=
 OpenBabel11042422363D

 33 36  0  0  1  0  0  0  0  0999 V2000
  160.2820  208.8810  154.7480 C   0  0  0  0  0  0  0  0  0  0  0  0
  162.3320  207.6490  150.6040 C   0  0  0  0  0  2  0  0  0  0  0  0
  161.1720  206.7190  154.0680 C   0  0  0  0  0  3  0  0  0  0  0  0
  161.7240  208.8760  151.2100 C   0  0  0  0  0  0  0  0  0  0  0  0
  159.6670  209.6860  155.7100 C   0  0  0  0  0  3  0  0  0  0  0  0
  162.1740  206.5650  151.6880 C   0  0  1  0  0  3  0  0  0  0  0  0
  159.7420  211.5740  154.1890 C   0  0  0  0  0  0  0  0  0  0  0  0
  159.3980  211.0300  155.4310 C   0  0  0  0  0  3  0  0  0  0  0  0
  159.4020  213.2560  153.8470 Cl  0  0  0  0  0  0  0  0  0  0  0  0
  160.5550  207.5320  155.0290 C   0  0  0  0  0  3  0  0  0  0  0  0
  161.2480  208.5920  152.5470 C   0  0  0  0  0  0  0  0  0  0  0  0
  161.6380  210.0330  150.6330 N   0  0  0  0  0  0  0  0  0  0  0  0
  161.5060  207.2710  152.8280 C   0  0  0  0  0  0  0  0  0  0  0  0
  160.6320  209.4310  153.4870 C   0  0  0  0  0  0  0  0  0  0  0  0
  160.3580  210.7780  153.2200 C   0  0  0  0  0  3  0  0  0  0  0  0
  161.3140  205.5050  151.1850 N   0  0  0  0  0  2  0  0  0  0  0  0
  161.2660  203.2860  149.5030 O   0  0  0  0  0  0  0  0  0  0  0  0
  161.3240  205.5990  149.7870 N   0  0  0  0  0  2  0  0  0  0  0  0
  161.3000  204.4300  148.9720 C   0  0  0  0  0  0  0  0  0  0  0  0
  161.3160  204.5660  147.5510 N   0  0  0  0  0  2  0  0  0  0  0  0
  161.2890  203.4120  146.6660 C   0  0  0  0  0  2  0  0  0  0  0  0
  160.0890  203.4400  144.5550 N   0  0  0  0  0  1  0  0  0  0  0  0
  161.3100  203.8660  145.2170 C   0  0  1  0  0  3  0  0  0  0  0  0
  160.3190  206.1350  144.9340 O   0  0  0  0  0  0  0  0  0  0  0  0
  161.4480  205.3520  145.1210 C   0  0  0  0  0  0  0  0  0  0  0  0
  162.5820  205.8970  145.1980 O   0  0  0  0  0  1  0  0  0  0  0  0
  162.1310  210.2870  149.2880 C   0  0  0  0  0  2  0  0  0  0  0  0
  163.2220  212.1700  147.9570 C   0  0  0  0  0  2  0  0  0  0  0  0
  161.4160  213.2330  146.5700 C   0  0  0  0  0  2  0  0  0  0  0  0
  162.7950  213.4260  147.2080 C   0  0  0  0  0  2  0  0  0  0  0  0
  160.8460  212.2950  148.7310 O   0  0  0  0  0  0  0  0  0  0  0  0
  162.1470  211.7840  148.9910 C   0  0  1  0  0  3  0  0  0  0  0  0
  160.5720  212.2200  147.3490 C   0  0  0  0  0  2  0  0  0  0  0  0
  1 10  2  0  0  0  0
  1  5  1  0  0  0  0
  2  4  1  0  0  0  0
  2  6  1  0  0  0  0
  3 10  1  0  0  0  0
  4 11  1  0  0  0  0
  6 16  1  6  0  0  0
  6 13  1  0  0  0  0
  7  8  1  0  0  0  0
  8  5  2  0  0  0  0
  9  7  1  0  0  0  0
 11 13  1  0  0  0  0
 11 14  2  0  0  0  0
 12  4  2  0  0  0  0
 13  3  2  0  0  0  0
 14  1  1  0  0  0  0
 15 14  1  0  0  0  0
 15  7  2  0  0  0  0
 18 16  1  0  0  0  0
 19 17  2  0  0  0  0
 19 18  1  0  0  0  0
 20 19  1  0  0  0  0
 21 20  1  0  0  0  0
 23 22  1  1  0  0  0
 23 21  1  0  0  0  0
 24 25  2  0  0  0  0
 25 26  1  0  0  0  0
 25 23  1  0  0  0  0
 27 12  1  0  0  0  0
 28 32  1  0  0  0  0
 29 30  1  0  0  0  0
 29 33  1  0  0  0  0
 30 28  1  0  0  0  0
 31 32  1  0  0  0  0
 32 27  1  6  0  0  0
 33 31  1  0  0  0  0
M  END
>  <MODEL>
1

>  <REMARK>
 VINA RESULT:      -8.6      0.000      0.000
  Name = 
  7 active torsions:
  status: ('A' for Active; 'I' for Inactive)
    1  A    between atoms: C_10  and  N_24
    2  A    between atoms: C_11  and  CA_30
    3  A    between atoms: N_20  and  N_24
    4  A    between atoms: N_21  and  C_25
    5  A    between atoms: C_23  and  C_25
    6  A    between atoms: CA_30  and  C_32
    7  A    between atoms: N_31  and  C_32
                            x       y       z     vdW  Elec       q    Type
                         _______ _______ _______ _____ _____    ______ ____

>  <TORSDO>
F 7

$$$$
=
 OpenBabel11042422363D

 33 36  0  0  1  0  0  0  0  0999 V2000
  161.1650  207.5680  152.8070 C   0  0  0  0  0  0  0  0  0  0  0  0
  161.7760  209.2050  148.3530 C   0  0  0  0  0  2  0  0  0  0  0  0
  161.2040  209.8720  152.0180 C   0  0  0  0  0  3  0  0  0  0  0  0
  161.7300  207.8760  149.0410 C   0  0  0  0  0  0  0  0  0  0  0  0
  161.0320  206.6500  153.8520 C   0  0  0  0  0  3  0  0  0  0  0  0
  161.5890  210.2330  149.4860 C   0  0  1  0  0  3  0  0  0  0  0  0
  161.3430  204.8180  152.2940 C   0  0  0  0  0  0  0  0  0  0  0  0
  161.1210  205.2780  153.5970 C   0  0  0  0  0  3  0  0  0  0  0  0
  161.4530  203.1000  151.9810 Cl  0  0  0  0  0  0  0  0  0  0  0  0
  161.0730  208.9460  153.0630 C   0  0  0  0  0  3  0  0  0  0  0  0
  161.5170  208.0530  150.4610 C   0  0  0  0  0  0  0  0  0  0  0  0
  161.8530  206.7250  148.4580 N   0  0  0  0  0  0  0  0  0  0  0  0
  161.4320  209.4010  150.7230 C   0  0  0  0  0  0  0  0  0  0  0  0
  161.3900  207.1020  151.4850 C   0  0  0  0  0  0  0  0  0  0  0  0
  161.4760  205.7260  151.2410 C   0  0  0  0  0  3  0  0  0  0  0  0
  162.7820  211.0570  149.5880 N   0  0  0  0  0  2  0  0  0  0  0  0
  161.6540  213.3450  148.4700 O   0  0  0  0  0  0  0  0  0  0  0  0
  163.0800  211.5090  148.2960 N   0  0  0  0  0  2  0  0  0  0  0  0
  162.4720  212.6870  147.7710 C   0  0  0  0  0  0  0  0  0  0  0  0
  162.7970  213.1130  146.4480 N   0  0  0  0  0  2  0  0  0  0  0  0
  162.2130  214.3070  145.8580 C   0  0  0  0  0  2  0  0  0  0  0  0
  163.6760  214.1270  143.9280 N   0  0  0  0  0  1  0  0  0  0  0  0
  162.2880  214.2300  144.3420 C   0  0  1  0  0  3  0  0  0  0  0  0
  162.0930  212.2130  142.8900 O   0  0  0  0  0  0  0  0  0  0  0  0
  161.5140  213.0590  143.8250 C   0  0  0  0  0  0  0  0  0  0  0  0
  160.3380  212.8410  144.2230 O   0  0  0  0  0  1  0  0  0  0  0  0
  162.0620  206.5810  147.0250 C   0  0  0  0  0  2  0  0  0  0  0  0
  161.6020  204.1150  147.4860 C   0  0  0  0  0  2  0  0  0  0  0  0
  160.8510  203.0880  145.3190 C   0  0  0  0  0  2  0  0  0  0  0  0
  161.4620  202.8190  146.6970 C   0  0  0  0  0  2  0  0  0  0  0  0
  162.4400  204.9170  145.2690 O   0  0  0  0  0  0  0  0  0  0  0  0
  162.4170  205.1390  146.6730 C   0  0  1  0  0  3  0  0  0  0  0  0
  161.1640  204.5060  144.8300 C   0  0  0  0  0  2  0  0  0  0  0  0
  1 10  2  0  0  0  0
  1  5  1  0  0  0  0
  2  4  1  0  0  0  0
  2  6  1  0  0  0  0
  3 10  1  0  0  0  0
  4 11  1  0  0  0  0
  6 16  1  1  0  0  0
  6 13  1  0  0  0  0
  7  8  1  0  0  0  0
  8  5  2  0  0  0  0
  9  7  1  0  0  0  0
 11 13  1  0  0  0  0
 11 14  2  0  0  0  0
 12  4  2  0  0  0  0
 13  3  2  0  0  0  0
 14  1  1  0  0  0  0
 15 14  1  0  0  0  0
 15  7  2  0  0  0  0
 18 16  1  0  0  0  0
 19 18  1  0  0  0  0
 19 17  2  0  0  0  0
 20 19  1  0  0  0  0
 21 20  1  0  0  0  0
 23 22  1  1  0  0  0
 23 21  1  0  0  0  0
 24 25  2  0  0  0  0
 25 26  1  0  0  0  0
 25 23  1  0  0  0  0
 27 12  1  0  0  0  0
 29 30  1  0  0  0  0
 30 28  1  0  0  0  0
 31 32  1  0  0  0  0
 32 27  1  6  0  0  0
 32 28  1  0  0  0  0
 33 31  1  0  0  0  0
 33 29  1  0  0  0  0
M  END
>  <MODEL>
2

>  <REMARK>
 VINA RESULT:      -8.5      3.155      7.131
  Name = 
  7 active torsions:
  status: ('A' for Active; 'I' for Inactive)
    1  A    between atoms: C_10  and  N_24
    2  A    between atoms: C_11  and  CA_30
    3  A    between atoms: N_20  and  N_24
    4  A    between atoms: N_21  and  C_25
    5  A    between atoms: C_23  and  C_25
    6  A    between atoms: CA_30  and  C_32
    7  A    between atoms: N_31  and  C_32
                            x       y       z     vdW  Elec       q    Type
                         _______ _______ _______ _____ _____    ______ ____

>  <TORSDO>
F 7

$$$$
=
 OpenBabel11042422363D

 33 36  0  0  1  0  0  0  0  0999 V2000
  161.0260  203.9570  152.0160 C   0  0  0  0  0  0  0  0  0  0  0  0
  161.1830  208.1600  149.7370 C   0  0  0  0  0  2  0  0  0  0  0  0
  161.0370  206.2040  152.9550 C   0  0  0  0  0  3  0  0  0  0  0  0
  161.1790  206.7080  149.3700 C   0  0  0  0  0  0  0  0  0  0  0  0
  160.9860  202.5720  152.1970 C   0  0  0  0  0  3  0  0  0  0  0  0
  161.1480  208.1690  151.2770 C   0  0  1  0  0  3  0  0  0  0  0  0
  161.0760  202.2480  149.7950 C   0  0  0  0  0  0  0  0  0  0  0  0
  161.0110  201.7190  151.0890 C   0  0  0  0  0  3  0  0  0  0  0  0
  161.1070  201.1760  148.4130 Cl  0  0  0  0  0  0  0  0  0  0  0  0
  160.9980  204.8130  153.1300 C   0  0  0  0  0  3  0  0  0  0  0  0
  161.1290  205.8900  150.5630 C   0  0  0  0  0  0  0  0  0  0  0  0
  161.2070  206.2390  148.1620 N   0  0  0  0  0  0  0  0  0  0  0  0
  161.1070  206.7210  151.6590 C   0  0  0  0  0  0  0  0  0  0  0  0
  161.0910  204.4950  150.7050 C   0  0  0  0  0  0  0  0  0  0  0  0
  161.1150  203.6310  149.6030 C   0  0  0  0  0  3  0  0  0  0  0  0
  162.3660  208.7840  151.7810 N   0  0  0  0  0  2  0  0  0  0  0  0
  161.3530  209.1970  154.3420 O   0  0  0  0  0  0  0  0  0  0  0  0
  162.0140  210.0470  152.2750 N   0  0  0  0  0  2  0  0  0  0  0  0
  161.4980  210.2020  153.5950 C   0  0  0  0  0  0  0  0  0  0  0  0
  161.1460  211.5050  154.0600 N   0  0  0  0  0  2  0  0  0  0  0  0
  160.6180  211.7290  155.3970 C   0  0  0  0  0  2  0  0  0  0  0  0
  159.1330  213.1830  154.1410 N   0  0  0  0  0  1  0  0  0  0  0  0
  159.2260  212.3310  155.3130 C   0  0  1  0  0  3  0  0  0  0  0  0
  156.9420  211.5470  154.6950 O   0  0  0  0  0  0  0  0  0  0  0  0
  158.1820  211.2620  155.2490 C   0  0  0  0  0  0  0  0  0  0  0  0
  158.4140  210.1100  155.7040 O   0  0  0  0  0  1  0  0  0  0  0  0
  161.2520  207.0900  146.9830 C   0  0  0  0  0  2  0  0  0  0  0  0
  162.6230  205.0950  146.1800 C   0  0  0  0  0  2  0  0  0  0  0  0
  161.0870  203.6490  144.8140 C   0  0  0  0  0  2  0  0  0  0  0  0
  162.5440  204.0250  145.0980 C   0  0  0  0  0  2  0  0  0  0  0  0
  160.7480  206.0480  144.8250 O   0  0  0  0  0  0  0  0  0  0  0  0
  161.7710  206.3140  145.7760 C   0  0  1  0  0  3  0  0  0  0  0  0
  160.1360  204.8110  145.1160 C   0  0  0  0  0  2  0  0  0  0  0  0
  1  5  1  0  0  0  0
  1 10  2  0  0  0  0
  2  6  1  0  0  0  0
  3 10  1  0  0  0  0
  4  2  1  0  0  0  0
  4 11  1  0  0  0  0
  6 13  1  0  0  0  0
  6 16  1  1  0  0  0
  7  8  1  0  0  0  0
  8  5  2  0  0  0  0
  9  7  1  0  0  0  0
 11 14  2  0  0  0  0
 11 13  1  0  0  0  0
 12  4  2  0  0  0  0
 13  3  2  0  0  0  0
 14  1  1  0  0  0  0
 15  7  2  0  0  0  0
 15 14  1  0  0  0  0
 16 18  1  0  0  0  0
 18 19  1  0  0  0  0
 19 20  1  0  0  0  0
 19 17  2  0  0  0  0
 20 21  1  0  0  0  0
 23 22  1  6  0  0  0
 23 21  1  0  0  0  0
 24 25  2  0  0  0  0
 25 23  1  0  0  0  0
 25 26  1  0  0  0  0
 27 12  1  0  0  0  0
 29 30  1  0  0  0  0
 29 33  1  0  0  0  0
 30 28  1  0  0  0  0
 31 33  1  0  0  0  0
 31 32  1  0  0  0  0
 32 28  1  0  0  0  0
 32 27  1  1  0  0  0
M  END
>  <MODEL>
3

>  <REMARK>
 VINA RESULT:      -8.5      3.776      8.249
  Name = 
  7 active torsions:
  status: ('A' for Active; 'I' for Inactive)
    1  A    between atoms: C_10  and  N_24
    2  A    between atoms: C_11  and  CA_30
    3  A    between atoms: N_20  and  N_24
    4  A    between atoms: N_21  and  C_25
    5  A    between atoms: C_23  and  C_25
    6  A    between atoms: CA_30  and  C_32
    7  A    between atoms: N_31  and  C_32
                            x       y       z     vdW  Elec       q    Type
                         _______ _______ _______ _____ _____    ______ ____

>  <TORSDO>
F 7

$$$$
=
 OpenBabel11042422363D

 33 36  0  0  1  0  0  0  0  0999 V2000
  161.0540  204.9040  151.9500 C   0  0  0  0  0  0  0  0  0  0  0  0
  161.2010  207.7790  148.1290 C   0  0  0  0  0  2  0  0  0  0  0  0
  161.0660  207.3380  151.8690 C   0  0  0  0  0  3  0  0  0  0  0  0
  161.1980  206.3060  148.3990 C   0  0  0  0  0  0  0  0  0  0  0  0
  161.0170  203.7190  152.6900 C   0  0  0  0  0  3  0  0  0  0  0  0
  161.1710  208.4280  149.5260 C   0  0  1  0  0  3  0  0  0  0  0  0
  161.1000  202.4260  150.6400 C   0  0  0  0  0  0  0  0  0  0  0  0
  161.0390  202.4830  152.0370 C   0  0  0  0  0  3  0  0  0  0  0  0
  161.1280  200.8770  149.8290 Cl  0  0  0  0  0  0  0  0  0  0  0  0
  161.0280  206.1450  152.6070 C   0  0  0  0  0  3  0  0  0  0  0  0
  161.1520  206.0580  149.8240 C   0  0  0  0  0  0  0  0  0  0  0  0
  161.2230  205.3770  147.4950 N   0  0  0  0  0  0  0  0  0  0  0  0
  161.1320  207.2690  150.4750 C   0  0  0  0  0  0  0  0  0  0  0  0
  161.1160  204.8480  150.5330 C   0  0  0  0  0  0  0  0  0  0  0  0
  161.1370  203.6050  149.8900 C   0  0  0  0  0  3  0  0  0  0  0  0
  162.3900  209.1960  149.7250 N   0  0  0  0  0  2  0  0  0  0  0  0
  161.5430  211.8490  149.7270 O   0  0  0  0  0  0  0  0  0  0  0  0
  162.5230  210.0470  148.6200 N   0  0  0  0  0  2  0  0  0  0  0  0
  162.0710  211.3970  148.6740 C   0  0  0  0  0  0  0  0  0  0  0  0
  162.2200  212.2320  147.5250 N   0  0  0  0  0  2  0  0  0  0  0  0
  161.7820  213.6190  147.5190 C   0  0  0  0  0  2  0  0  0  0  0  0
  162.1010  213.3350  145.1280 N   0  0  0  0  0  1  0  0  0  0  0  0
  161.2950  214.0060  146.1330 C   0  0  1  0  0  3  0  0  0  0  0  0
  159.5170  212.4230  145.3930 O   0  0  0  0  0  0  0  0  0  0  0  0
  159.8540  213.6480  145.9510 C   0  0  0  0  0  0  0  0  0  0  0  0
  158.9450  214.4530  146.2890 O   0  0  0  0  0  1  0  0  0  0  0  0
  161.2640  205.6610  146.0680 C   0  0  0  0  0  2  0  0  0  0  0  0
  161.3850  203.1150  146.1540 C   0  0  0  0  0  2  0  0  0  0  0  0
  159.5240  202.2410  144.7090 C   0  0  0  0  0  2  0  0  0  0  0  0
  160.8810  201.9270  145.3440 C   0  0  0  0  0  2  0  0  0  0  0  0
  160.5860  204.3380  144.1230 O   0  0  0  0  0  0  0  0  0  0  0  0
  161.4300  204.3730  145.2660 C   0  0  1  0  0  3  0  0  0  0  0  0
  159.3530  203.7430  144.4590 C   0  0  0  0  0  2  0  0  0  0  0  0
  1 10  2  0  0  0  0
  1  5  1  0  0  0  0
  2  4  1  0  0  0  0
  2  6  1  0  0  0  0
  3 10  1  0  0  0  0
  4 11  1  0  0  0  0
  6 16  1  1  0  0  0
  6 13  1  0  0  0  0
  7  8  1  0  0  0  0
  8  5  2  0  0  0  0
  9  7  1  0  0  0  0
 11 13  1  0  0  0  0
 11 14  2  0  0  0  0
 12  4  2  0  0  0  0
 13  3  2  0  0  0  0
 14  1  1  0  0  0  0
 15 14  1  0  0  0  0
 15  7  2  0  0  0  0
 18 19  1  0  0  0  0
 18 16  1  0  0  0  0
 19 17  2  0  0  0  0
 20 19  1  0  0  0  0
 21 20  1  0  0  0  0
 23 22  1  6  0  0  0
 23 21  1  0  0  0  0
 24 25  2  0  0  0  0
 25 23  1  0  0  0  0
 25 26  1  0  0  0  0
 27 12  1  0  0  0  0
 29 30  1  0  0  0  0
 30 28  1  0  0  0  0
 31 33  1  0  0  0  0
 31 32  1  0  0  0  0
 32 27  1  1  0  0  0
 32 28  1  0  0  0  0
 33 29  1  0  0  0  0
M  END
>  <MODEL>
4

>  <REMARK>
 VINA RESULT:      -8.2      3.454      7.735
  Name = 
  7 active torsions:
  status: ('A' for Active; 'I' for Inactive)
    1  A    between atoms: C_10  and  N_24
    2  A    between atoms: C_11  and  CA_30
    3  A    between atoms: N_20  and  N_24
    4  A    between atoms: N_21  and  C_25
    5  A    between atoms: C_23  and  C_25
    6  A    between atoms: CA_30  and  C_32
    7  A    between atoms: N_31  and  C_32
                            x       y       z     vdW  Elec       q    Type
                         _______ _______ _______ _____ _____    ______ ____

>  <TORSDO>
F 7

$$$$
=
 OpenBabel11042422363D

 33 36  0  0  1  0  0  0  0  0999 V2000
  161.2180  205.5570  149.8390 C   0  0  0  0  0  0  0  0  0  0  0  0
  161.5880  210.1730  151.0410 C   0  0  0  0  0  2  0  0  0  0  0  0
  160.8100  206.6110  151.9960 C   0  0  0  0  0  3  0  0  0  0  0  0
  161.7960  209.3330  149.8180 C   0  0  0  0  0  0  0  0  0  0  0  0
  161.2500  204.4100  149.0410 C   0  0  0  0  0  3  0  0  0  0  0  0
  161.1720  209.1680  152.1330 C   0  0  1  0  0  3  0  0  0  0  0  0
  161.9600  205.7420  147.1420 C   0  0  0  0  0  0  0  0  0  0  0  0
  161.6200  204.5030  147.6950 C   0  0  0  0  0  3  0  0  0  0  0  0
  162.4210  205.8500  145.4580 Cl  0  0  0  0  0  0  0  0  0  0  0  0
  160.8440  205.4640  151.1900 C   0  0  0  0  0  3  0  0  0  0  0  0
  161.5190  207.9430  150.1120 C   0  0  0  0  0  0  0  0  0  0  0  0
  162.1610  209.7770  148.6560 N   0  0  0  0  0  0  0  0  0  0  0  0
  161.1580  207.8430  151.4350 C   0  0  0  0  0  0  0  0  0  0  0  0
  161.5630  206.8150  149.2800 C   0  0  0  0  0  0  0  0  0  0  0  0
  161.9310  206.8950  147.9310 C   0  0  0  0  0  3  0  0  0  0  0  0
  162.1720  209.1650  153.1890 N   0  0  0  0  0  2  0  0  0  0  0  0
  160.2460  209.4490  155.1810 O   0  0  0  0  0  0  0  0  0  0  0  0
  161.9940  210.3450  153.9250 N   0  0  0  0  0  2  0  0  0  0  0  0
  160.9910  210.4370  154.9340 C   0  0  0  0  0  0  0  0  0  0  0  0
  160.8370  211.6570  155.6580 N   0  0  0  0  0  2  0  0  0  0  0  0
  159.8350  211.8120  156.7010 C   0  0  0  0  0  2  0  0  0  0  0  0
  159.2280  213.6290  155.2080 N   0  0  0  0  0  1  0  0  0  0  0  0
  158.7160  212.7200  156.2190 C   0  0  1  0  0  3  0  0  0  0  0  0
  156.5260  211.5590  156.4810 O   0  0  0  0  0  1  0  0  0  0  0  0
  157.5820  211.9230  155.6580 C   0  0  0  0  0  0  0  0  0  0  0  0
  157.5820  211.5690  154.4480 O   0  0  0  0  0  0  0  0  0  0  0  0
  162.4280  211.1830  148.3930 C   0  0  0  0  0  2  0  0  0  0  0  0
  161.0820  213.2990  148.8580 C   0  0  0  0  0  2  0  0  0  0  0  0
  160.6420  214.3940  146.6400 C   0  0  0  0  0  2  0  0  0  0  0  0
  160.1830  214.2630  148.0950 C   0  0  0  0  0  2  0  0  0  0  0  0
  160.7930  211.9780  146.7530 O   0  0  0  0  0  0  0  0  0  0  0  0
  161.1280  211.9400  148.1340 C   0  0  1  0  0  3  0  0  0  0  0  0
  161.3560  213.1270  146.1580 C   0  0  0  0  0  2  0  0  0  0  0  0
  1 10  1  0  0  0  0
  2  6  1  0  0  0  0
  4 11  1  0  0  0  0
  4  2  1  0  0  0  0
  5  1  2  0  0  0  0
  6 16  1  1  0  0  0
  7  8  2  0  0  0  0
  7 15  1  0  0  0  0
  8  5  1  0  0  0  0
  9  7  1  0  0  0  0
 10  3  2  0  0  0  0
 11 13  2  0  0  0  0
 12  4  2  0  0  0  0
 13  3  1  0  0  0  0
 13  6  1  0  0  0  0
 14  1  1  0  0  0  0
 14 11  1  0  0  0  0
 15 14  2  0  0  0  0
 16 18  1  0  0  0  0
 18 19  1  0  0  0  0
 19 17  2  0  0  0  0
 19 20  1  0  0  0  0
 20 21  1  0  0  0  0
 23 22  1  6  0  0  0
 23 21  1  0  0  0  0
 25 23  1  0  0  0  0
 25 24  1  0  0  0  0
 26 25  2  0  0  0  0
 27 12  1  0  0  0  0
 29 30  1  0  0  0  0
 30 28  1  0  0  0  0
 31 32  1  0  0  0  0
 32 27  1  6  0  0  0
 32 28  1  0  0  0  0
 33 29  1  0  0  0  0
 33 31  1  0  0  0  0
M  END
>  <MODEL>
5

>  <REMARK>
 VINA RESULT:      -7.9      3.816      7.780
  Name = 
  7 active torsions:
  status: ('A' for Active; 'I' for Inactive)
    1  A    between atoms: C_10  and  N_24
    2  A    between atoms: C_11  and  CA_30
    3  A    between atoms: N_20  and  N_24
    4  A    between atoms: N_21  and  C_25
    5  A    between atoms: C_23  and  C_25
    6  A    between atoms: CA_30  and  C_32
    7  A    between atoms: N_31  and  C_32
                            x       y       z     vdW  Elec       q    Type
                         _______ _______ _______ _____ _____    ______ ____

>  <TORSDO>
F 7

$$$$
=
 OpenBabel11042422363D

 33 36  0  0  1  0  0  0  0  0999 V2000
  161.2020  204.1620  149.0120 C   0  0  0  0  0  0  0  0  0  0  0  0
  161.1750  208.2290  151.5320 C   0  0  0  0  0  2  0  0  0  0  0  0
  160.6850  204.4960  151.3690 C   0  0  0  0  0  3  0  0  0  0  0  0
  161.4640  207.8080  150.1240 C   0  0  0  0  0  0  0  0  0  0  0  0
  161.3380  203.3090  147.9140 C   0  0  0  0  0  3  0  0  0  0  0  0
  160.8310  206.9180  152.2640 C   0  0  1  0  0  3  0  0  0  0  0  0
  161.9550  205.1940  146.5170 C   0  0  0  0  0  0  0  0  0  0  0  0
  161.7130  203.8240  146.6690 C   0  0  0  0  0  3  0  0  0  0  0  0
  162.4240  205.8310  144.9570 Cl  0  0  0  0  0  0  0  0  0  0  0  0
  160.8220  203.6450  150.2620 C   0  0  0  0  0  3  0  0  0  0  0  0
  161.3010  206.3770  149.9860 C   0  0  0  0  0  0  0  0  0  0  0  0
  161.8040  208.6020  149.1580 N   0  0  0  0  0  0  0  0  0  0  0  0
  160.9340  205.8610  151.2070 C   0  0  0  0  0  0  0  0  0  0  0  0
  161.4470  205.5520  148.8600 C   0  0  0  0  0  0  0  0  0  0  0  0
  161.8210  206.0560  147.6090 C   0  0  0  0  0  3  0  0  0  0  0  0
  161.8160  206.6780  153.3070 N   0  0  0  0  0  2  0  0  0  0  0  0
  160.0570  207.2680  155.3840 O   0  0  0  0  0  0  0  0  0  0  0  0
  161.8940  207.8490  154.0730 N   0  0  0  0  0  2  0  0  0  0  0  0
  160.9670  208.1020  155.1250 C   0  0  0  0  0  0  0  0  0  0  0  0
  161.0760  209.3080  155.8800 N   0  0  0  0  0  2  0  0  0  0  0  0
  160.1630  209.6230  156.9680 C   0  0  0  0  0  2  0  0  0  0  0  0
  160.7110  211.9310  156.4510 N   0  0  0  0  0  1  0  0  0  0  0  0
  159.6260  211.0350  156.8060 C   0  0  1  0  0  3  0  0  0  0  0  0
  157.2250  211.0790  156.1380 O   0  0  0  0  0  1  0  0  0  0  0  0
  158.5600  211.0870  155.7590 C   0  0  0  0  0  0  0  0  0  0  0  0
  158.8620  211.1260  154.5360 O   0  0  0  0  0  0  0  0  0  0  0  0
  161.9560  210.0390  149.3300 C   0  0  0  0  0  2  0  0  0  0  0  0
  160.7370  211.5370  147.6630 C   0  0  0  0  0  2  0  0  0  0  0  0
  162.1630  213.5800  147.3310 C   0  0  0  0  0  2  0  0  0  0  0  0
  161.0620  212.6990  146.7330 C   0  0  0  0  0  2  0  0  0  0  0  0
  163.2350  211.4570  147.7970 O   0  0  0  0  0  0  0  0  0  0  0  0
  162.0190  210.7410  147.9760 C   0  0  1  0  0  3  0  0  0  0  0  0
  163.0810  212.7810  148.2610 C   0  0  0  0  0  2  0  0  0  0  0  0
  1 10  1  0  0  0  0
  2  6  1  0  0  0  0
  4  2  1  0  0  0  0
  5  1  2  0  0  0  0
  6 16  1  1  0  0  0
  7  8  2  0  0  0  0
  7 15  1  0  0  0  0
  8  5  1  0  0  0  0
  9  7  1  0  0  0  0
 10  3  2  0  0  0  0
 11  4  1  0  0  0  0
 11 13  2  0  0  0  0
 12 27  1  0  0  0  0
 12  4  2  0  0  0  0
 13  3  1  0  0  0  0
 13  6  1  0  0  0  0
 14  1  1  0  0  0  0
 14 11  1  0  0  0  0
 15 14  2  0  0  0  0
 16 18  1  0  0  0  0
 18 19  1  0  0  0  0
 19 17  2  0  0  0  0
 19 20  1  0  0  0  0
 20 21  1  0  0  0  0
 23 22  1  6  0  0  0
 23 21  1  0  0  0  0
 25 24  1  0  0  0  0
 25 23  1  0  0  0  0
 26 25  2  0  0  0  0
 28 32  1  0  0  0  0
 29 33  1  0  0  0  0
 30 29  1  0  0  0  0
 30 28  1  0  0  0  0
 31 32  1  0  0  0  0
 31 33  1  0  0  0  0
 32 27  1  1  0  0  0
M  END
>  <MODEL>
6

>  <REMARK>
 VINA RESULT:      -7.8      3.644      7.703
  Name = 
  7 active torsions:
  status: ('A' for Active; 'I' for Inactive)
    1  A    between atoms: C_10  and  N_24
    2  A    between atoms: C_11  and  CA_30
    3  A    between atoms: N_20  and  N_24
    4  A    between atoms: N_21  and  C_25
    5  A    between atoms: C_23  and  C_25
    6  A    between atoms: CA_30  and  C_32
    7  A    between atoms: N_31  and  C_32
                            x       y       z     vdW  Elec       q    Type
                         _______ _______ _______ _____ _____    ______ ____

>  <TORSDO>
F 7

$$$$
=
 OpenBabel11042422363D

 33 36  0  0  1  0  0  0  0  0999 V2000
  160.2370  210.3210  154.5090 C   0  0  0  0  0  0  0  0  0  0  0  0
  161.6880  208.3530  150.3970 C   0  0  0  0  0  2  0  0  0  0  0  0
  160.4560  211.3550  152.3150 C   0  0  0  0  0  3  0  0  0  0  0  0
  161.4950  207.9200  151.8170 C   0  0  0  0  0  0  0  0  0  0  0  0
  159.8990  210.4170  155.8620 C   0  0  0  0  0  3  0  0  0  0  0  0
  161.3090  209.8470  150.3940 C   0  0  1  0  0  3  0  0  0  0  0  0
  160.4660  208.0800  156.1760 C   0  0  0  0  0  0  0  0  0  0  0  0
  160.0130  209.2990  156.6930 C   0  0  0  0  0  3  0  0  0  0  0  0
  160.6060  206.6850  157.2220 Cl  0  0  0  0  0  0  0  0  0  0  0  0
  160.1190  211.4440  153.6730 C   0  0  0  0  0  3  0  0  0  0  0  0
  161.0250  209.0290  152.6200 C   0  0  0  0  0  0  0  0  0  0  0  0
  161.7060  206.7250  152.2730 N   0  0  0  0  0  0  0  0  0  0  0  0
  160.9130  210.1340  151.8110 C   0  0  0  0  0  0  0  0  0  0  0  0
  160.6960  209.0860  153.9830 C   0  0  0  0  0  0  0  0  0  0  0  0
  160.8050  207.9730  154.8250 C   0  0  0  0  0  3  0  0  0  0  0  0
  162.4750  210.6370  150.0320 N   0  0  0  0  0  2  0  0  0  0  0  0
  161.1080  212.9370  149.2600 O   0  0  0  0  0  0  0  0  0  0  0  0
  162.3100  211.0220  148.6950 N   0  0  0  0  0  2  0  0  0  0  0  0
  161.6000  212.2100  148.3550 C   0  0  0  0  0  0  0  0  0  0  0  0
  161.4480  212.5660  146.9810 N   0  0  0  0  0  2  0  0  0  0  0  0
  160.7370  213.7660  146.5700 C   0  0  0  0  0  2  0  0  0  0  0  0
  159.7520  212.1990  144.9980 N   0  0  0  0  0  1  0  0  0  0  0  0
  159.4920  213.3920  145.7840 C   0  0  1  0  0  3  0  0  0  0  0  0
  157.3540  212.2370  146.3420 O   0  0  0  0  0  0  0  0  0  0  0  0
  158.3320  213.1560  146.6980 C   0  0  0  0  0  0  0  0  0  0  0  0
  158.2280  213.7910  147.7820 O   0  0  0  0  0  1  0  0  0  0  0  0
  162.1750  205.6300  151.4360 C   0  0  0  0  0  2  0  0  0  0  0  0
  161.2140  204.2450  149.5230 C   0  0  0  0  0  2  0  0  0  0  0  0
  160.8470  201.9210  150.4080 C   0  0  0  0  0  2  0  0  0  0  0  0
  160.4460  202.9420  149.3390 C   0  0  0  0  0  2  0  0  0  0  0  0
  160.6110  203.8070  151.9120 O   0  0  0  0  0  0  0  0  0  0  0  0
  161.0040  204.7800  150.9520 C   0  0  1  0  0  3  0  0  0  0  0  0
  161.3220  202.6080  151.6930 C   0  0  0  0  0  2  0  0  0  0  0  0
  1  5  1  0  0  0  0
  2  4  1  0  0  0  0
  3 10  1  0  0  0  0
  4 12  2  0  0  0  0
  4 11  1  0  0  0  0
  5  8  2  0  0  0  0
  6 16  1  1  0  0  0
  6  2  1  0  0  0  0
  6 13  1  0  0  0  0
  7  8  1  0  0  0  0
  7  9  1  0  0  0  0
 10  1  2  0  0  0  0
 11 14  2  0  0  0  0
 13  3  2  0  0  0  0
 13 11  1  0  0  0  0
 14  1  1  0  0  0  0
 14 15  1  0  0  0  0
 15  7  2  0  0  0  0
 18 16  1  0  0  0  0
 19 18  1  0  0  0  0
 19 17  2  0  0  0  0
 20 19  1  0  0  0  0
 21 20  1  0  0  0  0
 23 22  1  1  0  0  0
 23 21  1  0  0  0  0
 23 25  1  0  0  0  0
 24 25  2  0  0  0  0
 25 26  1  0  0  0  0
 27 12  1  0  0  0  0
 28 32  1  0  0  0  0
 29 33  1  0  0  0  0
 30 28  1  0  0  0  0
 30 29  1  0  0  0  0
 32 27  1  1  0  0  0
 32 31  1  0  0  0  0
 33 31  1  0  0  0  0
M  END
>  <MODEL>
7

>  <REMARK>
 VINA RESULT:      -7.7      3.246      6.846
  Name = 
  7 active torsions:
  status: ('A' for Active; 'I' for Inactive)
    1  A    between atoms: C_10  and  N_24
    2  A    between atoms: C_11  and  CA_30
    3  A    between atoms: N_20  and  N_24
    4  A    between atoms: N_21  and  C_25
    5  A    between atoms: C_23  and  C_25
    6  A    between atoms: CA_30  and  C_32
    7  A    between atoms: N_31  and  C_32
                            x       y       z     vdW  Elec       q    Type
                         _______ _______ _______ _____ _____    ______ ____

>  <TORSDO>
F 7

$$$$
=
 OpenBabel11042422363D

 33 36  0  0  1  0  0  0  0  0999 V2000
  161.2270  206.9510  152.5680 C   0  0  0  0  0  0  0  0  0  0  0  0
  162.3170  209.0770  148.4230 C   0  0  0  0  0  2  0  0  0  0  0  0
  161.7360  205.9310  150.4160 C   0  0  0  0  0  3  0  0  0  0  0  0
  161.9680  209.4970  149.8180 C   0  0  0  0  0  0  0  0  0  0  0  0
  160.8930  206.8200  153.9190 C   0  0  0  0  0  3  0  0  0  0  0  0
  162.2500  207.5380  148.4560 C   0  0  1  0  0  3  0  0  0  0  0  0
  160.8830  209.2330  154.1580 C   0  0  0  0  0  0  0  0  0  0  0  0
  160.7220  207.9590  154.7120 C   0  0  0  0  0  3  0  0  0  0  0  0
  160.6670  210.6530  155.1570 Cl  0  0  0  0  0  0  0  0  0  0  0  0
  161.4010  205.8060  151.7720 C   0  0  0  0  0  3  0  0  0  0  0  0
  161.7250  208.3340  150.6450 C   0  0  0  0  0  0  0  0  0  0  0  0
  161.9000  210.7210  150.2390 N   0  0  0  0  0  0  0  0  0  0  0  0
  161.8880  207.2090  149.8720 C   0  0  0  0  0  0  0  0  0  0  0  0
  161.3900  208.2430  152.0050 C   0  0  0  0  0  0  0  0  0  0  0  0
  161.2170  209.3760  152.8090 C   0  0  0  0  0  3  0  0  0  0  0  0
  161.2020  207.0840  147.5550 N   0  0  0  0  0  2  0  0  0  0  0  0
  162.0460  204.8350  146.1460 O   0  0  0  0  0  0  0  0  0  0  0  0
  160.8780  205.7740  147.9310 N   0  0  0  0  0  2  0  0  0  0  0  0
  161.3360  204.6570  147.1730 C   0  0  0  0  0  0  0  0  0  0  0  0
  160.9810  203.3380  147.5850 N   0  0  0  0  0  2  0  0  0  0  0  0
  161.4190  202.1580  146.8550 C   0  0  0  0  0  2  0  0  0  0  0  0
  161.5800  199.7510  147.1340 N   0  0  0  0  0  1  0  0  0  0  0  0
  160.7640  200.9140  147.4320 C   0  0  1  0  0  3  0  0  0  0  0  0
  159.3220  201.3220  149.4240 O   0  0  0  0  0  0  0  0  0  0  0  0
  160.5800  201.0420  148.9110 C   0  0  0  0  0  0  0  0  0  0  0  0
  161.5590  200.9070  149.6940 O   0  0  0  0  0  1  0  0  0  0  0  0
  162.1560  211.8690  149.3810 C   0  0  0  0  0  2  0  0  0  0  0  0
  160.4870  213.7840  149.1510 C   0  0  0  0  0  2  0  0  0  0  0  0
  160.4280  214.4200  146.7200 C   0  0  0  0  0  2  0  0  0  0  0  0
  159.6720  214.4530  148.0520 C   0  0  0  0  0  2  0  0  0  0  0  0
  160.8480  212.1120  147.3250 O   0  0  0  0  0  0  0  0  0  0  0  0
  160.8640  212.3510  148.7260 C   0  0  1  0  0  3  0  0  0  0  0  0
  161.3840  213.2260  146.6440 C   0  0  0  0  0  2  0  0  0  0  0  0
  1  5  1  0  0  0  0
  2  6  1  0  0  0  0
  2  4  1  0  0  0  0
  3 10  1  0  0  0  0
  4 12  2  0  0  0  0
  4 11  1  0  0  0  0
  5  8  2  0  0  0  0
  6 16  1  6  0  0  0
  6 13  1  0  0  0  0
  7  8  1  0  0  0  0
  7  9  1  0  0  0  0
 10  1  2  0  0  0  0
 11 14  2  0  0  0  0
 13  3  2  0  0  0  0
 13 11  1  0  0  0  0
 14  1  1  0  0  0  0
 14 15  1  0  0  0  0
 15  7  2  0  0  0  0
 16 18  1  0  0  0  0
 17 19  2  0  0  0  0
 19 20  1  0  0  0  0
 19 18  1  0  0  0  0
 21 23  1  0  0  0  0
 21 20  1  0  0  0  0
 23 22  1  1  0  0  0
 23 25  1  0  0  0  0
 25 24  2  0  0  0  0
 25 26  1  0  0  0  0
 27 12  1  0  0  0  0
 29 30  1  0  0  0  0
 30 28  1  0  0  0  0
 31 32  1  0  0  0  0
 32 28  1  0  0  0  0
 32 27  1  6  0  0  0
 33 29  1  0  0  0  0
 33 31  1  0  0  0  0
M  END
>  <MODEL>
8

>  <REMARK>
 VINA RESULT:      -7.2      1.860      3.282
  Name = 
  7 active torsions:
  status: ('A' for Active; 'I' for Inactive)
    1  A    between atoms: C_10  and  N_24
    2  A    between atoms: C_11  and  CA_30
    3  A    between atoms: N_20  and  N_24
    4  A    between atoms: N_21  and  C_25
    5  A    between atoms: C_23  and  C_25
    6  A    between atoms: CA_30  and  C_32
    7  A    between atoms: N_31  and  C_32
                            x       y       z     vdW  Elec       q    Type
                         _______ _______ _______ _____ _____    ______ ____

>  <TORSDO>
F 7

$$$$
=
 OpenBabel11042422363D

 33 36  0  0  1  0  0  0  0  0999 V2000
  160.8750  207.1110  154.0100 C   0  0  0  0  0  0  0  0  0  0  0  0
  161.8760  209.3130  149.8820 C   0  0  0  0  0  2  0  0  0  0  0  0
  161.6710  206.1490  151.9190 C   0  0  0  0  0  3  0  0  0  0  0  0
  161.3800  209.6960  151.2420 C   0  0  0  0  0  0  0  0  0  0  0  0
  160.4830  206.9520  155.3410 C   0  0  0  0  0  3  0  0  0  0  0  0
  162.0490  207.7830  149.9500 C   0  0  1  0  0  3  0  0  0  0  0  0
  160.0800  209.3380  155.5160 C   0  0  0  0  0  0  0  0  0  0  0  0
  160.0860  208.0630  156.0930 C   0  0  0  0  0  3  0  0  0  0  0  0
  159.5830  210.7220  156.4620 Cl  0  0  0  0  0  0  0  0  0  0  0  0
  161.2760  205.9950  153.2560 C   0  0  0  0  0  3  0  0  0  0  0  0
  161.2700  208.5240  152.0840 C   0  0  0  0  0  0  0  0  0  0  0  0
  161.0950  210.9010  151.6250 N   0  0  0  0  0  0  0  0  0  0  0  0
  161.6550  207.4250  151.3510 C   0  0  0  0  0  0  0  0  0  0  0  0
  160.8700  208.4030  153.4230 C   0  0  0  0  0  0  0  0  0  0  0  0
  160.4720  209.5080  154.1850 C   0  0  0  0  0  3  0  0  0  0  0  0
  161.1430  207.1550  149.0020 N   0  0  0  0  0  2  0  0  0  0  0  0
  160.7450  205.6960  146.6630 O   0  0  0  0  0  0  0  0  0  0  0  0
  161.5750  205.8320  148.8370 N   0  0  0  0  0  2  0  0  0  0  0  0
  161.3450  205.1300  147.6180 C   0  0  0  0  0  0  0  0  0  0  0  0
  161.7960  203.7820  147.4900 N   0  0  0  0  0  2  0  0  0  0  0  0
  161.5940  203.0140  146.2710 C   0  0  0  0  0  2  0  0  0  0  0  0
  160.0850  201.4120  145.2440 N   0  0  0  0  0  1  0  0  0  0  0  0
  160.5840  201.9050  146.5160 C   0  0  1  0  0  3  0  0  0  0  0  0
  161.3490  200.9020  148.6650 O   0  0  0  0  0  1  0  0  0  0  0  0
  161.1970  200.7830  147.2910 C   0  0  0  0  0  0  0  0  0  0  0  0
  161.5870  199.7360  146.7070 O   0  0  0  0  0  0  0  0  0  0  0  0
  161.2210  212.0600  150.7540 C   0  0  0  0  0  2  0  0  0  0  0  0
  159.3370  213.6850  150.1950 C   0  0  0  0  0  2  0  0  0  0  0  0
  157.5010  213.2850  151.8630 C   0  0  0  0  0  2  0  0  0  0  0  0
  158.1150  214.2850  150.8780 C   0  0  0  0  0  2  0  0  0  0  0  0
  159.8030  212.9500  152.5410 O   0  0  0  0  0  0  0  0  0  0  0  0
  160.3500  213.2080  151.2540 C   0  0  1  0  0  3  0  0  0  0  0  0
  158.5520  212.3120  152.4070 C   0  0  0  0  0  2  0  0  0  0  0  0
  1  5  1  0  0  0  0
  2  6  1  0  0  0  0
  2  4  1  0  0  0  0
  3 10  1  0  0  0  0
  4 12  2  0  0  0  0
  4 11  1  0  0  0  0
  5  8  2  0  0  0  0
  6 16  1  6  0  0  0
  6 13  1  0  0  0  0
  7  8  1  0  0  0  0
  7  9  1  0  0  0  0
 10  1  2  0  0  0  0
 11 14  2  0  0  0  0
 13  3  2  0  0  0  0
 13 11  1  0  0  0  0
 14  1  1  0  0  0  0
 14 15  1  0  0  0  0
 15  7  2  0  0  0  0
 17 19  2  0  0  0  0
 18 16  1  0  0  0  0
 19 18  1  0  0  0  0
 20 19  1  0  0  0  0
 21 23  1  0  0  0  0
 21 20  1  0  0  0  0
 23 22  1  6  0  0  0
 23 25  1  0  0  0  0
 25 24  1  0  0  0  0
 26 25  2  0  0  0  0
 27 12  1  0  0  0  0
 28 30  1  0  0  0  0
 28 32  1  0  0  0  0
 29 33  1  0  0  0  0
 30 29  1  0  0  0  0
 32 27  1  6  0  0  0
 32 31  1  0  0  0  0
 33 31  1  0  0  0  0
M  END
>  <MODEL>
9

>  <REMARK>
 VINA RESULT:      -7.2      2.193      3.396
  Name = 
  7 active torsions:
  status: ('A' for Active; 'I' for Inactive)
    1  A    between atoms: C_10  and  N_24
    2  A    between atoms: C_11  and  CA_30
    3  A    between atoms: N_20  and  N_24
    4  A    between atoms: N_21  and  C_25
    5  A    between atoms: C_23  and  C_25
    6  A    between atoms: CA_30  and  C_32
    7  A    between atoms: N_31  and  C_32
                            x       y       z     vdW  Elec       q    Type
                         _______ _______ _______ _____ _____    ______ ____

>  <TORSDO>
F 7

$$$$
