=
 OpenBabel11042423113D

 29 32  0  0  1  0  0  0  0  0999 V2000
  161.6040  208.7590  148.6700 N   0  0  0  0  0  0  0  0  0  0  0  0
  161.4470  207.8310  149.5660 C   0  0  0  0  0  0  0  0  0  0  0  0
  162.0620  207.9220  150.9360 C   0  0  2  0  0  3  0  0  0  0  0  0
  161.3310  206.4850  153.3420 C   0  0  0  0  0  3  0  0  0  0  0  0
  160.7560  207.6260  153.1130 N   0  0  0  0  0  0  0  0  0  0  0  0
  162.7040  206.6150  151.3270 C   0  0  0  0  0  3  0  0  0  0  0  0
  162.3590  205.9530  152.4340 C   0  0  0  0  0  3  0  0  0  0  0  0
  161.0800  208.4240  151.9670 C   0  0  0  0  0  0  0  0  0  0  0  0
  160.5460  209.5540  151.8260 O   0  0  0  0  0  0  0  0  0  0  0  0
  162.3730  209.8760  148.9030 O   0  0  0  0  0  0  0  0  0  0  0  0
  162.8190  212.2020  148.5900 C   0  0  0  0  0  2  0  0  0  0  0  0
  161.7760  211.1590  148.9250 C   0  0  1  0  0  3  0  0  0  0  0  0
  161.8340  211.7490  147.5330 C   0  0  1  0  0  3  0  0  0  0  0  0
  160.7340  212.7850  147.3940 C   0  0  0  0  0  2  0  0  0  0  0  0
  160.9140  212.3020  143.2260 O   0  0  0  0  0  0  0  0  0  0  0  0
  159.6120  212.4460  143.7390 C   0  0  0  0  0  2  0  0  0  0  0  0
  161.6700  213.3770  143.7300 C   0  0  0  0  0  2  0  0  0  0  0  0
  160.5400  213.1620  145.9360 C   0  0  0  0  0  3  0  0  0  0  0  0
  159.6090  212.1650  145.2420 C   0  0  0  0  0  2  0  0  0  0  0  0
  161.8930  213.1980  145.2320 C   0  0  0  0  0  2  0  0  0  0  0  0
  160.5690  206.6670  149.2550 C   0  0  0  0  0  2  0  0  0  0  0  0
  161.3230  205.6390  148.4720 C   0  0  0  0  0  0  0  0  0  0  0  0
  162.1330  206.0260  147.5870 O   0  0  0  0  0  0  0  0  0  0  0  0
  161.1590  201.8970  147.9570 C   0  0  0  0  0  3  0  0  0  0  0  0
  160.8450  201.4510  149.2440 C   0  0  0  0  0  3  0  0  0  0  0  0
  160.8410  203.7410  150.0310 C   0  0  0  0  0  3  0  0  0  0  0  0
  161.3140  203.2630  147.7070 C   0  0  0  0  0  3  0  0  0  0  0  0
  160.6870  202.3740  150.2810 C   0  0  0  0  0  3  0  0  0  0  0  0
  161.1560  204.1970  148.7420 C   0  0  0  0  0  0  0  0  0  0  0  0
  1 10  1  0  0  0  0
  1  2  2  0  0  0  0
  3  2  1  6  0  0  0
  3  6  1  0  0  0  0
  3  8  1  0  0  0  0
  5  4  2  0  0  0  0
  6  7  2  0  0  0  0
  7  4  1  0  0  0  0
  8  5  1  0  0  0  0
  9  8  2  0  0  0  0
 11 12  1  0  0  0  0
 12 10  1  6  0  0  0
 13 14  1  1  0  0  0
 13 11  1  0  0  0  0
 13 12  1  0  0  0  0
 15 17  1  0  0  0  0
 15 16  1  0  0  0  0
 16 19  1  0  0  0  0
 17 20  1  0  0  0  0
 18 14  1  0  0  0  0
 19 18  1  0  0  0  0
 20 18  1  0  0  0  0
 21  2  1  0  0  0  0
 22 29  1  0  0  0  0
 22 21  1  0  0  0  0
 23 22  2  0  0  0  0
 24 25  1  0  0  0  0
 25 28  2  0  0  0  0
 26 28  1  0  0  0  0
 27 24  2  0  0  0  0
 27 29  1  0  0  0  0
 29 26  2  0  0  0  0
M  END
>  <MODEL>
1

>  <REMARK>
 VINA RESULT:      -8.4      0.000      0.000
  Name = 
  8 active torsions:
  status: ('A' for Active; 'I' for Inactive)
    1  A    between atoms: N_2  and  O_19
    2  A    between atoms: C_5  and  C_9
    3  A    between atoms: C_9  and  C_25
    4  A    between atoms: C_14  and  O_19
    5  A    between atoms: C_16  and  C_22
    6  A    between atoms: C_16  and  C_25
    7  A    between atoms: C_20  and  C_24
    8  A    between atoms: C_21  and  C_24
                            x       y       z     vdW  Elec       q    Type
                         _______ _______ _______ _____ _____    ______ ____

>  <TORSDO>
F 8

$$$$
=
 OpenBabel11042423113D

 29 32  0  0  1  0  0  0  0  0999 V2000
  161.7320  209.4190  148.9800 N   0  0  0  0  0  0  0  0  0  0  0  0
  161.5720  208.3360  149.6790 C   0  0  0  0  0  0  0  0  0  0  0  0
  162.1250  208.1860  151.0710 C   0  0  2  0  0  3  0  0  0  0  0  0
  161.2500  206.3990  153.1760 C   0  0  0  0  0  3  0  0  0  0  0  0
  160.7120  207.5790  153.1120 N   0  0  0  0  0  0  0  0  0  0  0  0
  162.7190  206.8150  151.2700 C   0  0  0  0  0  3  0  0  0  0  0  0
  162.3080  205.9920  152.2380 C   0  0  0  0  0  3  0  0  0  0  0  0
  161.1060  208.5420  152.1260 C   0  0  0  0  0  0  0  0  0  0  0  0
  160.6040  209.6960  152.1490 O   0  0  0  0  0  0  0  0  0  0  0  0
  162.4470  210.4960  149.4550 O   0  0  0  0  0  0  0  0  0  0  0  0
  163.1050  212.2790  148.0080 C   0  0  0  0  0  2  0  0  0  0  0  0
  162.1130  211.8080  149.0480 C   0  0  1  0  0  3  0  0  0  0  0  0
  161.7380  211.7850  147.5820 C   0  0  1  0  0  3  0  0  0  0  0  0
  160.8440  212.9750  147.2850 C   0  0  0  0  0  2  0  0  0  0  0  0
  156.6830  213.5000  147.0930 O   0  0  0  0  0  0  0  0  0  0  0  0
  157.1860  212.5190  146.2190 C   0  0  0  0  0  2  0  0  0  0  0  0
  157.1820  213.1960  148.3740 C   0  0  0  0  0  2  0  0  0  0  0  0
  159.3820  212.5810  147.3900 C   0  0  0  0  0  3  0  0  0  0  0  0
  158.6910  212.7100  146.0310 C   0  0  0  0  0  2  0  0  0  0  0  0
  158.6860  213.4630  148.4230 C   0  0  0  0  0  2  0  0  0  0  0  0
  160.7530  207.2260  149.1130 C   0  0  0  0  0  2  0  0  0  0  0  0
  161.6050  206.3210  148.2800 C   0  0  0  0  0  0  0  0  0  0  0  0
  162.5510  206.8240  147.6160 O   0  0  0  0  0  0  0  0  0  0  0  0
  161.3720  202.7580  147.0350 C   0  0  0  0  0  3  0  0  0  0  0  0
  160.9380  202.0900  148.1830 C   0  0  0  0  0  3  0  0  0  0  0  0
  160.9370  204.1840  149.3980 C   0  0  0  0  0  3  0  0  0  0  0  0
  161.5880  204.1390  147.0680 C   0  0  0  0  0  3  0  0  0  0  0  0
  160.7210  202.8030  149.3650 C   0  0  0  0  0  3  0  0  0  0  0  0
  161.3730  204.8630  148.2500 C   0  0  0  0  0  0  0  0  0  0  0  0
  1 10  1  0  0  0  0
  1  2  2  0  0  0  0
  3  2  1  6  0  0  0
  3  6  1  0  0  0  0
  3  8  1  0  0  0  0
  5  4  2  0  0  0  0
  6  7  2  0  0  0  0
  7  4  1  0  0  0  0
  8  9  2  0  0  0  0
  8  5  1  0  0  0  0
 11 12  1  0  0  0  0
 12 10  1  6  0  0  0
 13 14  1  1  0  0  0
 13 11  1  0  0  0  0
 13 12  1  0  0  0  0
 14 18  1  0  0  0  0
 15 17  1  0  0  0  0
 16 15  1  0  0  0  0
 17 20  1  0  0  0  0
 18 20  1  0  0  0  0
 19 16  1  0  0  0  0
 19 18  1  0  0  0  0
 21  2  1  0  0  0  0
 22 21  1  0  0  0  0
 23 22  2  0  0  0  0
 24 27  2  0  0  0  0
 24 25  1  0  0  0  0
 25 28  2  0  0  0  0
 27 29  1  0  0  0  0
 28 26  1  0  0  0  0
 29 22  1  0  0  0  0
 29 26  2  0  0  0  0
M  END
>  <MODEL>
2

>  <REMARK>
 VINA RESULT:      -8.1      1.590      2.082
  Name = 
  8 active torsions:
  status: ('A' for Active; 'I' for Inactive)
    1  A    between atoms: N_2  and  O_19
    2  A    between atoms: C_5  and  C_9
    3  A    between atoms: C_9  and  C_25
    4  A    between atoms: C_14  and  O_19
    5  A    between atoms: C_16  and  C_22
    6  A    between atoms: C_16  and  C_25
    7  A    between atoms: C_20  and  C_24
    8  A    between atoms: C_21  and  C_24
                            x       y       z     vdW  Elec       q    Type
                         _______ _______ _______ _____ _____    ______ ____

>  <TORSDO>
F 8

$$$$
=
 OpenBabel11042423113D

 29 32  0  0  1  0  0  0  0  0999 V2000
  161.2210  206.5800  153.2380 N   0  0  0  0  0  0  0  0  0  0  0  0
  161.3900  206.3870  151.9650 C   0  0  0  0  0  0  0  0  0  0  0  0
  160.9060  207.3660  150.9300 C   0  0  2  0  0  3  0  0  0  0  0  0
  161.9240  207.8180  148.2560 C   0  0  0  0  0  3  0  0  0  0  0  0
  162.4270  208.5160  149.2290 N   0  0  0  0  0  0  0  0  0  0  0  0
  160.3590  206.6490  149.7220 C   0  0  0  0  0  3  0  0  0  0  0  0
  160.8360  206.8560  148.4920 C   0  0  0  0  0  3  0  0  0  0  0  0
  161.9620  208.3860  150.5780 C   0  0  0  0  0  0  0  0  0  0  0  0
  162.4330  209.1360  151.4720 O   0  0  0  0  0  0  0  0  0  0  0  0
  160.5580  207.6820  153.7280 O   0  0  0  0  0  0  0  0  0  0  0  0
  161.6200  207.9530  155.8510 C   0  0  0  0  0  2  0  0  0  0  0  0
  160.3070  207.8040  155.1150 C   0  0  1  0  0  3  0  0  0  0  0  0
  160.7630  209.1710  155.5770 C   0  0  1  0  0  3  0  0  0  0  0  0
  160.0010  209.5430  156.8350 C   0  0  0  0  0  2  0  0  0  0  0  0
  158.9330  213.1160  154.9040 O   0  0  0  0  0  0  0  0  0  0  0  0
  157.8440  212.3720  155.3940 C   0  0  0  0  0  2  0  0  0  0  0  0
  159.8340  213.2690  155.9750 C   0  0  0  0  0  2  0  0  0  0  0  0
  159.3980  210.9300  156.7000 C   0  0  0  0  0  3  0  0  0  0  0  0
  158.2750  210.9290  155.6610 C   0  0  0  0  0  2  0  0  0  0  0  0
  160.4840  211.9250  156.3040 C   0  0  0  0  0  2  0  0  0  0  0  0
  162.1510  205.1880  151.5100 C   0  0  0  0  0  2  0  0  0  0  0  0
  161.2720  203.9770  151.5210 C   0  0  0  0  0  0  0  0  0  0  0  0
  160.5930  203.7320  152.5540 O   0  0  0  0  0  0  0  0  0  0  0  0
  160.8510  200.8790  149.3930 C   0  0  0  0  0  3  0  0  0  0  0  0
  160.9690  201.4080  148.1050 C   0  0  0  0  0  3  0  0  0  0  0  0
  161.2870  203.6170  149.0440 C   0  0  0  0  0  3  0  0  0  0  0  0
  160.9520  201.7190  150.5060 C   0  0  0  0  0  3  0  0  0  0  0  0
  161.1870  202.7770  147.9310 C   0  0  0  0  0  3  0  0  0  0  0  0
  161.1700  203.0940  150.3410 C   0  0  0  0  0  0  0  0  0  0  0  0
  1 10  1  0  0  0  0
  2  1  2  0  0  0  0
  3  2  1  1  0  0  0
  4  7  1  0  0  0  0
  4  5  2  0  0  0  0
  5  8  1  0  0  0  0
  6  3  1  0  0  0  0
  7  6  2  0  0  0  0
  8  3  1  0  0  0  0
  8  9  2  0  0  0  0
 12 10  1  6  0  0  0
 12 13  1  0  0  0  0
 12 11  1  0  0  0  0
 13 11  1  0  0  0  0
 13 14  1  1  0  0  0
 15 16  1  0  0  0  0
 15 17  1  0  0  0  0
 16 19  1  0  0  0  0
 17 20  1  0  0  0  0
 18 14  1  0  0  0  0
 19 18  1  0  0  0  0
 20 18  1  0  0  0  0
 21 22  1  0  0  0  0
 21  2  1  0  0  0  0
 22 23  2  0  0  0  0
 24 27  1  0  0  0  0
 25 24  2  0  0  0  0
 26 29  1  0  0  0  0
 28 25  1  0  0  0  0
 28 26  2  0  0  0  0
 29 27  2  0  0  0  0
 29 22  1  0  0  0  0
M  END
>  <MODEL>
3

>  <REMARK>
 VINA RESULT:      -7.7      3.766      6.738
  Name = 
  8 active torsions:
  status: ('A' for Active; 'I' for Inactive)
    1  A    between atoms: N_2  and  O_19
    2  A    between atoms: C_5  and  C_9
    3  A    between atoms: C_9  and  C_25
    4  A    between atoms: C_14  and  O_19
    5  A    between atoms: C_16  and  C_22
    6  A    between atoms: C_16  and  C_25
    7  A    between atoms: C_20  and  C_24
    8  A    between atoms: C_21  and  C_24
                            x       y       z     vdW  Elec       q    Type
                         _______ _______ _______ _____ _____    ______ ____

>  <TORSDO>
F 8

$$$$
=
 OpenBabel11042423113D

 29 32  0  0  1  0  0  0  0  0999 V2000
  162.0980  207.6220  151.4460 N   0  0  0  0  0  0  0  0  0  0  0  0
  161.7130  208.8100  151.8030 C   0  0  0  0  0  0  0  0  0  0  0  0
  160.5980  209.0330  152.7890 C   0  0  2  0  0  3  0  0  0  0  0  0
  160.3370  211.1250  154.7750 C   0  0  0  0  0  3  0  0  0  0  0  0
  160.9290  210.0230  155.1220 N   0  0  0  0  0  0  0  0  0  0  0  0
  159.8830  210.3320  152.5110 C   0  0  0  0  0  3  0  0  0  0  0  0
  159.7710  211.2960  153.4270 C   0  0  0  0  0  3  0  0  0  0  0  0
  161.0730  208.9210  154.2170 C   0  0  0  0  0  0  0  0  0  0  0  0
  161.5930  207.8490  154.6230 O   0  0  0  0  0  0  0  0  0  0  0  0
  161.4880  206.4830  151.9220 O   0  0  0  0  0  0  0  0  0  0  0  0
  160.9110  204.1650  151.9850 C   0  0  0  0  0  2  0  0  0  0  0  0
  161.7860  205.2240  151.3500 C   0  0  1  0  0  3  0  0  0  0  0  0
  160.5600  204.7180  150.6190 C   0  0  1  0  0  3  0  0  0  0  0  0
  160.9990  203.7320  149.5510 C   0  0  0  0  0  2  0  0  0  0  0  0
  160.9220  205.3970  145.6970 O   0  0  0  0  0  0  0  0  0  0  0  0
  161.1520  206.3270  146.7270 C   0  0  0  0  0  2  0  0  0  0  0  0
  161.8540  204.3570  145.8730 C   0  0  0  0  0  2  0  0  0  0  0  0
  161.5390  204.4690  148.3380 C   0  0  0  0  0  3  0  0  0  0  0  0
  160.7230  205.7350  148.0700 C   0  0  0  0  0  2  0  0  0  0  0  0
  161.5010  203.5480  147.1220 C   0  0  0  0  0  2  0  0  0  0  0  0
  162.4450  209.9960  151.2740 C   0  0  0  0  0  2  0  0  0  0  0  0
  162.1340  210.1980  149.8250 C   0  0  0  0  0  0  0  0  0  0  0  0
  161.9650  209.1830  149.0960 O   0  0  0  0  0  0  0  0  0  0  0  0
  162.7240  213.2570  147.6820 C   0  0  0  0  0  3  0  0  0  0  0  0
  161.7340  214.1230  148.1540 C   0  0  0  0  0  3  0  0  0  0  0  0
  161.0030  212.4280  149.7200 C   0  0  0  0  0  3  0  0  0  0  0  0
  162.8540  211.9770  148.2290 C   0  0  0  0  0  3  0  0  0  0  0  0
  160.8730  213.7080  149.1730 C   0  0  0  0  0  3  0  0  0  0  0  0
  161.9940  211.5520  149.2520 C   0  0  0  0  0  0  0  0  0  0  0  0
  1  2  2  0  0  0  0
  1 10  1  0  0  0  0
  3  2  1  6  0  0  0
  3  8  1  0  0  0  0
  4  5  2  0  0  0  0
  6  3  1  0  0  0  0
  6  7  2  0  0  0  0
  7  4  1  0  0  0  0
  8  9  2  0  0  0  0
  8  5  1  0  0  0  0
 12 10  1  1  0  0  0
 12 11  1  0  0  0  0
 13 14  1  6  0  0  0
 13 12  1  0  0  0  0
 13 11  1  0  0  0  0
 15 17  1  0  0  0  0
 15 16  1  0  0  0  0
 16 19  1  0  0  0  0
 17 20  1  0  0  0  0
 18 14  1  0  0  0  0
 19 18  1  0  0  0  0
 20 18  1  0  0  0  0
 21  2  1  0  0  0  0
 22 21  1  0  0  0  0
 23 22  2  0  0  0  0
 24 25  2  0  0  0  0
 24 27  1  0  0  0  0
 25 28  1  0  0  0  0
 27 29  2  0  0  0  0
 28 26  2  0  0  0  0
 29 26  1  0  0  0  0
 29 22  1  0  0  0  0
M  END
>  <MODEL>
4

>  <REMARK>
 VINA RESULT:      -7.7      2.545      7.259
  Name = 
  8 active torsions:
  status: ('A' for Active; 'I' for Inactive)
    1  A    between atoms: N_2  and  O_19
    2  A    between atoms: C_5  and  C_9
    3  A    between atoms: C_9  and  C_25
    4  A    between atoms: C_14  and  O_19
    5  A    between atoms: C_16  and  C_22
    6  A    between atoms: C_16  and  C_25
    7  A    between atoms: C_20  and  C_24
    8  A    between atoms: C_21  and  C_24
                            x       y       z     vdW  Elec       q    Type
                         _______ _______ _______ _____ _____    ______ ____

>  <TORSDO>
F 8

$$$$
=
 OpenBabel11042423113D

 29 32  0  0  1  0  0  0  0  0999 V2000
  161.5650  205.3170  150.5110 N   0  0  0  0  0  0  0  0  0  0  0  0
  161.5090  206.6150  150.5230 C   0  0  0  0  0  0  0  0  0  0  0  0
  162.0110  207.4320  151.6830 C   0  0  2  0  0  3  0  0  0  0  0  0
  160.4820  208.9680  153.6050 C   0  0  0  0  0  3  0  0  0  0  0  0
  160.8830  209.5650  152.5240 N   0  0  0  0  0  0  0  0  0  0  0  0
  161.5410  206.8540  152.9940 C   0  0  0  0  0  3  0  0  0  0  0  0
  160.8300  207.5640  153.8730 C   0  0  0  0  0  3  0  0  0  0  0  0
  161.6740  208.8950  151.5340 C   0  0  0  0  0  0  0  0  0  0  0  0
  162.0960  209.5380  150.5370 O   0  0  0  0  0  0  0  0  0  0  0  0
  162.0590  204.5970  151.5750 O   0  0  0  0  0  0  0  0  0  0  0  0
  160.4540  202.8930  152.0510 C   0  0  0  0  0  2  0  0  0  0  0  0
  161.8760  203.1950  151.6330 C   0  0  1  0  0  3  0  0  0  0  0  0
  160.8520  202.7930  150.5930 C   0  0  1  0  0  3  0  0  0  0  0  0
  161.0680  201.3350  150.2310 C   0  0  0  0  0  2  0  0  0  0  0  0
  161.2070  201.4090  146.0350 O   0  0  0  0  0  0  0  0  0  0  0  0
  161.2050  200.1180  146.5930 C   0  0  0  0  0  2  0  0  0  0  0  0
  160.1190  202.0990  146.6030 C   0  0  0  0  0  2  0  0  0  0  0  0
  160.5950  201.0640  148.8140 C   0  0  0  0  0  3  0  0  0  0  0  0
  161.6030  200.1880  148.0680 C   0  0  0  0  0  2  0  0  0  0  0  0
  160.3980  202.3860  148.0780 C   0  0  0  0  0  2  0  0  0  0  0  0
  160.9950  207.3270  149.3190 C   0  0  0  0  0  2  0  0  0  0  0  0
  161.9720  207.2180  148.1910 C   0  0  0  0  0  0  0  0  0  0  0  0
  163.0770  207.8170  148.2870 O   0  0  0  0  0  0  0  0  0  0  0  0
  160.1700  205.7920  145.1880 C   0  0  0  0  0  3  0  0  0  0  0  0
  161.1000  204.8580  144.7220 C   0  0  0  0  0  3  0  0  0  0  0  0
  162.6020  205.4610  146.5220 C   0  0  0  0  0  3  0  0  0  0  0  0
  160.4560  206.5600  146.3200 C   0  0  0  0  0  3  0  0  0  0  0  0
  162.3160  204.6930  145.3900 C   0  0  0  0  0  3  0  0  0  0  0  0
  161.6750  206.4020  146.9970 C   0  0  0  0  0  0  0  0  0  0  0  0
  1  2  2  0  0  0  0
  1 10  1  0  0  0  0
  3  2  1  6  0  0  0
  3  6  1  0  0  0  0
  4  7  1  0  0  0  0
  5  4  2  0  0  0  0
  6  7  2  0  0  0  0
  8  3  1  0  0  0  0
  8  5  1  0  0  0  0
  9  8  2  0  0  0  0
 12 10  1  6  0  0  0
 12 11  1  0  0  0  0
 13 14  1  1  0  0  0
 13 12  1  0  0  0  0
 13 11  1  0  0  0  0
 15 16  1  0  0  0  0
 15 17  1  0  0  0  0
 16 19  1  0  0  0  0
 17 20  1  0  0  0  0
 18 14  1  0  0  0  0
 19 18  1  0  0  0  0
 20 18  1  0  0  0  0
 21  2  1  0  0  0  0
 22 23  2  0  0  0  0
 22 21  1  0  0  0  0
 24 27  1  0  0  0  0
 25 24  2  0  0  0  0
 25 28  1  0  0  0  0
 26 29  1  0  0  0  0
 27 29  2  0  0  0  0
 28 26  2  0  0  0  0
 29 22  1  0  0  0  0
M  END
>  <MODEL>
5

>  <REMARK>
 VINA RESULT:      -7.6      3.728      7.159
  Name = 
  8 active torsions:
  status: ('A' for Active; 'I' for Inactive)
    1  A    between atoms: N_2  and  O_19
    2  A    between atoms: C_5  and  C_9
    3  A    between atoms: C_9  and  C_25
    4  A    between atoms: C_14  and  O_19
    5  A    between atoms: C_16  and  C_22
    6  A    between atoms: C_16  and  C_25
    7  A    between atoms: C_20  and  C_24
    8  A    between atoms: C_21  and  C_24
                            x       y       z     vdW  Elec       q    Type
                         _______ _______ _______ _____ _____    ______ ____

>  <TORSDO>
F 8

$$$$
=
 OpenBabel11042423113D

 29 32  0  0  1  0  0  0  0  0999 V2000
  161.5390  208.2580  150.9200 N   0  0  0  0  0  0  0  0  0  0  0  0
  161.3540  206.9910  150.6990 C   0  0  0  0  0  0  0  0  0  0  0  0
  161.9620  205.9240  151.5680 C   0  0  2  0  0  3  0  0  0  0  0  0
  160.8250  203.3830  152.3690 C   0  0  0  0  0  3  0  0  0  0  0  0
  160.6160  204.4140  153.1310 N   0  0  0  0  0  0  0  0  0  0  0  0
  162.1840  204.6530  150.7880 C   0  0  0  0  0  3  0  0  0  0  0  0
  161.6520  203.4860  151.1570 C   0  0  0  0  0  3  0  0  0  0  0  0
  161.1680  205.7030  152.8330 C   0  0  0  0  0  0  0  0  0  0  0  0
  160.9950  206.6540  153.6390 O   0  0  0  0  0  0  0  0  0  0  0  0
  162.3330  208.7110  151.9490 O   0  0  0  0  0  0  0  0  0  0  0  0
  160.9680  210.6650  151.7820 C   0  0  0  0  0  2  0  0  0  0  0  0
  162.1210  209.9970  152.4980 C   0  0  1  0  0  3  0  0  0  0  0  0
  160.7510  210.0350  153.1420 C   0  0  1  0  0  3  0  0  0  0  0  0
  160.7370  211.1210  154.2010 C   0  0  0  0  0  2  0  0  0  0  0  0
  161.8790  208.2790  157.0740 O   0  0  0  0  0  0  0  0  0  0  0  0
  162.4480  209.5520  157.2580 C   0  0  0  0  0  2  0  0  0  0  0  0
  160.4900  208.4690  156.9500 C   0  0  0  0  0  2  0  0  0  0  0  0
  160.8730  210.5140  155.5860 C   0  0  0  0  0  3  0  0  0  0  0  0
  162.3480  210.3600  155.9640 C   0  0  0  0  0  2  0  0  0  0  0  0
  160.1750  209.1580  155.6220 C   0  0  0  0  0  2  0  0  0  0  0  0
  160.4500  206.5760  149.5870 C   0  0  0  0  0  2  0  0  0  0  0  0
  161.0820  206.8700  148.2640 C   0  0  0  0  0  0  0  0  0  0  0  0
  161.6070  208.0010  148.0820 O   0  0  0  0  0  0  0  0  0  0  0  0
  161.5820  203.5780  146.4710 C   0  0  0  0  0  3  0  0  0  0  0  0
  161.2090  203.9120  145.1660 C   0  0  0  0  0  3  0  0  0  0  0  0
  160.7540  206.1800  145.8800 C   0  0  0  0  0  3  0  0  0  0  0  0
  161.5410  204.5450  147.4800 C   0  0  0  0  0  3  0  0  0  0  0  0
  160.7950  205.2130  144.8710 C   0  0  0  0  0  3  0  0  0  0  0  0
  161.1260  205.8530  147.1930 C   0  0  0  0  0  0  0  0  0  0  0  0
  1 10  1  0  0  0  0
  2  1  2  0  0  0  0
  3  2  1  6  0  0  0
  3  8  1  0  0  0  0
  4  5  2  0  0  0  0
  6  7  2  0  0  0  0
  6  3  1  0  0  0  0
  7  4  1  0  0  0  0
  8  5  1  0  0  0  0
  8  9  2  0  0  0  0
 11 12  1  0  0  0  0
 11 13  1  0  0  0  0
 12 10  1  6  0  0  0
 12 13  1  0  0  0  0
 13 14  1  1  0  0  0
 14 18  1  0  0  0  0
 15 16  1  0  0  0  0
 17 15  1  0  0  0  0
 18 20  1  0  0  0  0
 18 19  1  0  0  0  0
 19 16  1  0  0  0  0
 20 17  1  0  0  0  0
 21  2  1  0  0  0  0
 22 21  1  0  0  0  0
 23 22  2  0  0  0  0
 24 27  1  0  0  0  0
 25 24  2  0  0  0  0
 26 29  1  0  0  0  0
 28 25  1  0  0  0  0
 28 26  2  0  0  0  0
 29 27  2  0  0  0  0
 29 22  1  0  0  0  0
M  END
>  <MODEL>
6

>  <REMARK>
 VINA RESULT:      -7.1      3.714      6.576
  Name = 
  8 active torsions:
  status: ('A' for Active; 'I' for Inactive)
    1  A    between atoms: N_2  and  O_19
    2  A    between atoms: C_5  and  C_9
    3  A    between atoms: C_9  and  C_25
    4  A    between atoms: C_14  and  O_19
    5  A    between atoms: C_16  and  C_22
    6  A    between atoms: C_16  and  C_25
    7  A    between atoms: C_20  and  C_24
    8  A    between atoms: C_21  and  C_24
                            x       y       z     vdW  Elec       q    Type
                         _______ _______ _______ _____ _____    ______ ____

>  <TORSDO>
F 8

$$$$
=
 OpenBabel11042423113D

 29 32  0  0  1  0  0  0  0  0999 V2000
  160.9800  206.7750  152.5620 N   0  0  0  0  0  0  0  0  0  0  0  0
  161.2950  206.8670  151.3050 C   0  0  0  0  0  0  0  0  0  0  0  0
  162.3300  207.8370  150.8030 C   0  0  2  0  0  3  0  0  0  0  0  0
  161.9340  210.2780  149.2960 C   0  0  0  0  0  3  0  0  0  0  0  0
  162.1040  209.1730  148.6360 N   0  0  0  0  0  0  0  0  0  0  0  0
  162.1750  209.1830  151.4650 C   0  0  0  0  0  3  0  0  0  0  0  0
  161.9860  210.3040  150.7660 C   0  0  0  0  0  3  0  0  0  0  0  0
  162.3410  207.9230  149.2960 C   0  0  0  0  0  0  0  0  0  0  0  0
  162.5690  206.8930  148.6100 O   0  0  0  0  0  0  0  0  0  0  0  0
  161.5500  207.5840  153.5190 O   0  0  0  0  0  0  0  0  0  0  0  0
  161.5240  208.1240  155.8460 C   0  0  0  0  0  2  0  0  0  0  0  0
  160.7530  208.1450  154.5440 C   0  0  1  0  0  3  0  0  0  0  0  0
  161.4210  209.4070  155.0480 C   0  0  1  0  0  3  0  0  0  0  0  0
  160.3670  210.3030  155.6710 C   0  0  0  0  0  2  0  0  0  0  0  0
  157.8350  212.9010  153.5570 O   0  0  0  0  0  0  0  0  0  0  0  0
  158.8050  212.2610  152.7630 C   0  0  0  0  0  2  0  0  0  0  0  0
  157.1740  211.8920  154.2830 C   0  0  0  0  0  2  0  0  0  0  0  0
  159.3330  210.7080  154.6360 C   0  0  0  0  0  3  0  0  0  0  0  0
  159.9250  211.7150  153.6490 C   0  0  0  0  0  2  0  0  0  0  0  0
  158.1160  211.3060  155.3350 C   0  0  0  0  0  2  0  0  0  0  0  0
  160.6620  205.9310  150.3320 C   0  0  0  0  0  2  0  0  0  0  0  0
  161.0230  204.5160  150.6580 C   0  0  0  0  0  0  0  0  0  0  0  0
  161.3080  204.2250  151.8510 O   0  0  0  0  0  0  0  0  0  0  0  0
  161.2020  202.8160  147.2850 C   0  0  0  0  0  3  0  0  0  0  0  0
  161.0170  201.4770  147.6380 C   0  0  0  0  0  3  0  0  0  0  0  0
  160.8330  202.1190  149.9650 C   0  0  0  0  0  3  0  0  0  0  0  0
  161.2030  203.8070  148.2720 C   0  0  0  0  0  3  0  0  0  0  0  0
  160.8320  201.1280  148.9780 C   0  0  0  0  0  3  0  0  0  0  0  0
  161.0190  203.4660  149.6200 C   0  0  0  0  0  0  0  0  0  0  0  0
  1 10  1  0  0  0  0
  2  1  2  0  0  0  0
  3  2  1  6  0  0  0
  3  6  1  0  0  0  0
  4  7  1  0  0  0  0
  5  4  2  0  0  0  0
  5  8  1  0  0  0  0
  7  6  2  0  0  0  0
  8  3  1  0  0  0  0
  9  8  2  0  0  0  0
 12 10  1  6  0  0  0
 12 13  1  0  0  0  0
 12 11  1  0  0  0  0
 13 14  1  1  0  0  0
 13 11  1  0  0  0  0
 15 17  1  0  0  0  0
 16 15  1  0  0  0  0
 16 19  1  0  0  0  0
 17 20  1  0  0  0  0
 18 20  1  0  0  0  0
 18 14  1  0  0  0  0
 19 18  1  0  0  0  0
 21 22  1  0  0  0  0
 21  2  1  0  0  0  0
 22 23  2  0  0  0  0
 24 25  2  0  0  0  0
 24 27  1  0  0  0  0
 25 28  1  0  0  0  0
 27 29  2  0  0  0  0
 28 26  2  0  0  0  0
 29 26  1  0  0  0  0
 29 22  1  0  0  0  0
M  END
>  <MODEL>
7

>  <REMARK>
 VINA RESULT:      -7.1      3.089      6.055
  Name = 
  8 active torsions:
  status: ('A' for Active; 'I' for Inactive)
    1  A    between atoms: N_2  and  O_19
    2  A    between atoms: C_5  and  C_9
    3  A    between atoms: C_9  and  C_25
    4  A    between atoms: C_14  and  O_19
    5  A    between atoms: C_16  and  C_22
    6  A    between atoms: C_16  and  C_25
    7  A    between atoms: C_20  and  C_24
    8  A    between atoms: C_21  and  C_24
                            x       y       z     vdW  Elec       q    Type
                         _______ _______ _______ _____ _____    ______ ____

>  <TORSDO>
F 8

$$$$
=
 OpenBabel11042423113D

 29 32  0  0  1  0  0  0  0  0999 V2000
  159.9920  210.3920  152.3730 N   0  0  0  0  0  0  0  0  0  0  0  0
  160.8370  209.9050  153.2310 C   0  0  0  0  0  0  0  0  0  0  0  0
  160.5820  209.9240  154.7140 C   0  0  2  0  0  3  0  0  0  0  0  0
  162.4700  209.5370  156.8760 C   0  0  0  0  0  3  0  0  0  0  0  0
  161.8580  208.4940  156.4040 N   0  0  0  0  0  0  0  0  0  0  0  0
  161.3090  211.0700  155.3720 C   0  0  0  0  0  3  0  0  0  0  0  0
  162.1840  210.8860  156.3630 C   0  0  0  0  0  3  0  0  0  0  0  0
  160.8820  208.5930  155.3590 C   0  0  0  0  0  0  0  0  0  0  0  0
  160.2660  207.5620  154.9840 O   0  0  0  0  0  0  0  0  0  0  0  0
  158.8160  210.9920  152.7670 O   0  0  0  0  0  0  0  0  0  0  0  0
  159.2600  213.3290  152.9780 C   0  0  0  0  0  2  0  0  0  0  0  0
  158.4620  212.2640  152.2600 C   0  0  1  0  0  3  0  0  0  0  0  0
  159.6740  212.8790  151.5930 C   0  0  1  0  0  3  0  0  0  0  0  0
  159.2050  213.9010  150.5730 C   0  0  0  0  0  2  0  0  0  0  0  0
  160.7540  211.9920  147.1690 O   0  0  0  0  0  0  0  0  0  0  0  0
  159.9330  213.0990  146.8910 C   0  0  0  0  0  2  0  0  0  0  0  0
  161.7220  212.4260  148.0940 C   0  0  0  0  0  2  0  0  0  0  0  0
  160.0020  213.7710  149.2870 C   0  0  0  0  0  3  0  0  0  0  0  0
  159.0800  213.4360  148.1140 C   0  0  0  0  0  2  0  0  0  0  0  0
  161.0650  212.6880  149.4500 C   0  0  0  0  0  2  0  0  0  0  0  0
  162.0720  209.2370  152.7290 C   0  0  0  0  0  2  0  0  0  0  0  0
  161.8440  208.6790  151.3600 C   0  0  0  0  0  0  0  0  0  0  0  0
  161.9900  209.4390  150.3650 O   0  0  0  0  0  0  0  0  0  0  0  0
  160.6890  205.4750  149.7170 C   0  0  0  0  0  3  0  0  0  0  0  0
  160.8030  204.5640  150.7710 C   0  0  0  0  0  3  0  0  0  0  0  0
  161.5960  206.3390  152.2140 C   0  0  0  0  0  3  0  0  0  0  0  0
  161.0280  206.8170  149.9120 C   0  0  0  0  0  3  0  0  0  0  0  0
  161.2570  204.9970  152.0190 C   0  0  0  0  0  3  0  0  0  0  0  0
  161.4850  207.2600  151.1610 C   0  0  0  0  0  0  0  0  0  0  0  0
  1 10  1  0  0  0  0
  1  2  2  0  0  0  0
  3  2  1  6  0  0  0
  3  8  1  0  0  0  0
  3  6  1  0  0  0  0
  5  4  2  0  0  0  0
  6  7  2  0  0  0  0
  7  4  1  0  0  0  0
  8  5  1  0  0  0  0
  9  8  2  0  0  0  0
 12 10  1  1  0  0  0
 12 11  1  0  0  0  0
 13 14  1  6  0  0  0
 13 12  1  0  0  0  0
 13 11  1  0  0  0  0
 15 17  1  0  0  0  0
 16 15  1  0  0  0  0
 16 19  1  0  0  0  0
 17 20  1  0  0  0  0
 18 20  1  0  0  0  0
 18 14  1  0  0  0  0
 19 18  1  0  0  0  0
 21  2  1  0  0  0  0
 22 21  1  0  0  0  0
 23 22  2  0  0  0  0
 24 27  2  0  0  0  0
 24 25  1  0  0  0  0
 25 28  2  0  0  0  0
 27 29  1  0  0  0  0
 28 26  1  0  0  0  0
 29 22  1  0  0  0  0
 29 26  2  0  0  0  0
M  END
>  <MODEL>
8

>  <REMARK>
 VINA RESULT:      -7.0      2.916      4.343
  Name = 
  8 active torsions:
  status: ('A' for Active; 'I' for Inactive)
    1  A    between atoms: N_2  and  O_19
    2  A    between atoms: C_5  and  C_9
    3  A    between atoms: C_9  and  C_25
    4  A    between atoms: C_14  and  O_19
    5  A    between atoms: C_16  and  C_22
    6  A    between atoms: C_16  and  C_25
    7  A    between atoms: C_20  and  C_24
    8  A    between atoms: C_21  and  C_24
                            x       y       z     vdW  Elec       q    Type
                         _______ _______ _______ _____ _____    ______ ____

>  <TORSDO>
F 8

$$$$
=
 OpenBabel11042423113D

 29 32  0  0  1  0  0  0  0  0999 V2000
  161.4020  206.8740  152.1230 N   0  0  0  0  0  0  0  0  0  0  0  0
  161.4090  208.1240  151.7670 C   0  0  0  0  0  0  0  0  0  0  0  0
  162.3490  208.6590  150.7210 C   0  0  2  0  0  3  0  0  0  0  0  0
  161.8150  210.6010  148.6400 C   0  0  0  0  0  3  0  0  0  0  0  0
  161.6270  209.3460  148.3680 N   0  0  0  0  0  0  0  0  0  0  0  0
  162.5830  210.1360  150.9110 C   0  0  0  0  0  3  0  0  0  0  0  0
  162.3290  211.0280  149.9510 C   0  0  0  0  0  3  0  0  0  0  0  0
  161.8970  208.3120  149.3230 C   0  0  0  0  0  0  0  0  0  0  0  0
  161.7650  207.1060  148.9880 O   0  0  0  0  0  0  0  0  0  0  0  0
  162.2800  205.9580  151.5880 O   0  0  0  0  0  0  0  0  0  0  0  0
  160.6880  204.3670  152.3880 C   0  0  0  0  0  2  0  0  0  0  0  0
  162.0190  204.5720  151.7000 C   0  0  1  0  0  3  0  0  0  0  0  0
  160.7890  204.2390  150.8830 C   0  0  1  0  0  3  0  0  0  0  0  0
  160.8340  202.7700  150.5060 C   0  0  0  0  0  2  0  0  0  0  0  0
  160.8000  202.5280  146.3140 O   0  0  0  0  0  0  0  0  0  0  0  0
  161.5910  203.5710  146.8290 C   0  0  0  0  0  2  0  0  0  0  0  0
  161.2030  201.3500  146.9710 C   0  0  0  0  0  2  0  0  0  0  0  0
  161.4140  202.5960  149.1130 C   0  0  0  0  0  3  0  0  0  0  0  0
  161.1950  203.8590  148.2780 C   0  0  0  0  0  2  0  0  0  0  0  0
  160.7640  201.3940  148.4340 C   0  0  0  0  0  2  0  0  0  0  0  0
  160.4040  209.0500  152.3630 C   0  0  0  0  0  2  0  0  0  0  0  0
  160.8930  209.5760  153.6760 C   0  0  0  0  0  0  0  0  0  0  0  0
  161.3880  210.7340  153.7170 O   0  0  0  0  0  0  0  0  0  0  0  0
  159.6360  207.0680  156.2120 C   0  0  0  0  0  3  0  0  0  0  0  0
  160.5440  207.2510  157.2580 C   0  0  0  0  0  3  0  0  0  0  0  0
  161.6830  208.9540  155.9690 C   0  0  0  0  0  3  0  0  0  0  0  0
  159.7510  207.8280  155.0450 C   0  0  0  0  0  3  0  0  0  0  0  0
  161.5680  208.1940  157.1360 C   0  0  0  0  0  3  0  0  0  0  0  0
  160.7750  208.7770  154.9130 C   0  0  0  0  0  0  0  0  0  0  0  0
  2  1  2  0  0  0  0
  2 21  1  0  0  0  0
  3  6  1  0  0  0  0
  3  2  1  1  0  0  0
  4  7  1  0  0  0  0
  5  4  2  0  0  0  0
  5  8  1  0  0  0  0
  7  6  2  0  0  0  0
  8  3  1  0  0  0  0
  9  8  2  0  0  0  0
 10  1  1  0  0  0  0
 12 10  1  6  0  0  0
 12 11  1  0  0  0  0
 13 14  1  1  0  0  0
 13 12  1  0  0  0  0
 13 11  1  0  0  0  0
 15 16  1  0  0  0  0
 15 17  1  0  0  0  0
 16 19  1  0  0  0  0
 17 20  1  0  0  0  0
 18 14  1  0  0  0  0
 19 18  1  0  0  0  0
 20 18  1  0  0  0  0
 21 22  1  0  0  0  0
 22 23  2  0  0  0  0
 22 29  1  0  0  0  0
 24 25  1  0  0  0  0
 26 28  1  0  0  0  0
 27 24  2  0  0  0  0
 28 25  2  0  0  0  0
 29 27  1  0  0  0  0
 29 26  2  0  0  0  0
M  END
>  <MODEL>
9

>  <REMARK>
 VINA RESULT:      -7.0      2.850      7.853
  Name = 
  8 active torsions:
  status: ('A' for Active; 'I' for Inactive)
    1  A    between atoms: N_2  and  O_19
    2  A    between atoms: C_5  and  C_9
    3  A    between atoms: C_9  and  C_25
    4  A    between atoms: C_14  and  O_19
    5  A    between atoms: C_16  and  C_22
    6  A    between atoms: C_16  and  C_25
    7  A    between atoms: C_20  and  C_24
    8  A    between atoms: C_21  and  C_24
                            x       y       z     vdW  Elec       q    Type
                         _______ _______ _______ _____ _____    ______ ____

>  <TORSDO>
F 8

$$$$
