=
 OpenBabel11042420533D

 52 55  0  0  1  0  0  0  0  0999 V2000
  161.1860  208.9500  151.1770 C   0  0  0  0  0  2  0  0  0  0  0  0
  161.5190  203.8030  150.8550 C   0  0  1  0  0  3  0  0  0  0  0  0
  161.7620  206.0290  151.7140 C   0  0  1  0  0  3  0  0  0  0  0  0
  161.0300  208.2950  152.5140 C   0  0  0  0  0  0  0  0  0  0  0  0
  160.5480  206.3260  149.4600 C   0  0  0  0  0  2  0  0  0  0  0  0
  161.8010  206.6360  150.2780 C   0  0  1  0  0  3  0  0  0  0  0  0
  160.9420  204.8790  147.5020 C   0  0  0  0  0  3  0  0  0  0  0  0
  162.1450  208.1340  150.3070 C   0  0  1  0  0  3  0  0  0  0  0  0
  160.5630  208.9760  153.7500 C   0  0  0  0  0  2  0  0  0  0  0  0
  160.7060  204.9850  148.8070 C   0  0  0  0  0  0  0  0  0  0  0  0
  160.6150  203.7330  149.6230 C   0  0  0  0  0  2  0  0  0  0  0  0
  161.2410  207.0040  152.7380 C   0  0  0  0  0  0  0  0  0  0  0  0
  161.0130  206.7080  154.1430 C   0  0  0  0  0  3  0  0  0  0  0  0
  160.9920  204.7850  151.7950 N   0  0  0  0  0  2  0  0  0  0  0  0
  160.6140  207.8370  154.7150 C   0  0  0  0  0  0  0  0  0  0  0  0
  162.2460  210.1150  148.6410 N   0  0  0  0  0  2  0  0  0  0  0  0
  162.4320  208.7260  148.9530 C   0  0  0  0  0  0  0  0  0  0  0  0
  162.7960  207.9470  148.0340 O   0  0  0  0  0  0  0  0  0  0  0  0
  161.9660  211.1650  149.6110 C   0  0  0  0  0  2  0  0  0  0  0  0
  161.3140  212.3580  148.9270 C   0  0  0  0  0  2  0  0  0  0  0  0
  162.1300  212.8180  147.7280 C   0  0  0  0  0  2  0  0  0  0  0  0
  161.3930  213.9120  146.9750 C   0  0  0  0  0  2  0  0  0  0  0  0
  161.7250  213.8540  145.5200 C   0  0  0  0  0  0  0  0  0  0  0  0
  162.9140  213.4020  145.1220 C   0  0  0  0  0  2  0  0  0  0  0  0
  160.6500  214.1000  144.5180 C   0  0  0  0  0  2  0  0  0  0  0  0
  161.1710  213.9960  143.2260 O   0  0  0  0  0  0  0  0  0  0  0  0
  160.2580  212.7840  142.4670 P   0  0  2  0  0  0  0  0  0  0  0  0
  158.8760  213.4810  141.7810 O   0  0  0  0  0  0  0  0  0  0  0  0
  159.8280  211.7540  143.4870 O   0  0  0  0  0  1  0  0  0  0  0  0
  161.1730  212.0240  141.2570 O   0  0  0  0  0  0  0  0  0  0  0  0
  160.2850  211.1620  140.6120 C   0  0  0  0  0  2  0  0  0  0  0  0
  162.3910  210.8800  139.0590 C   0  0  0  0  0  2  0  0  0  0  0  0
  162.0740  209.5950  139.8070 C   0  0  0  0  0  2  0  0  0  0  0  0
  160.9580  210.5290  139.4040 C   0  0  0  0  0  0  0  0  0  0  0  0
  160.1620  209.9650  138.3950 O   0  0  0  0  0  0  0  0  0  0  0  0
  158.8480  209.9610  138.8750 C   0  0  0  0  0  1  0  0  0  0  0  0
  161.9750  206.0570  145.6760 O   0  0  0  0  0  1  0  0  0  0  0  0
  161.0520  206.0270  146.6640 N   0  0  0  0  0  2  0  0  0  0  0  0
  161.6470  202.4350  151.5220 C   0  0  0  0  0  2  0  0  0  0  0  0
  161.0980  201.3120  150.6550 C   0  0  0  0  0  1  0  0  0  0  0  0
  160.2960  207.9680  156.1680 C   0  0  0  0  0  2  0  0  0  0  0  0
  160.2960  209.3990  156.5850 C   0  0  0  0  0  0  0  0  0  0  0  0
  161.3460  209.9160  157.0540 O   0  0  0  0  0  0  0  0  0  0  0  0
  159.1120  210.1790  156.4160 N   0  0  0  0  0  2  0  0  0  0  0  0
  159.0600  211.5630  156.7520 C   0  0  0  0  0  3  0  0  0  0  0  0
  158.0090  212.2900  156.3950 C   0  0  0  0  0  3  0  0  0  0  0  0
  159.1520  214.3630  156.5770 O   0  0  0  0  0  1  0  0  0  0  0  0
  157.9050  213.7490  156.7190 C   0  0  1  0  0  3  0  0  0  0  0  0
  156.8820  214.4530  155.8370 C   0  0  0  0  0  2  0  0  0  0  0  0
  156.7700  213.7820  154.5110 C   0  0  0  0  0  0  0  0  0  0  0  0
  157.5660  214.0780  153.5830 O   0  0  0  0  0  0  0  0  0  0  0  0
  155.7750  212.8380  154.2940 O   0  0  0  0  0  1  0  0  0  0  0  0
  1  4  1  0  0  0  0
  2 39  1  1  0  0  0
  2 14  1  0  0  0  0
  3 14  1  6  0  0  0
  3 12  1  0  0  0  0
  4 12  2  0  0  0  0
  4  9  1  0  0  0  0
  6  5  1  1  0  0  0
  6  8  1  0  0  0  0
  6  3  1  0  0  0  0
  7 10  2  0  0  0  0
  8 17  1  6  0  0  0
  8  1  1  0  0  0  0
  9 15  1  0  0  0  0
 10  5  1  0  0  0  0
 10 11  1  0  0  0  0
 11  2  1  0  0  0  0
 12 13  1  0  0  0  0
 13 15  2  0  0  0  0
 15 41  1  0  0  0  0
 16 17  1  0  0  0  0
 16 19  1  0  0  0  0
 18 17  2  0  0  0  0
 20 19  1  0  0  0  0
 21 20  1  0  0  0  0
 22 21  1  0  0  0  0
 23 22  1  0  0  0  0
 24 23  2  0  0  0  0
 25 23  1  0  0  0  0
 26 25  1  0  0  0  0
 27 28  2  6  0  0  0
 27 26  1  0  0  0  0
 27 29  1  0  0  0  0
 30 27  1  0  0  0  0
 31 30  1  0  0  0  0
 32 34  1  0  0  0  0
 32 33  1  0  0  0  0
 34 33  1  0  0  0  0
 34 31  1  0  0  0  0
 35 36  1  0  0  0  0
 35 34  1  0  0  0  0
 37 38  1  0  0  0  0
 38  7  1  0  0  0  0
 40 39  1  0  0  0  0
 41 42  1  0  0  0  0
 42 43  2  0  0  0  0
 44 42  1  0  0  0  0
 44 45  1  0  0  0  0
 46 48  1  0  0  0  0
 46 45  2  0  0  0  0
 48 47  1  6  0  0  0
 49 48  1  0  0  0  0
 50 49  1  0  0  0  0
 51 50  2  0  0  0  0
 52 50  1  0  0  0  0
M  END
>  <MODEL>
1

>  <REMARK>
 VINA RESULT:      -7.2      0.000      0.000
  Name = 
  21 active torsions:
  status: ('A' for Active; 'I' for Inactive)
    1  A    between atoms: N_1  and  C_15
    2  A    between atoms: C_4  and  C_25
    3  A    between atoms: C_5  and  C_35
    4  A    between atoms: C_5  and  C_51
    5  A    between atoms: C_7  and  C_30
    6  A    between atoms: C_7  and  C_50
    7  A    between atoms: O_8  and  P_19
    8  A    between atoms: O_8  and  C_38
    9  A    between atoms: O_10  and  P_19
   10  A    between atoms: O_10  and  C_40
   11  A    between atoms: C_11  and  C_40
   12  A    between atoms: C_11  and  C_50
   13  A    between atoms: C_12  and  C_48
   14  A    between atoms: C_13  and  N_42
   15  A    between atoms: C_15  and  C_30
   16  A    between atoms: C_17  and  N_22
   17  A    between atoms: C_21  and  C_39
   18  A    between atoms: C_31  and  O_34
   19  A    between atoms: C_31  and  C_38
   20  A    between atoms: C_43  and  C_52
   21  A    between atoms: C_48  and  C_52
                            x       y       z     vdW  Elec       q    Type
                         _______ _______ _______ _____ _____    ______ ____

>  <TORSDO>
F 21

$$$$
=
 OpenBabel11042420533D

 52 55  0  0  1  0  0  0  0  0999 V2000
  161.8620  207.1720  151.3010 C   0  0  0  0  0  2  0  0  0  0  0  0
  160.7190  205.8590  146.4350 C   0  0  1  0  0  3  0  0  0  0  0  0
  160.8190  207.1390  148.4610 C   0  0  1  0  0  3  0  0  0  0  0  0
  161.8900  208.3530  150.3810 C   0  0  0  0  0  0  0  0  0  0  0  0
  162.1020  204.9680  148.9940 C   0  0  0  0  0  2  0  0  0  0  0  0
  160.9010  205.8500  149.3340 C   0  0  1  0  0  3  0  0  0  0  0  0
  161.5140  202.7710  148.0380 C   0  0  0  0  0  3  0  0  0  0  0  0
  160.8000  206.1750  150.8330 C   0  0  1  0  0  3  0  0  0  0  0  0
  162.4390  209.6910  150.7250 C   0  0  0  0  0  2  0  0  0  0  0  0
  161.7430  204.0680  147.8480 C   0  0  0  0  0  0  0  0  0  0  0  0
  161.6210  204.6230  146.4630 C   0  0  0  0  0  2  0  0  0  0  0  0
  161.4730  208.3250  149.1220 C   0  0  0  0  0  0  0  0  0  0  0  0
  161.6280  209.6410  148.5250 C   0  0  0  0  0  3  0  0  0  0  0  0
  161.3800  206.9650  147.1180 N   0  0  0  0  0  2  0  0  0  0  0  0
  162.1920  210.4170  149.4430 C   0  0  0  0  0  0  0  0  0  0  0  0
  161.1300  204.8940  153.0600 N   0  0  0  0  0  2  0  0  0  0  0  0
  160.6330  204.9660  151.7160 C   0  0  0  0  0  0  0  0  0  0  0  0
  160.0810  203.9480  151.2230 O   0  0  0  0  0  0  0  0  0  0  0  0
  161.6650  206.0150  153.8210 C   0  0  0  0  0  2  0  0  0  0  0  0
  160.5430  206.7560  154.5330 C   0  0  0  0  0  2  0  0  0  0  0  0
  161.0350  208.0760  155.1100 C   0  0  0  0  0  2  0  0  0  0  0  0
  159.9490  208.7210  155.9550 C   0  0  0  0  0  2  0  0  0  0  0  0
  160.0370  210.2090  155.8620 C   0  0  0  0  0  0  0  0  0  0  0  0
  159.6910  210.9650  156.9030 C   0  0  0  0  0  2  0  0  0  0  0  0
  160.7080  210.8270  154.6850 C   0  0  0  0  0  2  0  0  0  0  0  0
  160.3100  212.1600  154.5540 O   0  0  0  0  0  0  0  0  0  0  0  0
  159.3920  212.2210  153.1300 P   0  0  2  0  0  0  0  0  0  0  0  0
  159.1250  210.6430  152.5770 O   0  0  0  0  0  1  0  0  0  0  0  0
  160.1480  212.9870  152.0670 O   0  0  0  0  0  0  0  0  0  0  0  0
  157.9040  212.9840  153.4170 O   0  0  0  0  0  0  0  0  0  0  0  0
  157.2140  212.1290  154.2770 C   0  0  0  0  0  2  0  0  0  0  0  0
  157.5150  214.1780  155.9010 C   0  0  0  0  0  2  0  0  0  0  0  0
  156.1320  214.1670  155.2700 C   0  0  0  0  0  2  0  0  0  0  0  0
  156.8420  212.8650  155.5560 C   0  0  0  0  0  0  0  0  0  0  0  0
  156.2130  212.1600  156.5930 O   0  0  0  0  0  0  0  0  0  0  0  0
  155.5550  211.0770  156.0010 C   0  0  0  0  0  1  0  0  0  0  0  0
  160.7370  201.1980  149.6830 O   0  0  0  0  0  1  0  0  0  0  0  0
  161.6020  202.1750  149.3290 N   0  0  0  0  0  2  0  0  0  0  0  0
  160.3640  206.2490  145.0020 C   0  0  0  0  0  2  0  0  0  0  0  0
  161.1540  205.4560  143.9710 C   0  0  0  0  0  1  0  0  0  0  0  0
  162.5030  211.8630  149.2360 C   0  0  0  0  0  2  0  0  0  0  0  0
  162.7200  212.1590  147.7920 C   0  0  0  0  0  0  0  0  0  0  0  0
  163.8420  211.9280  147.2650 O   0  0  0  0  0  0  0  0  0  0  0  0
  161.6390  212.6710  147.0110 N   0  0  0  0  0  2  0  0  0  0  0  0
  161.7670  212.9320  145.6160 C   0  0  0  0  0  3  0  0  0  0  0  0
  160.7430  212.7020  144.8040 C   0  0  0  0  0  3  0  0  0  0  0  0
  160.5980  214.3060  143.0610 O   0  0  0  0  0  1  0  0  0  0  0  0
  160.8260  212.9550  143.3310 C   0  0  1  0  0  3  0  0  0  0  0  0
  162.1760  212.5370  142.7600 C   0  0  0  0  0  2  0  0  0  0  0  0
  162.0200  211.9460  141.4010 C   0  0  0  0  0  0  0  0  0  0  0  0
  162.5970  212.4700  140.4130 O   0  0  0  0  0  0  0  0  0  0  0  0
  161.2230  210.8230  141.2210 O   0  0  0  0  0  1  0  0  0  0  0  0
  2 39  1  6  0  0  0
  2 11  1  0  0  0  0
  2 14  1  0  0  0  0
  3 14  1  6  0  0  0
  3 12  1  0  0  0  0
  3  6  1  0  0  0  0
  4  9  1  0  0  0  0
  4  1  1  0  0  0  0
  6  5  1  1  0  0  0
  6  8  1  0  0  0  0
  7 38  1  0  0  0  0
  8  1  1  0  0  0  0
  8 17  1  1  0  0  0
 10  7  2  0  0  0  0
 10  5  1  0  0  0  0
 11 10  1  0  0  0  0
 12  4  2  0  0  0  0
 13 12  1  0  0  0  0
 13 15  2  0  0  0  0
 15  9  1  0  0  0  0
 16 19  1  0  0  0  0
 17 16  1  0  0  0  0
 18 17  2  0  0  0  0
 19 20  1  0  0  0  0
 20 21  1  0  0  0  0
 21 22  1  0  0  0  0
 23 22  1  0  0  0  0
 23 24  2  0  0  0  0
 25 23  1  0  0  0  0
 26 25  1  0  0  0  0
 27 29  2  6  0  0  0
 27 30  1  0  0  0  0
 27 26  1  0  0  0  0
 28 27  1  0  0  0  0
 30 31  1  0  0  0  0
 31 34  1  0  0  0  0
 33 34  1  0  0  0  0
 33 32  1  0  0  0  0
 34 32  1  0  0  0  0
 34 35  1  0  0  0  0
 36 35  1  0  0  0  0
 38 37  1  0  0  0  0
 40 39  1  0  0  0  0
 41 15  1  0  0  0  0
 42 41  1  0  0  0  0
 43 42  2  0  0  0  0
 44 42  1  0  0  0  0
 45 44  1  0  0  0  0
 46 45  2  0  0  0  0
 48 47  1  1  0  0  0
 48 46  1  0  0  0  0
 49 48  1  0  0  0  0
 50 49  1  0  0  0  0
 51 50  2  0  0  0  0
 52 50  1  0  0  0  0
M  END
>  <MODEL>
2

>  <REMARK>
 VINA RESULT:      -7.0      2.727     10.165
  Name = 
  21 active torsions:
  status: ('A' for Active; 'I' for Inactive)
    1  A    between atoms: N_1  and  C_15
    2  A    between atoms: C_4  and  C_25
    3  A    between atoms: C_5  and  C_35
    4  A    between atoms: C_5  and  C_51
    5  A    between atoms: C_7  and  C_30
    6  A    between atoms: C_7  and  C_50
    7  A    between atoms: O_8  and  P_19
    8  A    between atoms: O_8  and  C_38
    9  A    between atoms: O_10  and  P_19
   10  A    between atoms: O_10  and  C_40
   11  A    between atoms: C_11  and  C_40
   12  A    between atoms: C_11  and  C_50
   13  A    between atoms: C_12  and  C_48
   14  A    between atoms: C_13  and  N_42
   15  A    between atoms: C_15  and  C_30
   16  A    between atoms: C_17  and  N_22
   17  A    between atoms: C_21  and  C_39
   18  A    between atoms: C_31  and  O_34
   19  A    between atoms: C_31  and  C_38
   20  A    between atoms: C_43  and  C_52
   21  A    between atoms: C_48  and  C_52
                            x       y       z     vdW  Elec       q    Type
                         _______ _______ _______ _____ _____    ______ ____

>  <TORSDO>
F 21

$$$$
=
 OpenBabel11042420533D

 52 55  0  0  1  0  0  0  0  0999 V2000
  161.3830  211.0340  150.9290 C   0  0  0  0  0  2  0  0  0  0  0  0
  157.8250  213.3080  153.9080 C   0  0  1  0  0  3  0  0  0  0  0  0
  159.5690  213.0410  152.2850 C   0  0  1  0  0  3  0  0  0  0  0  0
  160.6950  212.1600  150.2200 C   0  0  0  0  0  0  0  0  0  0  0  0
  159.1420  210.6640  153.1830 C   0  0  0  0  0  2  0  0  0  0  0  0
  160.1500  211.8030  153.0340 C   0  0  1  0  0  3  0  0  0  0  0  0
  158.4800  210.1880  155.5110 C   0  0  0  0  0  3  0  0  0  0  0  0
  161.4850  211.3480  152.4230 C   0  0  1  0  0  3  0  0  0  0  0  0
  160.7960  212.4390  148.7630 C   0  0  0  0  0  3  0  0  0  0  0  0
  158.3040  210.9050  154.4040 C   0  0  0  0  0  0  0  0  0  0  0  0
  157.2580  211.9750  154.4010 C   0  0  0  0  0  2  0  0  0  0  0  0
  159.8660  213.0120  150.8070 C   0  0  2  0  0  3  0  0  0  0  0  0
  159.3910  213.9820  149.8340 C   0  0  0  0  0  3  0  0  0  0  0  0
  158.1280  213.2160  152.4850 N   0  0  0  0  0  2  0  0  0  0  0  0
  159.9160  213.6430  148.6630 C   0  0  0  0  0  0  0  0  0  0  0  0
  162.2010  208.9110  152.9330 N   0  0  0  0  0  2  0  0  0  0  0  0
  162.2150  210.3140  153.2390 C   0  0  0  0  0  0  0  0  0  0  0  0
  162.8160  210.6970  154.2760 O   0  0  0  0  0  0  0  0  0  0  0  0
  161.6760  208.3220  151.7100 C   0  0  0  0  0  2  0  0  0  0  0  0
  162.3320  206.9740  151.4460 C   0  0  0  0  0  2  0  0  0  0  0  0
  161.2990  205.9280  151.0520 C   0  0  0  0  0  2  0  0  0  0  0  0
  161.2780  204.7980  152.0670 C   0  0  0  0  0  2  0  0  0  0  0  0
  161.0740  203.4870  151.3790 C   0  0  0  0  0  0  0  0  0  0  0  0
  161.0600  202.3570  152.0850 C   0  0  0  0  0  2  0  0  0  0  0  0
  160.6760  203.4730  149.9440 C   0  0  0  0  0  2  0  0  0  0  0  0
  160.3950  202.1650  149.5410 O   0  0  0  0  0  0  0  0  0  0  0  0
  161.0220  202.0310  147.9700 P   0  0  2  0  0  0  0  0  0  0  0  0
  159.7420  201.8450  146.8790 O   0  0  0  0  0  0  0  0  0  0  0  0
  161.9180  200.8150  147.8800 O   0  0  0  0  0  1  0  0  0  0  0  0
  161.9170  203.4160  147.5700 O   0  0  0  0  0  0  0  0  0  0  0  0
  161.4020  203.8440  146.3460 C   0  0  0  0  0  2  0  0  0  0  0  0
  160.8230  206.1240  147.5250 C   0  0  0  0  0  2  0  0  0  0  0  0
  162.3160  205.9950  147.2640 C   0  0  0  0  0  2  0  0  0  0  0  0
  161.3250  205.3630  146.3150 C   0  0  0  0  0  0  0  0  0  0  0  0
  161.3150  206.0220  145.0770 O   0  0  0  0  0  0  0  0  0  0  0  0
  161.2320  205.0300  144.0940 C   0  0  0  0  0  1  0  0  0  0  0  0
  159.1490  207.9640  156.1360 O   0  0  0  0  0  1  0  0  0  0  0  0
  159.4640  209.1600  155.5910 N   0  0  0  0  0  2  0  0  0  0  0  0
  156.8500  214.4530  154.1750 C   0  0  0  0  0  2  0  0  0  0  0  0
  155.5260  213.9680  154.7470 C   0  0  0  0  0  1  0  0  0  0  0  0
  159.6940  214.4030  147.3980 C   0  0  0  0  0  2  0  0  0  0  0  0
  159.5870  213.4790  146.2340 C   0  0  0  0  0  0  0  0  0  0  0  0
  158.5070  212.8650  146.0160 O   0  0  0  0  0  0  0  0  0  0  0  0
  160.7030  213.3240  145.3560 N   0  0  0  0  0  2  0  0  0  0  0  0
  160.6510  212.4910  144.2010 C   0  0  0  0  0  3  0  0  0  0  0  0
  161.0440  212.9660  143.0260 C   0  0  0  0  0  3  0  0  0  0  0  0
  159.8900  212.4720  141.0110 O   0  0  0  0  0  1  0  0  0  0  0  0
  161.0060  212.1350  141.7810 C   0  0  1  0  0  3  0  0  0  0  0  0
  162.2730  212.3020  140.9500 C   0  0  0  0  0  2  0  0  0  0  0  0
  162.4890  211.1230  140.0650 C   0  0  0  0  0  0  0  0  0  0  0  0
  163.4690  211.0940  139.2770 O   0  0  0  0  0  0  0  0  0  0  0  0
  161.5970  210.0580  140.0990 O   0  0  0  0  0  1  0  0  0  0  0  0
  1  8  1  0  0  0  0
  2 39  1  6  0  0  0
  2 11  1  0  0  0  0
  3 14  1  6  0  0  0
  3  6  1  0  0  0  0
  4 12  1  0  0  0  0
  4  1  1  0  0  0  0
  5 10  1  0  0  0  0
  6  5  1  6  0  0  0
  7 38  1  0  0  0  0
  8  6  1  0  0  0  0
  8 17  1  1  0  0  0
  9  4  2  0  0  0  0
 10  7  2  0  0  0  0
 11 10  1  0  0  0  0
 12 13  1  1  0  0  0
 12  3  1  0  0  0  0
 14  2  1  0  0  0  0
 15  9  1  0  0  0  0
 15 13  2  0  0  0  0
 16 17  1  0  0  0  0
 17 18  2  0  0  0  0
 19 16  1  0  0  0  0
 20 19  1  0  0  0  0
 21 20  1  0  0  0  0
 21 22  1  0  0  0  0
 23 22  1  0  0  0  0
 23 24  2  0  0  0  0
 25 23  1  0  0  0  0
 26 25  1  0  0  0  0
 27 28  2  6  0  0  0
 27 26  1  0  0  0  0
 29 27  1  0  0  0  0
 30 27  1  0  0  0  0
 31 30  1  0  0  0  0
 33 32  1  0  0  0  0
 34 31  1  0  0  0  0
 34 33  1  0  0  0  0
 34 32  1  0  0  0  0
 35 34  1  0  0  0  0
 36 35  1  0  0  0  0
 38 37  1  0  0  0  0
 39 40  1  0  0  0  0
 41 15  1  0  0  0  0
 42 41  1  0  0  0  0
 43 42  2  0  0  0  0
 44 42  1  0  0  0  0
 45 44  1  0  0  0  0
 46 45  2  0  0  0  0
 48 47  1  6  0  0  0
 48 46  1  0  0  0  0
 49 48  1  0  0  0  0
 50 52  1  0  0  0  0
 50 49  1  0  0  0  0
 51 50  2  0  0  0  0
M  END
>  <MODEL>
3

>  <REMARK>
 VINA RESULT:      -5.5      3.199     10.515
  Name = 
  21 active torsions:
  status: ('A' for Active; 'I' for Inactive)
    1  A    between atoms: N_1  and  C_15
    2  A    between atoms: C_4  and  C_25
    3  A    between atoms: C_5  and  C_35
    4  A    between atoms: C_5  and  C_51
    5  A    between atoms: C_7  and  C_30
    6  A    between atoms: C_7  and  C_50
    7  A    between atoms: O_8  and  P_19
    8  A    between atoms: O_8  and  C_38
    9  A    between atoms: O_10  and  P_19
   10  A    between atoms: O_10  and  C_40
   11  A    between atoms: C_11  and  C_40
   12  A    between atoms: C_11  and  C_50
   13  A    between atoms: C_12  and  C_48
   14  A    between atoms: C_13  and  N_42
   15  A    between atoms: C_15  and  C_30
   16  A    between atoms: C_17  and  N_22
   17  A    between atoms: C_21  and  C_39
   18  A    between atoms: C_31  and  O_34
   19  A    between atoms: C_31  and  C_38
   20  A    between atoms: C_43  and  C_52
   21  A    between atoms: C_48  and  C_52
                            x       y       z     vdW  Elec       q    Type
                         _______ _______ _______ _____ _____    ______ ____

>  <TORSDO>
F 21

$$$$
=
 OpenBabel11042420533D

 52 55  0  0  1  0  0  0  0  0999 V2000
  162.3190  206.8300  146.9310 C   0  0  0  0  0  2  0  0  0  0  0  0
  161.2180  203.6320  150.8390 C   0  0  1  0  0  3  0  0  0  0  0  0
  162.1290  205.5000  149.6420 C   0  0  1  0  0  3  0  0  0  0  0  0
  162.1100  207.5680  148.2170 C   0  0  0  0  0  0  0  0  0  0  0  0
  160.8450  204.1470  147.8640 C   0  0  0  0  0  2  0  0  0  0  0  0
  162.2030  204.6830  148.3170 C   0  0  1  0  0  3  0  0  0  0  0  0
  160.6590  201.6870  147.9000 C   0  0  0  0  0  3  0  0  0  0  0  0
  162.9400  205.4610  147.2140 C   0  0  1  0  0  3  0  0  0  0  0  0
  161.9560  209.0410  148.3400 C   0  0  0  0  0  3  0  0  0  0  0  0
  160.5770  202.8420  148.5550 C   0  0  0  0  0  0  0  0  0  0  0  0
  160.2230  202.8180  150.0100 C   0  0  0  0  0  2  0  0  0  0  0  0
  161.9830  206.9810  149.3990 C   0  0  2  0  0  3  0  0  0  0  0  0
  161.8090  207.9900  150.4310 C   0  0  0  0  0  3  0  0  0  0  0  0
  161.0610  205.0510  150.5410 N   0  0  0  0  0  2  0  0  0  0  0  0
  161.7820  209.1670  149.8190 C   0  0  0  0  0  0  0  0  0  0  0  0
  162.4790  204.6940  144.7830 N   0  0  0  0  0  2  0  0  0  0  0  0
  163.2550  204.6420  145.9900 C   0  0  0  0  0  0  0  0  0  0  0  0
  164.2130  203.8290  146.0550 O   0  0  0  0  0  0  0  0  0  0  0  0
  161.4340  205.6660  144.4950 C   0  0  0  0  0  2  0  0  0  0  0  0
  161.0840  205.6460  143.0140 C   0  0  0  0  0  2  0  0  0  0  0  0
  161.9210  206.6520  142.2370 C   0  0  0  0  0  2  0  0  0  0  0  0
  162.3160  206.0800  140.8870 C   0  0  0  0  0  2  0  0  0  0  0  0
  162.0200  207.0630  139.8010 C   0  0  0  0  0  0  0  0  0  0  0  0
  162.2670  206.7490  138.5300 C   0  0  0  0  0  2  0  0  0  0  0  0
  161.2570  208.2990  140.1270 C   0  0  0  0  0  2  0  0  0  0  0  0
  161.2560  209.1620  139.0280 O   0  0  0  0  0  0  0  0  0  0  0  0
  161.5720  210.7030  139.6620 P   0  0  2  0  0  0  0  0  0  0  0  0
  163.1890  211.1020  139.3620 O   0  0  0  0  0  0  0  0  0  0  0  0
  161.3410  210.6980  141.1570 O   0  0  0  0  0  1  0  0  0  0  0  0
  160.5570  211.8580  138.9440 O   0  0  0  0  0  0  0  0  0  0  0  0
  159.3500  211.1950  138.7180 C   0  0  0  0  0  2  0  0  0  0  0  0
  158.5350  212.8670  140.5790 C   0  0  0  0  0  2  0  0  0  0  0  0
  158.2130  213.3840  139.1860 C   0  0  0  0  0  2  0  0  0  0  0  0
  158.2220  211.8990  139.4570 C   0  0  0  0  0  0  0  0  0  0  0  0
  156.9270  211.3630  139.3980 O   0  0  0  0  0  0  0  0  0  0  0  0
  156.3240  211.8930  138.2510 C   0  0  0  0  0  1  0  0  0  0  0  0
  160.0370  201.4300  145.5910 O   0  0  0  0  0  1  0  0  0  0  0  0
  161.0000  201.6310  146.5180 N   0  0  0  0  0  2  0  0  0  0  0  0
  161.0300  203.3750  152.3330 C   0  0  0  0  0  2  0  0  0  0  0  0
  161.0030  204.6610  153.1450 C   0  0  0  0  0  1  0  0  0  0  0  0
  161.6410  210.4730  150.5280 C   0  0  0  0  0  2  0  0  0  0  0  0
  161.3720  210.2640  151.9780 C   0  0  0  0  0  0  0  0  0  0  0  0
  162.3330  210.1040  152.7790 O   0  0  0  0  0  0  0  0  0  0  0  0
  160.0240  210.2830  152.4510 N   0  0  0  0  0  2  0  0  0  0  0  0
  159.7030  210.1340  153.8320 C   0  0  0  0  0  3  0  0  0  0  0  0
  159.0430  211.0970  154.4640 C   0  0  0  0  0  3  0  0  0  0  0  0
  159.7830  211.3300  156.7070 O   0  0  0  0  0  1  0  0  0  0  0  0
  158.6830  210.9940  155.9140 C   0  0  1  0  0  3  0  0  0  0  0  0
  157.5010  211.8890  156.2680 C   0  0  0  0  0  2  0  0  0  0  0  0
  156.3280  211.5910  155.3990 C   0  0  0  0  0  0  0  0  0  0  0  0
  155.6990  210.5090  155.5340 O   0  0  0  0  0  1  0  0  0  0  0  0
  155.9380  212.5010  154.4260 O   0  0  0  0  0  0  0  0  0  0  0  0
  1  8  1  0  0  0  0
  1  4  1  0  0  0  0
  2 39  1  1  0  0  0
  3 14  1  1  0  0  0
  4  9  2  0  0  0  0
  4 12  1  0  0  0  0
  5 10  1  0  0  0  0
  6  5  1  6  0  0  0
  6  3  1  0  0  0  0
  7 10  2  0  0  0  0
  8 17  1  6  0  0  0
  8  6  1  0  0  0  0
  9 15  1  0  0  0  0
 10 11  1  0  0  0  0
 11  2  1  0  0  0  0
 12  3  1  0  0  0  0
 12 13  1  1  0  0  0
 14  2  1  0  0  0  0
 15 13  2  0  0  0  0
 15 41  1  0  0  0  0
 16 17  1  0  0  0  0
 17 18  2  0  0  0  0
 19 16  1  0  0  0  0
 20 19  1  0  0  0  0
 21 20  1  0  0  0  0
 22 21  1  0  0  0  0
 23 25  1  0  0  0  0
 23 22  1  0  0  0  0
 24 23  2  0  0  0  0
 26 27  1  0  0  0  0
 26 25  1  0  0  0  0
 27 28  2  6  0  0  0
 27 29  1  0  0  0  0
 30 27  1  0  0  0  0
 31 30  1  0  0  0  0
 31 34  1  0  0  0  0
 33 34  1  0  0  0  0
 33 32  1  0  0  0  0
 34 32  1  0  0  0  0
 35 34  1  0  0  0  0
 36 35  1  0  0  0  0
 37 38  1  0  0  0  0
 38  7  1  0  0  0  0
 39 40  1  0  0  0  0
 41 42  1  0  0  0  0
 42 44  1  0  0  0  0
 42 43  2  0  0  0  0
 44 45  1  0  0  0  0
 45 46  2  0  0  0  0
 46 48  1  0  0  0  0
 48 49  1  0  0  0  0
 48 47  1  1  0  0  0
 50 51  1  0  0  0  0
 50 49  1  0  0  0  0
 52 50  2  0  0  0  0
M  END
>  <MODEL>
4

>  <REMARK>
 VINA RESULT:      -4.9      2.710      4.849
  Name = 
  21 active torsions:
  status: ('A' for Active; 'I' for Inactive)
    1  A    between atoms: N_1  and  C_15
    2  A    between atoms: C_4  and  C_25
    3  A    between atoms: C_5  and  C_35
    4  A    between atoms: C_5  and  C_51
    5  A    between atoms: C_7  and  C_30
    6  A    between atoms: C_7  and  C_50
    7  A    between atoms: O_8  and  P_19
    8  A    between atoms: O_8  and  C_38
    9  A    between atoms: O_10  and  P_19
   10  A    between atoms: O_10  and  C_40
   11  A    between atoms: C_11  and  C_40
   12  A    between atoms: C_11  and  C_50
   13  A    between atoms: C_12  and  C_48
   14  A    between atoms: C_13  and  N_42
   15  A    between atoms: C_15  and  C_30
   16  A    between atoms: C_17  and  N_22
   17  A    between atoms: C_21  and  C_39
   18  A    between atoms: C_31  and  O_34
   19  A    between atoms: C_31  and  C_38
   20  A    between atoms: C_43  and  C_52
   21  A    between atoms: C_48  and  C_52
                            x       y       z     vdW  Elec       q    Type
                         _______ _______ _______ _____ _____    ______ ____

>  <TORSDO>
F 21

$$$$
=
 OpenBabel11042420533D

 52 55  0  0  1  0  0  0  0  0999 V2000
  161.3860  207.0590  147.2220 C   0  0  0  0  0  2  0  0  0  0  0  0
  161.7890  205.6440  152.1770 C   0  0  1  0  0  3  0  0  0  0  0  0
  162.1810  206.8370  150.1330 C   0  0  1  0  0  3  0  0  0  0  0  0
  161.6170  208.2330  148.1230 C   0  0  0  0  0  0  0  0  0  0  0  0
  160.3960  205.0780  149.5330 C   0  0  0  0  0  2  0  0  0  0  0  0
  161.8120  205.5900  149.2730 C   0  0  1  0  0  3  0  0  0  0  0  0
  160.2960  202.8370  150.5580 C   0  0  0  0  0  3  0  0  0  0  0  0
  162.1010  205.8280  147.7810 C   0  0  1  0  0  3  0  0  0  0  0  0
  161.4780  209.6570  147.7210 C   0  0  0  0  0  3  0  0  0  0  0  0
  160.4160  204.1530  150.7130 C   0  0  1  0  0  3  0  0  0  0  0  0
  160.5890  204.6990  152.0960 C   0  0  0  0  0  2  0  0  0  0  0  0
  161.9230  208.1340  149.4100 C   0  0  2  0  0  3  0  0  0  0  0  0
  162.0920  209.4610  149.9770 C   0  0  0  0  0  3  0  0  0  0  0  0
  161.5030  206.8650  151.4320 N   0  0  0  0  0  2  0  0  0  0  0  0
  161.8240  210.3310  149.0090 C   0  0  0  0  0  0  0  0  0  0  0  0
  161.5040  204.6000  145.5800 N   0  0  0  0  0  2  0  0  0  0  0  0
  161.9930  204.5900  146.9290 C   0  0  0  0  0  0  0  0  0  0  0  0
  162.2920  203.4860  147.4530 O   0  0  0  0  0  0  0  0  0  0  0  0
  161.2480  205.7940  144.7860 C   0  0  0  0  0  2  0  0  0  0  0  0
  162.2510  205.8980  143.6450 C   0  0  0  0  0  2  0  0  0  0  0  0
  161.5500  205.8830  142.2950 C   0  0  0  0  0  2  0  0  0  0  0  0
  161.7000  207.2290  141.6070 C   0  0  0  0  0  2  0  0  0  0  0  0
  162.1970  207.0460  140.2100 C   0  0  0  0  0  0  0  0  0  0  0  0
  162.5570  205.8360  139.7820 C   0  0  0  0  0  2  0  0  0  0  0  0
  162.0880  208.1740  139.2450 C   0  0  0  0  0  2  0  0  0  0  0  0
  161.4460  209.2580  139.8490 O   0  0  0  0  0  0  0  0  0  0  0  0
  160.2560  209.7520  138.7450 P   0  0  2  0  0  0  0  0  0  0  0  0
  159.7240  208.4060  137.8680 O   0  0  0  0  0  1  0  0  0  0  0  0
  160.8400  210.7610  137.7820 O   0  0  0  0  0  0  0  0  0  0  0  0
  158.9460  210.4540  139.5630 O   0  0  0  0  0  0  0  0  0  0  0  0
  157.8070  209.9250  138.9530 C   0  0  0  0  0  2  0  0  0  0  0  0
  156.9140  212.3240  139.5640 C   0  0  0  0  0  2  0  0  0  0  0  0
  156.9420  212.1070  138.0590 C   0  0  0  0  0  2  0  0  0  0  0  0
  156.6780  210.9440  138.9860 C   0  0  0  0  0  0  0  0  0  0  0  0
  155.3520  210.4990  138.8780 O   0  0  0  0  0  0  0  0  0  0  0  0
  155.3190  209.2030  139.4060 C   0  0  0  0  0  1  0  0  0  0  0  0
  160.3050  200.9120  149.1150 O   0  0  0  0  0  1  0  0  0  0  0  0
  160.1380  202.2450  149.2710 N   0  0  0  0  0  0  0  0  0  0  0  0
  162.1370  205.9700  153.6280 C   0  0  0  0  0  2  0  0  0  0  0  0
  161.0710  206.8200  154.3030 C   0  0  0  0  0  1  0  0  0  0  0  0
  161.9050  211.8130  149.1740 C   0  0  0  0  0  2  0  0  0  0  0  0
  161.5390  212.5080  147.9080 C   0  0  0  0  0  0  0  0  0  0  0  0
  160.3250  212.6450  147.5950 O   0  0  0  0  0  0  0  0  0  0  0  0
  162.5710  213.0450  147.0790 N   0  0  0  0  0  2  0  0  0  0  0  0
  162.2860  213.7600  145.8790 C   0  0  0  0  0  3  0  0  0  0  0  0
  162.2140  213.1100  144.7240 C   0  0  0  0  0  3  0  0  0  0  0  0
  162.6660  213.2450  142.3980 O   0  0  0  0  0  1  0  0  0  0  0  0
  161.9210  213.8130  143.4350 C   0  0  1  0  0  3  0  0  0  0  0  0
  160.4380  213.7650  143.0880 C   0  0  0  0  0  2  0  0  0  0  0  0
  159.8770  212.4070  143.3370 C   0  0  0  0  0  0  0  0  0  0  0  0
  159.0380  212.2280  144.2580 O   0  0  0  0  0  1  0  0  0  0  0  0
  160.2920  211.3330  142.5610 O   0  0  0  0  0  0  0  0  0  0  0  0
  1  8  1  0  0  0  0
  1  4  1  0  0  0  0
  2 39  1  1  0  0  0
  3 14  1  1  0  0  0
  4 12  1  0  0  0  0
  5 10  1  0  0  0  0
  6  5  1  6  0  0  0
  6  3  1  0  0  0  0
  8 17  1  6  0  0  0
  8  6  1  0  0  0  0
  9  4  2  0  0  0  0
  9 15  1  0  0  0  0
 10  7  1  6  0  0  0
 10 11  1  0  0  0  0
 11  2  1  0  0  0  0
 12 13  1  6  0  0  0
 12  3  1  0  0  0  0
 14  2  1  0  0  0  0
 15 41  1  0  0  0  0
 15 13  2  0  0  0  0
 16 17  1  0  0  0  0
 17 18  2  0  0  0  0
 19 16  1  0  0  0  0
 20 19  1  0  0  0  0
 21 20  1  0  0  0  0
 22 21  1  0  0  0  0
 23 22  1  0  0  0  0
 24 23  2  0  0  0  0
 25 26  1  0  0  0  0
 25 23  1  0  0  0  0
 27 29  2  6  0  0  0
 27 30  1  0  0  0  0
 27 26  1  0  0  0  0
 28 27  1  0  0  0  0
 31 34  1  0  0  0  0
 31 30  1  0  0  0  0
 33 34  1  0  0  0  0
 33 32  1  0  0  0  0
 34 32  1  0  0  0  0
 35 34  1  0  0  0  0
 35 36  1  0  0  0  0
 37 38  1  0  0  0  0
 38  7  2  0  0  0  0
 39 40  1  0  0  0  0
 42 41  1  0  0  0  0
 43 42  2  0  0  0  0
 44 42  1  0  0  0  0
 45 44  1  0  0  0  0
 46 45  2  0  0  0  0
 48 47  1  6  0  0  0
 48 46  1  0  0  0  0
 49 50  1  0  0  0  0
 49 48  1  0  0  0  0
 50 51  1  0  0  0  0
 52 50  2  0  0  0  0
M  END
>  <MODEL>
5

>  <REMARK>
 VINA RESULT:      -4.8      3.882      7.354
  Name = 
  21 active torsions:
  status: ('A' for Active; 'I' for Inactive)
    1  A    between atoms: N_1  and  C_15
    2  A    between atoms: C_4  and  C_25
    3  A    between atoms: C_5  and  C_35
    4  A    between atoms: C_5  and  C_51
    5  A    between atoms: C_7  and  C_30
    6  A    between atoms: C_7  and  C_50
    7  A    between atoms: O_8  and  P_19
    8  A    between atoms: O_8  and  C_38
    9  A    between atoms: O_10  and  P_19
   10  A    between atoms: O_10  and  C_40
   11  A    between atoms: C_11  and  C_40
   12  A    between atoms: C_11  and  C_50
   13  A    between atoms: C_12  and  C_48
   14  A    between atoms: C_13  and  N_42
   15  A    between atoms: C_15  and  C_30
   16  A    between atoms: C_17  and  N_22
   17  A    between atoms: C_21  and  C_39
   18  A    between atoms: C_31  and  O_34
   19  A    between atoms: C_31  and  C_38
   20  A    between atoms: C_43  and  C_52
   21  A    between atoms: C_48  and  C_52
                            x       y       z     vdW  Elec       q    Type
                         _______ _______ _______ _____ _____    ______ ____

>  <TORSDO>
F 21

$$$$
=
 OpenBabel11042420533D

 52 55  0  0  1  0  0  0  0  0999 V2000
  161.6530  209.4520  149.2690 C   0  0  0  0  0  2  0  0  0  0  0  0
  160.9180  210.8780  154.1820 C   0  0  1  0  0  3  0  0  0  0  0  0
  161.6420  210.9520  151.8960 C   0  0  1  0  0  3  0  0  0  0  0  0
  161.4180  210.9250  149.3950 C   0  0  0  0  0  0  0  0  0  0  0  0
  160.4280  208.6900  152.1250 C   0  0  0  0  0  2  0  0  0  0  0  0
  161.7490  209.3980  151.8240 C   0  0  1  0  0  3  0  0  0  0  0  0
  160.4440  207.3410  154.1900 C   0  0  0  0  0  3  0  0  0  0  0  0
  162.3910  208.9360  150.5050 C   0  0  1  0  0  3  0  0  0  0  0  0
  161.1480  211.8470  148.2600 C   0  0  0  0  0  3  0  0  0  0  0  0
  160.2840  208.5280  153.6100 C   0  0  0  0  0  0  0  0  0  0  0  0
  159.9710  209.7110  154.4710 C   0  0  0  0  0  2  0  0  0  0  0  0
  161.3700  211.5740  150.5510 C   0  0  2  0  0  3  0  0  0  0  0  0
  161.1410  212.9890  150.3090 C   0  0  0  0  0  3  0  0  0  0  0  0
  160.6380  211.4190  152.8570 N   0  0  0  0  0  2  0  0  0  0  0  0
  161.0020  213.1390  148.9970 C   0  0  0  0  0  0  0  0  0  0  0  0
  162.6710  206.6700  149.2830 N   0  0  0  0  0  2  0  0  0  0  0  0
  162.7400  207.4720  150.4710 C   0  0  0  0  0  0  0  0  0  0  0  0
  163.0510  206.9140  151.5560 O   0  0  0  0  0  0  0  0  0  0  0  0
  162.4650  207.1810  147.9340 C   0  0  0  0  0  2  0  0  0  0  0  0
  162.0900  206.0470  146.9900 C   0  0  0  0  0  2  0  0  0  0  0  0
  160.5820  205.9520  146.8160 C   0  0  0  0  0  2  0  0  0  0  0  0
  160.1940  206.2610  145.3800 C   0  0  0  0  0  2  0  0  0  0  0  0
  160.6810  205.1820  144.4680 C   0  0  0  0  0  0  0  0  0  0  0  0
  161.6800  205.4220  143.6210 C   0  0  0  0  0  2  0  0  0  0  0  0
  160.1890  203.7890  144.6620 C   0  0  0  0  0  2  0  0  0  0  0  0
  161.2420  202.9640  145.0650 O   0  0  0  0  0  0  0  0  0  0  0  0
  160.5120  201.6590  145.8680 P   0  0  2  0  0  0  0  0  0  0  0  0
  160.6730  200.2670  144.9180 O   0  0  0  0  0  0  0  0  0  0  0  0
  159.0410  201.9440  146.0710 O   0  0  0  0  0  1  0  0  0  0  0  0
  161.2470  201.4090  147.3760 O   0  0  0  0  0  0  0  0  0  0  0  0
  161.1990  202.6470  148.0180 C   0  0  0  0  0  2  0  0  0  0  0  0
  159.6650  201.4930  149.8170 C   0  0  0  0  0  2  0  0  0  0  0  0
  161.1230  201.0970  149.9920 C   0  0  0  0  0  2  0  0  0  0  0  0
  160.7700  202.4680  149.4660 C   0  0  0  0  0  0  0  0  0  0  0  0
  161.0820  203.4660  150.4010 O   0  0  0  0  0  0  0  0  0  0  0  0
  161.0720  202.8550  151.6600 C   0  0  0  0  0  1  0  0  0  0  0  0
  161.9160  205.5180  153.6500 O   0  0  0  0  0  1  0  0  0  0  0  0
  160.7530  206.1720  153.4360 N   0  0  0  0  0  2  0  0  0  0  0  0
  160.7900  211.9670  155.2440 C   0  0  0  0  0  2  0  0  0  0  0  0
  159.3790  212.0690  155.8040 C   0  0  0  0  0  1  0  0  0  0  0  0
  160.7740  214.4530  148.3270 C   0  0  0  0  0  2  0  0  0  0  0  0
  160.6930  214.2890  146.8480 C   0  0  0  0  0  0  0  0  0  0  0  0
  159.5720  214.3210  146.2730 O   0  0  0  0  0  0  0  0  0  0  0  0
  161.8960  214.1310  146.0930 N   0  0  0  0  0  2  0  0  0  0  0  0
  161.8900  214.0140  144.6730 C   0  0  0  0  0  3  0  0  0  0  0  0
  161.2690  212.9920  144.0970 C   0  0  0  0  0  3  0  0  0  0  0  0
  162.5320  212.8730  142.0900 O   0  0  0  0  0  1  0  0  0  0  0  0
  161.2360  212.8190  142.6100 C   0  0  1  0  0  3  0  0  0  0  0  0
  160.5750  211.5060  142.2080 C   0  0  0  0  0  2  0  0  0  0  0  0
  160.7550  211.2430  140.7520 C   0  0  0  0  0  0  0  0  0  0  0  0
  160.2270  212.0050  139.9010 O   0  0  0  0  0  0  0  0  0  0  0  0
  161.4960  210.1460  140.3330 O   0  0  0  0  0  1  0  0  0  0  0  0
  1  4  1  0  0  0  0
  1  8  1  0  0  0  0
  2 11  1  0  0  0  0
  2 39  1  1  0  0  0
  3 14  1  1  0  0  0
  4 12  1  0  0  0  0
  5 10  1  0  0  0  0
  6  3  1  0  0  0  0
  6  5  1  6  0  0  0
  8 17  1  1  0  0  0
  8  6  1  0  0  0  0
  9 15  1  0  0  0  0
  9  4  2  0  0  0  0
 10  7  2  0  0  0  0
 10 11  1  0  0  0  0
 12 13  1  6  0  0  0
 12  3  1  0  0  0  0
 14  2  1  0  0  0  0
 15 13  2  0  0  0  0
 16 17  1  0  0  0  0
 17 18  2  0  0  0  0
 19 16  1  0  0  0  0
 20 19  1  0  0  0  0
 21 20  1  0  0  0  0
 22 21  1  0  0  0  0
 23 25  1  0  0  0  0
 23 22  1  0  0  0  0
 24 23  2  0  0  0  0
 25 26  1  0  0  0  0
 26 27  1  0  0  0  0
 27 28  2  6  0  0  0
 27 29  1  0  0  0  0
 27 30  1  0  0  0  0
 30 31  1  0  0  0  0
 31 34  1  0  0  0  0
 32 33  1  0  0  0  0
 34 32  1  0  0  0  0
 34 33  1  0  0  0  0
 34 35  1  0  0  0  0
 35 36  1  0  0  0  0
 38 37  1  0  0  0  0
 38  7  1  0  0  0  0
 39 40  1  0  0  0  0
 41 15  1  0  0  0  0
 42 41  1  0  0  0  0
 43 42  2  0  0  0  0
 44 42  1  0  0  0  0
 45 44  1  0  0  0  0
 46 45  2  0  0  0  0
 48 47  1  1  0  0  0
 48 46  1  0  0  0  0
 49 48  1  0  0  0  0
 50 49  1  0  0  0  0
 51 50  2  0  0  0  0
 52 50  1  0  0  0  0
M  END
>  <MODEL>
6

>  <REMARK>
 VINA RESULT:      -4.8      3.402     10.011
  Name = 
  21 active torsions:
  status: ('A' for Active; 'I' for Inactive)
    1  A    between atoms: N_1  and  C_15
    2  A    between atoms: C_4  and  C_25
    3  A    between atoms: C_5  and  C_35
    4  A    between atoms: C_5  and  C_51
    5  A    between atoms: C_7  and  C_30
    6  A    between atoms: C_7  and  C_50
    7  A    between atoms: O_8  and  P_19
    8  A    between atoms: O_8  and  C_38
    9  A    between atoms: O_10  and  P_19
   10  A    between atoms: O_10  and  C_40
   11  A    between atoms: C_11  and  C_40
   12  A    between atoms: C_11  and  C_50
   13  A    between atoms: C_12  and  C_48
   14  A    between atoms: C_13  and  N_42
   15  A    between atoms: C_15  and  C_30
   16  A    between atoms: C_17  and  N_22
   17  A    between atoms: C_21  and  C_39
   18  A    between atoms: C_31  and  O_34
   19  A    between atoms: C_31  and  C_38
   20  A    between atoms: C_43  and  C_52
   21  A    between atoms: C_48  and  C_52
                            x       y       z     vdW  Elec       q    Type
                         _______ _______ _______ _____ _____    ______ ____

>  <TORSDO>
F 21

$$$$
=
 OpenBabel11042420533D

 52 55  0  0  1  0  0  0  0  0999 V2000
  162.3300  206.8320  146.9920 C   0  0  0  0  0  2  0  0  0  0  0  0
  161.1440  203.4550  150.7210 C   0  0  1  0  0  3  0  0  0  0  0  0
  162.0840  205.3750  149.6320 C   0  0  1  0  0  3  0  0  0  0  0  0
  162.0990  207.5090  148.3070 C   0  0  0  0  0  0  0  0  0  0  0  0
  160.8300  204.1140  147.7670 C   0  0  0  0  0  2  0  0  0  0  0  0
  162.1810  204.6220  148.2710 C   0  0  1  0  0  3  0  0  0  0  0  0
  160.6350  201.6560  147.6820 C   0  0  0  0  0  3  0  0  0  0  0  0
  162.9410  205.4480  147.2200 C   0  0  1  0  0  3  0  0  0  0  0  0
  161.9480  208.9750  148.4980 C   0  0  0  0  0  3  0  0  0  0  0  0
  160.5440  202.7790  148.3900 C   0  0  0  0  0  0  0  0  0  0  0  0
  160.1620  202.6870  149.8340 C   0  0  0  0  0  2  0  0  0  0  0  0
  161.9480  206.8660  149.4580 C   0  0  2  0  0  3  0  0  0  0  0  0
  161.7570  207.8250  150.5330 C   0  0  0  0  0  3  0  0  0  0  0  0
  160.9980  204.8880  150.4870 N   0  0  0  0  0  2  0  0  0  0  0  0
  161.7460  209.0310  149.9770 C   0  0  0  0  0  0  0  0  0  0  0  0
  162.5200  204.7940  144.7500 N   0  0  0  0  0  2  0  0  0  0  0  0
  163.2770  204.6880  145.9650 C   0  0  0  0  0  0  0  0  0  0  0  0
  164.2370  203.8740  146.0070 O   0  0  0  0  0  0  0  0  0  0  0  0
  161.4770  205.7770  144.4910 C   0  0  0  0  0  2  0  0  0  0  0  0
  161.0870  205.7610  143.0200 C   0  0  0  0  0  2  0  0  0  0  0  0
  161.9850  206.6790  142.2040 C   0  0  0  0  0  2  0  0  0  0  0  0
  162.0400  206.2150  140.7580 C   0  0  0  0  0  2  0  0  0  0  0  0
  161.9340  207.3840  139.8340 C   0  0  0  0  0  0  0  0  0  0  0  0
  161.9840  207.2010  138.5150 C   0  0  0  0  0  2  0  0  0  0  0  0
  161.5600  208.7160  140.3860 C   0  0  0  0  0  2  0  0  0  0  0  0
  162.4440  209.6910  139.9170 O   0  0  0  0  0  0  0  0  0  0  0  0
  161.4920  211.0640  139.6260 P   0  0  2  0  0  0  0  0  0  0  0  0
  159.8800  210.7080  140.0020 O   0  0  0  0  0  1  0  0  0  0  0  0
  161.5780  211.4450  138.1640 O   0  0  0  0  0  0  0  0  0  0  0  0
  162.0240  212.3660  140.5750 O   0  0  0  0  0  0  0  0  0  0  0  0
  162.3360  211.8100  141.8170 C   0  0  0  0  0  2  0  0  0  0  0  0
  162.5670  213.6780  143.6560 C   0  0  0  0  0  2  0  0  0  0  0  0
  161.6220  214.1050  142.5440 C   0  0  0  0  0  2  0  0  0  0  0  0
  161.7260  212.6490  142.9300 C   0  0  0  0  0  0  0  0  0  0  0  0
  160.5520  212.2040  143.5570 O   0  0  0  0  0  0  0  0  0  0  0  0
  159.5760  213.1790  143.3230 C   0  0  0  0  0  1  0  0  0  0  0  0
  160.1420  201.1980  145.3720 O   0  0  0  0  0  1  0  0  0  0  0  0
  161.0030  201.6650  146.3050 N   0  0  0  0  0  2  0  0  0  0  0  0
  160.9260  203.1280  152.1960 C   0  0  0  0  0  2  0  0  0  0  0  0
  160.8660  204.3750  153.0650 C   0  0  0  0  0  1  0  0  0  0  0  0
  161.5960  210.3020  150.7460 C   0  0  0  0  0  2  0  0  0  0  0  0
  161.0410  210.0410  152.1030 C   0  0  0  0  0  0  0  0  0  0  0  0
  160.4610  208.9470  152.3450 O   0  0  0  0  0  0  0  0  0  0  0  0
  161.2030  211.0220  153.1280 N   0  0  0  0  0  2  0  0  0  0  0  0
  160.7350  210.8150  154.4590 C   0  0  0  0  0  3  0  0  0  0  0  0
  159.4340  210.6870  154.6880 C   0  0  0  0  0  3  0  0  0  0  0  0
  159.9340  210.2940  156.9750 O   0  0  0  0  0  1  0  0  0  0  0  0
  158.8890  210.4710  156.0660 C   0  0  1  0  0  3  0  0  0  0  0  0
  158.0090  211.6330  156.5140 C   0  0  0  0  0  2  0  0  0  0  0  0
  156.8760  211.8380  155.5690 C   0  0  0  0  0  0  0  0  0  0  0  0
  156.7590  212.9280  154.9500 O   0  0  0  0  0  0  0  0  0  0  0  0
  155.9390  210.8310  155.3820 O   0  0  0  0  0  1  0  0  0  0  0  0
  1  8  1  0  0  0  0
  1  4  1  0  0  0  0
  2 39  1  1  0  0  0
  3 14  1  6  0  0  0
  4  9  2  0  0  0  0
  4 12  1  0  0  0  0
  5 10  1  0  0  0  0
  6  5  1  6  0  0  0
  6  3  1  0  0  0  0
  7 10  2  0  0  0  0
  8 17  1  6  0  0  0
  8  6  1  0  0  0  0
  9 15  1  0  0  0  0
 10 11  1  0  0  0  0
 11  2  1  0  0  0  0
 12  3  1  0  0  0  0
 12 13  1  1  0  0  0
 14  2  1  0  0  0  0
 15 13  2  0  0  0  0
 15 41  1  0  0  0  0
 16 17  1  0  0  0  0
 17 18  2  0  0  0  0
 19 16  1  0  0  0  0
 20 19  1  0  0  0  0
 21 20  1  0  0  0  0
 22 21  1  0  0  0  0
 23 25  1  0  0  0  0
 23 22  1  0  0  0  0
 24 23  2  0  0  0  0
 26 25  1  0  0  0  0
 27 29  2  6  0  0  0
 27 26  1  0  0  0  0
 27 28  1  0  0  0  0
 27 30  1  0  0  0  0
 30 31  1  0  0  0  0
 31 34  1  0  0  0  0
 33 34  1  0  0  0  0
 33 32  1  0  0  0  0
 34 35  1  0  0  0  0
 34 32  1  0  0  0  0
 36 35  1  0  0  0  0
 37 38  1  0  0  0  0
 38  7  1  0  0  0  0
 39 40  1  0  0  0  0
 41 42  1  0  0  0  0
 42 43  2  0  0  0  0
 42 44  1  0  0  0  0
 44 45  1  0  0  0  0
 45 46  2  0  0  0  0
 46 48  1  0  0  0  0
 48 49  1  0  0  0  0
 48 47  1  1  0  0  0
 50 49  1  0  0  0  0
 51 50  2  0  0  0  0
 52 50  1  0  0  0  0
M  END
>  <MODEL>
7

>  <REMARK>
 VINA RESULT:      -4.7      2.408      4.881
  Name = 
  21 active torsions:
  status: ('A' for Active; 'I' for Inactive)
    1  A    between atoms: N_1  and  C_15
    2  A    between atoms: C_4  and  C_25
    3  A    between atoms: C_5  and  C_35
    4  A    between atoms: C_5  and  C_51
    5  A    between atoms: C_7  and  C_30
    6  A    between atoms: C_7  and  C_50
    7  A    between atoms: O_8  and  P_19
    8  A    between atoms: O_8  and  C_38
    9  A    between atoms: O_10  and  P_19
   10  A    between atoms: O_10  and  C_40
   11  A    between atoms: C_11  and  C_40
   12  A    between atoms: C_11  and  C_50
   13  A    between atoms: C_12  and  C_48
   14  A    between atoms: C_13  and  N_42
   15  A    between atoms: C_15  and  C_30
   16  A    between atoms: C_17  and  N_22
   17  A    between atoms: C_21  and  C_39
   18  A    between atoms: C_31  and  O_34
   19  A    between atoms: C_31  and  C_38
   20  A    between atoms: C_43  and  C_52
   21  A    between atoms: C_48  and  C_52
                            x       y       z     vdW  Elec       q    Type
                         _______ _______ _______ _____ _____    ______ ____

>  <TORSDO>
F 21

$$$$
=
 OpenBabel11042420533D

 52 55  0  0  1  0  0  0  0  0999 V2000
  160.8360  208.4310  151.4480 C   0  0  0  0  0  2  0  0  0  0  0  0
  162.2140  212.4820  148.5490 C   0  0  1  0  0  3  0  0  0  0  0  0
  162.2380  210.2850  149.5110 C   0  0  1  0  0  3  0  0  0  0  0  0
  161.3570  208.0100  150.1090 C   0  0  0  0  0  0  0  0  0  0  0  0
  160.2250  211.4590  150.6110 C   0  0  0  0  0  2  0  0  0  0  0  0
  161.5850  210.7980  150.8300 C   0  0  1  0  0  3  0  0  0  0  0  0
  160.1720  213.8710  151.1240 C   0  0  0  0  0  3  0  0  0  0  0  0
  161.5530  209.7010  151.9080 C   0  0  1  0  0  3  0  0  0  0  0  0
  161.2500  206.6390  149.5440 C   0  0  0  0  0  2  0  0  0  0  0  0
  160.4320  212.9010  150.2520 C   0  0  0  0  0  0  0  0  0  0  0  0
  160.9530  213.2740  148.8990 C   0  0  0  0  0  2  0  0  0  0  0  0
  161.9330  208.8330  149.2430 C   0  0  0  0  0  0  0  0  0  0  0  0
  162.3320  208.0940  148.0560 C   0  0  0  0  0  3  0  0  0  0  0  0
  161.8710  211.0800  148.3360 N   0  0  0  0  0  2  0  0  0  0  0  0
  161.9280  206.8410  148.2280 C   0  0  0  0  0  0  0  0  0  0  0  0
  160.4120  209.4040  154.2140 N   0  0  0  0  0  2  0  0  0  0  0  0
  161.1570  210.1940  153.2750 C   0  0  0  0  0  0  0  0  0  0  0  0
  161.4440  211.3800  153.5810 O   0  0  0  0  0  0  0  0  0  0  0  0
  160.1210  207.9840  154.0760 C   0  0  0  0  0  2  0  0  0  0  0  0
  161.1570  207.1550  154.8240 C   0  0  0  0  0  2  0  0  0  0  0  0
  161.8770  206.1990  153.8850 C   0  0  0  0  0  2  0  0  0  0  0  0
  160.9410  205.0870  153.4420 C   0  0  0  0  0  2  0  0  0  0  0  0
  161.4420  204.4570  152.1840 C   0  0  0  0  0  0  0  0  0  0  0  0
  162.5960  204.8550  151.6510 C   0  0  0  0  0  2  0  0  0  0  0  0
  160.7560  203.2460  151.6530 C   0  0  0  0  0  2  0  0  0  0  0  0
  160.3910  203.4510  150.3200 O   0  0  0  0  0  0  0  0  0  0  0  0
  160.5160  201.9320  149.5770 P   0  0  2  0  0  0  0  0  0  0  0  0
  158.9610  201.3260  149.2940 O   0  0  0  0  0  0  0  0  0  0  0  0
  161.2520  200.9760  150.4910 O   0  0  0  0  0  1  0  0  0  0  0  0
  161.3560  202.0580  148.1080 O   0  0  0  0  0  0  0  0  0  0  0  0
  161.2010  200.8170  147.4900 C   0  0  0  0  0  2  0  0  0  0  0  0
  159.6040  202.0570  145.8060 C   0  0  0  0  0  2  0  0  0  0  0  0
  161.0660  202.3270  145.4870 C   0  0  0  0  0  2  0  0  0  0  0  0
  160.6540  201.0010  146.0820 C   0  0  0  0  0  0  0  0  0  0  0  0
  160.7950  199.9610  145.1520 O   0  0  0  0  0  0  0  0  0  0  0  0
  161.5010  198.9380  145.7960 C   0  0  0  0  0  1  0  0  0  0  0  0
  158.5870  214.2320  152.8970 O   0  0  0  0  0  1  0  0  0  0  0  0
  159.6840  213.5920  152.4330 N   0  0  0  0  0  2  0  0  0  0  0  0
  162.9020  213.0590  147.3140 C   0  0  0  0  0  2  0  0  0  0  0  0
  162.0380  212.9550  146.0660 C   0  0  0  0  0  1  0  0  0  0  0  0
  162.1650  205.7460  147.2410 C   0  0  0  0  0  2  0  0  0  0  0  0
  161.4730  206.0320  145.9530 C   0  0  0  0  0  0  0  0  0  0  0  0
  160.3340  206.5730  145.9580 O   0  0  0  0  0  0  0  0  0  0  0  0
  162.1270  205.7200  144.7220 N   0  0  0  0  0  2  0  0  0  0  0  0
  161.5390  206.0090  143.4560 C   0  0  0  0  0  3  0  0  0  0  0  0
  162.3160  206.2480  142.4060 C   0  0  0  0  0  3  0  0  0  0  0  0
  161.4210  207.9160  140.9740 O   0  0  0  0  0  1  0  0  0  0  0  0
  161.7500  206.5610  141.0550 C   0  0  1  0  0  3  0  0  0  0  0  0
  162.7220  206.2010  139.9380 C   0  0  0  0  0  2  0  0  0  0  0  0
  162.2290  206.6970  138.6230 C   0  0  0  0  0  0  0  0  0  0  0  0
  162.7090  206.2390  137.5540 O   0  0  0  0  0  0  0  0  0  0  0  0
  161.2470  207.6780  138.5750 O   0  0  0  0  0  1  0  0  0  0  0  0
  1  8  1  0  0  0  0
  2 39  1  6  0  0  0
  2 11  1  0  0  0  0
  3 14  1  6  0  0  0
  3  6  1  0  0  0  0
  4  1  1  0  0  0  0
  6  5  1  6  0  0  0
  6  8  1  0  0  0  0
  7 38  1  0  0  0  0
  8 17  1  1  0  0  0
  9  4  1  0  0  0  0
 10  5  1  0  0  0  0
 10  7  2  0  0  0  0
 11 10  1  0  0  0  0
 12  3  1  0  0  0  0
 12  4  2  0  0  0  0
 13 15  2  0  0  0  0
 13 12  1  0  0  0  0
 14  2  1  0  0  0  0
 15  9  1  0  0  0  0
 17 18  2  0  0  0  0
 17 16  1  0  0  0  0
 19 16  1  0  0  0  0
 19 20  1  0  0  0  0
 21 20  1  0  0  0  0
 22 21  1  0  0  0  0
 23 22  1  0  0  0  0
 24 23  2  0  0  0  0
 25 23  1  0  0  0  0
 26 25  1  0  0  0  0
 27 28  2  6  0  0  0
 27 26  1  0  0  0  0
 27 29  1  0  0  0  0
 30 27  1  0  0  0  0
 31 30  1  0  0  0  0
 32 34  1  0  0  0  0
 33 32  1  0  0  0  0
 33 34  1  0  0  0  0
 34 31  1  0  0  0  0
 35 36  1  0  0  0  0
 35 34  1  0  0  0  0
 38 37  1  0  0  0  0
 40 39  1  0  0  0  0
 41 15  1  0  0  0  0
 42 43  2  0  0  0  0
 42 41  1  0  0  0  0
 44 42  1  0  0  0  0
 45 44  1  0  0  0  0
 46 45  2  0  0  0  0
 48 47  1  1  0  0  0
 48 46  1  0  0  0  0
 49 48  1  0  0  0  0
 50 49  1  0  0  0  0
 51 50  2  0  0  0  0
 52 50  1  0  0  0  0
M  END
>  <MODEL>
8

>  <REMARK>
 VINA RESULT:      -4.5      3.594     11.193
  Name = 
  21 active torsions:
  status: ('A' for Active; 'I' for Inactive)
    1  A    between atoms: N_1  and  C_15
    2  A    between atoms: C_4  and  C_25
    3  A    between atoms: C_5  and  C_35
    4  A    between atoms: C_5  and  C_51
    5  A    between atoms: C_7  and  C_30
    6  A    between atoms: C_7  and  C_50
    7  A    between atoms: O_8  and  P_19
    8  A    between atoms: O_8  and  C_38
    9  A    between atoms: O_10  and  P_19
   10  A    between atoms: O_10  and  C_40
   11  A    between atoms: C_11  and  C_40
   12  A    between atoms: C_11  and  C_50
   13  A    between atoms: C_12  and  C_48
   14  A    between atoms: C_13  and  N_42
   15  A    between atoms: C_15  and  C_30
   16  A    between atoms: C_17  and  N_22
   17  A    between atoms: C_21  and  C_39
   18  A    between atoms: C_31  and  O_34
   19  A    between atoms: C_31  and  C_38
   20  A    between atoms: C_43  and  C_52
   21  A    between atoms: C_48  and  C_52
                            x       y       z     vdW  Elec       q    Type
                         _______ _______ _______ _____ _____    ______ ____

>  <TORSDO>
F 21

$$$$
=
 OpenBabel11042420533D

 52 55  0  0  1  0  0  0  0  0999 V2000
  162.0390  209.9320  150.6600 C   0  0  0  0  0  2  0  0  0  0  0  0
  160.4890  205.4870  152.7920 C   0  0  1  0  0  3  0  0  0  0  0  0
  160.8110  207.2120  151.1580 C   0  0  1  0  0  3  0  0  0  0  0  0
  162.0870  208.7970  149.6850 C   0  0  0  0  0  0  0  0  0  0  0  0
  161.9750  208.0960  153.2800 C   0  0  0  0  0  2  0  0  0  0  0  0
  160.8610  208.3170  152.2560 C   0  0  1  0  0  3  0  0  0  0  0  0
  161.1760  207.6240  155.5660 C   0  0  0  0  0  3  0  0  0  0  0  0
  160.8830  209.7260  151.6400 C   0  0  1  0  0  3  0  0  0  0  0  0
  162.7470  208.8410  148.3540 C   0  0  0  0  0  3  0  0  0  0  0  0
  161.4800  207.1710  154.3530 C   0  0  0  0  0  0  0  0  0  0  0  0
  161.3040  205.7120  154.0670 C   0  0  0  0  0  2  0  0  0  0  0  0
  161.5860  207.5910  149.9220 C   0  0  2  0  0  3  0  0  0  0  0  0
  161.7910  206.7390  148.7620 C   0  0  0  0  0  3  0  0  0  0  0  0
  161.2680  205.9030  151.6320 N   0  0  0  0  0  2  0  0  0  0  0  0
  162.4670  207.4550  147.8720 C   0  0  0  0  0  0  0  0  0  0  0  0
  160.2280  212.1480  152.2840 N   0  0  0  0  0  2  0  0  0  0  0  0
  160.6920  210.8370  152.6390 C   0  0  0  0  0  0  0  0  0  0  0  0
  161.0140  210.6160  153.8350 O   0  0  0  0  0  0  0  0  0  0  0  0
  159.6880  212.5260  150.9850 C   0  0  0  0  0  2  0  0  0  0  0  0
  158.1770  212.6910  151.0670 C   0  0  0  0  0  2  0  0  0  0  0  0
  157.7270  213.9750  150.3840 C   0  0  0  0  0  2  0  0  0  0  0  0
  156.6220  213.6810  149.3830 C   0  0  0  0  0  2  0  0  0  0  0  0
  157.1370  213.8180  147.9880 C   0  0  0  0  0  0  0  0  0  0  0  0
  156.3930  214.4140  147.0560 C   0  0  0  0  0  2  0  0  0  0  0  0
  158.5580  213.4790  147.7000 C   0  0  0  0  0  2  0  0  0  0  0  0
  159.0140  214.2230  146.6090 O   0  0  0  0  0  0  0  0  0  0  0  0
  159.7000  213.0930  145.5450 P   0  0  2  0  0  0  0  0  0  0  0  0
  158.5730  211.8670  145.2410 O   0  0  0  0  0  0  0  0  0  0  0  0
  160.9290  212.4780  146.1770 O   0  0  0  0  0  1  0  0  0  0  0  0
  160.1360  213.8420  144.0870 O   0  0  0  0  0  0  0  0  0  0  0  0
  159.8810  212.8920  143.0960 C   0  0  0  0  0  2  0  0  0  0  0  0
  162.0740  213.8880  142.0360 C   0  0  0  0  0  2  0  0  0  0  0  0
  162.0410  212.3720  141.9260 C   0  0  0  0  0  2  0  0  0  0  0  0
  160.7550  213.1610  141.8800 C   0  0  0  0  0  0  0  0  0  0  0  0
  160.1780  213.1200  140.6010 O   0  0  0  0  0  0  0  0  0  0  0  0
  158.8890  212.5980  140.7590 C   0  0  0  0  0  1  0  0  0  0  0  0
  160.9780  209.4250  157.1470 O   0  0  0  0  0  1  0  0  0  0  0  0
  161.3080  209.0010  155.9070 N   0  0  0  0  0  2  0  0  0  0  0  0
  160.0670  204.0250  152.6590 C   0  0  0  0  0  2  0  0  0  0  0  0
  161.1870  203.1440  152.1260 C   0  0  0  0  0  1  0  0  0  0  0  0
  162.8620  206.9520  146.5230 C   0  0  0  0  0  2  0  0  0  0  0  0
  162.6920  205.4740  146.4370 C   0  0  0  0  0  0  0  0  0  0  0  0
  163.5880  204.7120  146.8920 O   0  0  0  0  0  0  0  0  0  0  0  0
  161.4980  204.9370  145.8670 N   0  0  0  0  0  2  0  0  0  0  0  0
  161.2550  203.5340  145.7960 C   0  0  0  0  0  3  0  0  0  0  0  0
  160.8260  202.8830  146.8710 C   0  0  0  0  0  3  0  0  0  0  0  0
  160.8210  200.8890  145.5830 O   0  0  0  0  0  1  0  0  0  0  0  0
  160.5600  201.4100  146.8530 C   0  0  1  0  0  3  0  0  0  0  0  0
  161.3940  200.6710  147.8930 C   0  0  0  0  0  2  0  0  0  0  0  0
  160.8650  200.9070  149.2650 C   0  0  0  0  0  0  0  0  0  0  0  0
  161.5430  200.5720  150.2710 O   0  0  0  0  0  1  0  0  0  0  0  0
  159.6140  201.4860  149.4360 O   0  0  0  0  0  0  0  0  0  0  0  0
  1  8  1  0  0  0  0
  2 39  1  6  0  0  0
  2 11  1  0  0  0  0
  3 14  1  1  0  0  0
  3  6  1  0  0  0  0
  4 12  1  0  0  0  0
  4  1  1  0  0  0  0
  5 10  1  0  0  0  0
  6  5  1  6  0  0  0
  7 38  1  0  0  0  0
  8  6  1  0  0  0  0
  8 17  1  1  0  0  0
  9  4  2  0  0  0  0
 10  7  2  0  0  0  0
 11 10  1  0  0  0  0
 12 13  1  6  0  0  0
 12  3  1  0  0  0  0
 14  2  1  0  0  0  0
 15  9  1  0  0  0  0
 15 13  2  0  0  0  0
 16 17  1  0  0  0  0
 17 18  2  0  0  0  0
 19 20  1  0  0  0  0
 19 16  1  0  0  0  0
 21 20  1  0  0  0  0
 22 21  1  0  0  0  0
 23 22  1  0  0  0  0
 24 23  2  0  0  0  0
 25 23  1  0  0  0  0
 26 25  1  0  0  0  0
 27 28  2  6  0  0  0
 27 29  1  0  0  0  0
 27 26  1  0  0  0  0
 30 27  1  0  0  0  0
 31 30  1  0  0  0  0
 33 32  1  0  0  0  0
 34 33  1  0  0  0  0
 34 32  1  0  0  0  0
 34 31  1  0  0  0  0
 35 36  1  0  0  0  0
 35 34  1  0  0  0  0
 38 37  1  0  0  0  0
 40 39  1  0  0  0  0
 41 15  1  0  0  0  0
 42 41  1  0  0  0  0
 42 43  2  0  0  0  0
 44 42  1  0  0  0  0
 45 44  1  0  0  0  0
 45 46  2  0  0  0  0
 48 47  1  6  0  0  0
 48 46  1  0  0  0  0
 48 49  1  0  0  0  0
 49 50  1  0  0  0  0
 50 52  2  0  0  0  0
 50 51  1  0  0  0  0
M  END
>  <MODEL>
9

>  <REMARK>
 VINA RESULT:      -4.3      2.886      7.918
  Name = 
  21 active torsions:
  status: ('A' for Active; 'I' for Inactive)
    1  A    between atoms: N_1  and  C_15
    2  A    between atoms: C_4  and  C_25
    3  A    between atoms: C_5  and  C_35
    4  A    between atoms: C_5  and  C_51
    5  A    between atoms: C_7  and  C_30
    6  A    between atoms: C_7  and  C_50
    7  A    between atoms: O_8  and  P_19
    8  A    between atoms: O_8  and  C_38
    9  A    between atoms: O_10  and  P_19
   10  A    between atoms: O_10  and  C_40
   11  A    between atoms: C_11  and  C_40
   12  A    between atoms: C_11  and  C_50
   13  A    between atoms: C_12  and  C_48
   14  A    between atoms: C_13  and  N_42
   15  A    between atoms: C_15  and  C_30
   16  A    between atoms: C_17  and  N_22
   17  A    between atoms: C_21  and  C_39
   18  A    between atoms: C_31  and  O_34
   19  A    between atoms: C_31  and  C_38
   20  A    between atoms: C_43  and  C_52
   21  A    between atoms: C_48  and  C_52
                            x       y       z     vdW  Elec       q    Type
                         _______ _______ _______ _____ _____    ______ ____

>  <TORSDO>
F 21

$$$$
