=
 OpenBabel11052410543D

 30 31  0  0  1  0  0  0  0  0999 V2000
  160.7870  210.5580  152.5640 C   0  0  0  0  0  2  0  0  0  0  0  0
  161.8180  207.2510  152.5730 C   0  0  0  0  0  0  0  0  0  0  0  0
  161.6190  208.5840  150.4260 C   0  0  0  0  0  0  0  0  0  0  0  0
  161.7790  209.6890  152.6440 C   0  0  0  0  0  2  0  0  0  0  0  0
  161.8510  209.6680  149.8240 O   0  0  0  0  0  0  0  0  0  0  0  0
  160.2180  209.0860  154.8440 C   0  0  0  0  0  0  0  0  0  0  0  0
  160.5180  211.3200  153.8130 C   0  0  0  0  0  2  0  0  0  0  0  0
  159.9340  210.3790  154.8630 C   0  0  0  0  0  0  0  0  0  0  0  0
  161.7700  208.5100  151.8600 N   0  0  0  0  0  0  0  0  0  0  0  0
  161.2840  207.0190  153.8020 C   0  0  0  0  0  3  0  0  0  0  0  0
  160.5110  207.8040  154.8180 C   0  0  0  0  0  3  0  0  0  0  0  0
  157.1010  211.8550  157.0710 C   0  0  0  0  0  1  0  0  0  0  0  0
  157.7930  211.3900  155.8400 C   0  0  0  0  0  0  0  0  0  0  0  0
  159.1260  210.8750  155.9390 N   0  0  0  0  0  2  0  0  0  0  0  0
  157.1940  211.4520  154.7340 O   0  0  0  0  0  0  0  0  0  0  0  0
  162.5650  206.1060  151.9680 C   0  0  0  0  0  2  0  0  0  0  0  0
  161.6660  204.9280  151.7940 C   0  0  0  0  0  0  0  0  0  0  0  0
  161.1780  204.1980  152.8080 N   0  0  0  0  0  0  0  0  0  0  0  0
  160.4240  203.3700  150.9570 C   0  0  0  0  0  3  0  0  0  0  0  0
  161.2160  204.4430  150.5850 C   0  0  0  0  0  3  0  0  0  0  0  0
  160.4400  203.2770  152.2680 O   0  0  0  0  0  0  0  0  0  0  0  0
  161.1040  207.4150  149.6400 C   0  0  0  0  0  2  0  0  0  0  0  0
  162.8850  207.3140  147.9780 N   0  0  0  0  0  1  0  0  0  0  0  0
  161.4580  207.5220  148.1650 C   0  0  1  0  0  3  0  0  0  0  0  0
  160.6810  206.4700  147.3910 C   0  0  0  0  0  2  0  0  0  0  0  0
  161.5920  205.6960  146.4520 C   0  0  0  0  0  2  0  0  0  0  0  0
  161.5500  204.2780  146.7740 N   0  0  0  0  0  2  0  0  0  0  0  0
  160.9020  202.3210  145.7740 C   0  0  0  0  0  1  0  0  0  0  0  0
  160.7900  204.3370  144.6140 C   0  0  0  0  0  1  0  0  0  0  0  0
  161.5930  203.5810  145.5600 N   0  0  0  0  0  0  0  0  0  0  0  0
  1  4  1  0  0  0  0
  1  7  1  0  0  0  0
  2 10  2  0  0  0  0
  3  9  1  0  0  0  0
  5  3  2  0  0  0  0
  6  8  2  0  0  0  0
  7  8  1  0  0  0  0
  8 14  1  0  0  0  0
  9  2  1  0  0  0  0
  9  4  1  0  0  0  0
 10 11  1  0  0  0  0
 11  6  2  0  0  0  0
 13 14  1  0  0  0  0
 13 12  1  0  0  0  0
 15 13  2  0  0  0  0
 16  2  1  0  0  0  0
 17 16  1  0  0  0  0
 17 18  2  0  0  0  0
 19 21  1  0  0  0  0
 20 19  2  0  0  0  0
 20 17  1  0  0  0  0
 21 18  1  0  0  0  0
 22  3  1  0  0  0  0
 24 23  1  1  0  0  0
 24 22  1  0  0  0  0
 25 24  1  0  0  0  0
 26 27  1  0  0  0  0
 26 25  1  0  0  0  0
 29 30  1  0  0  0  0
 30 28  1  0  0  0  0
 30 27  1  0  0  0  0
M  END
>  <MODEL>
1

>  <REMARK>
 VINA RESULT:      -7.5      0.000      0.000
  Name = 
  9 active torsions:
  status: ('A' for Active; 'I' for Inactive)
    1  A    between atoms: C_2  and  C_19
    2  A    between atoms: C_3  and  C_22
    3  A    between atoms: C_5  and  N_11
    4  A    between atoms: C_5  and  C_15
    5  A    between atoms: C_8  and  C_19
    6  A    between atoms: N_11  and  N_26
    7  A    between atoms: N_14  and  C_18
    8  A    between atoms: C_15  and  C_17
    9  A    between atoms: C_17  and  C_22
                            x       y       z     vdW  Elec       q    Type
                         _______ _______ _______ _____ _____    ______ ____

>  <TORSDO>
F 9

$$$$
=
 OpenBabel11052410543D

 30 31  0  0  1  0  0  0  0  0999 V2000
  161.0960  205.7940  151.3810 C   0  0  0  0  0  2  0  0  0  0  0  0
  161.9830  209.0020  150.4210 C   0  0  0  0  0  0  0  0  0  0  0  0
  160.9880  208.5160  152.7020 C   0  0  0  0  0  0  0  0  0  0  0  0
  162.0230  206.7330  151.3160 C   0  0  0  0  0  2  0  0  0  0  0  0
  160.9890  207.7770  153.7250 O   0  0  0  0  0  0  0  0  0  0  0  0
  161.4330  206.2290  148.6630 C   0  0  0  0  0  0  0  0  0  0  0  0
  161.3510  204.6000  150.5310 C   0  0  0  0  0  2  0  0  0  0  0  0
  161.2040  204.9870  149.0610 C   0  0  0  0  0  0  0  0  0  0  0  0
  161.6850  208.0950  151.5090 N   0  0  0  0  0  0  0  0  0  0  0  0
  161.9660  208.6820  149.0990 C   0  0  0  0  0  3  0  0  0  0  0  0
  161.6660  207.4640  148.2790 C   0  0  0  0  0  3  0  0  0  0  0  0
  161.1430  202.6860  145.9340 C   0  0  0  0  0  1  0  0  0  0  0  0
  161.6130  203.7560  146.8530 C   0  0  0  0  0  0  0  0  0  0  0  0
  160.8900  204.0060  148.0630 N   0  0  0  0  0  2  0  0  0  0  0  0
  162.6400  204.4200  146.5540 O   0  0  0  0  0  0  0  0  0  0  0  0
  162.4110  210.3980  150.7410 C   0  0  0  0  0  2  0  0  0  0  0  0
  161.9170  211.3490  149.7030 C   0  0  0  0  0  0  0  0  0  0  0  0
  160.8630  212.1620  149.8690 N   0  0  0  0  0  0  0  0  0  0  0  0
  161.6710  212.5000  147.8900 C   0  0  0  0  0  3  0  0  0  0  0  0
  162.4740  211.5220  148.4550 C   0  0  0  0  0  3  0  0  0  0  0  0
  160.7480  212.8340  148.7650 O   0  0  0  0  0  0  0  0  0  0  0  0
  160.1840  209.7820  152.7230 C   0  0  0  0  0  2  0  0  0  0  0  0
  161.7790  210.7570  154.2880 N   0  0  0  0  0  1  0  0  0  0  0  0
  160.3640  210.5470  154.0240 C   0  0  1  0  0  3  0  0  0  0  0  0
  159.6590  211.8890  153.9130 C   0  0  0  0  0  2  0  0  0  0  0  0
  158.1490  211.7170  153.9100 C   0  0  0  0  0  2  0  0  0  0  0  0
  157.7220  211.0530  155.1320 N   0  0  0  0  0  2  0  0  0  0  0  0
  156.1400  212.5650  154.4530 C   0  0  0  0  0  1  0  0  0  0  0  0
  155.5120  210.4510  155.1990 C   0  0  0  0  0  1  0  0  0  0  0  0
  156.4440  211.5400  155.4360 N   0  0  0  0  0  0  0  0  0  0  0  0
  2 16  1  0  0  0  0
  2  9  1  0  0  0  0
  3 22  1  0  0  0  0
  3  5  2  0  0  0  0
  4  1  1  0  0  0  0
  4  9  1  0  0  0  0
  6  8  2  0  0  0  0
  7  1  1  0  0  0  0
  8  7  1  0  0  0  0
  9  3  1  0  0  0  0
 10  2  2  0  0  0  0
 11  6  2  0  0  0  0
 11 10  1  0  0  0  0
 12 13  1  0  0  0  0
 13 14  1  0  0  0  0
 14  8  1  0  0  0  0
 15 13  2  0  0  0  0
 17 18  2  0  0  0  0
 17 16  1  0  0  0  0
 19 20  2  0  0  0  0
 19 21  1  0  0  0  0
 20 17  1  0  0  0  0
 21 18  1  0  0  0  0
 22 24  1  0  0  0  0
 24 23  1  6  0  0  0
 25 24  1  0  0  0  0
 26 25  1  0  0  0  0
 26 27  1  0  0  0  0
 27 30  1  0  0  0  0
 28 30  1  0  0  0  0
 29 30  1  0  0  0  0
M  END
>  <MODEL>
2

>  <REMARK>
 VINA RESULT:      -7.1      2.538      8.799
  Name = 
  9 active torsions:
  status: ('A' for Active; 'I' for Inactive)
    1  A    between atoms: C_2  and  C_19
    2  A    between atoms: C_3  and  C_22
    3  A    between atoms: C_5  and  N_11
    4  A    between atoms: C_5  and  C_15
    5  A    between atoms: C_8  and  C_19
    6  A    between atoms: N_11  and  N_26
    7  A    between atoms: N_14  and  C_18
    8  A    between atoms: C_15  and  C_17
    9  A    between atoms: C_17  and  C_22
                            x       y       z     vdW  Elec       q    Type
                         _______ _______ _______ _____ _____    ______ ____

>  <TORSDO>
F 9

$$$$
=
 OpenBabel11052410543D

 30 31  0  0  1  0  0  0  0  0999 V2000
  161.1140  206.2240  151.4250 C   0  0  0  0  0  2  0  0  0  0  0  0
  161.9130  209.3340  150.1250 C   0  0  0  0  0  0  0  0  0  0  0  0
  160.9510  209.0660  152.4550 C   0  0  0  0  0  0  0  0  0  0  0  0
  162.0170  207.1730  151.2510 C   0  0  0  0  0  2  0  0  0  0  0  0
  160.9800  208.4380  153.5500 O   0  0  0  0  0  0  0  0  0  0  0  0
  161.4150  206.3810  148.6730 C   0  0  0  0  0  0  0  0  0  0  0  0
  161.3900  204.9550  150.7010 C   0  0  0  0  0  2  0  0  0  0  0  0
  161.2210  205.1820  149.2010 C   0  0  0  0  0  0  0  0  0  0  0  0
  161.6480  208.5390  151.3050 N   0  0  0  0  0  0  0  0  0  0  0  0
  161.8920  208.8780  148.8440 C   0  0  0  0  0  3  0  0  0  0  0  0
  161.6140  207.5740  148.1590 C   0  0  0  0  0  3  0  0  0  0  0  0
  161.1790  202.5750  146.3240 C   0  0  0  0  0  1  0  0  0  0  0  0
  161.6290  203.7480  147.1190 C   0  0  0  0  0  0  0  0  0  0  0  0
  160.9210  204.0960  148.3140 N   0  0  0  0  0  2  0  0  0  0  0  0
  162.6270  204.4100  146.7310 O   0  0  0  0  0  0  0  0  0  0  0  0
  162.3100  210.7660  150.2930 C   0  0  0  0  0  2  0  0  0  0  0  0
  162.1160  211.5160  149.0180 C   0  0  0  0  0  0  0  0  0  0  0  0
  163.1130  211.8550  148.1860 N   0  0  0  0  0  0  0  0  0  0  0  0
  161.2540  212.5700  147.3390 C   0  0  0  0  0  3  0  0  0  0  0  0
  160.9030  211.9480  148.5260 C   0  0  0  0  0  3  0  0  0  0  0  0
  162.5580  212.4830  147.1950 O   0  0  0  0  0  0  0  0  0  0  0  0
  160.1170  210.3080  152.3540 C   0  0  0  0  0  2  0  0  0  0  0  0
  160.6160  211.7650  154.2440 N   0  0  0  0  0  1  0  0  0  0  0  0
  159.6630  210.8000  153.7190 C   0  0  1  0  0  3  0  0  0  0  0  0
  158.2970  211.4530  153.5820 C   0  0  0  0  0  2  0  0  0  0  0  0
  158.4180  212.9650  153.4940 C   0  0  0  0  0  2  0  0  0  0  0  0
  157.6750  213.4570  152.3440 N   0  0  0  0  0  2  0  0  0  0  0  0
  157.6420  213.5390  150.0540 C   0  0  0  0  0  1  0  0  0  0  0  0
  159.5760  214.0860  151.2300 C   0  0  0  0  0  1  0  0  0  0  0  0
  158.4460  213.1740  151.2080 N   0  0  0  0  0  0  0  0  0  0  0  0
  2 16  1  0  0  0  0
  2  9  1  0  0  0  0
  3  5  2  0  0  0  0
  4  9  1  0  0  0  0
  4  1  1  0  0  0  0
  6  8  2  0  0  0  0
  7  1  1  0  0  0  0
  8  7  1  0  0  0  0
  9  3  1  0  0  0  0
 10  2  2  0  0  0  0
 11  6  2  0  0  0  0
 11 10  1  0  0  0  0
 12 13  1  0  0  0  0
 13 14  1  0  0  0  0
 14  8  1  0  0  0  0
 15 13  2  0  0  0  0
 17 16  1  0  0  0  0
 18 17  2  0  0  0  0
 19 20  2  0  0  0  0
 20 17  1  0  0  0  0
 21 19  1  0  0  0  0
 21 18  1  0  0  0  0
 22  3  1  0  0  0  0
 22 24  1  0  0  0  0
 24 23  1  6  0  0  0
 25 24  1  0  0  0  0
 26 25  1  0  0  0  0
 27 26  1  0  0  0  0
 28 30  1  0  0  0  0
 30 29  1  0  0  0  0
 30 27  1  0  0  0  0
M  END
>  <MODEL>
3

>  <REMARK>
 VINA RESULT:      -7.1      3.034      8.584
  Name = 
  9 active torsions:
  status: ('A' for Active; 'I' for Inactive)
    1  A    between atoms: C_2  and  C_19
    2  A    between atoms: C_3  and  C_22
    3  A    between atoms: C_5  and  N_11
    4  A    between atoms: C_5  and  C_15
    5  A    between atoms: C_8  and  C_19
    6  A    between atoms: N_11  and  N_26
    7  A    between atoms: N_14  and  C_18
    8  A    between atoms: C_15  and  C_17
    9  A    between atoms: C_17  and  C_22
                            x       y       z     vdW  Elec       q    Type
                         _______ _______ _______ _____ _____    ______ ____

>  <TORSDO>
F 9

$$$$
=
 OpenBabel11052410543D

 30 31  0  0  1  0  0  0  0  0999 V2000
  162.1370  210.1310  149.7310 C   0  0  0  0  0  2  0  0  0  0  0  0
  160.8760  209.5910  152.9120 C   0  0  0  0  0  0  0  0  0  0  0  0
  161.9660  207.7350  151.5720 C   0  0  0  0  0  0  0  0  0  0  0  0
  162.3400  210.1310  151.0370 C   0  0  0  0  0  2  0  0  0  0  0  0
  162.9310  207.3790  150.8400 O   0  0  0  0  0  0  0  0  0  0  0  0
  160.3500  212.0190  150.6960 C   0  0  0  0  0  0  0  0  0  0  0  0
  162.1610  211.4750  149.0930 C   0  0  0  0  0  2  0  0  0  0  0  0
  160.9290  212.2640  149.5310 C   0  0  0  0  0  0  0  0  0  0  0  0
  161.7570  209.1350  151.8570 N   0  0  0  0  0  0  0  0  0  0  0  0
  160.0870  210.6970  152.8590 C   0  0  0  0  0  3  0  0  0  0  0  0
  159.7860  211.7710  151.8570 C   0  0  0  0  0  3  0  0  0  0  0  0
  159.3130  214.4530  146.7610 C   0  0  0  0  0  1  0  0  0  0  0  0
  159.8040  213.2250  147.4410 C   0  0  0  0  0  0  0  0  0  0  0  0
  160.4120  213.3370  148.7330 N   0  0  0  0  0  2  0  0  0  0  0  0
  159.6730  212.1100  146.8720 O   0  0  0  0  0  0  0  0  0  0  0  0
  160.8550  208.8450  154.2070 C   0  0  0  0  0  2  0  0  0  0  0  0
  161.1000  209.7730  155.3500 C   0  0  0  0  0  0  0  0  0  0  0  0
  160.1920  210.0590  156.2940 N   0  0  0  0  0  0  0  0  0  0  0  0
  162.0040  211.1520  156.7470 C   0  0  0  0  0  3  0  0  0  0  0  0
  162.2800  210.4440  155.5890 C   0  0  0  0  0  3  0  0  0  0  0  0
  160.7690  210.8860  157.1110 O   0  0  0  0  0  0  0  0  0  0  0  0
  161.0040  206.6930  152.0600 C   0  0  0  0  0  2  0  0  0  0  0  0
  161.0920  204.2920  152.4790 N   0  0  0  0  0  1  0  0  0  0  0  0
  161.3080  205.3220  151.4750 C   0  0  1  0  0  3  0  0  0  0  0  0
  160.3940  205.0770  150.2850 C   0  0  0  0  0  2  0  0  0  0  0  0
  161.1860  205.0060  148.9910 C   0  0  0  0  0  2  0  0  0  0  0  0
  160.9180  206.1820  148.1780 N   0  0  0  0  0  2  0  0  0  0  0  0
  161.8920  204.5730  146.8710 C   0  0  0  0  0  1  0  0  0  0  0  0
  160.5690  206.2320  145.9150 C   0  0  0  0  0  1  0  0  0  0  0  0
  161.5590  205.9850  146.9480 N   0  0  0  0  0  0  0  0  0  0  0  0
  1  4  1  0  0  0  0
  2 16  1  0  0  0  0
  3  9  1  0  0  0  0
  3 22  1  0  0  0  0
  4  9  1  0  0  0  0
  5  3  2  0  0  0  0
  6 11  2  0  0  0  0
  7  8  1  0  0  0  0
  7  1  1  0  0  0  0
  8  6  2  0  0  0  0
  9  2  1  0  0  0  0
 10  2  2  0  0  0  0
 11 10  1  0  0  0  0
 12 13  1  0  0  0  0
 13 14  1  0  0  0  0
 14  8  1  0  0  0  0
 15 13  2  0  0  0  0
 16 17  1  0  0  0  0
 17 20  1  0  0  0  0
 17 18  2  0  0  0  0
 18 21  1  0  0  0  0
 19 21  1  0  0  0  0
 20 19  2  0  0  0  0
 24 22  1  0  0  0  0
 24 23  1  1  0  0  0
 25 24  1  0  0  0  0
 26 25  1  0  0  0  0
 27 26  1  0  0  0  0
 28 30  1  0  0  0  0
 29 30  1  0  0  0  0
 30 27  1  0  0  0  0
M  END
>  <MODEL>
4

>  <REMARK>
 VINA RESULT:      -6.4      2.839      5.527
  Name = 
  9 active torsions:
  status: ('A' for Active; 'I' for Inactive)
    1  A    between atoms: C_2  and  C_19
    2  A    between atoms: C_3  and  C_22
    3  A    between atoms: C_5  and  N_11
    4  A    between atoms: C_5  and  C_15
    5  A    between atoms: C_8  and  C_19
    6  A    between atoms: N_11  and  N_26
    7  A    between atoms: N_14  and  C_18
    8  A    between atoms: C_15  and  C_17
    9  A    between atoms: C_17  and  C_22
                            x       y       z     vdW  Elec       q    Type
                         _______ _______ _______ _____ _____    ______ ____

>  <TORSDO>
F 9

$$$$
=
 OpenBabel11052410543D

 30 31  0  0  1  0  0  0  0  0999 V2000
  161.0150  206.1290  151.0720 C   0  0  0  0  0  2  0  0  0  0  0  0
  162.0010  209.2580  149.9600 C   0  0  0  0  0  0  0  0  0  0  0  0
  160.9110  208.9260  152.2250 C   0  0  0  0  0  0  0  0  0  0  0  0
  161.9620  207.0460  150.9880 C   0  0  0  0  0  2  0  0  0  0  0  0
  160.8580  208.2490  153.2890 O   0  0  0  0  0  0  0  0  0  0  0  0
  161.4630  206.3960  148.3480 C   0  0  0  0  0  0  0  0  0  0  0  0
  161.2780  204.8830  150.3040 C   0  0  0  0  0  2  0  0  0  0  0  0
  161.1950  205.1840  148.8090 C   0  0  0  0  0  0  0  0  0  0  0  0
  161.6440  208.4230  151.0880 N   0  0  0  0  0  0  0  0  0  0  0  0
  162.0280  208.8610  148.6610 C   0  0  0  0  0  3  0  0  0  0  0  0
  161.7360  207.6020  147.9020 C   0  0  0  0  0  3  0  0  0  0  0  0
  161.1940  202.7190  145.8090 C   0  0  0  0  0  1  0  0  0  0  0  0
  161.6470  203.8370  146.6780 C   0  0  0  0  0  0  0  0  0  0  0  0
  160.9000  204.1520  147.8590 N   0  0  0  0  0  2  0  0  0  0  0  0
  162.6810  204.4820  146.3660 O   0  0  0  0  0  0  0  0  0  0  0  0
  162.4440  210.6630  150.2150 C   0  0  0  0  0  2  0  0  0  0  0  0
  162.1510  211.5270  149.0340 C   0  0  0  0  0  0  0  0  0  0  0  0
  160.9160  211.8740  148.6450 N   0  0  0  0  0  0  0  0  0  0  0  0
  162.3330  212.7870  147.2870 C   0  0  0  0  0  3  0  0  0  0  0  0
  163.0990  212.0830  148.2020 C   0  0  0  0  0  3  0  0  0  0  0  0
  161.0650  212.6270  147.5980 O   0  0  0  0  0  0  0  0  0  0  0  0
  160.1310  210.2040  152.1400 C   0  0  0  0  0  2  0  0  0  0  0  0
  159.3950  211.2570  154.2130 N   0  0  0  0  0  1  0  0  0  0  0  0
  160.4930  211.1640  153.2630 C   0  0  1  0  0  3  0  0  0  0  0  0
  161.7380  210.6550  153.9700 C   0  0  0  0  0  2  0  0  0  0  0  0
  161.6250  210.8290  155.4750 C   0  0  0  0  0  2  0  0  0  0  0  0
  162.2640  209.7120  156.1540 N   0  0  0  0  0  2  0  0  0  0  0  0
  160.3460  210.3030  157.2610 C   0  0  0  0  0  1  0  0  0  0  0  0
  160.7500  208.0800  156.6970 C   0  0  0  0  0  1  0  0  0  0  0  0
  161.3900  209.2960  157.1670 N   0  0  0  0  0  0  0  0  0  0  0  0
  2 16  1  0  0  0  0
  2  9  1  0  0  0  0
  3  5  2  0  0  0  0
  4  1  1  0  0  0  0
  4  9  1  0  0  0  0
  6  8  2  0  0  0  0
  7  1  1  0  0  0  0
  8  7  1  0  0  0  0
  9  3  1  0  0  0  0
 10  2  2  0  0  0  0
 11  6  2  0  0  0  0
 11 10  1  0  0  0  0
 12 13  1  0  0  0  0
 13 14  1  0  0  0  0
 14  8  1  0  0  0  0
 15 13  2  0  0  0  0
 17 16  1  0  0  0  0
 18 17  2  0  0  0  0
 19 21  1  0  0  0  0
 19 20  2  0  0  0  0
 20 17  1  0  0  0  0
 21 18  1  0  0  0  0
 22  3  1  0  0  0  0
 22 24  1  0  0  0  0
 24 25  1  0  0  0  0
 24 23  1  1  0  0  0
 25 26  1  0  0  0  0
 26 27  1  0  0  0  0
 27 30  1  0  0  0  0
 29 30  1  0  0  0  0
 30 28  1  0  0  0  0
M  END
>  <MODEL>
5

>  <REMARK>
 VINA RESULT:      -6.4      2.677      8.803
  Name = 
  9 active torsions:
  status: ('A' for Active; 'I' for Inactive)
    1  A    between atoms: C_2  and  C_19
    2  A    between atoms: C_3  and  C_22
    3  A    between atoms: C_5  and  N_11
    4  A    between atoms: C_5  and  C_15
    5  A    between atoms: C_8  and  C_19
    6  A    between atoms: N_11  and  N_26
    7  A    between atoms: N_14  and  C_18
    8  A    between atoms: C_15  and  C_17
    9  A    between atoms: C_17  and  C_22
                            x       y       z     vdW  Elec       q    Type
                         _______ _______ _______ _____ _____    ______ ____

>  <TORSDO>
F 9

$$$$
=
 OpenBabel11052410543D

 30 31  0  0  1  0  0  0  0  0999 V2000
  161.5190  204.3070  146.4300 C   0  0  0  0  0  2  0  0  0  0  0  0
  160.6390  205.2970  149.6310 C   0  0  0  0  0  0  0  0  0  0  0  0
  161.7260  206.8930  147.9880 C   0  0  0  0  0  0  0  0  0  0  0  0
  160.6040  204.8080  147.2410 C   0  0  0  0  0  2  0  0  0  0  0  0
  161.7600  207.3450  146.8110 O   0  0  0  0  0  0  0  0  0  0  0  0
  161.0680  202.2870  148.2760 C   0  0  0  0  0  0  0  0  0  0  0  0
  161.2080  202.9550  145.8930 C   0  0  0  0  0  2  0  0  0  0  0  0
  161.2950  201.9300  147.0210 C   0  0  0  0  0  0  0  0  0  0  0  0
  160.9700  205.6980  148.2800 N   0  0  0  0  0  0  0  0  0  0  0  0
  160.5910  204.0170  150.0860 C   0  0  0  0  0  3  0  0  0  0  0  0
  160.8360  202.6520  149.5180 C   0  0  0  0  0  3  0  0  0  0  0  0
  161.3490  198.3270  145.5770 C   0  0  0  0  0  1  0  0  0  0  0  0
  160.9550  199.7540  145.7150 C   0  0  0  0  0  0  0  0  0  0  0  0
  161.5500  200.5460  146.7500 N   0  0  0  0  0  2  0  0  0  0  0  0
  160.1110  200.2410  144.9190 O   0  0  0  0  0  0  0  0  0  0  0  0
  160.2460  206.3480  150.6200 C   0  0  0  0  0  2  0  0  0  0  0  0
  161.0680  206.2330  151.8600 C   0  0  0  0  0  0  0  0  0  0  0  0
  162.3280  205.7730  151.8870 N   0  0  0  0  0  0  0  0  0  0  0  0
  161.7590  206.3020  153.9070 C   0  0  0  0  0  3  0  0  0  0  0  0
  160.6520  206.5870  153.1250 C   0  0  0  0  0  3  0  0  0  0  0  0
  162.7060  205.8300  153.1270 O   0  0  0  0  0  0  0  0  0  0  0  0
  162.5500  207.5660  149.0460 C   0  0  0  0  0  2  0  0  0  0  0  0
  162.3340  209.2100  150.8350 N   0  0  0  0  0  1  0  0  0  0  0  0
  161.9540  208.9010  149.4650 C   0  0  1  0  0  3  0  0  0  0  0  0
  162.4680  209.9870  148.5350 C   0  0  0  0  0  2  0  0  0  0  0  0
  162.0990  211.3690  149.0480 C   0  0  0  0  0  2  0  0  0  0  0  0
  161.2060  212.0280  148.1080 N   0  0  0  0  0  2  0  0  0  0  0  0
  161.1160  213.3210  146.2190 C   0  0  0  0  0  1  0  0  0  0  0  0
  162.7000  213.7480  147.8710 C   0  0  0  0  0  1  0  0  0  0  0  0
  162.0120  212.6810  147.1660 N   0  0  0  0  0  0  0  0  0  0  0  0
  1  4  1  0  0  0  0
  2 10  2  0  0  0  0
  2 16  1  0  0  0  0
  3  9  1  0  0  0  0
  3 22  1  0  0  0  0
  4  9  1  0  0  0  0
  5  3  2  0  0  0  0
  6 11  2  0  0  0  0
  7  1  1  0  0  0  0
  7  8  1  0  0  0  0
  8  6  2  0  0  0  0
  9  2  1  0  0  0  0
 11 10  1  0  0  0  0
 12 13  1  0  0  0  0
 13 14  1  0  0  0  0
 14  8  1  0  0  0  0
 15 13  2  0  0  0  0
 16 17  1  0  0  0  0
 17 18  2  0  0  0  0
 17 20  1  0  0  0  0
 18 21  1  0  0  0  0
 20 19  2  0  0  0  0
 21 19  1  0  0  0  0
 22 24  1  0  0  0  0
 24 23  1  1  0  0  0
 25 26  1  0  0  0  0
 25 24  1  0  0  0  0
 27 26  1  0  0  0  0
 28 30  1  0  0  0  0
 30 29  1  0  0  0  0
 30 27  1  0  0  0  0
M  END
>  <MODEL>
6

>  <REMARK>
 VINA RESULT:      -5.7      3.432      8.441
  Name = 
  9 active torsions:
  status: ('A' for Active; 'I' for Inactive)
    1  A    between atoms: C_2  and  C_19
    2  A    between atoms: C_3  and  C_22
    3  A    between atoms: C_5  and  N_11
    4  A    between atoms: C_5  and  C_15
    5  A    between atoms: C_8  and  C_19
    6  A    between atoms: N_11  and  N_26
    7  A    between atoms: N_14  and  C_18
    8  A    between atoms: C_15  and  C_17
    9  A    between atoms: C_17  and  C_22
                            x       y       z     vdW  Elec       q    Type
                         _______ _______ _______ _____ _____    ______ ____

>  <TORSDO>
F 9

$$$$
=
 OpenBabel11052410543D

 30 31  0  0  1  0  0  0  0  0999 V2000
  161.6280  210.2690  152.2750 C   0  0  0  0  0  2  0  0  0  0  0  0
  162.0990  208.2710  149.4840 C   0  0  0  0  0  0  0  0  0  0  0  0
  161.9760  210.7980  149.3150 C   0  0  0  0  0  0  0  0  0  0  0  0
  162.4670  209.6510  151.4620 C   0  0  0  0  0  2  0  0  0  0  0  0
  162.3420  211.9130  149.7800 O   0  0  0  0  0  0  0  0  0  0  0  0
  160.9820  207.5860  152.5440 C   0  0  0  0  0  0  0  0  0  0  0  0
  161.5740  209.7210  153.6560 C   0  0  0  0  0  2  0  0  0  0  0  0
  160.9150  208.3440  153.6280 C   0  0  0  0  0  0  0  0  0  0  0  0
  162.2110  209.5900  150.0700 N   0  0  0  0  0  0  0  0  0  0  0  0
  161.6200  207.1650  150.1130 C   0  0  0  0  0  3  0  0  0  0  0  0
  161.0570  206.8410  151.4630 C   0  0  0  0  0  3  0  0  0  0  0  0
  160.0190  207.1040  157.1960 C   0  0  0  0  0  1  0  0  0  0  0  0
  160.8390  207.6870  156.1020 C   0  0  0  0  0  0  0  0  0  0  0  0
  160.2750  207.8020  154.7900 N   0  0  0  0  0  2  0  0  0  0  0  0
  162.0110  208.0750  156.3480 O   0  0  0  0  0  0  0  0  0  0  0  0
  162.6050  208.0550  148.0930 C   0  0  0  0  0  2  0  0  0  0  0  0
  161.9820  206.8390  147.4940 C   0  0  0  0  0  0  0  0  0  0  0  0
  160.7250  206.7880  147.0300 N   0  0  0  0  0  0  0  0  0  0  0  0
  161.6310  204.8460  146.7350 C   0  0  0  0  0  3  0  0  0  0  0  0
  162.6110  205.6230  147.3300 C   0  0  0  0  0  3  0  0  0  0  0  0
  160.5520  205.5820  146.5850 O   0  0  0  0  0  0  0  0  0  0  0  0
  161.2240  210.7660  148.0180 C   0  0  0  0  0  2  0  0  0  0  0  0
  162.2560  212.6740  146.9040 N   0  0  0  0  0  1  0  0  0  0  0  0
  161.0100  212.1620  147.4520 C   0  0  1  0  0  3  0  0  0  0  0  0
  159.9590  212.0960  146.3560 C   0  0  0  0  0  2  0  0  0  0  0  0
  160.0130  213.3290  145.4690 C   0  0  0  0  0  2  0  0  0  0  0  0
  159.7270  212.9640  144.0910 N   0  0  0  0  0  2  0  0  0  0  0  0
  160.4000  211.6000  142.3770 C   0  0  0  0  0  1  0  0  0  0  0  0
  161.8790  213.1280  143.3250 C   0  0  0  0  0  1  0  0  0  0  0  0
  160.8080  212.1980  143.6370 N   0  0  0  0  0  0  0  0  0  0  0  0
  1  7  1  0  0  0  0
  2  9  1  0  0  0  0
  2 10  2  0  0  0  0
  3  5  2  0  0  0  0
  3  9  1  0  0  0  0
  4  1  1  0  0  0  0
  6  8  2  0  0  0  0
  8  7  1  0  0  0  0
  8 14  1  0  0  0  0
  9  4  1  0  0  0  0
 10 11  1  0  0  0  0
 11  6  2  0  0  0  0
 13 15  2  0  0  0  0
 13 12  1  0  0  0  0
 14 13  1  0  0  0  0
 16  2  1  0  0  0  0
 17 16  1  0  0  0  0
 18 17  2  0  0  0  0
 19 20  2  0  0  0  0
 20 17  1  0  0  0  0
 21 19  1  0  0  0  0
 21 18  1  0  0  0  0
 22  3  1  0  0  0  0
 24 23  1  6  0  0  0
 24 22  1  0  0  0  0
 25 24  1  0  0  0  0
 26 25  1  0  0  0  0
 27 26  1  0  0  0  0
 28 30  1  0  0  0  0
 29 30  1  0  0  0  0
 30 27  1  0  0  0  0
M  END
>  <MODEL>
7

>  <REMARK>
 VINA RESULT:      -5.7      3.939      5.279
  Name = 
  9 active torsions:
  status: ('A' for Active; 'I' for Inactive)
    1  A    between atoms: C_2  and  C_19
    2  A    between atoms: C_3  and  C_22
    3  A    between atoms: C_5  and  N_11
    4  A    between atoms: C_5  and  C_15
    5  A    between atoms: C_8  and  C_19
    6  A    between atoms: N_11  and  N_26
    7  A    between atoms: N_14  and  C_18
    8  A    between atoms: C_15  and  C_17
    9  A    between atoms: C_17  and  C_22
                            x       y       z     vdW  Elec       q    Type
                         _______ _______ _______ _____ _____    ______ ____

>  <TORSDO>
F 9

$$$$
=
 OpenBabel11052410543D

 30 31  0  0  1  0  0  0  0  0999 V2000
  161.2410  208.2510  152.1160 C   0  0  0  0  0  2  0  0  0  0  0  0
  161.7750  210.8540  149.8930 C   0  0  0  0  0  0  0  0  0  0  0  0
  160.6080  211.2110  152.1160 C   0  0  0  0  0  0  0  0  0  0  0  0
  162.0300  209.2210  151.6870 C   0  0  0  0  0  2  0  0  0  0  0  0
  160.5970  210.9860  153.3570 O   0  0  0  0  0  0  0  0  0  0  0  0
  161.8170  207.5490  149.4960 C   0  0  0  0  0  0  0  0  0  0  0  0
  161.7530  206.8750  151.8810 C   0  0  0  0  0  2  0  0  0  0  0  0
  161.7200  206.5720  150.3840 C   0  0  0  0  0  0  0  0  0  0  0  0
  161.4870  210.4550  151.2550 N   0  0  0  0  0  0  0  0  0  0  0  0
  161.9520  210.0090  148.8430 C   0  0  0  0  0  3  0  0  0  0  0  0
  161.9180  208.5270  148.6230 C   0  0  0  0  0  3  0  0  0  0  0  0
  161.2100  203.3500  148.2800 C   0  0  0  0  0  1  0  0  0  0  0  0
  161.1920  204.7980  148.6150 C   0  0  0  0  0  0  0  0  0  0  0  0
  161.6590  205.2240  149.9000 N   0  0  0  0  0  2  0  0  0  0  0  0
  160.7720  205.6240  147.7630 O   0  0  0  0  0  0  0  0  0  0  0  0
  161.9670  212.3060  149.5920 C   0  0  0  0  0  2  0  0  0  0  0  0
  161.8260  212.5600  148.1290 C   0  0  0  0  0  0  0  0  0  0  0  0
  162.8580  212.6370  147.2760 N   0  0  0  0  0  0  0  0  0  0  0  0
  161.0310  212.9290  146.1530 C   0  0  0  0  0  3  0  0  0  0  0  0
  160.6310  212.7390  147.4650 C   0  0  0  0  0  3  0  0  0  0  0  0
  162.3430  212.8580  146.1050 O   0  0  0  0  0  0  0  0  0  0  0  0
  159.6390  212.2070  151.5510 C   0  0  0  0  0  2  0  0  0  0  0  0
  158.9640  214.4530  152.2190 N   0  0  0  0  0  1  0  0  0  0  0  0
  159.0050  213.0610  152.6380 C   0  0  1  0  0  3  0  0  0  0  0  0
  157.5920  212.5630  152.8970 C   0  0  0  0  0  2  0  0  0  0  0  0
  157.1230  212.9450  154.2920 C   0  0  0  0  0  2  0  0  0  0  0  0
  155.9400  212.1770  154.6470 N   0  0  0  0  0  2  0  0  0  0  0  0
  156.6900  211.8010  156.7790 C   0  0  0  0  0  1  0  0  0  0  0  0
  155.1980  210.3250  155.7720 C   0  0  0  0  0  1  0  0  0  0  0  0
  156.3570  211.1620  155.5170 N   0  0  0  0  0  0  0  0  0  0  0  0
  2  9  1  0  0  0  0
  3  5  2  0  0  0  0
  4  1  1  0  0  0  0
  6  8  2  0  0  0  0
  7  1  1  0  0  0  0
  8  7  1  0  0  0  0
  9  4  1  0  0  0  0
  9  3  1  0  0  0  0
 10  2  2  0  0  0  0
 11 10  1  0  0  0  0
 11  6  2  0  0  0  0
 12 13  1  0  0  0  0
 13 14  1  0  0  0  0
 14  8  1  0  0  0  0
 15 13  2  0  0  0  0
 16  2  1  0  0  0  0
 17 16  1  0  0  0  0
 18 17  2  0  0  0  0
 19 20  2  0  0  0  0
 20 17  1  0  0  0  0
 21 19  1  0  0  0  0
 21 18  1  0  0  0  0
 22  3  1  0  0  0  0
 22 24  1  0  0  0  0
 24 23  1  6  0  0  0
 24 25  1  0  0  0  0
 25 26  1  0  0  0  0
 26 27  1  0  0  0  0
 27 30  1  0  0  0  0
 30 29  1  0  0  0  0
 30 28  1  0  0  0  0
M  END
>  <MODEL>
8

>  <REMARK>
 VINA RESULT:      -5.3      3.207      8.873
  Name = 
  9 active torsions:
  status: ('A' for Active; 'I' for Inactive)
    1  A    between atoms: C_2  and  C_19
    2  A    between atoms: C_3  and  C_22
    3  A    between atoms: C_5  and  N_11
    4  A    between atoms: C_5  and  C_15
    5  A    between atoms: C_8  and  C_19
    6  A    between atoms: N_11  and  N_26
    7  A    between atoms: N_14  and  C_18
    8  A    between atoms: C_15  and  C_17
    9  A    between atoms: C_17  and  C_22
                            x       y       z     vdW  Elec       q    Type
                         _______ _______ _______ _____ _____    ______ ____

>  <TORSDO>
F 9

$$$$
=
 OpenBabel11052410543D

 30 31  0  0  1  0  0  0  0  0999 V2000
  161.3900  205.4840  147.3670 C   0  0  0  0  0  2  0  0  0  0  0  0
  160.7560  206.5370  150.6060 C   0  0  0  0  0  0  0  0  0  0  0  0
  161.7160  208.1000  148.8550 C   0  0  0  0  0  0  0  0  0  0  0  0
  160.5400  206.0020  148.2360 C   0  0  0  0  0  2  0  0  0  0  0  0
  161.6600  208.5280  147.6700 O   0  0  0  0  0  0  0  0  0  0  0  0
  161.0810  203.5010  149.2810 C   0  0  0  0  0  0  0  0  0  0  0  0
  161.0400  204.1220  146.8810 C   0  0  0  0  0  2  0  0  0  0  0  0
  161.2120  203.1200  148.0200 C   0  0  0  0  0  0  0  0  0  0  0  0
  160.9840  206.9120  149.2260 N   0  0  0  0  0  0  0  0  0  0  0  0
  160.7430  205.2660  151.0880 C   0  0  0  0  0  3  0  0  0  0  0  0
  160.9440  203.8890  150.5290 C   0  0  0  0  0  3  0  0  0  0  0  0
  161.3730  199.5540  146.4900 C   0  0  0  0  0  1  0  0  0  0  0  0
  161.0330  200.9980  146.5970 C   0  0  0  0  0  0  0  0  0  0  0  0
  161.4460  201.7300  147.7570 N   0  0  0  0  0  2  0  0  0  0  0  0
  160.3920  201.5510  145.6660 O   0  0  0  0  0  0  0  0  0  0  0  0
  160.4390  207.6070  151.6010 C   0  0  0  0  0  2  0  0  0  0  0  0
  160.9320  207.2240  152.9560 C   0  0  0  0  0  0  0  0  0  0  0  0
  161.9550  206.3850  153.1750 N   0  0  0  0  0  0  0  0  0  0  0  0
  161.2070  207.0500  155.0930 C   0  0  0  0  0  3  0  0  0  0  0  0
  160.4140  207.6820  154.1490 C   0  0  0  0  0  3  0  0  0  0  0  0
  162.0890  206.3070  154.4630 O   0  0  0  0  0  0  0  0  0  0  0  0
  162.6170  208.7920  149.8340 C   0  0  0  0  0  2  0  0  0  0  0  0
  162.5440  210.4110  151.6560 N   0  0  0  0  0  1  0  0  0  0  0  0
  162.0120  210.0920  150.3410 C   0  0  1  0  0  3  0  0  0  0  0  0
  162.3520  211.2090  149.3670 C   0  0  0  0  0  2  0  0  0  0  0  0
  161.2940  212.3000  149.3930 C   0  0  0  0  0  2  0  0  0  0  0  0
  161.5130  213.2310  148.2970 N   0  0  0  0  0  2  0  0  0  0  0  0
  160.1800  212.4240  146.6170 C   0  0  0  0  0  1  0  0  0  0  0  0
  162.3110  213.2390  146.1500 C   0  0  0  0  0  1  0  0  0  0  0  0
  161.5430  212.4750  147.1180 N   0  0  0  0  0  0  0  0  0  0  0  0
  1  4  1  0  0  0  0
  2 10  2  0  0  0  0
  2 16  1  0  0  0  0
  3  9  1  0  0  0  0
  3 22  1  0  0  0  0
  4  9  1  0  0  0  0
  5  3  2  0  0  0  0
  6 11  2  0  0  0  0
  7  1  1  0  0  0  0
  7  8  1  0  0  0  0
  8  6  2  0  0  0  0
  9  2  1  0  0  0  0
 11 10  1  0  0  0  0
 12 13  1  0  0  0  0
 13 14  1  0  0  0  0
 14  8  1  0  0  0  0
 15 13  2  0  0  0  0
 16 17  1  0  0  0  0
 17 18  2  0  0  0  0
 17 20  1  0  0  0  0
 18 21  1  0  0  0  0
 20 19  2  0  0  0  0
 21 19  1  0  0  0  0
 22 24  1  0  0  0  0
 24 23  1  1  0  0  0
 25 26  1  0  0  0  0
 25 24  1  0  0  0  0
 27 26  1  0  0  0  0
 28 30  1  0  0  0  0
 29 30  1  0  0  0  0
 30 27  1  0  0  0  0
M  END
>  <MODEL>
9

>  <REMARK>
 VINA RESULT:      -5.2      3.061      7.780
  Name = 
  9 active torsions:
  status: ('A' for Active; 'I' for Inactive)
    1  A    between atoms: C_2  and  C_19
    2  A    between atoms: C_3  and  C_22
    3  A    between atoms: C_5  and  N_11
    4  A    between atoms: C_5  and  C_15
    5  A    between atoms: C_8  and  C_19
    6  A    between atoms: N_11  and  N_26
    7  A    between atoms: N_14  and  C_18
    8  A    between atoms: C_15  and  C_17
    9  A    between atoms: C_17  and  C_22
                            x       y       z     vdW  Elec       q    Type
                         _______ _______ _______ _____ _____    ______ ____

>  <TORSDO>
F 9

$$$$
