=
 OpenBabel11042422103D

 34 37  0  0  1  0  0  0  0  0999 V2000
  161.1050  207.3650  152.8570 C   0  0  0  0  0  0  0  0  0  0  0  0
  161.2700  206.7000  148.2190 C   0  0  0  0  0  0  0  0  0  0  0  0
  162.9540  209.7860  151.6710 O   0  0  0  0  0  1  0  0  0  0  0  0
  160.8340  205.7290  152.5060 S   0  0  0  0  0  0  0  0  0  0  0  0
  161.5770  209.5650  151.7020 C   0  0  2  0  0  3  0  0  0  0  0  0
  160.9670  210.2320  152.9530 C   0  0  2  0  0  3  0  0  0  0  0  0
  161.0100  205.3610  148.5710 C   0  0  0  0  0  3  0  0  0  0  0  0
  161.4080  207.0430  146.9160 F   0  0  0  0  0  0  0  0  0  0  0  0
  161.3770  209.4890  154.2530 C   0  0  2  0  0  3  0  0  0  0  0  0
  161.2350  207.2810  150.5470 C   0  0  0  0  0  0  0  0  0  0  0  0
  161.3850  207.6770  149.2190 C   0  0  0  0  0  3  0  0  0  0  0  0
  160.9810  205.9520  150.8440 C   0  0  0  0  0  0  0  0  0  0  0  0
  161.3000  208.0880  151.6850 C   0  0  0  0  0  0  0  0  0  0  0  0
  160.8690  205.0040  149.8810 N   0  0  0  0  0  0  0  0  0  0  0  0
  161.0960  208.0060  154.1760 C   0  0  0  0  0  0  0  0  0  0  0  0
  160.9300  207.3230  155.2200 O   0  0  0  0  0  0  0  0  0  0  0  0
  160.7380  210.0820  155.4200 N   0  0  0  0  0  2  0  0  0  0  0  0
  161.7890  211.4350  157.0950 C   0  0  0  0  0  2  0  0  0  0  0  0
  161.7200  210.0880  156.4910 C   0  0  2  0  0  3  0  0  0  0  0  0
  162.7470  210.9940  156.1670 O   0  0  0  0  0  0  0  0  0  0  0  0
  159.4440  210.3410  152.8260 C   0  0  0  0  0  2  0  0  0  0  0  0
  158.9500  211.7350  153.1860 C   0  0  0  0  0  2  0  0  0  0  0  0
  159.2730  212.7350  152.0800 C   0  0  1  0  0  3  0  0  0  0  0  0
  160.3470  212.3050  151.3130 F   0  0  0  0  0  0  0  0  0  0  0  0
  158.1030  213.0010  151.2460 N   0  0  0  0  0  2  0  0  0  0  0  0
  158.2180  214.3220  150.6360 C   0  0  0  0  0  2  0  0  0  0  0  0
  157.9840  214.2230  149.1380 C   0  0  0  0  0  2  0  0  0  0  0  0
  158.9610  213.3320  148.5280 N   0  0  0  0  0  2  0  0  0  0  0  0
  160.1240  214.1280  148.1660 C   0  0  0  0  0  2  0  0  0  0  0  0
  161.2430  213.6850  148.8770 O   0  0  0  0  0  0  0  0  0  0  0  0
  161.9860  212.5270  147.8840 P   0  0  0  0  0  0  0  0  0  0  0  0
  161.4540  212.7450  146.2930 O   0  0  0  0  0  0  0  0  0  0  0  0
  161.6110  211.1350  148.3430 O   0  0  0  0  0  1  0  0  0  0  0  0
  163.6670  212.7070  147.9360 O   0  0  0  0  0  1  0  0  0  0  0  0
  1 15  1  0  0  0  0
  2  7  2  0  0  0  0
  2 11  1  0  0  0  0
  4  1  1  0  0  0  0
  5  3  1  1  0  0  0
  5  6  1  0  0  0  0
  6 21  1  6  0  0  0
  6  9  1  0  0  0  0
  7 14  1  0  0  0  0
  8  2  1  0  0  0  0
  9 17  1  1  0  0  0
 10 12  1  0  0  0  0
 10 13  1  0  0  0  0
 11 10  2  0  0  0  0
 12  4  1  0  0  0  0
 13  5  1  0  0  0  0
 13  1  2  0  0  0  0
 14 12  2  0  0  0  0
 15  9  1  0  0  0  0
 15 16  2  0  0  0  0
 19 17  1  6  0  0  0
 19 18  1  0  0  0  0
 20 19  1  0  0  0  0
 20 18  1  0  0  0  0
 21 22  1  0  0  0  0
 23 24  1  6  0  0  0
 23 22  1  0  0  0  0
 25 23  1  0  0  0  0
 26 25  1  0  0  0  0
 27 26  1  0  0  0  0
 28 27  1  0  0  0  0
 29 28  1  0  0  0  0
 29 30  1  0  0  0  0
 31 34  1  0  0  0  0
 31 33  1  0  0  0  0
 31 30  1  0  0  0  0
 32 31  2  0  0  0  0
M  END
>  <MODEL>
1

>  <REMARK>
 VINA RESULT:      -5.9      0.000      0.000
  Name = 
  12 active torsions:
  status: ('A' for Active; 'I' for Inactive)
    1  A    between atoms: C_2  and  O_4
    2  A    between atoms: C_2  and  N_12
    3  A    between atoms: O_4  and  P_13
    4  A    between atoms: N_5  and  C_18
    5  A    between atoms: N_5  and  C_29
    6  A    between atoms: C_6  and  C_8
    7  A    between atoms: C_6  and  N_12
    8  A    between atoms: C_8  and  N_16
    9  A    between atoms: C_11  and  C_23
   10  A    between atoms: C_15  and  C_23
   11  A    between atoms: C_15  and  C_32
   12  A    between atoms: N_16  and  C_32
                            x       y       z     vdW  Elec       q    Type
                         _______ _______ _______ _____ _____    ______ ____

>  <TORSDO>
F 12

$$$$
=
 OpenBabel11042422103D

 34 37  0  0  1  0  0  0  0  0999 V2000
  159.9500  211.4710  152.4140 C   0  0  0  0  0  0  0  0  0  0  0  0
  156.9760  211.6290  156.0360 C   0  0  0  0  0  0  0  0  0  0  0  0
  161.6980  210.6300  155.0460 O   0  0  0  0  0  1  0  0  0  0  0  0
  158.6790  212.5350  152.0620 S   0  0  0  0  0  0  0  0  0  0  0  0
  160.7750  209.9450  154.2550 C   0  0  2  0  0  3  0  0  0  0  0  0
  161.5110  209.1730  153.1400 C   0  0  2  0  0  3  0  0  0  0  0  0
  156.2860  212.5390  155.2120 C   0  0  0  0  0  3  0  0  0  0  0  0
  156.4880  211.3190  157.2610 F   0  0  0  0  0  0  0  0  0  0  0  0
  162.1010  210.1340  152.0740 C   0  0  2  0  0  3  0  0  0  0  0  0
  158.6340  211.3880  154.3180 C   0  0  0  0  0  0  0  0  0  0  0  0
  158.1680  211.0420  155.5850 C   0  0  0  0  0  3  0  0  0  0  0  0
  157.9210  212.2890  153.5450 C   0  0  0  0  0  0  0  0  0  0  0  0
  159.7830  210.9160  153.6780 C   0  0  0  0  0  0  0  0  0  0  0  0
  156.7680  212.8580  153.9760 N   0  0  0  0  0  0  0  0  0  0  0  0
  161.0690  211.1000  151.5420 C   0  0  0  0  0  0  0  0  0  0  0  0
  161.2010  211.6300  150.4080 O   0  0  0  0  0  0  0  0  0  0  0  0
  162.7300  209.3910  150.9900 N   0  0  0  0  0  2  0  0  0  0  0  0
  162.1580  208.0120  149.1160 C   0  0  0  0  0  2  0  0  0  0  0  0
  161.6920  209.0850  150.0200 C   0  0  2  0  0  3  0  0  0  0  0  0
  162.1760  209.3630  148.7280 O   0  0  0  0  0  0  0  0  0  0  0  0
  160.5920  208.1250  152.5040 C   0  0  0  0  0  2  0  0  0  0  0  0
  160.9900  206.7110  152.9020 C   0  0  0  0  0  2  0  0  0  0  0  0
  161.7590  206.0210  151.7790 C   0  0  1  0  0  3  0  0  0  0  0  0
  163.1290  206.1260  151.9700 F   0  0  0  0  0  0  0  0  0  0  0  0
  161.3530  204.6240  151.6380 N   0  0  0  0  0  2  0  0  0  0  0  0
  160.9460  204.3620  150.2620 C   0  0  0  0  0  2  0  0  0  0  0  0
  160.5140  202.9130  150.1160 C   0  0  0  0  0  2  0  0  0  0  0  0
  160.8320  202.4190  148.7830 N   0  0  0  0  0  2  0  0  0  0  0  0
  161.5160  203.4840  148.0650 C   0  0  0  0  0  2  0  0  0  0  0  0
  161.3280  203.3260  146.6880 O   0  0  0  0  0  0  0  0  0  0  0  0
  161.6010  204.8570  146.0110 P   0  0  0  0  0  0  0  0  0  0  0  0
  161.1750  204.8180  144.3750 O   0  0  0  0  0  0  0  0  0  0  0  0
  163.0640  205.2220  146.1310 O   0  0  0  0  0  1  0  0  0  0  0  0
  160.6590  206.0190  146.8030 O   0  0  0  0  0  1  0  0  0  0  0  0
  1 13  2  0  0  0  0
  2  8  1  0  0  0  0
  4  1  1  0  0  0  0
  4 12  1  0  0  0  0
  5  3  1  6  0  0  0
  6 21  1  6  0  0  0
  6  5  1  0  0  0  0
  7  2  2  0  0  0  0
  9 17  1  6  0  0  0
  9  6  1  0  0  0  0
 10 11  2  0  0  0  0
 11  2  1  0  0  0  0
 12 14  2  0  0  0  0
 12 10  1  0  0  0  0
 13  5  1  0  0  0  0
 13 10  1  0  0  0  0
 14  7  1  0  0  0  0
 15  9  1  0  0  0  0
 15  1  1  0  0  0  0
 16 15  2  0  0  0  0
 18 19  1  0  0  0  0
 19 17  1  1  0  0  0
 20 18  1  0  0  0  0
 20 19  1  0  0  0  0
 21 22  1  0  0  0  0
 23 24  1  1  0  0  0
 23 22  1  0  0  0  0
 25 23  1  0  0  0  0
 26 25  1  0  0  0  0
 27 26  1  0  0  0  0
 28 27  1  0  0  0  0
 29 28  1  0  0  0  0
 30 29  1  0  0  0  0
 31 33  1  0  0  0  0
 31 30  1  0  0  0  0
 31 34  1  0  0  0  0
 32 31  2  0  0  0  0
M  END
>  <MODEL>
2

>  <REMARK>
 VINA RESULT:      -5.7      3.852      7.721
  Name = 
  12 active torsions:
  status: ('A' for Active; 'I' for Inactive)
    1  A    between atoms: C_2  and  O_4
    2  A    between atoms: C_2  and  N_12
    3  A    between atoms: O_4  and  P_13
    4  A    between atoms: N_5  and  C_18
    5  A    between atoms: N_5  and  C_29
    6  A    between atoms: C_6  and  C_8
    7  A    between atoms: C_6  and  N_12
    8  A    between atoms: C_8  and  N_16
    9  A    between atoms: C_11  and  C_23
   10  A    between atoms: C_15  and  C_23
   11  A    between atoms: C_15  and  C_32
   12  A    between atoms: N_16  and  C_32
                            x       y       z     vdW  Elec       q    Type
                         _______ _______ _______ _____ _____    ______ ____

>  <TORSDO>
F 12

$$$$
=
 OpenBabel11042422103D

 34 37  0  0  1  0  0  0  0  0999 V2000
  161.4990  208.7620  151.3050 C   0  0  0  0  0  0  0  0  0  0  0  0
  160.6130  207.5760  155.7540 C   0  0  0  0  0  0  0  0  0  0  0  0
  163.4160  206.1920  151.9440 O   0  0  0  0  0  1  0  0  0  0  0  0
  160.9160  210.1110  152.1490 S   0  0  0  0  0  0  0  0  0  0  0  0
  162.0570  206.3200  151.6580 C   0  0  2  0  0  3  0  0  0  0  0  0
  161.8240  206.1570  150.1410 C   0  0  2  0  0  3  0  0  0  0  0  0
  160.2290  208.9260  155.8600 C   0  0  0  0  0  3  0  0  0  0  0  0
  160.5340  206.7610  156.8330 F   0  0  0  0  0  0  0  0  0  0  0  0
  162.3710  207.3720  149.3460 C   0  0  2  0  0  3  0  0  0  0  0  0
  161.1430  207.9460  153.4430 C   0  0  0  0  0  0  0  0  0  0  0  0
  161.0770  207.0750  154.5280 C   0  0  0  0  0  3  0  0  0  0  0  0
  160.7540  209.2680  153.5970 C   0  0  0  0  0  0  0  0  0  0  0  0
  161.5590  207.6530  152.1420 C   0  0  0  0  0  0  0  0  0  0  0  0
  160.3040  209.7560  154.7790 N   0  0  0  0  0  0  0  0  0  0  0  0
  161.8570  208.6860  149.8850 C   0  0  0  0  0  0  0  0  0  0  0  0
  161.8040  209.7110  149.1540 O   0  0  0  0  0  0  0  0  0  0  0  0
  162.0820  207.2410  147.9240 N   0  0  0  0  0  2  0  0  0  0  0  0
  162.4740  205.7260  146.1090 C   0  0  0  0  0  2  0  0  0  0  0  0
  162.2830  205.8460  147.5700 C   0  0  2  0  0  3  0  0  0  0  0  0
  161.2420  205.4340  146.7180 O   0  0  0  0  0  0  0  0  0  0  0  0
  160.3420  205.9100  149.8390 C   0  0  0  0  0  2  0  0  0  0  0  0
  159.9670  204.4470  150.0230 C   0  0  0  0  0  2  0  0  0  0  0  0
  160.8160  203.7950  151.1090 C   0  0  1  0  0  3  0  0  0  0  0  0
  160.3680  204.1450  152.3750 F   0  0  0  0  0  0  0  0  0  0  0  0
  160.8590  202.3420  150.9490 N   0  0  0  0  0  2  0  0  0  0  0  0
  160.3850  201.9760  149.6180 C   0  0  0  0  0  2  0  0  0  0  0  0
  161.0930  200.7180  149.1440 C   0  0  0  0  0  2  0  0  0  0  0  0
  161.4730  200.8450  147.7440 N   0  0  0  0  0  2  0  0  0  0  0  0
  161.0830  202.1740  147.2960 C   0  0  0  0  0  2  0  0  0  0  0  0
  161.3110  202.2970  145.9220 O   0  0  0  0  0  0  0  0  0  0  0  0
  159.8700  201.8050  145.1750 P   0  0  0  0  0  0  0  0  0  0  0  0
  159.3910  202.9920  144.0690 O   0  0  0  0  0  0  0  0  0  0  0  0
  158.7830  201.6310  146.2120 O   0  0  0  0  0  1  0  0  0  0  0  0
  160.1090  200.3460  144.3530 O   0  0  0  0  0  1  0  0  0  0  0  0
  1 13  2  0  0  0  0
  1  4  1  0  0  0  0
  2  7  1  0  0  0  0
  2  8  1  0  0  0  0
  4 12  1  0  0  0  0
  5  3  1  6  0  0  0
  5 13  1  0  0  0  0
  6 21  1  1  0  0  0
  6  5  1  0  0  0  0
  9 17  1  6  0  0  0
  9 15  1  0  0  0  0
  9  6  1  0  0  0  0
 10 12  2  0  0  0  0
 10 11  1  0  0  0  0
 11  2  2  0  0  0  0
 12 14  1  0  0  0  0
 13 10  1  0  0  0  0
 14  7  2  0  0  0  0
 15  1  1  0  0  0  0
 16 15  2  0  0  0  0
 18 20  1  0  0  0  0
 18 19  1  0  0  0  0
 19 17  1  6  0  0  0
 20 19  1  0  0  0  0
 21 22  1  0  0  0  0
 22 23  1  0  0  0  0
 23 24  1  1  0  0  0
 25 23  1  0  0  0  0
 26 25  1  0  0  0  0
 27 26  1  0  0  0  0
 28 27  1  0  0  0  0
 29 28  1  0  0  0  0
 30 29  1  0  0  0  0
 31 30  1  0  0  0  0
 31 33  1  0  0  0  0
 32 31  2  0  0  0  0
 34 31  1  0  0  0  0
M  END
>  <MODEL>
3

>  <REMARK>
 VINA RESULT:      -5.6      4.948      8.756
  Name = 
  12 active torsions:
  status: ('A' for Active; 'I' for Inactive)
    1  A    between atoms: C_2  and  O_4
    2  A    between atoms: C_2  and  N_12
    3  A    between atoms: O_4  and  P_13
    4  A    between atoms: N_5  and  C_18
    5  A    between atoms: N_5  and  C_29
    6  A    between atoms: C_6  and  C_8
    7  A    between atoms: C_6  and  N_12
    8  A    between atoms: C_8  and  N_16
    9  A    between atoms: C_11  and  C_23
   10  A    between atoms: C_15  and  C_23
   11  A    between atoms: C_15  and  C_32
   12  A    between atoms: N_16  and  C_32
                            x       y       z     vdW  Elec       q    Type
                         _______ _______ _______ _____ _____    ______ ____

>  <TORSDO>
F 12

$$$$
=
 OpenBabel11042422103D

 34 37  0  0  1  0  0  0  0  0999 V2000
  161.6790  206.5820  148.1540 C   0  0  0  0  0  0  0  0  0  0  0  0
  161.0400  202.0100  147.3300 C   0  0  0  0  0  0  0  0  0  0  0  0
  159.2590  205.6430  150.1420 O   0  0  0  0  0  1  0  0  0  0  0  0
  162.2110  206.2040  146.5900 S   0  0  0  0  0  0  0  0  0  0  0  0
  160.6450  205.4900  150.1880 C   0  0  2  0  0  3  0  0  0  0  0  0
  161.2740  206.6460  150.9960 C   0  0  2  0  0  3  0  0  0  0  0  0
  161.5970  202.3300  146.0770 C   0  0  0  0  0  3  0  0  0  0  0  0
  160.6700  200.7360  147.6020 F   0  0  0  0  0  0  0  0  0  0  0  0
  161.1870  207.9920  150.2280 C   0  0  2  0  0  3  0  0  0  0  0  0
  161.2660  204.3100  147.9780 C   0  0  0  0  0  0  0  0  0  0  0  0
  160.8710  203.0120  148.2980 C   0  0  0  0  0  3  0  0  0  0  0  0
  161.8080  204.5770  146.7300 C   0  0  0  0  0  0  0  0  0  0  0  0
  161.1970  205.4430  148.7910 C   0  0  0  0  0  0  0  0  0  0  0  0
  161.9740  203.6110  145.7930 N   0  0  0  0  0  0  0  0  0  0  0  0
  161.7360  207.8840  148.8240 C   0  0  0  0  0  0  0  0  0  0  0  0
  162.1650  208.9000  148.2170 O   0  0  0  0  0  0  0  0  0  0  0  0
  161.8470  209.0600  150.9670 N   0  0  0  0  0  2  0  0  0  0  0  0
  161.0200  210.8540  152.3220 C   0  0  0  0  0  2  0  0  0  0  0  0
  160.9930  209.3950  152.0940 C   0  0  2  0  0  3  0  0  0  0  0  0
  161.7780  209.9710  153.1090 O   0  0  0  0  0  0  0  0  0  0  0  0
  162.7170  206.3160  151.3890 C   0  0  0  0  0  2  0  0  0  0  0  0
  162.8250  205.9260  152.8560 C   0  0  0  0  0  2  0  0  0  0  0  0
  161.4720  206.0310  153.5530 C   0  0  1  0  0  3  0  0  0  0  0  0
  160.9740  204.7760  153.8750 F   0  0  0  0  0  0  0  0  0  0  0  0
  161.5480  206.8860  154.7360 N   0  0  0  0  0  2  0  0  0  0  0  0
  160.2040  207.2450  155.1770 C   0  0  0  0  0  2  0  0  0  0  0  0
  160.2040  207.5140  156.6720 C   0  0  0  0  0  2  0  0  0  0  0  0
  160.3370  208.9400  156.9320 N   0  0  0  0  0  2  0  0  0  0  0  0
  159.5710  209.6510  155.9190 C   0  0  0  0  0  2  0  0  0  0  0  0
  160.0540  210.9570  155.7890 O   0  0  0  0  0  0  0  0  0  0  0  0
  158.6990  211.9100  155.4250 P   0  0  0  0  0  0  0  0  0  0  0  0
  159.1900  213.5200  155.2550 O   0  0  0  0  0  1  0  0  0  0  0  0
  157.6870  211.8190  156.5450 O   0  0  0  0  0  1  0  0  0  0  0  0
  157.9930  211.3900  153.9780 O   0  0  0  0  0  0  0  0  0  0  0  0
  1 13  2  0  0  0  0
  1 15  1  0  0  0  0
  2  8  1  0  0  0  0
  2 11  1  0  0  0  0
  4 12  1  0  0  0  0
  4  1  1  0  0  0  0
  5  3  1  6  0  0  0
  5  6  1  0  0  0  0
  6 21  1  6  0  0  0
  7  2  2  0  0  0  0
  9 17  1  1  0  0  0
  9  6  1  0  0  0  0
 10 11  2  0  0  0  0
 10 13  1  0  0  0  0
 12 10  1  0  0  0  0
 13  5  1  0  0  0  0
 14  7  1  0  0  0  0
 14 12  2  0  0  0  0
 15  9  1  0  0  0  0
 16 15  2  0  0  0  0
 18 20  1  0  0  0  0
 19 17  1  6  0  0  0
 19 18  1  0  0  0  0
 19 20  1  0  0  0  0
 21 22  1  0  0  0  0
 22 23  1  0  0  0  0
 23 24  1  1  0  0  0
 23 25  1  0  0  0  0
 25 26  1  0  0  0  0
 26 27  1  0  0  0  0
 27 28  1  0  0  0  0
 29 28  1  0  0  0  0
 30 29  1  0  0  0  0
 31 30  1  0  0  0  0
 31 33  1  0  0  0  0
 32 31  1  0  0  0  0
 34 31  2  0  0  0  0
M  END
>  <MODEL>
4

>  <REMARK>
 VINA RESULT:      -5.5      3.871      6.538
  Name = 
  12 active torsions:
  status: ('A' for Active; 'I' for Inactive)
    1  A    between atoms: C_2  and  O_4
    2  A    between atoms: C_2  and  N_12
    3  A    between atoms: O_4  and  P_13
    4  A    between atoms: N_5  and  C_18
    5  A    between atoms: N_5  and  C_29
    6  A    between atoms: C_6  and  C_8
    7  A    between atoms: C_6  and  N_12
    8  A    between atoms: C_8  and  N_16
    9  A    between atoms: C_11  and  C_23
   10  A    between atoms: C_15  and  C_23
   11  A    between atoms: C_15  and  C_32
   12  A    between atoms: N_16  and  C_32
                            x       y       z     vdW  Elec       q    Type
                         _______ _______ _______ _____ _____    ______ ____

>  <TORSDO>
F 12

$$$$
=
 OpenBabel11042422103D

 34 37  0  0  1  0  0  0  0  0999 V2000
  161.7510  205.4720  147.9620 C   0  0  0  0  0  0  0  0  0  0  0  0
  160.3490  201.3420  149.6820 C   0  0  0  0  0  0  0  0  0  0  0  0
  159.2390  206.1350  149.9470 O   0  0  0  0  0  1  0  0  0  0  0  0
  162.1900  204.2320  146.8950 S   0  0  0  0  0  0  0  0  0  0  0  0
  160.5800  205.8300  150.1760 C   0  0  2  0  0  3  0  0  0  0  0  0
  161.4040  207.1310  150.2810 C   0  0  2  0  0  3  0  0  0  0  0  0
  160.9330  200.8430  148.5020 C   0  0  0  0  0  3  0  0  0  0  0  0
  159.7760  200.4910  150.5670 F   0  0  0  0  0  0  0  0  0  0  0  0
  161.5310  207.8380  148.9050 C   0  0  2  0  0  3  0  0  0  0  0  0
  160.9640  203.5600  149.0050 C   0  0  0  0  0  0  0  0  0  0  0  0
  160.3640  202.7200  149.9420 C   0  0  0  0  0  3  0  0  0  0  0  0
  161.5240  203.0230  147.8580 C   0  0  0  0  0  0  0  0  0  0  0  0
  161.0960  204.9490  149.0720 C   0  0  0  0  0  0  0  0  0  0  0  0
  161.5130  201.6910  147.6040 N   0  0  0  0  0  0  0  0  0  0  0  0
  162.0340  206.9050  147.8280 C   0  0  0  0  0  0  0  0  0  0  0  0
  162.6170  207.3500  146.8050 O   0  0  0  0  0  0  0  0  0  0  0  0
  162.3700  209.0250  149.0010 N   0  0  0  0  0  2  0  0  0  0  0  0
  162.3390  211.3330  148.3600 C   0  0  0  0  0  2  0  0  0  0  0  0
  161.5150  210.1760  148.7660 C   0  0  2  0  0  3  0  0  0  0  0  0
  161.8580  211.1960  149.6730 O   0  0  0  0  0  0  0  0  0  0  0  0
  162.7780  206.8590  150.9020 C   0  0  0  0  0  2  0  0  0  0  0  0
  162.6920  205.8490  152.0360 C   0  0  0  0  0  2  0  0  0  0  0  0
  161.4400  206.0730  152.8780 C   0  0  1  0  0  3  0  0  0  0  0  0
  160.9620  204.8770  153.3960 F   0  0  0  0  0  0  0  0  0  0  0  0
  161.6810  207.0480  153.9390 N   0  0  0  0  0  2  0  0  0  0  0  0
  160.5140  207.1290  154.8130 C   0  0  0  0  0  2  0  0  0  0  0  0
  160.7650  208.1390  155.9200 C   0  0  0  0  0  2  0  0  0  0  0  0
  161.6430  209.2010  155.4500 N   0  0  0  0  0  2  0  0  0  0  0  0
  160.8750  210.4380  155.4310 C   0  0  0  0  0  2  0  0  0  0  0  0
  161.2780  211.2300  154.3520 O   0  0  0  0  0  0  0  0  0  0  0  0
  160.0450  211.0880  153.1960 P   0  0  0  0  0  0  0  0  0  0  0  0
  158.5520  211.0350  153.9880 O   0  0  0  0  0  1  0  0  0  0  0  0
  160.2270  209.8140  152.4010 O   0  0  0  0  0  1  0  0  0  0  0  0
  160.0720  212.4180  152.1500 O   0  0  0  0  0  0  0  0  0  0  0  0
  1 13  2  0  0  0  0
  2 11  1  0  0  0  0
  2  8  1  0  0  0  0
  4 12  1  0  0  0  0
  4  1  1  0  0  0  0
  5  3  1  6  0  0  0
  5  6  1  0  0  0  0
  6 21  1  6  0  0  0
  7  2  2  0  0  0  0
  9 17  1  1  0  0  0
  9  6  1  0  0  0  0
 10 13  1  0  0  0  0
 10 11  2  0  0  0  0
 12 10  1  0  0  0  0
 13  5  1  0  0  0  0
 14 12  2  0  0  0  0
 14  7  1  0  0  0  0
 15  1  1  0  0  0  0
 15  9  1  0  0  0  0
 16 15  2  0  0  0  0
 18 19  1  0  0  0  0
 18 20  1  0  0  0  0
 19 17  1  1  0  0  0
 19 20  1  0  0  0  0
 21 22  1  0  0  0  0
 22 23  1  0  0  0  0
 23 24  1  1  0  0  0
 23 25  1  0  0  0  0
 25 26  1  0  0  0  0
 26 27  1  0  0  0  0
 28 27  1  0  0  0  0
 29 28  1  0  0  0  0
 30 29  1  0  0  0  0
 31 32  1  0  0  0  0
 31 30  1  0  0  0  0
 33 31  1  0  0  0  0
 34 31  2  0  0  0  0
M  END
>  <MODEL>
5

>  <REMARK>
 VINA RESULT:      -5.5      3.697      6.512
  Name = 
  12 active torsions:
  status: ('A' for Active; 'I' for Inactive)
    1  A    between atoms: C_2  and  O_4
    2  A    between atoms: C_2  and  N_12
    3  A    between atoms: O_4  and  P_13
    4  A    between atoms: N_5  and  C_18
    5  A    between atoms: N_5  and  C_29
    6  A    between atoms: C_6  and  C_8
    7  A    between atoms: C_6  and  N_12
    8  A    between atoms: C_8  and  N_16
    9  A    between atoms: C_11  and  C_23
   10  A    between atoms: C_15  and  C_23
   11  A    between atoms: C_15  and  C_32
   12  A    between atoms: N_16  and  C_32
                            x       y       z     vdW  Elec       q    Type
                         _______ _______ _______ _____ _____    ______ ____

>  <TORSDO>
F 12

$$$$
=
 OpenBabel11042422103D

 34 37  0  0  1  0  0  0  0  0999 V2000
  158.9040  213.2430  148.1320 C   0  0  0  0  0  0  0  0  0  0  0  0
  158.7470  213.6820  152.7980 C   0  0  0  0  0  0  0  0  0  0  0  0
  161.8100  214.4520  149.0160 O   0  0  0  0  0  1  0  0  0  0  0  0
  157.2940  213.4000  148.6350 S   0  0  0  0  0  0  0  0  0  0  0  0
  161.2530  213.1750  149.0690 C   0  0  2  0  0  3  0  0  0  0  0  0
  161.6250  212.3870  147.7950 C   0  0  2  0  0  3  0  0  0  0  0  0
  157.3580  213.7580  152.5750 C   0  0  0  0  0  3  0  0  0  0  0  0
  159.2360  213.7600  154.0580 F   0  0  0  0  0  0  0  0  0  0  0  0
  160.8860  212.9390  146.5470 C   0  0  2  0  0  3  0  0  0  0  0  0
  159.0770  213.4460  150.4320 C   0  0  0  0  0  0  0  0  0  0  0  0
  159.6220  213.5230  151.7130 C   0  0  0  0  0  3  0  0  0  0  0  0
  157.7040  213.5270  150.2630 C   0  0  0  0  0  0  0  0  0  0  0  0
  159.7610  213.2780  149.2270 C   0  0  0  0  0  0  0  0  0  0  0  0
  156.8540  213.6790  151.3090 N   0  0  0  0  0  0  0  0  0  0  0  0
  159.3950  213.0410  146.7650 C   0  0  0  0  0  0  0  0  0  0  0  0
  158.5950  213.0280  145.7920 O   0  0  0  0  0  0  0  0  0  0  0  0
  161.1890  212.1440  145.3640 N   0  0  0  0  0  2  0  0  0  0  0  0
  161.0150  212.5230  143.0050 C   0  0  0  0  0  2  0  0  0  0  0  0
  161.4970  213.0720  144.2890 C   0  0  2  0  0  3  0  0  0  0  0  0
  162.3670  212.4450  143.3780 O   0  0  0  0  0  0  0  0  0  0  0  0
  161.3650  210.8890  147.9840 C   0  0  0  0  0  2  0  0  0  0  0  0
  161.9340  210.3810  149.3000 C   0  0  0  0  0  2  0  0  0  0  0  0
  161.9750  208.8560  149.3290 C   0  0  1  0  0  3  0  0  0  0  0  0
  162.6610  208.3510  148.2340 F   0  0  0  0  0  0  0  0  0  0  0  0
  162.5460  208.3640  150.5810 N   0  0  0  0  0  2  0  0  0  0  0  0
  162.0820  207.0040  150.8370 C   0  0  0  0  0  2  0  0  0  0  0  0
  160.7330  206.7830  150.1730 C   0  0  0  0  0  2  0  0  0  0  0  0
  160.6500  205.4360  149.6260 N   0  0  0  0  0  2  0  0  0  0  0  0
  160.9120  205.5180  148.1970 C   0  0  0  0  0  2  0  0  0  0  0  0
  161.4270  204.3020  147.7380 O   0  0  0  0  0  0  0  0  0  0  0  0
  161.9060  204.5850  146.1360 P   0  0  0  0  0  0  0  0  0  0  0  0
  161.4240  203.2750  145.1790 O   0  0  0  0  0  0  0  0  0  0  0  0
  163.4100  204.7220  146.0620 O   0  0  0  0  0  1  0  0  0  0  0  0
  161.1780  205.9960  145.5510 O   0  0  0  0  0  1  0  0  0  0  0  0
  1  4  1  0  0  0  0
  1 13  2  0  0  0  0
  2  8  1  0  0  0  0
  4 12  1  0  0  0  0
  5  3  1  6  0  0  0
  5 13  1  0  0  0  0
  6 21  1  1  0  0  0
  6  5  1  0  0  0  0
  7  2  1  0  0  0  0
  9 17  1  6  0  0  0
  9 15  1  0  0  0  0
  9  6  1  0  0  0  0
 10 11  1  0  0  0  0
 11  2  2  0  0  0  0
 12 10  2  0  0  0  0
 12 14  1  0  0  0  0
 13 10  1  0  0  0  0
 14  7  2  0  0  0  0
 15  1  1  0  0  0  0
 16 15  2  0  0  0  0
 18 20  1  0  0  0  0
 18 19  1  0  0  0  0
 19 17  1  1  0  0  0
 20 19  1  0  0  0  0
 21 22  1  0  0  0  0
 22 23  1  0  0  0  0
 23 24  1  6  0  0  0
 23 25  1  0  0  0  0
 25 26  1  0  0  0  0
 27 26  1  0  0  0  0
 28 27  1  0  0  0  0
 29 28  1  0  0  0  0
 30 29  1  0  0  0  0
 31 30  1  0  0  0  0
 32 31  2  0  0  0  0
 33 31  1  0  0  0  0
 34 31  1  0  0  0  0
M  END
>  <MODEL>
6

>  <REMARK>
 VINA RESULT:      -5.5      4.040      8.546
  Name = 
  12 active torsions:
  status: ('A' for Active; 'I' for Inactive)
    1  A    between atoms: C_2  and  O_4
    2  A    between atoms: C_2  and  N_12
    3  A    between atoms: O_4  and  P_13
    4  A    between atoms: N_5  and  C_18
    5  A    between atoms: N_5  and  C_29
    6  A    between atoms: C_6  and  C_8
    7  A    between atoms: C_6  and  N_12
    8  A    between atoms: C_8  and  N_16
    9  A    between atoms: C_11  and  C_23
   10  A    between atoms: C_15  and  C_23
   11  A    between atoms: C_15  and  C_32
   12  A    between atoms: N_16  and  C_32
                            x       y       z     vdW  Elec       q    Type
                         _______ _______ _______ _____ _____    ______ ____

>  <TORSDO>
F 12

$$$$
=
 OpenBabel11042422103D

 34 37  0  0  1  0  0  0  0  0999 V2000
  160.4250  211.1730  152.3610 C   0  0  0  0  0  0  0  0  0  0  0  0
  160.9620  208.5900  156.2380 C   0  0  0  0  0  0  0  0  0  0  0  0
  163.6420  210.6720  152.6640 O   0  0  0  0  0  1  0  0  0  0  0  0
  159.1090  211.4220  153.3990 S   0  0  0  0  0  0  0  0  0  0  0  0
  162.5890  209.8710  152.2190 C   0  0  2  0  0  3  0  0  0  0  0  0
  162.4440  210.0010  150.6880 C   0  0  2  0  0  3  0  0  0  0  0  0
  159.7330  209.1760  156.5960 C   0  0  0  0  0  3  0  0  0  0  0  0
  161.5650  207.7140  157.0760 F   0  0  0  0  0  0  0  0  0  0  0  0
  161.8960  211.3960  150.2840 C   0  0  2  0  0  3  0  0  0  0  0  0
  160.9070  209.8190  154.1770 C   0  0  0  0  0  0  0  0  0  0  0  0
  161.5610  208.9130  155.0110 C   0  0  0  0  0  3  0  0  0  0  0  0
  159.7000  210.3710  154.5740 C   0  0  0  0  0  0  0  0  0  0  0  0
  161.3190  210.2660  152.9200 C   0  0  0  0  0  0  0  0  0  0  0  0
  159.1170  210.0600  155.7580 N   0  0  0  0  0  0  0  0  0  0  0  0
  160.6320  211.7520  151.0300 C   0  0  0  0  0  0  0  0  0  0  0  0
  159.8110  212.5810  150.5560 O   0  0  0  0  0  0  0  0  0  0  0  0
  161.6940  211.4820  148.8430 N   0  0  0  0  0  2  0  0  0  0  0  0
  161.5080  213.3340  147.3350 C   0  0  0  0  0  2  0  0  0  0  0  0
  162.3290  212.7100  148.3930 C   0  0  2  0  0  3  0  0  0  0  0  0
  162.6560  212.5840  147.0300 O   0  0  0  0  0  0  0  0  0  0  0  0
  161.5750  208.8720  150.1240 C   0  0  0  0  0  2  0  0  0  0  0  0
  162.2730  207.5240  150.2210 C   0  0  0  0  0  2  0  0  0  0  0  0
  161.3850  206.4930  150.9100 C   0  0  1  0  0  3  0  0  0  0  0  0
  160.8880  206.9810  152.1100 F   0  0  0  0  0  0  0  0  0  0  0  0
  160.3020  206.0530  150.0320 N   0  0  0  0  0  2  0  0  0  0  0  0
  160.8370  205.7130  148.7180 C   0  0  0  0  0  2  0  0  0  0  0  0
  161.2030  204.2390  148.6730 C   0  0  0  0  0  2  0  0  0  0  0  0
  161.9690  203.9420  147.4700 N   0  0  0  0  0  2  0  0  0  0  0  0
  162.2700  205.2040  146.8110 C   0  0  0  0  0  2  0  0  0  0  0  0
  162.6080  204.9720  145.4740 O   0  0  0  0  0  0  0  0  0  0  0  0
  161.1910  205.2600  144.5880 P   0  0  0  0  0  0  0  0  0  0  0  0
  160.2910  206.4620  145.3670 O   0  0  0  0  0  1  0  0  0  0  0  0
  160.3630  203.9960  144.5120 O   0  0  0  0  0  1  0  0  0  0  0  0
  161.5770  205.7810  143.0250 O   0  0  0  0  0  0  0  0  0  0  0  0
  1 13  2  0  0  0  0
  1  4  1  0  0  0  0
  2  7  1  0  0  0  0
  2  8  1  0  0  0  0
  4 12  1  0  0  0  0
  5  3  1  1  0  0  0
  5 13  1  0  0  0  0
  6 21  1  1  0  0  0
  6  5  1  0  0  0  0
  9 17  1  6  0  0  0
  9  6  1  0  0  0  0
  9 15  1  0  0  0  0
 10 12  2  0  0  0  0
 10 11  1  0  0  0  0
 11  2  2  0  0  0  0
 12 14  1  0  0  0  0
 13 10  1  0  0  0  0
 14  7  2  0  0  0  0
 15  1  1  0  0  0  0
 16 15  2  0  0  0  0
 18 19  1  0  0  0  0
 19 17  1  6  0  0  0
 20 18  1  0  0  0  0
 20 19  1  0  0  0  0
 21 22  1  0  0  0  0
 22 23  1  0  0  0  0
 23 24  1  1  0  0  0
 25 23  1  0  0  0  0
 26 25  1  0  0  0  0
 27 26  1  0  0  0  0
 28 27  1  0  0  0  0
 29 28  1  0  0  0  0
 30 29  1  0  0  0  0
 31 32  1  0  0  0  0
 31 30  1  0  0  0  0
 33 31  1  0  0  0  0
 34 31  2  0  0  0  0
M  END
>  <MODEL>
7

>  <REMARK>
 VINA RESULT:      -5.4      3.709      7.217
  Name = 
  12 active torsions:
  status: ('A' for Active; 'I' for Inactive)
    1  A    between atoms: C_2  and  O_4
    2  A    between atoms: C_2  and  N_12
    3  A    between atoms: O_4  and  P_13
    4  A    between atoms: N_5  and  C_18
    5  A    between atoms: N_5  and  C_29
    6  A    between atoms: C_6  and  C_8
    7  A    between atoms: C_6  and  N_12
    8  A    between atoms: C_8  and  N_16
    9  A    between atoms: C_11  and  C_23
   10  A    between atoms: C_15  and  C_23
   11  A    between atoms: C_15  and  C_32
   12  A    between atoms: N_16  and  C_32
                            x       y       z     vdW  Elec       q    Type
                         _______ _______ _______ _____ _____    ______ ____

>  <TORSDO>
F 12

$$$$
=
 OpenBabel11042422103D

 34 37  0  0  1  0  0  0  0  0999 V2000
  160.4380  211.4390  151.9270 C   0  0  0  0  0  0  0  0  0  0  0  0
  160.4800  208.7540  155.7710 C   0  0  0  0  0  0  0  0  0  0  0  0
  163.5220  210.4070  152.2650 O   0  0  0  0  0  1  0  0  0  0  0  0
  159.1650  211.8900  152.9510 S   0  0  0  0  0  0  0  0  0  0  0  0
  162.3590  209.7980  151.7940 C   0  0  2  0  0  3  0  0  0  0  0  0
  162.2600  209.9700  150.2630 C   0  0  2  0  0  3  0  0  0  0  0  0
  159.3590  209.5320  156.1220 C   0  0  0  0  0  3  0  0  0  0  0  0
  160.9160  207.7800  156.6040 F   0  0  0  0  0  0  0  0  0  0  0  0
  161.9580  211.4410  149.8720 C   0  0  2  0  0  3  0  0  0  0  0  0
  160.6610  210.0010  153.7290 C   0  0  0  0  0  0  0  0  0  0  0  0
  161.1430  208.9890  154.5570 C   0  0  0  0  0  3  0  0  0  0  0  0
  159.5560  210.7410  154.1170 C   0  0  0  0  0  0  0  0  0  0  0  0
  161.1610  210.3890  152.4840 C   0  0  0  0  0  0  0  0  0  0  0  0
  158.9110  210.5160  155.2890 N   0  0  0  0  0  0  0  0  0  0  0  0
  160.7590  211.9920  150.6080 C   0  0  0  0  0  0  0  0  0  0  0  0
  160.0940  212.9520  150.1360 O   0  0  0  0  0  0  0  0  0  0  0  0
  161.7950  211.5780  148.4310 N   0  0  0  0  0  2  0  0  0  0  0  0
  162.5200  213.7720  147.7970 C   0  0  0  0  0  2  0  0  0  0  0  0
  162.9210  212.3570  147.9430 C   0  0  2  0  0  3  0  0  0  0  0  0
  162.5890  212.9080  146.6910 O   0  0  0  0  0  0  0  0  0  0  0  0
  161.2250  209.0080  149.6710 C   0  0  0  0  0  2  0  0  0  0  0  0
  161.3840  207.6000  150.2250 C   0  0  0  0  0  2  0  0  0  0  0  0
  161.3840  206.5650  149.1040 C   0  0  1  0  0  3  0  0  0  0  0  0
  160.1120  206.0530  148.8940 F   0  0  0  0  0  0  0  0  0  0  0  0
  161.9390  207.1190  147.8710 N   0  0  0  0  0  2  0  0  0  0  0  0
  161.2470  206.5540  146.7170 C   0  0  0  0  0  2  0  0  0  0  0  0
  162.2160  205.7360  145.8810 C   0  0  0  0  0  2  0  0  0  0  0  0
  162.7030  204.5930  146.6400 N   0  0  0  0  0  2  0  0  0  0  0  0
  161.5940  203.6660  146.8120 C   0  0  0  0  0  2  0  0  0  0  0  0
  161.5210  203.2550  148.1470 O   0  0  0  0  0  0  0  0  0  0  0  0
  160.8330  201.7050  148.1090 P   0  0  0  0  0  0  0  0  0  0  0  0
  160.3760  201.3440  146.5210 O   0  0  0  0  0  0  0  0  0  0  0  0
  159.6100  201.6610  148.9970 O   0  0  0  0  0  1  0  0  0  0  0  0
  161.9580  200.5560  148.6370 O   0  0  0  0  0  1  0  0  0  0  0  0
  1 13  2  0  0  0  0
  1  4  1  0  0  0  0
  2  7  1  0  0  0  0
  2  8  1  0  0  0  0
  4 12  1  0  0  0  0
  5  3  1  1  0  0  0
  5 13  1  0  0  0  0
  6 21  1  1  0  0  0
  6  5  1  0  0  0  0
  9 17  1  6  0  0  0
  9  6  1  0  0  0  0
  9 15  1  0  0  0  0
 10 12  2  0  0  0  0
 10 11  1  0  0  0  0
 11  2  2  0  0  0  0
 12 14  1  0  0  0  0
 13 10  1  0  0  0  0
 14  7  2  0  0  0  0
 15  1  1  0  0  0  0
 16 15  2  0  0  0  0
 18 19  1  0  0  0  0
 19 17  1  1  0  0  0
 20 18  1  0  0  0  0
 20 19  1  0  0  0  0
 21 22  1  0  0  0  0
 23 24  1  6  0  0  0
 23 22  1  0  0  0  0
 25 23  1  0  0  0  0
 26 25  1  0  0  0  0
 27 28  1  0  0  0  0
 27 26  1  0  0  0  0
 28 29  1  0  0  0  0
 29 30  1  0  0  0  0
 31 30  1  0  0  0  0
 31 34  1  0  0  0  0
 31 33  1  0  0  0  0
 32 31  2  0  0  0  0
M  END
>  <MODEL>
8

>  <REMARK>
 VINA RESULT:      -5.3      4.361      7.832
  Name = 
  12 active torsions:
  status: ('A' for Active; 'I' for Inactive)
    1  A    between atoms: C_2  and  O_4
    2  A    between atoms: C_2  and  N_12
    3  A    between atoms: O_4  and  P_13
    4  A    between atoms: N_5  and  C_18
    5  A    between atoms: N_5  and  C_29
    6  A    between atoms: C_6  and  C_8
    7  A    between atoms: C_6  and  N_12
    8  A    between atoms: C_8  and  N_16
    9  A    between atoms: C_11  and  C_23
   10  A    between atoms: C_15  and  C_23
   11  A    between atoms: C_15  and  C_32
   12  A    between atoms: N_16  and  C_32
                            x       y       z     vdW  Elec       q    Type
                         _______ _______ _______ _____ _____    ______ ____

>  <TORSDO>
F 12

$$$$
=
 OpenBabel11042422103D

 34 37  0  0  1  0  0  0  0  0999 V2000
  158.8940  213.5270  148.2260 C   0  0  0  0  0  0  0  0  0  0  0  0
  158.8960  213.4620  152.9150 C   0  0  0  0  0  0  0  0  0  0  0  0
  161.8960  214.4520  149.1330 O   0  0  0  0  0  1  0  0  0  0  0  0
  157.3120  213.7270  148.8000 S   0  0  0  0  0  0  0  0  0  0  0  0
  161.2580  213.2130  149.0680 C   0  0  2  0  0  3  0  0  0  0  0  0
  161.5420  212.5480  147.7050 C   0  0  2  0  0  3  0  0  0  0  0  0
  157.5100  213.6470  152.7500 C   0  0  0  0  0  3  0  0  0  0  0  0
  159.4240  213.3720  154.1580 F   0  0  0  0  0  0  0  0  0  0  0  0
  160.8060  213.2770  146.5500 C   0  0  2  0  0  3  0  0  0  0  0  0
  159.1440  213.4660  150.5280 C   0  0  0  0  0  0  0  0  0  0  0  0
  159.7280  213.3690  151.7890 C   0  0  0  0  0  3  0  0  0  0  0  0
  157.7750  213.6490  150.4160 C   0  0  0  0  0  0  0  0  0  0  0  0
  159.7820  213.3890  149.2880 C   0  0  0  0  0  0  0  0  0  0  0  0
  156.9660  213.7380  151.5010 N   0  0  0  0  0  0  0  0  0  0  0  0
  159.3320  213.4460  146.8290 C   0  0  0  0  0  0  0  0  0  0  0  0
  158.5050  213.5880  145.8890 O   0  0  0  0  0  0  0  0  0  0  0  0
  161.0230  212.5990  145.2790 N   0  0  0  0  0  2  0  0  0  0  0  0
  162.8070  213.0660  143.7490 C   0  0  0  0  0  2  0  0  0  0  0  0
  161.5610  213.5820  144.3530 C   0  0  2  0  0  3  0  0  0  0  0  0
  162.8280  213.9930  144.8050 O   0  0  0  0  0  0  0  0  0  0  0  0
  161.1920  211.0570  147.7400 C   0  0  0  0  0  2  0  0  0  0  0  0
  161.9420  210.3290  148.8460 C   0  0  0  0  0  2  0  0  0  0  0  0
  161.8560  208.8170  148.6650 C   0  0  1  0  0  3  0  0  0  0  0  0
  163.0820  208.2830  148.2950 F   0  0  0  0  0  0  0  0  0  0  0  0
  161.3400  208.1670  149.8680 N   0  0  0  0  0  2  0  0  0  0  0  0
  162.4340  207.9030  150.7980 C   0  0  0  0  0  2  0  0  0  0  0  0
  162.1190  206.6740  151.6330 C   0  0  0  0  0  2  0  0  0  0  0  0
  160.8530  206.8440  152.3310 N   0  0  0  0  0  2  0  0  0  0  0  0
  161.0940  207.6890  153.4920 C   0  0  0  0  0  2  0  0  0  0  0  0
  160.6770  207.0300  154.6530 O   0  0  0  0  0  0  0  0  0  0  0  0
  160.6210  208.2220  155.8590 P   0  0  0  0  0  0  0  0  0  0  0  0
  162.1980  208.7160  156.2180 O   0  0  0  0  0  1  0  0  0  0  0  0
  159.9830  207.6610  157.1100 O   0  0  0  0  0  1  0  0  0  0  0  0
  159.7320  209.5560  155.3170 O   0  0  0  0  0  0  0  0  0  0  0  0
  1  4  1  0  0  0  0
  1 13  2  0  0  0  0
  2  8  1  0  0  0  0
  4 12  1  0  0  0  0
  5  3  1  6  0  0  0
  5 13  1  0  0  0  0
  6 21  1  1  0  0  0
  6  5  1  0  0  0  0
  7  2  1  0  0  0  0
  9 17  1  6  0  0  0
  9 15  1  0  0  0  0
  9  6  1  0  0  0  0
 10 11  1  0  0  0  0
 11  2  2  0  0  0  0
 12 10  2  0  0  0  0
 12 14  1  0  0  0  0
 13 10  1  0  0  0  0
 14  7  2  0  0  0  0
 15  1  1  0  0  0  0
 16 15  2  0  0  0  0
 18 19  1  0  0  0  0
 18 20  1  0  0  0  0
 19 20  1  0  0  0  0
 19 17  1  1  0  0  0
 21 22  1  0  0  0  0
 23 24  1  1  0  0  0
 23 22  1  0  0  0  0
 23 25  1  0  0  0  0
 25 26  1  0  0  0  0
 26 27  1  0  0  0  0
 27 28  1  0  0  0  0
 28 29  1  0  0  0  0
 29 30  1  0  0  0  0
 30 31  1  0  0  0  0
 31 32  1  0  0  0  0
 31 33  1  0  0  0  0
 34 31  2  0  0  0  0
M  END
>  <MODEL>
9

>  <REMARK>
 VINA RESULT:      -5.1      3.392      8.664
  Name = 
  12 active torsions:
  status: ('A' for Active; 'I' for Inactive)
    1  A    between atoms: C_2  and  O_4
    2  A    between atoms: C_2  and  N_12
    3  A    between atoms: O_4  and  P_13
    4  A    between atoms: N_5  and  C_18
    5  A    between atoms: N_5  and  C_29
    6  A    between atoms: C_6  and  C_8
    7  A    between atoms: C_6  and  N_12
    8  A    between atoms: C_8  and  N_16
    9  A    between atoms: C_11  and  C_23
   10  A    between atoms: C_15  and  C_23
   11  A    between atoms: C_15  and  C_32
   12  A    between atoms: N_16  and  C_32
                            x       y       z     vdW  Elec       q    Type
                         _______ _______ _______ _____ _____    ______ ____

>  <TORSDO>
F 12

$$$$
