=
 OpenBabel11052410503D

 28 33  0  0  1  0  0  0  0  0999 V2000
  160.8100  203.9810  150.0740 C   0  0  0  0  0  3  0  0  0  0  0  0
  160.9900  203.3960  151.2870 N   0  0  0  0  0  0  0  0  0  0  0  0
  161.1900  204.1220  152.3910 N   0  0  0  0  0  0  0  0  0  0  0  0
  161.2210  205.4800  152.3440 C   0  0  0  0  0  0  0  0  0  0  0  0
  160.8350  205.3710  149.9650 C   0  0  0  0  0  3  0  0  0  0  0  0
  161.5640  207.6390  156.0290 C   0  0  0  0  0  2  0  0  0  0  0  0
  162.6410  210.2320  152.2600 O   0  0  0  0  0  1  0  0  0  0  0  0
  161.4320  206.2240  153.5050 C   0  0  0  0  0  3  0  0  0  0  0  0
  161.4500  207.6280  153.4620 C   0  0  0  0  0  0  0  0  0  0  0  0
  161.5630  211.0210  155.5150 O   0  0  0  0  0  0  0  0  0  0  0  0
  161.7470  208.4230  154.7220 C   0  0  1  0  0  3  0  0  0  0  0  0
  161.0810  207.5250  151.0500 C   0  0  0  0  0  3  0  0  0  0  0  0
  161.3330  209.7760  152.0770 C   0  0  2  0  0  3  0  0  0  0  0  0
  159.2450  209.5830  155.7020 C   0  0  0  0  0  2  0  0  0  0  0  0
  160.1500  207.3940  156.3120 N   0  0  0  0  0  2  0  0  0  0  0  0
  161.0420  206.1320  151.1130 C   0  0  0  0  0  0  0  0  0  0  0  0
  160.7680  209.9590  154.7920 P   0  0  1  0  0  0  0  0  0  0  0  0
  160.3730  210.4280  153.0710 C   0  0  1  0  0  3  0  0  0  0  0  0
  159.5710  208.6260  156.8400 C   0  0  0  0  0  2  0  0  0  0  0  0
  161.2890  208.2790  152.2100 C   0  0  0  0  0  0  0  0  0  0  0  0
  159.1500  212.5880  153.8200 C   0  0  0  0  0  2  0  0  0  0  0  0
  157.5300  213.6580  152.2510 C   0  0  0  0  0  3  0  0  0  0  0  0
  159.7960  213.6910  151.0470 C   0  0  1  0  0  3  0  0  0  0  0  0
  160.1060  211.9170  152.8120 C   0  0  2  0  0  3  0  0  0  0  0  0
  159.7910  212.1910  151.3380 C   0  0  0  0  0  2  0  0  0  0  0  0
  157.7680  212.8320  153.2790 C   0  0  0  0  0  3  0  0  0  0  0  0
  158.7070  214.0110  150.2160 O   0  0  0  0  0  0  0  0  0  0  0  0
  158.6050  214.4530  151.5490 C   0  0  1  0  0  3  0  0  0  0  0  0
  1  2  1  0  0  0  0
  2  3  2  0  0  0  0
  4  3  1  0  0  0  0
  4  8  1  0  0  0  0
  5  1  2  0  0  0  0
  5 16  1  0  0  0  0
  6 15  1  0  0  0  0
  9  8  2  0  0  0  0
  9 11  1  0  0  0  0
 11 17  1  0  0  0  0
 11  6  1  1  0  0  0
 12 16  1  0  0  0  0
 12 20  2  0  0  0  0
 13 20  1  0  0  0  0
 13  7  1  1  0  0  0
 13 18  1  0  0  0  0
 14 19  1  0  0  0  0
 15 19  1  0  0  0  0
 16  4  2  0  0  0  0
 17 10  2  1  0  0  0
 17 14  1  0  0  0  0
 18 24  1  1  0  0  0
 18 17  1  0  0  0  0
 20  9  1  0  0  0  0
 22 26  2  0  0  0  0
 23 25  1  1  0  0  0
 23 28  1  0  0  0  0
 24 25  1  6  0  0  0
 24 21  1  0  0  0  0
 26 21  1  0  0  0  0
 27 23  1  0  0  0  0
 27 28  1  0  0  0  0
 28 22  1  1  0  0  0
M  END
>  <MODEL>
1

>  <REMARK>
 VINA RESULT:      -7.6      0.000      0.000
  Name = 
  1 active torsions:
  status: ('A' for Active; 'I' for Inactive)
    1  A    between atoms: C_8  and  C_26
                            x       y       z     vdW  Elec       q    Type
                         _______ _______ _______ _____ _____    ______ ____

>  <TORSDO>
F 1

$$$$
=
 OpenBabel11052410503D

 28 33  0  0  1  0  0  0  0  0999 V2000
  161.0700  205.4870  147.0200 C   0  0  0  0  0  3  0  0  0  0  0  0
  161.2800  204.4740  147.9010 N   0  0  0  0  0  0  0  0  0  0  0  0
  161.5040  204.7100  149.1970 N   0  0  0  0  0  0  0  0  0  0  0  0
  161.5310  205.9770  149.6880 C   0  0  0  0  0  0  0  0  0  0  0  0
  161.0890  206.8080  147.4670 C   0  0  0  0  0  3  0  0  0  0  0  0
  161.9550  206.5160  153.9180 C   0  0  0  0  0  2  0  0  0  0  0  0
  162.9390  210.3940  151.4510 O   0  0  0  0  0  1  0  0  0  0  0  0
  161.7680  206.2070  151.0430 C   0  0  0  0  0  3  0  0  0  0  0  0
  161.7820  207.5150  151.5560 C   0  0  0  0  0  0  0  0  0  0  0  0
  161.9350  209.8280  154.7760 O   0  0  0  0  0  0  0  0  0  0  0  0
  162.1060  207.7540  153.0210 C   0  0  1  0  0  3  0  0  0  0  0  0
  161.3570  208.3640  149.3060 C   0  0  0  0  0  3  0  0  0  0  0  0
  161.6270  210.0330  151.1310 C   0  0  2  0  0  3  0  0  0  0  0  0
  159.6250  208.4060  154.4300 C   0  0  0  0  0  2  0  0  0  0  0  0
  160.5490  206.1640  154.1100 N   0  0  0  0  0  2  0  0  0  0  0  0
  161.3220  207.0590  148.8170 C   0  0  0  0  0  0  0  0  0  0  0  0
  161.1260  209.1270  153.7100 P   0  0  1  0  0  0  0  0  0  0  0  0
  160.6890  210.2310  152.3210 C   0  0  1  0  0  3  0  0  0  0  0  0
  159.9800  207.0820  155.0920 C   0  0  0  0  0  2  0  0  0  0  0  0
  161.5900  208.6040  150.6650 C   0  0  0  0  0  0  0  0  0  0  0  0
  159.9180  211.9350  154.1150 C   0  0  0  0  0  2  0  0  0  0  0  0
  157.8890  213.3180  153.6670 C   0  0  0  0  0  3  0  0  0  0  0  0
  159.5650  213.9130  151.8160 C   0  0  1  0  0  3  0  0  0  0  0  0
  160.4130  211.6980  152.6740 C   0  0  2  0  0  3  0  0  0  0  0  0
  159.5990  212.4030  151.5840 C   0  0  0  0  0  2  0  0  0  0  0  0
  158.4470  212.2290  154.2130 C   0  0  0  0  0  3  0  0  0  0  0  0
  158.2640  214.3940  151.5800 O   0  0  0  0  0  0  0  0  0  0  0  0
  158.6720  214.3780  152.9290 C   0  0  1  0  0  3  0  0  0  0  0  0
  1  5  2  0  0  0  0
  1  2  1  0  0  0  0
  2  3  2  0  0  0  0
  3  4  1  0  0  0  0
  4  8  1  0  0  0  0
  5 16  1  0  0  0  0
  6 15  1  0  0  0  0
  8  9  2  0  0  0  0
  9 11  1  0  0  0  0
 11 17  1  0  0  0  0
 11  6  1  1  0  0  0
 12 20  2  0  0  0  0
 13  7  1  1  0  0  0
 13 18  1  0  0  0  0
 14 19  1  0  0  0  0
 15 19  1  0  0  0  0
 16 12  1  0  0  0  0
 16  4  2  0  0  0  0
 17 14  1  0  0  0  0
 17 10  2  1  0  0  0
 18 24  1  1  0  0  0
 18 17  1  0  0  0  0
 20 13  1  0  0  0  0
 20  9  1  0  0  0  0
 21 26  1  0  0  0  0
 22 26  2  0  0  0  0
 23 25  1  1  0  0  0
 23 28  1  0  0  0  0
 24 25  1  6  0  0  0
 24 21  1  0  0  0  0
 27 23  1  0  0  0  0
 27 28  1  0  0  0  0
 28 22  1  1  0  0  0
M  END
>  <MODEL>
2

>  <REMARK>
 VINA RESULT:      -5.0      1.656      2.024
  Name = 
  1 active torsions:
  status: ('A' for Active; 'I' for Inactive)
    1  A    between atoms: C_8  and  C_26
                            x       y       z     vdW  Elec       q    Type
                         _______ _______ _______ _____ _____    ______ ____

>  <TORSDO>
F 1

$$$$
=
 OpenBabel11052410503D

 28 33  0  0  1  0  0  0  0  0999 V2000
  160.0840  208.2210  156.1820 C   0  0  0  0  0  3  0  0  0  0  0  0
  160.6880  209.3050  155.6290 N   0  0  0  0  0  0  0  0  0  0  0  0
  161.2480  209.2510  154.4160 N   0  0  0  0  0  0  0  0  0  0  0  0
  161.2360  208.1060  153.6860 C   0  0  0  0  0  0  0  0  0  0  0  0
  160.0430  207.0170  155.4780 C   0  0  0  0  0  3  0  0  0  0  0  0
  162.8070  208.2130  149.7000 C   0  0  0  0  0  2  0  0  0  0  0  0
  162.4480  203.8570  151.4300 O   0  0  0  0  0  1  0  0  0  0  0  0
  161.8260  208.0650  152.4220 C   0  0  0  0  0  3  0  0  0  0  0  0
  161.8020  206.8860  151.6580 C   0  0  0  0  0  0  0  0  0  0  0  0
  162.5630  205.1650  148.1650 O   0  0  0  0  0  0  0  0  0  0  0  0
  162.5060  206.8370  150.3140 C   0  0  1  0  0  3  0  0  0  0  0  0
  160.6140  205.7720  153.4790 C   0  0  0  0  0  3  0  0  0  0  0  0
  161.1670  204.4150  151.4690 C   0  0  2  0  0  3  0  0  0  0  0  0
  160.4840  206.9420  148.1990 C   0  0  0  0  0  2  0  0  0  0  0  0
  161.5870  208.8670  149.2300 N   0  0  0  0  0  2  0  0  0  0  0  0
  160.6250  206.9560  154.2140 C   0  0  0  0  0  0  0  0  0  0  0  0
  161.5860  205.8240  149.1100 P   0  0  1  0  0  0  0  0  0  0  0  0
  160.6040  204.6120  150.0620 C   0  0  1  0  0  3  0  0  0  0  0  0
  161.2060  208.2600  147.9580 C   0  0  0  0  0  2  0  0  0  0  0  0
  161.2000  205.7230  152.2090 C   0  0  0  0  0  0  0  0  0  0  0  0
  160.1120  202.0740  150.2510 C   0  0  0  0  0  2  0  0  0  0  0  0
  161.5820  200.4700  149.0270 C   0  0  0  0  0  3  0  0  0  0  0  0
  160.5200  201.9600  147.2270 C   0  0  1  0  0  3  0  0  0  0  0  0
  160.2350  203.3110  149.3370 C   0  0  2  0  0  3  0  0  0  0  0  0
  161.0760  203.1040  148.0740 C   0  0  0  0  0  2  0  0  0  0  0  0
  161.2770  201.1280  150.1540 C   0  0  0  0  0  3  0  0  0  0  0  0
  161.5810  201.1680  146.7530 O   0  0  0  0  0  0  0  0  0  0  0  0
  160.7800  200.5790  147.7510 C   0  0  1  0  0  3  0  0  0  0  0  0
  2  1  1  0  0  0  0
  3  2  2  0  0  0  0
  4 16  1  0  0  0  0
  4  3  1  0  0  0  0
  5  1  2  0  0  0  0
  8  4  2  0  0  0  0
  9 20  2  0  0  0  0
  9  8  1  0  0  0  0
 11  6  1  6  0  0  0
 11  9  1  0  0  0  0
 12 16  2  0  0  0  0
 13  7  1  6  0  0  0
 13 20  1  0  0  0  0
 14 17  1  0  0  0  0
 15  6  1  0  0  0  0
 16  5  1  0  0  0  0
 17 10  2  6  0  0  0
 17 18  1  0  0  0  0
 17 11  1  0  0  0  0
 18 24  1  6  0  0  0
 18 13  1  0  0  0  0
 19 14  1  0  0  0  0
 19 15  1  0  0  0  0
 20 12  1  0  0  0  0
 22 26  2  0  0  0  0
 23 28  1  0  0  0  0
 23 25  1  1  0  0  0
 24 25  1  6  0  0  0
 24 21  1  0  0  0  0
 26 21  1  0  0  0  0
 27 23  1  0  0  0  0
 27 28  1  0  0  0  0
 28 22  1  1  0  0  0
M  END
>  <MODEL>
3

>  <REMARK>
 VINA RESULT:      -4.7      4.566      8.346
  Name = 
  1 active torsions:
  status: ('A' for Active; 'I' for Inactive)
    1  A    between atoms: C_8  and  C_26
                            x       y       z     vdW  Elec       q    Type
                         _______ _______ _______ _____ _____    ______ ____

>  <TORSDO>
F 1

$$$$
