=
 OpenBabel11052411173D

 27 28  0  0  0  0  0  0  0  0999 V2000
  161.1700  205.8720  151.3630 C   0  0  0  0  0  0  0  0  0  0  0  0
  161.1030  203.5600  151.9890 C   0  0  0  0  0  3  0  0  0  0  0  0
  161.1710  207.7400  150.2480 C   0  0  0  0  0  3  0  0  0  0  0  0
  161.2120  204.9090  152.3720 C   0  0  0  0  0  3  0  0  0  0  0  0
  161.0210  206.7050  149.3280 C   0  0  0  0  0  0  0  0  0  0  0  0
  160.9570  203.2010  150.6300 C   0  0  0  0  0  0  0  0  0  0  0  0
  160.9180  204.2020  149.6360 C   0  0  0  0  0  3  0  0  0  0  0  0
  161.2610  207.2080  151.4900 N   0  0  0  0  0  0  0  0  0  0  0  0
  161.0270  205.5290  150.0470 C   0  0  0  0  0  0  0  0  0  0  0  0
  159.8200  201.3000  149.4010 C   0  0  0  0  0  1  0  0  0  0  0  0
  160.8510  201.8170  150.2870 N   0  0  0  0  0  2  0  0  0  0  0  0
  161.3880  207.9640  152.7280 C   0  0  0  0  0  2  0  0  0  0  0  0
  162.5140  209.9220  151.9670 O   0  0  0  0  0  0  0  0  0  0  0  0
  161.4580  209.4240  152.4350 C   0  0  0  0  0  0  0  0  0  0  0  0
  159.3390  210.9520  152.8260 C   0  0  0  0  0  3  0  0  0  0  0  0
  160.3060  210.2560  152.6470 C   0  0  0  0  0  0  0  0  0  0  0  0
  160.9290  206.8540  147.8450 C   0  0  0  0  0  2  0  0  0  0  0  0
  162.2940  206.6820  147.1900 C   0  0  0  0  0  2  0  0  0  0  0  0
  161.1610  204.8760  145.8370 N   0  0  0  0  0  2  0  0  0  0  0  0
  163.4650  204.8490  146.2240 O   0  0  0  0  0  0  0  0  0  0  0  0
  162.3550  205.4170  146.4030 C   0  0  0  0  0  0  0  0  0  0  0  0
  161.1700  203.6850  145.0550 C   0  0  0  0  0  3  0  0  0  0  0  0
  160.9210  202.5350  145.6150 C   0  0  0  0  0  0  0  0  0  0  0  0
  160.6710  201.3820  146.1760 C   0  0  0  0  0  3  0  0  0  0  0  0
  160.5940  200.0990  145.4050 C   0  0  0  0  0  2  0  0  0  0  0  0
  161.3690  198.0620  145.0540 C   0  0  0  0  0  1  0  0  0  0  0  0
  161.3580  199.0900  145.9960 O   0  0  0  0  0  0  0  0  0  0  0  0
  1  8  1  0  0  0  0
  1  4  1  0  0  0  0
  2  4  2  0  0  0  0
  3  8  1  0  0  0  0
  5  9  1  0  0  0  0
  5  3  2  0  0  0  0
  6  2  1  0  0  0  0
  7  9  1  0  0  0  0
  7  6  2  0  0  0  0
  8 12  1  0  0  0  0
  9  1  2  0  0  0  0
 10 11  1  0  0  0  0
 11  6  1  0  0  0  0
 13 14  2  0  0  0  0
 14 16  1  0  0  0  0
 14 12  1  0  0  0  0
 16 15  3  0  0  0  0
 17  5  1  0  0  0  0
 18 17  1  0  0  0  0
 19 21  1  0  0  0  0
 20 21  2  0  0  0  0
 21 18  1  0  0  0  0
 22 23  2  0  0  0  0
 22 19  1  0  0  0  0
 23 24  2  0  0  0  0
 25 27  1  0  0  0  0
 25 24  1  0  0  0  0
 26 27  1  0  0  0  0
M  END
>  <MODEL>
1

>  <REMARK>
 VINA RESULT:      -7.7      0.000      0.000
  Name = 
  10 active torsions:
  status: ('A' for Active; 'I' for Inactive)
    1  A    between atoms: N_1  and  C_5
    2  A    between atoms: C_6  and  C_7
    3  A    between atoms: C_6  and  C_14
    4  A    between atoms: C_7  and  N_25
    5  A    between atoms: C_10  and  C_24
    6  A    between atoms: C_17  and  C_20
    7  A    between atoms: N_18  and  C_19
    8  A    between atoms: C_20  and  C_23
    9  A    between atoms: C_21  and  C_23
   10  A    between atoms: C_24  and  O_27
                            x       y       z     vdW  Elec       q    Type
                         _______ _______ _______ _____ _____    ______ ____

>  <TORSDO>
F 10

$$$$
=
 OpenBabel11052411173D

 27 28  0  0  0  0  0  0  0  0999 V2000
  161.8330  205.6610  147.9140 C   0  0  0  0  0  0  0  0  0  0  0  0
  162.2930  208.0100  147.9780 C   0  0  0  0  0  3  0  0  0  0  0  0
  161.2140  203.6340  148.4090 C   0  0  0  0  0  3  0  0  0  0  0  0
  162.3330  206.7940  147.2730 C   0  0  0  0  0  3  0  0  0  0  0  0
  160.9180  204.4390  149.5060 C   0  0  0  0  0  0  0  0  0  0  0  0
  161.7660  208.0750  149.2870 C   0  0  0  0  0  0  0  0  0  0  0  0
  161.2690  206.9070  149.9050 C   0  0  0  0  0  3  0  0  0  0  0  0
  161.7750  204.4010  147.4440 N   0  0  0  0  0  0  0  0  0  0  0  0
  161.3200  205.7180  149.1810 C   0  0  0  0  0  0  0  0  0  0  0  0
  161.6350  209.4500  151.4100 C   0  0  0  0  0  1  0  0  0  0  0  0
  161.7460  209.3330  149.9650 N   0  0  0  0  0  2  0  0  0  0  0  0
  162.1910  203.9380  146.1280 C   0  0  0  0  0  2  0  0  0  0  0  0
  160.5180  204.6620  144.5930 O   0  0  0  0  0  0  0  0  0  0  0  0
  160.9990  203.7110  145.2610 C   0  0  0  0  0  0  0  0  0  0  0  0
  159.9440  201.2970  145.0700 C   0  0  0  0  0  3  0  0  0  0  0  0
  160.4240  202.3990  145.1570 C   0  0  0  0  0  0  0  0  0  0  0  0
  160.3310  203.9820  150.8000 C   0  0  0  0  0  2  0  0  0  0  0  0
  161.4160  203.7480  151.8430 C   0  0  0  0  0  2  0  0  0  0  0  0
  160.8860  205.6350  153.4340 N   0  0  0  0  0  2  0  0  0  0  0  0
  162.9230  205.5340  152.2940 O   0  0  0  0  0  0  0  0  0  0  0  0
  161.7950  205.0220  152.5180 C   0  0  0  0  0  0  0  0  0  0  0  0
  161.2100  206.8380  154.1250 C   0  0  0  0  0  3  0  0  0  0  0  0
  160.5730  207.1550  155.2160 C   0  0  0  0  0  0  0  0  0  0  0  0
  159.9350  207.4720  156.3110 C   0  0  0  0  0  3  0  0  0  0  0  0
  160.2690  208.6850  157.1280 C   0  0  0  0  0  2  0  0  0  0  0  0
  162.3100  209.5180  157.2550 C   0  0  0  0  0  1  0  0  0  0  0  0
  161.1620  209.5300  156.4640 O   0  0  0  0  0  0  0  0  0  0  0  0
  1  9  1  0  0  0  0
  2  6  2  0  0  0  0
  3  5  2  0  0  0  0
  4  1  2  0  0  0  0
  4  2  1  0  0  0  0
  5 17  1  0  0  0  0
  6  7  1  0  0  0  0
  6 11  1  0  0  0  0
  8  1  1  0  0  0  0
  8  3  1  0  0  0  0
  9  5  1  0  0  0  0
  9  7  2  0  0  0  0
 11 10  1  0  0  0  0
 12  8  1  0  0  0  0
 13 14  2  0  0  0  0
 14 12  1  0  0  0  0
 15 16  3  0  0  0  0
 16 14  1  0  0  0  0
 17 18  1  0  0  0  0
 18 21  1  0  0  0  0
 19 22  1  0  0  0  0
 20 21  2  0  0  0  0
 21 19  1  0  0  0  0
 22 23  2  0  0  0  0
 23 24  2  0  0  0  0
 24 25  1  0  0  0  0
 27 25  1  0  0  0  0
 27 26  1  0  0  0  0
M  END
>  <MODEL>
2

>  <REMARK>
 VINA RESULT:      -7.3      2.409      8.688
  Name = 
  10 active torsions:
  status: ('A' for Active; 'I' for Inactive)
    1  A    between atoms: N_1  and  C_5
    2  A    between atoms: C_6  and  C_7
    3  A    between atoms: C_6  and  C_14
    4  A    between atoms: C_7  and  N_25
    5  A    between atoms: C_10  and  C_24
    6  A    between atoms: C_17  and  C_20
    7  A    between atoms: N_18  and  C_19
    8  A    between atoms: C_20  and  C_23
    9  A    between atoms: C_21  and  C_23
   10  A    between atoms: C_24  and  O_27
                            x       y       z     vdW  Elec       q    Type
                         _______ _______ _______ _____ _____    ______ ____

>  <TORSDO>
F 10

$$$$
=
 OpenBabel11052411173D

 27 28  0  0  0  0  0  0  0  0999 V2000
  161.8270  205.6390  147.9350 C   0  0  0  0  0  0  0  0  0  0  0  0
  162.3240  207.9770  147.7930 C   0  0  0  0  0  3  0  0  0  0  0  0
  161.1630  203.6760  148.5990 C   0  0  0  0  0  3  0  0  0  0  0  0
  162.3600  206.7010  147.2040 C   0  0  0  0  0  3  0  0  0  0  0  0
  160.8570  204.5830  149.6110 C   0  0  0  0  0  0  0  0  0  0  0  0
  161.7700  208.1700  149.0780 C   0  0  0  0  0  0  0  0  0  0  0  0
  161.2400  207.0710  149.7890 C   0  0  0  0  0  3  0  0  0  0  0  0
  161.7570  204.3420  147.5810 N   0  0  0  0  0  0  0  0  0  0  0  0
  161.2870  205.8200  149.1790 C   0  0  0  0  0  0  0  0  0  0  0  0
  162.0950  210.6740  148.8700 C   0  0  0  0  0  1  0  0  0  0  0  0
  161.7570  209.4860  149.6370 N   0  0  0  0  0  2  0  0  0  0  0  0
  162.1940  203.7530  146.3230 C   0  0  0  0  0  2  0  0  0  0  0  0
  160.6190  204.6060  144.7510 O   0  0  0  0  0  0  0  0  0  0  0  0
  161.0370  203.6090  145.3940 C   0  0  0  0  0  0  0  0  0  0  0  0
  159.9150  201.2440  145.0380 C   0  0  0  0  0  3  0  0  0  0  0  0
  160.4260  202.3240  145.2000 C   0  0  0  0  0  0  0  0  0  0  0  0
  160.2350  204.2550  150.9280 C   0  0  0  0  0  2  0  0  0  0  0  0
  161.2960  204.0500  152.0010 C   0  0  0  0  0  2  0  0  0  0  0  0
  160.7730  206.0430  153.4610 N   0  0  0  0  0  2  0  0  0  0  0  0
  162.8460  205.8110  152.4080 O   0  0  0  0  0  0  0  0  0  0  0  0
  161.6930  205.3480  152.6170 C   0  0  0  0  0  0  0  0  0  0  0  0
  161.1120  207.2730  154.0950 C   0  0  0  0  0  3  0  0  0  0  0  0
  160.8750  208.4040  153.4930 C   0  0  0  0  0  0  0  0  0  0  0  0
  160.6360  209.5380  152.8900 C   0  0  0  0  0  3  0  0  0  0  0  0
  160.9010  210.8710  153.5250 C   0  0  0  0  0  2  0  0  0  0  0  0
  158.9730  211.6530  152.7860 C   0  0  0  0  0  1  0  0  0  0  0  0
  159.7220  211.4880  153.9500 O   0  0  0  0  0  0  0  0  0  0  0  0
  1  9  1  0  0  0  0
  2  6  2  0  0  0  0
  3  5  2  0  0  0  0
  4  2  1  0  0  0  0
  4  1  2  0  0  0  0
  5 17  1  0  0  0  0
  6 11  1  0  0  0  0
  6  7  1  0  0  0  0
  8  1  1  0  0  0  0
  8  3  1  0  0  0  0
  9  5  1  0  0  0  0
  9  7  2  0  0  0  0
 10 11  1  0  0  0  0
 12  8  1  0  0  0  0
 13 14  2  0  0  0  0
 14 12  1  0  0  0  0
 15 16  3  0  0  0  0
 16 14  1  0  0  0  0
 17 18  1  0  0  0  0
 18 21  1  0  0  0  0
 19 22  1  0  0  0  0
 20 21  2  0  0  0  0
 21 19  1  0  0  0  0
 23 22  2  0  0  0  0
 24 23  2  0  0  0  0
 24 25  1  0  0  0  0
 25 27  1  0  0  0  0
 26 27  1  0  0  0  0
M  END
>  <MODEL>
3

>  <REMARK>
 VINA RESULT:      -7.3      2.108      8.523
  Name = 
  10 active torsions:
  status: ('A' for Active; 'I' for Inactive)
    1  A    between atoms: N_1  and  C_5
    2  A    between atoms: C_6  and  C_7
    3  A    between atoms: C_6  and  C_14
    4  A    between atoms: C_7  and  N_25
    5  A    between atoms: C_10  and  C_24
    6  A    between atoms: C_17  and  C_20
    7  A    between atoms: N_18  and  C_19
    8  A    between atoms: C_20  and  C_23
    9  A    between atoms: C_21  and  C_23
   10  A    between atoms: C_24  and  O_27
                            x       y       z     vdW  Elec       q    Type
                         _______ _______ _______ _____ _____    ______ ____

>  <TORSDO>
F 10

$$$$
=
 OpenBabel11052411173D

 27 28  0  0  0  0  0  0  0  0999 V2000
  161.0060  206.3360  152.4740 C   0  0  0  0  0  0  0  0  0  0  0  0
  161.0530  207.8250  154.3490 C   0  0  0  0  0  3  0  0  0  0  0  0
  161.0380  205.4930  150.4680 C   0  0  0  0  0  3  0  0  0  0  0  0
  160.9360  206.5130  153.8560 C   0  0  0  0  0  3  0  0  0  0  0  0
  161.2100  206.8690  150.3440 C   0  0  0  0  0  0  0  0  0  0  0  0
  161.2330  208.9180  153.4720 C   0  0  0  0  0  0  0  0  0  0  0  0
  161.3000  208.7000  152.0790 C   0  0  0  0  0  3  0  0  0  0  0  0
  160.9150  205.1850  151.7810 N   0  0  0  0  0  0  0  0  0  0  0  0
  161.1830  207.3900  151.6200 C   0  0  0  0  0  0  0  0  0  0  0  0
  162.2400  210.5580  155.1190 C   0  0  0  0  0  1  0  0  0  0  0  0
  161.3460  210.2340  154.0190 N   0  0  0  0  0  2  0  0  0  0  0  0
  160.7560  203.8450  152.3270 C   0  0  0  0  0  2  0  0  0  0  0  0
  162.5840  202.4810  151.6340 O   0  0  0  0  0  0  0  0  0  0  0  0
  161.3980  202.8440  151.4270 C   0  0  0  0  0  0  0  0  0  0  0  0
  160.0190  201.7740  149.4440 C   0  0  0  0  0  3  0  0  0  0  0  0
  160.6490  202.2620  150.3480 C   0  0  0  0  0  0  0  0  0  0  0  0
  161.3410  207.6270  149.0650 C   0  0  0  0  0  2  0  0  0  0  0  0
  162.4330  207.0350  148.1840 C   0  0  0  0  0  2  0  0  0  0  0  0
  162.6850  205.2550  146.4100 N   0  0  0  0  0  2  0  0  0  0  0  0
  160.6220  206.2630  146.8460 O   0  0  0  0  0  0  0  0  0  0  0  0
  161.8510  206.1800  147.1100 C   0  0  0  0  0  0  0  0  0  0  0  0
  162.1730  204.3970  145.3950 C   0  0  0  0  0  3  0  0  0  0  0  0
  161.4500  203.3620  145.7190 C   0  0  0  0  0  0  0  0  0  0  0  0
  160.7250  202.3250  146.0430 C   0  0  0  0  0  3  0  0  0  0  0  0
  160.0950  201.4200  145.0270 C   0  0  0  0  0  2  0  0  0  0  0  0
  161.1440  200.0580  146.4120 C   0  0  0  0  0  1  0  0  0  0  0  0
  160.5440  200.1030  145.1540 O   0  0  0  0  0  0  0  0  0  0  0  0
  1  4  1  0  0  0  0
  3  8  1  0  0  0  0
  4  2  2  0  0  0  0
  5  3  2  0  0  0  0
  5  9  1  0  0  0  0
  6 11  1  0  0  0  0
  6  2  1  0  0  0  0
  7  6  2  0  0  0  0
  8 12  1  0  0  0  0
  8  1  1  0  0  0  0
  9  7  1  0  0  0  0
  9  1  2  0  0  0  0
 11 10  1  0  0  0  0
 14 13  2  0  0  0  0
 14 12  1  0  0  0  0
 15 16  3  0  0  0  0
 16 14  1  0  0  0  0
 17  5  1  0  0  0  0
 18 17  1  0  0  0  0
 19 21  1  0  0  0  0
 20 21  2  0  0  0  0
 21 18  1  0  0  0  0
 22 23  2  0  0  0  0
 22 19  1  0  0  0  0
 23 24  2  0  0  0  0
 25 27  1  0  0  0  0
 25 24  1  0  0  0  0
 27 26  1  0  0  0  0
M  END
>  <MODEL>
4

>  <REMARK>
 VINA RESULT:      -7.2      2.025      4.860
  Name = 
  10 active torsions:
  status: ('A' for Active; 'I' for Inactive)
    1  A    between atoms: N_1  and  C_5
    2  A    between atoms: C_6  and  C_7
    3  A    between atoms: C_6  and  C_14
    4  A    between atoms: C_7  and  N_25
    5  A    between atoms: C_10  and  C_24
    6  A    between atoms: C_17  and  C_20
    7  A    between atoms: N_18  and  C_19
    8  A    between atoms: C_20  and  C_23
    9  A    between atoms: C_21  and  C_23
   10  A    between atoms: C_24  and  O_27
                            x       y       z     vdW  Elec       q    Type
                         _______ _______ _______ _____ _____    ______ ____

>  <TORSDO>
F 10

$$$$
=
 OpenBabel11052411173D

 27 28  0  0  0  0  0  0  0  0999 V2000
  161.5830  207.9370  152.6850 C   0  0  0  0  0  0  0  0  0  0  0  0
  160.9320  205.9390  153.8350 C   0  0  0  0  0  3  0  0  0  0  0  0
  162.2560  209.3680  151.1910 C   0  0  0  0  0  3  0  0  0  0  0  0
  161.1360  207.3300  153.8590 C   0  0  0  0  0  3  0  0  0  0  0  0
  162.2410  208.1130  150.5880 C   0  0  0  0  0  0  0  0  0  0  0  0
  161.1760  205.1900  152.6630 C   0  0  0  0  0  0  0  0  0  0  0  0
  161.6280  205.8370  151.4920 C   0  0  0  0  0  3  0  0  0  0  0  0
  161.8490  209.2400  152.4760 N   0  0  0  0  0  0  0  0  0  0  0  0
  161.8180  207.2160  151.5470 C   0  0  0  0  0  0  0  0  0  0  0  0
  161.2480  202.9140  151.5520 C   0  0  0  0  0  1  0  0  0  0  0  0
  160.9570  203.7770  152.6850 N   0  0  0  0  0  2  0  0  0  0  0  0
  161.6940  210.3290  153.4290 C   0  0  0  0  0  2  0  0  0  0  0  0
  159.6720  211.2040  152.5200 O   0  0  0  0  0  0  0  0  0  0  0  0
  160.2600  210.7290  153.5250 C   0  0  0  0  0  0  0  0  0  0  0  0
  158.9350  210.3700  155.7810 C   0  0  0  0  0  3  0  0  0  0  0  0
  159.5390  210.5320  154.7510 C   0  0  0  0  0  0  0  0  0  0  0  0
  162.6600  207.8040  149.1890 C   0  0  0  0  0  2  0  0  0  0  0  0
  161.5010  207.9810  148.2170 C   0  0  0  0  0  2  0  0  0  0  0  0
  162.3490  206.0700  146.8010 N   0  0  0  0  0  2  0  0  0  0  0  0
  160.0910  206.2580  147.3740 O   0  0  0  0  0  0  0  0  0  0  0  0
  161.2570  206.7320  147.4400 C   0  0  0  0  0  0  0  0  0  0  0  0
  162.1730  204.8600  146.0700 C   0  0  0  0  0  3  0  0  0  0  0  0
  161.6640  203.8120  146.6540 C   0  0  0  0  0  0  0  0  0  0  0  0
  161.1530  202.7630  147.2400 C   0  0  0  0  0  3  0  0  0  0  0  0
  160.8740  201.4790  146.5160 C   0  0  0  0  0  2  0  0  0  0  0  0
  161.2760  200.7950  148.5760 C   0  0  0  0  0  1  0  0  0  0  0  0
  161.2930  200.3660  147.2500 O   0  0  0  0  0  0  0  0  0  0  0  0
  1  4  1  0  0  0  0
  2  4  2  0  0  0  0
  3  8  1  0  0  0  0
  5  3  2  0  0  0  0
  5  9  1  0  0  0  0
  6 11  1  0  0  0  0
  6  2  1  0  0  0  0
  7  9  1  0  0  0  0
  7  6  2  0  0  0  0
  8  1  1  0  0  0  0
  8 12  1  0  0  0  0
  9  1  2  0  0  0  0
 10 11  1  0  0  0  0
 12 14  1  0  0  0  0
 13 14  2  0  0  0  0
 14 16  1  0  0  0  0
 16 15  3  0  0  0  0
 17  5  1  0  0  0  0
 18 17  1  0  0  0  0
 19 21  1  0  0  0  0
 20 21  2  0  0  0  0
 21 18  1  0  0  0  0
 22 23  2  0  0  0  0
 22 19  1  0  0  0  0
 23 24  2  0  0  0  0
 25 24  1  0  0  0  0
 25 27  1  0  0  0  0
 27 26  1  0  0  0  0
M  END
>  <MODEL>
5

>  <REMARK>
 VINA RESULT:      -7.1      1.853      2.586
  Name = 
  10 active torsions:
  status: ('A' for Active; 'I' for Inactive)
    1  A    between atoms: N_1  and  C_5
    2  A    between atoms: C_6  and  C_7
    3  A    between atoms: C_6  and  C_14
    4  A    between atoms: C_7  and  N_25
    5  A    between atoms: C_10  and  C_24
    6  A    between atoms: C_17  and  C_20
    7  A    between atoms: N_18  and  C_19
    8  A    between atoms: C_20  and  C_23
    9  A    between atoms: C_21  and  C_23
   10  A    between atoms: C_24  and  O_27
                            x       y       z     vdW  Elec       q    Type
                         _______ _______ _______ _____ _____    ______ ____

>  <TORSDO>
F 10

$$$$
=
 OpenBabel11052411173D

 27 28  0  0  0  0  0  0  0  0999 V2000
  161.6590  208.0360  150.5290 C   0  0  0  0  0  0  0  0  0  0  0  0
  161.8160  210.0280  151.8500 C   0  0  0  0  0  3  0  0  0  0  0  0
  161.3070  206.0030  149.8400 C   0  0  0  0  0  3  0  0  0  0  0  0
  162.0060  209.3850  150.6140 C   0  0  0  0  0  3  0  0  0  0  0  0
  160.9190  206.0630  151.1770 C   0  0  0  0  0  0  0  0  0  0  0  0
  161.2940  209.3280  152.9610 C   0  0  0  0  0  0  0  0  0  0  0  0
  160.9540  207.9630  152.8380 C   0  0  0  0  0  3  0  0  0  0  0  0
  161.7590  207.2220  149.4620 N   0  0  0  0  0  0  0  0  0  0  0  0
  161.1520  207.3540  151.6010 C   0  0  0  0  0  0  0  0  0  0  0  0
  162.2290  210.5760  154.9570 C   0  0  0  0  0  1  0  0  0  0  0  0
  161.1190  210.0220  154.1980 N   0  0  0  0  0  2  0  0  0  0  0  0
  162.2210  207.5780  148.1280 C   0  0  0  0  0  2  0  0  0  0  0  0
  160.4960  206.7390  146.7130 O   0  0  0  0  0  0  0  0  0  0  0  0
  161.6800  206.6190  147.1230 C   0  0  0  0  0  0  0  0  0  0  0  0
  163.2240  204.7130  146.1450 C   0  0  0  0  0  3  0  0  0  0  0  0
  162.5210  205.5830  146.5910 C   0  0  0  0  0  0  0  0  0  0  0  0
  160.4040  204.9260  151.9950 C   0  0  0  0  0  2  0  0  0  0  0  0
  161.5150  203.9350  152.3190 C   0  0  0  0  0  2  0  0  0  0  0  0
  160.4380  202.6580  150.4260 N   0  0  0  0  0  2  0  0  0  0  0  0
  162.1680  201.7330  151.6950 O   0  0  0  0  0  0  0  0  0  0  0  0
  161.4000  202.7080  151.4810 C   0  0  0  0  0  0  0  0  0  0  0  0
  160.3060  201.5200  149.5790 C   0  0  0  0  0  3  0  0  0  0  0  0
  160.6070  201.6090  148.3150 C   0  0  0  0  0  0  0  0  0  0  0  0
  160.9100  201.6980  147.0470 C   0  0  0  0  0  3  0  0  0  0  0  0
  160.8630  200.5250  146.1130 C   0  0  0  0  0  2  0  0  0  0  0  0
  160.0820  202.1900  144.8900 C   0  0  0  0  0  1  0  0  0  0  0  0
  160.1000  200.7980  144.9740 O   0  0  0  0  0  0  0  0  0  0  0  0
  1  4  2  0  0  0  0
  1  9  1  0  0  0  0
  2  6  2  0  0  0  0
  3  5  2  0  0  0  0
  4  2  1  0  0  0  0
  5  9  1  0  0  0  0
  5 17  1  0  0  0  0
  6 11  1  0  0  0  0
  7  6  1  0  0  0  0
  8  3  1  0  0  0  0
  8  1  1  0  0  0  0
  9  7  2  0  0  0  0
 11 10  1  0  0  0  0
 12  8  1  0  0  0  0
 13 14  2  0  0  0  0
 14 12  1  0  0  0  0
 15 16  3  0  0  0  0
 16 14  1  0  0  0  0
 17 18  1  0  0  0  0
 19 21  1  0  0  0  0
 21 20  2  0  0  0  0
 21 18  1  0  0  0  0
 22 19  1  0  0  0  0
 23 22  2  0  0  0  0
 24 23  2  0  0  0  0
 25 24  1  0  0  0  0
 26 27  1  0  0  0  0
 27 25  1  0  0  0  0
M  END
>  <MODEL>
6

>  <REMARK>
 VINA RESULT:      -7.0      2.076      5.583
  Name = 
  10 active torsions:
  status: ('A' for Active; 'I' for Inactive)
    1  A    between atoms: N_1  and  C_5
    2  A    between atoms: C_6  and  C_7
    3  A    between atoms: C_6  and  C_14
    4  A    between atoms: C_7  and  N_25
    5  A    between atoms: C_10  and  C_24
    6  A    between atoms: C_17  and  C_20
    7  A    between atoms: N_18  and  C_19
    8  A    between atoms: C_20  and  C_23
    9  A    between atoms: C_21  and  C_23
   10  A    between atoms: C_24  and  O_27
                            x       y       z     vdW  Elec       q    Type
                         _______ _______ _______ _____ _____    ______ ____

>  <TORSDO>
F 10

$$$$
=
 OpenBabel11052411173D

 27 28  0  0  0  0  0  0  0  0999 V2000
  160.8750  204.8730  149.8230 C   0  0  0  0  0  0  0  0  0  0  0  0
  161.2480  206.3430  147.9690 C   0  0  0  0  0  3  0  0  0  0  0  0
  160.8010  203.9800  151.8060 C   0  0  0  0  0  3  0  0  0  0  0  0
  160.7540  205.1190  148.4550 C   0  0  0  0  0  3  0  0  0  0  0  0
  161.4050  205.2290  151.9330 C   0  0  0  0  0  0  0  0  0  0  0  0
  161.8450  207.2820  148.8390 C   0  0  0  0  0  0  0  0  0  0  0  0
  161.9500  206.9990  150.2180 C   0  0  0  0  0  3  0  0  0  0  0  0
  160.4830  203.7800  150.5050 N   0  0  0  0  0  0  0  0  0  0  0  0
  161.4500  205.7800  150.6700 C   0  0  0  0  0  0  0  0  0  0  0  0
  162.0420  209.8070  148.8940 C   0  0  0  0  0  1  0  0  0  0  0  0
  162.3350  208.5130  148.3000 N   0  0  0  0  0  2  0  0  0  0  0  0
  159.8030  202.6100  149.9680 C   0  0  0  0  0  2  0  0  0  0  0  0
  161.4920  200.9360  150.1350 O   0  0  0  0  0  0  0  0  0  0  0  0
  160.7950  201.6630  149.3820 C   0  0  0  0  0  0  0  0  0  0  0  0
  161.0330  201.4550  146.7590 C   0  0  0  0  0  3  0  0  0  0  0  0
  160.9250  201.5500  147.9550 C   0  0  0  0  0  0  0  0  0  0  0  0
  161.9470  205.8200  153.1930 C   0  0  0  0  0  2  0  0  0  0  0  0
  160.8450  206.4870  154.0050 C   0  0  0  0  0  2  0  0  0  0  0  0
  160.7320  208.6820  152.7630 N   0  0  0  0  0  2  0  0  0  0  0  0
  161.2920  208.5880  155.0300 O   0  0  0  0  0  0  0  0  0  0  0  0
  160.9810  207.9710  153.9760 C   0  0  0  0  0  0  0  0  0  0  0  0
  160.8230  210.1020  152.6890 C   0  0  0  0  0  3  0  0  0  0  0  0
  159.7430  210.8280  152.7480 C   0  0  0  0  0  0  0  0  0  0  0  0
  158.6600  211.5570  152.8080 C   0  0  0  0  0  3  0  0  0  0  0  0
  158.6840  213.0560  152.8070 C   0  0  0  0  0  2  0  0  0  0  0  0
  158.4030  213.6360  150.6950 C   0  0  0  0  0  1  0  0  0  0  0  0
  159.3680  213.5650  151.6990 O   0  0  0  0  0  0  0  0  0  0  0  0
  1  8  1  0  0  0  0
  1  9  1  0  0  0  0
  2  4  1  0  0  0  0
  2  6  2  0  0  0  0
  3  5  2  0  0  0  0
  4  1  2  0  0  0  0
  5 17  1  0  0  0  0
  6  7  1  0  0  0  0
  7  9  2  0  0  0  0
  8  3  1  0  0  0  0
  9  5  1  0  0  0  0
 11  6  1  0  0  0  0
 11 10  1  0  0  0  0
 12  8  1  0  0  0  0
 14 12  1  0  0  0  0
 14 13  2  0  0  0  0
 15 16  3  0  0  0  0
 16 14  1  0  0  0  0
 17 18  1  0  0  0  0
 19 21  1  0  0  0  0
 21 18  1  0  0  0  0
 21 20  2  0  0  0  0
 22 23  2  0  0  0  0
 22 19  1  0  0  0  0
 23 24  2  0  0  0  0
 25 24  1  0  0  0  0
 26 27  1  0  0  0  0
 27 25  1  0  0  0  0
M  END
>  <MODEL>
7

>  <REMARK>
 VINA RESULT:      -7.0      2.304      8.808
  Name = 
  10 active torsions:
  status: ('A' for Active; 'I' for Inactive)
    1  A    between atoms: N_1  and  C_5
    2  A    between atoms: C_6  and  C_7
    3  A    between atoms: C_6  and  C_14
    4  A    between atoms: C_7  and  N_25
    5  A    between atoms: C_10  and  C_24
    6  A    between atoms: C_17  and  C_20
    7  A    between atoms: N_18  and  C_19
    8  A    between atoms: C_20  and  C_23
    9  A    between atoms: C_21  and  C_23
   10  A    between atoms: C_24  and  O_27
                            x       y       z     vdW  Elec       q    Type
                         _______ _______ _______ _____ _____    ______ ____

>  <TORSDO>
F 10

$$$$
=
 OpenBabel11052411173D

 27 28  0  0  0  0  0  0  0  0999 V2000
  160.9440  208.5560  153.3090 C   0  0  0  0  0  0  0  0  0  0  0  0
  161.1430  210.2720  151.6500 C   0  0  0  0  0  3  0  0  0  0  0  0
  160.9980  206.6620  154.3800 C   0  0  0  0  0  3  0  0  0  0  0  0
  160.7580  209.8900  152.9480 C   0  0  0  0  0  3  0  0  0  0  0  0
  161.5250  206.4380  153.1100 C   0  0  0  0  0  0  0  0  0  0  0  0
  161.6940  209.3330  150.7500 C   0  0  0  0  0  0  0  0  0  0  0  0
  161.8670  207.9900  151.1500 C   0  0  0  0  0  3  0  0  0  0  0  0
  160.6480  207.9660  154.4830 N   0  0  0  0  0  0  0  0  0  0  0  0
  161.4790  207.6430  152.4420 C   0  0  0  0  0  0  0  0  0  0  0  0
  162.1060  211.1670  149.0520 C   0  0  0  0  0  1  0  0  0  0  0  0
  162.0690  209.7660  149.4400 N   0  0  0  0  0  2  0  0  0  0  0  0
  160.0950  208.6050  155.6680 C   0  0  0  0  0  2  0  0  0  0  0  0
  162.1560  208.5610  156.8640 O   0  0  0  0  0  0  0  0  0  0  0  0
  161.1820  209.2470  156.4610 C   0  0  0  0  0  0  0  0  0  0  0  0
  161.1010  211.8410  156.9540 C   0  0  0  0  0  3  0  0  0  0  0  0
  161.1390  210.6580  156.7300 C   0  0  0  0  0  0  0  0  0  0  0  0
  161.9910  205.1260  152.5710 C   0  0  0  0  0  2  0  0  0  0  0  0
  160.8240  204.1690  152.3690 C   0  0  0  0  0  2  0  0  0  0  0  0
  161.1950  204.4700  149.8900 N   0  0  0  0  0  2  0  0  0  0  0  0
  160.4680  202.4340  150.7780 O   0  0  0  0  0  0  0  0  0  0  0  0
  160.8050  203.6310  150.9790 C   0  0  0  0  0  0  0  0  0  0  0  0
  161.2190  203.9970  148.5460 C   0  0  0  0  0  3  0  0  0  0  0  0
  161.8850  204.6520  147.6370 C   0  0  0  0  0  0  0  0  0  0  0  0
  162.5530  205.3080  146.7250 C   0  0  0  0  0  3  0  0  0  0  0  0
  162.6810  204.8330  145.3080 C   0  0  0  0  0  2  0  0  0  0  0  0
  161.1710  205.4570  143.8230 C   0  0  0  0  0  1  0  0  0  0  0  0
  161.4450  204.4680  144.7680 O   0  0  0  0  0  0  0  0  0  0  0  0
  1  8  1  0  0  0  0
  2  4  2  0  0  0  0
  3  8  1  0  0  0  0
  4  1  1  0  0  0  0
  5  3  2  0  0  0  0
  6  7  2  0  0  0  0
  6  2  1  0  0  0  0
  7  9  1  0  0  0  0
  8 12  1  0  0  0  0
  9  5  1  0  0  0  0
  9  1  2  0  0  0  0
 10 11  1  0  0  0  0
 11  6  1  0  0  0  0
 12 14  1  0  0  0  0
 14 16  1  0  0  0  0
 14 13  2  0  0  0  0
 16 15  3  0  0  0  0
 17  5  1  0  0  0  0
 18 17  1  0  0  0  0
 19 21  1  0  0  0  0
 20 21  2  0  0  0  0
 21 18  1  0  0  0  0
 22 19  1  0  0  0  0
 23 22  2  0  0  0  0
 24 23  2  0  0  0  0
 25 24  1  0  0  0  0
 26 27  1  0  0  0  0
 27 25  1  0  0  0  0
M  END
>  <MODEL>
8

>  <REMARK>
 VINA RESULT:      -6.9      2.940      5.253
  Name = 
  10 active torsions:
  status: ('A' for Active; 'I' for Inactive)
    1  A    between atoms: N_1  and  C_5
    2  A    between atoms: C_6  and  C_7
    3  A    between atoms: C_6  and  C_14
    4  A    between atoms: C_7  and  N_25
    5  A    between atoms: C_10  and  C_24
    6  A    between atoms: C_17  and  C_20
    7  A    between atoms: N_18  and  C_19
    8  A    between atoms: C_20  and  C_23
    9  A    between atoms: C_21  and  C_23
   10  A    between atoms: C_24  and  O_27
                            x       y       z     vdW  Elec       q    Type
                         _______ _______ _______ _____ _____    ______ ____

>  <TORSDO>
F 10

$$$$
=
 OpenBabel11052411173D

 27 28  0  0  0  0  0  0  0  0999 V2000
  161.3970  205.9460  148.8120 C   0  0  0  0  0  0  0  0  0  0  0  0
  161.4840  204.1020  147.2860 C   0  0  0  0  0  3  0  0  0  0  0  0
  161.2290  207.1820  150.5940 C   0  0  0  0  0  3  0  0  0  0  0  0
  161.5470  205.4900  147.5020 C   0  0  0  0  0  3  0  0  0  0  0  0
  161.0920  205.8550  150.9940 C   0  0  0  0  0  0  0  0  0  0  0  0
  161.2730  203.2080  148.3590 C   0  0  0  0  0  0  0  0  0  0  0  0
  161.1250  203.7050  149.6720 C   0  0  0  0  0  3  0  0  0  0  0  0
  161.4150  207.2170  149.2530 N   0  0  0  0  0  0  0  0  0  0  0  0
  161.1950  205.0840  149.8550 C   0  0  0  0  0  0  0  0  0  0  0  0
  160.8160  201.2630  146.8030 C   0  0  0  0  0  1  0  0  0  0  0  0
  161.2150  201.8050  148.0910 N   0  0  0  0  0  2  0  0  0  0  0  0
  161.6360  208.4170  148.4590 C   0  0  0  0  0  2  0  0  0  0  0  0
  162.3120  209.3610  150.5410 O   0  0  0  0  0  0  0  0  0  0  0  0
  161.9740  209.5670  149.3460 C   0  0  0  0  0  0  0  0  0  0  0  0
  161.9390  212.0280  148.3900 C   0  0  0  0  0  3  0  0  0  0  0  0
  161.9550  210.9060  148.8280 C   0  0  0  0  0  0  0  0  0  0  0  0
  160.8280  205.3780  152.3840 C   0  0  0  0  0  2  0  0  0  0  0  0
  161.7140  206.1000  153.3900 C   0  0  0  0  0  2  0  0  0  0  0  0
  161.1550  208.5500  153.6240 N   0  0  0  0  0  2  0  0  0  0  0  0
  160.1710  206.9360  154.9980 O   0  0  0  0  0  0  0  0  0  0  0  0
  160.9720  207.2040  154.0630 C   0  0  0  0  0  0  0  0  0  0  0  0
  160.4500  209.6380  154.2160 C   0  0  0  0  0  3  0  0  0  0  0  0
  160.1950  210.7070  153.5170 C   0  0  0  0  0  0  0  0  0  0  0  0
  159.9370  211.7790  152.8150 C   0  0  0  0  0  3  0  0  0  0  0  0
  159.1410  212.9320  153.3490 C   0  0  0  0  0  2  0  0  0  0  0  0
  158.7580  213.5770  155.4250 C   0  0  0  0  0  1  0  0  0  0  0  0
  158.4320  212.5850  154.5020 O   0  0  0  0  0  0  0  0  0  0  0  0
  1  8  1  0  0  0  0
  1  9  1  0  0  0  0
  2  4  1  0  0  0  0
  2  6  2  0  0  0  0
  3  5  2  0  0  0  0
  4  1  2  0  0  0  0
  5 17  1  0  0  0  0
  6  7  1  0  0  0  0
  7  9  2  0  0  0  0
  8  3  1  0  0  0  0
  9  5  1  0  0  0  0
 10 11  1  0  0  0  0
 11  6  1  0  0  0  0
 12  8  1  0  0  0  0
 12 14  1  0  0  0  0
 14 13  2  0  0  0  0
 15 16  3  0  0  0  0
 16 14  1  0  0  0  0
 17 18  1  0  0  0  0
 18 21  1  0  0  0  0
 19 21  1  0  0  0  0
 19 22  1  0  0  0  0
 21 20  2  0  0  0  0
 23 22  2  0  0  0  0
 24 25  1  0  0  0  0
 24 23  2  0  0  0  0
 25 27  1  0  0  0  0
 27 26  1  0  0  0  0
M  END
>  <MODEL>
9

>  <REMARK>
 VINA RESULT:      -6.4      3.035      7.933
  Name = 
  10 active torsions:
  status: ('A' for Active; 'I' for Inactive)
    1  A    between atoms: N_1  and  C_5
    2  A    between atoms: C_6  and  C_7
    3  A    between atoms: C_6  and  C_14
    4  A    between atoms: C_7  and  N_25
    5  A    between atoms: C_10  and  C_24
    6  A    between atoms: C_17  and  C_20
    7  A    between atoms: N_18  and  C_19
    8  A    between atoms: C_20  and  C_23
    9  A    between atoms: C_21  and  C_23
   10  A    between atoms: C_24  and  O_27
                            x       y       z     vdW  Elec       q    Type
                         _______ _______ _______ _____ _____    ______ ____

>  <TORSDO>
F 10

$$$$
