=
 OpenBabel11052412003D

 70 76  0  0  1  0  0  0  0  0999 V2000
  160.8280  208.9650  150.3310 C   0  0  0  0  0  2  0  0  0  0  0  0
  161.4750  210.3080  152.3440 C   0  0  0  0  0  0  0  0  0  0  0  0
  163.0460  208.5380  151.5070 C   0  0  0  0  0  2  0  0  0  0  0  0
  161.7590  209.2390  151.4300 N   0  0  0  0  0  0  0  0  0  0  0  0
  162.2500  206.9540  149.6660 C   0  0  2  0  0  3  0  0  0  0  0  0
  160.3000  211.1030  152.1710 N   0  0  0  0  0  2  0  0  0  0  0  0
  162.8820  207.0860  151.0620 C   0  0  0  0  0  2  0  0  0  0  0  0
  161.5390  208.2410  149.1930 C   0  0  1  0  0  3  0  0  0  0  0  0
  162.2700  210.5570  153.2920 O   0  0  0  0  0  0  0  0  0  0  0  0
  157.6150  213.2160  154.0270 C   0  0  1  0  0  3  0  0  0  0  0  0
  158.4930  212.2090  153.3840 C   0  0  2  0  0  0  0  0  0  0  0  0
  156.1810  212.6810  154.1410 C   0  0  0  0  0  2  0  0  0  0  0  0
  158.7240  212.8500  151.0830 O   0  0  0  0  0  1  0  0  0  0  0  0
  158.0430  211.3210  155.5290 C   0  0  0  0  0  2  0  0  0  0  0  0
  155.8030  212.5170  155.6110 C   0  0  0  0  0  2  0  0  0  0  0  0
  159.9920  212.2430  153.0290 C   0  0  2  0  0  3  0  0  0  0  0  0
  158.5910  212.4980  154.8440 N   0  0  2  0  0  0  0  0  0  0  0  0
  156.8400  211.7020  156.3910 C   0  0  0  0  0  2  0  0  0  0  0  0
  159.0840  213.2220  152.3830 C   0  0  2  0  0  3  0  0  0  0  0  0
  161.3220  205.7490  149.6540 C   0  0  0  0  0  2  0  0  0  0  0  0
  161.9230  204.6750  148.8810 N   0  0  0  0  0  2  0  0  0  0  0  0
  160.5100  200.9460  150.9020 O   0  0  0  0  0  1  0  0  0  0  0  0
  161.8930  203.4830  149.7100 C   0  0  2  0  0  3  0  0  0  0  0  0
  160.9700  201.5330  148.6470 N   0  0  0  0  0  0  0  0  0  0  0  0
  162.2140  202.2660  148.8540 C   0  0  0  0  0  2  0  0  0  0  0  0
  160.4810  203.2520  150.2090 C   0  0  1  0  0  3  0  0  0  0  0  0
  160.1700  201.8070  149.8470 C   0  0  0  0  0  0  0  0  0  0  0  0
  158.8130  201.6770  149.5550 O   0  0  0  0  0  1  0  0  0  0  0  0
  161.2890  200.1150  148.5000 C   0  0  0  0  0  2  0  0  0  0  0  0
  161.5840  199.8410  147.1620 O   0  0  0  0  0  0  0  0  0  0  0  0
  160.8630  200.7970  146.4430 C   0  0  0  0  0  2  0  0  0  0  0  0
  159.6620  201.1300  144.4060 O   0  0  0  0  0  1  0  0  0  0  0  0
  160.2160  200.1490  145.2290 C   0  0  0  0  0  2  0  0  0  0  0  0
  160.3410  203.5610  151.6980 C   0  0  0  0  0  2  0  0  0  0  0  0
  161.3680  204.5920  152.1500 C   0  0  0  0  0  2  0  0  0  0  0  0
  161.1120  205.0070  153.5930 C   0  0  0  0  0  2  0  0  0  0  0  0
  160.8630  206.5020  153.6920 C   0  0  0  0  0  2  0  0  0  0  0  0
  160.6200  206.8870  155.1420 C   0  0  0  0  0  2  0  0  0  0  0  0
  160.6500  208.3960  155.2780 C   0  0  0  0  0  1  0  0  0  0  0  0
  160.6340  207.9900  148.1210 O   0  0  0  0  0  0  0  0  0  0  0  0
  161.5130  206.9240  146.1500 C   0  0  0  0  0  3  0  0  0  0  0  0
  161.6290  205.8140  145.3080 C   0  0  0  0  0  0  0  0  0  0  0  0
  160.7210  206.8620  147.3010 C   0  0  0  0  0  0  0  0  0  0  0  0
  160.1560  204.5590  146.7740 C   0  0  0  0  0  3  0  0  0  0  0  0
  160.0430  205.6730  147.6120 C   0  0  0  0  0  3  0  0  0  0  0  0
  160.9430  204.6290  145.6240 C   0  0  0  0  0  3  0  0  0  0  0  0
  161.9840  206.2400  142.9260 C   0  0  0  0  0  3  0  0  0  0  0  0
  162.4780  205.9180  144.1130 C   0  0  0  0  0  3  0  0  0  0  0  0
  162.8660  206.3240  141.7310 C   0  0  0  0  0  2  0  0  0  0  0  0
  161.8610  208.4360  140.8190 C   0  0  0  0  0  2  0  0  0  0  0  0
  161.1580  208.3100  138.3550 C   0  0  0  0  0  2  0  0  0  0  0  0
  162.7560  206.7430  139.3680 O   0  0  0  0  0  0  0  0  0  0  0  0
  161.7740  206.8980  138.3690 C   0  0  2  0  0  3  0  0  0  0  0  0
  162.0890  206.9400  140.5850 C   0  0  1  0  0  3  0  0  0  0  0  0
  162.3660  206.5900  137.0140 C   0  0  0  0  0  1  0  0  0  0  0  0
  161.6860  209.1950  139.4920 C   0  0  1  0  0  3  0  0  0  0  0  0
  160.8000  210.3830  139.6720 C   0  0  0  0  0  0  0  0  0  0  0  0
  161.3070  211.6990  139.4340 N   0  0  0  0  0  2  0  0  0  0  0  0
  159.6180  210.2220  140.0780 O   0  0  0  0  0  0  0  0  0  0  0  0
  160.5950  212.8080  139.7480 O   0  0  0  0  0  0  0  0  0  0  0  0
  161.5270  213.6850  140.3090 C   0  0  0  0  0  2  0  0  0  0  0  0
  162.0810  213.1110  141.6120 C   0  0  0  0  0  2  0  0  0  0  0  0
  159.9200  212.6210  142.8360 C   0  0  0  0  0  1  0  0  0  0  0  0
  161.2100  213.4220  142.8320 C   0  0  1  0  0  3  0  0  0  0  0  0
  162.1100  213.1990  144.3970 S   0  0  0  0  0  0  0  0  0  0  0  0
  160.6340  213.5470  145.3900 C   0  0  1  0  0  3  0  0  0  0  0  0
  159.9220  212.3750  145.5710 F   0  0  0  0  0  0  0  0  0  0  0  0
  161.0350  214.0980  146.7460 C   0  0  0  0  0  2  0  0  0  0  0  0
  161.4070  212.5730  149.2590 O   0  0  0  0  0  0  0  0  0  0  0  0
  161.8280  212.7670  147.7780 P   0  0  0  0  0  0  0  0  0  0  0  0
  1  4  1  0  0  0  0
  2  9  2  0  0  0  0
  4  3  1  0  0  0  0
  4  2  1  0  0  0  0
  5 20  1  1  0  0  0
  5  7  1  0  0  0  0
  6  2  1  0  0  0  0
  6 16  1  0  0  0  0
  7  3  1  0  0  0  0
  8 40  1  6  0  0  0
  8  5  1  0  0  0  0
  8  1  1  0  0  0  0
 10 12  1  1  0  0  0
 10 17  1  0  0  0  0
 11 10  1  0  0  0  0
 11 17  1  0  0  0  0
 12 15  1  0  0  0  0
 13 19  1  0  0  0  0
 14 18  1  0  0  0  0
 15 18  1  0  0  0  0
 16 11  1  0  0  0  0
 17 14  1  0  0  0  0
 19 16  1  0  0  0  0
 19 11  1  0  0  0  0
 21 20  1  0  0  0  0
 21 23  1  0  0  0  0
 23 26  1  0  0  0  0
 24 25  1  0  0  0  0
 24 27  1  0  0  0  0
 25 23  1  0  0  0  0
 26 34  1  0  0  0  0
 27 26  1  0  0  0  0
 27 22  1  0  0  0  0
 28 27  1  0  0  0  0
 29 24  1  0  0  0  0
 30 29  1  0  0  0  0
 31 30  1  0  0  0  0
 32 33  1  0  0  0  0
 33 31  1  0  0  0  0
 34 35  1  0  0  0  0
 35 36  1  0  0  0  0
 36 37  1  0  0  0  0
 37 38  1  0  0  0  0
 38 39  1  0  0  0  0
 41 43  1  0  0  0  0
 42 46  1  0  0  0  0
 42 41  2  0  0  0  0
 43 45  2  0  0  0  0
 43 40  1  0  0  0  0
 44 45  1  0  0  0  0
 46 44  2  0  0  0  0
 47 48  2  0  0  0  0
 48 42  1  0  0  0  0
 49 47  1  0  0  0  0
 51 53  1  0  0  0  0
 51 56  1  0  0  0  0
 52 54  1  0  0  0  0
 53 52  1  0  0  0  0
 54 50  1  0  0  0  0
 54 49  1  0  0  0  0
 55 53  1  0  0  0  0
 56 57  1  0  0  0  0
 56 50  1  0  0  0  0
 57 59  2  0  0  0  0
 58 57  1  0  0  0  0
 58 60  1  0  0  0  0
 60 61  1  0  0  0  0
 61 62  1  0  0  0  0
 62 64  1  0  0  0  0
 64 63  1  0  0  0  0
 64 65  1  0  0  0  0
 65 66  1  0  0  0  0
 66 67  1  0  0  0  0
 66 68  1  0  0  0  0
 68 70  1  0  0  0  0
 70 69  2  0  0  0  0
M  END
>  <MODEL>
1

>  <REMARK>
 VINA RESULT:      -0.5      0.000      0.000
  Name = 
  27 active torsions:
  status: ('A' for Active; 'I' for Inactive)
    1  A    between atoms: C_5  and  N_32
    2  A    between atoms: C_5  and  O_36
    3  A    between atoms: C_9  and  C_16
    4  A    between atoms: C_10  and  C_11
    5  A    between atoms: C_10  and  S_64
    6  A    between atoms: C_11  and  P_55
    7  A    between atoms: C_14  and  C_23
    8  A    between atoms: C_15  and  C_23
    9  A    between atoms: C_15  and  C_57
   10  A    between atoms: C_16  and  O_36
   11  A    between atoms: C_18  and  C_19
   12  A    between atoms: C_19  and  C_41
   13  A    between atoms: C_20  and  C_65
   14  A    between atoms: N_25  and  O_62
   15  A    between atoms: C_29  and  C_63
   16  A    between atoms: C_30  and  N_31
   17  A    between atoms: N_31  and  C_54
   18  A    between atoms: O_33  and  C_39
   19  A    between atoms: O_33  and  C_58
   20  A    between atoms: C_42  and  C_43
   21  A    between atoms: C_42  and  C_57
   22  A    between atoms: C_45  and  C_54
   23  A    between atoms: N_46  and  C_56
   24  A    between atoms: C_52  and  C_60
   25  A    between atoms: C_52  and  C_61
   26  A    between atoms: C_60  and  S_64
   27  A    between atoms: C_61  and  O_62
                            x       y       z     vdW  Elec       q    Type
                         _______ _______ _______ _____ _____    ______ ____

>  <TORSDO>
F 27

$$$$
=
 OpenBabel11052412003D

 70 76  0  0  1  0  0  0  0  0999 V2000
  161.7520  210.2050  149.7270 C   0  0  0  0  0  2  0  0  0  0  0  0
  161.1690  210.0860  152.1610 C   0  0  0  0  0  0  0  0  0  0  0  0
  162.1120  208.0510  151.0360 C   0  0  0  0  0  2  0  0  0  0  0  0
  161.6270  209.4330  150.9680 N   0  0  0  0  0  0  0  0  0  0  0  0
  162.3980  208.0650  148.4970 C   0  0  2  0  0  3  0  0  0  0  0  0
  160.8530  211.4800  152.1360 N   0  0  0  0  0  2  0  0  0  0  0  0
  161.8300  207.3270  149.7200 C   0  0  0  0  0  2  0  0  0  0  0  0
  162.7480  209.5420  148.7820 C   0  0  1  0  0  3  0  0  0  0  0  0
  161.0610  209.4370  153.2360 O   0  0  0  0  0  0  0  0  0  0  0  0
  157.9770  212.6880  154.4570 C   0  0  1  0  0  3  0  0  0  0  0  0
  158.9340  212.0130  153.5480 C   0  0  2  0  0  0  0  0  0  0  0  0
  156.5650  212.1140  154.2700 C   0  0  0  0  0  2  0  0  0  0  0  0
  159.2540  213.4670  151.6660 O   0  0  0  0  0  1  0  0  0  0  0  0
  158.4140  210.3830  155.1800 C   0  0  0  0  0  2  0  0  0  0  0  0
  156.1180  211.4070  155.5480 C   0  0  0  0  0  2  0  0  0  0  0  0
  160.4460  212.2140  153.3310 C   0  0  2  0  0  3  0  0  0  0  0  0
  158.9410  211.7420  155.0150 N   0  0  2  0  0  0  0  0  0  0  0  0
  157.1510  210.3860  156.0400 C   0  0  0  0  0  2  0  0  0  0  0  0
  159.5280  213.3390  153.0330 C   0  0  2  0  0  3  0  0  0  0  0  0
  161.4270  207.9210  147.3350 C   0  0  0  0  0  2  0  0  0  0  0  0
  161.9220  206.9220  146.4030 N   0  0  0  0  0  2  0  0  0  0  0  0
  160.5170  202.9380  147.8670 O   0  0  0  0  0  1  0  0  0  0  0  0
  161.1180  205.7270  146.5890 C   0  0  2  0  0  3  0  0  0  0  0  0
  160.7960  205.0680  148.8790 N   0  0  0  0  0  0  0  0  0  0  0  0
  160.2370  205.8980  147.8180 C   0  0  0  0  0  2  0  0  0  0  0  0
  162.0250  204.5570  146.9140 C   0  0  1  0  0  3  0  0  0  0  0  0
  161.4390  203.9490  148.1800 C   0  0  0  0  0  0  0  0  0  0  0  0
  162.4630  203.4220  148.9660 O   0  0  0  0  0  1  0  0  0  0  0  0
  159.7060  204.6320  149.7470 C   0  0  0  0  0  2  0  0  0  0  0  0
  160.1890  203.6980  150.6680 O   0  0  0  0  0  0  0  0  0  0  0  0
  160.8150  204.4680  151.6510 C   0  0  0  0  0  2  0  0  0  0  0  0
  161.7330  202.3080  152.0900 O   0  0  0  0  0  1  0  0  0  0  0  0
  161.4920  203.5580  152.6640 C   0  0  0  0  0  2  0  0  0  0  0  0
  162.1340  203.5750  145.7490 C   0  0  0  0  0  2  0  0  0  0  0  0
  161.3880  204.0830  144.5220 C   0  0  0  0  0  2  0  0  0  0  0  0
  159.8840  203.9520  144.7170 C   0  0  0  0  0  2  0  0  0  0  0  0
  159.3760  202.6350  144.1540 C   0  0  0  0  0  2  0  0  0  0  0  0
  159.8030  201.4910  145.0580 C   0  0  0  0  0  2  0  0  0  0  0  0
  158.6490  201.0980  145.9580 C   0  0  0  0  0  1  0  0  0  0  0  0
  162.8770  210.3040  147.5840 O   0  0  0  0  0  0  0  0  0  0  0  0
  162.3220  212.2770  146.3210 C   0  0  0  0  0  3  0  0  0  0  0  0
  162.1090  213.6570  146.2370 C   0  0  0  0  0  0  0  0  0  0  0  0
  162.6780  211.6870  147.5380 C   0  0  0  0  0  0  0  0  0  0  0  0
  162.6030  213.8680  148.6050 C   0  0  0  0  0  3  0  0  0  0  0  0
  162.8170  212.4880  148.6830 C   0  0  0  0  0  3  0  0  0  0  0  0
  162.2540  214.4520  147.3870 C   0  0  0  0  0  3  0  0  0  0  0  0
  162.2680  213.8260  143.8030 C   0  0  0  0  0  3  0  0  0  0  0  0
  161.7280  214.2360  144.9420 C   0  0  0  0  0  3  0  0  0  0  0  0
  161.8730  214.4430  142.5080 C   0  0  0  0  0  2  0  0  0  0  0  0
  160.2260  213.2480  141.0370 C   0  0  0  0  0  2  0  0  0  0  0  0
  161.2830  211.7710  139.2250 C   0  0  0  0  0  2  0  0  0  0  0  0
  162.5080  213.5720  140.3610 O   0  0  0  0  0  0  0  0  0  0  0  0
  162.6320  212.3210  139.7250 C   0  0  2  0  0  3  0  0  0  0  0  0
  161.6890  213.3480  141.4750 C   0  0  1  0  0  3  0  0  0  0  0  0
  163.5960  212.4270  138.5660 C   0  0  0  0  0  1  0  0  0  0  0  0
  160.1000  212.6660  139.6180 C   0  0  1  0  0  3  0  0  0  0  0  0
  158.8160  211.9200  139.4620 C   0  0  0  0  0  0  0  0  0  0  0  0
  158.3300  211.5930  138.1570 N   0  0  0  0  0  2  0  0  0  0  0  0
  158.1430  211.6200  140.4840 O   0  0  0  0  0  0  0  0  0  0  0  0
  157.0950  211.0710  137.9640 O   0  0  0  0  0  0  0  0  0  0  0  0
  156.9480  210.1160  138.9720 C   0  0  0  0  0  2  0  0  0  0  0  0
  155.7750  209.1880  138.6590 C   0  0  0  0  0  2  0  0  0  0  0  0
  153.9420  208.5530  137.0340 C   0  0  0  0  0  1  0  0  0  0  0  0
  155.0840  209.5080  137.3320 C   0  0  1  0  0  3  0  0  0  0  0  0
  154.5150  211.2340  137.2490 S   0  0  0  0  0  0  0  0  0  0  0  0
  153.2150  210.9500  138.4810 C   0  0  1  0  0  3  0  0  0  0  0  0
  153.7110  210.1410  139.4870 F   0  0  0  0  0  0  0  0  0  0  0  0
  152.7660  212.2690  139.0810 C   0  0  0  0  0  2  0  0  0  0  0  0
  154.8460  214.3020  139.6520 O   0  0  0  0  0  0  0  0  0  0  0  0
  153.9320  213.6340  138.5880 P   0  0  0  0  0  0  0  0  0  0  0  0
  1  4  1  0  0  0  0
  2  9  2  0  0  0  0
  4  3  1  0  0  0  0
  4  2  1  0  0  0  0
  5 20  1  6  0  0  0
  5  8  1  0  0  0  0
  5  7  1  0  0  0  0
  6  2  1  0  0  0  0
  6 16  1  0  0  0  0
  7  3  1  0  0  0  0
  8 40  1  6  0  0  0
  8  1  1  0  0  0  0
 10 12  1  6  0  0  0
 10 17  1  0  0  0  0
 11 10  1  0  0  0  0
 11 17  1  0  0  0  0
 12 15  1  0  0  0  0
 13 19  1  0  0  0  0
 14 18  1  0  0  0  0
 15 18  1  0  0  0  0
 16 11  1  0  0  0  0
 17 14  1  0  0  0  0
 19 16  1  0  0  0  0
 19 11  1  0  0  0  0
 21 23  1  0  0  0  0
 21 20  1  0  0  0  0
 22 27  1  0  0  0  0
 23 26  1  0  0  0  0
 23 25  1  0  0  0  0
 24 29  1  0  0  0  0
 25 24  1  0  0  0  0
 26 27  1  0  0  0  0
 27 24  1  0  0  0  0
 27 28  1  0  0  0  0
 29 30  1  0  0  0  0
 30 31  1  0  0  0  0
 31 33  1  0  0  0  0
 32 33  1  0  0  0  0
 34 26  1  0  0  0  0
 35 36  1  0  0  0  0
 35 34  1  0  0  0  0
 37 36  1  0  0  0  0
 37 38  1  0  0  0  0
 38 39  1  0  0  0  0
 41 43  1  0  0  0  0
 42 41  2  0  0  0  0
 42 46  1  0  0  0  0
 43 40  1  0  0  0  0
 43 45  2  0  0  0  0
 44 45  1  0  0  0  0
 46 44  2  0  0  0  0
 47 48  2  0  0  0  0
 48 42  1  0  0  0  0
 49 47  1  0  0  0  0
 50 54  1  0  0  0  0
 51 56  1  0  0  0  0
 51 53  1  0  0  0  0
 52 54  1  0  0  0  0
 53 52  1  0  0  0  0
 54 49  1  0  0  0  0
 55 53  1  0  0  0  0
 56 50  1  0  0  0  0
 57 56  1  0  0  0  0
 57 59  2  0  0  0  0
 58 57  1  0  0  0  0
 60 58  1  0  0  0  0
 60 61  1  0  0  0  0
 62 61  1  0  0  0  0
 63 64  1  0  0  0  0
 64 62  1  0  0  0  0
 65 64  1  0  0  0  0
 65 66  1  0  0  0  0
 66 68  1  0  0  0  0
 66 67  1  0  0  0  0
 70 68  1  0  0  0  0
 70 69  2  0  0  0  0
M  END
>  <MODEL>
2

>  <REMARK>
 VINA RESULT:       0.0      3.474      6.273
  Name = 
  27 active torsions:
  status: ('A' for Active; 'I' for Inactive)
    1  A    between atoms: C_5  and  N_32
    2  A    between atoms: C_5  and  O_36
    3  A    between atoms: C_9  and  C_16
    4  A    between atoms: C_10  and  C_11
    5  A    between atoms: C_10  and  S_64
    6  A    between atoms: C_11  and  P_55
    7  A    between atoms: C_14  and  C_23
    8  A    between atoms: C_15  and  C_23
    9  A    between atoms: C_15  and  C_57
   10  A    between atoms: C_16  and  O_36
   11  A    between atoms: C_18  and  C_19
   12  A    between atoms: C_19  and  C_41
   13  A    between atoms: C_20  and  C_65
   14  A    between atoms: N_25  and  O_62
   15  A    between atoms: C_29  and  C_63
   16  A    between atoms: C_30  and  N_31
   17  A    between atoms: N_31  and  C_54
   18  A    between atoms: O_33  and  C_39
   19  A    between atoms: O_33  and  C_58
   20  A    between atoms: C_42  and  C_43
   21  A    between atoms: C_42  and  C_57
   22  A    between atoms: C_45  and  C_54
   23  A    between atoms: N_46  and  C_56
   24  A    between atoms: C_52  and  C_60
   25  A    between atoms: C_52  and  C_61
   26  A    between atoms: C_60  and  S_64
   27  A    between atoms: C_61  and  O_62
                            x       y       z     vdW  Elec       q    Type
                         _______ _______ _______ _____ _____    ______ ____

>  <TORSDO>
F 27

$$$$
=
 OpenBabel11052412003D

 70 76  0  0  1  0  0  0  0  0999 V2000
  161.2360  211.6720  147.0330 C   0  0  0  0  0  2  0  0  0  0  0  0
  161.9650  213.4220  145.3940 C   0  0  0  0  0  0  0  0  0  0  0  0
  162.9550  213.4280  147.7000 C   0  0  0  0  0  2  0  0  0  0  0  0
  162.0140  212.8760  146.7200 N   0  0  0  0  0  0  0  0  0  0  0  0
  161.9800  211.8600  149.4660 C   0  0  2  0  0  3  0  0  0  0  0  0
  161.1740  212.7850  144.3880 N   0  0  0  0  0  2  0  0  0  0  0  0
  162.3830  213.3000  149.1110 C   0  0  0  0  0  2  0  0  0  0  0  0
  161.8340  210.9430  148.2310 C   0  0  1  0  0  3  0  0  0  0  0  0
  162.6320  214.4530  145.1100 O   0  0  0  0  0  0  0  0  0  0  0  0
  161.3910  211.9390  140.5990 C   0  0  1  0  0  3  0  0  0  0  0  0
  161.1850  212.0370  142.0640 C   0  0  2  0  0  0  0  0  0  0  0  0
  161.3630  210.4700  140.1510 C   0  0  0  0  0  2  0  0  0  0  0  0
  163.3510  212.3310  143.0550 O   0  0  0  0  0  1  0  0  0  0  0  0
  159.0720  211.4070  141.2090 C   0  0  0  0  0  2  0  0  0  0  0  0
  160.1620  210.2270  139.2400 C   0  0  0  0  0  2  0  0  0  0  0  0
  161.1360  213.2540  143.0060 C   0  0  2  0  0  3  0  0  0  0  0  0
  160.1130  212.4360  141.1070 N   0  0  2  0  0  0  0  0  0  0  0  0
  158.8500  210.7170  139.8640 C   0  0  0  0  0  2  0  0  0  0  0  0
  162.3900  212.9760  142.2670 C   0  0  2  0  0  3  0  0  0  0  0  0
  160.7130  211.8930  150.3070 C   0  0  0  0  0  2  0  0  0  0  0  0
  160.7880  210.8810  151.3480 N   0  0  0  0  0  2  0  0  0  0  0  0
  158.2870  213.0070  154.3830 O   0  0  0  0  0  1  0  0  0  0  0  0
  159.7390  211.1750  152.3080 C   0  0  2  0  0  3  0  0  0  0  0  0
  158.7300  213.3450  152.0740 N   0  0  0  0  0  0  0  0  0  0  0  0
  158.6330  211.9620  151.6210 C   0  0  0  0  0  2  0  0  0  0  0  0
  160.2800  212.1040  153.3750 C   0  0  1  0  0  3  0  0  0  0  0  0
  159.2870  213.2560  153.4300 C   0  0  0  0  0  0  0  0  0  0  0  0
  159.9540  214.4380  153.7490 O   0  0  0  0  0  1  0  0  0  0  0  0
  157.3930  213.9320  152.0570 C   0  0  0  0  0  2  0  0  0  0  0  0
  156.4400  212.9260  152.2390 O   0  0  0  0  0  0  0  0  0  0  0  0
  155.3310  213.5880  152.7720 C   0  0  0  0  0  2  0  0  0  0  0  0
  155.0370  214.0980  155.0870 O   0  0  0  0  0  1  0  0  0  0  0  0
  155.7630  214.4500  153.9480 C   0  0  0  0  0  2  0  0  0  0  0  0
  160.4750  211.3910  154.7120 C   0  0  0  0  0  2  0  0  0  0  0  0
  159.9900  209.9490  154.6480 C   0  0  0  0  0  2  0  0  0  0  0  0
  159.3860  209.5270  155.9800 C   0  0  0  0  0  2  0  0  0  0  0  0
  159.7420  208.0870  156.3080 C   0  0  0  0  0  2  0  0  0  0  0  0
  161.0110  207.6920  155.5720 C   0  0  0  0  0  2  0  0  0  0  0  0
  160.7420  206.4690  154.7180 C   0  0  0  0  0  1  0  0  0  0  0  0
  161.0840  209.7660  148.5220 O   0  0  0  0  0  0  0  0  0  0  0  0
  160.7970  207.6000  149.5310 C   0  0  0  0  0  3  0  0  0  0  0  0
  161.2000  206.6050  150.4270 C   0  0  0  0  0  0  0  0  0  0  0  0
  161.5140  208.7970  149.4320 C   0  0  0  0  0  0  0  0  0  0  0  0
  163.0560  208.0020  151.1320 C   0  0  0  0  0  3  0  0  0  0  0  0
  162.6480  208.9950  150.2360 C   0  0  0  0  0  3  0  0  0  0  0  0
  162.3330  206.8130  151.2310 C   0  0  0  0  0  3  0  0  0  0  0  0
  160.0010  204.8570  151.6460 C   0  0  0  0  0  3  0  0  0  0  0  0
  160.4250  205.3590  150.4950 C   0  0  0  0  0  3  0  0  0  0  0  0
  159.2300  203.5850  151.6850 C   0  0  0  0  0  2  0  0  0  0  0  0
  160.0180  202.4750  149.5750 C   0  0  0  0  0  2  0  0  0  0  0  0
  161.9840  200.8560  149.8870 C   0  0  0  0  0  2  0  0  0  0  0  0
  161.4120  202.5930  151.5280 O   0  0  0  0  0  0  0  0  0  0  0  0
  161.9800  201.3150  151.3580 C   0  0  2  0  0  3  0  0  0  0  0  0
  160.0810  202.4730  151.1050 C   0  0  1  0  0  3  0  0  0  0  0  0
  163.3920  201.3040  151.8960 C   0  0  0  0  0  1  0  0  0  0  0  0
  161.2830  201.8560  148.9570 C   0  0  1  0  0  3  0  0  0  0  0  0
  160.9730  201.2080  147.6470 C   0  0  0  0  0  0  0  0  0  0  0  0
  160.0330  201.8120  146.7540 N   0  0  0  0  0  2  0  0  0  0  0  0
  161.5100  200.1060  147.3550 O   0  0  0  0  0  0  0  0  0  0  0  0
  159.5960  201.1760  145.6400 O   0  0  0  0  0  0  0  0  0  0  0  0
  160.1350  201.9060  144.5770 C   0  0  0  0  0  2  0  0  0  0  0  0
  159.5210  203.3040  144.5270 C   0  0  0  0  0  2  0  0  0  0  0  0
  161.1100  204.8220  143.2710 C   0  0  0  0  0  1  0  0  0  0  0  0
  160.5570  204.4270  144.6290 C   0  0  1  0  0  3  0  0  0  0  0  0
  159.9110  205.8830  145.5080 S   0  0  0  0  0  0  0  0  0  0  0  0
  161.5050  206.2080  146.3090 C   0  0  1  0  0  3  0  0  0  0  0  0
  161.4010  207.3510  147.0800 F   0  0  0  0  0  0  0  0  0  0  0  0
  161.8900  205.0410  147.1990 C   0  0  0  0  0  2  0  0  0  0  0  0
  164.2460  204.5720  145.4640 O   0  0  0  0  0  0  0  0  0  0  0  0
  163.1230  203.9460  146.3350 P   0  0  0  0  0  0  0  0  0  0  0  0
  1  8  1  0  0  0  0
  2  4  1  0  0  0  0
  3  7  1  0  0  0  0
  4  1  1  0  0  0  0
  4  3  1  0  0  0  0
  5 20  1  6  0  0  0
  6  2  1  0  0  0  0
  7  5  1  0  0  0  0
  8 40  1  1  0  0  0
  8  5  1  0  0  0  0
  9  2  2  0  0  0  0
 10 12  1  1  0  0  0
 10 17  1  0  0  0  0
 10 11  1  0  0  0  0
 11 19  1  0  0  0  0
 11 16  1  0  0  0  0
 15 18  1  0  0  0  0
 15 12  1  0  0  0  0
 16  6  1  0  0  0  0
 17 14  1  0  0  0  0
 17 11  1  0  0  0  0
 18 14  1  0  0  0  0
 19 16  1  0  0  0  0
 19 13  1  0  0  0  0
 20 21  1  0  0  0  0
 21 23  1  0  0  0  0
 23 26  1  0  0  0  0
 24 27  1  0  0  0  0
 25 24  1  0  0  0  0
 25 23  1  0  0  0  0
 26 27  1  0  0  0  0
 26 34  1  0  0  0  0
 27 28  1  0  0  0  0
 27 22  1  0  0  0  0
 29 24  1  0  0  0  0
 29 30  1  0  0  0  0
 30 31  1  0  0  0  0
 31 33  1  0  0  0  0
 33 32  1  0  0  0  0
 35 34  1  0  0  0  0
 35 36  1  0  0  0  0
 36 37  1  0  0  0  0
 38 37  1  0  0  0  0
 39 38  1  0  0  0  0
 40 43  1  0  0  0  0
 41 42  1  0  0  0  0
 42 48  1  0  0  0  0
 42 46  2  0  0  0  0
 43 41  2  0  0  0  0
 43 45  1  0  0  0  0
 44 46  1  0  0  0  0
 45 44  2  0  0  0  0
 47 49  1  0  0  0  0
 48 47  2  0  0  0  0
 50 54  1  0  0  0  0
 51 53  1  0  0  0  0
 53 52  1  0  0  0  0
 53 55  1  0  0  0  0
 54 52  1  0  0  0  0
 54 49  1  0  0  0  0
 56 50  1  0  0  0  0
 56 51  1  0  0  0  0
 57 56  1  0  0  0  0
 58 57  1  0  0  0  0
 59 57  2  0  0  0  0
 60 58  1  0  0  0  0
 61 60  1  0  0  0  0
 62 61  1  0  0  0  0
 62 64  1  0  0  0  0
 63 64  1  0  0  0  0
 64 65  1  0  0  0  0
 65 66  1  0  0  0  0
 66 67  1  0  0  0  0
 66 68  1  0  0  0  0
 69 70  2  0  0  0  0
 70 68  1  0  0  0  0
M  END
>  <MODEL>
3

>  <REMARK>
 VINA RESULT:       0.7      2.766     10.475
  Name = 
  27 active torsions:
  status: ('A' for Active; 'I' for Inactive)
    1  A    between atoms: C_5  and  N_32
    2  A    between atoms: C_5  and  O_36
    3  A    between atoms: C_9  and  C_16
    4  A    between atoms: C_10  and  C_11
    5  A    between atoms: C_10  and  S_64
    6  A    between atoms: C_11  and  P_55
    7  A    between atoms: C_14  and  C_23
    8  A    between atoms: C_15  and  C_23
    9  A    between atoms: C_15  and  C_57
   10  A    between atoms: C_16  and  O_36
   11  A    between atoms: C_18  and  C_19
   12  A    between atoms: C_19  and  C_41
   13  A    between atoms: C_20  and  C_65
   14  A    between atoms: N_25  and  O_62
   15  A    between atoms: C_29  and  C_63
   16  A    between atoms: C_30  and  N_31
   17  A    between atoms: N_31  and  C_54
   18  A    between atoms: O_33  and  C_39
   19  A    between atoms: O_33  and  C_58
   20  A    between atoms: C_42  and  C_43
   21  A    between atoms: C_42  and  C_57
   22  A    between atoms: C_45  and  C_54
   23  A    between atoms: N_46  and  C_56
   24  A    between atoms: C_52  and  C_60
   25  A    between atoms: C_52  and  C_61
   26  A    between atoms: C_60  and  S_64
   27  A    between atoms: C_61  and  O_62
                            x       y       z     vdW  Elec       q    Type
                         _______ _______ _______ _____ _____    ______ ____

>  <TORSDO>
F 27

$$$$
=
 OpenBabel11052412003D

 70 76  0  0  1  0  0  0  0  0999 V2000
  160.8960  208.3620  149.2130 C   0  0  0  0  0  2  0  0  0  0  0  0
  161.9510  209.7790  150.9890 C   0  0  0  0  0  0  0  0  0  0  0  0
  163.2280  207.8190  150.0790 C   0  0  0  0  0  2  0  0  0  0  0  0
  162.0050  208.6270  150.1350 N   0  0  0  0  0  0  0  0  0  0  0  0
  162.0350  206.1880  148.5150 C   0  0  2  0  0  3  0  0  0  0  0  0
  160.8300  210.6630  150.9260 N   0  0  0  0  0  2  0  0  0  0  0  0
  162.8830  206.3600  149.7850 C   0  0  0  0  0  2  0  0  0  0  0  0
  161.3630  207.4980  148.0460 C   0  0  1  0  0  3  0  0  0  0  0  0
  162.9000  210.0210  151.7840 O   0  0  0  0  0  0  0  0  0  0  0  0
  158.6640  213.6000  152.2680 C   0  0  1  0  0  3  0  0  0  0  0  0
  159.2790  212.3380  151.7920 C   0  0  2  0  0  0  0  0  0  0  0  0
  157.1370  213.5460  152.1080 C   0  0  0  0  0  2  0  0  0  0  0  0
  160.1090  212.7580  149.5790 O   0  0  0  0  0  1  0  0  0  0  0  0
  158.1930  211.7440  153.8070 C   0  0  0  0  0  2  0  0  0  0  0  0
  156.4690  213.5820  153.4810 C   0  0  0  0  0  2  0  0  0  0  0  0
  160.7490  211.8850  151.7220 C   0  0  2  0  0  3  0  0  0  0  0  0
  159.1990  212.6550  153.2470 N   0  0  2  0  0  0  0  0  0  0  0  0
  157.0380  212.5240  154.4330 C   0  0  0  0  0  2  0  0  0  0  0  0
  160.3290  213.0640  150.9280 C   0  0  2  0  0  3  0  0  0  0  0  0
  161.0230  205.0750  148.7400 C   0  0  0  0  0  2  0  0  0  0  0  0
  161.1810  204.0540  147.7180 N   0  0  0  0  0  2  0  0  0  0  0  0
  161.2060  200.0120  149.6280 O   0  0  0  0  0  1  0  0  0  0  0  0
  161.6380  202.8470  148.3850 C   0  0  2  0  0  3  0  0  0  0  0  0
  160.8490  200.7930  147.4140 N   0  0  0  0  0  0  0  0  0  0  0  0
  161.9260  201.7750  147.3450 C   0  0  0  0  0  2  0  0  0  0  0  0
  160.5130  202.2840  149.2300 C   0  0  1  0  0  3  0  0  0  0  0  0
  160.4030  200.8250  148.8120 C   0  0  0  0  0  0  0  0  0  0  0  0
  159.0750  200.4090  148.8980 O   0  0  0  0  0  1  0  0  0  0  0  0
  161.3860  199.4910  147.0280 C   0  0  0  0  0  2  0  0  0  0  0  0
  162.0080  199.5950  145.7810 O   0  0  0  0  0  0  0  0  0  0  0  0
  161.7110  198.3880  145.1410 C   0  0  0  0  0  2  0  0  0  0  0  0
  159.4010  197.8120  145.3190 O   0  0  0  0  0  1  0  0  0  0  0  0
  160.6460  197.6390  145.9260 C   0  0  0  0  0  2  0  0  0  0  0  0
  160.7620  202.4830  150.7240 C   0  0  0  0  0  2  0  0  0  0  0  0
  160.5330  203.9310  151.1370 C   0  0  0  0  0  2  0  0  0  0  0  0
  160.9090  204.1380  152.5980 C   0  0  0  0  0  2  0  0  0  0  0  0
  161.6660  205.4410  152.7870 C   0  0  0  0  0  2  0  0  0  0  0  0
  160.7950  206.4380  153.5330 C   0  0  0  0  0  2  0  0  0  0  0  0
  161.6010  207.6840  153.8390 C   0  0  0  0  0  1  0  0  0  0  0  0
  160.2860  207.2560  147.1450 O   0  0  0  0  0  0  0  0  0  0  0  0
  161.2900  206.9270  144.9820 C   0  0  0  0  0  3  0  0  0  0  0  0
  161.4570  206.1800  143.8110 C   0  0  0  0  0  0  0  0  0  0  0  0
  160.4230  206.4860  145.9870 C   0  0  0  0  0  0  0  0  0  0  0  0
  159.8850  204.5300  144.6500 C   0  0  0  0  0  3  0  0  0  0  0  0
  159.7200  205.2820  145.8170 C   0  0  0  0  0  3  0  0  0  0  0  0
  160.7470  204.9790  143.6480 C   0  0  0  0  0  3  0  0  0  0  0  0
  162.1320  206.5420  141.4890 C   0  0  0  0  0  3  0  0  0  0  0  0
  162.3840  206.6740  142.7840 C   0  0  0  0  0  3  0  0  0  0  0  0
  163.0970  207.0390  140.4710 C   0  0  0  0  0  2  0  0  0  0  0  0
  161.0910  207.9650  139.2790 C   0  0  0  0  0  2  0  0  0  0  0  0
  161.1030  210.5130  138.9830 C   0  0  0  0  0  2  0  0  0  0  0  0
  162.4900  209.3570  140.6480 O   0  0  0  0  0  0  0  0  0  0  0  0
  162.3990  210.4890  139.8160 C   0  0  2  0  0  3  0  0  0  0  0  0
  162.5070  208.2540  139.7830 C   0  0  1  0  0  3  0  0  0  0  0  0
  162.4900  211.7480  140.6470 C   0  0  0  0  0  1  0  0  0  0  0  0
  160.2520  209.2510  139.1810 C   0  0  1  0  0  3  0  0  0  0  0  0
  159.2350  209.1410  138.0940 C   0  0  0  0  0  0  0  0  0  0  0  0
  157.9120  209.6460  138.2950 N   0  0  0  0  0  2  0  0  0  0  0  0
  159.5360  208.5620  137.0160 O   0  0  0  0  0  0  0  0  0  0  0  0
  156.9160  209.4160  137.4070 O   0  0  0  0  0  0  0  0  0  0  0  0
  155.7960  209.1300  138.1910 C   0  0  0  0  0  2  0  0  0  0  0  0
  154.5150  209.5060  137.4480 C   0  0  0  0  0  2  0  0  0  0  0  0
  152.4180  210.3440  138.5890 C   0  0  0  0  0  1  0  0  0  0  0  0
  153.7910  210.7100  138.0540 C   0  0  1  0  0  3  0  0  0  0  0  0
  154.7820  211.5360  139.3370 S   0  0  0  0  0  0  0  0  0  0  0  0
  154.0890  213.1640  138.9390 C   0  0  1  0  0  3  0  0  0  0  0  0
  153.4270  213.6590  140.0480 F   0  0  0  0  0  0  0  0  0  0  0  0
  155.2000  214.1240  138.5540 C   0  0  0  0  0  2  0  0  0  0  0  0
  157.8660  213.8950  139.8280 O   0  0  0  0  0  0  0  0  0  0  0  0
  156.3860  214.3430  139.9720 P   0  0  0  0  0  0  0  0  0  0  0  0
  1  4  1  0  0  0  0
  2  9  2  0  0  0  0
  3  4  1  0  0  0  0
  4  2  1  0  0  0  0
  5 20  1  1  0  0  0
  5  7  1  0  0  0  0
  6  2  1  0  0  0  0
  6 16  1  0  0  0  0
  7  3  1  0  0  0  0
  8 40  1  6  0  0  0
  8  5  1  0  0  0  0
  8  1  1  0  0  0  0
 10 12  1  1  0  0  0
 10 17  1  0  0  0  0
 11 10  1  0  0  0  0
 11 17  1  0  0  0  0
 12 15  1  0  0  0  0
 13 19  1  0  0  0  0
 14 18  1  0  0  0  0
 15 18  1  0  0  0  0
 16 11  1  0  0  0  0
 17 14  1  0  0  0  0
 19 16  1  0  0  0  0
 19 11  1  0  0  0  0
 21 23  1  0  0  0  0
 21 20  1  0  0  0  0
 23 26  1  0  0  0  0
 24 27  1  0  0  0  0
 25 24  1  0  0  0  0
 25 23  1  0  0  0  0
 26 34  1  0  0  0  0
 27 28  1  0  0  0  0
 27 26  1  0  0  0  0
 27 22  1  0  0  0  0
 29 24  1  0  0  0  0
 30 29  1  0  0  0  0
 31 30  1  0  0  0  0
 31 33  1  0  0  0  0
 32 33  1  0  0  0  0
 34 35  1  0  0  0  0
 35 36  1  0  0  0  0
 36 37  1  0  0  0  0
 37 38  1  0  0  0  0
 38 39  1  0  0  0  0
 41 43  1  0  0  0  0
 42 41  2  0  0  0  0
 43 40  1  0  0  0  0
 44 45  1  0  0  0  0
 45 43  2  0  0  0  0
 46 42  1  0  0  0  0
 46 44  2  0  0  0  0
 47 48  2  0  0  0  0
 48 42  1  0  0  0  0
 49 47  1  0  0  0  0
 50 54  1  0  0  0  0
 51 56  1  0  0  0  0
 51 53  1  0  0  0  0
 53 55  1  0  0  0  0
 53 52  1  0  0  0  0
 54 49  1  0  0  0  0
 54 52  1  0  0  0  0
 56 50  1  0  0  0  0
 57 58  1  0  0  0  0
 57 56  1  0  0  0  0
 59 57  2  0  0  0  0
 60 61  1  0  0  0  0
 60 58  1  0  0  0  0
 62 64  1  0  0  0  0
 62 61  1  0  0  0  0
 64 63  1  0  0  0  0
 64 65  1  0  0  0  0
 66 65  1  0  0  0  0
 66 67  1  0  0  0  0
 68 66  1  0  0  0  0
 68 70  1  0  0  0  0
 69 70  2  0  0  0  0
M  END
>  <MODEL>
4

>  <REMARK>
 VINA RESULT:       1.3      3.196      4.044
  Name = 
  27 active torsions:
  status: ('A' for Active; 'I' for Inactive)
    1  A    between atoms: C_5  and  N_32
    2  A    between atoms: C_5  and  O_36
    3  A    between atoms: C_9  and  C_16
    4  A    between atoms: C_10  and  C_11
    5  A    between atoms: C_10  and  S_64
    6  A    between atoms: C_11  and  P_55
    7  A    between atoms: C_14  and  C_23
    8  A    between atoms: C_15  and  C_23
    9  A    between atoms: C_15  and  C_57
   10  A    between atoms: C_16  and  O_36
   11  A    between atoms: C_18  and  C_19
   12  A    between atoms: C_19  and  C_41
   13  A    between atoms: C_20  and  C_65
   14  A    between atoms: N_25  and  O_62
   15  A    between atoms: C_29  and  C_63
   16  A    between atoms: C_30  and  N_31
   17  A    between atoms: N_31  and  C_54
   18  A    between atoms: O_33  and  C_39
   19  A    between atoms: O_33  and  C_58
   20  A    between atoms: C_42  and  C_43
   21  A    between atoms: C_42  and  C_57
   22  A    between atoms: C_45  and  C_54
   23  A    between atoms: N_46  and  C_56
   24  A    between atoms: C_52  and  C_60
   25  A    between atoms: C_52  and  C_61
   26  A    between atoms: C_60  and  S_64
   27  A    between atoms: C_61  and  O_62
                            x       y       z     vdW  Elec       q    Type
                         _______ _______ _______ _____ _____    ______ ____

>  <TORSDO>
F 27

$$$$
