=
 OpenBabel11052409373D

 38 42  0  0  1  0  0  0  0  0999 V2000
  160.9570  203.0370  151.8890 O   0  0  0  0  0  0  0  0  0  0  0  0
  161.1310  203.5170  149.7160 C   0  0  0  0  0  0  0  0  0  0  0  0
  161.0670  201.8940  147.9680 C   0  0  0  0  0  3  0  0  0  0  0  0
  161.1420  205.3140  152.7350 C   0  0  0  0  0  3  0  0  0  0  0  0
  160.8610  201.1890  150.3090 C   0  0  0  0  0  3  0  0  0  0  0  0
  160.9760  202.5290  150.6690 C   0  0  0  0  0  0  0  0  0  0  0  0
  160.9080  200.8770  148.9360 C   0  0  0  0  0  3  0  0  0  0  0  0
  161.3600  205.9590  150.0090 N   0  0  0  0  0  0  0  0  0  0  0  0
  161.2080  204.6820  150.4280 C   0  0  0  0  0  0  0  0  0  0  0  0
  161.0970  204.3420  151.7490 C   0  0  0  0  0  0  0  0  0  0  0  0
  161.4000  206.9730  150.9310 C   0  0  0  0  0  0  0  0  0  0  0  0
  161.2950  206.6570  152.3300 C   0  0  0  0  0  0  0  0  0  0  0  0
  161.1810  203.2420  148.3530 C   0  0  0  0  0  3  0  0  0  0  0  0
  161.8050  208.6260  149.0640 C   0  0  0  0  0  3  0  0  0  0  0  0
  161.5740  208.3580  150.4220 C   0  0  0  0  0  0  0  0  0  0  0  0
  161.5640  209.4300  151.3280 C   0  0  0  0  0  3  0  0  0  0  0  0
  161.7560  210.7420  150.8830 C   0  0  0  0  0  3  0  0  0  0  0  0
  161.9710  211.0010  149.5280 C   0  0  0  0  0  0  0  0  0  0  0  0
  161.9980  209.9350  148.6180 C   0  0  0  0  0  3  0  0  0  0  0  0
  162.1640  212.3500  149.0960 N   0  0  0  0  0  2  0  0  0  0  0  0
  161.1050  213.1450  148.4950 C   0  0  0  0  0  2  0  0  0  0  0  0
  161.4990  213.5420  147.1530 N   0  0  0  0  0  2  0  0  0  0  0  0
  160.1590  211.9420  146.1050 O   0  0  0  0  0  0  0  0  0  0  0  0
  160.9670  212.9060  145.9920 C   0  0  0  0  0  0  0  0  0  0  0  0
  160.9210  212.4150  143.5360 C   0  0  2  0  0  3  0  0  0  0  0  0
  162.4020  213.8220  142.1630 N   0  0  0  0  0  2  0  0  0  0  0  0
  163.4140  213.9880  143.2140 C   0  0  0  0  0  2  0  0  0  0  0  0
  161.8020  212.4950  142.2830 C   0  0  0  0  0  2  0  0  0  0  0  0
  159.4840  212.7330  143.1680 C   0  0  0  0  0  1  0  0  0  0  0  0
  161.4010  213.3710  144.6410 C   0  0  2  0  0  3  0  0  0  0  0  0
  162.9180  213.5610  144.6060 C   0  0  0  0  0  2  0  0  0  0  0  0
  161.3810  207.6940  153.4050 C   0  0  0  0  0  2  0  0  0  0  0  0
  159.6220  207.2160  154.9340 O   0  0  0  0  0  1  0  0  0  0  0  0
  161.0020  207.1120  154.7590 C   0  0  2  0  0  3  0  0  0  0  0  0
  161.6820  207.8380  155.8210 N   0  0  0  0  0  2  0  0  0  0  0  0
  161.5520  209.2020  155.5340 N   0  0  0  0  0  2  0  0  0  0  0  0
  163.2560  210.8730  156.4570 N   0  0  0  0  0  0  0  0  0  0  0  0
  162.4840  210.1170  156.0390 C   0  0  0  0  0  0  0  0  0  0  0  0
  2  9  1  0  0  0  0
  2  6  2  0  0  0  0
  3 13  2  0  0  0  0
  3  7  1  0  0  0  0
  5  6  1  0  0  0  0
  6  1  1  0  0  0  0
  7  5  2  0  0  0  0
  8  9  2  0  0  0  0
  8 11  1  0  0  0  0
  9 10  1  0  0  0  0
 10  1  1  0  0  0  0
 10  4  2  0  0  0  0
 11 12  2  0  0  0  0
 12  4  1  0  0  0  0
 12 32  1  0  0  0  0
 13  2  1  0  0  0  0
 14 15  1  0  0  0  0
 15 11  1  0  0  0  0
 15 16  2  0  0  0  0
 17 16  1  0  0  0  0
 18 17  2  0  0  0  0
 19 14  2  0  0  0  0
 19 18  1  0  0  0  0
 20 18  1  0  0  0  0
 21 20  1  0  0  0  0
 22 21  1  0  0  0  0
 24 23  2  0  0  0  0
 24 22  1  0  0  0  0
 25 29  1  6  0  0  0
 25 30  1  0  0  0  0
 26 28  1  0  0  0  0
 26 27  1  0  0  0  0
 27 31  1  0  0  0  0
 28 25  1  0  0  0  0
 30 24  1  1  0  0  0
 31 30  1  0  0  0  0
 32 34  1  0  0  0  0
 34 33  1  1  0  0  0
 34 35  1  0  0  0  0
 36 35  1  0  0  0  0
 36 38  1  0  0  0  0
 38 37  3  0  0  0  0
M  END
>  <MODEL>
1

>  <REMARK>
 VINA RESULT:      -8.9      0.000      0.000
  Name = 
  10 active torsions:
  status: ('A' for Active; 'I' for Inactive)
    1  A    between atoms: C_8  and  C_32
    2  A    between atoms: C_18  and  N_25
    3  A    between atoms: C_18  and  C_28
    4  A    between atoms: C_20  and  N_23
    5  A    between atoms: N_21  and  C_22
    6  A    between atoms: N_21  and  N_25
    7  A    between atoms: N_23  and  C_24
    8  A    between atoms: C_24  and  N_27
    9  A    between atoms: C_28  and  C_33
   10  A    between atoms: C_31  and  C_38
                            x       y       z     vdW  Elec       q    Type
                         _______ _______ _______ _____ _____    ______ ____

>  <TORSDO>
F 10

$$$$
=
 OpenBabel11052409373D

 38 42  0  0  1  0  0  0  0  0999 V2000
  161.5980  210.7260  153.8550 O   0  0  0  0  0  0  0  0  0  0  0  0
  160.6490  209.0900  155.0410 C   0  0  0  0  0  0  0  0  0  0  0  0
  159.8110  209.3450  157.2610 C   0  0  0  0  0  3  0  0  0  0  0  0
  162.0590  209.4340  151.8420 C   0  0  0  0  0  3  0  0  0  0  0  0
  160.8270  211.2550  156.1020 C   0  0  0  0  0  3  0  0  0  0  0  0
  161.0370  210.4160  155.0110 C   0  0  0  0  0  0  0  0  0  0  0  0
  160.2050  210.7030  157.2390 C   0  0  0  0  0  3  0  0  0  0  0  0
  160.8670  207.3510  153.3010 N   0  0  0  0  0  0  0  0  0  0  0  0
  161.0080  208.5920  153.8190 C   0  0  0  0  0  0  0  0  0  0  0  0
  161.5830  209.6240  153.1290 C   0  0  0  0  0  0  0  0  0  0  0  0
  161.3050  207.0960  152.0260 C   0  0  0  0  0  0  0  0  0  0  0  0
  161.9230  208.1520  151.2710 C   0  0  0  0  0  0  0  0  0  0  0  0
  160.0320  208.5150  156.1470 C   0  0  0  0  0  3  0  0  0  0  0  0
  160.5780  205.4640  150.2400 C   0  0  0  0  0  3  0  0  0  0  0  0
  161.1330  205.7160  151.5040 C   0  0  0  0  0  0  0  0  0  0  0  0
  161.4800  204.6250  152.3170 C   0  0  0  0  0  3  0  0  0  0  0  0
  161.3000  203.3140  151.8660 C   0  0  0  0  0  3  0  0  0  0  0  0
  160.7610  203.0720  150.6000 C   0  0  0  0  0  0  0  0  0  0  0  0
  160.3970  204.1550  149.7880 C   0  0  0  0  0  3  0  0  0  0  0  0
  160.5870  201.7240  150.1590 N   0  0  0  0  0  2  0  0  0  0  0  0
  161.2340  201.1930  148.9700 C   0  0  0  0  0  2  0  0  0  0  0  0
  161.4110  202.2600  147.9980 N   0  0  0  0  0  2  0  0  0  0  0  0
  160.8010  200.9320  146.1770 O   0  0  0  0  0  0  0  0  0  0  0  0
  161.1550  202.0640  146.6080 C   0  0  0  0  0  0  0  0  0  0  0  0
  161.6990  204.5010  146.4120 C   0  0  2  0  0  3  0  0  0  0  0  0
  161.3450  205.4720  144.1780 N   0  0  0  0  0  2  0  0  0  0  0  0
  160.2270  204.5830  143.8380 C   0  0  0  0  0  2  0  0  0  0  0  0
  161.3150  205.7520  145.6110 C   0  0  0  0  0  2  0  0  0  0  0  0
  163.1850  204.5280  146.7140 C   0  0  0  0  0  1  0  0  0  0  0  0
  161.3410  203.2060  145.6640 C   0  0  2  0  0  3  0  0  0  0  0  0
  160.0980  203.3810  144.7900 C   0  0  0  0  0  2  0  0  0  0  0  0
  162.4760  207.9480  149.8950 C   0  0  0  0  0  2  0  0  0  0  0  0
  161.3290  207.9290  147.8120 O   0  0  0  0  0  1  0  0  0  0  0  0
  161.7010  208.7610  148.8680 C   0  0  2  0  0  3  0  0  0  0  0  0
  162.5300  209.8440  148.3630 N   0  0  0  0  0  2  0  0  0  0  0  0
  161.7940  211.0260  148.5060 N   0  0  0  0  0  2  0  0  0  0  0  0
  162.8040  213.2610  147.7770 N   0  0  0  0  0  0  0  0  0  0  0  0
  162.3470  212.2490  148.1070 C   0  0  0  0  0  0  0  0  0  0  0  0
  1  6  1  0  0  0  0
  2 13  1  0  0  0  0
  4 10  1  0  0  0  0
  5  7  2  0  0  0  0
  6  2  2  0  0  0  0
  6  5  1  0  0  0  0
  7  3  1  0  0  0  0
  8  9  1  0  0  0  0
  9  2  1  0  0  0  0
 10  9  2  0  0  0  0
 10  1  1  0  0  0  0
 11  8  2  0  0  0  0
 12  4  2  0  0  0  0
 12 11  1  0  0  0  0
 13  3  2  0  0  0  0
 14 15  1  0  0  0  0
 15 11  1  0  0  0  0
 15 16  2  0  0  0  0
 17 16  1  0  0  0  0
 18 17  2  0  0  0  0
 19 14  2  0  0  0  0
 19 18  1  0  0  0  0
 20 18  1  0  0  0  0
 21 20  1  0  0  0  0
 22 21  1  0  0  0  0
 23 24  2  0  0  0  0
 24 22  1  0  0  0  0
 25 29  1  6  0  0  0
 26 28  1  0  0  0  0
 27 26  1  0  0  0  0
 27 31  1  0  0  0  0
 28 25  1  0  0  0  0
 30 25  1  0  0  0  0
 30 24  1  1  0  0  0
 31 30  1  0  0  0  0
 32 12  1  0  0  0  0
 34 33  1  6  0  0  0
 34 32  1  0  0  0  0
 35 36  1  0  0  0  0
 35 34  1  0  0  0  0
 37 38  3  0  0  0  0
 38 36  1  0  0  0  0
M  END
>  <MODEL>
2

>  <REMARK>
 VINA RESULT:      -8.9      3.050      8.339
  Name = 
  10 active torsions:
  status: ('A' for Active; 'I' for Inactive)
    1  A    between atoms: C_8  and  C_32
    2  A    between atoms: C_18  and  N_25
    3  A    between atoms: C_18  and  C_28
    4  A    between atoms: C_20  and  N_23
    5  A    between atoms: N_21  and  C_22
    6  A    between atoms: N_21  and  N_25
    7  A    between atoms: N_23  and  C_24
    8  A    between atoms: C_24  and  N_27
    9  A    between atoms: C_28  and  C_33
   10  A    between atoms: C_31  and  C_38
                            x       y       z     vdW  Elec       q    Type
                         _______ _______ _______ _____ _____    ______ ____

>  <TORSDO>
F 10

$$$$
=
 OpenBabel11052409373D

 38 42  0  0  1  0  0  0  0  0999 V2000
  161.3530  205.9530  152.9430 O   0  0  0  0  0  0  0  0  0  0  0  0
  161.1040  207.8100  151.7300 C   0  0  0  0  0  0  0  0  0  0  0  0
  160.8790  210.0010  152.6480 C   0  0  0  0  0  3  0  0  0  0  0  0
  161.4780  204.3760  151.0910 C   0  0  0  0  0  3  0  0  0  0  0  0
  161.1450  208.0660  154.1330 C   0  0  0  0  0  3  0  0  0  0  0  0
  161.2030  207.2650  152.9950 C   0  0  0  0  0  0  0  0  0  0  0  0
  160.9800  209.4520  153.9470 C   0  0  0  0  0  3  0  0  0  0  0  0
  161.1700  206.6900  149.5290 N   0  0  0  0  0  0  0  0  0  0  0  0
  161.2020  206.7420  150.8800 C   0  0  0  0  0  0  0  0  0  0  0  0
  161.3530  205.6310  151.6630 C   0  0  0  0  0  0  0  0  0  0  0  0
  161.3010  205.4800  148.8960 C   0  0  0  0  0  0  0  0  0  0  0  0
  161.4540  204.2870  149.6840 C   0  0  0  0  0  0  0  0  0  0  0  0
  160.9410  209.1740  151.5110 C   0  0  0  0  0  3  0  0  0  0  0  0
  162.2090  204.7940  146.6400 C   0  0  0  0  0  3  0  0  0  0  0  0
  161.2540  205.4740  147.4110 C   0  0  0  0  0  0  0  0  0  0  0  0
  160.2610  206.2150  146.7510 C   0  0  0  0  0  3  0  0  0  0  0  0
  160.2090  206.2540  145.3550 C   0  0  0  0  0  3  0  0  0  0  0  0
  161.1550  205.5620  144.5950 C   0  0  0  0  0  0  0  0  0  0  0  0
  162.1600  204.8320  145.2460 C   0  0  0  0  0  3  0  0  0  0  0  0
  161.0820  205.6150  143.1690 N   0  0  0  0  0  2  0  0  0  0  0  0
  162.2180  205.9740  142.3340 C   0  0  0  0  0  2  0  0  0  0  0  0
  161.8360  207.0480  141.4320 N   0  0  0  0  0  2  0  0  0  0  0  0
  163.1760  206.2810  139.6800 O   0  0  0  0  0  0  0  0  0  0  0  0
  162.3420  207.1300  140.1010 C   0  0  0  0  0  0  0  0  0  0  0  0
  161.5270  209.4980  140.0390 C   0  0  2  0  0  3  0  0  0  0  0  0
  160.7070  210.2620  137.8470 N   0  0  0  0  0  2  0  0  0  0  0  0
  160.2190  208.9390  137.4360 C   0  0  0  0  0  2  0  0  0  0  0  0
  160.5420  210.4050  139.2920 C   0  0  0  0  0  2  0  0  0  0  0  0
  162.7820  210.2820  140.3780 C   0  0  0  0  0  1  0  0  0  0  0  0
  161.8980  208.2500  139.2190 C   0  0  2  0  0  3  0  0  0  0  0  0
  160.7430  207.7970  138.3240 C   0  0  0  0  0  2  0  0  0  0  0  0
  161.5500  202.9220  149.0780 C   0  0  0  0  0  2  0  0  0  0  0  0
  160.7370  201.1510  150.4430 O   0  0  0  0  0  1  0  0  0  0  0  0
  160.3510  202.0670  149.4640 C   0  0  2  0  0  3  0  0  0  0  0  0
  159.8560  201.3500  148.2990 N   0  0  0  0  0  2  0  0  0  0  0  0
  160.8140  201.4970  147.2880 N   0  0  0  0  0  2  0  0  0  0  0  0
  160.0810  201.6510  144.8410 N   0  0  0  0  0  0  0  0  0  0  0  0
  160.4130  201.5810  145.9490 C   0  0  0  0  0  0  0  0  0  0  0  0
  1  6  1  0  0  0  0
  2  6  2  0  0  0  0
  3  7  1  0  0  0  0
  4 10  1  0  0  0  0
  6  5  1  0  0  0  0
  7  5  2  0  0  0  0
  8  9  1  0  0  0  0
  9 10  2  0  0  0  0
  9  2  1  0  0  0  0
 10  1  1  0  0  0  0
 11  8  2  0  0  0  0
 11 12  1  0  0  0  0
 12  4  2  0  0  0  0
 13  2  1  0  0  0  0
 13  3  2  0  0  0  0
 14 15  1  0  0  0  0
 15 11  1  0  0  0  0
 16 15  2  0  0  0  0
 17 16  1  0  0  0  0
 18 19  1  0  0  0  0
 18 17  2  0  0  0  0
 19 14  2  0  0  0  0
 20 18  1  0  0  0  0
 21 20  1  0  0  0  0
 22 21  1  0  0  0  0
 23 24  2  0  0  0  0
 24 22  1  0  0  0  0
 25 29  1  6  0  0  0
 26 28  1  0  0  0  0
 27 26  1  0  0  0  0
 27 31  1  0  0  0  0
 28 25  1  0  0  0  0
 30 25  1  0  0  0  0
 30 24  1  1  0  0  0
 31 30  1  0  0  0  0
 32 34  1  0  0  0  0
 32 12  1  0  0  0  0
 34 33  1  1  0  0  0
 35 34  1  0  0  0  0
 36 35  1  0  0  0  0
 37 38  3  0  0  0  0
 38 36  1  0  0  0  0
M  END
>  <MODEL>
3

>  <REMARK>
 VINA RESULT:      -8.5      4.118      7.415
  Name = 
  10 active torsions:
  status: ('A' for Active; 'I' for Inactive)
    1  A    between atoms: C_8  and  C_32
    2  A    between atoms: C_18  and  N_25
    3  A    between atoms: C_18  and  C_28
    4  A    between atoms: C_20  and  N_23
    5  A    between atoms: N_21  and  C_22
    6  A    between atoms: N_21  and  N_25
    7  A    between atoms: N_23  and  C_24
    8  A    between atoms: C_24  and  N_27
    9  A    between atoms: C_28  and  C_33
   10  A    between atoms: C_31  and  C_38
                            x       y       z     vdW  Elec       q    Type
                         _______ _______ _______ _____ _____    ______ ____

>  <TORSDO>
F 10

$$$$
=
 OpenBabel11052409373D

 38 42  0  0  1  0  0  0  0  0999 V2000
  161.1300  204.4400  146.9430 O   0  0  0  0  0  0  0  0  0  0  0  0
  161.1560  202.9650  148.6180 C   0  0  0  0  0  0  0  0  0  0  0  0
  161.2080  200.5970  148.3300 C   0  0  0  0  0  3  0  0  0  0  0  0
  161.0800  206.4630  148.2980 C   0  0  0  0  0  3  0  0  0  0  0  0
  161.1820  202.0740  146.3710 C   0  0  0  0  0  3  0  0  0  0  0  0
  161.1560  203.1540  147.2500 C   0  0  0  0  0  0  0  0  0  0  0  0
  161.2090  200.7810  146.9280 C   0  0  0  0  0  3  0  0  0  0  0  0
  161.1170  204.6390  150.4350 N   0  0  0  0  0  0  0  0  0  0  0  0
  161.1290  204.2270  149.1470 C   0  0  0  0  0  0  0  0  0  0  0  0
  161.1130  205.0940  148.0890 C   0  0  0  0  0  0  0  0  0  0  0  0
  161.0980  205.9810  150.7150 C   0  0  0  0  0  0  0  0  0  0  0  0
  161.0740  206.9260  149.6310 C   0  0  0  0  0  0  0  0  0  0  0  0
  161.1830  201.7020  149.2010 C   0  0  0  0  0  3  0  0  0  0  0  0
  161.2090  205.4480  153.1820 C   0  0  0  0  0  3  0  0  0  0  0  0
  161.0820  206.3840  152.1450 C   0  0  0  0  0  0  0  0  0  0  0  0
  160.8750  207.7330  152.4770 C   0  0  0  0  0  3  0  0  0  0  0  0
  160.8230  208.1380  153.8140 C   0  0  0  0  0  3  0  0  0  0  0  0
  160.9660  207.2020  154.8400 C   0  0  0  0  0  0  0  0  0  0  0  0
  161.1570  205.8500  154.5180 C   0  0  0  0  0  3  0  0  0  0  0  0
  160.9100  207.6390  156.1990 N   0  0  0  0  0  2  0  0  0  0  0  0
  160.7970  209.0400  156.5730 C   0  0  0  0  0  2  0  0  0  0  0  0
  159.5750  209.5930  156.0140 N   0  0  0  0  0  2  0  0  0  0  0  0
  160.3090  211.8050  156.1610 O   0  0  0  0  0  0  0  0  0  0  0  0
  159.4050  210.9950  155.8150 C   0  0  0  0  0  0  0  0  0  0  0  0
  158.3930  212.3530  153.9690 C   0  0  2  0  0  3  0  0  0  0  0  0
  155.9890  212.8210  154.2150 N   0  0  0  0  0  2  0  0  0  0  0  0
  156.0230  212.8470  155.6820 C   0  0  0  0  0  2  0  0  0  0  0  0
  157.2520  213.3420  153.6970 C   0  0  0  0  0  2  0  0  0  0  0  0
  158.5830  211.4540  152.7620 C   0  0  0  0  0  1  0  0  0  0  0  0
  158.1300  211.4990  155.2200 C   0  0  2  0  0  3  0  0  0  0  0  0
  157.3210  212.2630  156.2680 C   0  0  0  0  0  2  0  0  0  0  0  0
  160.9980  208.4050  149.8450 C   0  0  0  0  0  2  0  0  0  0  0  0
  162.6670  209.8210  150.7780 O   0  0  0  0  0  1  0  0  0  0  0  0
  162.3610  209.0550  149.6530 C   0  0  2  0  0  3  0  0  0  0  0  0
  162.3420  209.9100  148.4760 N   0  0  0  0  0  2  0  0  0  0  0  0
  161.9480  211.1850  148.9000 N   0  0  0  0  0  2  0  0  0  0  0  0
  162.7100  213.2580  147.6080 N   0  0  0  0  0  0  0  0  0  0  0  0
  162.3650  212.3190  148.1930 C   0  0  0  0  0  0  0  0  0  0  0  0
  1  6  1  0  0  0  0
  1 10  1  0  0  0  0
  2  9  1  0  0  0  0
  2 13  2  0  0  0  0
  3 13  1  0  0  0  0
  4 12  1  0  0  0  0
  5  7  1  0  0  0  0
  5  6  2  0  0  0  0
  6  2  1  0  0  0  0
  7  3  2  0  0  0  0
  8 11  1  0  0  0  0
  9  8  2  0  0  0  0
 10  4  2  0  0  0  0
 10  9  1  0  0  0  0
 11 15  1  0  0  0  0
 12 32  1  0  0  0  0
 12 11  2  0  0  0  0
 14 19  1  0  0  0  0
 15 16  1  0  0  0  0
 15 14  2  0  0  0  0
 16 17  2  0  0  0  0
 17 18  1  0  0  0  0
 18 20  1  0  0  0  0
 19 18  2  0  0  0  0
 20 21  1  0  0  0  0
 22 21  1  0  0  0  0
 24 22  1  0  0  0  0
 24 23  2  0  0  0  0
 25 29  1  6  0  0  0
 25 30  1  0  0  0  0
 26 27  1  0  0  0  0
 27 31  1  0  0  0  0
 28 25  1  0  0  0  0
 28 26  1  0  0  0  0
 30 24  1  1  0  0  0
 30 31  1  0  0  0  0
 34 32  1  0  0  0  0
 34 33  1  1  0  0  0
 35 36  1  0  0  0  0
 35 34  1  0  0  0  0
 37 38  3  0  0  0  0
 38 36  1  0  0  0  0
M  END
>  <MODEL>
4

>  <REMARK>
 VINA RESULT:      -8.1      3.088      7.457
  Name = 
  10 active torsions:
  status: ('A' for Active; 'I' for Inactive)
    1  A    between atoms: C_8  and  C_32
    2  A    between atoms: C_18  and  N_25
    3  A    between atoms: C_18  and  C_28
    4  A    between atoms: C_20  and  N_23
    5  A    between atoms: N_21  and  C_22
    6  A    between atoms: N_21  and  N_25
    7  A    between atoms: N_23  and  C_24
    8  A    between atoms: C_24  and  N_27
    9  A    between atoms: C_28  and  C_33
   10  A    between atoms: C_31  and  C_38
                            x       y       z     vdW  Elec       q    Type
                         _______ _______ _______ _____ _____    ______ ____

>  <TORSDO>
F 10

$$$$
=
 OpenBabel11052409373D

 38 42  0  0  1  0  0  0  0  0999 V2000
  159.2590  213.3670  153.0060 O   0  0  0  0  0  0  0  0  0  0  0  0
  158.2380  211.7980  154.2220 C   0  0  0  0  0  0  0  0  0  0  0  0
  156.5050  212.2340  155.8040 C   0  0  0  0  0  3  0  0  0  0  0  0
  160.7750  211.8950  151.7940 C   0  0  0  0  0  3  0  0  0  0  0  0
  157.5200  214.0830  154.5510 C   0  0  0  0  0  3  0  0  0  0  0  0
  158.3330  213.1430  153.9230 C   0  0  0  0  0  0  0  0  0  0  0  0
  156.5960  213.6120  155.5030 C   0  0  0  0  0  3  0  0  0  0  0  0
  159.5100  209.8910  153.3030 N   0  0  0  0  0  0  0  0  0  0  0  0
  159.1710  211.1940  153.4250 C   0  0  0  0  0  0  0  0  0  0  0  0
  159.7700  212.1880  152.7020 C   0  0  0  0  0  0  0  0  0  0  0  0
  160.4890  209.5270  152.4140 C   0  0  0  0  0  0  0  0  0  0  0  0
  161.1480  210.5440  151.6390 C   0  0  0  0  0  0  0  0  0  0  0  0
  157.3350  211.3000  155.1570 C   0  0  0  0  0  3  0  0  0  0  0  0
  160.9630  207.4320  151.0840 C   0  0  0  0  0  3  0  0  0  0  0  0
  160.8290  208.0840  152.3190 C   0  0  0  0  0  0  0  0  0  0  0  0
  160.9650  207.3310  153.4960 C   0  0  0  0  0  3  0  0  0  0  0  0
  161.2530  205.9640  153.4400 C   0  0  0  0  0  3  0  0  0  0  0  0
  161.4010  205.3260  152.2060 C   0  0  0  0  0  0  0  0  0  0  0  0
  161.2510  206.0670  151.0250 C   0  0  0  0  0  3  0  0  0  0  0  0
  161.6960  203.9280  152.1720 N   0  0  0  0  0  2  0  0  0  0  0  0
  161.1600  203.0330  151.1590 C   0  0  0  0  0  2  0  0  0  0  0  0
  161.0260  203.7500  149.9020 N   0  0  0  0  0  2  0  0  0  0  0  0
  161.2580  201.8320  148.5890 O   0  0  0  0  0  0  0  0  0  0  0  0
  161.0640  203.0780  148.6430 C   0  0  0  0  0  0  0  0  0  0  0  0
  161.6200  203.1990  146.2030 C   0  0  2  0  0  3  0  0  0  0  0  0
  161.0630  205.3330  145.1110 N   0  0  0  0  0  2  0  0  0  0  0  0
  161.2910  206.1440  146.3130 C   0  0  0  0  0  2  0  0  0  0  0  0
  161.9940  204.2070  145.1100 C   0  0  0  0  0  2  0  0  0  0  0  0
  160.7350  202.1160  145.6150 C   0  0  0  0  0  1  0  0  0  0  0  0
  160.9050  203.8710  147.3870 C   0  0  2  0  0  3  0  0  0  0  0  0
  161.3870  205.3060  147.6000 C   0  0  0  0  0  2  0  0  0  0  0  0
  162.2620  210.2420  150.6850 C   0  0  0  0  0  2  0  0  0  0  0  0
  162.0630  209.3370  148.4950 O   0  0  0  0  0  1  0  0  0  0  0  0
  161.8310  210.4880  149.2470 C   0  0  2  0  0  3  0  0  0  0  0  0
  162.5880  211.5950  148.6840 N   0  0  0  0  0  2  0  0  0  0  0  0
  161.6700  212.6050  148.3710 N   0  0  0  0  0  2  0  0  0  0  0  0
  159.9790  212.2590  146.4820 N   0  0  0  0  0  0  0  0  0  0  0  0
  160.7450  212.4150  147.3370 C   0  0  0  0  0  0  0  0  0  0  0  0
  1  6  1  0  0  0  0
  2 13  1  0  0  0  0
  4 10  1  0  0  0  0
  5  7  2  0  0  0  0
  6  2  2  0  0  0  0
  6  5  1  0  0  0  0
  7  3  1  0  0  0  0
  8  9  1  0  0  0  0
  9  2  1  0  0  0  0
 10  1  1  0  0  0  0
 10  9  2  0  0  0  0
 11  8  2  0  0  0  0
 12  4  2  0  0  0  0
 12 11  1  0  0  0  0
 13  3  2  0  0  0  0
 14 15  1  0  0  0  0
 15 11  1  0  0  0  0
 15 16  2  0  0  0  0
 17 16  1  0  0  0  0
 18 17  2  0  0  0  0
 19 14  2  0  0  0  0
 19 18  1  0  0  0  0
 20 18  1  0  0  0  0
 21 20  1  0  0  0  0
 22 21  1  0  0  0  0
 23 24  2  0  0  0  0
 24 22  1  0  0  0  0
 25 29  1  6  0  0  0
 25 30  1  0  0  0  0
 26 27  1  0  0  0  0
 27 31  1  0  0  0  0
 28 26  1  0  0  0  0
 28 25  1  0  0  0  0
 30 31  1  0  0  0  0
 30 24  1  1  0  0  0
 32 12  1  0  0  0  0
 34 33  1  6  0  0  0
 34 32  1  0  0  0  0
 35 34  1  0  0  0  0
 36 35  1  0  0  0  0
 37 38  3  0  0  0  0
 38 36  1  0  0  0  0
M  END
>  <MODEL>
5

>  <REMARK>
 VINA RESULT:      -8.1      3.295      8.838
  Name = 
  10 active torsions:
  status: ('A' for Active; 'I' for Inactive)
    1  A    between atoms: C_8  and  C_32
    2  A    between atoms: C_18  and  N_25
    3  A    between atoms: C_18  and  C_28
    4  A    between atoms: C_20  and  N_23
    5  A    between atoms: N_21  and  C_22
    6  A    between atoms: N_21  and  N_25
    7  A    between atoms: N_23  and  C_24
    8  A    between atoms: C_24  and  N_27
    9  A    between atoms: C_28  and  C_33
   10  A    between atoms: C_31  and  C_38
                            x       y       z     vdW  Elec       q    Type
                         _______ _______ _______ _____ _____    ______ ____

>  <TORSDO>
F 10

$$$$
=
 OpenBabel11052409373D

 38 42  0  0  1  0  0  0  0  0999 V2000
  161.1030  202.6630  150.8200 O   0  0  0  0  0  0  0  0  0  0  0  0
  161.1920  203.4220  148.7240 C   0  0  0  0  0  0  0  0  0  0  0  0
  160.9790  202.0510  146.7820 C   0  0  0  0  0  3  0  0  0  0  0  0
  161.4190  204.7990  151.9480 C   0  0  0  0  0  3  0  0  0  0  0  0
  160.8570  201.0460  149.0170 C   0  0  0  0  0  3  0  0  0  0  0  0
  161.0440  202.3220  149.5450 C   0  0  0  0  0  0  0  0  0  0  0  0
  160.8260  200.9190  147.6150 C   0  0  0  0  0  3  0  0  0  0  0  0
  161.5320  205.7940  149.3240 N   0  0  0  0  0  0  0  0  0  0  0  0
  161.3480  204.4790  149.5780 C   0  0  0  0  0  0  0  0  0  0  0  0
  161.2880  203.9690  150.8460 C   0  0  0  0  0  0  0  0  0  0  0  0
  161.6560  206.6750  150.3680 C   0  0  0  0  0  0  0  0  0  0  0  0
  161.6060  206.1770  151.7170 C   0  0  0  0  0  0  0  0  0  0  0  0
  161.1650  203.3320  147.3360 C   0  0  0  0  0  3  0  0  0  0  0  0
  162.0960  209.0730  151.0280 C   0  0  0  0  0  3  0  0  0  0  0  0
  161.8600  208.1090  150.0370 C   0  0  0  0  0  0  0  0  0  0  0  0
  161.7580  208.5270  148.7010 C   0  0  0  0  0  3  0  0  0  0  0  0
  161.9140  209.8740  148.3610 C   0  0  0  0  0  3  0  0  0  0  0  0
  162.1640  210.8260  149.3530 C   0  0  0  0  0  0  0  0  0  0  0  0
  162.2510  210.4190  150.6920 C   0  0  0  0  0  3  0  0  0  0  0  0
  162.3210  212.1970  148.9830 N   0  0  0  0  0  2  0  0  0  0  0  0
  161.2000  213.1170  148.8690 C   0  0  0  0  0  2  0  0  0  0  0  0
  160.5340  213.2290  150.1560 N   0  0  0  0  0  2  0  0  0  0  0  0
  158.6040  214.1940  149.2630 O   0  0  0  0  0  0  0  0  0  0  0  0
  159.2160  213.7630  150.2790 C   0  0  0  0  0  0  0  0  0  0  0  0
  158.5870  212.4660  152.3280 C   0  0  2  0  0  3  0  0  0  0  0  0
  157.1400  213.6650  153.9180 N   0  0  0  0  0  2  0  0  0  0  0  0
  156.4570  214.4530  152.8850 C   0  0  0  0  0  2  0  0  0  0  0  0
  157.4720  212.3500  153.3750 C   0  0  0  0  0  2  0  0  0  0  0  0
  159.9320  212.2320  152.9900 C   0  0  0  0  0  1  0  0  0  0  0  0
  158.5810  213.8360  151.6290 C   0  0  2  0  0  3  0  0  0  0  0  0
  157.1680  214.4110  151.5210 C   0  0  0  0  0  2  0  0  0  0  0  0
  161.7850  207.0580  152.9130 C   0  0  0  0  0  2  0  0  0  0  0  0
  160.1710  208.6860  153.5480 O   0  0  0  0  0  1  0  0  0  0  0  0
  160.4540  207.3210  153.6030 C   0  0  2  0  0  3  0  0  0  0  0  0
  160.5220  206.8960  154.9920 N   0  0  0  0  0  2  0  0  0  0  0  0
  160.1710  208.0000  155.7780 N   0  0  0  0  0  2  0  0  0  0  0  0
  161.9790  209.3110  157.0270 N   0  0  0  0  0  0  0  0  0  0  0  0
  161.1600  208.7170  156.4620 C   0  0  0  0  0  0  0  0  0  0  0  0
  1 10  1  0  0  0  0
  2  6  2  0  0  0  0
  2  9  1  0  0  0  0
  3 13  2  0  0  0  0
  3  7  1  0  0  0  0
  5  6  1  0  0  0  0
  6  1  1  0  0  0  0
  7  5  2  0  0  0  0
  8  9  2  0  0  0  0
  8 11  1  0  0  0  0
  9 10  1  0  0  0  0
 10  4  2  0  0  0  0
 11 12  2  0  0  0  0
 12  4  1  0  0  0  0
 12 32  1  0  0  0  0
 13  2  1  0  0  0  0
 15 11  1  0  0  0  0
 15 14  2  0  0  0  0
 16 15  1  0  0  0  0
 17 16  2  0  0  0  0
 17 18  1  0  0  0  0
 18 19  2  0  0  0  0
 19 14  1  0  0  0  0
 20 18  1  0  0  0  0
 21 20  1  0  0  0  0
 21 22  1  0  0  0  0
 22 24  1  0  0  0  0
 23 24  2  0  0  0  0
 25 29  1  1  0  0  0
 25 28  1  0  0  0  0
 27 26  1  0  0  0  0
 28 26  1  0  0  0  0
 30 24  1  6  0  0  0
 30 25  1  0  0  0  0
 31 30  1  0  0  0  0
 31 27  1  0  0  0  0
 32 34  1  0  0  0  0
 34 33  1  1  0  0  0
 34 35  1  0  0  0  0
 35 36  1  0  0  0  0
 36 38  1  0  0  0  0
 38 37  3  0  0  0  0
M  END
>  <MODEL>
6

>  <REMARK>
 VINA RESULT:      -7.8      2.801      4.805
  Name = 
  10 active torsions:
  status: ('A' for Active; 'I' for Inactive)
    1  A    between atoms: C_8  and  C_32
    2  A    between atoms: C_18  and  N_25
    3  A    between atoms: C_18  and  C_28
    4  A    between atoms: C_20  and  N_23
    5  A    between atoms: N_21  and  C_22
    6  A    between atoms: N_21  and  N_25
    7  A    between atoms: N_23  and  C_24
    8  A    between atoms: C_24  and  N_27
    9  A    between atoms: C_28  and  C_33
   10  A    between atoms: C_31  and  C_38
                            x       y       z     vdW  Elec       q    Type
                         _______ _______ _______ _____ _____    ______ ____

>  <TORSDO>
F 10

$$$$
=
 OpenBabel11052409373D

 38 42  0  0  1  0  0  0  0  0999 V2000
  161.2670  205.1080  152.5820 O   0  0  0  0  0  0  0  0  0  0  0  0
  161.1210  205.2530  150.3600 C   0  0  0  0  0  0  0  0  0  0  0  0
  160.8340  203.3860  148.9020 C   0  0  0  0  0  3  0  0  0  0  0  0
  161.5330  207.4850  153.0410 C   0  0  0  0  0  3  0  0  0  0  0  0
  160.9750  203.0430  151.3270 C   0  0  0  0  0  3  0  0  0  0  0  0
  161.1190  204.4210  151.4620 C   0  0  0  0  0  0  0  0  0  0  0  0
  160.8310  202.5270  150.0250 C   0  0  0  0  0  3  0  0  0  0  0  0
  161.3500  207.7100  150.2470 N   0  0  0  0  0  0  0  0  0  0  0  0
  161.2790  206.5120  150.8710 C   0  0  0  0  0  0  0  0  0  0  0  0
  161.3640  206.3760  152.2290 C   0  0  0  0  0  0  0  0  0  0  0  0
  161.5040  208.8520  150.9910 C   0  0  0  0  0  0  0  0  0  0  0  0
  161.6050  208.7500  152.4220 C   0  0  0  0  0  0  0  0  0  0  0  0
  160.9800  204.7760  149.0610 C   0  0  0  0  0  3  0  0  0  0  0  0
  160.9410  211.3010  150.7270 C   0  0  0  0  0  3  0  0  0  0  0  0
  161.5810  210.1430  150.2600 C   0  0  0  0  0  0  0  0  0  0  0  0
  162.2660  210.2000  149.0350 C   0  0  0  0  0  3  0  0  0  0  0  0
  162.3290  211.3920  148.3080 C   0  0  0  0  0  3  0  0  0  0  0  0
  161.7010  212.5440  148.7880 C   0  0  0  0  0  0  0  0  0  0  0  0
  161.0020  212.4920  150.0030 C   0  0  0  0  0  3  0  0  0  0  0  0
  161.7800  213.7520  148.0290 N   0  0  0  0  0  2  0  0  0  0  0  0
  162.6920  213.9220  146.9090 C   0  0  0  0  0  2  0  0  0  0  0  0
  161.9400  213.9080  145.6660 N   0  0  0  0  0  2  0  0  0  0  0  0
  163.7750  213.2740  144.3660 O   0  0  0  0  0  0  0  0  0  0  0  0
  162.5440  213.5520  144.4230 C   0  0  0  0  0  0  0  0  0  0  0  0
  160.9750  212.2030  143.0110 C   0  0  2  0  0  3  0  0  0  0  0  0
  160.4550  213.1750  140.8100 N   0  0  0  0  0  2  0  0  0  0  0  0
  161.7630  213.8230  140.6550 C   0  0  0  0  0  2  0  0  0  0  0  0
  160.6250  211.9230  141.5440 C   0  0  0  0  0  2  0  0  0  0  0  0
  159.7070  212.2030  143.8450 C   0  0  0  0  0  1  0  0  0  0  0  0
  161.7120  213.5420  143.1830 C   0  0  2  0  0  3  0  0  0  0  0  0
  162.5720  213.8760  141.9630 C   0  0  0  0  0  2  0  0  0  0  0  0
  161.8270  209.9380  153.3060 C   0  0  0  0  0  2  0  0  0  0  0  0
  159.7480  210.4280  154.3510 O   0  0  0  0  0  1  0  0  0  0  0  0
  160.9930  209.8390  154.5740 C   0  0  2  0  0  3  0  0  0  0  0  0
  161.6650  210.5260  155.6660 N   0  0  0  0  0  2  0  0  0  0  0  0
  162.2790  209.5440  156.4540 N   0  0  0  0  0  2  0  0  0  0  0  0
  160.9330  207.5230  157.2610 N   0  0  0  0  0  0  0  0  0  0  0  0
  161.5430  208.4380  156.8960 C   0  0  0  0  0  0  0  0  0  0  0  0
  2  9  1  0  0  0  0
  2  6  2  0  0  0  0
  3 13  2  0  0  0  0
  3  7  1  0  0  0  0
  5  6  1  0  0  0  0
  6  1  1  0  0  0  0
  7  5  2  0  0  0  0
  8  9  2  0  0  0  0
  8 11  1  0  0  0  0
  9 10  1  0  0  0  0
 10  1  1  0  0  0  0
 10  4  2  0  0  0  0
 11 12  2  0  0  0  0
 12  4  1  0  0  0  0
 12 32  1  0  0  0  0
 13  2  1  0  0  0  0
 15 14  1  0  0  0  0
 15 11  1  0  0  0  0
 16 15  2  0  0  0  0
 17 18  2  0  0  0  0
 17 16  1  0  0  0  0
 18 19  1  0  0  0  0
 19 14  2  0  0  0  0
 20 18  1  0  0  0  0
 21 20  1  0  0  0  0
 22 21  1  0  0  0  0
 23 24  2  0  0  0  0
 24 22  1  0  0  0  0
 25 30  1  0  0  0  0
 25 29  1  1  0  0  0
 26 28  1  0  0  0  0
 27 26  1  0  0  0  0
 27 31  1  0  0  0  0
 28 25  1  0  0  0  0
 30 24  1  1  0  0  0
 31 30  1  0  0  0  0
 32 34  1  0  0  0  0
 34 33  1  6  0  0  0
 34 35  1  0  0  0  0
 35 36  1  0  0  0  0
 36 38  1  0  0  0  0
 38 37  3  0  0  0  0
M  END
>  <MODEL>
7

>  <REMARK>
 VINA RESULT:      -7.8      1.590      2.338
  Name = 
  10 active torsions:
  status: ('A' for Active; 'I' for Inactive)
    1  A    between atoms: C_8  and  C_32
    2  A    between atoms: C_18  and  N_25
    3  A    between atoms: C_18  and  C_28
    4  A    between atoms: C_20  and  N_23
    5  A    between atoms: N_21  and  C_22
    6  A    between atoms: N_21  and  N_25
    7  A    between atoms: N_23  and  C_24
    8  A    between atoms: C_24  and  N_27
    9  A    between atoms: C_28  and  C_33
   10  A    between atoms: C_31  and  C_38
                            x       y       z     vdW  Elec       q    Type
                         _______ _______ _______ _____ _____    ______ ____

>  <TORSDO>
F 10

$$$$
=
 OpenBabel11052409373D

 38 42  0  0  1  0  0  0  0  0999 V2000
  161.1320  203.7540  152.2700 O   0  0  0  0  0  0  0  0  0  0  0  0
  161.0820  204.7080  150.2530 C   0  0  0  0  0  0  0  0  0  0  0  0
  161.1800  203.5110  148.1920 C   0  0  0  0  0  3  0  0  0  0  0  0
  160.9830  205.7940  153.5930 C   0  0  0  0  0  3  0  0  0  0  0  0
  161.2480  202.2980  150.3230 C   0  0  0  0  0  3  0  0  0  0  0  0
  161.1580  203.5290  150.9680 C   0  0  0  0  0  0  0  0  0  0  0  0
  161.2580  202.2990  148.9150 C   0  0  0  0  0  3  0  0  0  0  0  0
  160.9120  207.0330  151.0720 N   0  0  0  0  0  0  0  0  0  0  0  0
  161.0050  205.6900  151.2030 C   0  0  0  0  0  0  0  0  0  0  0  0
  161.0400  205.0630  152.4180 C   0  0  0  0  0  0  0  0  0  0  0  0
  160.8390  207.8180  152.1940 C   0  0  0  0  0  0  0  0  0  0  0  0
  160.8800  207.1970  153.4910 C   0  0  0  0  0  0  0  0  0  0  0  0
  161.0890  204.7440  148.8630 C   0  0  0  0  0  3  0  0  0  0  0  0
  159.8540  210.0790  152.7430 C   0  0  0  0  0  3  0  0  0  0  0  0
  160.7430  209.2880  151.9990 C   0  0  0  0  0  0  0  0  0  0  0  0
  161.5190  209.9010  151.0030 C   0  0  0  0  0  3  0  0  0  0  0  0
  161.4280  211.2770  150.7740 C   0  0  0  0  0  3  0  0  0  0  0  0
  160.5510  212.0600  151.5290 C   0  0  0  0  0  0  0  0  0  0  0  0
  159.7610  211.4530  152.5150 C   0  0  0  0  0  3  0  0  0  0  0  0
  160.4750  213.4650  151.2790 N   0  0  0  0  0  2  0  0  0  0  0  0
  161.0200  214.0830  150.0800 C   0  0  0  0  0  2  0  0  0  0  0  0
  159.9360  214.4120  149.1700 N   0  0  0  0  0  2  0  0  0  0  0  0
  160.6590  212.9400  147.5070 O   0  0  0  0  0  0  0  0  0  0  0  0
  159.8030  213.7830  147.8960 C   0  0  0  0  0  0  0  0  0  0  0  0
  157.4360  213.2540  147.2680 C   0  0  2  0  0  3  0  0  0  0  0  0
  156.6080  214.4090  145.2590 N   0  0  0  0  0  2  0  0  0  0  0  0
  157.9180  214.4500  144.5970 C   0  0  0  0  0  2  0  0  0  0  0  0
  156.5090  213.1840  146.0490 C   0  0  0  0  0  2  0  0  0  0  0  0
  156.6600  213.7670  148.4670 C   0  0  0  0  0  1  0  0  0  0  0  0
  158.6570  214.1550  147.0130 C   0  0  2  0  0  3  0  0  0  0  0  0
  159.0860  214.1260  145.5460 C   0  0  0  0  0  2  0  0  0  0  0  0
  160.8590  207.9810  154.7660 C   0  0  0  0  0  2  0  0  0  0  0  0
  158.9740  207.1970  155.9880 O   0  0  0  0  0  1  0  0  0  0  0  0
  160.3650  207.1260  155.9250 C   0  0  2  0  0  3  0  0  0  0  0  0
  160.9320  207.6070  157.1750 N   0  0  0  0  0  2  0  0  0  0  0  0
  162.1490  208.2260  156.8630 N   0  0  0  0  0  2  0  0  0  0  0  0
  162.3870  210.7650  157.0710 N   0  0  0  0  0  0  0  0  0  0  0  0
  162.2790  209.6150  156.9770 C   0  0  0  0  0  0  0  0  0  0  0  0
  1 10  1  0  0  0  0
  2  6  2  0  0  0  0
  2  9  1  0  0  0  0
  3 13  2  0  0  0  0
  3  7  1  0  0  0  0
  5  6  1  0  0  0  0
  6  1  1  0  0  0  0
  7  5  2  0  0  0  0
  8  9  2  0  0  0  0
  8 11  1  0  0  0  0
  9 10  1  0  0  0  0
 10  4  2  0  0  0  0
 11 12  2  0  0  0  0
 12  4  1  0  0  0  0
 12 32  1  0  0  0  0
 13  2  1  0  0  0  0
 15 11  1  0  0  0  0
 15 14  2  0  0  0  0
 16 15  1  0  0  0  0
 17 16  2  0  0  0  0
 17 18  1  0  0  0  0
 18 19  2  0  0  0  0
 19 14  1  0  0  0  0
 20 18  1  0  0  0  0
 21 20  1  0  0  0  0
 22 21  1  0  0  0  0
 23 24  2  0  0  0  0
 24 22  1  0  0  0  0
 25 29  1  1  0  0  0
 26 28  1  0  0  0  0
 27 26  1  0  0  0  0
 27 31  1  0  0  0  0
 28 25  1  0  0  0  0
 30 25  1  0  0  0  0
 30 24  1  1  0  0  0
 31 30  1  0  0  0  0
 32 34  1  0  0  0  0
 34 33  1  1  0  0  0
 34 35  1  0  0  0  0
 36 38  1  0  0  0  0
 36 35  1  0  0  0  0
 38 37  3  0  0  0  0
M  END
>  <MODEL>
8

>  <REMARK>
 VINA RESULT:      -7.1      2.275      2.949
  Name = 
  10 active torsions:
  status: ('A' for Active; 'I' for Inactive)
    1  A    between atoms: C_8  and  C_32
    2  A    between atoms: C_18  and  N_25
    3  A    between atoms: C_18  and  C_28
    4  A    between atoms: C_20  and  N_23
    5  A    between atoms: N_21  and  C_22
    6  A    between atoms: N_21  and  N_25
    7  A    between atoms: N_23  and  C_24
    8  A    between atoms: C_24  and  N_27
    9  A    between atoms: C_28  and  C_33
   10  A    between atoms: C_31  and  C_38
                            x       y       z     vdW  Elec       q    Type
                         _______ _______ _______ _____ _____    ______ ____

>  <TORSDO>
F 10

$$$$
=
 OpenBabel11052409373D

 38 42  0  0  1  0  0  0  0  0999 V2000
  161.6320  210.2450  153.3340 O   0  0  0  0  0  0  0  0  0  0  0  0
  161.1250  208.0720  153.3340 C   0  0  0  0  0  0  0  0  0  0  0  0
  160.5940  206.8110  155.2890 C   0  0  0  0  0  3  0  0  0  0  0  0
  161.9830  210.4920  150.9370 C   0  0  0  0  0  3  0  0  0  0  0  0
  161.1280  209.1990  155.4730 C   0  0  0  0  0  3  0  0  0  0  0  0
  161.3000  209.2140  154.0910 C   0  0  0  0  0  0  0  0  0  0  0  0
  160.7690  207.9750  156.0720 C   0  0  0  0  0  3  0  0  0  0  0  0
  161.3470  207.7560  150.8950 N   0  0  0  0  0  0  0  0  0  0  0  0
  161.3720  208.4630  152.0470 C   0  0  0  0  0  0  0  0  0  0  0  0
  161.6770  209.7950  152.0940 C   0  0  0  0  0  0  0  0  0  0  0  0
  161.6270  208.3850  149.7090 C   0  0  0  0  0  0  0  0  0  0  0  0
  161.9600  209.7840  149.7170 C   0  0  0  0  0  0  0  0  0  0  0  0
  160.7710  206.8480  153.8940 C   0  0  0  0  0  3  0  0  0  0  0  0
  162.7610  207.0850  147.8630 C   0  0  0  0  0  3  0  0  0  0  0  0
  161.5900  207.5650  148.4700 C   0  0  0  0  0  0  0  0  0  0  0  0
  160.3560  207.3070  147.8530 C   0  0  0  0  0  3  0  0  0  0  0  0
  160.2920  206.5640  146.6700 C   0  0  0  0  0  3  0  0  0  0  0  0
  161.4610  206.0780  146.0800 C   0  0  0  0  0  0  0  0  0  0  0  0
  162.6990  206.3440  146.6810 C   0  0  0  0  0  3  0  0  0  0  0  0
  161.3710  205.3200  144.8710 N   0  0  0  0  0  2  0  0  0  0  0  0
  161.0540  203.9010  144.8510 C   0  0  0  0  0  2  0  0  0  0  0  0
  160.8310  203.4360  146.2090 N   0  0  0  0  0  2  0  0  0  0  0  0
  163.1030  203.3840  146.7460 O   0  0  0  0  0  0  0  0  0  0  0  0
  161.9080  203.2150  147.1180 C   0  0  0  0  0  0  0  0  0  0  0  0
  160.7230  201.4950  148.5000 C   0  0  2  0  0  3  0  0  0  0  0  0
  160.6370  201.9730  150.9130 N   0  0  0  0  0  2  0  0  0  0  0  0
  160.6080  203.4310  150.7440 C   0  0  0  0  0  2  0  0  0  0  0  0
  159.9250  201.3480  149.8010 C   0  0  0  0  0  2  0  0  0  0  0  0
  161.5800  200.2610  148.2880 C   0  0  0  0  0  1  0  0  0  0  0  0
  161.6090  202.7520  148.5060 C   0  0  2  0  0  3  0  0  0  0  0  0
  160.9820  203.8830  149.3210 C   0  0  0  0  0  2  0  0  0  0  0  0
  162.3300  210.5370  148.4770 C   0  0  0  0  0  2  0  0  0  0  0  0
  160.7920  212.3230  148.1580 O   0  0  0  0  0  1  0  0  0  0  0  0
  162.0660  212.0270  148.6420 C   0  0  2  0  0  3  0  0  0  0  0  0
  163.0560  212.7920  147.9020 N   0  0  0  0  0  2  0  0  0  0  0  0
  162.3650  213.5310  146.9340 N   0  0  0  0  0  2  0  0  0  0  0  0
  162.9940  213.3090  144.4630 N   0  0  0  0  0  0  0  0  0  0  0  0
  162.7090  213.4100  145.5820 C   0  0  0  0  0  0  0  0  0  0  0  0
  1  6  1  0  0  0  0
  2 13  1  0  0  0  0
  2  6  2  0  0  0  0
  3  7  1  0  0  0  0
  4 10  1  0  0  0  0
  5  7  2  0  0  0  0
  6  5  1  0  0  0  0
  8  9  1  0  0  0  0
  9 10  2  0  0  0  0
  9  2  1  0  0  0  0
 10  1  1  0  0  0  0
 11 12  1  0  0  0  0
 11  8  2  0  0  0  0
 12  4  2  0  0  0  0
 13  3  2  0  0  0  0
 14 15  1  0  0  0  0
 15 11  1  0  0  0  0
 16 15  2  0  0  0  0
 17 16  1  0  0  0  0
 18 17  2  0  0  0  0
 18 19  1  0  0  0  0
 19 14  2  0  0  0  0
 20 18  1  0  0  0  0
 21 20  1  0  0  0  0
 21 22  1  0  0  0  0
 22 24  1  0  0  0  0
 23 24  2  0  0  0  0
 25 29  1  1  0  0  0
 25 30  1  0  0  0  0
 25 28  1  0  0  0  0
 27 26  1  0  0  0  0
 28 26  1  0  0  0  0
 30 24  1  6  0  0  0
 30 31  1  0  0  0  0
 31 27  1  0  0  0  0
 32 34  1  0  0  0  0
 32 12  1  0  0  0  0
 34 33  1  6  0  0  0
 35 34  1  0  0  0  0
 36 35  1  0  0  0  0
 37 38  3  0  0  0  0
 38 36  1  0  0  0  0
M  END
>  <MODEL>
9

>  <REMARK>
 VINA RESULT:      -7.1      2.493      8.748
  Name = 
  10 active torsions:
  status: ('A' for Active; 'I' for Inactive)
    1  A    between atoms: C_8  and  C_32
    2  A    between atoms: C_18  and  N_25
    3  A    between atoms: C_18  and  C_28
    4  A    between atoms: C_20  and  N_23
    5  A    between atoms: N_21  and  C_22
    6  A    between atoms: N_21  and  N_25
    7  A    between atoms: N_23  and  C_24
    8  A    between atoms: C_24  and  N_27
    9  A    between atoms: C_28  and  C_33
   10  A    between atoms: C_31  and  C_38
                            x       y       z     vdW  Elec       q    Type
                         _______ _______ _______ _____ _____    ______ ____

>  <TORSDO>
F 10

$$$$
