=
 OpenBabel11052410573D

 37 41  0  0  1  0  0  0  0  0999 V2000
  160.4520  209.6460  153.8150 C   0  0  1  0  0  3  0  0  0  0  0  0
  160.6510  210.8140  152.8380 C   0  0  0  0  0  2  0  0  0  0  0  0
  161.9220  209.8790  150.9040 C   0  0  0  0  0  0  0  0  0  0  0  0
  161.9960  210.7610  152.1170 C   0  0  0  0  0  2  0  0  0  0  0  0
  162.0570  210.4480  149.6050 C   0  0  0  0  0  0  0  0  0  0  0  0
  160.2940  208.3030  153.0860 C   0  0  0  0  0  2  0  0  0  0  0  0
  161.6460  207.7130  149.8810 C   0  0  0  0  0  0  0  0  0  0  0  0
  161.7850  208.2710  148.6260 C   0  0  0  0  0  0  0  0  0  0  0  0
  161.4730  206.3630  149.6660 C   0  0  0  0  0  0  0  0  0  0  0  0
  161.3620  205.3610  150.5390 C   0  0  0  0  0  2  0  0  0  0  0  0
  160.8330  203.8390  148.5640 C   0  0  0  0  0  2  0  0  0  0  0  0
  161.3690  203.9430  150.0110 C   0  0  2  0  0  3  0  0  0  0  0  0
  161.6960  207.3540  147.6370 N   0  0  0  0  0  0  0  0  0  0  0  0
  161.4860  206.1910  148.2930 C   0  0  0  0  0  0  0  0  0  0  0  0
  161.9900  209.6340  148.4590 C   0  0  0  0  0  3  0  0  0  0  0  0
  161.7210  208.4840  151.0490 C   0  0  2  0  0  3  0  0  0  0  0  0
  161.2520  205.0150  147.7070 C   0  0  0  0  0  2  0  0  0  0  0  0
  161.5810  207.8480  152.4010 C   0  0  0  0  0  2  0  0  0  0  0  0
  161.5030  209.6060  154.9410 C   0  0  1  0  0  3  0  0  0  0  0  0
  161.7180  210.9850  155.5500 C   0  0  0  0  0  1  0  0  0  0  0  0
  159.8140  208.6090  156.4850 O   0  0  0  0  0  0  0  0  0  0  0  0
  161.9830  207.8670  156.5240 O   0  0  0  0  0  1  0  0  0  0  0  0
  161.1240  208.6420  156.0240 C   0  0  0  0  0  0  0  0  0  0  0  0
  160.6350  203.1100  150.8590 O   0  0  0  0  0  0  0  0  0  0  0  0
  161.2410  201.8560  150.7440 C   0  0  0  0  0  2  0  0  0  0  0  0
  161.4130  200.5080  148.6560 O   0  0  0  0  0  0  0  0  0  0  0  0
  160.6140  201.0900  149.6310 C   0  0  0  0  0  0  0  0  0  0  0  0
  159.3630  200.9750  149.5670 O   0  0  0  0  0  1  0  0  0  0  0  0
  162.2350  211.9240  149.4240 C   0  0  0  0  0  2  0  0  0  0  0  0
  160.7990  212.3810  147.0350 S   0  0  0  0  0  0  0  0  0  0  0  0
  159.4200  213.3400  147.1060 C   0  0  0  0  0  0  0  0  0  0  0  0
  160.0650  213.3040  149.2480 C   0  0  0  0  0  0  0  0  0  0  0  0
  159.1430  213.7630  148.3570 N   0  0  0  0  0  0  0  0  0  0  0  0
  158.6040  213.6540  145.9830 N   0  0  0  0  0  1  0  0  0  0  0  0
  161.0670  212.5090  148.6940 C   0  0  0  0  0  0  0  0  0  0  0  0
  159.9970  213.6320  150.6770 C   0  0  0  0  0  3  0  0  0  0  0  0
  158.8750  213.5880  151.3170 N   0  0  0  0  0  2  0  0  0  0  0  0
  1 19  1  1  0  0  0
  2  1  1  0  0  0  0
  3 16  1  0  0  0  0
  3  4  1  0  0  0  0
  4  2  1  0  0  0  0
  5  3  2  0  0  0  0
  6  1  1  0  0  0  0
  7 16  1  0  0  0  0
  8  7  1  0  0  0  0
  9  7  2  0  0  0  0
  9 10  1  0  0  0  0
 11 12  1  0  0  0  0
 12 10  1  0  0  0  0
 12 24  1  1  0  0  0
 13 14  2  0  0  0  0
 13  8  1  0  0  0  0
 14  9  1  0  0  0  0
 15  8  2  0  0  0  0
 15  5  1  0  0  0  0
 16 18  1  6  0  0  0
 17 14  1  0  0  0  0
 17 11  1  0  0  0  0
 18  6  1  0  0  0  0
 19 20  1  1  0  0  0
 19 23  1  0  0  0  0
 23 21  2  0  0  0  0
 23 22  1  0  0  0  0
 25 24  1  0  0  0  0
 26 27  2  0  0  0  0
 27 25  1  0  0  0  0
 28 27  1  0  0  0  0
 29  5  1  0  0  0  0
 30 31  1  0  0  0  0
 30 35  1  0  0  0  0
 31 33  2  0  0  0  0
 32 36  1  0  0  0  0
 33 32  1  0  0  0  0
 34 31  1  0  0  0  0
 35 32  2  0  0  0  0
 35 29  1  0  0  0  0
 36 37  2  0  0  0  0
M  END
>  <MODEL>
1

>  <REMARK>
 VINA RESULT:      -7.6      0.000      0.000
  Name = 
  8 active torsions:
  status: ('A' for Active; 'I' for Inactive)
    1  A    between atoms: C_3  and  C_22
    2  A    between atoms: C_7  and  C_14
    3  A    between atoms: C_10  and  C_30
    4  A    between atoms: C_11  and  C_16
    5  A    between atoms: C_14  and  O_23
    6  A    between atoms: C_20  and  O_23
    7  A    between atoms: C_22  and  C_32
    8  A    between atoms: C_30  and  C_34
                            x       y       z     vdW  Elec       q    Type
                         _______ _______ _______ _____ _____    ______ ____

>  <TORSDO>
F 8

$$$$
=
 OpenBabel11052410573D

 37 41  0  0  1  0  0  0  0  0999 V2000
  160.4560  209.7140  153.8440 C   0  0  1  0  0  3  0  0  0  0  0  0
  160.6810  210.8920  152.8840 C   0  0  0  0  0  2  0  0  0  0  0  0
  161.9520  209.9620  150.9480 C   0  0  0  0  0  0  0  0  0  0  0  0
  162.0300  210.8270  152.1730 C   0  0  0  0  0  2  0  0  0  0  0  0
  162.1060  210.5440  149.6580 C   0  0  0  0  0  0  0  0  0  0  0  0
  160.2830  208.3840  153.0980 C   0  0  0  0  0  2  0  0  0  0  0  0
  161.6510  207.8130  149.8960 C   0  0  0  0  0  0  0  0  0  0  0  0
  161.8090  208.3840  148.6500 C   0  0  0  0  0  0  0  0  0  0  0  0
  161.4590  206.4680  149.6630 C   0  0  0  0  0  0  0  0  0  0  0  0
  161.3250  205.4570  150.5220 C   0  0  0  0  0  2  0  0  0  0  0  0
  160.7890  203.9690  148.5240 C   0  0  0  0  0  2  0  0  0  0  0  0
  161.3160  204.0460  149.9770 C   0  0  2  0  0  3  0  0  0  0  0  0
  161.7130  207.4810  147.6480 N   0  0  0  0  0  0  0  0  0  0  0  0
  161.4800  206.3130  148.2880 C   0  0  0  0  0  0  0  0  0  0  0  0
  162.0350  209.7460  148.5010 C   0  0  0  0  0  3  0  0  0  0  0  0
  161.7280  208.5680  151.0740 C   0  0  2  0  0  3  0  0  0  0  0  0
  161.2330  205.1480  147.6860 C   0  0  0  0  0  2  0  0  0  0  0  0
  161.5680  207.9170  152.4170 C   0  0  0  0  0  2  0  0  0  0  0  0
  161.4980  209.6450  154.9780 C   0  0  1  0  0  3  0  0  0  0  0  0
  161.6990  211.0050  155.6320 C   0  0  0  0  0  1  0  0  0  0  0  0
  159.7730  208.4310  156.3130 O   0  0  0  0  0  0  0  0  0  0  0  0
  161.9990  208.0020  156.6550 O   0  0  0  0  0  1  0  0  0  0  0  0
  161.1140  208.6450  156.0260 C   0  0  0  0  0  0  0  0  0  0  0  0
  160.5620  203.2140  150.8080 O   0  0  0  0  0  0  0  0  0  0  0  0
  161.1810  201.9640  150.7220 C   0  0  0  0  0  2  0  0  0  0  0  0
  161.3780  200.5260  148.6970 O   0  0  0  0  0  0  0  0  0  0  0  0
  160.5670  201.1690  149.6230 C   0  0  0  0  0  0  0  0  0  0  0  0
  159.3150  201.0850  149.5240 O   0  0  0  0  0  1  0  0  0  0  0  0
  162.3080  212.0190  149.4960 C   0  0  0  0  0  2  0  0  0  0  0  0
  159.8390  213.1820  150.2240 S   0  0  0  0  0  0  0  0  0  0  0  0
  158.8100  213.6990  148.9990 C   0  0  0  0  0  0  0  0  0  0  0  0
  160.5660  212.9430  147.8350 C   0  0  0  0  0  0  0  0  0  0  0  0
  159.3300  213.5120  147.7680 N   0  0  0  0  0  0  0  0  0  0  0  0
  157.5380  214.2980  149.2210 N   0  0  0  0  0  1  0  0  0  0  0  0
  161.0210  212.6890  149.1280 C   0  0  0  0  0  0  0  0  0  0  0  0
  161.3430  212.6250  146.6320 C   0  0  0  0  0  3  0  0  0  0  0  0
  162.3070  213.3930  146.2420 N   0  0  0  0  0  2  0  0  0  0  0  0
  1 19  1  1  0  0  0
  2  1  1  0  0  0  0
  3 16  1  0  0  0  0
  3  4  1  0  0  0  0
  4  2  1  0  0  0  0
  5  3  2  0  0  0  0
  6  1  1  0  0  0  0
  7 16  1  0  0  0  0
  8  7  1  0  0  0  0
  9  7  2  0  0  0  0
  9 10  1  0  0  0  0
 11 12  1  0  0  0  0
 12 10  1  0  0  0  0
 12 24  1  1  0  0  0
 13 14  2  0  0  0  0
 13  8  1  0  0  0  0
 14  9  1  0  0  0  0
 15  8  2  0  0  0  0
 15  5  1  0  0  0  0
 16 18  1  6  0  0  0
 17 14  1  0  0  0  0
 17 11  1  0  0  0  0
 18  6  1  0  0  0  0
 19 20  1  1  0  0  0
 19 23  1  0  0  0  0
 23 21  2  0  0  0  0
 23 22  1  0  0  0  0
 25 24  1  0  0  0  0
 26 27  2  0  0  0  0
 27 25  1  0  0  0  0
 28 27  1  0  0  0  0
 29  5  1  0  0  0  0
 31 34  1  0  0  0  0
 31 30  1  0  0  0  0
 32 35  2  0  0  0  0
 33 32  1  0  0  0  0
 33 31  2  0  0  0  0
 35 29  1  0  0  0  0
 35 30  1  0  0  0  0
 36 32  1  0  0  0  0
 37 36  2  0  0  0  0
M  END
>  <MODEL>
2

>  <REMARK>
 VINA RESULT:      -7.6      1.008      1.543
  Name = 
  8 active torsions:
  status: ('A' for Active; 'I' for Inactive)
    1  A    between atoms: C_3  and  C_22
    2  A    between atoms: C_7  and  C_14
    3  A    between atoms: C_10  and  C_30
    4  A    between atoms: C_11  and  C_16
    5  A    between atoms: C_14  and  O_23
    6  A    between atoms: C_20  and  O_23
    7  A    between atoms: C_22  and  C_32
    8  A    between atoms: C_30  and  C_34
                            x       y       z     vdW  Elec       q    Type
                         _______ _______ _______ _____ _____    ______ ____

>  <TORSDO>
F 8

$$$$
=
 OpenBabel11052410573D

 37 41  0  0  1  0  0  0  0  0999 V2000
  161.2360  208.2480  154.8470 C   0  0  1  0  0  3  0  0  0  0  0  0
  161.6670  206.9280  154.1910 C   0  0  0  0  0  2  0  0  0  0  0  0
  161.1460  207.1720  151.7620 C   0  0  0  0  0  0  0  0  0  0  0  0
  160.7460  206.5080  153.0470 C   0  0  0  0  0  2  0  0  0  0  0  0
  161.6560  206.3880  150.6880 C   0  0  0  0  0  0  0  0  0  0  0  0
  161.4310  209.4500  153.9120 C   0  0  0  0  0  2  0  0  0  0  0  0
  161.4170  209.1420  150.3970 C   0  0  0  0  0  0  0  0  0  0  0  0
  161.9030  208.3740  149.3590 C   0  0  0  0  0  0  0  0  0  0  0  0
  161.4150  210.4370  149.9280 C   0  0  0  0  0  0  0  0  0  0  0  0
  160.9790  211.5600  150.5010 C   0  0  0  0  0  2  0  0  0  0  0  0
  161.9800  212.8310  148.5330 C   0  0  0  0  0  2  0  0  0  0  0  0
  160.9300  212.8220  149.6680 C   0  0  2  0  0  3  0  0  0  0  0  0
  162.2200  209.1110  148.2710 N   0  0  0  0  0  0  0  0  0  0  0  0
  161.9310  210.3780  148.6450 C   0  0  0  0  0  0  0  0  0  0  0  0
  162.0350  206.9970  149.4770 C   0  0  0  0  0  3  0  0  0  0  0  0
  161.0150  208.5760  151.6140 C   0  0  2  0  0  3  0  0  0  0  0  0
  162.1650  211.4650  147.9070 C   0  0  0  0  0  2  0  0  0  0  0  0
  160.4750  209.4330  152.7210 C   0  0  0  0  0  2  0  0  0  0  0  0
  159.8300  208.1870  155.4750 C   0  0  1  0  0  3  0  0  0  0  0  0
  159.7010  207.0150  156.4370 C   0  0  0  0  0  1  0  0  0  0  0  0
  158.4840  210.2780  155.6940 O   0  0  0  0  0  0  0  0  0  0  0  0
  160.1020  209.7880  157.2430 O   0  0  0  0  0  1  0  0  0  0  0  0
  159.4850  209.4560  156.1940 C   0  0  0  0  0  0  0  0  0  0  0  0
  161.0920  213.9430  150.4850 O   0  0  0  0  0  0  0  0  0  0  0  0
  159.8010  214.4510  150.6590 C   0  0  0  0  0  2  0  0  0  0  0  0
  159.6440  213.5490  152.9760 O   0  0  0  0  0  1  0  0  0  0  0  0
  159.0880  213.6730  151.7090 C   0  0  0  0  0  0  0  0  0  0  0  0
  157.9870  213.1210  151.4520 O   0  0  0  0  0  0  0  0  0  0  0  0
  161.8370  204.9090  150.8310 C   0  0  0  0  0  2  0  0  0  0  0  0
  161.8170  204.9510  148.0070 S   0  0  0  0  0  0  0  0  0  0  0  0
  161.3250  203.5640  147.1930 C   0  0  0  0  0  0  0  0  0  0  0  0
  161.1830  202.9170  149.3300 C   0  0  0  0  0  0  0  0  0  0  0  0
  161.0180  202.5510  148.0290 N   0  0  0  0  0  0  0  0  0  0  0  0
  161.2640  203.4460  145.7760 N   0  0  0  0  0  1  0  0  0  0  0  0
  161.6300  204.2240  149.5160 C   0  0  0  0  0  0  0  0  0  0  0  0
  160.9040  201.9970  150.4400 C   0  0  0  0  0  3  0  0  0  0  0  0
  160.8370  200.7210  150.2450 N   0  0  0  0  0  2  0  0  0  0  0  0
  1 19  1  6  0  0  0
  2  1  1  0  0  0  0
  3  4  1  0  0  0  0
  4  2  1  0  0  0  0
  5 29  1  0  0  0  0
  5  3  2  0  0  0  0
  6  1  1  0  0  0  0
  7 16  1  0  0  0  0
  8 15  2  0  0  0  0
  8  7  1  0  0  0  0
  9  7  2  0  0  0  0
  9 10  1  0  0  0  0
 11 12  1  0  0  0  0
 12 24  1  1  0  0  0
 12 10  1  0  0  0  0
 13 14  2  0  0  0  0
 13  8  1  0  0  0  0
 14  9  1  0  0  0  0
 15  5  1  0  0  0  0
 16  3  1  0  0  0  0
 16 18  1  1  0  0  0
 17 11  1  0  0  0  0
 17 14  1  0  0  0  0
 18  6  1  0  0  0  0
 19 23  1  0  0  0  0
 19 20  1  1  0  0  0
 21 23  2  0  0  0  0
 23 22  1  0  0  0  0
 24 25  1  0  0  0  0
 25 27  1  0  0  0  0
 27 26  1  0  0  0  0
 28 27  2  0  0  0  0
 30 35  1  0  0  0  0
 31 30  1  0  0  0  0
 31 33  2  0  0  0  0
 32 35  2  0  0  0  0
 32 36  1  0  0  0  0
 33 32  1  0  0  0  0
 34 31  1  0  0  0  0
 35 29  1  0  0  0  0
 37 36  2  0  0  0  0
M  END
>  <MODEL>
3

>  <REMARK>
 VINA RESULT:      -5.3      3.973      7.591
  Name = 
  8 active torsions:
  status: ('A' for Active; 'I' for Inactive)
    1  A    between atoms: C_3  and  C_22
    2  A    between atoms: C_7  and  C_14
    3  A    between atoms: C_10  and  C_30
    4  A    between atoms: C_11  and  C_16
    5  A    between atoms: C_14  and  O_23
    6  A    between atoms: C_20  and  O_23
    7  A    between atoms: C_22  and  C_32
    8  A    between atoms: C_30  and  C_34
                            x       y       z     vdW  Elec       q    Type
                         _______ _______ _______ _____ _____    ______ ____

>  <TORSDO>
F 8

$$$$
=
 OpenBabel11052410573D

 37 41  0  0  1  0  0  0  0  0999 V2000
  160.7330  206.1750  148.3910 C   0  0  1  0  0  3  0  0  0  0  0  0
  160.4390  206.1500  149.8980 C   0  0  0  0  0  2  0  0  0  0  0  0
  161.4610  208.2290  150.8270 C   0  0  0  0  0  0  0  0  0  0  0  0
  161.5760  206.7350  150.7330 C   0  0  0  0  0  2  0  0  0  0  0  0
  161.1810  208.8400  152.0820 C   0  0  0  0  0  0  0  0  0  0  0  0
  160.7500  207.6030  147.8270 C   0  0  0  0  0  2  0  0  0  0  0  0
  161.4990  210.4190  149.8170 C   0  0  0  0  0  0  0  0  0  0  0  0
  161.2350  211.0040  151.0380 C   0  0  1  0  0  3  0  0  0  0  0  0
  161.6110  211.4640  148.9250 C   0  0  0  0  0  0  0  0  0  0  0  0
  161.9260  211.4580  147.6290 C   0  0  0  0  0  2  0  0  0  0  0  0
  161.3720  213.9450  147.5920 C   0  0  0  0  0  2  0  0  0  0  0  0
  162.1600  212.7840  146.9400 C   0  0  2  0  0  3  0  0  0  0  0  0
  161.1610  212.3520  150.9650 N   0  0  0  0  0  0  0  0  0  0  0  0
  161.3760  212.6150  149.6560 C   0  0  0  0  0  0  0  0  0  0  0  0
  161.0700  210.2400  152.1860 C   0  0  0  0  0  3  0  0  0  0  0  0
  161.6320  209.0310  149.6710 C   0  0  0  0  0  0  0  0  0  0  0  0
  161.3110  213.8260  149.0990 C   0  0  0  0  0  2  0  0  0  0  0  0
  161.9340  208.4240  148.3330 C   0  0  0  0  0  2  0  0  0  0  0  0
  161.9760  205.3520  147.9980 C   0  0  1  0  0  3  0  0  0  0  0  0
  161.8890  203.9270  148.5270 C   0  0  0  0  0  1  0  0  0  0  0  0
  161.0890  205.5180  145.6710 O   0  0  0  0  0  0  0  0  0  0  0  0
  163.3150  205.0970  146.0220 O   0  0  0  0  0  1  0  0  0  0  0  0
  162.1740  205.3160  146.5130 C   0  0  0  0  0  0  0  0  0  0  0  0
  161.8390  212.6850  145.5840 O   0  0  0  0  0  0  0  0  0  0  0  0
  160.6340  213.3810  145.4480 C   0  0  0  0  0  2  0  0  0  0  0  0
  159.8620  211.8760  143.6200 O   0  0  0  0  0  0  0  0  0  0  0  0
  159.6050  212.4980  144.8340 C   0  0  0  0  0  0  0  0  0  0  0  0
  158.4990  212.3200  145.4080 O   0  0  0  0  0  1  0  0  0  0  0  0
  160.9610  208.0140  153.3110 C   0  0  0  0  0  2  0  0  0  0  0  0
  162.1520  210.2010  154.6440 S   0  0  0  0  0  0  0  0  0  0  0  0
  161.8540  210.3910  156.2880 C   0  0  0  0  0  0  0  0  0  0  0  0
  160.6360  208.5760  155.8070 C   0  0  0  0  0  0  0  0  0  0  0  0
  161.0210  209.4490  156.7780 N   0  0  0  0  0  0  0  0  0  0  0  0
  162.3890  211.4430  157.0830 N   0  0  0  0  0  1  0  0  0  0  0  0
  161.1640  208.8390  154.5430 C   0  0  0  0  0  0  0  0  0  0  0  0
  159.7370  207.4500  156.0830 C   0  0  0  0  0  3  0  0  0  0  0  0
  159.9230  206.6890  157.1110 N   0  0  0  0  0  2  0  0  0  0  0  0
  1 19  1  1  0  0  0
  1  2  1  0  0  0  0
  2  4  1  0  0  0  0
  3  5  1  0  0  0  0
  4  3  1  0  0  0  0
  5 15  2  0  0  0  0
  5 29  1  0  0  0  0
  6 18  1  0  0  0  0
  6  1  1  0  0  0  0
  7  8  1  0  0  0  0
  8 15  1  6  0  0  0
  9 14  1  0  0  0  0
  9  7  2  0  0  0  0
 10  9  1  0  0  0  0
 11 17  1  0  0  0  0
 12 24  1  6  0  0  0
 12 11  1  0  0  0  0
 12 10  1  0  0  0  0
 13  8  1  0  0  0  0
 14 13  2  0  0  0  0
 16  7  1  0  0  0  0
 16  3  2  0  0  0  0
 17 14  1  0  0  0  0
 18 16  1  0  0  0  0
 19 20  1  6  0  0  0
 21 23  2  0  0  0  0
 22 23  1  0  0  0  0
 23 19  1  0  0  0  0
 25 24  1  0  0  0  0
 26 27  2  0  0  0  0
 27 28  1  0  0  0  0
 27 25  1  0  0  0  0
 29 35  1  0  0  0  0
 30 31  1  0  0  0  0
 31 33  2  0  0  0  0
 31 34  1  0  0  0  0
 32 36  1  0  0  0  0
 32 33  1  0  0  0  0
 35 30  1  0  0  0  0
 35 32  2  0  0  0  0
 36 37  2  0  0  0  0
M  END
>  <MODEL>
4

>  <REMARK>
 VINA RESULT:      -5.0      4.460      8.318
  Name = 
  8 active torsions:
  status: ('A' for Active; 'I' for Inactive)
    1  A    between atoms: C_3  and  C_22
    2  A    between atoms: C_7  and  C_14
    3  A    between atoms: C_10  and  C_30
    4  A    between atoms: C_11  and  C_16
    5  A    between atoms: C_14  and  O_23
    6  A    between atoms: C_20  and  O_23
    7  A    between atoms: C_22  and  C_32
    8  A    between atoms: C_30  and  C_34
                            x       y       z     vdW  Elec       q    Type
                         _______ _______ _______ _____ _____    ______ ____

>  <TORSDO>
F 8

$$$$
