=
 OpenBabel11042421273D

 53 58  0  0  1  0  0  0  0  0999 V2000
  161.2670  209.0350  151.2570 C   0  0  1  0  0  3  0  0  0  0  0  0
  160.3610  210.9100  152.5300 O   0  0  0  0  0  1  0  0  0  0  0  0
  160.3300  209.5210  152.3680 C   0  0  2  0  0  3  0  0  0  0  0  0
  160.5930  208.8420  153.6320 N   0  0  0  0  0  0  0  0  0  0  0  0
  160.6590  207.4090  153.6880 C   0  0  0  0  0  3  0  0  0  0  0  0
  161.0200  206.7600  154.7880 C   0  0  0  0  0  2  0  0  0  0  0  0
  160.8290  209.6540  154.8190 C   0  0  0  0  0  2  0  0  0  0  0  0
  159.5340  209.8680  155.5870 C   0  0  0  0  0  2  0  0  0  0  0  0
  160.6920  212.1210  155.8960 C   0  0  0  0  0  2  0  0  0  0  0  0
  160.1430  211.7050  157.2580 C   0  0  0  0  0  2  0  0  0  0  0  0
  159.4050  211.3290  155.9870 C   0  0  0  0  0  0  0  0  0  0  0  0
  156.9220  211.1370  155.6500 C   0  0  0  0  0  1  0  0  0  0  0  0
  158.1090  212.0870  155.6530 C   0  0  2  0  0  3  0  0  0  0  0  0
  158.1880  212.7860  154.3770 N   0  0  0  0  0  2  0  0  0  0  0  0
  157.0490  213.6820  154.3110 C   0  0  0  0  0  2  0  0  0  0  0  0
  156.7010  213.9500  152.8890 C   0  0  0  0  0  3  0  0  0  0  0  0
  155.5330  214.0410  152.5530 O   0  0  0  0  0  0  0  0  0  0  0  0
  162.0830  210.1520  150.7890 N   0  0  0  0  0  2  0  0  0  0  0  0
  162.3330  209.8180  148.5350 C   0  0  0  0  0  1  0  0  0  0  0  0
  161.5870  210.5580  149.5390 N   0  0  0  0  0  0  0  0  0  0  0  0
  161.9250  211.9630  149.3590 C   0  0  0  0  0  2  0  0  0  0  0  0
  161.1810  212.5300  148.1490 C   0  0  0  0  0  2  0  0  0  0  0  0
  162.0180  213.5130  147.3280 C   0  0  0  0  0  0  0  0  0  0  0  0
  163.0160  212.7950  146.6680 O   0  0  0  0  0  1  0  0  0  0  0  0
  162.6200  214.4510  148.1710 O   0  0  0  0  0  1  0  0  0  0  0  0
  161.1290  214.2140  146.2990 C   0  0  0  0  0  2  0  0  0  0  0  0
  159.3730  212.4790  141.7160 C   0  0  2  0  0  3  0  0  0  0  0  0
  159.9020  213.3220  140.6950 O   0  0  0  0  0  0  0  0  0  0  0  0
  160.4490  214.3500  142.7610 C   0  0  1  0  0  3  0  0  0  0  0  0
  162.7840  214.0240  143.2790 O   0  0  0  0  0  1  0  0  0  0  0  0
  161.1310  213.5100  144.9410 C   0  0  1  0  0  3  0  0  0  0  0  0
  159.8190  212.7940  144.5210 C   0  0  2  0  0  3  0  0  0  0  0  0
  159.7870  213.0640  143.0410 C   0  0  1  0  0  0  0  0  0  0  0  0
  161.5610  214.4530  143.8000 C   0  0  2  0  0  3  0  0  0  0  0  0
  160.7660  214.2900  141.2820 C   0  0  0  0  0  2  0  0  0  0  0  0
  160.5010  211.8270  142.4590 C   0  0  0  0  0  2  0  0  0  0  0  0
  157.7360  212.2730  145.6670 O   0  0  0  0  0  1  0  0  0  0  0  0
  158.5440  213.3160  145.2000 C   0  0  0  0  0  2  0  0  0  0  0  0
  162.1570  207.8580  151.6670 C   0  0  0  0  0  2  0  0  0  0  0  0
  161.5130  204.3830  151.1130 C   0  0  0  0  0  3  0  0  0  0  0  0
  161.2560  202.3240  148.1550 C   0  0  0  0  0  0  0  0  0  0  0  0
  161.4860  203.6350  146.1750 N   0  0  0  0  0  0  0  0  0  0  0  0
  161.9510  205.4820  151.1790 C   0  0  0  0  0  3  0  0  0  0  0  0
  162.1470  206.7820  150.5970 C   0  0  1  0  0  3  0  0  0  0  0  0
  161.2110  204.7740  146.8550 C   0  0  0  0  0  3  0  0  0  0  0  0
  160.8820  203.3500  150.3960 C   0  0  0  0  0  0  0  0  0  0  0  0
  161.3490  201.0410  148.7650 N   0  0  0  0  0  1  0  0  0  0  0  0
  161.5160  202.4300  146.7920 C   0  0  0  0  0  3  0  0  0  0  0  0
  160.4900  206.0960  148.7450 C   0  0  0  0  0  3  0  0  0  0  0  0
  160.9570  206.9530  149.6900 C   0  0  0  0  0  3  0  0  0  0  0  0
  160.9790  203.4860  148.9140 C   0  0  0  0  0  0  0  0  0  0  0  0
  160.0660  202.4940  150.9990 C   0  0  0  0  0  2  0  0  0  0  0  0
  160.9750  204.7650  148.2330 C   0  0  0  0  0  0  0  0  0  0  0  0
  1 39  1  1  0  0  0
  1  3  1  0  0  0  0
  3  2  1  1  0  0  0
  3  4  1  0  0  0  0
  4  5  1  0  0  0  0
  4  7  1  0  0  0  0
  5  6  2  0  0  0  0
  7  8  1  0  0  0  0
  8 11  1  0  0  0  0
  9 11  1  0  0  0  0
  9 10  1  0  0  0  0
 11 10  1  0  0  0  0
 13 12  1  6  0  0  0
 13 11  1  0  0  0  0
 14 13  1  0  0  0  0
 15 14  1  0  0  0  0
 16 15  1  0  0  0  0
 17 16  2  0  0  0  0
 18  1  1  0  0  0  0
 19 20  1  0  0  0  0
 20 18  1  0  0  0  0
 21 20  1  0  0  0  0
 22 21  1  0  0  0  0
 23 22  1  0  0  0  0
 23 25  1  0  0  0  0
 24 23  1  0  0  0  0
 26 23  1  0  0  0  0
 27 36  1  6  0  0  0
 27 33  1  0  0  0  0
 28 35  1  0  0  0  0
 28 27  1  0  0  0  0
 29 35  1  6  0  0  0
 29 33  1  0  0  0  0
 29 34  1  0  0  0  0
 31 26  1  1  0  0  0
 32 31  1  0  0  0  0
 32 38  1  1  0  0  0
 33 36  1  6  0  0  0
 33 32  1  0  0  0  0
 34 30  1  6  0  0  0
 34 31  1  0  0  0  0
 38 37  1  0  0  0  0
 40 43  2  0  0  0  0
 41 47  1  0  0  0  0
 41 51  1  0  0  0  0
 42 48  1  0  0  0  0
 42 45  2  0  0  0  0
 44 43  1  0  0  0  0
 44 39  1  1  0  0  0
 45 53  1  0  0  0  0
 46 52  2  0  0  0  0
 46 40  1  0  0  0  0
 48 41  2  0  0  0  0
 49 50  2  0  0  0  0
 50 44  1  0  0  0  0
 51 46  1  0  0  0  0
 53 49  1  0  0  0  0
 53 51  2  0  0  0  0
M  END
>  <MODEL>
1

>  <REMARK>
 VINA RESULT:      -6.8      0.000      0.000
  Name = 
  20 active torsions:
  status: ('A' for Active; 'I' for Inactive)
    1  A    between atoms: C_6  and  C_36
    2  A    between atoms: C_6  and  C_42
    3  A    between atoms: C_8  and  C_53
    4  A    between atoms: C_10  and  C_18
    5  A    between atoms: C_10  and  N_20
    6  A    between atoms: C_10  and  C_49
    7  A    between atoms: C_12  and  C_18
    8  A    between atoms: C_15  and  N_39
    9  A    between atoms: C_15  and  C_50
   10  A    between atoms: C_16  and  C_47
   11  A    between atoms: C_16  and  C_50
   12  A    between atoms: N_20  and  N_39
   13  A    between atoms: N_29  and  C_35
   14  A    between atoms: N_29  and  C_36
   15  A    between atoms: N_29  and  C_49
   16  A    between atoms: C_30  and  N_37
   17  A    between atoms: C_30  and  C_42
   18  A    between atoms: C_33  and  C_47
   19  A    between atoms: N_37  and  C_53
   20  A    between atoms: C_38  and  C_45
                            x       y       z     vdW  Elec       q    Type
                         _______ _______ _______ _____ _____    ______ ____

>  <TORSDO>
F 20

$$$$
=
 OpenBabel11042421273D

 53 58  0  0  1  0  0  0  0  0999 V2000
  162.0520  208.2580  148.7490 C   0  0  1  0  0  3  0  0  0  0  0  0
  159.9950  207.0160  148.3170 O   0  0  0  0  0  1  0  0  0  0  0  0
  161.2690  207.3190  147.8240 C   0  0  2  0  0  3  0  0  0  0  0  0
  162.0180  206.1010  147.5320 N   0  0  0  0  0  0  0  0  0  0  0  0
  162.6370  205.9190  146.2490 C   0  0  0  0  0  3  0  0  0  0  0  0
  163.1480  204.7550  145.8690 C   0  0  0  0  0  2  0  0  0  0  0  0
  162.1560  205.1020  148.5840 C   0  0  0  0  0  2  0  0  0  0  0  0
  160.9190  204.2190  148.6480 C   0  0  0  0  0  2  0  0  0  0  0  0
  160.2870  204.1780  151.1200 C   0  0  0  0  0  2  0  0  0  0  0  0
  161.8010  204.0080  151.0380 C   0  0  0  0  0  2  0  0  0  0  0  0
  160.9070  203.4390  149.9530 C   0  0  0  0  0  0  0  0  0  0  0  0
  161.2170  201.2740  151.1910 C   0  0  0  0  0  1  0  0  0  0  0  0
  160.6960  201.9170  149.9150 C   0  0  2  0  0  3  0  0  0  0  0  0
  161.3230  201.2970  148.7550 N   0  0  0  0  0  2  0  0  0  0  0  0
  160.3100  201.2040  147.7220 C   0  0  0  0  0  2  0  0  0  0  0  0
  160.9550  201.2360  146.3800 C   0  0  0  0  0  3  0  0  0  0  0  0
  160.4930  201.9380  145.4970 O   0  0  0  0  0  0  0  0  0  0  0  0
  161.3560  209.5380  148.8420 N   0  0  0  0  0  2  0  0  0  0  0  0
  162.6160  211.4450  149.0120 C   0  0  0  0  0  1  0  0  0  0  0  0
  162.0690  210.4760  148.0770 N   0  0  0  0  0  0  0  0  0  0  0  0
  161.1130  211.1930  147.2440 C   0  0  0  0  0  2  0  0  0  0  0  0
  161.5130  212.6650  147.1350 C   0  0  0  0  0  2  0  0  0  0  0  0
  160.3250  213.6020  146.9090 C   0  0  0  0  0  0  0  0  0  0  0  0
  160.2220  214.4530  148.0090 O   0  0  0  0  0  1  0  0  0  0  0  0
  159.1450  212.8610  146.7980 O   0  0  0  0  0  1  0  0  0  0  0  0
  160.5550  214.4290  145.6430 C   0  0  0  0  0  2  0  0  0  0  0  0
  161.0310  212.6900  140.7590 C   0  0  2  0  0  3  0  0  0  0  0  0
  162.2490  213.2050  140.2260 O   0  0  0  0  0  0  0  0  0  0  0  0
  161.9180  214.2920  142.3070 C   0  0  1  0  0  3  0  0  0  0  0  0
  163.3930  213.3800  143.9860 O   0  0  0  0  0  1  0  0  0  0  0  0
  161.0500  213.5830  144.4680 C   0  0  1  0  0  3  0  0  0  0  0  0
  160.0090  213.2260  143.3730 C   0  0  2  0  0  3  0  0  0  0  0  0
  160.8460  213.3000  142.1250 C   0  0  1  0  0  0  0  0  0  0  0  0
  162.2850  214.2060  143.7850 C   0  0  2  0  0  3  0  0  0  0  0  0
  162.9270  213.9520  141.2320 C   0  0  0  0  0  2  0  0  0  0  0  0
  161.3310  211.8440  141.9610 C   0  0  0  0  0  2  0  0  0  0  0  0
  158.1870  214.1170  142.0280 O   0  0  0  0  0  1  0  0  0  0  0  0
  158.8060  214.1770  143.2820 C   0  0  0  0  0  2  0  0  0  0  0  0
  162.3050  207.6840  150.1450 C   0  0  0  0  0  2  0  0  0  0  0  0
  161.0720  207.5330  153.5000 C   0  0  0  0  0  3  0  0  0  0  0  0
  159.6010  209.9570  155.7390 C   0  0  0  0  0  0  0  0  0  0  0  0
  159.5500  212.1250  154.7430 N   0  0  0  0  0  0  0  0  0  0  0  0
  161.2360  207.6500  152.3320 C   0  0  0  0  0  3  0  0  0  0  0  0
  161.5450  208.4740  151.1950 C   0  0  1  0  0  3  0  0  0  0  0  0
  160.4860  211.7670  153.8310 C   0  0  0  0  0  3  0  0  0  0  0  0
  160.9440  208.0850  154.7870 C   0  0  0  0  0  0  0  0  0  0  0  0
  159.0620  209.0680  156.7120 N   0  0  0  0  0  1  0  0  0  0  0  0
  159.1030  211.2560  155.6800 C   0  0  0  0  0  3  0  0  0  0  0  0
  162.1780  210.3500  152.8470 C   0  0  0  0  0  3  0  0  0  0  0  0
  162.4170  209.5630  151.7650 C   0  0  0  0  0  3  0  0  0  0  0  0
  160.5690  209.5280  154.8000 C   0  0  0  0  0  0  0  0  0  0  0  0
  161.3750  207.4330  155.8610 C   0  0  0  0  0  2  0  0  0  0  0  0
  161.0140  210.4720  153.7950 C   0  0  0  0  0  0  0  0  0  0  0  0
  1 18  1  0  0  0  0
  1 39  1  1  0  0  0
  3  2  1  1  0  0  0
  3  1  1  0  0  0  0
  4  3  1  0  0  0  0
  4  7  1  0  0  0  0
  5  4  1  0  0  0  0
  6  5  2  0  0  0  0
  7  8  1  0  0  0  0
  8 11  1  0  0  0  0
 10  9  1  0  0  0  0
 11 10  1  0  0  0  0
 11  9  1  0  0  0  0
 13 11  1  0  0  0  0
 13 12  1  1  0  0  0
 14 13  1  0  0  0  0
 15 14  1  0  0  0  0
 16 15  1  0  0  0  0
 17 16  2  0  0  0  0
 20 18  1  0  0  0  0
 20 19  1  0  0  0  0
 21 20  1  0  0  0  0
 22 21  1  0  0  0  0
 23 22  1  0  0  0  0
 23 24  1  0  0  0  0
 25 23  1  0  0  0  0
 26 23  1  0  0  0  0
 27 36  1  1  0  0  0
 27 33  1  0  0  0  0
 28 27  1  0  0  0  0
 28 35  1  0  0  0  0
 29 35  1  6  0  0  0
 29 34  1  0  0  0  0
 31 26  1  1  0  0  0
 32 38  1  6  0  0  0
 32 31  1  0  0  0  0
 33 36  1  1  0  0  0
 33 29  1  0  0  0  0
 33 32  1  0  0  0  0
 34 30  1  6  0  0  0
 34 31  1  0  0  0  0
 37 38  1  0  0  0  0
 40 46  1  0  0  0  0
 41 47  1  0  0  0  0
 42 48  2  0  0  0  0
 43 40  2  0  0  0  0
 44 39  1  6  0  0  0
 44 50  1  0  0  0  0
 44 43  1  0  0  0  0
 45 42  1  0  0  0  0
 46 51  1  0  0  0  0
 46 52  2  0  0  0  0
 48 41  1  0  0  0  0
 49 53  1  0  0  0  0
 50 49  2  0  0  0  0
 51 41  2  0  0  0  0
 53 45  2  0  0  0  0
 53 51  1  0  0  0  0
M  END
>  <MODEL>
2

>  <REMARK>
 VINA RESULT:      -5.9      2.234      7.346
  Name = 
  20 active torsions:
  status: ('A' for Active; 'I' for Inactive)
    1  A    between atoms: C_6  and  C_36
    2  A    between atoms: C_6  and  C_42
    3  A    between atoms: C_8  and  C_53
    4  A    between atoms: C_10  and  C_18
    5  A    between atoms: C_10  and  N_20
    6  A    between atoms: C_10  and  C_49
    7  A    between atoms: C_12  and  C_18
    8  A    between atoms: C_15  and  N_39
    9  A    between atoms: C_15  and  C_50
   10  A    between atoms: C_16  and  C_47
   11  A    between atoms: C_16  and  C_50
   12  A    between atoms: N_20  and  N_39
   13  A    between atoms: N_29  and  C_35
   14  A    between atoms: N_29  and  C_36
   15  A    between atoms: N_29  and  C_49
   16  A    between atoms: C_30  and  N_37
   17  A    between atoms: C_30  and  C_42
   18  A    between atoms: C_33  and  C_47
   19  A    between atoms: N_37  and  C_53
   20  A    between atoms: C_38  and  C_45
                            x       y       z     vdW  Elec       q    Type
                         _______ _______ _______ _____ _____    ______ ____

>  <TORSDO>
F 20

$$$$
=
 OpenBabel11042421273D

 53 58  0  0  1  0  0  0  0  0999 V2000
  161.4020  208.9470  149.7380 C   0  0  1  0  0  3  0  0  0  0  0  0
  163.1880  207.8910  148.4510 O   0  0  0  0  0  1  0  0  0  0  0  0
  162.1440  207.6620  149.3550 C   0  0  2  0  0  3  0  0  0  0  0  0
  161.2320  206.6410  148.8490 N   0  0  0  0  0  0  0  0  0  0  0  0
  160.5120  205.7960  149.7580 C   0  0  0  0  0  3  0  0  0  0  0  0
  161.1120  204.8550  150.4760 C   0  0  0  0  0  2  0  0  0  0  0  0
  161.0410  206.5350  147.4080 C   0  0  0  0  0  2  0  0  0  0  0  0
  162.1020  205.6350  146.7930 C   0  0  0  0  0  2  0  0  0  0  0  0
  161.5320  205.3950  144.3180 C   0  0  0  0  0  2  0  0  0  0  0  0
  160.2170  205.3480  145.0910 C   0  0  0  0  0  2  0  0  0  0  0  0
  161.4840  204.7790  145.7000 C   0  0  0  0  0  0  0  0  0  0  0  0
  160.3910  202.5700  145.2060 C   0  0  0  0  0  1  0  0  0  0  0  0
  161.6280  203.2500  145.7740 C   0  0  2  0  0  3  0  0  0  0  0  0
  161.8740  202.7800  147.1310 N   0  0  0  0  0  2  0  0  0  0  0  0
  160.8510  201.7970  147.4330 C   0  0  0  0  0  2  0  0  0  0  0  0
  160.7850  201.5760  148.9050 C   0  0  0  0  0  3  0  0  0  0  0  0
  159.7260  201.2810  149.4310 O   0  0  0  0  0  0  0  0  0  0  0  0
  160.8300  208.7970  151.0720 N   0  0  0  0  0  2  0  0  0  0  0  0
  161.7800  207.7880  152.8980 C   0  0  0  0  0  1  0  0  0  0  0  0
  161.8690  208.9330  152.0070 N   0  0  0  0  0  0  0  0  0  0  0  0
  161.5920  210.1130  152.8160 C   0  0  0  0  0  2  0  0  0  0  0  0
  161.9440  209.8400  154.2790 C   0  0  0  0  0  2  0  0  0  0  0  0
  160.8370  210.2460  155.2550 C   0  0  0  0  0  0  0  0  0  0  0  0
  161.0810  209.6220  156.4780 O   0  0  0  0  0  1  0  0  0  0  0  0
  159.5950  209.8250  154.7720 O   0  0  0  0  0  1  0  0  0  0  0  0
  160.8480  211.7640  155.4440 C   0  0  0  0  0  2  0  0  0  0  0  0
  156.1570  213.3600  153.8480 C   0  0  2  0  0  3  0  0  0  0  0  0
  155.2010  212.3820  154.2500 O   0  0  0  0  0  0  0  0  0  0  0  0
  157.3350  211.4510  154.6960 C   0  0  1  0  0  3  0  0  0  0  0  0
  157.8120  211.5150  157.0620 O   0  0  0  0  0  1  0  0  0  0  0  0
  159.4410  212.3590  155.5130 C   0  0  1  0  0  3  0  0  0  0  0  0
  158.9750  213.2020  154.2950 C   0  0  2  0  0  3  0  0  0  0  0  0
  157.5200  212.8270  154.2070 C   0  0  1  0  0  0  0  0  0  0  0  0
  158.3720  211.2850  155.8030 C   0  0  2  0  0  3  0  0  0  0  0  0
  155.8540  211.3590  154.9940 C   0  0  0  0  0  2  0  0  0  0  0  0
  156.8410  213.9170  155.0620 C   0  0  0  0  0  2  0  0  0  0  0  0
  159.0240  213.4330  151.8740 O   0  0  0  0  0  1  0  0  0  0  0  0
  159.7000  212.8980  152.9760 C   0  0  0  0  0  2  0  0  0  0  0  0
  162.2690  210.2080  149.6660 C   0  0  0  0  0  2  0  0  0  0  0  0
  160.1200  212.3540  147.7750 C   0  0  0  0  0  3  0  0  0  0  0  0
  160.4400  214.0530  144.6020 C   0  0  0  0  0  0  0  0  0  0  0  0
  162.6030  213.7020  143.6560 N   0  0  0  0  0  0  0  0  0  0  0  0
  160.8150  211.4900  148.1930 C   0  0  0  0  0  3  0  0  0  0  0  0
  162.1150  210.8880  148.3190 C   0  0  1  0  0  3  0  0  0  0  0  0
  163.1060  213.3260  144.8560 C   0  0  0  0  0  3  0  0  0  0  0  0
  159.9180  213.4930  146.9750 C   0  0  0  0  0  0  0  0  0  0  0  0
  159.0730  214.3870  144.3870 N   0  0  0  0  0  1  0  0  0  0  0  0
  161.3040  214.0580  143.5110 C   0  0  0  0  0  3  0  0  0  0  0  0
  163.0990  213.0200  147.2540 C   0  0  0  0  0  3  0  0  0  0  0  0
  163.0640  212.0540  148.2070 C   0  0  0  0  0  3  0  0  0  0  0  0
  160.9120  213.6530  145.8750 C   0  0  0  0  0  0  0  0  0  0  0  0
  159.0760  214.4510  147.3430 C   0  0  0  0  0  2  0  0  0  0  0  0
  162.3010  213.2570  145.9980 C   0  0  0  0  0  0  0  0  0  0  0  0
  1 39  1  1  0  0  0
  1 18  1  0  0  0  0
  3  2  1  6  0  0  0
  3  1  1  0  0  0  0
  4  3  1  0  0  0  0
  4  5  1  0  0  0  0
  5  6  2  0  0  0  0
  7  4  1  0  0  0  0
  8  7  1  0  0  0  0
  9 10  1  0  0  0  0
  9 11  1  0  0  0  0
 10 11  1  0  0  0  0
 11 13  1  0  0  0  0
 11  8  1  0  0  0  0
 13 12  1  1  0  0  0
 13 14  1  0  0  0  0
 14 15  1  0  0  0  0
 15 16  1  0  0  0  0
 16 17  2  0  0  0  0
 18 20  1  0  0  0  0
 20 21  1  0  0  0  0
 20 19  1  0  0  0  0
 21 22  1  0  0  0  0
 22 23  1  0  0  0  0
 23 26  1  0  0  0  0
 23 24  1  0  0  0  0
 25 23  1  0  0  0  0
 27 33  1  0  0  0  0
 27 28  1  0  0  0  0
 27 36  1  1  0  0  0
 28 35  1  0  0  0  0
 29 35  1  1  0  0  0
 29 34  1  0  0  0  0
 31 26  1  6  0  0  0
 31 34  1  0  0  0  0
 32 38  1  6  0  0  0
 32 31  1  0  0  0  0
 33 32  1  0  0  0  0
 33 29  1  0  0  0  0
 33 36  1  1  0  0  0
 34 30  1  1  0  0  0
 37 38  1  0  0  0  0
 40 43  2  0  0  0  0
 41 51  1  0  0  0  0
 42 45  2  0  0  0  0
 43 44  1  0  0  0  0
 44 39  1  1  0  0  0
 45 53  1  0  0  0  0
 46 52  2  0  0  0  0
 46 40  1  0  0  0  0
 47 41  1  0  0  0  0
 48 42  1  0  0  0  0
 48 41  2  0  0  0  0
 49 50  2  0  0  0  0
 50 44  1  0  0  0  0
 51 53  2  0  0  0  0
 51 46  1  0  0  0  0
 53 49  1  0  0  0  0
M  END
>  <MODEL>
3

>  <REMARK>
 VINA RESULT:      -5.1      2.819     10.217
  Name = 
  20 active torsions:
  status: ('A' for Active; 'I' for Inactive)
    1  A    between atoms: C_6  and  C_36
    2  A    between atoms: C_6  and  C_42
    3  A    between atoms: C_8  and  C_53
    4  A    between atoms: C_10  and  C_18
    5  A    between atoms: C_10  and  N_20
    6  A    between atoms: C_10  and  C_49
    7  A    between atoms: C_12  and  C_18
    8  A    between atoms: C_15  and  N_39
    9  A    between atoms: C_15  and  C_50
   10  A    between atoms: C_16  and  C_47
   11  A    between atoms: C_16  and  C_50
   12  A    between atoms: N_20  and  N_39
   13  A    between atoms: N_29  and  C_35
   14  A    between atoms: N_29  and  C_36
   15  A    between atoms: N_29  and  C_49
   16  A    between atoms: C_30  and  N_37
   17  A    between atoms: C_30  and  C_42
   18  A    between atoms: C_33  and  C_47
   19  A    between atoms: N_37  and  C_53
   20  A    between atoms: C_38  and  C_45
                            x       y       z     vdW  Elec       q    Type
                         _______ _______ _______ _____ _____    ______ ____

>  <TORSDO>
F 20

$$$$
=
 OpenBabel11042421273D

 53 58  0  0  1  0  0  0  0  0999 V2000
  161.4890  208.6810  149.3970 C   0  0  1  0  0  3  0  0  0  0  0  0
  163.3030  208.2830  147.8110 O   0  0  0  0  0  1  0  0  0  0  0  0
  162.5200  207.7060  148.8180 C   0  0  2  0  0  3  0  0  0  0  0  0
  161.8950  206.4740  148.3490 N   0  0  0  0  0  0  0  0  0  0  0  0
  161.2210  206.4370  147.0820 C   0  0  0  0  0  3  0  0  0  0  0  0
  161.2580  205.3730  146.2900 C   0  0  0  0  0  2  0  0  0  0  0  0
  162.0100  205.2790  149.1760 C   0  0  0  0  0  2  0  0  0  0  0  0
  160.6330  204.7230  149.5060 C   0  0  0  0  0  2  0  0  0  0  0  0
  160.2380  203.1720  151.4940 C   0  0  0  0  0  2  0  0  0  0  0  0
  161.7420  203.2040  151.2380 C   0  0  0  0  0  2  0  0  0  0  0  0
  160.7660  203.3230  150.0830 C   0  0  0  0  0  0  0  0  0  0  0  0
  161.8170  201.2070  149.2250 C   0  0  0  0  0  1  0  0  0  0  0  0
  160.5950  202.1090  149.1550 C   0  0  2  0  0  3  0  0  0  0  0  0
  160.3430  202.4980  147.7730 N   0  0  0  0  0  2  0  0  0  0  0  0
  161.0710  201.5690  146.9300 C   0  0  0  0  0  2  0  0  0  0  0  0
  160.3240  201.3500  145.6600 C   0  0  0  0  0  3  0  0  0  0  0  0
  160.2690  202.2350  144.8240 O   0  0  0  0  0  0  0  0  0  0  0  0
  160.9930  208.1640  150.6680 N   0  0  0  0  0  2  0  0  0  0  0  0
  161.9380  207.4010  152.6120 C   0  0  0  0  0  1  0  0  0  0  0  0
  161.9220  208.5040  151.6660 N   0  0  0  0  0  0  0  0  0  0  0  0
  161.4040  209.6620  152.3830 C   0  0  0  0  0  2  0  0  0  0  0  0
  162.1360  209.8230  153.7170 C   0  0  0  0  0  2  0  0  0  0  0  0
  161.2010  210.1320  154.8880 C   0  0  0  0  0  0  0  0  0  0  0  0
  161.6490  211.2970  155.5100 O   0  0  0  0  0  1  0  0  0  0  0  0
  161.2310  209.0850  155.8140 O   0  0  0  0  0  1  0  0  0  0  0  0
  159.7780  210.3440  154.3700 C   0  0  0  0  0  2  0  0  0  0  0  0
  156.4410  214.2400  155.2550 C   0  0  2  0  0  3  0  0  0  0  0  0
  155.3290  213.7110  155.9730 O   0  0  0  0  0  0  0  0  0  0  0  0
  156.6390  211.8510  155.3060 C   0  0  1  0  0  3  0  0  0  0  0  0
  157.8790  210.9690  157.1800 O   0  0  0  0  0  1  0  0  0  0  0  0
  159.0320  211.4420  155.1290 C   0  0  1  0  0  3  0  0  0  0  0  0
  158.6880  212.7330  154.3360 C   0  0  2  0  0  3  0  0  0  0  0  0
  157.3370  213.0820  154.8990 C   0  0  1  0  0  0  0  0  0  0  0  0
  157.7420  210.9160  155.7910 C   0  0  2  0  0  3  0  0  0  0  0  0
  155.5540  212.3310  156.2460 C   0  0  0  0  0  2  0  0  0  0  0  0
  157.6940  214.0380  156.0570 C   0  0  0  0  0  2  0  0  0  0  0  0
  159.8680  212.7430  152.2090 O   0  0  0  0  0  1  0  0  0  0  0  0
  158.6180  212.5630  152.8120 C   0  0  0  0  0  2  0  0  0  0  0  0
  162.0160  210.1090  149.5690 C   0  0  0  0  0  2  0  0  0  0  0  0
  160.0340  212.2600  147.5080 C   0  0  0  0  0  3  0  0  0  0  0  0
  160.6830  214.1210  144.4800 C   0  0  0  0  0  0  0  0  0  0  0  0
  162.9630  213.9010  143.8090 N   0  0  0  0  0  0  0  0  0  0  0  0
  160.7080  211.4040  147.9750 C   0  0  0  0  0  3  0  0  0  0  0  0
  162.0060  210.8470  148.2430 C   0  0  1  0  0  3  0  0  0  0  0  0
  163.3240  213.4870  145.0480 C   0  0  0  0  0  3  0  0  0  0  0  0
  159.8860  213.4270  146.7380 C   0  0  0  0  0  0  0  0  0  0  0  0
  159.3420  214.4130  144.1030 N   0  0  0  0  0  1  0  0  0  0  0  0
  161.6790  214.2130  143.5120 C   0  0  0  0  0  3  0  0  0  0  0  0
  163.0220  213.0650  147.4080 C   0  0  0  0  0  3  0  0  0  0  0  0
  162.9080  212.0520  148.3070 C   0  0  0  0  0  3  0  0  0  0  0  0
  161.0050  213.6790  145.7850 C   0  0  0  0  0  0  0  0  0  0  0  0
  158.9620  214.3340  147.0350 C   0  0  0  0  0  2  0  0  0  0  0  0
  162.3830  213.3320  146.0710 C   0  0  0  0  0  0  0  0  0  0  0  0
  1 39  1  1  0  0  0
  1 18  1  0  0  0  0
  3  2  1  6  0  0  0
  3  1  1  0  0  0  0
  4  3  1  0  0  0  0
  4  7  1  0  0  0  0
  5  4  1  0  0  0  0
  6  5  2  0  0  0  0
  7  8  1  0  0  0  0
  8 11  1  0  0  0  0
 10  9  1  0  0  0  0
 11 10  1  0  0  0  0
 11  9  1  0  0  0  0
 13 12  1  6  0  0  0
 13 11  1  0  0  0  0
 14 13  1  0  0  0  0
 15 14  1  0  0  0  0
 16 15  1  0  0  0  0
 17 16  2  0  0  0  0
 18 20  1  0  0  0  0
 20 21  1  0  0  0  0
 20 19  1  0  0  0  0
 21 22  1  0  0  0  0
 22 23  1  0  0  0  0
 23 24  1  0  0  0  0
 23 25  1  0  0  0  0
 26 23  1  0  0  0  0
 27 28  1  0  0  0  0
 27 36  1  1  0  0  0
 28 35  1  0  0  0  0
 29 34  1  0  0  0  0
 29 35  1  1  0  0  0
 31 26  1  6  0  0  0
 31 34  1  0  0  0  0
 32 38  1  6  0  0  0
 32 33  1  0  0  0  0
 32 31  1  0  0  0  0
 33 27  1  0  0  0  0
 33 29  1  0  0  0  0
 33 36  1  1  0  0  0
 34 30  1  1  0  0  0
 37 38  1  0  0  0  0
 40 43  2  0  0  0  0
 41 51  1  0  0  0  0
 42 45  2  0  0  0  0
 43 44  1  0  0  0  0
 44 50  1  0  0  0  0
 44 39  1  1  0  0  0
 45 53  1  0  0  0  0
 46 52  2  0  0  0  0
 46 40  1  0  0  0  0
 47 41  1  0  0  0  0
 48 42  1  0  0  0  0
 48 41  2  0  0  0  0
 49 50  2  0  0  0  0
 51 53  2  0  0  0  0
 51 46  1  0  0  0  0
 53 49  1  0  0  0  0
M  END
>  <MODEL>
4

>  <REMARK>
 VINA RESULT:      -4.9      2.818     10.226
  Name = 
  20 active torsions:
  status: ('A' for Active; 'I' for Inactive)
    1  A    between atoms: C_6  and  C_36
    2  A    between atoms: C_6  and  C_42
    3  A    between atoms: C_8  and  C_53
    4  A    between atoms: C_10  and  C_18
    5  A    between atoms: C_10  and  N_20
    6  A    between atoms: C_10  and  C_49
    7  A    between atoms: C_12  and  C_18
    8  A    between atoms: C_15  and  N_39
    9  A    between atoms: C_15  and  C_50
   10  A    between atoms: C_16  and  C_47
   11  A    between atoms: C_16  and  C_50
   12  A    between atoms: N_20  and  N_39
   13  A    between atoms: N_29  and  C_35
   14  A    between atoms: N_29  and  C_36
   15  A    between atoms: N_29  and  C_49
   16  A    between atoms: C_30  and  N_37
   17  A    between atoms: C_30  and  C_42
   18  A    between atoms: C_33  and  C_47
   19  A    between atoms: N_37  and  C_53
   20  A    between atoms: C_38  and  C_45
                            x       y       z     vdW  Elec       q    Type
                         _______ _______ _______ _____ _____    ______ ____

>  <TORSDO>
F 20

$$$$
=
 OpenBabel11042421273D

 53 58  0  0  1  0  0  0  0  0999 V2000
  161.5470  209.0510  149.8850 C   0  0  1  0  0  3  0  0  0  0  0  0
  162.7970  207.7860  148.2130 O   0  0  0  0  0  1  0  0  0  0  0  0
  162.3200  207.7760  149.5280 C   0  0  2  0  0  3  0  0  0  0  0  0
  161.5320  206.5750  149.7870 N   0  0  0  0  0  0  0  0  0  0  0  0
  161.2040  206.1980  151.1330 C   0  0  0  0  0  3  0  0  0  0  0  0
  161.1670  204.9300  151.5230 C   0  0  0  0  0  2  0  0  0  0  0  0
  161.0540  205.8010  148.6490 C   0  0  0  0  0  2  0  0  0  0  0  0
  162.1110  204.8040  148.1990 C   0  0  0  0  0  2  0  0  0  0  0  0
  160.4450  202.9140  148.6050 C   0  0  0  0  0  2  0  0  0  0  0  0
  161.8120  202.2720  148.3890 C   0  0  0  0  0  2  0  0  0  0  0  0
  161.4430  203.5490  147.6600 C   0  0  0  0  0  0  0  0  0  0  0  0
  160.8160  202.0210  145.7660 C   0  0  0  0  0  1  0  0  0  0  0  0
  161.1200  203.4580  146.1590 C   0  0  2  0  0  3  0  0  0  0  0  0
  162.1930  203.9840  145.3270 N   0  0  0  0  0  2  0  0  0  0  0  0
  161.5890  204.9130  144.3900 C   0  0  0  0  0  2  0  0  0  0  0  0
  160.3000  205.4160  144.9400 C   0  0  0  0  0  3  0  0  0  0  0  0
  160.2090  206.5690  145.3240 O   0  0  0  0  0  0  0  0  0  0  0  0
  161.0100  208.9290  151.2370 N   0  0  0  0  0  2  0  0  0  0  0  0
  162.3090  208.5140  153.0800 C   0  0  0  0  0  1  0  0  0  0  0  0
  161.9180  209.5340  152.1210 N   0  0  0  0  0  0  0  0  0  0  0  0
  161.2000  210.5570  152.8690 C   0  0  0  0  0  2  0  0  0  0  0  0
  161.7950  210.6970  154.2710 C   0  0  0  0  0  2  0  0  0  0  0  0
  160.7450  210.6660  155.3820 C   0  0  0  0  0  0  0  0  0  0  0  0
  161.3800  210.3230  156.5760 O   0  0  0  0  0  1  0  0  0  0  0  0
  159.7720  209.7050  155.0950 O   0  0  0  0  0  1  0  0  0  0  0  0
  160.1030  212.0480  155.5240 C   0  0  0  0  0  2  0  0  0  0  0  0
  155.2060  213.6910  154.8770 C   0  0  2  0  0  3  0  0  0  0  0  0
  155.1270  214.3470  153.6130 O   0  0  0  0  0  0  0  0  0  0  0  0
  157.4270  213.9250  154.0020 C   0  0  1  0  0  3  0  0  0  0  0  0
  158.1920  212.0750  152.6530 O   0  0  0  0  0  1  0  0  0  0  0  0
  158.6650  212.0840  155.0060 C   0  0  1  0  0  3  0  0  0  0  0  0
  157.5710  212.5520  156.0060 C   0  0  2  0  0  3  0  0  0  0  0  0
  156.6520  213.3310  155.1040 C   0  0  1  0  0  0  0  0  0  0  0  0
  158.5350  212.9170  153.7140 C   0  0  2  0  0  3  0  0  0  0  0  0
  156.3880  214.2620  152.9560 C   0  0  0  0  0  2  0  0  0  0  0  0
  155.6240  212.2650  154.6730 C   0  0  0  0  0  2  0  0  0  0  0  0
  159.4500  213.6790  157.0650 O   0  0  0  0  0  1  0  0  0  0  0  0
  158.0760  213.4280  157.1610 C   0  0  0  0  0  2  0  0  0  0  0  0
  162.3720  210.3340  149.7510 C   0  0  0  0  0  2  0  0  0  0  0  0
  160.1210  212.2600  147.7460 C   0  0  0  0  0  3  0  0  0  0  0  0
  160.3780  213.8350  144.5040 C   0  0  0  0  0  0  0  0  0  0  0  0
  162.5690  213.5760  143.5960 N   0  0  0  0  0  0  0  0  0  0  0  0
  160.8620  211.4590  148.2080 C   0  0  0  0  0  3  0  0  0  0  0  0
  162.1940  210.9440  148.3740 C   0  0  1  0  0  3  0  0  0  0  0  0
  163.0790  213.2840  144.8160 C   0  0  0  0  0  3  0  0  0  0  0  0
  159.8600  213.3480  146.8940 C   0  0  0  0  0  0  0  0  0  0  0  0
  158.9960  214.0750  144.2600 N   0  0  0  0  0  1  0  0  0  0  0  0
  161.2530  213.8450  143.4220 C   0  0  0  0  0  3  0  0  0  0  0  0
  163.0600  213.0830  147.2250 C   0  0  0  0  0  3  0  0  0  0  0  0
  163.0720  212.1590  148.2200 C   0  0  0  0  0  3  0  0  0  0  0  0
  160.8570  213.5210  145.7980 C   0  0  0  0  0  0  0  0  0  0  0  0
  158.9580  214.2690  147.2110 C   0  0  0  0  0  2  0  0  0  0  0  0
  162.2650  213.2160  145.9520 C   0  0  0  0  0  0  0  0  0  0  0  0
  1 39  1  1  0  0  0
  1 18  1  0  0  0  0
  3  2  1  6  0  0  0
  3  4  1  0  0  0  0
  3  1  1  0  0  0  0
  4  5  1  0  0  0  0
  5  6  2  0  0  0  0
  7  4  1  0  0  0  0
  8  7  1  0  0  0  0
 10  9  1  0  0  0  0
 11  8  1  0  0  0  0
 11 10  1  0  0  0  0
 11  9  1  0  0  0  0
 13 12  1  6  0  0  0
 13 11  1  0  0  0  0
 14 13  1  0  0  0  0
 15 16  1  0  0  0  0
 15 14  1  0  0  0  0
 16 17  2  0  0  0  0
 18 20  1  0  0  0  0
 20 21  1  0  0  0  0
 20 19  1  0  0  0  0
 21 22  1  0  0  0  0
 22 23  1  0  0  0  0
 23 26  1  0  0  0  0
 23 24  1  0  0  0  0
 25 23  1  0  0  0  0
 27 36  1  6  0  0  0
 27 33  1  0  0  0  0
 28 27  1  0  0  0  0
 29 35  1  6  0  0  0
 29 33  1  0  0  0  0
 31 26  1  1  0  0  0
 31 32  1  0  0  0  0
 32 38  1  1  0  0  0
 33 36  1  6  0  0  0
 33 32  1  0  0  0  0
 34 30  1  6  0  0  0
 34 29  1  0  0  0  0
 34 31  1  0  0  0  0
 35 28  1  0  0  0  0
 37 38  1  0  0  0  0
 40 43  2  0  0  0  0
 41 51  1  0  0  0  0
 42 45  2  0  0  0  0
 43 44  1  0  0  0  0
 44 39  1  1  0  0  0
 45 53  1  0  0  0  0
 46 52  2  0  0  0  0
 46 40  1  0  0  0  0
 47 41  1  0  0  0  0
 48 42  1  0  0  0  0
 48 41  2  0  0  0  0
 49 50  2  0  0  0  0
 50 44  1  0  0  0  0
 51 53  2  0  0  0  0
 51 46  1  0  0  0  0
 53 49  1  0  0  0  0
M  END
>  <MODEL>
5

>  <REMARK>
 VINA RESULT:      -4.8      2.755      9.960
  Name = 
  20 active torsions:
  status: ('A' for Active; 'I' for Inactive)
    1  A    between atoms: C_6  and  C_36
    2  A    between atoms: C_6  and  C_42
    3  A    between atoms: C_8  and  C_53
    4  A    between atoms: C_10  and  C_18
    5  A    between atoms: C_10  and  N_20
    6  A    between atoms: C_10  and  C_49
    7  A    between atoms: C_12  and  C_18
    8  A    between atoms: C_15  and  N_39
    9  A    between atoms: C_15  and  C_50
   10  A    between atoms: C_16  and  C_47
   11  A    between atoms: C_16  and  C_50
   12  A    between atoms: N_20  and  N_39
   13  A    between atoms: N_29  and  C_35
   14  A    between atoms: N_29  and  C_36
   15  A    between atoms: N_29  and  C_49
   16  A    between atoms: C_30  and  N_37
   17  A    between atoms: C_30  and  C_42
   18  A    between atoms: C_33  and  C_47
   19  A    between atoms: N_37  and  C_53
   20  A    between atoms: C_38  and  C_45
                            x       y       z     vdW  Elec       q    Type
                         _______ _______ _______ _____ _____    ______ ____

>  <TORSDO>
F 20

$$$$
=
 OpenBabel11042421273D

 53 58  0  0  1  0  0  0  0  0999 V2000
  161.7420  208.0120  149.9300 C   0  0  1  0  0  3  0  0  0  0  0  0
  163.4230  206.5190  150.8820 O   0  0  0  0  0  1  0  0  0  0  0  0
  162.2830  207.2800  151.1640 C   0  0  2  0  0  3  0  0  0  0  0  0
  161.2550  206.4620  151.8000 N   0  0  0  0  0  0  0  0  0  0  0  0
  160.6130  205.4050  151.0720 C   0  0  0  0  0  3  0  0  0  0  0  0
  160.9960  204.1380  151.1780 C   0  0  0  0  0  2  0  0  0  0  0  0
  160.9320  206.7180  153.1980 C   0  0  0  0  0  2  0  0  0  0  0  0
  161.5060  208.0550  153.6430 C   0  0  0  0  0  2  0  0  0  0  0  0
  161.2100  208.2200  156.1720 C   0  0  0  0  0  2  0  0  0  0  0  0
  159.9540  207.5580  155.6130 C   0  0  0  0  0  2  0  0  0  0  0  0
  160.6930  208.6060  154.8030 C   0  0  0  0  0  0  0  0  0  0  0  0
  161.0180  210.9630  153.9920 C   0  0  0  0  0  1  0  0  0  0  0  0
  160.0600  210.0020  154.6780 C   0  0  2  0  0  3  0  0  0  0  0  0
  159.6520  210.5440  155.9670 N   0  0  0  0  0  2  0  0  0  0  0  0
  158.2850  211.0070  155.8210 C   0  0  0  0  0  2  0  0  0  0  0  0
  158.2790  212.4440  155.4300 C   0  0  0  0  0  3  0  0  0  0  0  0
  157.8200  213.2810  156.1880 O   0  0  0  0  0  0  0  0  0  0  0  0
  161.8420  209.4530  150.1400 N   0  0  0  0  0  2  0  0  0  0  0  0
  163.1390  209.8630  148.2950 C   0  0  0  0  0  1  0  0  0  0  0  0
  161.8260  210.0760  148.8810 N   0  0  0  0  0  0  0  0  0  0  0  0
  161.6920  211.5110  149.0940 C   0  0  0  0  0  2  0  0  0  0  0  0
  160.9570  212.1500  147.9150 C   0  0  0  0  0  2  0  0  0  0  0  0
  160.5110  213.5880  148.1860 C   0  0  0  0  0  0  0  0  0  0  0  0
  161.4220  214.1720  149.0660 O   0  0  0  0  0  1  0  0  0  0  0  0
  159.2440  213.5940  148.7770 O   0  0  0  0  0  1  0  0  0  0  0  0
  160.4900  214.3770  146.8750 C   0  0  0  0  0  2  0  0  0  0  0  0
  160.2420  212.4630  142.0410 C   0  0  2  0  0  3  0  0  0  0  0  0
  161.3180  213.0210  141.2920 O   0  0  0  0  0  0  0  0  0  0  0  0
  161.2770  214.1750  143.3620 C   0  0  1  0  0  3  0  0  0  0  0  0
  163.0670  213.4170  144.7940 O   0  0  0  0  0  1  0  0  0  0  0  0
  160.8310  213.5110  145.6620 C   0  0  1  0  0  3  0  0  0  0  0  0
  159.6440  213.0510  144.7720 C   0  0  2  0  0  3  0  0  0  0  0  0
  160.2530  213.1180  143.3980 C   0  0  1  0  0  0  0  0  0  0  0  0
  161.8920  214.1720  144.7580 C   0  0  2  0  0  3  0  0  0  0  0  0
  162.1090  213.8460  142.1420 C   0  0  0  0  0  2  0  0  0  0  0  0
  160.7910  211.6860  143.2010 C   0  0  0  0  0  2  0  0  0  0  0  0
  157.4050  213.3570  145.6730 O   0  0  0  0  0  1  0  0  0  0  0  0
  158.3870  213.9290  144.8570 C   0  0  0  0  0  2  0  0  0  0  0  0
  162.4300  207.6130  148.6220 C   0  0  0  0  0  2  0  0  0  0  0  0
  160.9850  206.2330  145.6540 C   0  0  0  0  0  3  0  0  0  0  0  0
  159.9640  202.9070  144.6800 C   0  0  0  0  0  0  0  0  0  0  0  0
  160.4680  201.3200  146.3890 N   0  0  0  0  0  0  0  0  0  0  0  0
  161.2450  206.6050  146.7490 C   0  0  0  0  0  3  0  0  0  0  0  0
  161.8040  206.3550  148.0500 C   0  0  1  0  0  3  0  0  0  0  0  0
  161.3540  202.1670  146.9640 C   0  0  0  0  0  3  0  0  0  0  0  0
  160.9050  205.2150  144.6860 C   0  0  0  0  0  0  0  0  0  0  0  0
  159.1770  203.2380  143.5400 N   0  0  0  0  0  1  0  0  0  0  0  0
  159.7770  201.6630  145.2750 C   0  0  0  0  0  3  0  0  0  0  0  0
  162.7400  204.1410  147.1150 C   0  0  0  0  0  3  0  0  0  0  0  0
  162.8620  205.3120  147.7930 C   0  0  0  0  0  3  0  0  0  0  0  0
  160.8660  203.8360  145.2500 C   0  0  0  0  0  0  0  0  0  0  0  0
  161.1090  205.4730  143.4000 C   0  0  0  0  0  2  0  0  0  0  0  0
  161.5760  203.4510  146.4540 C   0  0  0  0  0  0  0  0  0  0  0  0
  1 39  1  6  0  0  0
  1 18  1  0  0  0  0
  1  3  1  0  0  0  0
  3  2  1  6  0  0  0
  3  4  1  0  0  0  0
  4  7  1  0  0  0  0
  5  6  2  0  0  0  0
  5  4  1  0  0  0  0
  7  8  1  0  0  0  0
  8 11  1  0  0  0  0
 10  9  1  0  0  0  0
 11 10  1  0  0  0  0
 11  9  1  0  0  0  0
 13 12  1  1  0  0  0
 13 11  1  0  0  0  0
 13 14  1  0  0  0  0
 15 14  1  0  0  0  0
 16 15  1  0  0  0  0
 16 17  2  0  0  0  0
 19 20  1  0  0  0  0
 20 21  1  0  0  0  0
 20 18  1  0  0  0  0
 22 23  1  0  0  0  0
 22 21  1  0  0  0  0
 23 25  1  0  0  0  0
 23 24  1  0  0  0  0
 26 23  1  0  0  0  0
 27 36  1  1  0  0  0
 27 33  1  0  0  0  0
 28 27  1  0  0  0  0
 28 35  1  0  0  0  0
 29 35  1  6  0  0  0
 29 33  1  0  0  0  0
 29 34  1  0  0  0  0
 31 26  1  1  0  0  0
 32 38  1  6  0  0  0
 32 31  1  0  0  0  0
 33 36  1  1  0  0  0
 33 32  1  0  0  0  0
 34 30  1  6  0  0  0
 34 31  1  0  0  0  0
 38 37  1  0  0  0  0
 40 43  2  0  0  0  0
 41 51  2  0  0  0  0
 41 48  1  0  0  0  0
 42 45  1  0  0  0  0
 43 44  1  0  0  0  0
 44 39  1  6  0  0  0
 46 51  1  0  0  0  0
 46 40  1  0  0  0  0
 47 41  1  0  0  0  0
 48 42  2  0  0  0  0
 49 50  2  0  0  0  0
 50 44  1  0  0  0  0
 51 53  1  0  0  0  0
 52 46  2  0  0  0  0
 53 45  2  0  0  0  0
 53 49  1  0  0  0  0
M  END
>  <MODEL>
6

>  <REMARK>
 VINA RESULT:      -4.5      1.920      3.256
  Name = 
  20 active torsions:
  status: ('A' for Active; 'I' for Inactive)
    1  A    between atoms: C_6  and  C_36
    2  A    between atoms: C_6  and  C_42
    3  A    between atoms: C_8  and  C_53
    4  A    between atoms: C_10  and  C_18
    5  A    between atoms: C_10  and  N_20
    6  A    between atoms: C_10  and  C_49
    7  A    between atoms: C_12  and  C_18
    8  A    between atoms: C_15  and  N_39
    9  A    between atoms: C_15  and  C_50
   10  A    between atoms: C_16  and  C_47
   11  A    between atoms: C_16  and  C_50
   12  A    between atoms: N_20  and  N_39
   13  A    between atoms: N_29  and  C_35
   14  A    between atoms: N_29  and  C_36
   15  A    between atoms: N_29  and  C_49
   16  A    between atoms: C_30  and  N_37
   17  A    between atoms: C_30  and  C_42
   18  A    between atoms: C_33  and  C_47
   19  A    between atoms: N_37  and  C_53
   20  A    between atoms: C_38  and  C_45
                            x       y       z     vdW  Elec       q    Type
                         _______ _______ _______ _____ _____    ______ ____

>  <TORSDO>
F 20

$$$$
=
 OpenBabel11042421273D

 53 58  0  0  1  0  0  0  0  0999 V2000
  161.3260  208.3380  149.0340 C   0  0  1  0  0  3  0  0  0  0  0  0
  163.4420  207.8620  147.9130 O   0  0  0  0  0  1  0  0  0  0  0  0
  162.3270  207.2890  148.5350 C   0  0  2  0  0  3  0  0  0  0  0  0
  161.6910  206.3060  147.6640 N   0  0  0  0  0  0  0  0  0  0  0  0
  160.6140  206.6930  146.7970 C   0  0  0  0  0  3  0  0  0  0  0  0
  160.5300  206.2720  145.5410 C   0  0  0  0  0  2  0  0  0  0  0  0
  162.2050  204.9430  147.6650 C   0  0  0  0  0  2  0  0  0  0  0  0
  161.3750  204.0600  148.5850 C   0  0  0  0  0  2  0  0  0  0  0  0
  161.6040  202.5960  146.5080 C   0  0  0  0  0  2  0  0  0  0  0  0
  160.1310  202.5890  146.9050 C   0  0  0  0  0  2  0  0  0  0  0  0
  161.2090  202.6810  147.9670 C   0  0  0  0  0  0  0  0  0  0  0  0
  161.1980  200.1680  148.0360 C   0  0  0  0  0  1  0  0  0  0  0  0
  161.4870  201.4360  148.8260 C   0  0  2  0  0  3  0  0  0  0  0  0
  160.7210  201.4340  150.0650 N   0  0  0  0  0  2  0  0  0  0  0  0
  161.5150  202.1310  151.0580 C   0  0  0  0  0  2  0  0  0  0  0  0
  160.6300  202.9730  151.9100 C   0  0  0  0  0  3  0  0  0  0  0  0
  160.9980  204.0790  152.2660 O   0  0  0  0  0  0  0  0  0  0  0  0
  160.6500  207.8340  150.2250 N   0  0  0  0  0  2  0  0  0  0  0  0
  162.1540  207.0400  151.7630 C   0  0  0  0  0  1  0  0  0  0  0  0
  161.4070  208.2150  151.3460 N   0  0  0  0  0  0  0  0  0  0  0  0
  160.4800  208.5250  152.4270 C   0  0  0  0  0  2  0  0  0  0  0  0
  161.2510  209.0050  153.6570 C   0  0  0  0  0  2  0  0  0  0  0  0
  161.6630  210.4770  153.5790 C   0  0  0  0  0  0  0  0  0  0  0  0
  161.0180  211.0550  152.4850 O   0  0  0  0  0  1  0  0  0  0  0  0
  163.0450  210.5780  153.3940 O   0  0  0  0  0  1  0  0  0  0  0  0
  161.2420  211.1990  154.8600 C   0  0  0  0  0  2  0  0  0  0  0  0
  156.4960  211.8180  156.9060 C   0  0  2  0  0  3  0  0  0  0  0  0
  156.2070  213.2140  156.9320 O   0  0  0  0  0  0  0  0  0  0  0  0
  158.4880  213.0150  156.3150 C   0  0  1  0  0  3  0  0  0  0  0  0
  158.7690  213.4250  153.9530 O   0  0  0  0  0  1  0  0  0  0  0  0
  159.7350  211.4540  154.9240 C   0  0  1  0  0  3  0  0  0  0  0  0
  158.9310  210.6470  155.9790 C   0  0  2  0  0  3  0  0  0  0  0  0
  157.9160  211.6630  156.4280 C   0  0  1  0  0  0  0  0  0  0  0  0
  159.4090  212.9510  155.1010 C   0  0  2  0  0  3  0  0  0  0  0  0
  157.2840  213.9310  156.3350 C   0  0  0  0  0  2  0  0  0  0  0  0
  156.7240  211.3820  155.4890 C   0  0  0  0  0  2  0  0  0  0  0  0
  160.0550  208.7700  157.0450 O   0  0  0  0  0  1  0  0  0  0  0  0
  159.7520  210.1310  157.1700 C   0  0  0  0  0  2  0  0  0  0  0  0
  161.9510  209.7080  149.3120 C   0  0  0  0  0  2  0  0  0  0  0  0
  159.9970  212.0100  147.3920 C   0  0  0  0  0  3  0  0  0  0  0  0
  160.6990  214.1260  144.5490 C   0  0  0  0  0  0  0  0  0  0  0  0
  162.9960  213.9820  143.9180 N   0  0  0  0  0  0  0  0  0  0  0  0
  160.6680  211.1220  147.8020 C   0  0  0  0  0  3  0  0  0  0  0  0
  161.9650  210.5560  148.0530 C   0  0  1  0  0  3  0  0  0  0  0  0
  163.3310  213.4670  145.1260 C   0  0  0  0  0  3  0  0  0  0  0  0
  159.8550  213.2370  146.7200 C   0  0  0  0  0  0  0  0  0  0  0  0
  159.3640  214.4370  144.1650 N   0  0  0  0  0  1  0  0  0  0  0  0
  161.7160  214.3070  143.6170 C   0  0  0  0  0  3  0  0  0  0  0  0
  162.9780  212.8440  147.4340 C   0  0  0  0  0  3  0  0  0  0  0  0
  162.8530  211.7580  148.2410 C   0  0  0  0  0  3  0  0  0  0  0  0
  160.9940  213.5770  145.8200 C   0  0  0  0  0  0  0  0  0  0  0  0
  158.9160  214.1070  147.0690 C   0  0  0  0  0  2  0  0  0  0  0  0
  162.3680  213.2180  146.1090 C   0  0  0  0  0  0  0  0  0  0  0  0
  1 39  1  1  0  0  0
  1 18  1  0  0  0  0
  3  2  1  6  0  0  0
  3  1  1  0  0  0  0
  4  7  1  0  0  0  0
  4  3  1  0  0  0  0
  5  4  1  0  0  0  0
  6  5  2  0  0  0  0
  7  8  1  0  0  0  0
  9 10  1  0  0  0  0
  9 11  1  0  0  0  0
 10 11  1  0  0  0  0
 11  8  1  0  0  0  0
 11 13  1  0  0  0  0
 13 12  1  6  0  0  0
 13 14  1  0  0  0  0
 14 15  1  0  0  0  0
 15 16  1  0  0  0  0
 16 17  2  0  0  0  0
 18 20  1  0  0  0  0
 20 19  1  0  0  0  0
 20 21  1  0  0  0  0
 21 22  1  0  0  0  0
 23 22  1  0  0  0  0
 23 26  1  0  0  0  0
 24 23  1  0  0  0  0
 25 23  1  0  0  0  0
 27 36  1  6  0  0  0
 27 28  1  0  0  0  0
 29 35  1  6  0  0  0
 29 33  1  0  0  0  0
 31 26  1  1  0  0  0
 31 34  1  0  0  0  0
 31 32  1  0  0  0  0
 32 33  1  0  0  0  0
 32 38  1  1  0  0  0
 33 36  1  6  0  0  0
 33 27  1  0  0  0  0
 34 30  1  6  0  0  0
 34 29  1  0  0  0  0
 35 28  1  0  0  0  0
 37 38  1  0  0  0  0
 40 43  2  0  0  0  0
 41 51  1  0  0  0  0
 42 45  2  0  0  0  0
 43 44  1  0  0  0  0
 44 50  1  0  0  0  0
 44 39  1  1  0  0  0
 45 53  1  0  0  0  0
 46 52  2  0  0  0  0
 46 40  1  0  0  0  0
 47 41  1  0  0  0  0
 48 42  1  0  0  0  0
 48 41  2  0  0  0  0
 49 50  2  0  0  0  0
 51 53  2  0  0  0  0
 51 46  1  0  0  0  0
 53 49  1  0  0  0  0
M  END
>  <MODEL>
7

>  <REMARK>
 VINA RESULT:      -4.5      2.960     10.371
  Name = 
  20 active torsions:
  status: ('A' for Active; 'I' for Inactive)
    1  A    between atoms: C_6  and  C_36
    2  A    between atoms: C_6  and  C_42
    3  A    between atoms: C_8  and  C_53
    4  A    between atoms: C_10  and  C_18
    5  A    between atoms: C_10  and  N_20
    6  A    between atoms: C_10  and  C_49
    7  A    between atoms: C_12  and  C_18
    8  A    between atoms: C_15  and  N_39
    9  A    between atoms: C_15  and  C_50
   10  A    between atoms: C_16  and  C_47
   11  A    between atoms: C_16  and  C_50
   12  A    between atoms: N_20  and  N_39
   13  A    between atoms: N_29  and  C_35
   14  A    between atoms: N_29  and  C_36
   15  A    between atoms: N_29  and  C_49
   16  A    between atoms: C_30  and  N_37
   17  A    between atoms: C_30  and  C_42
   18  A    between atoms: C_33  and  C_47
   19  A    between atoms: N_37  and  C_53
   20  A    between atoms: C_38  and  C_45
                            x       y       z     vdW  Elec       q    Type
                         _______ _______ _______ _____ _____    ______ ____

>  <TORSDO>
F 20

$$$$
=
 OpenBabel11042421273D

 53 58  0  0  1  0  0  0  0  0999 V2000
  160.9040  209.4400  151.9230 C   0  0  1  0  0  3  0  0  0  0  0  0
  163.2130  210.2320  151.8540 O   0  0  0  0  0  1  0  0  0  0  0  0
  162.2220  209.5420  151.1460 C   0  0  2  0  0  3  0  0  0  0  0  0
  162.0250  210.1260  149.8230 N   0  0  0  0  0  0  0  0  0  0  0  0
  161.9460  209.2850  148.6630 C   0  0  0  0  0  3  0  0  0  0  0  0
  162.8200  208.3130  148.4320 C   0  0  0  0  0  2  0  0  0  0  0  0
  161.8680  211.5710  149.7200 C   0  0  0  0  0  2  0  0  0  0  0  0
  160.9670  211.9290  148.5470 C   0  0  0  0  0  2  0  0  0  0  0  0
  163.1300  213.0720  147.8210 C   0  0  0  0  0  2  0  0  0  0  0  0
  162.2640  214.1310  148.4980 C   0  0  0  0  0  2  0  0  0  0  0  0
  161.6220  213.0110  147.7030 C   0  0  0  0  0  0  0  0  0  0  0  0
  159.9800  212.3210  145.9300 C   0  0  0  0  0  1  0  0  0  0  0  0
  161.0280  213.3490  146.3260 C   0  0  2  0  0  3  0  0  0  0  0  0
  162.0470  213.4430  145.2890 N   0  0  0  0  0  2  0  0  0  0  0  0
  161.3800  213.2460  144.0160 C   0  0  0  0  0  2  0  0  0  0  0  0
  162.3870  212.9570  142.9590 C   0  0  0  0  0  3  0  0  0  0  0  0
  162.2800  211.9570  142.2710 O   0  0  0  0  0  0  0  0  0  0  0  0
  160.7490  208.0820  152.4360 N   0  0  0  0  0  2  0  0  0  0  0  0
  160.4100  207.1360  150.3760 C   0  0  0  0  0  1  0  0  0  0  0  0
  161.3220  207.1990  151.5060 N   0  0  0  0  0  0  0  0  0  0  0  0
  161.3390  205.8700  152.1030 C   0  0  0  0  0  2  0  0  0  0  0  0
  161.8890  204.8530  151.1020 C   0  0  0  0  0  2  0  0  0  0  0  0
  160.9020  203.7310  150.7720 C   0  0  0  0  0  0  0  0  0  0  0  0
  159.7070  204.3110  150.3450 O   0  0  0  0  0  1  0  0  0  0  0  0
  160.6500  202.9640  151.9130 O   0  0  0  0  0  1  0  0  0  0  0  0
  161.4730  202.8550  149.6560 C   0  0  0  0  0  2  0  0  0  0  0  0
  161.5160  204.5860  144.7470 C   0  0  2  0  0  3  0  0  0  0  0  0
  160.8850  205.8640  144.7260 O   0  0  0  0  0  0  0  0  0  0  0  0
  160.5370  204.9830  146.9000 C   0  0  1  0  0  3  0  0  0  0  0  0
  161.9890  206.0620  148.4980 O   0  0  0  0  0  1  0  0  0  0  0  0
  161.8960  203.6650  148.4300 C   0  0  1  0  0  3  0  0  0  0  0  0
  161.8460  202.9380  147.0580 C   0  0  2  0  0  3  0  0  0  0  0  0
  161.3860  204.0450  146.1470 C   0  0  1  0  0  0  0  0  0  0  0  0
  161.1140  204.9890  148.3110 C   0  0  2  0  0  3  0  0  0  0  0  0
  160.5290  206.2380  146.0540 C   0  0  0  0  0  2  0  0  0  0  0  0
  162.7180  204.6380  145.6430 C   0  0  0  0  0  2  0  0  0  0  0  0
  160.5510  201.4160  145.6700 O   0  0  0  0  0  1  0  0  0  0  0  0
  160.8880  201.7400  146.9890 C   0  0  0  0  0  2  0  0  0  0  0  0
  160.7730  210.4590  153.0580 C   0  0  0  0  0  2  0  0  0  0  0  0
  158.4150  212.3020  155.0180 C   0  0  0  0  0  3  0  0  0  0  0  0
  155.4230  214.1680  154.2320 C   0  0  0  0  0  0  0  0  0  0  0  0
  155.0380  214.2210  151.8780 N   0  0  0  0  0  0  0  0  0  0  0  0
  158.9900  211.5470  154.3080 C   0  0  0  0  0  3  0  0  0  0  0  0
  159.4310  211.1630  152.9950 C   0  0  1  0  0  3  0  0  0  0  0  0
  156.3240  213.8810  151.6250 C   0  0  0  0  0  3  0  0  0  0  0  0
  157.5920  213.4260  155.2110 C   0  0  0  0  0  0  0  0  0  0  0  0
  154.8770  214.2810  155.5430 N   0  0  0  0  0  1  0  0  0  0  0  0
  154.5780  214.3630  153.1440 C   0  0  0  0  0  3  0  0  0  0  0  0
  158.6450  213.4730  152.1610 C   0  0  0  0  0  3  0  0  0  0  0  0
  159.5590  212.4730  152.2600 C   0  0  0  0  0  3  0  0  0  0  0  0
  156.7720  213.7960  154.0220 C   0  0  0  0  0  0  0  0  0  0  0  0
  157.7430  214.2150  156.2680 C   0  0  0  0  0  2  0  0  0  0  0  0
  157.2320  213.6300  152.6580 C   0  0  0  0  0  0  0  0  0  0  0  0
  1 18  1  0  0  0  0
  1 39  1  1  0  0  0
  3  2  1  1  0  0  0
  3  1  1  0  0  0  0
  4  3  1  0  0  0  0
  5  4  1  0  0  0  0
  6  5  2  0  0  0  0
  7  4  1  0  0  0  0
  8  7  1  0  0  0  0
  9 10  1  0  0  0  0
 11  9  1  0  0  0  0
 11 10  1  0  0  0  0
 11  8  1  0  0  0  0
 13 12  1  6  0  0  0
 13 11  1  0  0  0  0
 14 13  1  0  0  0  0
 15 14  1  0  0  0  0
 16 15  1  0  0  0  0
 17 16  2  0  0  0  0
 19 20  1  0  0  0  0
 20 21  1  0  0  0  0
 20 18  1  0  0  0  0
 22 21  1  0  0  0  0
 23 22  1  0  0  0  0
 23 25  1  0  0  0  0
 24 23  1  0  0  0  0
 26 23  1  0  0  0  0
 27 36  1  1  0  0  0
 27 33  1  0  0  0  0
 28 27  1  0  0  0  0
 28 35  1  0  0  0  0
 29 35  1  6  0  0  0
 29 34  1  0  0  0  0
 31 26  1  1  0  0  0
 32 38  1  1  0  0  0
 32 31  1  0  0  0  0
 33 36  1  1  0  0  0
 33 29  1  0  0  0  0
 33 32  1  0  0  0  0
 34 31  1  0  0  0  0
 34 30  1  6  0  0  0
 37 38  1  0  0  0  0
 40 46  1  0  0  0  0
 41 47  1  0  0  0  0
 42 48  1  0  0  0  0
 43 40  2  0  0  0  0
 44 39  1  1  0  0  0
 44 43  1  0  0  0  0
 45 42  2  0  0  0  0
 45 53  1  0  0  0  0
 46 52  2  0  0  0  0
 48 41  2  0  0  0  0
 49 50  2  0  0  0  0
 49 53  1  0  0  0  0
 50 44  1  0  0  0  0
 51 41  1  0  0  0  0
 51 46  1  0  0  0  0
 53 51  2  0  0  0  0
M  END
>  <MODEL>
8

>  <REMARK>
 VINA RESULT:      -4.4      3.047      9.580
  Name = 
  20 active torsions:
  status: ('A' for Active; 'I' for Inactive)
    1  A    between atoms: C_6  and  C_36
    2  A    between atoms: C_6  and  C_42
    3  A    between atoms: C_8  and  C_53
    4  A    between atoms: C_10  and  C_18
    5  A    between atoms: C_10  and  N_20
    6  A    between atoms: C_10  and  C_49
    7  A    between atoms: C_12  and  C_18
    8  A    between atoms: C_15  and  N_39
    9  A    between atoms: C_15  and  C_50
   10  A    between atoms: C_16  and  C_47
   11  A    between atoms: C_16  and  C_50
   12  A    between atoms: N_20  and  N_39
   13  A    between atoms: N_29  and  C_35
   14  A    between atoms: N_29  and  C_36
   15  A    between atoms: N_29  and  C_49
   16  A    between atoms: C_30  and  N_37
   17  A    between atoms: C_30  and  C_42
   18  A    between atoms: C_33  and  C_47
   19  A    between atoms: N_37  and  C_53
   20  A    between atoms: C_38  and  C_45
                            x       y       z     vdW  Elec       q    Type
                         _______ _______ _______ _____ _____    ______ ____

>  <TORSDO>
F 20

$$$$
=
 OpenBabel11042421273D

 53 58  0  0  1  0  0  0  0  0999 V2000
  162.2290  209.1580  151.4580 C   0  0  1  0  0  3  0  0  0  0  0  0
  162.2640  207.5230  149.6450 O   0  0  0  0  0  1  0  0  0  0  0  0
  162.5900  207.7450  150.9880 C   0  0  2  0  0  3  0  0  0  0  0  0
  161.9970  206.7220  151.8440 N   0  0  0  0  0  0  0  0  0  0  0  0
  161.3450  207.0890  153.0690 C   0  0  0  0  0  3  0  0  0  0  0  0
  161.0540  206.1990  154.0100 C   0  0  0  0  0  2  0  0  0  0  0  0
  162.0470  205.3340  151.4030 C   0  0  0  0  0  2  0  0  0  0  0  0
  160.7490  204.9470  150.7090 C   0  0  0  0  0  2  0  0  0  0  0  0
  160.0640  202.5080  151.0200 C   0  0  0  0  0  2  0  0  0  0  0  0
  161.5860  202.5650  151.1180 C   0  0  0  0  0  2  0  0  0  0  0  0
  160.8420  203.5170  150.2010 C   0  0  0  0  0  0  0  0  0  0  0  0
  161.1180  201.7830  148.4020 C   0  0  0  0  0  1  0  0  0  0  0  0
  160.9110  203.2630  148.6860 C   0  0  2  0  0  3  0  0  0  0  0  0
  161.9570  204.0430  148.0390 N   0  0  0  0  0  2  0  0  0  0  0  0
  161.4360  204.4710  146.7540 C   0  0  0  0  0  2  0  0  0  0  0  0
  162.3010  205.5450  146.1930 C   0  0  0  0  0  3  0  0  0  0  0  0
  162.2200  205.8400  145.0130 O   0  0  0  0  0  0  0  0  0  0  0  0
  162.7080  210.1310  150.4810 N   0  0  0  0  0  2  0  0  0  0  0  0
  162.0620  209.9000  148.2930 C   0  0  0  0  0  1  0  0  0  0  0  0
  161.6550  210.4080  149.5930 N   0  0  0  0  0  0  0  0  0  0  0  0
  161.5510  211.8560  149.4620 C   0  0  0  0  0  2  0  0  0  0  0  0
  161.7440  212.2650  148.0010 C   0  0  0  0  0  2  0  0  0  0  0  0
  160.4760  212.8290  147.3560 C   0  0  0  0  0  0  0  0  0  0  0  0
  159.5020  212.9590  148.3460 O   0  0  0  0  0  1  0  0  0  0  0  0
  160.0080  211.9530  146.3730 O   0  0  0  0  0  1  0  0  0  0  0  0
  160.7740  214.2010  146.7490 C   0  0  0  0  0  2  0  0  0  0  0  0
  161.4110  213.1940  141.6820 C   0  0  2  0  0  3  0  0  0  0  0  0
  160.4170  212.2490  141.2940 O   0  0  0  0  0  0  0  0  0  0  0  0
  160.2980  212.4100  143.6560 C   0  0  1  0  0  3  0  0  0  0  0  0
  158.3730  213.7040  144.3240 O   0  0  0  0  0  1  0  0  0  0  0  0
  160.5240  214.2440  145.2410 C   0  0  1  0  0  3  0  0  0  0  0  0
  161.7750  214.2250  144.3220 C   0  0  2  0  0  3  0  0  0  0  0  0
  161.2930  213.3820  143.1720 C   0  0  1  0  0  0  0  0  0  0  0  0
  159.5610  213.1300  144.7810 C   0  0  2  0  0  3  0  0  0  0  0  0
  159.5710  211.9680  142.4050 C   0  0  0  0  0  2  0  0  0  0  0  0
  160.7440  214.4380  142.1910 C   0  0  0  0  0  2  0  0  0  0  0  0
  164.1680  213.8190  144.1520 O   0  0  0  0  0  1  0  0  0  0  0  0
  163.0380  213.6190  144.9520 C   0  0  0  0  0  2  0  0  0  0  0  0
  160.7350  209.3590  151.7240 C   0  0  0  0  0  2  0  0  0  0  0  0
  158.2150  211.3370  153.3180 C   0  0  0  0  0  3  0  0  0  0  0  0
  158.1970  213.5320  156.1870 C   0  0  0  0  0  0  0  0  0  0  0  0
  160.3280  213.5580  157.2600 N   0  0  0  0  0  0  0  0  0  0  0  0
  159.1660  210.9110  152.7530 C   0  0  0  0  0  3  0  0  0  0  0  0
  160.5180  210.4220  152.7850 C   0  0  1  0  0  3  0  0  0  0  0  0
  160.6870  212.4010  156.6540 C   0  0  0  0  0  3  0  0  0  0  0  0
  157.5870  211.8220  154.4790 C   0  0  0  0  0  0  0  0  0  0  0  0
  156.9600  214.1970  155.9540 N   0  0  0  0  0  1  0  0  0  0  0  0
  159.1190  214.1280  157.0430 C   0  0  0  0  0  3  0  0  0  0  0  0
  160.3430  210.3910  155.3580 C   0  0  0  0  0  3  0  0  0  0  0  0
  160.6520  209.8240  154.1620 C   0  0  0  0  0  3  0  0  0  0  0  0
  158.5290  212.3310  155.5170 C   0  0  0  0  0  0  0  0  0  0  0  0
  156.2990  211.5980  154.7090 C   0  0  0  0  0  2  0  0  0  0  0  0
  159.8370  211.7540  155.7510 C   0  0  0  0  0  0  0  0  0  0  0  0
  1 39  1  6  0  0  0
  3  2  1  6  0  0  0
  3  1  1  0  0  0  0
  3  4  1  0  0  0  0
  4  5  1  0  0  0  0
  5  6  2  0  0  0  0
  7  4  1  0  0  0  0
  8  7  1  0  0  0  0
  9 10  1  0  0  0  0
 11  8  1  0  0  0  0
 11  9  1  0  0  0  0
 11 10  1  0  0  0  0
 13 12  1  1  0  0  0
 13 11  1  0  0  0  0
 14 13  1  0  0  0  0
 15 14  1  0  0  0  0
 16 15  1  0  0  0  0
 17 16  2  0  0  0  0
 18  1  1  0  0  0  0
 19 20  1  0  0  0  0
 20 18  1  0  0  0  0
 21 20  1  0  0  0  0
 22 21  1  0  0  0  0
 23 22  1  0  0  0  0
 23 24  1  0  0  0  0
 25 23  1  0  0  0  0
 26 23  1  0  0  0  0
 27 36  1  6  0  0  0
 27 33  1  0  0  0  0
 28 27  1  0  0  0  0
 28 35  1  0  0  0  0
 29 35  1  6  0  0  0
 29 34  1  0  0  0  0
 31 26  1  1  0  0  0
 32 38  1  1  0  0  0
 32 31  1  0  0  0  0
 33 36  1  6  0  0  0
 33 29  1  0  0  0  0
 33 32  1  0  0  0  0
 34 30  1  6  0  0  0
 34 31  1  0  0  0  0
 37 38  1  0  0  0  0
 40 46  1  0  0  0  0
 41 48  1  0  0  0  0
 43 44  1  0  0  0  0
 43 40  2  0  0  0  0
 44 39  1  6  0  0  0
 44 50  1  0  0  0  0
 45 42  1  0  0  0  0
 46 52  2  0  0  0  0
 46 51  1  0  0  0  0
 47 41  1  0  0  0  0
 48 42  2  0  0  0  0
 49 53  1  0  0  0  0
 50 49  2  0  0  0  0
 51 53  1  0  0  0  0
 51 41  2  0  0  0  0
 53 45  2  0  0  0  0
M  END
>  <MODEL>
9

>  <REMARK>
 VINA RESULT:      -4.4      1.857      7.844
  Name = 
  20 active torsions:
  status: ('A' for Active; 'I' for Inactive)
    1  A    between atoms: C_6  and  C_36
    2  A    between atoms: C_6  and  C_42
    3  A    between atoms: C_8  and  C_53
    4  A    between atoms: C_10  and  C_18
    5  A    between atoms: C_10  and  N_20
    6  A    between atoms: C_10  and  C_49
    7  A    between atoms: C_12  and  C_18
    8  A    between atoms: C_15  and  N_39
    9  A    between atoms: C_15  and  C_50
   10  A    between atoms: C_16  and  C_47
   11  A    between atoms: C_16  and  C_50
   12  A    between atoms: N_20  and  N_39
   13  A    between atoms: N_29  and  C_35
   14  A    between atoms: N_29  and  C_36
   15  A    between atoms: N_29  and  C_49
   16  A    between atoms: C_30  and  N_37
   17  A    between atoms: C_30  and  C_42
   18  A    between atoms: C_33  and  C_47
   19  A    between atoms: N_37  and  C_53
   20  A    between atoms: C_38  and  C_45
                            x       y       z     vdW  Elec       q    Type
                         _______ _______ _______ _____ _____    ______ ____

>  <TORSDO>
F 20

$$$$
