=
 OpenBabel11052409433D

 31 34  0  0  1  0  0  0  0  0999 V2000
  162.2300  209.8570  149.9240 C   0  0  0  0  0  3  0  0  0  0  0  0
  161.9010  208.5840  150.1920 C   0  0  0  0  0  0  0  0  0  0  0  0
  161.1810  207.8070  149.2340 N   0  0  0  0  0  2  0  0  0  0  0  0
  161.8320  206.8500  148.3550 C   0  0  0  0  0  2  0  0  0  0  0  0
  160.4800  201.0840  148.7860 O   0  0  0  0  0  0  0  0  0  0  0  0
  160.7290  202.9750  149.7020 C   0  0  0  0  0  0  0  0  0  0  0  0
  161.7080  204.5770  146.5940 N   0  0  0  0  0  2  0  0  0  0  0  0
  160.7730  203.9940  150.5910 N   0  0  0  0  0  0  0  0  0  0  0  0
  160.3880  201.6980  149.9410 N   0  0  0  0  0  2  0  0  0  0  0  0
  161.0480  203.1580  148.3290 C   0  0  0  0  0  0  0  0  0  0  0  0
  161.4250  204.4020  147.8440 C   0  0  0  0  0  0  0  0  0  0  0  0
  161.0480  201.5050  146.4610 N   0  0  0  0  0  1  0  0  0  0  0  0
  161.1410  205.2330  150.1400 C   0  0  0  0  0  3  0  0  0  0  0  0
  161.4770  205.4640  148.7800 C   0  0  0  0  0  0  0  0  0  0  0  0
  160.8640  201.8980  147.8160 C   0  0  0  0  0  0  0  0  0  0  0  0
  162.2450  207.9820  151.4530 N   0  0  0  0  0  2  0  0  0  0  0  0
  160.2450  208.1400  155.1920 C   0  0  0  0  0  3  0  0  0  0  0  0
  160.6150  206.9150  154.6320 C   0  0  0  0  0  3  0  0  0  0  0  0
  161.2700  206.8810  153.3960 C   0  0  0  0  0  3  0  0  0  0  0  0
  161.1880  209.2930  153.2840 C   0  0  0  0  0  3  0  0  0  0  0  0
  160.5320  209.3300  154.5190 C   0  0  0  0  0  3  0  0  0  0  0  0
  161.5580  208.0670  152.7120 C   0  0  0  0  0  0  0  0  0  0  0  0
  161.9390  210.5610  148.7060 N   0  0  0  0  0  2  0  0  0  0  0  0
  162.6240  211.7560  148.2210 C   0  0  1  0  0  3  0  0  0  0  0  0
  161.7890  212.5900  147.3050 C   0  0  2  0  0  3  0  0  0  0  0  0
  161.9410  212.9030  148.6700 O   0  0  0  0  0  0  0  0  0  0  0  0
  160.3770  212.0670  147.0580 C   0  0  0  0  0  2  0  0  0  0  0  0
  159.8370  212.6010  145.7430 C   0  0  0  0  0  2  0  0  0  0  0  0
  160.8730  212.7090  144.8100 O   0  0  0  0  0  0  0  0  0  0  0  0
  159.2940  212.8590  143.3570 C   0  0  0  0  0  1  0  0  0  0  0  0
  160.4140  212.1130  143.7280 O   0  0  0  0  0  0  0  0  0  0  0  0
  1  2  2  0  0  0  0
  2 16  1  0  0  0  0
  3  2  1  0  0  0  0
  4 14  1  0  0  0  0
  4  3  1  0  0  0  0
  5  9  1  0  0  0  0
  6  9  1  0  0  0  0
  6  8  2  0  0  0  0
  7 11  2  0  0  0  0
 10  6  1  0  0  0  0
 11 10  1  0  0  0  0
 11 14  1  0  0  0  0
 12 15  1  0  0  0  0
 13  8  1  0  0  0  0
 14 13  2  0  0  0  0
 15 10  2  0  0  0  0
 15  5  1  0  0  0  0
 16 22  1  0  0  0  0
 18 17  1  0  0  0  0
 19 18  2  0  0  0  0
 20 21  1  0  0  0  0
 21 17  2  0  0  0  0
 22 20  2  0  0  0  0
 22 19  1  0  0  0  0
 23  1  1  0  0  0  0
 24 26  1  0  0  0  0
 24 23  1  1  0  0  0
 25 27  1  1  0  0  0
 25 24  1  0  0  0  0
 25 26  1  0  0  0  0
 28 27  1  0  0  0  0
 29 28  1  0  0  0  0
 30 31  1  0  0  0  0
 31 29  1  0  0  0  0
M  END
>  <MODEL>
1

>  <REMARK>
 VINA RESULT:      -7.6      0.000      0.000
  Name = 
  11 active torsions:
  status: ('A' for Active; 'I' for Inactive)
    1  A    between atoms: C_1  and  C_9
    2  A    between atoms: C_1  and  O_10
    3  A    between atoms: C_9  and  C_30
    4  A    between atoms: O_10  and  O_13
    5  A    between atoms: C_17  and  N_21
    6  A    between atoms: C_17  and  C_25
    7  A    between atoms: C_20  and  N_24
    8  A    between atoms: N_21  and  C_22
    9  A    between atoms: C_22  and  N_23
   10  A    between atoms: N_23  and  C_28
   11  A    between atoms: N_24  and  C_29
                            x       y       z     vdW  Elec       q    Type
                         _______ _______ _______ _____ _____    ______ ____

>  <TORSDO>
F 11

$$$$
=
 OpenBabel11052409433D

 31 34  0  0  1  0  0  0  0  0999 V2000
  160.8810  205.3480  149.7680 C   0  0  0  0  0  3  0  0  0  0  0  0
  161.2520  206.6010  149.4660 C   0  0  0  0  0  0  0  0  0  0  0  0
  161.0610  207.6590  150.4070 N   0  0  0  0  0  2  0  0  0  0  0  0
  162.0760  208.0370  151.3760 C   0  0  0  0  0  2  0  0  0  0  0  0
  159.5340  210.5610  156.1120 O   0  0  0  0  0  0  0  0  0  0  0  0
  160.3000  208.8380  155.1500 C   0  0  0  0  0  0  0  0  0  0  0  0
  161.1580  210.6580  152.1280 N   0  0  0  0  0  2  0  0  0  0  0  0
  160.7010  207.5790  154.8650 N   0  0  0  0  0  0  0  0  0  0  0  0
  159.7400  209.2780  156.2890 N   0  0  0  0  0  2  0  0  0  0  0  0
  160.4480  209.9050  154.2230 C   0  0  0  0  0  0  0  0  0  0  0  0
  161.0120  209.6910  152.9730 C   0  0  0  0  0  0  0  0  0  0  0  0
  159.8310  212.3110  154.4520 N   0  0  0  0  0  1  0  0  0  0  0  0
  161.2610  207.3370  153.6390 C   0  0  0  0  0  3  0  0  0  0  0  0
  161.4230  208.3680  152.6760 C   0  0  0  0  0  0  0  0  0  0  0  0
  159.9320  210.9710  154.9180 C   0  0  0  0  0  0  0  0  0  0  0  0
  161.8280  206.9120  148.1850 N   0  0  0  0  0  2  0  0  0  0  0  0
  161.4310  204.8550  144.4950 C   0  0  0  0  0  3  0  0  0  0  0  0
  160.4450  205.7470  144.9240 C   0  0  0  0  0  3  0  0  0  0  0  0
  160.5900  206.4140  146.1450 C   0  0  0  0  0  3  0  0  0  0  0  0
  162.7050  205.3010  146.5040 C   0  0  0  0  0  3  0  0  0  0  0  0
  162.5620  204.6320  145.2840 C   0  0  0  0  0  3  0  0  0  0  0  0
  161.7160  206.1940  146.9450 C   0  0  0  0  0  0  0  0  0  0  0  0
  160.2970  204.9210  151.0090 N   0  0  0  0  0  2  0  0  0  0  0  0
  160.9490  204.1060  152.0310 C   0  0  1  0  0  3  0  0  0  0  0  0
  161.1600  202.6870  151.6140 C   0  0  2  0  0  3  0  0  0  0  0  0
  162.1880  203.6480  151.5430 O   0  0  0  0  0  0  0  0  0  0  0  0
  160.6860  202.3470  150.2040 C   0  0  0  0  0  2  0  0  0  0  0  0
  161.0160  200.9040  149.8680 C   0  0  0  0  0  2  0  0  0  0  0  0
  161.2410  200.7730  148.4930 O   0  0  0  0  0  0  0  0  0  0  0  0
  160.8150  201.6640  146.5830 C   0  0  0  0  0  1  0  0  0  0  0  0
  160.7270  201.8630  147.9630 O   0  0  0  0  0  0  0  0  0  0  0  0
  1 23  1  0  0  0  0
  2  1  2  0  0  0  0
  2  3  1  0  0  0  0
  3  4  1  0  0  0  0
  4 14  1  0  0  0  0
  5  9  1  0  0  0  0
  6  9  1  0  0  0  0
  7 11  2  0  0  0  0
  8  6  2  0  0  0  0
 10 15  2  0  0  0  0
 10  6  1  0  0  0  0
 11 10  1  0  0  0  0
 12 15  1  0  0  0  0
 13  8  1  0  0  0  0
 14 11  1  0  0  0  0
 14 13  2  0  0  0  0
 15  5  1  0  0  0  0
 16  2  1  0  0  0  0
 17 18  2  0  0  0  0
 17 21  1  0  0  0  0
 18 19  1  0  0  0  0
 19 22  2  0  0  0  0
 20 22  1  0  0  0  0
 21 20  2  0  0  0  0
 22 16  1  0  0  0  0
 24 23  1  6  0  0  0
 25 27  1  6  0  0  0
 25 24  1  0  0  0  0
 26 25  1  0  0  0  0
 26 24  1  0  0  0  0
 28 27  1  0  0  0  0
 29 28  1  0  0  0  0
 30 31  1  0  0  0  0
 31 29  1  0  0  0  0
M  END
>  <MODEL>
2

>  <REMARK>
 VINA RESULT:      -7.5      4.386      8.871
  Name = 
  11 active torsions:
  status: ('A' for Active; 'I' for Inactive)
    1  A    between atoms: C_1  and  C_9
    2  A    between atoms: C_1  and  O_10
    3  A    between atoms: C_9  and  C_30
    4  A    between atoms: O_10  and  O_13
    5  A    between atoms: C_17  and  N_21
    6  A    between atoms: C_17  and  C_25
    7  A    between atoms: C_20  and  N_24
    8  A    between atoms: N_21  and  C_22
    9  A    between atoms: C_22  and  N_23
   10  A    between atoms: N_23  and  C_28
   11  A    between atoms: N_24  and  C_29
                            x       y       z     vdW  Elec       q    Type
                         _______ _______ _______ _____ _____    ______ ____

>  <TORSDO>
F 11

$$$$
=
 OpenBabel11052409433D

 31 34  0  0  1  0  0  0  0  0999 V2000
  162.0180  210.7760  150.1410 C   0  0  0  0  0  3  0  0  0  0  0  0
  162.1070  209.5940  150.7670 C   0  0  0  0  0  0  0  0  0  0  0  0
  162.2870  208.3900  150.0190 N   0  0  0  0  0  2  0  0  0  0  0  0
  161.1710  207.6330  149.4750 C   0  0  0  0  0  2  0  0  0  0  0  0
  160.9330  201.8030  150.5780 O   0  0  0  0  0  0  0  0  0  0  0  0
  161.1220  203.7890  151.2830 C   0  0  0  0  0  0  0  0  0  0  0  0
  160.9240  205.2080  147.9460 N   0  0  0  0  0  2  0  0  0  0  0  0
  161.2490  204.8840  152.0660 N   0  0  0  0  0  0  0  0  0  0  0  0
  161.0700  202.5060  151.6760 N   0  0  0  0  0  2  0  0  0  0  0  0
  161.0120  203.8830  149.8690 C   0  0  0  0  0  0  0  0  0  0  0  0
  161.0340  205.1150  149.2310 C   0  0  0  0  0  0  0  0  0  0  0  0
  160.7540  202.0760  148.1690 N   0  0  0  0  0  1  0  0  0  0  0  0
  161.2740  206.1140  151.4650 C   0  0  0  0  0  3  0  0  0  0  0  0
  161.1750  206.2580  150.0560 C   0  0  0  0  0  0  0  0  0  0  0  0
  160.8950  202.5670  149.4970 C   0  0  0  0  0  0  0  0  0  0  0  0
  162.0040  209.5080  152.2000 N   0  0  0  0  0  2  0  0  0  0  0  0
  159.4410  211.6900  154.7840 C   0  0  0  0  0  3  0  0  0  0  0  0
  158.9860  211.2360  153.5440 C   0  0  0  0  0  3  0  0  0  0  0  0
  159.8450  210.5220  152.7020 C   0  0  0  0  0  3  0  0  0  0  0  0
  161.6110  210.7110  154.3420 C   0  0  0  0  0  3  0  0  0  0  0  0
  160.7540  211.4270  155.1850 C   0  0  0  0  0  3  0  0  0  0  0  0
  161.1630  210.2580  153.0920 C   0  0  0  0  0  0  0  0  0  0  0  0
  162.1050  210.9830  148.7210 N   0  0  0  0  0  2  0  0  0  0  0  0
  162.7940  212.0850  148.0550 C   0  0  1  0  0  3  0  0  0  0  0  0
  161.9400  212.8100  147.0680 C   0  0  2  0  0  3  0  0  0  0  0  0
  162.1530  213.2990  148.3720 O   0  0  0  0  0  0  0  0  0  0  0  0
  160.5080  212.2960  146.9460 C   0  0  0  0  0  2  0  0  0  0  0  0
  160.0350  212.3830  145.5060 C   0  0  0  0  0  2  0  0  0  0  0  0
  160.9850  213.0550  144.7300 O   0  0  0  0  0  0  0  0  0  0  0  0
  162.3070  212.6240  143.0890 C   0  0  0  0  0  1  0  0  0  0  0  0
  161.0270  212.3860  143.5960 O   0  0  0  0  0  0  0  0  0  0  0  0
  1  2  2  0  0  0  0
  2 16  1  0  0  0  0
  3  2  1  0  0  0  0
  4  3  1  0  0  0  0
  4 14  1  0  0  0  0
  5  9  1  0  0  0  0
  6  9  1  0  0  0  0
  6  8  2  0  0  0  0
  7 11  2  0  0  0  0
 10  6  1  0  0  0  0
 11 10  1  0  0  0  0
 11 14  1  0  0  0  0
 12 15  1  0  0  0  0
 13  8  1  0  0  0  0
 14 13  2  0  0  0  0
 15 10  2  0  0  0  0
 15  5  1  0  0  0  0
 16 22  1  0  0  0  0
 17 21  1  0  0  0  0
 18 17  2  0  0  0  0
 19 22  2  0  0  0  0
 19 18  1  0  0  0  0
 20 21  2  0  0  0  0
 22 20  1  0  0  0  0
 23  1  1  0  0  0  0
 24 26  1  0  0  0  0
 24 23  1  1  0  0  0
 25 27  1  1  0  0  0
 25 24  1  0  0  0  0
 25 26  1  0  0  0  0
 28 27  1  0  0  0  0
 29 28  1  0  0  0  0
 30 31  1  0  0  0  0
 31 29  1  0  0  0  0
M  END
>  <MODEL>
3

>  <REMARK>
 VINA RESULT:      -7.3      1.562      1.967
  Name = 
  11 active torsions:
  status: ('A' for Active; 'I' for Inactive)
    1  A    between atoms: C_1  and  C_9
    2  A    between atoms: C_1  and  O_10
    3  A    between atoms: C_9  and  C_30
    4  A    between atoms: O_10  and  O_13
    5  A    between atoms: C_17  and  N_21
    6  A    between atoms: C_17  and  C_25
    7  A    between atoms: C_20  and  N_24
    8  A    between atoms: N_21  and  C_22
    9  A    between atoms: C_22  and  N_23
   10  A    between atoms: N_23  and  C_28
   11  A    between atoms: N_24  and  C_29
                            x       y       z     vdW  Elec       q    Type
                         _______ _______ _______ _____ _____    ______ ____

>  <TORSDO>
F 11

$$$$
=
 OpenBabel11052409433D

 31 34  0  0  1  0  0  0  0  0999 V2000
  162.1550  208.6670  148.4580 C   0  0  0  0  0  3  0  0  0  0  0  0
  162.1220  209.4030  149.5790 C   0  0  0  0  0  0  0  0  0  0  0  0
  162.2740  208.7830  150.8560 N   0  0  0  0  0  2  0  0  0  0  0  0
  161.1910  208.0720  151.5150 C   0  0  0  0  0  2  0  0  0  0  0  0
  160.0450  209.3290  157.2040 O   0  0  0  0  0  0  0  0  0  0  0  0
  160.3600  209.9830  155.2170 C   0  0  0  0  0  0  0  0  0  0  0  0
  160.9040  206.6130  153.9780 N   0  0  0  0  0  2  0  0  0  0  0  0
  160.4890  210.7360  154.1010 N   0  0  0  0  0  0  0  0  0  0  0  0
  160.0820  210.4080  156.4600 N   0  0  0  0  0  2  0  0  0  0  0  0
  160.5010  208.5690  155.1920 C   0  0  0  0  0  0  0  0  0  0  0  0
  160.7830  207.9000  154.0090 C   0  0  0  0  0  0  0  0  0  0  0  0
  160.3090  206.9170  157.0510 N   0  0  0  0  0  1  0  0  0  0  0  0
  160.7670  210.1040  152.9190 C   0  0  0  0  0  3  0  0  0  0  0  0
  160.9250  208.6950  152.8450 C   0  0  0  0  0  0  0  0  0  0  0  0
  160.2850  208.2300  156.5050 C   0  0  0  0  0  0  0  0  0  0  0  0
  161.9120  210.8260  149.5210 N   0  0  0  0  0  2  0  0  0  0  0  0
  161.8350  213.4010  146.1500 C   0  0  0  0  0  3  0  0  0  0  0  0
  160.6720  212.7620  146.5860 C   0  0  0  0  0  3  0  0  0  0  0  0
  160.7160  211.9130  147.6970 C   0  0  0  0  0  3  0  0  0  0  0  0
  163.0810  212.3460  147.9360 C   0  0  0  0  0  3  0  0  0  0  0  0
  163.0400  213.1950  146.8250 C   0  0  0  0  0  3  0  0  0  0  0  0
  161.9190  211.6950  148.3770 C   0  0  0  0  0  0  0  0  0  0  0  0
  162.3550  207.2460  148.3920 N   0  0  0  0  0  2  0  0  0  0  0  0
  162.0980  206.3950  147.2340 C   0  0  1  0  0  3  0  0  0  0  0  0
  161.3840  205.1280  147.5730 C   0  0  2  0  0  3  0  0  0  0  0  0
  160.7090  206.2520  147.0570 O   0  0  0  0  0  0  0  0  0  0  0  0
  161.0310  204.9560  149.0480 C   0  0  0  0  0  2  0  0  0  0  0  0
  160.9100  203.4840  149.3960 C   0  0  0  0  0  2  0  0  0  0  0  0
  161.0320  202.7080  148.2380 O   0  0  0  0  0  0  0  0  0  0  0  0
  160.4910  201.3620  149.8260 C   0  0  0  0  0  1  0  0  0  0  0  0
  161.2700  201.4880  148.6740 O   0  0  0  0  0  0  0  0  0  0  0  0
  1  2  2  0  0  0  0
  2  3  1  0  0  0  0
  3  4  1  0  0  0  0
  4 14  1  0  0  0  0
  6  9  1  0  0  0  0
  7 11  2  0  0  0  0
  8  6  2  0  0  0  0
  9  5  1  0  0  0  0
 10  6  1  0  0  0  0
 10 15  2  0  0  0  0
 11 10  1  0  0  0  0
 13  8  1  0  0  0  0
 14 13  2  0  0  0  0
 14 11  1  0  0  0  0
 15 12  1  0  0  0  0
 15  5  1  0  0  0  0
 16  2  1  0  0  0  0
 17 18  2  0  0  0  0
 17 21  1  0  0  0  0
 18 19  1  0  0  0  0
 19 22  2  0  0  0  0
 20 22  1  0  0  0  0
 21 20  2  0  0  0  0
 22 16  1  0  0  0  0
 23  1  1  0  0  0  0
 24 25  1  0  0  0  0
 24 23  1  1  0  0  0
 25 27  1  1  0  0  0
 26 24  1  0  0  0  0
 26 25  1  0  0  0  0
 27 28  1  0  0  0  0
 29 31  1  0  0  0  0
 29 28  1  0  0  0  0
 31 30  1  0  0  0  0
M  END
>  <MODEL>
4

>  <REMARK>
 VINA RESULT:      -7.3      3.024      8.188
  Name = 
  11 active torsions:
  status: ('A' for Active; 'I' for Inactive)
    1  A    between atoms: C_1  and  C_9
    2  A    between atoms: C_1  and  O_10
    3  A    between atoms: C_9  and  C_30
    4  A    between atoms: O_10  and  O_13
    5  A    between atoms: C_17  and  N_21
    6  A    between atoms: C_17  and  C_25
    7  A    between atoms: C_20  and  N_24
    8  A    between atoms: N_21  and  C_22
    9  A    between atoms: C_22  and  N_23
   10  A    between atoms: N_23  and  C_28
   11  A    between atoms: N_24  and  C_29
                            x       y       z     vdW  Elec       q    Type
                         _______ _______ _______ _____ _____    ______ ____

>  <TORSDO>
F 11

$$$$
=
 OpenBabel11052409433D

 31 34  0  0  1  0  0  0  0  0999 V2000
  162.0480  210.3760  150.2680 C   0  0  0  0  0  2  0  0  0  0  0  0
  161.9570  209.0800  150.6030 C   0  0  0  0  0  0  0  0  0  0  0  0
  161.5560  208.1090  149.6360 N   0  0  0  0  0  0  0  0  0  0  0  0
  161.1670  206.7570  150.0000 C   0  0  0  0  0  2  0  0  0  0  0  0
  161.3320  202.3180  146.0580 O   0  0  0  0  0  0  0  0  0  0  0  0
  161.4520  204.3870  146.4850 C   0  0  0  0  0  0  0  0  0  0  0  0
  160.8630  203.8950  150.0340 N   0  0  0  0  0  1  0  0  0  0  0  0
  161.5980  205.7280  146.3890 N   0  0  0  0  0  0  0  0  0  0  0  0
  161.5270  203.4850  145.4930 N   0  0  0  0  0  2  0  0  0  0  0  0
  161.1970  203.7430  147.7270 C   0  0  0  0  0  0  0  0  0  0  0  0
  161.0850  204.4750  148.9000 C   0  0  0  0  0  0  0  0  0  0  0  0
  160.8960  201.3190  148.2310 N   0  0  0  0  0  1  0  0  0  0  0  0
  161.4930  206.4760  147.5300 C   0  0  0  0  0  3  0  0  0  0  0  0
  161.2320  205.8810  148.7930 C   0  0  0  0  0  0  0  0  0  0  0  0
  161.1340  202.4210  147.3630 C   0  0  2  0  0  3  0  0  0  0  0  0
  162.2390  208.6440  151.9450 N   0  0  0  0  0  2  0  0  0  0  0  0
  159.8490  208.8570  155.4450 C   0  0  0  0  0  3  0  0  0  0  0  0
  160.3580  207.6340  155.0010 C   0  0  0  0  0  3  0  0  0  0  0  0
  161.1410  207.5810  153.8430 C   0  0  0  0  0  3  0  0  0  0  0  0
  160.9090  209.9710  153.5760 C   0  0  0  0  0  3  0  0  0  0  0  0
  160.1260  210.0270  154.7330 C   0  0  0  0  0  3  0  0  0  0  0  0
  161.4190  208.7460  153.1200 C   0  0  0  0  0  0  0  0  0  0  0  0
  161.7900  210.9270  148.9660 N   0  0  0  0  0  2  0  0  0  0  0  0
  162.6560  211.8490  148.2370 C   0  0  1  0  0  3  0  0  0  0  0  0
  161.9360  212.6430  147.1960 C   0  0  2  0  0  3  0  0  0  0  0  0
  162.2310  213.1720  148.4690 O   0  0  0  0  0  0  0  0  0  0  0  0
  160.4380  212.3730  147.0940 C   0  0  0  0  0  2  0  0  0  0  0  0
  159.8820  212.9530  145.8060 C   0  0  0  0  0  2  0  0  0  0  0  0
  159.6160  211.9260  144.8940 O   0  0  0  0  0  0  0  0  0  0  0  0
  159.6100  212.7660  142.9150 C   0  0  0  0  0  1  0  0  0  0  0  0
  160.4200  212.1610  143.8780 O   0  0  0  0  0  0  0  0  0  0  0  0
  1  2  1  0  0  0  0
  2 16  1  0  0  0  0
  3  4  1  0  0  0  0
  3  2  2  0  0  0  0
  5 15  1  0  0  0  0
  6 10  1  0  0  0  0
  8  6  2  0  0  0  0
  8 13  1  0  0  0  0
  9  5  1  0  0  0  0
  9  6  1  0  0  0  0
 10 11  2  0  0  0  0
 11  7  1  0  0  0  0
 13 14  2  0  0  0  0
 14 11  1  0  0  0  0
 14  4  1  0  0  0  0
 15 10  1  0  0  0  0
 15 12  1  1  0  0  0
 16 22  1  0  0  0  0
 18 17  1  0  0  0  0
 19 18  2  0  0  0  0
 20 21  1  0  0  0  0
 21 17  2  0  0  0  0
 22 20  2  0  0  0  0
 22 19  1  0  0  0  0
 23  1  1  0  0  0  0
 24 26  1  0  0  0  0
 24 23  1  1  0  0  0
 25 27  1  1  0  0  0
 25 24  1  0  0  0  0
 25 26  1  0  0  0  0
 28 27  1  0  0  0  0
 29 28  1  0  0  0  0
 30 31  1  0  0  0  0
 31 29  1  0  0  0  0
M  END
>  <MODEL>
5

>  <REMARK>
 VINA RESULT:      -7.2      1.044      1.867
  Name = 
  11 active torsions:
  status: ('A' for Active; 'I' for Inactive)
    1  A    between atoms: C_1  and  C_9
    2  A    between atoms: C_1  and  O_10
    3  A    between atoms: C_9  and  C_30
    4  A    between atoms: O_10  and  O_13
    5  A    between atoms: C_17  and  N_21
    6  A    between atoms: C_17  and  C_25
    7  A    between atoms: C_20  and  N_24
    8  A    between atoms: N_21  and  C_22
    9  A    between atoms: C_22  and  N_23
   10  A    between atoms: N_23  and  C_28
   11  A    between atoms: N_24  and  C_29
                            x       y       z     vdW  Elec       q    Type
                         _______ _______ _______ _____ _____    ______ ____

>  <TORSDO>
F 11

$$$$
=
 OpenBabel11052409433D

 31 34  0  0  1  0  0  0  0  0999 V2000
  162.0040  210.7040  150.1550 C   0  0  0  0  0  3  0  0  0  0  0  0
  162.0510  209.5190  150.7820 C   0  0  0  0  0  0  0  0  0  0  0  0
  162.1840  208.3090  150.0350 N   0  0  0  0  0  2  0  0  0  0  0  0
  161.2830  207.1810  150.2070 C   0  0  0  0  0  2  0  0  0  0  0  0
  161.4290  202.7070  146.3050 O   0  0  0  0  0  0  0  0  0  0  0  0
  161.6340  204.7710  146.7270 C   0  0  0  0  0  0  0  0  0  0  0  0
  160.8270  204.3400  150.2400 N   0  0  0  0  0  1  0  0  0  0  0  0
  161.8560  206.1010  146.6310 N   0  0  0  0  0  0  0  0  0  0  0  0
  161.7170  203.8570  145.7450 N   0  0  0  0  0  2  0  0  0  0  0  0
  161.2790  204.1510  147.9560 C   0  0  0  0  0  0  0  0  0  0  0  0
  161.1420  204.8980  149.1170 C   0  0  0  0  0  0  0  0  0  0  0  0
  160.8240  201.7500  148.4560 N   0  0  0  0  0  1  0  0  0  0  0  0
  161.7280  206.8640  147.7610 C   0  0  0  0  0  3  0  0  0  0  0  0
  161.3670  206.2930  149.0100 C   0  0  0  0  0  0  0  0  0  0  0  0
  161.1670  202.8310  147.5970 C   0  0  1  0  0  3  0  0  0  0  0  0
  161.9490  209.4390  152.2160 N   0  0  0  0  0  2  0  0  0  0  0  0
  159.4350  211.6720  154.8030 C   0  0  0  0  0  3  0  0  0  0  0  0
  158.9570  211.1960  153.5790 C   0  0  0  0  0  3  0  0  0  0  0  0
  159.8010  210.4650  152.7360 C   0  0  0  0  0  3  0  0  0  0  0  0
  161.5950  210.6830  154.3410 C   0  0  0  0  0  3  0  0  0  0  0  0
  160.7530  211.4150  155.1850 C   0  0  0  0  0  3  0  0  0  0  0  0
  161.1250  210.2060  153.1080 C   0  0  0  0  0  0  0  0  0  0  0  0
  162.0930  210.9060  148.7350 N   0  0  0  0  0  2  0  0  0  0  0  0
  162.7960  211.9980  148.0660 C   0  0  1  0  0  3  0  0  0  0  0  0
  161.9500  212.7330  147.0790 C   0  0  2  0  0  3  0  0  0  0  0  0
  162.1720  213.2200  148.3830 O   0  0  0  0  0  0  0  0  0  0  0  0
  160.5110  212.2380  146.9610 C   0  0  0  0  0  2  0  0  0  0  0  0
  159.5420  213.4050  147.0350 C   0  0  0  0  0  2  0  0  0  0  0  0
  158.8800  213.3990  148.2680 O   0  0  0  0  0  0  0  0  0  0  0  0
  156.9450  213.1380  149.1670 C   0  0  0  0  0  1  0  0  0  0  0  0
  157.6870  212.9070  148.0070 O   0  0  0  0  0  0  0  0  0  0  0  0
  1  2  2  0  0  0  0
  2 16  1  0  0  0  0
  3  4  1  0  0  0  0
  3  2  1  0  0  0  0
  5 15  1  0  0  0  0
  6 10  1  0  0  0  0
  8  6  2  0  0  0  0
  8 13  1  0  0  0  0
  9  5  1  0  0  0  0
  9  6  1  0  0  0  0
 10 11  2  0  0  0  0
 11  7  1  0  0  0  0
 13 14  2  0  0  0  0
 14 11  1  0  0  0  0
 14  4  1  0  0  0  0
 15 10  1  0  0  0  0
 15 12  1  6  0  0  0
 16 22  1  0  0  0  0
 17 21  1  0  0  0  0
 18 17  2  0  0  0  0
 19 22  2  0  0  0  0
 19 18  1  0  0  0  0
 20 21  2  0  0  0  0
 22 20  1  0  0  0  0
 23  1  1  0  0  0  0
 24 26  1  0  0  0  0
 24 23  1  1  0  0  0
 25 27  1  1  0  0  0
 25 24  1  0  0  0  0
 25 26  1  0  0  0  0
 27 28  1  0  0  0  0
 28 29  1  0  0  0  0
 31 29  1  0  0  0  0
 31 30  1  0  0  0  0
M  END
>  <MODEL>
6

>  <REMARK>
 VINA RESULT:      -7.2      2.041      2.892
  Name = 
  11 active torsions:
  status: ('A' for Active; 'I' for Inactive)
    1  A    between atoms: C_1  and  C_9
    2  A    between atoms: C_1  and  O_10
    3  A    between atoms: C_9  and  C_30
    4  A    between atoms: O_10  and  O_13
    5  A    between atoms: C_17  and  N_21
    6  A    between atoms: C_17  and  C_25
    7  A    between atoms: C_20  and  N_24
    8  A    between atoms: N_21  and  C_22
    9  A    between atoms: C_22  and  N_23
   10  A    between atoms: N_23  and  C_28
   11  A    between atoms: N_24  and  C_29
                            x       y       z     vdW  Elec       q    Type
                         _______ _______ _______ _____ _____    ______ ____

>  <TORSDO>
F 11

$$$$
=
 OpenBabel11052409433D

 31 34  0  0  1  0  0  0  0  0999 V2000
  162.1390  209.5600  149.7990 C   0  0  0  0  0  3  0  0  0  0  0  0
  162.2740  208.2270  149.7550 C   0  0  0  0  0  0  0  0  0  0  0  0
  162.2520  207.5380  148.5030 N   0  0  0  0  0  2  0  0  0  0  0  0
  161.0170  207.1090  147.8680 C   0  0  0  0  0  2  0  0  0  0  0  0
  161.0790  201.1740  148.0520 O   0  0  0  0  0  0  0  0  0  0  0  0
  161.3180  202.9700  146.9590 C   0  0  0  0  0  0  0  0  0  0  0  0
  160.5150  205.0560  149.8210 N   0  0  0  0  0  1  0  0  0  0  0  0
  161.5610  203.8780  145.9860 N   0  0  0  0  0  0  0  0  0  0  0  0
  161.3830  201.6320  146.8620 N   0  0  0  0  0  2  0  0  0  0  0  0
  160.9570  203.3580  148.2790 C   0  0  0  0  0  0  0  0  0  0  0  0
  160.8350  204.6970  148.6210 C   0  0  0  0  0  0  0  0  0  0  0  0
  160.4640  201.9450  150.2740 N   0  0  0  0  0  1  0  0  0  0  0  0
  161.4490  205.2070  146.2950 C   0  0  0  0  0  3  0  0  0  0  0  0
  161.0830  205.6430  147.5960 C   0  0  0  0  0  0  0  0  0  0  0  0
  160.8220  202.1470  148.9120 C   0  0  2  0  0  3  0  0  0  0  0  0
  162.4230  207.4590  150.9630 N   0  0  0  0  0  2  0  0  0  0  0  0
  160.4790  207.8490  154.7150 C   0  0  0  0  0  3  0  0  0  0  0  0
  160.8310  206.5910  154.2210 C   0  0  0  0  0  3  0  0  0  0  0  0
  161.4680  206.4800  152.9810 C   0  0  0  0  0  3  0  0  0  0  0  0
  161.4020  208.8830  152.7310 C   0  0  0  0  0  3  0  0  0  0  0  0
  160.7650  208.9960  153.9700 C   0  0  0  0  0  3  0  0  0  0  0  0
  161.7550  207.6220  152.2250 C   0  0  0  0  0  0  0  0  0  0  0  0
  161.9820  210.4270  148.6630 N   0  0  0  0  0  2  0  0  0  0  0  0
  162.3410  211.8410  148.6070 C   0  0  1  0  0  3  0  0  0  0  0  0
  161.5210  212.6240  147.6340 C   0  0  2  0  0  3  0  0  0  0  0  0
  161.2400  212.6200  149.0140 O   0  0  0  0  0  0  0  0  0  0  0  0
  160.4510  211.8250  146.8960 C   0  0  0  0  0  2  0  0  0  0  0  0
  159.1430  212.5940  146.8650 C   0  0  0  0  0  2  0  0  0  0  0  0
  158.4510  212.3140  145.6810 O   0  0  0  0  0  0  0  0  0  0  0  0
  157.0790  213.3640  146.9620 C   0  0  0  0  0  1  0  0  0  0  0  0
  157.1790  212.3370  146.0220 O   0  0  0  0  0  0  0  0  0  0  0  0
  2  1  2  0  0  0  0
  2 16  1  0  0  0  0
  3  2  1  0  0  0  0
  4  3  1  0  0  0  0
  5 15  1  0  0  0  0
  6 10  1  0  0  0  0
  8 13  1  0  0  0  0
  8  6  2  0  0  0  0
  9  6  1  0  0  0  0
  9  5  1  0  0  0  0
 10 11  2  0  0  0  0
 10 15  1  0  0  0  0
 11  7  1  0  0  0  0
 13 14  2  0  0  0  0
 14  4  1  0  0  0  0
 14 11  1  0  0  0  0
 15 12  1  1  0  0  0
 16 22  1  0  0  0  0
 18 17  1  0  0  0  0
 19 18  2  0  0  0  0
 20 21  1  0  0  0  0
 21 17  2  0  0  0  0
 22 20  2  0  0  0  0
 22 19  1  0  0  0  0
 23  1  1  0  0  0  0
 24 23  1  6  0  0  0
 24 26  1  0  0  0  0
 25 27  1  6  0  0  0
 25 24  1  0  0  0  0
 25 26  1  0  0  0  0
 28 27  1  0  0  0  0
 29 31  1  0  0  0  0
 29 28  1  0  0  0  0
 31 30  1  0  0  0  0
M  END
>  <MODEL>
7

>  <REMARK>
 VINA RESULT:      -7.2      1.320      2.103
  Name = 
  11 active torsions:
  status: ('A' for Active; 'I' for Inactive)
    1  A    between atoms: C_1  and  C_9
    2  A    between atoms: C_1  and  O_10
    3  A    between atoms: C_9  and  C_30
    4  A    between atoms: O_10  and  O_13
    5  A    between atoms: C_17  and  N_21
    6  A    between atoms: C_17  and  C_25
    7  A    between atoms: C_20  and  N_24
    8  A    between atoms: N_21  and  C_22
    9  A    between atoms: C_22  and  N_23
   10  A    between atoms: N_23  and  C_28
   11  A    between atoms: N_24  and  C_29
                            x       y       z     vdW  Elec       q    Type
                         _______ _______ _______ _____ _____    ______ ____

>  <TORSDO>
F 11

$$$$
=
 OpenBabel11052409433D

 31 34  0  0  1  0  0  0  0  0999 V2000
  161.9410  210.4410  150.1050 C   0  0  0  0  0  3  0  0  0  0  0  0
  161.9870  209.2060  150.6270 C   0  0  0  0  0  0  0  0  0  0  0  0
  162.2690  208.0800  149.7960 N   0  0  0  0  0  2  0  0  0  0  0  0
  161.2460  207.4130  149.0070 C   0  0  0  0  0  2  0  0  0  0  0  0
  160.8490  201.4980  149.3510 O   0  0  0  0  0  0  0  0  0  0  0  0
  160.9300  203.3820  150.3110 C   0  0  0  0  0  0  0  0  0  0  0  0
  161.2310  205.1920  147.1780 N   0  0  0  0  0  2  0  0  0  0  0  0
  160.9380  204.3730  151.2310 N   0  0  0  0  0  0  0  0  0  0  0  0
  160.8200  202.0620  150.5340 N   0  0  0  0  0  2  0  0  0  0  0  0
  161.0310  203.6460  148.9180 C   0  0  0  0  0  0  0  0  0  0  0  0
  161.1470  204.9450  148.4440 C   0  0  0  0  0  0  0  0  0  0  0  0
  161.0300  202.0590  146.9930 N   0  0  0  0  0  1  0  0  0  0  0  0
  161.0520  205.6650  150.7930 C   0  0  0  0  0  3  0  0  0  0  0  0
  161.1640  205.9790  149.4130 C   0  0  0  0  0  0  0  0  0  0  0  0
  160.9710  202.3860  148.3760 C   0  0  0  0  0  0  0  0  0  0  0  0
  161.7330  208.9870  152.0270 N   0  0  0  0  0  2  0  0  0  0  0  0
  159.8890  211.5540  154.8590 C   0  0  0  0  0  3  0  0  0  0  0  0
  161.1900  211.0850  155.0610 C   0  0  0  0  0  3  0  0  0  0  0  0
  161.7810  210.2360  154.1190 C   0  0  0  0  0  3  0  0  0  0  0  0
  159.7750  210.3290  152.7740 C   0  0  0  0  0  3  0  0  0  0  0  0
  159.1820  211.1770  153.7150 C   0  0  0  0  0  3  0  0  0  0  0  0
  161.0790  209.8490  152.9730 C   0  0  0  0  0  0  0  0  0  0  0  0
  162.1740  210.7800  148.7280 N   0  0  0  0  0  2  0  0  0  0  0  0
  162.8360  211.9870  148.2410 C   0  0  1  0  0  3  0  0  0  0  0  0
  162.0070  212.7730  147.2800 C   0  0  2  0  0  3  0  0  0  0  0  0
  162.1000  213.1190  148.6420 O   0  0  0  0  0  0  0  0  0  0  0  0
  160.6220  212.1990  146.9950 C   0  0  0  0  0  2  0  0  0  0  0  0
  159.7500  213.2340  146.3090 C   0  0  0  0  0  2  0  0  0  0  0  0
  159.1930  214.0960  147.2590 O   0  0  0  0  0  0  0  0  0  0  0  0
  158.5200  214.0400  149.3010 C   0  0  0  0  0  1  0  0  0  0  0  0
  158.5840  213.3030  148.1170 O   0  0  0  0  0  0  0  0  0  0  0  0
  1  2  2  0  0  0  0
  2 16  1  0  0  0  0
  3  2  1  0  0  0  0
  4 14  1  0  0  0  0
  4  3  1  0  0  0  0
  5  9  1  0  0  0  0
  6  9  1  0  0  0  0
  6  8  2  0  0  0  0
  7 11  2  0  0  0  0
 10  6  1  0  0  0  0
 11 10  1  0  0  0  0
 11 14  1  0  0  0  0
 12 15  1  0  0  0  0
 13  8  1  0  0  0  0
 14 13  2  0  0  0  0
 15 10  2  0  0  0  0
 15  5  1  0  0  0  0
 16 22  1  0  0  0  0
 17 18  1  0  0  0  0
 19 18  2  0  0  0  0
 20 22  2  0  0  0  0
 20 21  1  0  0  0  0
 21 17  2  0  0  0  0
 22 19  1  0  0  0  0
 23  1  1  0  0  0  0
 24 26  1  0  0  0  0
 24 23  1  1  0  0  0
 25 27  1  1  0  0  0
 25 24  1  0  0  0  0
 25 26  1  0  0  0  0
 28 27  1  0  0  0  0
 28 29  1  0  0  0  0
 29 31  1  0  0  0  0
 31 30  1  0  0  0  0
M  END
>  <MODEL>
8

>  <REMARK>
 VINA RESULT:      -7.1      1.659      2.128
  Name = 
  11 active torsions:
  status: ('A' for Active; 'I' for Inactive)
    1  A    between atoms: C_1  and  C_9
    2  A    between atoms: C_1  and  O_10
    3  A    between atoms: C_9  and  C_30
    4  A    between atoms: O_10  and  O_13
    5  A    between atoms: C_17  and  N_21
    6  A    between atoms: C_17  and  C_25
    7  A    between atoms: C_20  and  N_24
    8  A    between atoms: N_21  and  C_22
    9  A    between atoms: C_22  and  N_23
   10  A    between atoms: N_23  and  C_28
   11  A    between atoms: N_24  and  C_29
                            x       y       z     vdW  Elec       q    Type
                         _______ _______ _______ _____ _____    ______ ____

>  <TORSDO>
F 11

$$$$
=
 OpenBabel11052409433D

 31 34  0  0  1  0  0  0  0  0999 V2000
  161.9740  210.4210  151.1150 C   0  0  0  0  0  2  0  0  0  0  0  0
  161.9480  209.6190  150.0400 C   0  0  0  0  0  0  0  0  0  0  0  0
  161.5830  208.2440  150.1710 N   0  0  0  0  0  0  0  0  0  0  0  0
  161.3860  207.3740  149.0230 C   0  0  0  0  0  2  0  0  0  0  0  0
  160.7890  201.4960  149.6140 O   0  0  0  0  0  0  0  0  0  0  0  0
  160.9840  203.4100  150.4950 C   0  0  0  0  0  0  0  0  0  0  0  0
  161.2030  205.0900  147.2840 N   0  0  0  0  0  2  0  0  0  0  0  0
  161.0730  204.4330  151.3750 N   0  0  0  0  0  0  0  0  0  0  0  0
  160.8370  202.1040  150.7750 N   0  0  0  0  0  2  0  0  0  0  0  0
  161.0290  203.6180  149.0900 C   0  0  0  0  0  0  0  0  0  0  0  0
  161.1710  204.8930  148.5610 C   0  0  0  0  0  0  0  0  0  0  0  0
  160.8790  201.9620  147.2300 N   0  0  0  0  0  1  0  0  0  0  0  0
  161.2130  205.7030  150.8820 C   0  0  0  0  0  3  0  0  0  0  0  0
  161.2700  205.9600  149.4870 C   0  0  0  0  0  0  0  0  0  0  0  0
  160.8980  202.3410  148.6010 C   0  0  0  0  0  0  0  0  0  0  0  0
  162.3080  210.1180  148.7390 N   0  0  0  0  0  2  0  0  0  0  0  0
  161.6770  213.9980  147.1420 C   0  0  0  0  0  3  0  0  0  0  0  0
  160.6320  213.0730  147.2030 C   0  0  0  0  0  3  0  0  0  0  0  0
  160.8580  211.7970  147.7290 C   0  0  0  0  0  3  0  0  0  0  0  0
  163.1700  212.3720  148.1340 C   0  0  0  0  0  3  0  0  0  0  0  0
  162.9470  213.6490  147.6080 C   0  0  0  0  0  3  0  0  0  0  0  0
  162.1270  211.4350  148.1940 C   0  0  0  0  0  0  0  0  0  0  0  0
  161.6390  210.0360  152.4580 N   0  0  0  0  0  2  0  0  0  0  0  0
  160.3730  210.3000  153.1370 C   0  0  1  0  0  3  0  0  0  0  0  0
  160.5260  210.5670  154.5980 C   0  0  2  0  0  3  0  0  0  0  0  0
  160.3850  211.6080  153.6580 O   0  0  0  0  0  0  0  0  0  0  0  0
  161.9610  210.5420  155.1160 C   0  0  0  0  0  2  0  0  0  0  0  0
  162.0280  209.8320  156.4560 C   0  0  0  0  0  2  0  0  0  0  0  0
  161.9620  208.4470  156.2670 O   0  0  0  0  0  0  0  0  0  0  0  0
  160.1150  207.3470  156.3400 C   0  0  0  0  0  1  0  0  0  0  0  0
  161.0460  208.0350  157.1200 O   0  0  0  0  0  0  0  0  0  0  0  0
  1 23  1  0  0  0  0
  2  3  2  0  0  0  0
  2  1  1  0  0  0  0
  4 14  1  0  0  0  0
  4  3  1  0  0  0  0
  5  9  1  0  0  0  0
  6  9  1  0  0  0  0
  6  8  2  0  0  0  0
  7 11  2  0  0  0  0
 10  6  1  0  0  0  0
 11 10  1  0  0  0  0
 11 14  1  0  0  0  0
 12 15  1  0  0  0  0
 13  8  1  0  0  0  0
 14 13  2  0  0  0  0
 15 10  2  0  0  0  0
 15  5  1  0  0  0  0
 16  2  1  0  0  0  0
 17 18  2  0  0  0  0
 17 21  1  0  0  0  0
 18 19  1  0  0  0  0
 19 22  2  0  0  0  0
 20 22  1  0  0  0  0
 21 20  2  0  0  0  0
 22 16  1  0  0  0  0
 24 23  1  6  0  0  0
 24 26  1  0  0  0  0
 24 25  1  0  0  0  0
 25 27  1  6  0  0  0
 26 25  1  0  0  0  0
 27 28  1  0  0  0  0
 29 28  1  0  0  0  0
 29 31  1  0  0  0  0
 30 31  1  0  0  0  0
M  END
>  <MODEL>
9

>  <REMARK>
 VINA RESULT:      -7.1      2.940      6.473
  Name = 
  11 active torsions:
  status: ('A' for Active; 'I' for Inactive)
    1  A    between atoms: C_1  and  C_9
    2  A    between atoms: C_1  and  O_10
    3  A    between atoms: C_9  and  C_30
    4  A    between atoms: O_10  and  O_13
    5  A    between atoms: C_17  and  N_21
    6  A    between atoms: C_17  and  C_25
    7  A    between atoms: C_20  and  N_24
    8  A    between atoms: N_21  and  C_22
    9  A    between atoms: C_22  and  N_23
   10  A    between atoms: N_23  and  C_28
   11  A    between atoms: N_24  and  C_29
                            x       y       z     vdW  Elec       q    Type
                         _______ _______ _______ _____ _____    ______ ____

>  <TORSDO>
F 11

$$$$
