=
 OpenBabel11052409413D

 38 40  0  0  1  0  0  0  0  0999 V2000
  161.8200  209.2920  150.7470 C   0  0  0  0  0  0  0  0  0  0  0  0
  161.4680  207.3930  152.2490 C   0  0  0  0  0  0  0  0  0  0  0  0
  161.6510  205.5150  153.8040 O   0  0  0  0  0  1  0  0  0  0  0  0
  161.1330  209.6740  153.0360 C   0  0  0  0  0  3  0  0  0  0  0  0
  161.4260  205.8010  149.5320 C   0  0  0  0  0  0  0  0  0  0  0  0
  160.6500  207.8730  154.6330 C   0  0  0  0  0  1  0  0  0  0  0  0
  161.5870  205.9010  152.4650 C   0  0  1  0  0  3  0  0  0  0  0  0
  161.5110  210.1680  151.7920 C   0  0  0  0  0  3  0  0  0  0  0  0
  161.9720  207.0080  149.7770 C   0  0  0  0  0  3  0  0  0  0  0  0
  161.7550  207.8940  150.9530 C   0  0  0  0  0  0  0  0  0  0  0  0
  161.1000  208.3020  153.2760 C   0  0  0  0  0  0  0  0  0  0  0  0
  160.4650  205.1280  150.4270 C   0  0  0  0  0  3  0  0  0  0  0  0
  160.5030  205.1780  151.7560 C   0  0  0  0  0  3  0  0  0  0  0  0
  162.1650  205.7310  147.1710 C   0  0  0  0  0  3  0  0  0  0  0  0
  161.6900  205.1170  148.2580 C   0  0  0  0  0  3  0  0  0  0  0  0
  163.6180  204.6660  145.6780 O   0  0  0  0  0  0  0  0  0  0  0  0
  162.4310  205.0270  145.9040 C   0  0  0  0  0  0  0  0  0  0  0  0
  159.4610  203.3530  144.0550 C   0  0  0  0  0  1  0  0  0  0  0  0
  160.5940  203.5050  144.9620 N   0  0  0  0  0  0  0  0  0  0  0  0
  161.3650  204.7200  144.9130 C   0  0  0  0  0  0  0  0  0  0  0  0
  161.1150  205.5630  144.0080 O   0  0  0  0  0  0  0  0  0  0  0  0
  160.9860  202.3910  145.8280 C   0  0  0  0  0  2  0  0  0  0  0  0
  160.3950  201.1930  145.4220 O   0  0  0  0  0  1  0  0  0  0  0  0
  162.2540  209.8570  149.4190 C   0  0  1  0  0  3  0  0  0  0  0  0
  161.5750  209.1510  148.2560 C   0  0  0  0  0  1  0  0  0  0  0  0
  161.9620  211.2820  149.3680 N   0  0  0  0  0  2  0  0  0  0  0  0
  163.7900  212.2110  148.0540 C   0  0  0  0  0  1  0  0  0  0  0  0
  162.3340  211.7710  148.0480 C   0  0  2  0  0  3  0  0  0  0  0  0
  159.2890  212.6500  146.9360 N   0  0  0  0  0  2  0  0  0  0  0  0
  159.6500  213.9300  148.8130 C   0  0  0  0  0  1  0  0  0  0  0  0
  160.0580  212.7240  148.1120 N   0  0  0  0  0  0  0  0  0  0  0  0
  162.4970  213.2790  145.2360 C   0  0  0  0  0  1  0  0  0  0  0  0
  161.4350  212.9360  147.6340 C   0  0  2  0  0  3  0  0  0  0  0  0
  160.0870  212.8270  145.7850 C   0  0  0  0  0  0  0  0  0  0  0  0
  161.3400  213.0180  146.1420 C   0  0  0  0  0  0  0  0  0  0  0  0
  158.6410  213.5810  144.0700 O   0  0  0  0  0  0  0  0  0  0  0  0
  159.9830  211.7870  143.4890 N   0  0  0  0  0  1  0  0  0  0  0  0
  159.5360  212.7650  144.4190 C   0  0  0  0  0  0  0  0  0  0  0  0
  1 10  2  0  0  0  0
  1  8  1  0  0  0  0
  2  7  1  0  0  0  0
  2 11  2  0  0  0  0
  4 11  1  0  0  0  0
  5  9  2  0  0  0  0
  5 12  1  0  0  0  0
  7  3  1  1  0  0  0
  8  4  2  0  0  0  0
  9 10  1  0  0  0  0
 10  2  1  0  0  0  0
 11  6  1  0  0  0  0
 12 13  2  0  0  0  0
 13  7  1  0  0  0  0
 14 15  2  0  0  0  0
 15  5  1  0  0  0  0
 16 17  2  0  0  0  0
 17 14  1  0  0  0  0
 18 19  1  0  0  0  0
 19 22  1  0  0  0  0
 20 19  1  0  0  0  0
 20 17  1  0  0  0  0
 21 20  2  0  0  0  0
 23 22  1  0  0  0  0
 24 25  1  6  0  0  0
 24  1  1  0  0  0  0
 26 24  1  0  0  0  0
 28 27  1  1  0  0  0
 28 26  1  0  0  0  0
 29 31  1  0  0  0  0
 31 30  1  0  0  0  0
 32 35  1  0  0  0  0
 33 28  1  6  0  0  0
 33 31  1  0  0  0  0
 34 35  2  0  0  0  0
 34 29  1  0  0  0  0
 35 33  1  0  0  0  0
 36 38  2  0  0  0  0
 37 38  1  0  0  0  0
 38 34  1  0  0  0  0
M  END
>  <MODEL>
1

>  <REMARK>
 VINA RESULT:      -8.2      0.000      0.000
  Name = 
  9 active torsions:
  status: ('A' for Active; 'I' for Inactive)
    1  A    between atoms: C_2  and  C_26
    2  A    between atoms: C_3  and  C_4
    3  A    between atoms: C_3  and  N_34
    4  A    between atoms: C_7  and  N_11
    5  A    between atoms: C_19  and  C_20
    6  A    between atoms: C_21  and  C_26
    7  A    between atoms: C_23  and  C_37
    8  A    between atoms: N_34  and  C_37
    9  A    between atoms: C_35  and  C_36
                            x       y       z     vdW  Elec       q    Type
                         _______ _______ _______ _____ _____    ______ ____

>  <TORSDO>
F 9

$$$$
=
 OpenBabel11052409413D

 38 40  0  0  1  0  0  0  0  0999 V2000
  161.3680  204.7550  151.2280 C   0  0  0  0  0  0  0  0  0  0  0  0
  161.3980  204.4670  148.7980 C   0  0  0  0  0  0  0  0  0  0  0  0
  161.9490  204.0660  146.4500 O   0  0  0  0  0  1  0  0  0  0  0  0
  160.6060  202.6770  150.2480 C   0  0  0  0  0  3  0  0  0  0  0  0
  161.6910  207.6030  148.8600 C   0  0  0  0  0  0  0  0  0  0  0  0
  160.4890  202.2740  147.8290 C   0  0  0  0  0  1  0  0  0  0  0  0
  161.8150  205.0240  147.4550 C   0  0  1  0  0  3  0  0  0  0  0  0
  160.8830  203.4520  151.3690 C   0  0  0  0  0  3  0  0  0  0  0  0
  161.9820  206.7240  149.8390 C   0  0  0  0  0  3  0  0  0  0  0  0
  161.5850  205.2920  149.9370 C   0  0  0  0  0  0  0  0  0  0  0  0
  160.8490  203.1690  148.9670 C   0  0  0  0  0  0  0  0  0  0  0  0
  160.8810  207.2810  147.6690 C   0  0  0  0  0  3  0  0  0  0  0  0
  160.9020  206.1140  147.0300 C   0  0  0  0  0  3  0  0  0  0  0  0
  161.6040  209.9950  148.2330 C   0  0  0  0  0  3  0  0  0  0  0  0
  162.0940  209.0110  148.9910 C   0  0  0  0  0  3  0  0  0  0  0  0
  163.2480  211.6560  148.3490 O   0  0  0  0  0  0  0  0  0  0  0  0
  162.0140  211.4030  148.3830 C   0  0  0  0  0  0  0  0  0  0  0  0
  159.2780  214.0670  147.7060 C   0  0  0  0  0  1  0  0  0  0  0  0
  160.3350  213.0970  147.4400 N   0  0  0  0  0  0  0  0  0  0  0  0
  161.0380  212.5130  148.5520 C   0  0  0  0  0  0  0  0  0  0  0  0
  160.8040  212.9450  149.7150 O   0  0  0  0  0  0  0  0  0  0  0  0
  160.7280  212.8110  146.0580 C   0  0  0  0  0  2  0  0  0  0  0  0
  159.8110  211.9670  145.4290 O   0  0  0  0  0  1  0  0  0  0  0  0
  161.6850  205.5590  152.4620 C   0  0  1  0  0  3  0  0  0  0  0  0
  163.1510  205.9610  152.5120 C   0  0  0  0  0  1  0  0  0  0  0  0
  160.8470  206.7480  152.5080 N   0  0  0  0  0  2  0  0  0  0  0  0
  160.3290  206.6870  154.8860 C   0  0  0  0  0  1  0  0  0  0  0  0
  161.0790  207.4150  153.7810 C   0  0  2  0  0  3  0  0  0  0  0  0
  162.0660  210.6190  153.9600 N   0  0  0  0  0  2  0  0  0  0  0  0
  160.9170  210.4410  151.9750 C   0  0  0  0  0  1  0  0  0  0  0  0
  161.6250  209.6910  152.9990 N   0  0  0  0  0  0  0  0  0  0  0  0
  159.6060  208.9700  156.1510 C   0  0  0  0  0  1  0  0  0  0  0  0
  160.6290  208.8740  153.7140 C   0  0  2  0  0  3  0  0  0  0  0  0
  161.3980  210.4470  155.1910 C   0  0  0  0  0  0  0  0  0  0  0  0
  160.5360  209.4560  155.0900 C   0  0  0  0  0  0  0  0  0  0  0  0
  160.9020  212.1920  156.7100 O   0  0  0  0  0  0  0  0  0  0  0  0
  162.8700  211.0560  157.1480 N   0  0  0  0  0  1  0  0  0  0  0  0
  161.6940  211.2700  156.3780 C   0  0  0  0  0  0  0  0  0  0  0  0
  1  8  1  0  0  0  0
  1 24  1  0  0  0  0
  2 11  2  0  0  0  0
  2 10  1  0  0  0  0
  4  8  2  0  0  0  0
  5 15  1  0  0  0  0
  5  9  2  0  0  0  0
  6 11  1  0  0  0  0
  7  3  1  6  0  0  0
  7  2  1  0  0  0  0
  9 10  1  0  0  0  0
 10  1  2  0  0  0  0
 11  4  1  0  0  0  0
 12  5  1  0  0  0  0
 13  7  1  0  0  0  0
 13 12  2  0  0  0  0
 14 17  1  0  0  0  0
 14 15  2  0  0  0  0
 16 17  2  0  0  0  0
 17 20  1  0  0  0  0
 19 18  1  0  0  0  0
 19 20  1  0  0  0  0
 20 21  2  0  0  0  0
 22 19  1  0  0  0  0
 23 22  1  0  0  0  0
 24 26  1  0  0  0  0
 24 25  1  6  0  0  0
 26 28  1  0  0  0  0
 28 27  1  1  0  0  0
 29 34  1  0  0  0  0
 30 31  1  0  0  0  0
 31 33  1  0  0  0  0
 31 29  1  0  0  0  0
 33 28  1  1  0  0  0
 33 35  1  0  0  0  0
 34 38  1  0  0  0  0
 35 34  2  0  0  0  0
 35 32  1  0  0  0  0
 38 36  2  0  0  0  0
 38 37  1  0  0  0  0
M  END
>  <MODEL>
2

>  <REMARK>
 VINA RESULT:      -7.7      2.998      7.952
  Name = 
  9 active torsions:
  status: ('A' for Active; 'I' for Inactive)
    1  A    between atoms: C_2  and  C_26
    2  A    between atoms: C_3  and  C_4
    3  A    between atoms: C_3  and  N_34
    4  A    between atoms: C_7  and  N_11
    5  A    between atoms: C_19  and  C_20
    6  A    between atoms: C_21  and  C_26
    7  A    between atoms: C_23  and  C_37
    8  A    between atoms: N_34  and  C_37
    9  A    between atoms: C_35  and  C_36
                            x       y       z     vdW  Elec       q    Type
                         _______ _______ _______ _____ _____    ______ ____

>  <TORSDO>
F 9

$$$$
=
 OpenBabel11052409413D

 38 40  0  0  1  0  0  0  0  0999 V2000
  161.4660  205.9080  151.8940 C   0  0  0  0  0  0  0  0  0  0  0  0
  161.3970  204.7470  149.7410 C   0  0  0  0  0  0  0  0  0  0  0  0
  161.8560  203.5210  147.6760 O   0  0  0  0  0  1  0  0  0  0  0  0
  160.7410  203.6010  151.7870 C   0  0  0  0  0  3  0  0  0  0  0  0
  161.5720  207.6910  148.6330 C   0  0  0  0  0  0  0  0  0  0  0  0
  160.5290  202.3340  149.6950 C   0  0  0  0  0  1  0  0  0  0  0  0
  161.7310  204.7790  148.2660 C   0  0  1  0  0  3  0  0  0  0  0  0
  161.0380  204.7390  152.5300 C   0  0  0  0  0  3  0  0  0  0  0  0
  161.9410  207.2390  149.8480 C   0  0  0  0  0  3  0  0  0  0  0  0
  161.6030  205.9370  150.4860 C   0  0  0  0  0  0  0  0  0  0  0  0
  160.9070  203.5920  150.4040 C   0  0  0  0  0  0  0  0  0  0  0  0
  160.7220  206.9380  147.6910 C   0  0  0  0  0  3  0  0  0  0  0  0
  160.7590  205.6180  147.5230 C   0  0  0  0  0  3  0  0  0  0  0  0
  161.6780  210.1430  148.9490 C   0  0  0  0  0  3  0  0  0  0  0  0
  161.9270  209.0550  148.2160 C   0  0  0  0  0  3  0  0  0  0  0  0
  163.2140  211.6740  148.0710 O   0  0  0  0  0  0  0  0  0  0  0  0
  162.0480  211.5030  148.5170 C   0  0  0  0  0  0  0  0  0  0  0  0
  159.2710  214.0640  147.6380 C   0  0  0  0  0  1  0  0  0  0  0  0
  160.2860  213.0330  147.4510 N   0  0  0  0  0  0  0  0  0  0  0  0
  161.1030  212.6510  148.5730 C   0  0  0  0  0  0  0  0  0  0  0  0
  161.0010  213.3020  149.6500 O   0  0  0  0  0  0  0  0  0  0  0  0
  160.5240  212.4800  146.1160 C   0  0  0  0  0  2  0  0  0  0  0  0
  161.5320  213.1740  145.4450 O   0  0  0  0  0  1  0  0  0  0  0  0
  161.8080  207.1150  152.7270 C   0  0  1  0  0  3  0  0  0  0  0  0
  162.3390  208.2580  151.8760 C   0  0  0  0  0  1  0  0  0  0  0  0
  160.6340  207.5570  153.4660 N   0  0  0  0  0  2  0  0  0  0  0  0
  159.8930  207.3130  155.7730 C   0  0  0  0  0  1  0  0  0  0  0  0
  161.0230  207.7550  154.8550 C   0  0  2  0  0  3  0  0  0  0  0  0
  160.4830  210.4090  156.8400 N   0  0  0  0  0  2  0  0  0  0  0  0
  162.7680  210.1530  156.7660 C   0  0  0  0  0  1  0  0  0  0  0  0
  161.4990  209.4770  156.5580 N   0  0  0  0  0  0  0  0  0  0  0  0
  159.8070  210.2170  153.2230 C   0  0  0  0  0  1  0  0  0  0  0  0
  161.3660  209.2210  155.1130 C   0  0  2  0  0  3  0  0  0  0  0  0
  159.7650  210.7590  155.6770 C   0  0  0  0  0  0  0  0  0  0  0  0
  160.2560  210.1090  154.6420 C   0  0  0  0  0  0  0  0  0  0  0  0
  158.8340  212.9320  155.5720 O   0  0  0  0  0  0  0  0  0  0  0  0
  157.2940  211.2320  155.8730 N   0  0  0  0  0  1  0  0  0  0  0  0
  158.6260  211.6960  155.6970 C   0  0  0  0  0  0  0  0  0  0  0  0
  1  8  1  0  0  0  0
  1 24  1  0  0  0  0
  2 11  2  0  0  0  0
  2 10  1  0  0  0  0
  4  8  2  0  0  0  0
  5  9  2  0  0  0  0
  6 11  1  0  0  0  0
  7  3  1  6  0  0  0
  7  2  1  0  0  0  0
  9 10  1  0  0  0  0
 10  1  2  0  0  0  0
 11  4  1  0  0  0  0
 12  5  1  0  0  0  0
 13 12  2  0  0  0  0
 13  7  1  0  0  0  0
 15  5  1  0  0  0  0
 15 14  2  0  0  0  0
 16 17  2  0  0  0  0
 17 20  1  0  0  0  0
 17 14  1  0  0  0  0
 19 18  1  0  0  0  0
 19 20  1  0  0  0  0
 20 21  2  0  0  0  0
 22 19  1  0  0  0  0
 23 22  1  0  0  0  0
 24 25  1  6  0  0  0
 24 26  1  0  0  0  0
 26 28  1  0  0  0  0
 28 27  1  1  0  0  0
 31 30  1  0  0  0  0
 31 29  1  0  0  0  0
 32 35  1  0  0  0  0
 33 28  1  1  0  0  0
 33 31  1  0  0  0  0
 34 38  1  0  0  0  0
 34 29  1  0  0  0  0
 35 33  1  0  0  0  0
 35 34  2  0  0  0  0
 36 38  2  0  0  0  0
 38 37  1  0  0  0  0
M  END
>  <MODEL>
3

>  <REMARK>
 VINA RESULT:      -7.5      3.465      7.817
  Name = 
  9 active torsions:
  status: ('A' for Active; 'I' for Inactive)
    1  A    between atoms: C_2  and  C_26
    2  A    between atoms: C_3  and  C_4
    3  A    between atoms: C_3  and  N_34
    4  A    between atoms: C_7  and  N_11
    5  A    between atoms: C_19  and  C_20
    6  A    between atoms: C_21  and  C_26
    7  A    between atoms: C_23  and  C_37
    8  A    between atoms: N_34  and  C_37
    9  A    between atoms: C_35  and  C_36
                            x       y       z     vdW  Elec       q    Type
                         _______ _______ _______ _____ _____    ______ ____

>  <TORSDO>
F 9

$$$$
=
 OpenBabel11052409413D

 38 40  0  0  1  0  0  0  0  0999 V2000
  161.1070  207.6040  152.0120 C   0  0  0  0  0  0  0  0  0  0  0  0
  160.4190  208.5220  154.1740 C   0  0  0  0  0  0  0  0  0  0  0  0
  159.2440  209.2700  156.1840 O   0  0  0  0  0  1  0  0  0  0  0  0
  161.4200  206.3060  154.0310 C   0  0  0  0  0  3  0  0  0  0  0  0
  160.4000  211.2150  152.5410 C   0  0  0  0  0  0  0  0  0  0  0  0
  160.8690  207.1260  156.2780 C   0  0  0  0  0  1  0  0  0  0  0  0
  159.7110  209.6310  154.9190 C   0  0  1  0  0  3  0  0  0  0  0  0
  161.5080  206.4250  152.6480 C   0  0  0  0  0  3  0  0  0  0  0  0
  160.3070  209.9580  152.0670 C   0  0  0  0  0  3  0  0  0  0  0  0
  160.6030  208.6830  152.7770 C   0  0  0  0  0  0  0  0  0  0  0  0
  160.8900  207.3380  154.8020 C   0  0  0  0  0  0  0  0  0  0  0  0
  160.8420  211.5560  153.9070 C   0  0  0  0  0  3  0  0  0  0  0  0
  160.5640  210.8430  154.9950 C   0  0  0  0  0  3  0  0  0  0  0  0
  160.6150  212.4340  150.3980 C   0  0  0  0  0  3  0  0  0  0  0  0
  160.1570  212.3590  151.6500 C   0  0  0  0  0  3  0  0  0  0  0  0
  159.3910  214.3410  149.8160 O   0  0  0  0  0  0  0  0  0  0  0  0
  160.3540  213.5860  149.5160 C   0  0  0  0  0  0  0  0  0  0  0  0
  161.5330  214.1090  145.8580 C   0  0  0  0  0  1  0  0  0  0  0  0
  160.7280  213.6350  146.9790 N   0  0  0  0  0  0  0  0  0  0  0  0
  161.1850  213.8890  148.3200 C   0  0  0  0  0  0  0  0  0  0  0  0
  162.3250  214.4050  148.4870 O   0  0  0  0  0  0  0  0  0  0  0  0
  159.5310  212.8290  146.7240 C   0  0  0  0  0  2  0  0  0  0  0  0
  159.5900  212.2060  145.4770 O   0  0  0  0  0  1  0  0  0  0  0  0
  161.1870  207.6920  150.5110 C   0  0  1  0  0  3  0  0  0  0  0  0
  162.5840  208.0710  150.0410 C   0  0  0  0  0  1  0  0  0  0  0  0
  160.7960  206.4220  149.9180 N   0  0  0  0  0  2  0  0  0  0  0  0
  160.0460  206.4220  147.6010 C   0  0  0  0  0  1  0  0  0  0  0  0
  161.2480  206.4120  148.5340 C   0  0  2  0  0  3  0  0  0  0  0  0
  161.5080  203.5460  146.8040 N   0  0  0  0  0  2  0  0  0  0  0  0
  163.4540  204.6960  146.3810 C   0  0  0  0  0  1  0  0  0  0  0  0
  162.0790  204.8310  146.8300 N   0  0  0  0  0  0  0  0  0  0  0  0
  161.4730  203.8830  150.4720 C   0  0  0  0  0  1  0  0  0  0  0  0
  162.1140  205.1830  148.2600 C   0  0  2  0  0  3  0  0  0  0  0  0
  161.2190  203.0810  148.1040 C   0  0  0  0  0  0  0  0  0  0  0  0
  161.5750  203.9910  148.9880 C   0  0  0  0  0  0  0  0  0  0  0  0
  159.4890  201.7220  148.9770 O   0  0  0  0  0  0  0  0  0  0  0  0
  161.2000  200.5630  147.9350 N   0  0  0  0  0  1  0  0  0  0  0  0
  160.5860  201.7730  148.3590 C   0  0  0  0  0  0  0  0  0  0  0  0
  1  8  2  0  0  0  0
  1 10  1  0  0  0  0
  2 11  1  0  0  0  0
  2  7  1  0  0  0  0
  4 11  2  0  0  0  0
  5 12  1  0  0  0  0
  7 13  1  0  0  0  0
  7  3  1  1  0  0  0
  8  4  1  0  0  0  0
  9  5  2  0  0  0  0
  9 10  1  0  0  0  0
 10  2  2  0  0  0  0
 11  6  1  0  0  0  0
 12 13  2  0  0  0  0
 14 15  2  0  0  0  0
 15  5  1  0  0  0  0
 17 16  2  0  0  0  0
 17 14  1  0  0  0  0
 18 19  1  0  0  0  0
 19 20  1  0  0  0  0
 20 21  2  0  0  0  0
 20 17  1  0  0  0  0
 22 19  1  0  0  0  0
 23 22  1  0  0  0  0
 24 25  1  1  0  0  0
 24  1  1  0  0  0  0
 26 24  1  0  0  0  0
 28 27  1  6  0  0  0
 28 26  1  0  0  0  0
 29 31  1  0  0  0  0
 29 34  1  0  0  0  0
 30 31  1  0  0  0  0
 31 33  1  0  0  0  0
 33 28  1  6  0  0  0
 33 35  1  0  0  0  0
 34 38  1  0  0  0  0
 34 35  2  0  0  0  0
 35 32  1  0  0  0  0
 37 38  1  0  0  0  0
 38 36  2  0  0  0  0
M  END
>  <MODEL>
4

>  <REMARK>
 VINA RESULT:      -7.5      2.564      8.029
  Name = 
  9 active torsions:
  status: ('A' for Active; 'I' for Inactive)
    1  A    between atoms: C_2  and  C_26
    2  A    between atoms: C_3  and  C_4
    3  A    between atoms: C_3  and  N_34
    4  A    between atoms: C_7  and  N_11
    5  A    between atoms: C_19  and  C_20
    6  A    between atoms: C_21  and  C_26
    7  A    between atoms: C_23  and  C_37
    8  A    between atoms: N_34  and  C_37
    9  A    between atoms: C_35  and  C_36
                            x       y       z     vdW  Elec       q    Type
                         _______ _______ _______ _____ _____    ______ ____

>  <TORSDO>
F 9

$$$$
=
 OpenBabel11052409413D

 38 40  0  0  1  0  0  0  0  0999 V2000
  161.1840  206.5740  151.9010 C   0  0  0  0  0  0  0  0  0  0  0  0
  160.6900  208.0550  153.7850 C   0  0  0  0  0  0  0  0  0  0  0  0
  159.6870  209.4620  155.5150 O   0  0  0  0  0  1  0  0  0  0  0  0
  161.0990  205.6810  154.1490 C   0  0  0  0  0  3  0  0  0  0  0  0
  161.4020  210.2780  151.6710 C   0  0  0  0  0  0  0  0  0  0  0  0
  160.7100  207.0540  156.1470 C   0  0  0  0  0  1  0  0  0  0  0  0
  160.2660  209.4310  154.2460 C   0  0  1  0  0  3  0  0  0  0  0  0
  161.2540  205.4900  152.7800 C   0  0  0  0  0  3  0  0  0  0  0  0
  161.0070  209.0110  151.4400 C   0  0  0  0  0  3  0  0  0  0  0  0
  160.9480  207.8760  152.4020 C   0  0  0  0  0  0  0  0  0  0  0  0
  160.8270  206.9470  154.6630 C   0  0  0  0  0  0  0  0  0  0  0  0
  161.8770  210.7740  152.9770 C   0  0  0  0  0  3  0  0  0  0  0  0
  161.3960  210.3890  154.1560 C   0  0  0  0  0  3  0  0  0  0  0  0
  162.3090  211.1030  149.5210 C   0  0  0  0  0  3  0  0  0  0  0  0
  161.4820  211.2390  150.5600 C   0  0  0  0  0  3  0  0  0  0  0  0
  163.2300  211.8730  147.5120 O   0  0  0  0  0  0  0  0  0  0  0  0
  162.3710  212.0720  148.4130 C   0  0  0  0  0  0  0  0  0  0  0  0
  159.3650  214.3670  147.5510 C   0  0  0  0  0  1  0  0  0  0  0  0
  160.2950  213.2450  147.4670 N   0  0  0  0  0  0  0  0  0  0  0  0
  161.4580  213.2430  148.3150 C   0  0  0  0  0  0  0  0  0  0  0  0
  161.7020  214.2640  149.0160 O   0  0  0  0  0  0  0  0  0  0  0  0
  160.0860  212.2020  146.4610 C   0  0  0  0  0  2  0  0  0  0  0  0
  160.5750  212.5870  145.2120 O   0  0  0  0  0  1  0  0  0  0  0  0
  161.3260  206.3310  150.4210 C   0  0  1  0  0  3  0  0  0  0  0  0
  162.2740  207.3280  149.7730 C   0  0  0  0  0  1  0  0  0  0  0  0
  161.8030  204.9750  150.1860 N   0  0  0  0  0  2  0  0  0  0  0  0
  160.0850  203.3070  149.7450 C   0  0  0  0  0  1  0  0  0  0  0  0
  160.9780  204.3810  149.1440 C   0  0  2  0  0  3  0  0  0  0  0  0
  161.2100  203.7120  145.8610 N   0  0  0  0  0  2  0  0  0  0  0  0
  163.1190  204.8830  146.3850 C   0  0  0  0  0  1  0  0  0  0  0  0
  161.7620  204.5890  146.8130 N   0  0  0  0  0  0  0  0  0  0  0  0
  161.3230  201.2520  148.6020 C   0  0  0  0  0  1  0  0  0  0  0  0
  161.8510  203.7820  148.0420 C   0  0  2  0  0  3  0  0  0  0  0  0
  160.9840  202.4310  146.4090 C   0  0  0  0  0  0  0  0  0  0  0  0
  161.3610  202.4170  147.6710 C   0  0  0  0  0  0  0  0  0  0  0  0
  160.9090  200.1860  145.6650 O   0  0  0  0  0  0  0  0  0  0  0  0
  159.2250  201.5390  144.8340 N   0  0  0  0  0  1  0  0  0  0  0  0
  160.3820  201.3300  145.6330 C   0  0  0  0  0  0  0  0  0  0  0  0
  1 10  2  0  0  0  0
  1  8  1  0  0  0  0
  2  7  1  0  0  0  0
  2 11  2  0  0  0  0
  4 11  1  0  0  0  0
  5 12  1  0  0  0  0
  7  3  1  1  0  0  0
  8  4  2  0  0  0  0
  9  5  2  0  0  0  0
  9 10  1  0  0  0  0
 10  2  1  0  0  0  0
 11  6  1  0  0  0  0
 12 13  2  0  0  0  0
 13  7  1  0  0  0  0
 14 15  2  0  0  0  0
 15  5  1  0  0  0  0
 16 17  2  0  0  0  0
 17 14  1  0  0  0  0
 19 18  1  0  0  0  0
 19 20  1  0  0  0  0
 20 17  1  0  0  0  0
 20 21  2  0  0  0  0
 22 19  1  0  0  0  0
 23 22  1  0  0  0  0
 24 25  1  1  0  0  0
 24  1  1  0  0  0  0
 26 24  1  0  0  0  0
 28 27  1  1  0  0  0
 28 26  1  0  0  0  0
 29 34  1  0  0  0  0
 29 31  1  0  0  0  0
 30 31  1  0  0  0  0
 31 33  1  0  0  0  0
 33 28  1  1  0  0  0
 34 35  2  0  0  0  0
 35 33  1  0  0  0  0
 35 32  1  0  0  0  0
 37 38  1  0  0  0  0
 38 36  2  0  0  0  0
 38 34  1  0  0  0  0
M  END
>  <MODEL>
5

>  <REMARK>
 VINA RESULT:      -7.2      2.252      7.959
  Name = 
  9 active torsions:
  status: ('A' for Active; 'I' for Inactive)
    1  A    between atoms: C_2  and  C_26
    2  A    between atoms: C_3  and  C_4
    3  A    between atoms: C_3  and  N_34
    4  A    between atoms: C_7  and  N_11
    5  A    between atoms: C_19  and  C_20
    6  A    between atoms: C_21  and  C_26
    7  A    between atoms: C_23  and  C_37
    8  A    between atoms: N_34  and  C_37
    9  A    between atoms: C_35  and  C_36
                            x       y       z     vdW  Elec       q    Type
                         _______ _______ _______ _____ _____    ______ ____

>  <TORSDO>
F 9

$$$$
=
 OpenBabel11052409413D

 38 40  0  0  1  0  0  0  0  0999 V2000
  161.3160  206.8610  152.5150 C   0  0  0  0  0  0  0  0  0  0  0  0
  160.4560  208.3550  154.2520 C   0  0  0  0  0  0  0  0  0  0  0  0
  159.1170  209.6920  155.8010 O   0  0  0  0  0  1  0  0  0  0  0  0
  161.1670  206.0920  154.8060 C   0  0  0  0  0  3  0  0  0  0  0  0
  161.0210  210.5370  152.0530 C   0  0  0  0  0  0  0  0  0  0  0  0
  160.4160  207.5010  156.6710 C   0  0  0  0  0  1  0  0  0  0  0  0
  159.8010  209.6770  154.5850 C   0  0  1  0  0  3  0  0  0  0  0  0
  161.4650  205.8490  153.4690 C   0  0  0  0  0  3  0  0  0  0  0  0
  160.8320  209.2150  151.8790 C   0  0  0  0  0  3  0  0  0  0  0  0
  160.8540  208.1390  152.9080 C   0  0  0  0  0  0  0  0  0  0  0  0
  160.6730  207.3300  155.2110 C   0  0  0  0  0  0  0  0  0  0  0  0
  161.3070  211.1700  153.3550 C   0  0  0  0  0  3  0  0  0  0  0  0
  160.7860  210.7840  154.5170 C   0  0  0  0  0  3  0  0  0  0  0  0
  161.9470  211.3300  149.8990 C   0  0  0  0  0  3  0  0  0  0  0  0
  161.0580  211.4360  150.8900 C   0  0  0  0  0  3  0  0  0  0  0  0
  162.8090  212.0030  147.8310 O   0  0  0  0  0  0  0  0  0  0  0  0
  161.9640  212.2350  148.7360 C   0  0  0  0  0  0  0  0  0  0  0  0
  158.9330  214.4370  147.7310 C   0  0  0  0  0  1  0  0  0  0  0  0
  159.8970  213.3420  147.6950 N   0  0  0  0  0  0  0  0  0  0  0  0
  161.0230  213.3790  148.5920 C   0  0  0  0  0  0  0  0  0  0  0  0
  161.2080  214.4110  149.2950 O   0  0  0  0  0  0  0  0  0  0  0  0
  159.7610  212.2870  146.6890 C   0  0  0  0  0  2  0  0  0  0  0  0
  160.4540  212.6020  145.5190 O   0  0  0  0  0  1  0  0  0  0  0  0
  161.6180  206.5590  151.0710 C   0  0  1  0  0  3  0  0  0  0  0  0
  162.7550  207.4190  150.5410 C   0  0  0  0  0  1  0  0  0  0  0  0
  161.9540  205.1510  150.9190 N   0  0  0  0  0  2  0  0  0  0  0  0
  160.8370  203.2150  151.8850 C   0  0  0  0  0  1  0  0  0  0  0  0
  160.7140  204.3880  150.9240 C   0  0  2  0  0  3  0  0  0  0  0  0
  161.9500  202.9820  148.1370 N   0  0  0  0  0  2  0  0  0  0  0  0
  160.1650  201.6660  148.7480 C   0  0  0  0  0  1  0  0  0  0  0  0
  161.1260  202.6450  149.2260 N   0  0  0  0  0  0  0  0  0  0  0  0
  160.2980  206.2670  148.3750 C   0  0  0  0  0  1  0  0  0  0  0  0
  160.3860  203.8840  149.5190 C   0  0  2  0  0  3  0  0  0  0  0  0
  161.7470  204.3180  147.7290 C   0  0  0  0  0  0  0  0  0  0  0  0
  160.8300  204.8780  148.4910 C   0  0  0  0  0  0  0  0  0  0  0  0
  163.7400  204.7030  146.5110 O   0  0  0  0  0  0  0  0  0  0  0  0
  161.8770  205.8100  145.6980 N   0  0  0  0  0  1  0  0  0  0  0  0
  162.5070  204.9370  146.6270 C   0  0  0  0  0  0  0  0  0  0  0  0
  1 10  2  0  0  0  0
  1  8  1  0  0  0  0
  2  7  1  0  0  0  0
  2 11  2  0  0  0  0
  4 11  1  0  0  0  0
  5 12  1  0  0  0  0
  7  3  1  1  0  0  0
  8  4  2  0  0  0  0
  9  5  2  0  0  0  0
  9 10  1  0  0  0  0
 10  2  1  0  0  0  0
 11  6  1  0  0  0  0
 12 13  2  0  0  0  0
 13  7  1  0  0  0  0
 14 15  2  0  0  0  0
 15  5  1  0  0  0  0
 16 17  2  0  0  0  0
 17 14  1  0  0  0  0
 19 18  1  0  0  0  0
 19 20  1  0  0  0  0
 20 17  1  0  0  0  0
 20 21  2  0  0  0  0
 22 19  1  0  0  0  0
 23 22  1  0  0  0  0
 24 25  1  1  0  0  0
 24  1  1  0  0  0  0
 26 28  1  0  0  0  0
 26 24  1  0  0  0  0
 28 27  1  1  0  0  0
 29 31  1  0  0  0  0
 30 31  1  0  0  0  0
 31 33  1  0  0  0  0
 32 35  1  0  0  0  0
 33 28  1  1  0  0  0
 34 29  1  0  0  0  0
 34 35  2  0  0  0  0
 35 33  1  0  0  0  0
 36 38  2  0  0  0  0
 37 38  1  0  0  0  0
 38 34  1  0  0  0  0
M  END
>  <MODEL>
6

>  <REMARK>
 VINA RESULT:      -6.9      2.517      7.668
  Name = 
  9 active torsions:
  status: ('A' for Active; 'I' for Inactive)
    1  A    between atoms: C_2  and  C_26
    2  A    between atoms: C_3  and  C_4
    3  A    between atoms: C_3  and  N_34
    4  A    between atoms: C_7  and  N_11
    5  A    between atoms: C_19  and  C_20
    6  A    between atoms: C_21  and  C_26
    7  A    between atoms: C_23  and  C_37
    8  A    between atoms: N_34  and  C_37
    9  A    between atoms: C_35  and  C_36
                            x       y       z     vdW  Elec       q    Type
                         _______ _______ _______ _____ _____    ______ ____

>  <TORSDO>
F 9

$$$$
=
 OpenBabel11052409413D

 38 40  0  0  1  0  0  0  0  0999 V2000
  161.6270  207.6590  149.0590 C   0  0  0  0  0  0  0  0  0  0  0  0
  161.1760  205.2670  149.3130 C   0  0  0  0  0  0  0  0  0  0  0  0
  160.2190  203.0220  149.4600 O   0  0  0  0  0  1  0  0  0  0  0  0
  162.0530  206.1470  147.2180 C   0  0  0  0  0  3  0  0  0  0  0  0
  161.1430  206.0350  152.3670 C   0  0  0  0  0  0  0  0  0  0  0  0
  161.7400  203.7150  147.3510 C   0  0  0  0  0  1  0  0  0  0  0  0
  160.5900  204.1660  150.1680 C   0  0  1  0  0  3  0  0  0  0  0  0
  162.0250  207.4360  147.7380 C   0  0  0  0  0  3  0  0  0  0  0  0
  160.9490  206.8430  151.3080 C   0  0  0  0  0  3  0  0  0  0  0  0
  161.2440  206.5680  149.8750 C   0  0  0  0  0  0  0  0  0  0  0  0
  161.6420  205.0600  147.9880 C   0  0  0  0  0  0  0  0  0  0  0  0
  161.7200  204.6790  152.2820 C   0  0  0  0  0  3  0  0  0  0  0  0
  161.5030  203.8240  151.2860 C   0  0  0  0  0  3  0  0  0  0  0  0
  161.2110  207.7470  154.1540 C   0  0  0  0  0  3  0  0  0  0  0  0
  160.8780  206.5260  153.7280 C   0  0  0  0  0  3  0  0  0  0  0  0
  160.3350  207.4360  156.3010 O   0  0  0  0  0  0  0  0  0  0  0  0
  160.9300  208.2250  155.5190 C   0  0  0  0  0  0  0  0  0  0  0  0
  160.8580  211.9440  156.6160 C   0  0  0  0  0  1  0  0  0  0  0  0
  160.4390  210.7000  155.9780 N   0  0  0  0  0  0  0  0  0  0  0  0
  161.3350  209.5730  156.0000 C   0  0  0  0  0  0  0  0  0  0  0  0
  162.5000  209.7300  156.4600 O   0  0  0  0  0  0  0  0  0  0  0  0
  159.1710  210.6490  155.2480 C   0  0  0  0  0  2  0  0  0  0  0  0
  159.1290  211.6000  154.2260 O   0  0  0  0  0  1  0  0  0  0  0  0
  161.5800  209.0700  149.5840 C   0  0  1  0  0  3  0  0  0  0  0  0
  162.5380  209.2720  150.7480 C   0  0  0  0  0  1  0  0  0  0  0  0
  161.8970  210.0070  148.5170 N   0  0  0  0  0  2  0  0  0  0  0  0
  160.8660  211.5890  150.0550 C   0  0  0  0  0  1  0  0  0  0  0  0
  162.0250  211.3330  149.1040 C   0  0  2  0  0  3  0  0  0  0  0  0
  161.1050  214.4530  148.2700 N   0  0  0  0  0  2  0  0  0  0  0  0
  163.3700  214.3570  147.8810 C   0  0  0  0  0  1  0  0  0  0  0  0
  162.2700  213.7370  148.6000 N   0  0  0  0  0  0  0  0  0  0  0  0
  160.1320  211.3550  146.5310 C   0  0  0  0  0  1  0  0  0  0  0  0
  162.0550  212.4030  148.0130 C   0  0  2  0  0  3  0  0  0  0  0  0
  160.2140  213.6690  147.5070 C   0  0  0  0  0  0  0  0  0  0  0  0
  160.7330  212.4740  147.3140 C   0  0  0  0  0  0  0  0  0  0  0  0
  158.7030  214.3750  145.8280 O   0  0  0  0  0  0  0  0  0  0  0  0
  157.8590  214.4400  147.9820 N   0  0  0  0  0  1  0  0  0  0  0  0
  158.9020  214.1680  147.0550 C   0  0  0  0  0  0  0  0  0  0  0  0
  1 24  1  0  0  0  0
  1 10  1  0  0  0  0
  2 10  2  0  0  0  0
  2  7  1  0  0  0  0
  4  8  1  0  0  0  0
  4 11  2  0  0  0  0
  5 15  1  0  0  0  0
  6 11  1  0  0  0  0
  7  3  1  6  0  0  0
  7 13  1  0  0  0  0
  8  1  2  0  0  0  0
  9  5  2  0  0  0  0
 10  9  1  0  0  0  0
 11  2  1  0  0  0  0
 12  5  1  0  0  0  0
 13 12  2  0  0  0  0
 14 17  1  0  0  0  0
 15 14  2  0  0  0  0
 17 20  1  0  0  0  0
 17 16  2  0  0  0  0
 19 20  1  0  0  0  0
 19 18  1  0  0  0  0
 20 21  2  0  0  0  0
 22 19  1  0  0  0  0
 23 22  1  0  0  0  0
 24 25  1  1  0  0  0
 26 28  1  0  0  0  0
 26 24  1  0  0  0  0
 28 27  1  1  0  0  0
 29 31  1  0  0  0  0
 30 31  1  0  0  0  0
 32 35  1  0  0  0  0
 33 31  1  0  0  0  0
 33 28  1  1  0  0  0
 34 29  1  0  0  0  0
 35 34  2  0  0  0  0
 35 33  1  0  0  0  0
 36 38  2  0  0  0  0
 38 34  1  0  0  0  0
 38 37  1  0  0  0  0
M  END
>  <MODEL>
7

>  <REMARK>
 VINA RESULT:      -6.8      2.709      6.833
  Name = 
  9 active torsions:
  status: ('A' for Active; 'I' for Inactive)
    1  A    between atoms: C_2  and  C_26
    2  A    between atoms: C_3  and  C_4
    3  A    between atoms: C_3  and  N_34
    4  A    between atoms: C_7  and  N_11
    5  A    between atoms: C_19  and  C_20
    6  A    between atoms: C_21  and  C_26
    7  A    between atoms: C_23  and  C_37
    8  A    between atoms: N_34  and  C_37
    9  A    between atoms: C_35  and  C_36
                            x       y       z     vdW  Elec       q    Type
                         _______ _______ _______ _____ _____    ______ ____

>  <TORSDO>
F 9

$$$$
=
 OpenBabel11052409413D

 38 40  0  0  1  0  0  0  0  0999 V2000
  161.3460  207.8550  153.2930 C   0  0  0  0  0  0  0  0  0  0  0  0
  159.9570  209.3820  154.6070 C   0  0  0  0  0  0  0  0  0  0  0  0
  158.1630  210.6280  155.7070 O   0  0  0  0  0  1  0  0  0  0  0  0
  160.9800  207.4320  155.6480 C   0  0  0  0  0  3  0  0  0  0  0  0
  160.4490  211.2720  152.1360 C   0  0  0  0  0  0  0  0  0  0  0  0
  159.6930  208.9190  157.1160 C   0  0  0  0  0  1  0  0  0  0  0  0
  159.0230  210.5710  154.6090 C   0  0  1  0  0  3  0  0  0  0  0  0
  161.5270  207.0560  154.4250 C   0  0  0  0  0  3  0  0  0  0  0  0
  160.5400  209.9290  152.1830 C   0  0  0  0  0  3  0  0  0  0  0  0
  160.5980  209.0520  153.3850 C   0  0  0  0  0  0  0  0  0  0  0  0
  160.2060  208.5850  155.7560 C   0  0  0  0  0  0  0  0  0  0  0  0
  160.4010  212.1420  153.3270 C   0  0  0  0  0  3  0  0  0  0  0  0
  159.7830  211.8380  154.4650 C   0  0  0  0  0  3  0  0  0  0  0  0
  159.9010  213.1370  150.6050 C   0  0  0  0  0  3  0  0  0  0  0  0
  160.5030  211.9700  150.8430 C   0  0  0  0  0  3  0  0  0  0  0  0
  158.9490  214.4530  148.9210 O   0  0  0  0  0  0  0  0  0  0  0  0
  159.9730  213.8270  149.3040 C   0  0  0  0  0  0  0  0  0  0  0  0
  162.4300  213.3210  146.3460 C   0  0  0  0  0  1  0  0  0  0  0  0
  161.2520  213.1420  147.1890 N   0  0  0  0  0  0  0  0  0  0  0  0
  161.1950  213.8220  148.4570 C   0  0  0  0  0  0  0  0  0  0  0  0
  162.2140  214.4520  148.8550 O   0  0  0  0  0  0  0  0  0  0  0  0
  160.2020  212.2050  146.7820 C   0  0  0  0  0  2  0  0  0  0  0  0
  159.9920  212.2390  145.4020 O   0  0  0  0  0  1  0  0  0  0  0  0
  161.9250  207.4060  151.9770 C   0  0  1  0  0  3  0  0  0  0  0  0
  162.7340  206.1270  152.1230 C   0  0  0  0  0  1  0  0  0  0  0  0
  160.8580  207.2050  151.0080 N   0  0  0  0  0  2  0  0  0  0  0  0
  161.4640  207.9300  148.7640 C   0  0  0  0  0  1  0  0  0  0  0  0
  161.4610  206.7760  149.7540 C   0  0  2  0  0  3  0  0  0  0  0  0
  161.7190  203.6430  148.5730 N   0  0  0  0  0  2  0  0  0  0  0  0
  160.1020  203.5510  150.2060 C   0  0  0  0  0  1  0  0  0  0  0  0
  161.2290  204.3190  149.7060 N   0  0  0  0  0  0  0  0  0  0  0  0
  160.4530  206.5710  146.7300 C   0  0  0  0  0  1  0  0  0  0  0  0
  160.6990  205.5860  149.1720 C   0  0  2  0  0  3  0  0  0  0  0  0
  161.5030  204.3870  147.3930 C   0  0  0  0  0  0  0  0  0  0  0  0
  160.8930  205.5160  147.6890 C   0  0  0  0  0  0  0  0  0  0  0  0
  163.0140  204.3780  145.5710 O   0  0  0  0  0  0  0  0  0  0  0  0
  161.1890  202.9750  145.3250 N   0  0  0  0  0  1  0  0  0  0  0  0
  161.9490  203.9210  146.0670 C   0  0  0  0  0  0  0  0  0  0  0  0
  1 10  2  0  0  0  0
  1  8  1  0  0  0  0
  2  7  1  0  0  0  0
  2 11  2  0  0  0  0
  4 11  1  0  0  0  0
  5  9  2  0  0  0  0
  5 12  1  0  0  0  0
  7  3  1  1  0  0  0
  8  4  2  0  0  0  0
  9 10  1  0  0  0  0
 10  2  1  0  0  0  0
 11  6  1  0  0  0  0
 12 13  2  0  0  0  0
 13  7  1  0  0  0  0
 14 15  2  0  0  0  0
 15  5  1  0  0  0  0
 16 17  2  0  0  0  0
 17 14  1  0  0  0  0
 18 19  1  0  0  0  0
 19 20  1  0  0  0  0
 20 21  2  0  0  0  0
 20 17  1  0  0  0  0
 22 19  1  0  0  0  0
 23 22  1  0  0  0  0
 24 25  1  1  0  0  0
 24  1  1  0  0  0  0
 26 24  1  0  0  0  0
 28 27  1  6  0  0  0
 28 26  1  0  0  0  0
 29 31  1  0  0  0  0
 31 30  1  0  0  0  0
 32 35  1  0  0  0  0
 33 31  1  0  0  0  0
 33 28  1  1  0  0  0
 34 35  2  0  0  0  0
 34 29  1  0  0  0  0
 35 33  1  0  0  0  0
 36 38  2  0  0  0  0
 37 38  1  0  0  0  0
 38 34  1  0  0  0  0
M  END
>  <MODEL>
8

>  <REMARK>
 VINA RESULT:      -6.8      2.524      7.603
  Name = 
  9 active torsions:
  status: ('A' for Active; 'I' for Inactive)
    1  A    between atoms: C_2  and  C_26
    2  A    between atoms: C_3  and  C_4
    3  A    between atoms: C_3  and  N_34
    4  A    between atoms: C_7  and  N_11
    5  A    between atoms: C_19  and  C_20
    6  A    between atoms: C_21  and  C_26
    7  A    between atoms: C_23  and  C_37
    8  A    between atoms: N_34  and  C_37
    9  A    between atoms: C_35  and  C_36
                            x       y       z     vdW  Elec       q    Type
                         _______ _______ _______ _____ _____    ______ ____

>  <TORSDO>
F 9

$$$$
=
 OpenBabel11052409413D

 38 40  0  0  1  0  0  0  0  0999 V2000
  161.3070  206.3680  152.5070 C   0  0  0  0  0  0  0  0  0  0  0  0
  160.7940  208.4210  153.7360 C   0  0  0  0  0  0  0  0  0  0  0  0
  159.7810  210.3790  154.7920 O   0  0  0  0  0  1  0  0  0  0  0  0
  160.9770  206.2910  154.9040 C   0  0  0  0  0  3  0  0  0  0  0  0
  161.8470  209.7600  151.0860 C   0  0  0  0  0  0  0  0  0  0  0  0
  160.5510  208.2760  156.2850 C   0  0  0  0  0  1  0  0  0  0  0  0
  160.4510  209.8920  153.6700 C   0  0  1  0  0  3  0  0  0  0  0  0
  161.2200  205.6410  153.6980 C   0  0  0  0  0  3  0  0  0  0  0  0
  161.3670  208.5120  151.2500 C   0  0  0  0  0  3  0  0  0  0  0  0
  161.1420  207.7730  152.5230 C   0  0  0  0  0  0  0  0  0  0  0  0
  160.7710  207.6690  154.9400 C   0  0  0  0  0  0  0  0  0  0  0  0
  162.2600  210.6420  152.1950 C   0  0  0  0  0  3  0  0  0  0  0  0
  161.6590  210.7030  153.3810 C   0  0  0  0  0  3  0  0  0  0  0  0
  161.9550  211.5700  149.4020 C   0  0  0  0  0  3  0  0  0  0  0  0
  162.0910  210.2840  149.7350 C   0  0  0  0  0  3  0  0  0  0  0  0
  163.4140  212.1930  147.6830 O   0  0  0  0  0  0  0  0  0  0  0  0
  162.2120  212.0800  148.0440 C   0  0  0  0  0  0  0  0  0  0  0  0
  160.2700  213.1960  144.8770 C   0  0  0  0  0  1  0  0  0  0  0  0
  161.3800  213.0240  145.8080 N   0  0  0  0  0  0  0  0  0  0  0  0
  161.1210  212.4390  147.0980 C   0  0  0  0  0  0  0  0  0  0  0  0
  159.9260  212.2040  147.4310 O   0  0  0  0  0  0  0  0  0  0  0  0
  162.7070  213.5360  145.4590 C   0  0  0  0  0  2  0  0  0  0  0  0
  163.1890  212.9540  144.2850 O   0  0  0  0  0  1  0  0  0  0  0  0
  161.5420  205.6320  151.2140 C   0  0  1  0  0  3  0  0  0  0  0  0
  161.9240  204.1800  151.4520 C   0  0  0  0  0  1  0  0  0  0  0  0
  160.3490  205.6970  150.3830 N   0  0  0  0  0  2  0  0  0  0  0  0
  160.8320  203.3590  149.9020 C   0  0  0  0  0  1  0  0  0  0  0  0
  160.4900  204.7190  149.3130 C   0  0  2  0  0  3  0  0  0  0  0  0
  161.1680  206.5550  146.5840 N   0  0  0  0  0  2  0  0  0  0  0  0
  162.6980  207.2210  148.1670 C   0  0  0  0  0  1  0  0  0  0  0  0
  161.4130  206.5720  147.9690 N   0  0  0  0  0  0  0  0  0  0  0  0
  161.5990  202.9120  146.9240 C   0  0  0  0  0  1  0  0  0  0  0  0
  161.5750  205.1530  148.3280 C   0  0  2  0  0  3  0  0  0  0  0  0
  161.1960  205.2400  146.0710 C   0  0  0  0  0  0  0  0  0  0  0  0
  161.4500  204.3910  147.0450 C   0  0  0  0  0  0  0  0  0  0  0  0
  161.5860  205.5440  143.7560 O   0  0  0  0  0  0  0  0  0  0  0  0
  159.9600  203.9790  144.2680 N   0  0  0  0  0  1  0  0  0  0  0  0
  160.9390  204.9360  144.6510 C   0  0  0  0  0  0  0  0  0  0  0  0
  1 10  2  0  0  0  0
  1  8  1  0  0  0  0
  2 11  2  0  0  0  0
  4 11  1  0  0  0  0
  5  9  2  0  0  0  0
  5 12  1  0  0  0  0
  7  2  1  0  0  0  0
  7  3  1  1  0  0  0
  8  4  2  0  0  0  0
  9 10  1  0  0  0  0
 10  2  1  0  0  0  0
 11  6  1  0  0  0  0
 12 13  2  0  0  0  0
 13  7  1  0  0  0  0
 14 15  2  0  0  0  0
 15  5  1  0  0  0  0
 16 17  2  0  0  0  0
 17 14  1  0  0  0  0
 18 19  1  0  0  0  0
 19 20  1  0  0  0  0
 20 21  2  0  0  0  0
 20 17  1  0  0  0  0
 22 19  1  0  0  0  0
 23 22  1  0  0  0  0
 24 25  1  1  0  0  0
 24  1  1  0  0  0  0
 26 24  1  0  0  0  0
 28 27  1  1  0  0  0
 28 26  1  0  0  0  0
 29 31  1  0  0  0  0
 31 30  1  0  0  0  0
 31 33  1  0  0  0  0
 32 35  1  0  0  0  0
 33 28  1  1  0  0  0
 34 29  1  0  0  0  0
 34 35  2  0  0  0  0
 35 33  1  0  0  0  0
 36 38  2  0  0  0  0
 37 38  1  0  0  0  0
 38 34  1  0  0  0  0
M  END
>  <MODEL>
9

>  <REMARK>
 VINA RESULT:      -6.7      2.352      6.980
  Name = 
  9 active torsions:
  status: ('A' for Active; 'I' for Inactive)
    1  A    between atoms: C_2  and  C_26
    2  A    between atoms: C_3  and  C_4
    3  A    between atoms: C_3  and  N_34
    4  A    between atoms: C_7  and  N_11
    5  A    between atoms: C_19  and  C_20
    6  A    between atoms: C_21  and  C_26
    7  A    between atoms: C_23  and  C_37
    8  A    between atoms: N_34  and  C_37
    9  A    between atoms: C_35  and  C_36
                            x       y       z     vdW  Elec       q    Type
                         _______ _______ _______ _____ _____    ______ ____

>  <TORSDO>
F 9

$$$$
