=
 OpenBabel11052411073D

 34 36  0  0  1  0  0  0  0  0999 V2000
  161.6110  209.1040  149.8120 C   0  0  2  0  0  3  0  0  0  0  0  0
  161.7800  209.8680  151.4510 S   0  0  0  0  0  0  0  0  0  0  0  0
  162.2260  207.7180  149.8600 C   0  0  1  0  0  3  0  0  0  0  0  0
  161.9400  207.1290  151.2290 C   0  0  1  0  0  3  0  0  0  0  0  0
  163.0030  206.1100  151.5940 C   0  0  0  0  0  1  0  0  0  0  0  0
  161.9130  208.2450  152.2660 C   0  0  2  0  0  3  0  0  0  0  0  0
  161.7060  206.8390  148.7570 C   0  0  0  0  0  0  0  0  0  0  0  0
  162.4590  206.7290  147.6550 C   0  0  0  0  0  3  0  0  0  0  0  0
  162.1600  205.9250  146.4560 C   0  0  0  0  0  0  0  0  0  0  0  0
  163.0800  204.9160  146.0590 N   0  0  0  0  0  1  0  0  0  0  0  0
  161.1170  206.1120  145.7770 O   0  0  0  0  0  0  0  0  0  0  0  0
  160.4110  206.0910  148.9250 C   0  0  0  0  0  2  0  0  0  0  0  0
  160.5820  204.2860  150.6640 C   0  0  0  0  0  3  0  0  0  0  0  0
  160.6420  204.6690  149.3180 C   0  0  0  0  0  0  0  0  0  0  0  0
  161.0190  201.9890  150.0320 C   0  0  0  0  0  0  0  0  0  0  0  0
  161.0800  202.3710  148.6890 C   0  0  0  0  0  3  0  0  0  0  0  0
  160.7710  202.9480  151.0200 C   0  0  0  0  0  3  0  0  0  0  0  0
  161.2000  200.6920  150.3760 F   0  0  0  0  0  0  0  0  0  0  0  0
  160.8910  203.7090  148.3320 C   0  0  0  0  0  3  0  0  0  0  0  0
  160.7340  208.0650  153.2130 C   0  0  0  0  0  2  0  0  0  0  0  0
  161.1000  207.2030  154.4140 C   0  0  0  0  0  2  0  0  0  0  0  0
  160.0530  207.3010  155.5150 C   0  0  0  0  0  2  0  0  0  0  0  0
  162.0100  208.3090  156.5570 N   0  0  0  0  0  2  0  0  0  0  0  0
  160.6120  207.9910  156.7530 C   0  0  1  0  0  3  0  0  0  0  0  0
  160.2210  209.3700  156.7580 C   0  0  0  0  0  2  0  0  0  0  0  0
  162.2960  210.8170  156.4740 O   0  0  0  0  0  0  0  0  0  0  0  0
  161.6570  209.7390  156.5750 C   0  0  0  0  0  0  0  0  0  0  0  0
  162.2050  209.9350  148.7640 N   0  0  0  0  0  2  0  0  0  0  0  0
  162.2210  211.2730  149.1920 N   0  0  0  0  0  2  0  0  0  0  0  0
  161.6050  212.0540  148.1360 C   0  0  0  0  0  2  0  0  0  0  0  0
  162.5860  212.7970  147.4780 O   0  0  0  0  0  0  0  0  0  0  0  0
  162.7350  213.1740  145.2350 O   0  0  0  0  0  1  0  0  0  0  0  0
  161.9370  213.3380  146.3670 C   0  0  1  0  0  3  0  0  0  0  0  0
  160.6150  212.6270  146.1570 C   0  0  0  0  0  1  0  0  0  0  0  0
  1 28  1  6  0  0  0
  1  3  1  0  0  0  0
  1  2  1  0  0  0  0
  2  6  1  0  0  0  0
  3  7  1  6  0  0  0
  3  4  1  0  0  0  0
  4  5  1  1  0  0  0
  4  6  1  0  0  0  0
  6 20  1  1  0  0  0
  7 12  1  0  0  0  0
  8  7  2  0  0  0  0
  9  8  1  0  0  0  0
 10  9  1  0  0  0  0
 11  9  2  0  0  0  0
 12 14  1  0  0  0  0
 13 17  1  0  0  0  0
 14 13  2  0  0  0  0
 15 18  1  0  0  0  0
 15 17  2  0  0  0  0
 16 15  1  0  0  0  0
 19 16  2  0  0  0  0
 19 14  1  0  0  0  0
 20 21  1  0  0  0  0
 21 22  1  0  0  0  0
 23 27  1  0  0  0  0
 23 24  1  0  0  0  0
 24 22  1  6  0  0  0
 24 25  1  0  0  0  0
 26 27  2  0  0  0  0
 27 25  1  0  0  0  0
 28 29  1  0  0  0  0
 30 29  1  0  0  0  0
 31 30  1  0  0  0  0
 32 33  1  0  0  0  0
 33 34  1  6  0  0  0
 33 31  1  0  0  0  0
M  END
>  <MODEL>
1

>  <REMARK>
 VINA RESULT:      -8.2      0.000      0.000
  Name = 
  13 active torsions:
  status: ('A' for Active; 'I' for Inactive)
    1  A    between atoms: C_2  and  C_21
    2  A    between atoms: C_2  and  C_34
    3  A    between atoms: C_3  and  C_19
    4  A    between atoms: C_3  and  C_30
    5  A    between atoms: C_4  and  C_30
    6  A    between atoms: C_5  and  C_28
    7  A    between atoms: C_6  and  N_9
    8  A    between atoms: N_9  and  N_29
    9  A    between atoms: C_12  and  C_18
   10  A    between atoms: C_15  and  O_25
   11  A    between atoms: C_18  and  C_21
   12  A    between atoms: O_25  and  C_26
   13  A    between atoms: C_26  and  N_29
                            x       y       z     vdW  Elec       q    Type
                         _______ _______ _______ _____ _____    ______ ____

>  <TORSDO>
F 13

$$$$
=
 OpenBabel11052411073D

 34 36  0  0  1  0  0  0  0  0999 V2000
  161.6360  209.1190  150.0320 C   0  0  2  0  0  3  0  0  0  0  0  0
  161.8130  209.8470  151.6860 S   0  0  0  0  0  0  0  0  0  0  0  0
  162.2190  207.7190  150.0550 C   0  0  1  0  0  3  0  0  0  0  0  0
  161.9110  207.1100  151.4100 C   0  0  1  0  0  3  0  0  0  0  0  0
  162.9480  206.0600  151.7600 C   0  0  0  0  0  1  0  0  0  0  0  0
  161.9040  208.2050  152.4690 C   0  0  2  0  0  3  0  0  0  0  0  0
  161.6850  206.8740  148.9320 C   0  0  0  0  0  0  0  0  0  0  0  0
  162.4300  206.7880  147.8230 C   0  0  0  0  0  3  0  0  0  0  0  0
  162.1180  206.0180  146.6050 C   0  0  0  0  0  0  0  0  0  0  0  0
  160.9020  206.2840  145.9170 N   0  0  0  0  0  1  0  0  0  0  0  0
  162.8960  205.1330  146.1630 O   0  0  0  0  0  0  0  0  0  0  0  0
  160.3840  206.1330  149.0870 C   0  0  0  0  0  2  0  0  0  0  0  0
  160.8760  203.7700  148.3900 C   0  0  0  0  0  3  0  0  0  0  0  0
  160.6050  204.6920  149.4080 C   0  0  0  0  0  0  0  0  0  0  0  0
  161.0760  202.0050  150.0370 C   0  0  0  0  0  0  0  0  0  0  0  0
  160.8040  202.9240  151.0540 C   0  0  0  0  0  3  0  0  0  0  0  0
  161.1100  202.4280  148.7040 C   0  0  0  0  0  3  0  0  0  0  0  0
  161.3040  200.7060  150.3420 F   0  0  0  0  0  0  0  0  0  0  0  0
  160.5690  204.2660  150.7400 C   0  0  0  0  0  3  0  0  0  0  0  0
  160.7160  208.0340  153.4060 C   0  0  0  0  0  2  0  0  0  0  0  0
  161.1170  208.2020  154.8650 C   0  0  0  0  0  2  0  0  0  0  0  0
  159.9310  208.6050  155.7310 C   0  0  0  0  0  2  0  0  0  0  0  0
  161.0260  210.7520  155.3760 N   0  0  0  0  0  2  0  0  0  0  0  0
  160.0350  210.0600  156.1720 C   0  0  1  0  0  3  0  0  0  0  0  0
  158.9500  210.8140  155.6160 C   0  0  0  0  0  2  0  0  0  0  0  0
  159.8840  212.4960  153.9490 O   0  0  0  0  0  0  0  0  0  0  0  0
  159.9440  211.5650  154.7920 C   0  0  0  0  0  0  0  0  0  0  0  0
  162.2550  209.9570  149.0030 N   0  0  0  0  0  2  0  0  0  0  0  0
  161.9950  211.3070  149.2930 N   0  0  0  0  0  2  0  0  0  0  0  0
  162.1080  212.0300  148.0400 C   0  0  0  0  0  2  0  0  0  0  0  0
  160.8320  212.3470  147.5720 O   0  0  0  0  0  0  0  0  0  0  0  0
  162.3900  213.3240  146.2260 O   0  0  0  0  0  1  0  0  0  0  0  0
  161.0440  213.3130  146.5880 C   0  0  1  0  0  3  0  0  0  0  0  0
  160.1990  212.9910  145.3720 C   0  0  0  0  0  1  0  0  0  0  0  0
  1 28  1  6  0  0  0
  1  3  1  0  0  0  0
  1  2  1  0  0  0  0
  2  6  1  0  0  0  0
  3  7  1  6  0  0  0
  3  4  1  0  0  0  0
  4  5  1  1  0  0  0
  4  6  1  0  0  0  0
  6 20  1  1  0  0  0
  7 12  1  0  0  0  0
  8  7  2  0  0  0  0
  9  8  1  0  0  0  0
 10  9  1  0  0  0  0
 11  9  2  0  0  0  0
 12 14  1  0  0  0  0
 13 17  2  0  0  0  0
 13 14  1  0  0  0  0
 14 19  2  0  0  0  0
 15 18  1  0  0  0  0
 15 16  2  0  0  0  0
 17 15  1  0  0  0  0
 19 16  1  0  0  0  0
 20 21  1  0  0  0  0
 21 22  1  0  0  0  0
 23 24  1  0  0  0  0
 24 22  1  6  0  0  0
 25 24  1  0  0  0  0
 26 27  2  0  0  0  0
 27 23  1  0  0  0  0
 27 25  1  0  0  0  0
 28 29  1  0  0  0  0
 30 29  1  0  0  0  0
 31 30  1  0  0  0  0
 32 33  1  0  0  0  0
 33 34  1  6  0  0  0
 33 31  1  0  0  0  0
M  END
>  <MODEL>
2

>  <REMARK>
 VINA RESULT:      -7.7      1.315      1.600
  Name = 
  13 active torsions:
  status: ('A' for Active; 'I' for Inactive)
    1  A    between atoms: C_2  and  C_21
    2  A    between atoms: C_2  and  C_34
    3  A    between atoms: C_3  and  C_19
    4  A    between atoms: C_3  and  C_30
    5  A    between atoms: C_4  and  C_30
    6  A    between atoms: C_5  and  C_28
    7  A    between atoms: C_6  and  N_9
    8  A    between atoms: N_9  and  N_29
    9  A    between atoms: C_12  and  C_18
   10  A    between atoms: C_15  and  O_25
   11  A    between atoms: C_18  and  C_21
   12  A    between atoms: O_25  and  C_26
   13  A    between atoms: C_26  and  N_29
                            x       y       z     vdW  Elec       q    Type
                         _______ _______ _______ _____ _____    ______ ____

>  <TORSDO>
F 13

$$$$
=
 OpenBabel11052411073D

 34 36  0  0  1  0  0  0  0  0999 V2000
  161.5610  208.0950  150.3770 C   0  0  2  0  0  3  0  0  0  0  0  0
  161.8350  209.1520  151.8280 S   0  0  0  0  0  0  0  0  0  0  0  0
  161.7890  206.6510  150.7810 C   0  0  1  0  0  3  0  0  0  0  0  0
  161.2850  206.4810  152.2020 C   0  0  1  0  0  3  0  0  0  0  0  0
  162.0230  205.3470  152.8870 C   0  0  0  0  0  1  0  0  0  0  0  0
  161.4940  207.7780  152.9740 C   0  0  2  0  0  3  0  0  0  0  0  0
  161.1180  205.6950  149.8350 C   0  0  0  0  0  0  0  0  0  0  0  0
  161.3790  204.3910  149.9940 C   0  0  0  0  0  3  0  0  0  0  0  0
  160.8350  203.2770  149.1970 C   0  0  0  0  0  0  0  0  0  0  0  0
  161.4660  202.9380  147.9680 N   0  0  0  0  0  1  0  0  0  0  0  0
  159.8270  202.6240  149.5730 O   0  0  0  0  0  0  0  0  0  0  0  0
  160.1650  206.2030  148.7860 C   0  0  0  0  0  2  0  0  0  0  0  0
  162.1030  205.9050  147.2160 C   0  0  0  0  0  3  0  0  0  0  0  0
  160.7230  206.0480  147.4110 C   0  0  0  0  0  0  0  0  0  0  0  0
  161.7470  205.7000  144.8290 C   0  0  0  0  0  0  0  0  0  0  0  0
  160.3700  205.8450  145.0220 C   0  0  0  0  0  3  0  0  0  0  0  0
  162.6130  205.7320  145.9260 C   0  0  0  0  0  3  0  0  0  0  0  0
  162.2410  205.5310  143.5800 F   0  0  0  0  0  0  0  0  0  0  0  0
  159.8590  206.0180  146.3120 C   0  0  0  0  0  3  0  0  0  0  0  0
  160.2600  208.1120  153.8000 C   0  0  0  0  0  2  0  0  0  0  0  0
  160.4690  207.8100  155.2780 C   0  0  0  0  0  2  0  0  0  0  0  0
  160.3600  209.0670  156.1290 C   0  0  0  0  0  2  0  0  0  0  0  0
  159.2470  211.2040  155.7660 N   0  0  0  0  0  2  0  0  0  0  0  0
  160.2740  210.3170  155.2620 C   0  0  1  0  0  3  0  0  0  0  0  0
  161.3310  211.2210  155.6090 C   0  0  0  0  0  2  0  0  0  0  0  0
  160.3190  213.3160  156.6430 O   0  0  0  0  0  0  0  0  0  0  0  0
  160.2990  212.1720  156.1220 C   0  0  0  0  0  0  0  0  0  0  0  0
  162.4090  208.4930  149.2510 N   0  0  0  0  0  2  0  0  0  0  0  0
  161.6790  209.3440  148.4060 N   0  0  0  0  0  2  0  0  0  0  0  0
  162.1700  210.6880  148.6440 C   0  0  0  0  0  2  0  0  0  0  0  0
  161.4750  211.5870  147.8330 O   0  0  0  0  0  0  0  0  0  0  0  0
  163.6160  212.3580  147.9440 O   0  0  0  0  0  1  0  0  0  0  0  0
  162.2800  212.7260  147.7920 C   0  0  1  0  0  3  0  0  0  0  0  0
  162.0990  213.4260  146.4600 C   0  0  0  0  0  1  0  0  0  0  0  0
  1 28  1  6  0  0  0
  1  3  1  0  0  0  0
  1  2  1  0  0  0  0
  2  6  1  0  0  0  0
  3  7  1  6  0  0  0
  3  4  1  0  0  0  0
  4  5  1  1  0  0  0
  4  6  1  0  0  0  0
  6 20  1  6  0  0  0
  7  8  2  0  0  0  0
  9 11  2  0  0  0  0
  9  8  1  0  0  0  0
 10  9  1  0  0  0  0
 12  7  1  0  0  0  0
 13 14  1  0  0  0  0
 14 12  1  0  0  0  0
 15 16  2  0  0  0  0
 15 17  1  0  0  0  0
 16 19  1  0  0  0  0
 17 13  2  0  0  0  0
 18 15  1  0  0  0  0
 19 14  2  0  0  0  0
 20 21  1  0  0  0  0
 21 22  1  0  0  0  0
 23 27  1  0  0  0  0
 24 25  1  0  0  0  0
 24 23  1  0  0  0  0
 24 22  1  1  0  0  0
 25 27  1  0  0  0  0
 27 26  2  0  0  0  0
 29 30  1  0  0  0  0
 29 28  1  0  0  0  0
 31 30  1  0  0  0  0
 33 34  1  6  0  0  0
 33 31  1  0  0  0  0
 33 32  1  0  0  0  0
M  END
>  <MODEL>
3

>  <REMARK>
 VINA RESULT:      -6.6      2.370      3.292
  Name = 
  13 active torsions:
  status: ('A' for Active; 'I' for Inactive)
    1  A    between atoms: C_2  and  C_21
    2  A    between atoms: C_2  and  C_34
    3  A    between atoms: C_3  and  C_19
    4  A    between atoms: C_3  and  C_30
    5  A    between atoms: C_4  and  C_30
    6  A    between atoms: C_5  and  C_28
    7  A    between atoms: C_6  and  N_9
    8  A    between atoms: N_9  and  N_29
    9  A    between atoms: C_12  and  C_18
   10  A    between atoms: C_15  and  O_25
   11  A    between atoms: C_18  and  C_21
   12  A    between atoms: O_25  and  C_26
   13  A    between atoms: C_26  and  N_29
                            x       y       z     vdW  Elec       q    Type
                         _______ _______ _______ _____ _____    ______ ____

>  <TORSDO>
F 13

$$$$
=
 OpenBabel11052411073D

 34 36  0  0  1  0  0  0  0  0999 V2000
  161.6980  205.9240  151.1300 C   0  0  2  0  0  3  0  0  0  0  0  0
  161.7210  207.7370  151.2230 S   0  0  0  0  0  0  0  0  0  0  0  0
  160.7960  205.5090  149.9830 C   0  0  1  0  0  3  0  0  0  0  0  0
  160.9640  206.5260  148.8690 C   0  0  1  0  0  3  0  0  0  0  0  0
  159.7100  206.5850  148.0190 C   0  0  0  0  0  1  0  0  0  0  0  0
  161.2480  207.8970  149.4710 C   0  0  2  0  0  3  0  0  0  0  0  0
  161.0970  204.1140  149.5130 C   0  0  0  0  0  0  0  0  0  0  0  0
  160.2380  203.1500  149.8650 C   0  0  0  0  0  3  0  0  0  0  0  0
  160.3210  201.7200  149.5170 C   0  0  0  0  0  0  0  0  0  0  0  0
  161.1620  200.8720  150.2890 N   0  0  0  0  0  1  0  0  0  0  0  0
  159.6730  201.2340  148.5540 O   0  0  0  0  0  0  0  0  0  0  0  0
  162.2990  203.8440  148.6470 C   0  0  0  0  0  2  0  0  0  0  0  0
  161.1570  203.4590  146.4430 C   0  0  0  0  0  3  0  0  0  0  0  0
  162.0460  204.2100  147.2220 C   0  0  0  0  0  0  0  0  0  0  0  0
  161.5390  204.9460  144.5690 C   0  0  0  0  0  0  0  0  0  0  0  0
  162.4280  205.6950  145.3450 C   0  0  0  0  0  3  0  0  0  0  0  0
  160.9050  203.8270  145.1180 C   0  0  0  0  0  3  0  0  0  0  0  0
  161.2930  205.3030  143.2860 F   0  0  0  0  0  0  0  0  0  0  0  0
  162.6810  205.3270  146.6700 C   0  0  0  0  0  3  0  0  0  0  0  0
  162.3710  208.5910  148.7130 C   0  0  0  0  0  2  0  0  0  0  0  0
  161.9380  209.9500  148.1790 C   0  0  0  0  0  2  0  0  0  0  0  0
  162.1960  211.0580  149.1900 C   0  0  0  0  0  2  0  0  0  0  0  0
  162.9190  213.0970  148.0700 N   0  0  0  0  0  2  0  0  0  0  0  0
  161.7770  212.4170  148.6420 C   0  0  1  0  0  3  0  0  0  0  0  0
  161.1410  212.2510  147.3690 C   0  0  0  0  0  2  0  0  0  0  0  0
  162.6030  213.3090  145.5730 O   0  0  0  0  0  0  0  0  0  0  0  0
  162.2930  212.9660  146.7430 C   0  0  0  0  0  0  0  0  0  0  0  0
  161.2850  205.3230  152.4000 N   0  0  0  0  0  2  0  0  0  0  0  0
  161.8430  206.0590  153.4590 N   0  0  0  0  0  2  0  0  0  0  0  0
  160.7550  206.3700  154.3660 C   0  0  0  0  0  2  0  0  0  0  0  0
  160.6710  207.7530  154.5310 O   0  0  0  0  0  0  0  0  0  0  0  0
  160.6660  209.3030  156.2030 O   0  0  0  0  0  1  0  0  0  0  0  0
  160.9060  207.9650  155.8910 C   0  0  1  0  0  3  0  0  0  0  0  0
  159.9810  207.0850  156.7070 C   0  0  0  0  0  1  0  0  0  0  0  0
  1  2  1  0  0  0  0
  1 28  1  1  0  0  0
  3  7  1  6  0  0  0
  3  1  1  0  0  0  0
  4  5  1  1  0  0  0
  4  6  1  0  0  0  0
  4  3  1  0  0  0  0
  6 20  1  6  0  0  0
  6  2  1  0  0  0  0
  7  8  2  0  0  0  0
  9  8  1  0  0  0  0
  9 10  1  0  0  0  0
 11  9  2  0  0  0  0
 12  7  1  0  0  0  0
 13 14  1  0  0  0  0
 14 12  1  0  0  0  0
 15 17  1  0  0  0  0
 15 16  2  0  0  0  0
 16 19  1  0  0  0  0
 17 13  2  0  0  0  0
 18 15  1  0  0  0  0
 19 14  2  0  0  0  0
 21 20  1  0  0  0  0
 21 22  1  0  0  0  0
 23 24  1  0  0  0  0
 24 22  1  6  0  0  0
 25 24  1  0  0  0  0
 26 27  2  0  0  0  0
 27 25  1  0  0  0  0
 27 23  1  0  0  0  0
 28 29  1  0  0  0  0
 29 30  1  0  0  0  0
 30 31  1  0  0  0  0
 31 33  1  0  0  0  0
 33 32  1  0  0  0  0
 33 34  1  1  0  0  0
M  END
>  <MODEL>
4

>  <REMARK>
 VINA RESULT:      -6.6      2.765      7.037
  Name = 
  13 active torsions:
  status: ('A' for Active; 'I' for Inactive)
    1  A    between atoms: C_2  and  C_21
    2  A    between atoms: C_2  and  C_34
    3  A    between atoms: C_3  and  C_19
    4  A    between atoms: C_3  and  C_30
    5  A    between atoms: C_4  and  C_30
    6  A    between atoms: C_5  and  C_28
    7  A    between atoms: C_6  and  N_9
    8  A    between atoms: N_9  and  N_29
    9  A    between atoms: C_12  and  C_18
   10  A    between atoms: C_15  and  O_25
   11  A    between atoms: C_18  and  C_21
   12  A    between atoms: O_25  and  C_26
   13  A    between atoms: C_26  and  N_29
                            x       y       z     vdW  Elec       q    Type
                         _______ _______ _______ _____ _____    ______ ____

>  <TORSDO>
F 13

$$$$
=
 OpenBabel11052411073D

 34 36  0  0  1  0  0  0  0  0999 V2000
  161.6220  208.2230  150.3200 C   0  0  2  0  0  3  0  0  0  0  0  0
  161.9570  209.3170  151.7310 S   0  0  0  0  0  0  0  0  0  0  0  0
  161.8930  206.7920  150.7430 C   0  0  1  0  0  3  0  0  0  0  0  0
  161.4690  206.6470  152.1920 C   0  0  1  0  0  3  0  0  0  0  0  0
  162.2590  205.5390  152.8610 C   0  0  0  0  0  1  0  0  0  0  0  0
  161.7000  207.9640  152.9230 C   0  0  2  0  0  3  0  0  0  0  0  0
  161.1860  205.8060  149.8550 C   0  0  0  0  0  0  0  0  0  0  0  0
  161.4380  204.5070  150.0610 C   0  0  0  0  0  3  0  0  0  0  0  0
  160.8610  203.3670  149.3260 C   0  0  0  0  0  0  0  0  0  0  0  0
  161.4910  202.9320  148.1270 N   0  0  0  0  0  1  0  0  0  0  0  0
  159.8260  202.7750  149.7290 O   0  0  0  0  0  0  0  0  0  0  0  0
  160.2090  206.2810  148.8140 C   0  0  0  0  0  2  0  0  0  0  0  0
  159.8510  206.0400  146.3390 C   0  0  0  0  0  3  0  0  0  0  0  0
  160.7280  206.0640  147.4310 C   0  0  0  0  0  0  0  0  0  0  0  0
  161.7250  205.7150  144.8390 C   0  0  0  0  0  0  0  0  0  0  0  0
  162.6010  205.7370  145.9280 C   0  0  0  0  0  3  0  0  0  0  0  0
  160.3500  205.8650  145.0450 C   0  0  0  0  0  3  0  0  0  0  0  0
  162.2090  205.5480  143.5850 F   0  0  0  0  0  0  0  0  0  0  0  0
  162.1020  205.9120  147.2230 C   0  0  0  0  0  3  0  0  0  0  0  0
  160.5060  208.3000  153.8070 C   0  0  0  0  0  2  0  0  0  0  0  0
  160.8440  209.3790  154.8280 C   0  0  0  0  0  2  0  0  0  0  0  0
  159.5950  209.9120  155.5160 C   0  0  0  0  0  2  0  0  0  0  0  0
  160.1040  211.7250  153.9700 N   0  0  0  0  0  2  0  0  0  0  0  0
  159.3350  211.3660  155.1420 C   0  0  1  0  0  3  0  0  0  0  0  0
  158.0850  211.4730  154.4480 C   0  0  0  0  0  2  0  0  0  0  0  0
  158.5330  212.1790  152.0440 O   0  0  0  0  0  0  0  0  0  0  0  0
  158.8420  211.8650  153.2220 C   0  0  0  0  0  0  0  0  0  0  0  0
  162.4010  208.6070  149.1420 N   0  0  0  0  0  2  0  0  0  0  0  0
  161.6630  209.5330  148.3850 N   0  0  0  0  0  2  0  0  0  0  0  0
  162.3350  210.8110  148.5220 C   0  0  0  0  0  2  0  0  0  0  0  0
  161.4890  211.8290  148.0810 O   0  0  0  0  0  0  0  0  0  0  0  0
  162.6620  213.1510  146.6420 O   0  0  0  0  0  1  0  0  0  0  0  0
  162.3090  212.9540  147.9760 C   0  0  1  0  0  3  0  0  0  0  0  0
  161.5640  214.1720  148.4840 C   0  0  0  0  0  1  0  0  0  0  0  0
  1 28  1  6  0  0  0
  1  3  1  0  0  0  0
  1  2  1  0  0  0  0
  2  6  1  0  0  0  0
  3  7  1  6  0  0  0
  3  4  1  0  0  0  0
  4  5  1  1  0  0  0
  4  6  1  0  0  0  0
  6 20  1  6  0  0  0
  7  8  2  0  0  0  0
  9 11  2  0  0  0  0
  9  8  1  0  0  0  0
 10  9  1  0  0  0  0
 12  7  1  0  0  0  0
 13 14  1  0  0  0  0
 14 12  1  0  0  0  0
 15 17  1  0  0  0  0
 15 16  2  0  0  0  0
 16 19  1  0  0  0  0
 17 13  2  0  0  0  0
 18 15  1  0  0  0  0
 19 14  2  0  0  0  0
 20 21  1  0  0  0  0
 21 22  1  0  0  0  0
 23 24  1  0  0  0  0
 24 22  1  6  0  0  0
 25 24  1  0  0  0  0
 26 27  2  0  0  0  0
 27 23  1  0  0  0  0
 27 25  1  0  0  0  0
 29 30  1  0  0  0  0
 29 28  1  0  0  0  0
 31 30  1  0  0  0  0
 32 33  1  0  0  0  0
 33 31  1  0  0  0  0
 33 34  1  6  0  0  0
M  END
>  <MODEL>
5

>  <REMARK>
 VINA RESULT:      -6.5      2.737      3.592
  Name = 
  13 active torsions:
  status: ('A' for Active; 'I' for Inactive)
    1  A    between atoms: C_2  and  C_21
    2  A    between atoms: C_2  and  C_34
    3  A    between atoms: C_3  and  C_19
    4  A    between atoms: C_3  and  C_30
    5  A    between atoms: C_4  and  C_30
    6  A    between atoms: C_5  and  C_28
    7  A    between atoms: C_6  and  N_9
    8  A    between atoms: N_9  and  N_29
    9  A    between atoms: C_12  and  C_18
   10  A    between atoms: C_15  and  O_25
   11  A    between atoms: C_18  and  C_21
   12  A    between atoms: O_25  and  C_26
   13  A    between atoms: C_26  and  N_29
                            x       y       z     vdW  Elec       q    Type
                         _______ _______ _______ _____ _____    ______ ____

>  <TORSDO>
F 13

$$$$
=
 OpenBabel11052411073D

 34 36  0  0  1  0  0  0  0  0999 V2000
  161.3110  207.0360  152.9680 C   0  0  2  0  0  3  0  0  0  0  0  0
  160.7950  206.9510  154.7070 S   0  0  0  0  0  0  0  0  0  0  0  0
  160.8310  208.3520  152.3850 C   0  0  1  0  0  3  0  0  0  0  0  0
  160.9350  209.4070  153.4700 C   0  0  1  0  0  3  0  0  0  0  0  0
  159.9280  210.5130  153.2240 C   0  0  0  0  0  1  0  0  0  0  0  0
  160.6800  208.7650  154.8290 C   0  0  2  0  0  3  0  0  0  0  0  0
  161.6110  208.7360  151.1590 C   0  0  0  0  0  0  0  0  0  0  0  0
  161.4630  209.9870  150.7050 C   0  0  0  0  0  3  0  0  0  0  0  0
  162.1270  210.5870  149.5350 C   0  0  0  0  0  0  0  0  0  0  0  0
  161.5620  210.3860  148.2450 N   0  0  0  0  0  1  0  0  0  0  0  0
  163.1800  211.2680  149.6470 O   0  0  0  0  0  0  0  0  0  0  0  0
  162.5460  207.7500  150.5100 C   0  0  0  0  0  2  0  0  0  0  0  0
  160.6310  206.7220  149.2510 C   0  0  0  0  0  3  0  0  0  0  0  0
  161.9580  207.1680  149.2680 C   0  0  0  0  0  0  0  0  0  0  0  0
  160.8560  206.1340  146.9120 C   0  0  0  0  0  0  0  0  0  0  0  0
  162.1810  206.5770  146.9280 C   0  0  0  0  0  3  0  0  0  0  0  0
  160.0810  206.2040  148.0750 C   0  0  0  0  0  3  0  0  0  0  0  0
  160.3230  205.6340  145.7720 F   0  0  0  0  0  0  0  0  0  0  0  0
  162.7320  207.0940  148.1050 C   0  0  0  0  0  3  0  0  0  0  0  0
  161.6930  209.2610  155.8520 C   0  0  0  0  0  2  0  0  0  0  0  0
  161.0400  210.1320  156.9170 C   0  0  0  0  0  2  0  0  0  0  0  0
  161.0960  211.6080  156.5480 C   0  0  0  0  0  2  0  0  0  0  0  0
  159.3670  213.1980  155.9020 N   0  0  0  0  0  2  0  0  0  0  0  0
  159.8240  212.3330  156.9690 C   0  0  1  0  0  3  0  0  0  0  0  0
  158.6990  211.4540  156.8410 C   0  0  0  0  0  2  0  0  0  0  0  0
  157.1700  212.3310  155.0050 O   0  0  0  0  0  0  0  0  0  0  0  0
  158.1850  212.3320  155.7490 C   0  0  0  0  0  0  0  0  0  0  0  0
  160.8270  205.8850  152.2040 N   0  0  0  0  0  2  0  0  0  0  0  0
  161.3560  204.7090  152.7600 N   0  0  0  0  0  2  0  0  0  0  0  0
  160.9340  203.6170  151.9040 C   0  0  0  0  0  2  0  0  0  0  0  0
  161.5540  203.7390  150.6590 O   0  0  0  0  0  0  0  0  0  0  0  0
  161.2780  203.0630  148.5000 O   0  0  0  0  0  1  0  0  0  0  0  0
  160.7800  202.9590  149.7980 C   0  0  1  0  0  3  0  0  0  0  0  0
  160.8320  201.5110  150.2420 C   0  0  0  0  0  1  0  0  0  0  0  0
  1 28  1  6  0  0  0
  1  2  1  0  0  0  0
  2  6  1  0  0  0  0
  3  7  1  6  0  0  0
  3  1  1  0  0  0  0
  3  4  1  0  0  0  0
  4  5  1  6  0  0  0
  4  6  1  0  0  0  0
  6 20  1  1  0  0  0
  8  7  2  0  0  0  0
  9 11  2  0  0  0  0
  9  8  1  0  0  0  0
 10  9  1  0  0  0  0
 12  7  1  0  0  0  0
 13 14  1  0  0  0  0
 14 12  1  0  0  0  0
 15 16  2  0  0  0  0
 15 17  1  0  0  0  0
 16 19  1  0  0  0  0
 17 13  2  0  0  0  0
 18 15  1  0  0  0  0
 19 14  2  0  0  0  0
 20 21  1  0  0  0  0
 22 21  1  0  0  0  0
 23 24  1  0  0  0  0
 24 22  1  6  0  0  0
 25 24  1  0  0  0  0
 26 27  2  0  0  0  0
 27 23  1  0  0  0  0
 27 25  1  0  0  0  0
 28 29  1  0  0  0  0
 30 29  1  0  0  0  0
 31 30  1  0  0  0  0
 32 33  1  0  0  0  0
 33 34  1  1  0  0  0
 33 31  1  0  0  0  0
M  END
>  <MODEL>
6

>  <REMARK>
 VINA RESULT:      -6.1      2.967      5.913
  Name = 
  13 active torsions:
  status: ('A' for Active; 'I' for Inactive)
    1  A    between atoms: C_2  and  C_21
    2  A    between atoms: C_2  and  C_34
    3  A    between atoms: C_3  and  C_19
    4  A    between atoms: C_3  and  C_30
    5  A    between atoms: C_4  and  C_30
    6  A    between atoms: C_5  and  C_28
    7  A    between atoms: C_6  and  N_9
    8  A    between atoms: N_9  and  N_29
    9  A    between atoms: C_12  and  C_18
   10  A    between atoms: C_15  and  O_25
   11  A    between atoms: C_18  and  C_21
   12  A    between atoms: O_25  and  C_26
   13  A    between atoms: C_26  and  N_29
                            x       y       z     vdW  Elec       q    Type
                         _______ _______ _______ _____ _____    ______ ____

>  <TORSDO>
F 13

$$$$
=
 OpenBabel11052411073D

 34 36  0  0  1  0  0  0  0  0999 V2000
  161.7190  207.3870  149.9550 C   0  0  2  0  0  3  0  0  0  0  0  0
  161.9160  209.1500  150.3420 S   0  0  0  0  0  0  0  0  0  0  0  0
  161.9040  206.5880  151.2320 C   0  0  1  0  0  3  0  0  0  0  0  0
  161.3120  207.3930  152.3730 C   0  0  1  0  0  3  0  0  0  0  0  0
  161.9920  207.0300  153.6790 C   0  0  0  0  0  1  0  0  0  0  0  0
  161.4890  208.8800  152.0920 C   0  0  2  0  0  3  0  0  0  0  0  0
  161.2810  205.2240  151.1310 C   0  0  0  0  0  0  0  0  0  0  0  0
  161.7180  204.2860  151.9810 C   0  0  0  0  0  3  0  0  0  0  0  0
  161.2530  202.8910  152.0740 C   0  0  0  0  0  0  0  0  0  0  0  0
  162.0880  201.8540  151.5730 N   0  0  0  0  0  1  0  0  0  0  0  0
  160.1390  202.5960  152.5800 O   0  0  0  0  0  0  0  0  0  0  0  0
  160.1840  204.9580  150.1350 C   0  0  0  0  0  2  0  0  0  0  0  0
  161.5250  203.8020  148.3540 C   0  0  0  0  0  3  0  0  0  0  0  0
  160.4830  203.7660  149.2890 C   0  0  0  0  0  0  0  0  0  0  0  0
  161.0680  201.5010  147.7530 C   0  0  0  0  0  0  0  0  0  0  0  0
  160.0270  201.4640  148.6840 C   0  0  0  0  0  3  0  0  0  0  0  0
  161.8160  202.6710  147.5860 C   0  0  0  0  0  3  0  0  0  0  0  0
  161.3510  200.4040  147.0100 F   0  0  0  0  0  0  0  0  0  0  0  0
  159.7350  202.5950  149.4520 C   0  0  0  0  0  3  0  0  0  0  0  0
  160.2100  209.6400  152.4160 C   0  0  0  0  0  2  0  0  0  0  0  0
  160.2980  210.3480  153.7620 C   0  0  0  0  0  2  0  0  0  0  0  0
  160.0370  211.8420  153.6290 C   0  0  0  0  0  2  0  0  0  0  0  0
  157.8040  212.7100  154.0690 N   0  0  0  0  0  2  0  0  0  0  0  0
  159.0550  212.3290  154.6880 C   0  0  1  0  0  3  0  0  0  0  0  0
  158.4690  211.2060  155.3590 C   0  0  0  0  0  2  0  0  0  0  0  0
  155.9860  211.1180  154.8060 O   0  0  0  0  0  0  0  0  0  0  0  0
  157.1550  211.5790  154.7550 C   0  0  0  0  0  0  0  0  0  0  0  0
  162.6390  206.9590  148.8990 N   0  0  0  0  0  2  0  0  0  0  0  0
  162.2520  207.5510  147.6860 N   0  0  0  0  0  2  0  0  0  0  0  0
  161.5930  206.5170  146.9110 C   0  0  0  0  0  2  0  0  0  0  0  0
  162.4600  206.0600  145.9160 O   0  0  0  0  0  0  0  0  0  0  0  0
  161.6730  204.2720  144.7440 O   0  0  0  0  0  1  0  0  0  0  0  0
  161.6250  205.6590  144.8720 C   0  0  1  0  0  3  0  0  0  0  0  0
  160.2020  206.0890  145.1680 C   0  0  0  0  0  1  0  0  0  0  0  0
  1 28  1  6  0  0  0
  1  2  1  0  0  0  0
  1  3  1  0  0  0  0
  2  6  1  0  0  0  0
  3  7  1  6  0  0  0
  3  4  1  0  0  0  0
  4  5  1  1  0  0  0
  6  4  1  0  0  0  0
  6 20  1  6  0  0  0
  7  8  2  0  0  0  0
  8  9  1  0  0  0  0
  9 11  2  0  0  0  0
 10  9  1  0  0  0  0
 12  7  1  0  0  0  0
 13 14  1  0  0  0  0
 14 19  2  0  0  0  0
 14 12  1  0  0  0  0
 15 16  2  0  0  0  0
 16 19  1  0  0  0  0
 17 15  1  0  0  0  0
 17 13  2  0  0  0  0
 18 15  1  0  0  0  0
 20 21  1  0  0  0  0
 22 21  1  0  0  0  0
 23 24  1  0  0  0  0
 23 27  1  0  0  0  0
 24 22  1  6  0  0  0
 24 25  1  0  0  0  0
 27 26  2  0  0  0  0
 27 25  1  0  0  0  0
 29 28  1  0  0  0  0
 30 29  1  0  0  0  0
 31 30  1  0  0  0  0
 32 33  1  0  0  0  0
 33 34  1  1  0  0  0
 33 31  1  0  0  0  0
M  END
>  <MODEL>
7

>  <REMARK>
 VINA RESULT:      -6.1      3.452      4.583
  Name = 
  13 active torsions:
  status: ('A' for Active; 'I' for Inactive)
    1  A    between atoms: C_2  and  C_21
    2  A    between atoms: C_2  and  C_34
    3  A    between atoms: C_3  and  C_19
    4  A    between atoms: C_3  and  C_30
    5  A    between atoms: C_4  and  C_30
    6  A    between atoms: C_5  and  C_28
    7  A    between atoms: C_6  and  N_9
    8  A    between atoms: N_9  and  N_29
    9  A    between atoms: C_12  and  C_18
   10  A    between atoms: C_15  and  O_25
   11  A    between atoms: C_18  and  C_21
   12  A    between atoms: O_25  and  C_26
   13  A    between atoms: C_26  and  N_29
                            x       y       z     vdW  Elec       q    Type
                         _______ _______ _______ _____ _____    ______ ____

>  <TORSDO>
F 13

$$$$
=
 OpenBabel11052411073D

 34 36  0  0  1  0  0  0  0  0999 V2000
  161.4160  208.5230  150.9290 C   0  0  2  0  0  3  0  0  0  0  0  0
  161.4560  210.0490  151.9120 S   0  0  0  0  0  0  0  0  0  0  0  0
  161.6660  207.3460  151.8530 C   0  0  1  0  0  3  0  0  0  0  0  0
  161.0010  207.6490  153.1820 C   0  0  1  0  0  3  0  0  0  0  0  0
  161.7060  206.9080  154.3020 C   0  0  0  0  0  1  0  0  0  0  0  0
  161.0480  209.1500  153.4430 C   0  0  2  0  0  3  0  0  0  0  0  0
  161.1660  206.0580  151.2620 C   0  0  0  0  0  0  0  0  0  0  0  0
  161.4840  204.9250  151.9020 C   0  0  0  0  0  3  0  0  0  0  0  0
  161.1020  203.5550  151.5180 C   0  0  0  0  0  0  0  0  0  0  0  0
  162.1050  202.5470  151.4790 N   0  0  0  0  0  1  0  0  0  0  0  0
  159.9160  203.2570  151.2210 O   0  0  0  0  0  0  0  0  0  0  0  0
  160.3090  206.0680  150.0240 C   0  0  0  0  0  2  0  0  0  0  0  0
  161.0080  204.1530  148.5570 C   0  0  0  0  0  3  0  0  0  0  0  0
  161.0400  205.5230  148.8420 C   0  0  0  0  0  0  0  0  0  0  0  0
  162.3680  204.5280  146.5880 C   0  0  0  0  0  0  0  0  0  0  0  0
  162.4030  205.8960  146.8730 C   0  0  0  0  0  3  0  0  0  0  0  0
  161.6720  203.6570  147.4320 C   0  0  0  0  0  3  0  0  0  0  0  0
  163.0100  204.0480  145.4970 F   0  0  0  0  0  0  0  0  0  0  0  0
  161.7390  206.3940  147.9990 C   0  0  0  0  0  3  0  0  0  0  0  0
  159.7060  209.6420  153.9670 C   0  0  0  0  0  2  0  0  0  0  0  0
  159.6020  211.1610  153.9170 C   0  0  0  0  0  2  0  0  0  0  0  0
  158.2120  211.6150  153.4930 C   0  0  0  0  0  2  0  0  0  0  0  0
  156.1590  212.4630  154.4930 N   0  0  0  0  0  2  0  0  0  0  0  0
  157.6020  212.5640  154.5180 C   0  0  1  0  0  3  0  0  0  0  0  0
  157.6960  211.9900  155.8270 C   0  0  0  0  0  2  0  0  0  0  0  0
  155.3510  211.4750  156.6730 O   0  0  0  0  0  0  0  0  0  0  0  0
  156.2060  211.8860  155.8480 C   0  0  0  0  0  0  0  0  0  0  0  0
  162.3740  208.5680  149.8230 N   0  0  0  0  0  2  0  0  0  0  0  0
  161.7550  209.1490  148.7030 N   0  0  0  0  0  2  0  0  0  0  0  0
  162.1760  210.5370  148.6690 C   0  0  0  0  0  2  0  0  0  0  0  0
  161.3290  211.2580  147.8270 O   0  0  0  0  0  0  0  0  0  0  0  0
  161.3220  213.1560  149.0890 O   0  0  0  0  0  1  0  0  0  0  0  0
  161.7830  212.5750  147.9070 C   0  0  1  0  0  3  0  0  0  0  0  0
  163.2980  212.5900  147.8970 C   0  0  0  0  0  1  0  0  0  0  0  0
  1 28  1  6  0  0  0
  1  3  1  0  0  0  0
  1  2  1  0  0  0  0
  2  6  1  0  0  0  0
  3  7  1  6  0  0  0
  3  4  1  0  0  0  0
  4  6  1  0  0  0  0
  4  5  1  1  0  0  0
  6 20  1  6  0  0  0
  7  8  2  0  0  0  0
  9  8  1  0  0  0  0
 10  9  1  0  0  0  0
 11  9  2  0  0  0  0
 12  7  1  0  0  0  0
 13 14  1  0  0  0  0
 14 12  1  0  0  0  0
 15 16  2  0  0  0  0
 15 17  1  0  0  0  0
 16 19  1  0  0  0  0
 17 13  2  0  0  0  0
 18 15  1  0  0  0  0
 19 14  2  0  0  0  0
 21 20  1  0  0  0  0
 22 21  1  0  0  0  0
 23 24  1  0  0  0  0
 23 27  1  0  0  0  0
 24 22  1  6  0  0  0
 24 25  1  0  0  0  0
 25 27  1  0  0  0  0
 27 26  2  0  0  0  0
 29 28  1  0  0  0  0
 30 29  1  0  0  0  0
 31 33  1  0  0  0  0
 31 30  1  0  0  0  0
 33 34  1  1  0  0  0
 33 32  1  0  0  0  0
M  END
>  <MODEL>
8

>  <REMARK>
 VINA RESULT:      -6.0      3.195      4.014
  Name = 
  13 active torsions:
  status: ('A' for Active; 'I' for Inactive)
    1  A    between atoms: C_2  and  C_21
    2  A    between atoms: C_2  and  C_34
    3  A    between atoms: C_3  and  C_19
    4  A    between atoms: C_3  and  C_30
    5  A    between atoms: C_4  and  C_30
    6  A    between atoms: C_5  and  C_28
    7  A    between atoms: C_6  and  N_9
    8  A    between atoms: N_9  and  N_29
    9  A    between atoms: C_12  and  C_18
   10  A    between atoms: C_15  and  O_25
   11  A    between atoms: C_18  and  C_21
   12  A    between atoms: O_25  and  C_26
   13  A    between atoms: C_26  and  N_29
                            x       y       z     vdW  Elec       q    Type
                         _______ _______ _______ _____ _____    ______ ____

>  <TORSDO>
F 13

$$$$
=
 OpenBabel11052411073D

 34 36  0  0  1  0  0  0  0  0999 V2000
  160.9010  207.9660  153.2950 C   0  0  2  0  0  3  0  0  0  0  0  0
  160.9440  206.5340  154.4110 S   0  0  0  0  0  0  0  0  0  0  0  0
  161.8920  207.7320  152.1700 C   0  0  1  0  0  3  0  0  0  0  0  0
  161.8740  206.2520  151.8360 C   0  0  1  0  0  3  0  0  0  0  0  0
  163.2060  205.8330  151.2440 C   0  0  0  0  0  1  0  0  0  0  0  0
  161.5910  205.4490  153.0990 C   0  0  2  0  0  3  0  0  0  0  0  0
  161.5790  208.5780  150.9680 C   0  0  0  0  0  0  0  0  0  0  0  0
  162.2850  209.7060  150.8120 C   0  0  0  0  0  3  0  0  0  0  0  0
  162.1610  210.6810  149.7140 C   0  0  0  0  0  0  0  0  0  0  0  0
  161.4000  211.8640  149.9280 N   0  0  0  0  0  1  0  0  0  0  0  0
  162.7060  210.4930  148.5960 O   0  0  0  0  0  0  0  0  0  0  0  0
  160.5410  208.1340  149.9720 C   0  0  0  0  0  2  0  0  0  0  0  0
  160.4560  205.9140  148.8000 C   0  0  0  0  0  3  0  0  0  0  0  0
  161.0940  207.1440  149.0020 C   0  0  0  0  0  0  0  0  0  0  0  0
  162.1130  205.3240  147.1350 C   0  0  0  0  0  0  0  0  0  0  0  0
  162.7530  206.5510  147.3380 C   0  0  0  0  0  3  0  0  0  0  0  0
  160.9660  205.0060  147.8680 C   0  0  0  0  0  3  0  0  0  0  0  0
  162.6070  204.4450  146.2310 F   0  0  0  0  0  0  0  0  0  0  0  0
  162.2430  207.4600  148.2700 C   0  0  0  0  0  3  0  0  0  0  0  0
  160.5760  204.3500  152.8160 C   0  0  0  0  0  2  0  0  0  0  0  0
  161.2050  203.1740  152.0810 C   0  0  0  0  0  2  0  0  0  0  0  0
  160.8060  203.1520  150.6120 C   0  0  0  0  0  2  0  0  0  0  0  0
  159.6580  201.7040  149.0250 N   0  0  0  0  0  2  0  0  0  0  0  0
  160.6140  201.7260  150.1110 C   0  0  1  0  0  3  0  0  0  0  0  0
  161.7060  201.3600  149.2580 C   0  0  0  0  0  2  0  0  0  0  0  0
  160.8320  201.0420  146.8880 O   0  0  0  0  0  0  0  0  0  0  0  0
  160.7470  201.3080  148.1150 C   0  0  0  0  0  0  0  0  0  0  0  0
  161.1630  209.2170  154.0100 N   0  0  0  0  0  2  0  0  0  0  0  0
  160.0390  209.5470  154.7840 N   0  0  0  0  0  2  0  0  0  0  0  0
  159.9620  210.9960  154.8080 C   0  0  0  0  0  2  0  0  0  0  0  0
  160.5160  211.5080  153.6330 O   0  0  0  0  0  0  0  0  0  0  0  0
  158.6220  211.7210  152.3840 O   0  0  0  0  0  1  0  0  0  0  0  0
  159.5630  212.4060  153.1520 C   0  0  1  0  0  3  0  0  0  0  0  0
  158.8660  213.0790  154.3180 C   0  0  0  0  0  1  0  0  0  0  0  0
  1 28  1  1  0  0  0
  1  2  1  0  0  0  0
  3  7  1  6  0  0  0
  3  1  1  0  0  0  0
  4  5  1  1  0  0  0
  4  3  1  0  0  0  0
  4  6  1  0  0  0  0
  6 20  1  6  0  0  0
  6  2  1  0  0  0  0
  8  7  2  0  0  0  0
  9 10  1  0  0  0  0
  9  8  1  0  0  0  0
 11  9  2  0  0  0  0
 12  7  1  0  0  0  0
 13 14  1  0  0  0  0
 14 12  1  0  0  0  0
 15 16  2  0  0  0  0
 15 17  1  0  0  0  0
 16 19  1  0  0  0  0
 17 13  2  0  0  0  0
 18 15  1  0  0  0  0
 19 14  2  0  0  0  0
 21 20  1  0  0  0  0
 22 21  1  0  0  0  0
 23 24  1  0  0  0  0
 24 22  1  6  0  0  0
 25 24  1  0  0  0  0
 26 27  2  0  0  0  0
 27 23  1  0  0  0  0
 27 25  1  0  0  0  0
 28 29  1  0  0  0  0
 29 30  1  0  0  0  0
 31 30  1  0  0  0  0
 32 33  1  0  0  0  0
 33 31  1  0  0  0  0
 33 34  1  1  0  0  0
M  END
>  <MODEL>
9

>  <REMARK>
 VINA RESULT:      -5.9      2.744      6.428
  Name = 
  13 active torsions:
  status: ('A' for Active; 'I' for Inactive)
    1  A    between atoms: C_2  and  C_21
    2  A    between atoms: C_2  and  C_34
    3  A    between atoms: C_3  and  C_19
    4  A    between atoms: C_3  and  C_30
    5  A    between atoms: C_4  and  C_30
    6  A    between atoms: C_5  and  C_28
    7  A    between atoms: C_6  and  N_9
    8  A    between atoms: N_9  and  N_29
    9  A    between atoms: C_12  and  C_18
   10  A    between atoms: C_15  and  O_25
   11  A    between atoms: C_18  and  C_21
   12  A    between atoms: O_25  and  C_26
   13  A    between atoms: C_26  and  N_29
                            x       y       z     vdW  Elec       q    Type
                         _______ _______ _______ _____ _____    ______ ____

>  <TORSDO>
F 13

$$$$
