=
 OpenBabel11052411213D

 41 45  0  0  1  0  0  0  0  0999 V2000
  161.1290  207.9930  148.4550 C   0  0  0  0  0  3  0  0  0  0  0  0
  162.4310  208.1410  150.3390 C   0  0  0  0  0  3  0  0  0  0  0  0
  161.8580  206.9510  150.4000 C   0  0  0  0  0  0  0  0  0  0  0  0
  161.9550  208.7810  149.1240 C   0  0  0  0  0  0  0  0  0  0  0  0
  160.9580  206.7200  149.2180 C   0  0  2  0  0  3  0  0  0  0  0  0
  160.6570  201.9070  148.5790 N   0  0  0  0  0  0  0  0  0  0  0  0
  159.9510  202.4610  149.7430 C   0  0  0  0  0  2  0  0  0  0  0  0
  161.9410  205.6670  147.1840 C   0  0  0  0  0  3  0  0  0  0  0  0
  161.3780  205.5280  148.3970 C   0  0  0  0  0  0  0  0  0  0  0  0
  162.3590  204.4760  146.3500 C   0  0  0  0  0  2  0  0  0  0  0  0
  161.5710  202.9710  148.1740 C   0  0  2  0  0  3  0  0  0  0  0  0
  161.4730  200.8060  149.0640 C   0  0  0  0  0  1  0  0  0  0  0  0
  160.1570  203.9000  149.7270 N   0  0  0  0  0  2  0  0  0  0  0  0
  161.0700  204.1690  148.8710 C   0  0  2  0  0  3  0  0  0  0  0  0
  161.5190  203.2310  146.6690 C   0  0  0  0  0  2  0  0  0  0  0  0
  162.3920  210.1210  148.6440 C   0  0  0  0  0  2  0  0  0  0  0  0
  161.8960  211.1970  149.5950 C   0  0  0  0  0  2  0  0  0  0  0  0
  160.5510  213.1540  149.4090 O   0  0  0  0  0  1  0  0  0  0  0  0
  161.6360  212.4890  148.8380 C   0  0  2  0  0  3  0  0  0  0  0  0
  161.3310  212.1900  147.4120 C   0  0  0  0  0  3  0  0  0  0  0  0
  161.2600  213.1660  146.5170 C   0  0  0  0  0  3  0  0  0  0  0  0
  161.9960  212.8800  144.1490 C   0  0  0  0  0  0  0  0  0  0  0  0
  163.1800  213.2100  144.4450 O   0  0  0  0  0  0  0  0  0  0  0  0
  160.9810  212.8630  145.1530 N   0  0  0  0  0  2  0  0  0  0  0  0
  161.6620  212.5330  142.8360 O   0  0  0  0  0  0  0  0  0  0  0  0
  160.4820  211.8030  142.5160 C   0  0  0  0  0  2  0  0  0  0  0  0
  160.7050  212.5340  140.2550 O   0  0  0  0  0  0  0  0  0  0  0  0
  161.4830  210.4460  140.8220 O   0  0  0  0  0  0  0  0  0  0  0  0
  161.4210  212.0590  139.1590 C   0  0  0  0  0  2  0  0  0  0  0  0
  160.4850  211.4020  141.0520 C   0  0  0  0  0  3  0  0  0  0  0  0
  161.8650  210.6670  139.5030 C   0  0  0  0  0  2  0  0  0  0  0  0
  162.1110  205.9940  151.5240 C   0  0  0  0  0  2  0  0  0  0  0  0
  161.1290  206.1860  152.6690 C   0  0  0  0  0  2  0  0  0  0  0  0
  159.2700  207.0350  155.5710 O   0  0  0  0  0  1  0  0  0  0  0  0
  160.4450  207.7500  155.3470 C   0  0  2  0  0  3  0  0  0  0  0  0
  160.4810  208.2340  153.9070 C   0  0  2  0  0  3  0  0  0  0  0  0
  161.5770  206.7860  155.0430 C   0  0  0  0  0  2  0  0  0  0  0  0
  161.6190  207.2770  153.6050 C   0  0  1  0  0  3  0  0  0  0  0  0
  160.0900  210.4340  152.4120 O   0  0  0  0  0  1  0  0  0  0  0  0
  160.0150  210.7150  154.9660 O   0  0  0  0  0  1  0  0  0  0  0  0
  161.0710  210.0070  153.7800 P   0  0  0  0  0  0  0  0  0  0  0  0
  1  4  2  0  0  0  0
  1  5  1  0  0  0  0
  2  3  2  0  0  0  0
  3 32  1  0  0  0  0
  4  2  1  0  0  0  0
  5  9  1  6  0  0  0
  5  3  1  0  0  0  0
  6 12  1  0  0  0  0
  6  7  1  0  0  0  0
  8  9  2  0  0  0  0
 10 15  1  0  0  0  0
 10  8  1  0  0  0  0
 11 15  1  6  0  0  0
 11  6  1  0  0  0  0
 11 14  1  0  0  0  0
 13  7  1  0  0  0  0
 14  9  1  6  0  0  0
 14 13  1  0  0  0  0
 16  4  1  0  0  0  0
 16 17  1  0  0  0  0
 19 18  1  1  0  0  0
 19 17  1  0  0  0  0
 20 19  1  0  0  0  0
 21 20  2  0  0  0  0
 22 23  2  0  0  0  0
 22 24  1  0  0  0  0
 24 21  1  0  0  0  0
 25 22  1  0  0  0  0
 26 25  1  0  0  0  0
 27 30  1  0  0  0  0
 28 30  1  0  0  0  0
 29 31  1  0  0  0  0
 29 27  1  0  0  0  0
 30 26  1  0  0  0  0
 31 28  1  0  0  0  0
 32 33  1  0  0  0  0
 35 34  1  6  0  0  0
 36 41  1  1  0  0  0
 36 35  1  0  0  0  0
 37 35  1  0  0  0  0
 38 33  1  6  0  0  0
 38 36  1  0  0  0  0
 38 37  1  0  0  0  0
 39 41  1  0  0  0  0
 41 40  1  0  0  0  0
M  END
>  <MODEL>
1

>  <REMARK>
 VINA RESULT:      -7.3      0.000      0.000
  Name = 
  13 active torsions:
  status: ('A' for Active; 'I' for Inactive)
    1  A    between atoms: C_1  and  C_20
    2  A    between atoms: C_1  and  C_33
    3  A    between atoms: C_5  and  C_15
    4  A    between atoms: C_5  and  C_36
    5  A    between atoms: C_10  and  C_15
    6  A    between atoms: C_12  and  O_28
    7  A    between atoms: C_12  and  C_34
    8  A    between atoms: C_13  and  C_22
    9  A    between atoms: C_14  and  O_28
   10  A    between atoms: C_24  and  P_25
   11  A    between atoms: C_33  and  C_41
   12  A    between atoms: N_35  and  C_40
   13  A    between atoms: C_37  and  C_41
                            x       y       z     vdW  Elec       q    Type
                         _______ _______ _______ _____ _____    ______ ____

>  <TORSDO>
F 13

$$$$
=
 OpenBabel11052411213D

 41 45  0  0  1  0  0  0  0  0999 V2000
  160.8970  206.7700  149.2810 C   0  0  0  0  0  3  0  0  0  0  0  0
  162.3750  207.2380  150.9720 C   0  0  0  0  0  3  0  0  0  0  0  0
  161.5990  206.2750  151.4390 C   0  0  0  0  0  0  0  0  0  0  0  0
  161.9150  207.5410  149.6270 C   0  0  0  0  0  0  0  0  0  0  0  0
  160.5640  205.8710  150.4260 C   0  0  2  0  0  3  0  0  0  0  0  0
  161.6140  202.6700  146.9160 N   0  0  0  0  0  0  0  0  0  0  0  0
  161.6690  204.0910  146.5480 C   0  0  0  0  0  2  0  0  0  0  0  0
  160.6970  203.4380  150.9540 C   0  0  0  0  0  3  0  0  0  0  0  0
  160.6760  204.4200  150.0350 C   0  0  0  0  0  0  0  0  0  0  0  0
  160.8170  201.9800  150.5710 C   0  0  0  0  0  2  0  0  0  0  0  0
  160.8680  202.6540  148.1720 C   0  0  2  0  0  3  0  0  0  0  0  0
  160.7860  202.0070  145.9210 C   0  0  0  0  0  1  0  0  0  0  0  0
  161.3450  204.8590  147.7380 N   0  0  0  0  0  2  0  0  0  0  0  0
  160.8820  204.0570  148.6230 C   0  0  2  0  0  3  0  0  0  0  0  0
  161.5530  201.7970  149.2350 C   0  0  0  0  0  2  0  0  0  0  0  0
  162.5460  208.5370  148.7190 C   0  0  0  0  0  2  0  0  0  0  0  0
  161.6440  209.7510  148.5760 C   0  0  0  0  0  2  0  0  0  0  0  0
  161.4320  211.6940  149.9370 O   0  0  0  0  0  1  0  0  0  0  0  0
  162.3290  210.9860  149.1380 C   0  0  2  0  0  3  0  0  0  0  0  0
  162.7910  211.8610  148.0250 C   0  0  0  0  0  3  0  0  0  0  0  0
  161.9200  212.5550  147.3060 C   0  0  0  0  0  3  0  0  0  0  0  0
  161.7000  213.4830  144.9990 C   0  0  0  0  0  0  0  0  0  0  0  0
  160.6830  212.7670  144.7760 O   0  0  0  0  0  0  0  0  0  0  0  0
  162.3780  213.3990  146.2530 N   0  0  0  0  0  2  0  0  0  0  0  0
  162.1790  214.3620  144.0230 O   0  0  0  0  0  0  0  0  0  0  0  0
  163.1730  213.9830  143.0760 C   0  0  0  0  0  2  0  0  0  0  0  0
  163.3330  213.8650  140.6980 O   0  0  0  0  0  0  0  0  0  0  0  0
  162.3510  212.1190  141.8270 O   0  0  0  0  0  0  0  0  0  0  0  0
  163.1490  212.8390  139.7740 C   0  0  0  0  0  2  0  0  0  0  0  0
  162.5270  213.5080  141.7880 C   0  0  0  0  0  3  0  0  0  0  0  0
  162.4420  211.7290  140.4960 C   0  0  0  0  0  2  0  0  0  0  0  0
  161.7750  205.6950  152.8100 C   0  0  0  0  0  2  0  0  0  0  0  0
  160.8910  206.3840  153.8380 C   0  0  0  0  0  2  0  0  0  0  0  0
  159.1390  208.6440  155.9410 O   0  0  0  0  0  1  0  0  0  0  0  0
  160.4640  208.9610  155.6430 C   0  0  2  0  0  3  0  0  0  0  0  0
  160.6950  208.8360  154.1460 C   0  0  2  0  0  3  0  0  0  0  0  0
  161.3420  207.7450  155.8720 C   0  0  0  0  0  2  0  0  0  0  0  0
  161.5800  207.6250  154.3760 C   0  0  1  0  0  3  0  0  0  0  0  0
  160.4230  211.4330  153.5100 O   0  0  0  0  0  1  0  0  0  0  0  0
  162.4410  210.7800  154.9600 O   0  0  0  0  0  1  0  0  0  0  0  0
  161.7040  210.2620  153.4730 P   0  0  0  0  0  0  0  0  0  0  0  0
  1  4  2  0  0  0  0
  1  5  1  0  0  0  0
  2  3  2  0  0  0  0
  3 32  1  0  0  0  0
  4  2  1  0  0  0  0
  5  9  1  6  0  0  0
  5  3  1  0  0  0  0
  6 11  1  0  0  0  0
  7  6  1  0  0  0  0
  7 13  1  0  0  0  0
  9  8  2  0  0  0  0
 10  8  1  0  0  0  0
 11 14  1  0  0  0  0
 11 15  1  1  0  0  0
 12  6  1  0  0  0  0
 14 13  1  1  0  0  0
 14  9  1  0  0  0  0
 15 10  1  0  0  0  0
 16  4  1  0  0  0  0
 17 16  1  0  0  0  0
 17 19  1  0  0  0  0
 19 18  1  1  0  0  0
 20 19  1  0  0  0  0
 21 20  2  0  0  0  0
 22 24  1  0  0  0  0
 23 22  2  0  0  0  0
 24 21  1  0  0  0  0
 25 22  1  0  0  0  0
 26 25  1  0  0  0  0
 27 30  1  0  0  0  0
 29 31  1  0  0  0  0
 29 27  1  0  0  0  0
 30 28  1  0  0  0  0
 30 26  1  0  0  0  0
 31 28  1  0  0  0  0
 32 33  1  0  0  0  0
 35 37  1  0  0  0  0
 35 34  1  6  0  0  0
 36 41  1  1  0  0  0
 36 38  1  0  0  0  0
 36 35  1  0  0  0  0
 38 33  1  6  0  0  0
 38 37  1  0  0  0  0
 41 39  1  0  0  0  0
 41 40  1  0  0  0  0
M  END
>  <MODEL>
2

>  <REMARK>
 VINA RESULT:      -7.2      1.482      2.213
  Name = 
  13 active torsions:
  status: ('A' for Active; 'I' for Inactive)
    1  A    between atoms: C_1  and  C_20
    2  A    between atoms: C_1  and  C_33
    3  A    between atoms: C_5  and  C_15
    4  A    between atoms: C_5  and  C_36
    5  A    between atoms: C_10  and  C_15
    6  A    between atoms: C_12  and  O_28
    7  A    between atoms: C_12  and  C_34
    8  A    between atoms: C_13  and  C_22
    9  A    between atoms: C_14  and  O_28
   10  A    between atoms: C_24  and  P_25
   11  A    between atoms: C_33  and  C_41
   12  A    between atoms: N_35  and  C_40
   13  A    between atoms: C_37  and  C_41
                            x       y       z     vdW  Elec       q    Type
                         _______ _______ _______ _____ _____    ______ ____

>  <TORSDO>
F 13

$$$$
=
 OpenBabel11052411213D

 41 45  0  0  1  0  0  0  0  0999 V2000
  162.4550  208.6210  150.9150 C   0  0  0  0  0  3  0  0  0  0  0  0
  161.0330  207.3790  149.6120 C   0  0  0  0  0  3  0  0  0  0  0  0
  161.2320  206.6570  150.7010 C   0  0  0  0  0  0  0  0  0  0  0  0
  161.8130  208.5970  149.7590 C   0  0  0  0  0  0  0  0  0  0  0  0
  162.1650  207.3550  151.6520 C   0  0  2  0  0  3  0  0  0  0  0  0
  159.9270  210.6030  154.4990 N   0  0  0  0  0  0  0  0  0  0  0  0
  160.3770  211.0810  153.1840 C   0  0  0  0  0  2  0  0  0  0  0  0
  161.1800  206.6390  153.8270 C   0  0  0  0  0  3  0  0  0  0  0  0
  161.5260  207.6320  152.9880 C   0  0  0  0  0  0  0  0  0  0  0  0
  160.5300  206.9080  155.1670 C   0  0  0  0  0  2  0  0  0  0  0  0
  160.6540  209.3520  154.6930 C   0  0  2  0  0  3  0  0  0  0  0  0
  160.4300  211.5450  155.4860 C   0  0  0  0  0  1  0  0  0  0  0  0
  160.9920  209.9540  152.5030 N   0  0  0  0  0  2  0  0  0  0  0  0
  161.1600  209.0110  153.3520 C   0  0  2  0  0  3  0  0  0  0  0  0
  159.7380  208.2240  155.1650 C   0  0  0  0  0  2  0  0  0  0  0  0
  161.8350  209.7130  148.7750 C   0  0  0  0  0  2  0  0  0  0  0  0
  162.2680  210.9980  149.4600 C   0  0  0  0  0  2  0  0  0  0  0  0
  160.8070  212.8790  149.4870 O   0  0  0  0  0  1  0  0  0  0  0  0
  161.7400  212.2030  148.7000 C   0  0  2  0  0  3  0  0  0  0  0  0
  161.0870  211.7620  147.4370 C   0  0  0  0  0  3  0  0  0  0  0  0
  160.5100  212.6430  146.6310 C   0  0  0  0  0  3  0  0  0  0  0  0
  160.5070  212.4230  144.1440 C   0  0  0  0  0  0  0  0  0  0  0  0
  161.5990  213.0530  144.0570 O   0  0  0  0  0  0  0  0  0  0  0  0
  159.9000  212.2070  145.4190 N   0  0  0  0  0  2  0  0  0  0  0  0
  159.8740  211.9340  142.9970 O   0  0  0  0  0  0  0  0  0  0  0  0
  160.3230  212.2490  141.6840 C   0  0  0  0  0  2  0  0  0  0  0  0
  160.7270  210.4320  140.1910 O   0  0  0  0  0  0  0  0  0  0  0  0
  162.4680  211.8430  140.7100 O   0  0  0  0  0  0  0  0  0  0  0  0
  161.7790  210.1080  139.3360 C   0  0  0  0  0  2  0  0  0  0  0  0
  161.3170  211.2100  141.1970 C   0  0  0  0  0  3  0  0  0  0  0  0
  162.9370  210.9790  139.7260 C   0  0  0  0  0  2  0  0  0  0  0  0
  160.5840  205.3230  150.9110 C   0  0  0  0  0  2  0  0  0  0  0  0
  161.3560  204.2010  150.2340 C   0  0  0  0  0  2  0  0  0  0  0  0
  161.8490  201.0100  148.7600 O   0  0  0  0  0  1  0  0  0  0  0  0
  161.0690  201.9180  148.0450 C   0  0  2  0  0  3  0  0  0  0  0  0
  161.7800  203.2600  147.9800 C   0  0  2  0  0  3  0  0  0  0  0  0
  160.0250  202.5250  148.9630 C   0  0  0  0  0  2  0  0  0  0  0  0
  160.7300  203.8690  148.8900 C   0  0  1  0  0  3  0  0  0  0  0  0
  160.9000  205.4910  146.7660 O   0  0  0  0  0  1  0  0  0  0  0  0
  163.2790  204.7000  146.1990 O   0  0  0  0  0  1  0  0  0  0  0  0
  161.6800  204.0210  146.2720 P   0  0  0  0  0  0  0  0  0  0  0  0
  1  5  1  0  0  0  0
  2  4  1  0  0  0  0
  2  3  2  0  0  0  0
  3 32  1  0  0  0  0
  3  5  1  0  0  0  0
  4  1  2  0  0  0  0
  5  9  1  1  0  0  0
  6 11  1  0  0  0  0
  6 12  1  0  0  0  0
  7  6  1  0  0  0  0
  8 10  1  0  0  0  0
  9 14  1  0  0  0  0
  9  8  2  0  0  0  0
 11 15  1  6  0  0  0
 13  7  1  0  0  0  0
 14 13  1  6  0  0  0
 14 11  1  0  0  0  0
 15 10  1  0  0  0  0
 16 17  1  0  0  0  0
 16  4  1  0  0  0  0
 19 17  1  0  0  0  0
 19 18  1  1  0  0  0
 20 19  1  0  0  0  0
 21 20  2  0  0  0  0
 22 24  1  0  0  0  0
 23 22  2  0  0  0  0
 24 21  1  0  0  0  0
 25 22  1  0  0  0  0
 26 25  1  0  0  0  0
 27 30  1  0  0  0  0
 28 30  1  0  0  0  0
 29 31  1  0  0  0  0
 29 27  1  0  0  0  0
 30 26  1  0  0  0  0
 31 28  1  0  0  0  0
 33 32  1  0  0  0  0
 35 34  1  1  0  0  0
 35 37  1  0  0  0  0
 36 41  1  6  0  0  0
 36 35  1  0  0  0  0
 36 38  1  0  0  0  0
 38 37  1  0  0  0  0
 38 33  1  1  0  0  0
 40 41  1  0  0  0  0
 41 39  1  0  0  0  0
M  END
>  <MODEL>
3

>  <REMARK>
 VINA RESULT:      -7.2      3.404      5.947
  Name = 
  13 active torsions:
  status: ('A' for Active; 'I' for Inactive)
    1  A    between atoms: C_1  and  C_20
    2  A    between atoms: C_1  and  C_33
    3  A    between atoms: C_5  and  C_15
    4  A    between atoms: C_5  and  C_36
    5  A    between atoms: C_10  and  C_15
    6  A    between atoms: C_12  and  O_28
    7  A    between atoms: C_12  and  C_34
    8  A    between atoms: C_13  and  C_22
    9  A    between atoms: C_14  and  O_28
   10  A    between atoms: C_24  and  P_25
   11  A    between atoms: C_33  and  C_41
   12  A    between atoms: N_35  and  C_40
   13  A    between atoms: C_37  and  C_41
                            x       y       z     vdW  Elec       q    Type
                         _______ _______ _______ _____ _____    ______ ____

>  <TORSDO>
F 13

$$$$
=
 OpenBabel11052411213D

 41 45  0  0  1  0  0  0  0  0999 V2000
  160.9130  206.4960  149.1510 C   0  0  0  0  0  3  0  0  0  0  0  0
  162.1680  207.0160  151.0000 C   0  0  0  0  0  3  0  0  0  0  0  0
  161.3370  206.0660  151.3940 C   0  0  0  0  0  0  0  0  0  0  0  0
  161.8810  207.2790  149.6000 C   0  0  0  0  0  0  0  0  0  0  0  0
  160.4380  205.6300  150.2710 C   0  0  2  0  0  3  0  0  0  0  0  0
  161.4940  202.3180  146.8690 N   0  0  0  0  0  0  0  0  0  0  0  0
  161.4780  203.7220  146.4360 C   0  0  0  0  0  2  0  0  0  0  0  0
  160.6880  203.2310  150.9000 C   0  0  0  0  0  3  0  0  0  0  0  0
  160.5950  204.1690  149.9400 C   0  0  0  0  0  0  0  0  0  0  0  0
  160.8540  201.7630  150.5770 C   0  0  0  0  0  2  0  0  0  0  0  0
  160.7940  202.3300  148.1500 C   0  0  2  0  0  3  0  0  0  0  0  0
  160.6590  201.5780  145.9350 C   0  0  0  0  0  1  0  0  0  0  0  0
  161.1640  204.5290  147.6030 N   0  0  0  0  0  2  0  0  0  0  0  0
  160.7660  203.7500  148.5390 C   0  0  2  0  0  3  0  0  0  0  0  0
  161.5510  201.5490  149.2240 C   0  0  0  0  0  2  0  0  0  0  0  0
  162.6230  208.2490  148.7500 C   0  0  0  0  0  2  0  0  0  0  0  0
  161.7490  209.4580  148.4620 C   0  0  0  0  0  2  0  0  0  0  0  0
  161.7820  211.1240  150.1640 O   0  0  0  0  0  1  0  0  0  0  0  0
  162.4110  210.7220  148.9850 C   0  0  2  0  0  3  0  0  0  0  0  0
  162.2990  211.8110  147.9760 C   0  0  0  0  0  3  0  0  0  0  0  0
  161.1110  212.2210  147.5540 C   0  0  0  0  0  3  0  0  0  0  0  0
  159.9260  213.3720  145.6820 C   0  0  0  0  0  0  0  0  0  0  0  0
  159.0200  212.4910  145.6730 O   0  0  0  0  0  0  0  0  0  0  0  0
  161.0180  213.2730  146.5970 N   0  0  0  0  0  2  0  0  0  0  0  0
  159.8770  214.4520  144.7960 O   0  0  0  0  0  0  0  0  0  0  0  0
  160.0960  214.3030  143.3970 C   0  0  0  0  0  2  0  0  0  0  0  0
  159.9780  212.1200  142.4400 O   0  0  0  0  0  0  0  0  0  0  0  0
  161.9680  213.2690  142.3290 O   0  0  0  0  0  0  0  0  0  0  0  0
  160.8150  211.3970  141.5930 C   0  0  0  0  0  2  0  0  0  0  0  0
  160.8330  213.0080  143.1080 C   0  0  0  0  0  3  0  0  0  0  0  0
  162.1360  212.1090  141.5810 C   0  0  0  0  0  2  0  0  0  0  0  0
  161.3380  205.5270  152.7920 C   0  0  0  0  0  2  0  0  0  0  0  0
  161.9890  206.4890  153.7740 C   0  0  0  0  0  2  0  0  0  0  0  0
  162.0000  210.0240  154.0900 O   0  0  0  0  0  1  0  0  0  0  0  0
  160.9910  209.3370  154.7620 C   0  0  2  0  0  3  0  0  0  0  0  0
  161.5930  208.1800  155.5430 C   0  0  2  0  0  3  0  0  0  0  0  0
  160.3340  208.3470  153.8180 C   0  0  0  0  0  2  0  0  0  0  0  0
  160.9290  207.1910  154.6040 C   0  0  1  0  0  3  0  0  0  0  0  0
  159.8460  209.4450  157.1470 O   0  0  0  0  0  1  0  0  0  0  0  0
  159.6000  206.8980  156.9110 O   0  0  0  0  0  1  0  0  0  0  0  0
  160.8620  208.0410  157.2610 P   0  0  0  0  0  0  0  0  0  0  0  0
  1  4  2  0  0  0  0
  1  5  1  0  0  0  0
  2  3  2  0  0  0  0
  3 32  1  0  0  0  0
  4  2  1  0  0  0  0
  5  9  1  6  0  0  0
  5  3  1  0  0  0  0
  6 11  1  0  0  0  0
  7  6  1  0  0  0  0
  7 13  1  0  0  0  0
  9  8  2  0  0  0  0
 10  8  1  0  0  0  0
 11 14  1  0  0  0  0
 11 15  1  1  0  0  0
 12  6  1  0  0  0  0
 14 13  1  1  0  0  0
 14  9  1  0  0  0  0
 15 10  1  0  0  0  0
 16  4  1  0  0  0  0
 17 16  1  0  0  0  0
 17 19  1  0  0  0  0
 19 18  1  1  0  0  0
 20 19  1  0  0  0  0
 21 20  2  0  0  0  0
 22 24  1  0  0  0  0
 23 22  2  0  0  0  0
 24 21  1  0  0  0  0
 25 22  1  0  0  0  0
 26 25  1  0  0  0  0
 27 30  1  0  0  0  0
 28 30  1  0  0  0  0
 29 27  1  0  0  0  0
 30 26  1  0  0  0  0
 31 29  1  0  0  0  0
 31 28  1  0  0  0  0
 32 33  1  0  0  0  0
 35 34  1  6  0  0  0
 35 36  1  0  0  0  0
 36 41  1  1  0  0  0
 37 38  1  0  0  0  0
 37 35  1  0  0  0  0
 38 33  1  6  0  0  0
 38 36  1  0  0  0  0
 39 41  1  0  0  0  0
 40 41  1  0  0  0  0
M  END
>  <MODEL>
4

>  <REMARK>
 VINA RESULT:      -6.9      1.698      2.752
  Name = 
  13 active torsions:
  status: ('A' for Active; 'I' for Inactive)
    1  A    between atoms: C_1  and  C_20
    2  A    between atoms: C_1  and  C_33
    3  A    between atoms: C_5  and  C_15
    4  A    between atoms: C_5  and  C_36
    5  A    between atoms: C_10  and  C_15
    6  A    between atoms: C_12  and  O_28
    7  A    between atoms: C_12  and  C_34
    8  A    between atoms: C_13  and  C_22
    9  A    between atoms: C_14  and  O_28
   10  A    between atoms: C_24  and  P_25
   11  A    between atoms: C_33  and  C_41
   12  A    between atoms: N_35  and  C_40
   13  A    between atoms: C_37  and  C_41
                            x       y       z     vdW  Elec       q    Type
                         _______ _______ _______ _____ _____    ______ ____

>  <TORSDO>
F 13

$$$$
=
 OpenBabel11052411213D

 41 45  0  0  1  0  0  0  0  0999 V2000
  162.5830  208.9820  150.1680 C   0  0  0  0  0  3  0  0  0  0  0  0
  161.2790  207.8090  148.6890 C   0  0  0  0  0  3  0  0  0  0  0  0
  161.6690  206.9250  149.5920 C   0  0  0  0  0  0  0  0  0  0  0  0
  161.8680  209.0850  149.0600 C   0  0  0  0  0  0  0  0  0  0  0  0
  162.5490  207.5620  150.6310 C   0  0  2  0  0  3  0  0  0  0  0  0
  160.0780  209.7550  154.2010 N   0  0  0  0  0  0  0  0  0  0  0  0
  160.3580  210.5600  153.0040 C   0  0  0  0  0  2  0  0  0  0  0  0
  161.8380  206.2640  152.6360 C   0  0  0  0  0  3  0  0  0  0  0  0
  161.9750  207.4510  152.0190 C   0  0  0  0  0  0  0  0  0  0  0  0
  161.2550  206.1420  154.0270 C   0  0  0  0  0  2  0  0  0  0  0  0
  160.9900  208.6200  154.0900 C   0  0  2  0  0  3  0  0  0  0  0  0
  160.5100  210.5370  155.3490 C   0  0  0  0  0  1  0  0  0  0  0  0
  161.0780  209.7110  152.0710 N   0  0  0  0  0  2  0  0  0  0  0  0
  161.4420  208.6490  152.6890 C   0  0  2  0  0  3  0  0  0  0  0  0
  160.2830  207.2890  154.3430 C   0  0  0  0  0  2  0  0  0  0  0  0
  161.6440  210.3650  148.3340 C   0  0  0  0  0  2  0  0  0  0  0  0
  162.1940  211.5240  149.1490 C   0  0  0  0  0  2  0  0  0  0  0  0
  160.4780  213.1250  149.5560 O   0  0  0  0  0  1  0  0  0  0  0  0
  161.5470  212.8280  148.7110 C   0  0  2  0  0  3  0  0  0  0  0  0
  161.0470  212.7040  147.3140 C   0  0  0  0  0  3  0  0  0  0  0  0
  161.7380  213.2100  146.3020 C   0  0  0  0  0  3  0  0  0  0  0  0
  162.1330  213.0040  143.8460 C   0  0  0  0  0  0  0  0  0  0  0  0
  163.3820  213.1070  144.0070 O   0  0  0  0  0  0  0  0  0  0  0  0
  161.2540  213.0720  144.9690 N   0  0  0  0  0  2  0  0  0  0  0  0
  161.5930  212.8270  142.5680 O   0  0  0  0  0  0  0  0  0  0  0  0
  160.6820  211.7770  142.2620 C   0  0  0  0  0  2  0  0  0  0  0  0
  160.4040  211.2850  139.9440 O   0  0  0  0  0  0  0  0  0  0  0  0
  162.5250  211.2580  140.8320 O   0  0  0  0  0  0  0  0  0  0  0  0
  161.2890  211.1760  138.8730 C   0  0  0  0  0  2  0  0  0  0  0  0
  161.1750  210.9740  141.0730 C   0  0  0  0  0  3  0  0  0  0  0  0
  162.6670  211.0840  139.4600 C   0  0  0  0  0  2  0  0  0  0  0  0
  161.2540  205.4860  149.5390 C   0  0  0  0  0  2  0  0  0  0  0  0
  160.7210  205.0960  148.1690 C   0  0  0  0  0  2  0  0  0  0  0  0
  161.6540  205.3850  144.7570 O   0  0  0  0  0  1  0  0  0  0  0  0
  162.1540  204.2850  145.4540 C   0  0  2  0  0  3  0  0  0  0  0  0
  161.0250  203.6060  146.2110 C   0  0  2  0  0  3  0  0  0  0  0  0
  162.7500  204.7460  146.7700 C   0  0  0  0  0  2  0  0  0  0  0  0
  161.6270  204.0590  147.5280 C   0  0  1  0  0  3  0  0  0  0  0  0
  160.3550  201.3980  147.5900 O   0  0  0  0  0  1  0  0  0  0  0  0
  159.6760  201.4930  145.1130 O   0  0  0  0  0  1  0  0  0  0  0  0
  161.1100  201.7410  146.0640 P   0  0  0  0  0  0  0  0  0  0  0  0
  1  5  1  0  0  0  0
  2  4  1  0  0  0  0
  2  3  2  0  0  0  0
  3  5  1  0  0  0  0
  4  1  2  0  0  0  0
  5  9  1  1  0  0  0
  6 12  1  0  0  0  0
  7  6  1  0  0  0  0
  8 10  1  0  0  0  0
  9  8  2  0  0  0  0
 10 15  1  0  0  0  0
 11  6  1  0  0  0  0
 11 15  1  6  0  0  0
 13 14  1  0  0  0  0
 13  7  1  0  0  0  0
 14  9  1  6  0  0  0
 14 11  1  0  0  0  0
 16  4  1  0  0  0  0
 16 17  1  0  0  0  0
 19 17  1  0  0  0  0
 19 18  1  1  0  0  0
 20 19  1  0  0  0  0
 21 20  2  0  0  0  0
 22 23  2  0  0  0  0
 22 24  1  0  0  0  0
 24 21  1  0  0  0  0
 25 22  1  0  0  0  0
 26 25  1  0  0  0  0
 27 30  1  0  0  0  0
 28 30  1  0  0  0  0
 29 31  1  0  0  0  0
 29 27  1  0  0  0  0
 30 26  1  0  0  0  0
 31 28  1  0  0  0  0
 32  3  1  0  0  0  0
 33 32  1  0  0  0  0
 35 34  1  6  0  0  0
 35 36  1  0  0  0  0
 35 37  1  0  0  0  0
 36 41  1  1  0  0  0
 36 38  1  0  0  0  0
 37 38  1  0  0  0  0
 38 33  1  6  0  0  0
 40 41  1  0  0  0  0
 41 39  1  0  0  0  0
M  END
>  <MODEL>
5

>  <REMARK>
 VINA RESULT:      -6.9      3.492      6.131
  Name = 
  13 active torsions:
  status: ('A' for Active; 'I' for Inactive)
    1  A    between atoms: C_1  and  C_20
    2  A    between atoms: C_1  and  C_33
    3  A    between atoms: C_5  and  C_15
    4  A    between atoms: C_5  and  C_36
    5  A    between atoms: C_10  and  C_15
    6  A    between atoms: C_12  and  O_28
    7  A    between atoms: C_12  and  C_34
    8  A    between atoms: C_13  and  C_22
    9  A    between atoms: C_14  and  O_28
   10  A    between atoms: C_24  and  P_25
   11  A    between atoms: C_33  and  C_41
   12  A    between atoms: N_35  and  C_40
   13  A    between atoms: C_37  and  C_41
                            x       y       z     vdW  Elec       q    Type
                         _______ _______ _______ _____ _____    ______ ____

>  <TORSDO>
F 13

$$$$
=
 OpenBabel11052411213D

 41 45  0  0  1  0  0  0  0  0999 V2000
  160.3760  207.8150  153.0970 C   0  0  0  0  0  3  0  0  0  0  0  0
  162.2120  207.8100  151.7220 C   0  0  0  0  0  3  0  0  0  0  0  0
  161.7190  209.0350  151.6460 C   0  0  0  0  0  0  0  0  0  0  0  0
  161.3540  207.0610  152.6240 C   0  0  0  0  0  0  0  0  0  0  0  0
  160.4910  209.1800  152.5020 C   0  0  2  0  0  3  0  0  0  0  0  0
  158.5410  213.0230  154.7590 N   0  0  0  0  0  0  0  0  0  0  0  0
  157.7680  212.4510  153.6470 C   0  0  0  0  0  2  0  0  0  0  0  0
  161.5960  210.1340  154.5220 C   0  0  0  0  0  3  0  0  0  0  0  0
  160.6530  210.2320  153.5680 C   0  0  0  0  0  0  0  0  0  0  0  0
  161.7600  211.1810  155.6020 C   0  0  0  0  0  2  0  0  0  0  0  0
  159.8800  212.4650  154.5880 C   0  0  2  0  0  3  0  0  0  0  0  0
  158.6410  214.4530  154.5130 C   0  0  0  0  0  1  0  0  0  0  0  0
  158.5190  211.3150  153.1390 N   0  0  0  0  0  2  0  0  0  0  0  0
  159.6930  211.3450  153.6500 C   0  0  2  0  0  3  0  0  0  0  0  0
  160.4410  211.9110  155.8970 C   0  0  0  0  0  2  0  0  0  0  0  0
  161.5790  205.6460  153.0280 C   0  0  0  0  0  2  0  0  0  0  0  0
  162.1090  204.8490  151.8480 C   0  0  0  0  0  2  0  0  0  0  0  0
  161.5060  202.5560  151.6200 O   0  0  0  0  0  1  0  0  0  0  0  0
  161.0620  203.8550  151.3720 C   0  0  2  0  0  3  0  0  0  0  0  0
  160.8290  204.0220  149.9110 C   0  0  0  0  0  3  0  0  0  0  0  0
  160.6750  205.2290  149.3860 C   0  0  0  0  0  3  0  0  0  0  0  0
  161.2190  206.2980  147.1960 C   0  0  0  0  0  0  0  0  0  0  0  0
  162.0750  207.0510  147.7420 O   0  0  0  0  0  0  0  0  0  0  0  0
  160.4660  205.3740  147.9830 N   0  0  0  0  0  2  0  0  0  0  0  0
  160.9910  206.3620  145.8180 O   0  0  0  0  0  0  0  0  0  0  0  0
  161.9090  205.8320  144.8670 C   0  0  0  0  0  2  0  0  0  0  0  0
  162.1000  203.5790  145.6300 O   0  0  0  0  0  0  0  0  0  0  0  0
  160.2190  204.1920  144.4580 O   0  0  0  0  0  0  0  0  0  0  0  0
  161.2010  202.5180  145.7250 C   0  0  0  0  0  2  0  0  0  0  0  0
  161.6020  204.3720  144.5870 C   0  0  0  0  0  3  0  0  0  0  0  0
  160.0060  202.8900  144.8980 C   0  0  0  0  0  2  0  0  0  0  0  0
  162.3470  210.1030  150.8030 C   0  0  0  0  0  2  0  0  0  0  0  0
  161.3940  211.2620  150.5490 C   0  0  0  0  0  2  0  0  0  0  0  0
  164.0060  212.5330  148.5090 O   0  0  0  0  0  1  0  0  0  0  0  0
  162.8020  212.2310  147.8730 C   0  0  2  0  0  3  0  0  0  0  0  0
  161.6470  212.8380  148.6530 C   0  0  2  0  0  3  0  0  0  0  0  0
  162.3420  210.8460  148.2860 C   0  0  0  0  0  2  0  0  0  0  0  0
  161.1820  211.4520  149.0580 C   0  0  1  0  0  3  0  0  0  0  0  0
  161.5100  214.0770  146.2710 O   0  0  0  0  0  1  0  0  0  0  0  0
  159.8030  212.2110  146.7300 O   0  0  0  0  0  1  0  0  0  0  0  0
  160.3880  213.6430  147.5240 P   0  0  0  0  0  0  0  0  0  0  0  0
  2  4  1  0  0  0  0
  3  2  2  0  0  0  0
  3  5  1  0  0  0  0
  4 16  1  0  0  0  0
  4  1  2  0  0  0  0
  5  1  1  0  0  0  0
  5  9  1  1  0  0  0
  7  6  1  0  0  0  0
  8 10  1  0  0  0  0
  9 14  1  0  0  0  0
  9  8  2  0  0  0  0
 10 15  1  0  0  0  0
 11  6  1  0  0  0  0
 11 15  1  1  0  0  0
 12  6  1  0  0  0  0
 13  7  1  0  0  0  0
 14 13  1  1  0  0  0
 14 11  1  0  0  0  0
 17 16  1  0  0  0  0
 19 18  1  6  0  0  0
 19 17  1  0  0  0  0
 20 19  1  0  0  0  0
 21 20  2  0  0  0  0
 22 23  2  0  0  0  0
 22 24  1  0  0  0  0
 24 21  1  0  0  0  0
 25 22  1  0  0  0  0
 26 25  1  0  0  0  0
 27 29  1  0  0  0  0
 28 30  1  0  0  0  0
 28 31  1  0  0  0  0
 30 26  1  0  0  0  0
 30 27  1  0  0  0  0
 31 29  1  0  0  0  0
 32  3  1  0  0  0  0
 33 32  1  0  0  0  0
 35 37  1  0  0  0  0
 35 34  1  1  0  0  0
 35 36  1  0  0  0  0
 36 41  1  6  0  0  0
 36 38  1  0  0  0  0
 37 38  1  0  0  0  0
 38 33  1  1  0  0  0
 39 41  1  0  0  0  0
 40 41  1  0  0  0  0
M  END
>  <MODEL>
6

>  <REMARK>
 VINA RESULT:      -6.9      4.071      8.512
  Name = 
  13 active torsions:
  status: ('A' for Active; 'I' for Inactive)
    1  A    between atoms: C_1  and  C_20
    2  A    between atoms: C_1  and  C_33
    3  A    between atoms: C_5  and  C_15
    4  A    between atoms: C_5  and  C_36
    5  A    between atoms: C_10  and  C_15
    6  A    between atoms: C_12  and  O_28
    7  A    between atoms: C_12  and  C_34
    8  A    between atoms: C_13  and  C_22
    9  A    between atoms: C_14  and  O_28
   10  A    between atoms: C_24  and  P_25
   11  A    between atoms: C_33  and  C_41
   12  A    between atoms: N_35  and  C_40
   13  A    between atoms: C_37  and  C_41
                            x       y       z     vdW  Elec       q    Type
                         _______ _______ _______ _____ _____    ______ ____

>  <TORSDO>
F 13

$$$$
=
 OpenBabel11052411213D

 41 45  0  0  1  0  0  0  0  0999 V2000
  160.8430  207.8960  149.2480 C   0  0  0  0  0  3  0  0  0  0  0  0
  162.5400  208.1360  150.7740 C   0  0  0  0  0  3  0  0  0  0  0  0
  161.8840  207.0490  151.1440 C   0  0  0  0  0  0  0  0  0  0  0  0
  161.8690  208.6570  149.5950 C   0  0  0  0  0  0  0  0  0  0  0  0
  160.7250  206.7740  150.2270 C   0  0  2  0  0  3  0  0  0  0  0  0
  162.1530  204.3300  146.2710 N   0  0  0  0  0  0  0  0  0  0  0  0
  162.3190  205.7900  146.2370 C   0  0  0  0  0  2  0  0  0  0  0  0
  160.6830  204.2820  150.2160 C   0  0  0  0  0  3  0  0  0  0  0  0
  160.8360  205.4360  149.5430 C   0  0  0  0  0  0  0  0  0  0  0  0
  160.8000  202.9340  149.5400 C   0  0  0  0  0  2  0  0  0  0  0  0
  161.2310  204.1000  147.3790 C   0  0  2  0  0  3  0  0  0  0  0  0
  161.4550  203.9550  145.0510 C   0  0  0  0  0  1  0  0  0  0  0  0
  161.8530  206.3070  147.5130 N   0  0  0  0  0  2  0  0  0  0  0  0
  161.2330  205.3690  148.1270 C   0  0  2  0  0  3  0  0  0  0  0  0
  161.7170  202.9900  148.3090 C   0  0  0  0  0  2  0  0  0  0  0  0
  162.3130  209.8500  148.8240 C   0  0  0  0  0  2  0  0  0  0  0  0
  161.8280  211.1170  149.5070 C   0  0  0  0  0  2  0  0  0  0  0  0
  161.4550  213.4360  149.1110 O   0  0  0  0  0  1  0  0  0  0  0  0
  162.1950  212.3360  148.6760 C   0  0  2  0  0  3  0  0  0  0  0  0
  161.8960  212.0810  147.2400 C   0  0  0  0  0  3  0  0  0  0  0  0
  161.1810  212.9480  146.5350 C   0  0  0  0  0  3  0  0  0  0  0  0
  159.5960  212.4280  144.6780 C   0  0  0  0  0  0  0  0  0  0  0  0
  158.6250  212.3660  145.4830 O   0  0  0  0  0  0  0  0  0  0  0  0
  160.9140  212.6970  145.1580 N   0  0  0  0  0  2  0  0  0  0  0  0
  159.3980  212.2310  143.3080 O   0  0  0  0  0  0  0  0  0  0  0  0
  160.4320  212.4320  142.3500 C   0  0  0  0  0  2  0  0  0  0  0  0
  159.8390  211.2150  140.3840 O   0  0  0  0  0  0  0  0  0  0  0  0
  158.5560  213.0240  140.9930 O   0  0  0  0  0  0  0  0  0  0  0  0
  158.7100  211.2040  139.5670 C   0  0  0  0  0  2  0  0  0  0  0  0
  159.8530  212.4990  140.9480 C   0  0  0  0  0  3  0  0  0  0  0  0
  157.9120  212.4260  139.9150 C   0  0  0  0  0  2  0  0  0  0  0  0
  162.2900  206.2320  152.3330 C   0  0  0  0  0  2  0  0  0  0  0  0
  161.2880  206.3450  153.4720 C   0  0  0  0  0  2  0  0  0  0  0  0
  159.1550  207.2170  156.1720 O   0  0  0  0  0  1  0  0  0  0  0  0
  160.1840  208.1090  155.8710 C   0  0  2  0  0  3  0  0  0  0  0  0
  160.2020  208.3820  154.3760 C   0  0  2  0  0  3  0  0  0  0  0  0
  161.4910  207.3500  155.7400 C   0  0  0  0  0  2  0  0  0  0  0  0
  161.5140  207.6310  154.2470 C   0  0  1  0  0  3  0  0  0  0  0  0
  162.1420  210.0810  153.6180 O   0  0  0  0  0  1  0  0  0  0  0  0
  159.9100  210.1990  152.3500 O   0  0  0  0  0  1  0  0  0  0  0  0
  160.4520  210.1990  154.0020 P   0  0  0  0  0  0  0  0  0  0  0  0
  1  4  2  0  0  0  0
  1  5  1  0  0  0  0
  2  3  2  0  0  0  0
  3 32  1  0  0  0  0
  4  2  1  0  0  0  0
  5  9  1  6  0  0  0
  5  3  1  0  0  0  0
  6 11  1  0  0  0  0
  7  6  1  0  0  0  0
  7 13  1  0  0  0  0
  9  8  2  0  0  0  0
 10  8  1  0  0  0  0
 11 14  1  0  0  0  0
 11 15  1  1  0  0  0
 12  6  1  0  0  0  0
 14 13  1  1  0  0  0
 14  9  1  0  0  0  0
 15 10  1  0  0  0  0
 16 17  1  0  0  0  0
 16  4  1  0  0  0  0
 19 18  1  1  0  0  0
 19 17  1  0  0  0  0
 20 19  1  0  0  0  0
 21 20  2  0  0  0  0
 22 24  1  0  0  0  0
 22 23  2  0  0  0  0
 24 21  1  0  0  0  0
 25 22  1  0  0  0  0
 26 25  1  0  0  0  0
 27 30  1  0  0  0  0
 29 31  1  0  0  0  0
 29 27  1  0  0  0  0
 30 28  1  0  0  0  0
 30 26  1  0  0  0  0
 31 28  1  0  0  0  0
 32 33  1  0  0  0  0
 35 34  1  6  0  0  0
 36 41  1  1  0  0  0
 36 35  1  0  0  0  0
 37 35  1  0  0  0  0
 38 33  1  6  0  0  0
 38 36  1  0  0  0  0
 38 37  1  0  0  0  0
 39 41  1  0  0  0  0
 40 41  1  0  0  0  0
M  END
>  <MODEL>
7

>  <REMARK>
 VINA RESULT:      -6.7      1.614      2.324
  Name = 
  13 active torsions:
  status: ('A' for Active; 'I' for Inactive)
    1  A    between atoms: C_1  and  C_20
    2  A    between atoms: C_1  and  C_33
    3  A    between atoms: C_5  and  C_15
    4  A    between atoms: C_5  and  C_36
    5  A    between atoms: C_10  and  C_15
    6  A    between atoms: C_12  and  O_28
    7  A    between atoms: C_12  and  C_34
    8  A    between atoms: C_13  and  C_22
    9  A    between atoms: C_14  and  O_28
   10  A    between atoms: C_24  and  P_25
   11  A    between atoms: C_33  and  C_41
   12  A    between atoms: N_35  and  C_40
   13  A    between atoms: C_37  and  C_41
                            x       y       z     vdW  Elec       q    Type
                         _______ _______ _______ _____ _____    ______ ____

>  <TORSDO>
F 13

$$$$
=
 OpenBabel11052411213D

 41 45  0  0  1  0  0  0  0  0999 V2000
  160.8550  206.6310  149.0700 C   0  0  0  0  0  3  0  0  0  0  0  0
  162.4180  208.1040  148.2640 C   0  0  0  0  0  3  0  0  0  0  0  0
  161.8900  208.6950  149.3220 C   0  0  0  0  0  0  0  0  0  0  0  0
  161.7520  206.8210  148.1160 C   0  0  0  0  0  0  0  0  0  0  0  0
  160.8300  207.8350  149.9530 C   0  0  2  0  0  3  0  0  0  0  0  0
  160.6430  209.1670  154.6280 N   0  0  0  0  0  0  0  0  0  0  0  0
  160.1310  210.1350  153.6470 C   0  0  0  0  0  2  0  0  0  0  0  0
  161.4840  206.2230  151.7370 C   0  0  0  0  0  3  0  0  0  0  0  0
  161.1530  207.4760  151.3800 C   0  0  0  0  0  0  0  0  0  0  0  0
  161.8020  205.8510  153.1680 C   0  0  0  0  0  2  0  0  0  0  0  0
  161.4210  208.2250  153.8280 C   0  0  2  0  0  3  0  0  0  0  0  0
  161.5830  209.8820  155.4770 C   0  0  0  0  0  1  0  0  0  0  0  0
  160.2640  209.5290  152.3330 N   0  0  0  0  0  2  0  0  0  0  0  0
  160.9970  208.4840  152.4410 C   0  0  2  0  0  3  0  0  0  0  0  0
  161.0910  206.7730  154.1710 C   0  0  0  0  0  2  0  0  0  0  0  0
  162.0790  205.8110  147.0730 C   0  0  0  0  0  2  0  0  0  0  0  0
  160.8750  205.5880  146.1740 C   0  0  0  0  0  2  0  0  0  0  0  0
  162.6410  204.5850  144.9290 O   0  0  0  0  0  1  0  0  0  0  0  0
  161.3160  205.0110  144.8380 C   0  0  2  0  0  3  0  0  0  0  0  0
  161.2070  206.0480  143.7760 C   0  0  0  0  0  3  0  0  0  0  0  0
  161.7050  205.8300  142.5660 C   0  0  0  0  0  3  0  0  0  0  0  0
  162.2800  206.7380  140.3130 C   0  0  0  0  0  0  0  0  0  0  0  0
  163.0690  205.7760  140.0930 O   0  0  0  0  0  0  0  0  0  0  0  0
  161.5810  206.8270  141.5550 N   0  0  0  0  0  2  0  0  0  0  0  0
  162.0820  207.7300  139.3480 O   0  0  0  0  0  0  0  0  0  0  0  0
  160.8480  208.4250  139.2080 C   0  0  0  0  0  2  0  0  0  0  0  0
  161.1080  210.2680  140.7020 O   0  0  0  0  0  0  0  0  0  0  0  0
  162.2510  210.2930  138.7070 O   0  0  0  0  0  0  0  0  0  0  0  0
  162.0000  211.3370  140.7610 C   0  0  0  0  0  2  0  0  0  0  0  0
  161.0610  209.9220  139.3450 C   0  0  0  0  0  3  0  0  0  0  0  0
  162.6910  211.3960  139.4310 C   0  0  0  0  0  2  0  0  0  0  0  0
  162.3320  210.0480  149.7910 C   0  0  0  0  0  2  0  0  0  0  0  0
  162.4530  211.0380  148.6430 C   0  0  0  0  0  2  0  0  0  0  0  0
  162.3120  213.8230  146.4460 O   0  0  0  0  0  1  0  0  0  0  0  0
  161.1540  213.5320  147.1670 C   0  0  2  0  0  3  0  0  0  0  0  0
  161.5030  213.3280  148.6320 C   0  0  2  0  0  3  0  0  0  0  0  0
  160.8370  212.0530  147.0450 C   0  0  0  0  0  2  0  0  0  0  0  0
  161.1770  211.8510  148.5120 C   0  0  1  0  0  3  0  0  0  0  0  0
  158.8580  213.7450  148.8650 O   0  0  0  0  0  1  0  0  0  0  0  0
  160.1080  212.9140  150.9500 O   0  0  0  0  0  1  0  0  0  0  0  0
  160.2780  214.1750  149.7670 P   0  0  0  0  0  0  0  0  0  0  0  0
  1  5  1  0  0  0  0
  2  3  2  0  0  0  0
  3 32  1  0  0  0  0
  3  5  1  0  0  0  0
  4  2  1  0  0  0  0
  4  1  2  0  0  0  0
  5  9  1  1  0  0  0
  6 12  1  0  0  0  0
  7  6  1  0  0  0  0
  8 10  1  0  0  0  0
  9  8  2  0  0  0  0
 10 15  1  0  0  0  0
 11 15  1  1  0  0  0
 11  6  1  0  0  0  0
 13 14  1  0  0  0  0
 13  7  1  0  0  0  0
 14  9  1  1  0  0  0
 14 11  1  0  0  0  0
 16  4  1  0  0  0  0
 17 16  1  0  0  0  0
 19 18  1  1  0  0  0
 19 17  1  0  0  0  0
 20 19  1  0  0  0  0
 21 20  2  0  0  0  0
 22 24  1  0  0  0  0
 23 22  2  0  0  0  0
 24 21  1  0  0  0  0
 25 22  1  0  0  0  0
 26 30  1  0  0  0  0
 26 25  1  0  0  0  0
 27 29  1  0  0  0  0
 28 30  1  0  0  0  0
 28 31  1  0  0  0  0
 30 27  1  0  0  0  0
 31 29  1  0  0  0  0
 33 32  1  0  0  0  0
 35 34  1  6  0  0  0
 35 36  1  0  0  0  0
 36 41  1  1  0  0  0
 37 35  1  0  0  0  0
 37 38  1  0  0  0  0
 38 36  1  0  0  0  0
 38 33  1  6  0  0  0
 39 41  1  0  0  0  0
 41 40  1  0  0  0  0
M  END
>  <MODEL>
8

>  <REMARK>
 VINA RESULT:      -6.4      3.184      6.573
  Name = 
  13 active torsions:
  status: ('A' for Active; 'I' for Inactive)
    1  A    between atoms: C_1  and  C_20
    2  A    between atoms: C_1  and  C_33
    3  A    between atoms: C_5  and  C_15
    4  A    between atoms: C_5  and  C_36
    5  A    between atoms: C_10  and  C_15
    6  A    between atoms: C_12  and  O_28
    7  A    between atoms: C_12  and  C_34
    8  A    between atoms: C_13  and  C_22
    9  A    between atoms: C_14  and  O_28
   10  A    between atoms: C_24  and  P_25
   11  A    between atoms: C_33  and  C_41
   12  A    between atoms: N_35  and  C_40
   13  A    between atoms: C_37  and  C_41
                            x       y       z     vdW  Elec       q    Type
                         _______ _______ _______ _____ _____    ______ ____

>  <TORSDO>
F 13

$$$$
=
 OpenBabel11052411213D

 41 45  0  0  1  0  0  0  0  0999 V2000
  162.5890  210.1060  150.2790 C   0  0  0  0  0  3  0  0  0  0  0  0
  161.4680  209.5980  148.3430 C   0  0  0  0  0  3  0  0  0  0  0  0
  161.7080  208.4360  148.9260 C   0  0  0  0  0  0  0  0  0  0  0  0
  162.0340  210.6280  149.1970 C   0  0  0  0  0  0  0  0  0  0  0  0
  162.4560  208.6200  150.2170 C   0  0  2  0  0  3  0  0  0  0  0  0
  161.4280  204.7620  152.9960 N   0  0  0  0  0  0  0  0  0  0  0  0
  162.3060  204.5250  151.8420 C   0  0  0  0  0  2  0  0  0  0  0  0
  161.1380  208.9070  152.3130 C   0  0  0  0  0  3  0  0  0  0  0  0
  161.6960  208.0880  151.4040 C   0  0  0  0  0  0  0  0  0  0  0  0
  160.3790  208.3810  153.5110 C   0  0  0  0  0  2  0  0  0  0  0  0
  160.8150  206.0580  152.7200 C   0  0  2  0  0  3  0  0  0  0  0  0
  160.3680  203.7680  152.9320 C   0  0  0  0  0  1  0  0  0  0  0  0
  162.4930  205.8020  151.1740 N   0  0  0  0  0  2  0  0  0  0  0  0
  161.6490  206.6370  151.6520 C   0  0  2  0  0  3  0  0  0  0  0  0
  160.8680  206.9870  153.9320 C   0  0  0  0  0  2  0  0  0  0  0  0
  161.9440  212.0910  148.9350 C   0  0  0  0  0  2  0  0  0  0  0  0
  162.8690  212.4690  147.7910 C   0  0  0  0  0  2  0  0  0  0  0  0
  160.7810  213.3240  147.0260 O   0  0  0  0  0  1  0  0  0  0  0  0
  162.1600  213.4100  146.8310 C   0  0  2  0  0  3  0  0  0  0  0  0
  162.4790  213.0380  145.4250 C   0  0  0  0  0  3  0  0  0  0  0  0
  161.7260  213.4720  144.4240 C   0  0  0  0  0  3  0  0  0  0  0  0
  161.2660  212.1920  142.3310 C   0  0  0  0  0  0  0  0  0  0  0  0
  160.2700  211.6230  142.8610 O   0  0  0  0  0  0  0  0  0  0  0  0
  162.0510  213.1190  143.0820 N   0  0  0  0  0  2  0  0  0  0  0  0
  161.6190  211.9200  141.0050 O   0  0  0  0  0  0  0  0  0  0  0  0
  162.3450  210.7540  140.6310 C   0  0  0  0  0  2  0  0  0  0  0  0
  160.7740  210.1470  138.9410 O   0  0  0  0  0  0  0  0  0  0  0  0
  162.1190  208.5110  139.8380 O   0  0  0  0  0  0  0  0  0  0  0  0
  160.5950  209.0050  138.1630 C   0  0  0  0  0  2  0  0  0  0  0  0
  161.4040  209.6860  140.1060 C   0  0  0  0  0  3  0  0  0  0  0  0
  161.4170  207.9190  138.7940 C   0  0  0  0  0  2  0  0  0  0  0  0
  161.2670  207.1320  148.3330 C   0  0  0  0  0  2  0  0  0  0  0  0
  162.0250  206.8000  147.0570 C   0  0  0  0  0  2  0  0  0  0  0  0
  160.9270  204.4320  144.6510 O   0  0  0  0  0  1  0  0  0  0  0  0
  161.8230  203.9770  145.6180 C   0  0  2  0  0  3  0  0  0  0  0  0
  161.3540  204.4150  146.9950 C   0  0  2  0  0  3  0  0  0  0  0  0
  162.9930  204.9380  145.7190 C   0  0  0  0  0  2  0  0  0  0  0  0
  162.5290  205.3690  147.1010 C   0  0  1  0  0  3  0  0  0  0  0  0
  160.3030  203.6420  149.3460 O   0  0  0  0  0  1  0  0  0  0  0  0
  160.4840  201.8680  147.4950 O   0  0  0  0  0  1  0  0  0  0  0  0
  161.5150  203.0410  148.2570 P   0  0  0  0  0  0  0  0  0  0  0  0
  2  3  2  0  0  0  0
  2  4  1  0  0  0  0
  3  5  1  0  0  0  0
  4  1  2  0  0  0  0
  5  1  1  0  0  0  0
  5  9  1  1  0  0  0
  7  6  1  0  0  0  0
  8 10  1  0  0  0  0
  9 14  1  0  0  0  0
  9  8  2  0  0  0  0
 10 15  1  0  0  0  0
 11  6  1  0  0  0  0
 11 15  1  1  0  0  0
 12  6  1  0  0  0  0
 13  7  1  0  0  0  0
 14 13  1  1  0  0  0
 14 11  1  0  0  0  0
 16  4  1  0  0  0  0
 17 16  1  0  0  0  0
 19 18  1  6  0  0  0
 19 17  1  0  0  0  0
 20 19  1  0  0  0  0
 21 20  2  0  0  0  0
 22 23  2  0  0  0  0
 22 24  1  0  0  0  0
 24 21  1  0  0  0  0
 25 22  1  0  0  0  0
 26 25  1  0  0  0  0
 27 30  1  0  0  0  0
 28 30  1  0  0  0  0
 29 31  1  0  0  0  0
 29 27  1  0  0  0  0
 30 26  1  0  0  0  0
 31 28  1  0  0  0  0
 32  3  1  0  0  0  0
 33 32  1  0  0  0  0
 35 34  1  6  0  0  0
 35 37  1  0  0  0  0
 35 36  1  0  0  0  0
 36 38  1  0  0  0  0
 36 41  1  1  0  0  0
 37 38  1  0  0  0  0
 38 33  1  6  0  0  0
 40 41  1  0  0  0  0
 41 39  1  0  0  0  0
M  END
>  <MODEL>
9

>  <REMARK>
 VINA RESULT:      -6.4      3.023      5.421
  Name = 
  13 active torsions:
  status: ('A' for Active; 'I' for Inactive)
    1  A    between atoms: C_1  and  C_20
    2  A    between atoms: C_1  and  C_33
    3  A    between atoms: C_5  and  C_15
    4  A    between atoms: C_5  and  C_36
    5  A    between atoms: C_10  and  C_15
    6  A    between atoms: C_12  and  O_28
    7  A    between atoms: C_12  and  C_34
    8  A    between atoms: C_13  and  C_22
    9  A    between atoms: C_14  and  O_28
   10  A    between atoms: C_24  and  P_25
   11  A    between atoms: C_33  and  C_41
   12  A    between atoms: N_35  and  C_40
   13  A    between atoms: C_37  and  C_41
                            x       y       z     vdW  Elec       q    Type
                         _______ _______ _______ _____ _____    ______ ____

>  <TORSDO>
F 13

$$$$
