=
 OpenBabel11042422153D

 50 54  0  0  1  0  0  0  0  0999 V2000
  161.6600  206.2280  148.4100 N   0  0  0  0  0  0  0  0  0  0  0  0
  162.9180  209.6120  149.5920 C   0  0  0  0  0  2  0  0  0  0  0  0
  160.8300  208.2000  150.3680 C   0  0  0  0  0  2  0  0  0  0  0  0
  162.2640  210.7030  150.4680 C   0  0  2  0  0  3  0  0  0  0  0  0
  162.4010  207.4430  148.5940 C   0  0  0  0  0  3  0  0  0  0  0  0
  161.6510  210.1090  151.7130 C   0  0  0  0  0  3  0  0  0  0  0  0
  160.9900  208.9410  151.6690 C   0  0  0  0  0  3  0  0  0  0  0  0
  162.0780  208.3550  149.5180 C   0  0  0  0  0  0  0  0  0  0  0  0
  161.2470  211.4770  149.6280 C   0  0  0  0  0  2  0  0  0  0  0  0
  161.8840  212.0050  148.4260 N   0  0  0  0  0  2  0  0  0  0  0  0
  162.1030  214.1920  147.3110 C   0  0  0  0  0  2  0  0  0  0  0  0
  161.8840  214.0370  145.8080 C   0  0  2  0  0  3  0  0  0  0  0  0
  160.1260  212.8330  146.9640 C   0  0  2  0  0  3  0  0  0  0  0  0
  161.1610  213.2110  148.0110 C   0  0  1  0  0  3  0  0  0  0  0  0
  160.4140  213.6660  145.7080 C   0  0  0  0  0  2  0  0  0  0  0  0
  158.7490  212.9430  147.4790 N   0  0  0  0  0  0  0  0  0  0  0  0
  158.4450  214.3090  147.8960 C   0  0  0  0  0  1  0  0  0  0  0  0
  157.8240  212.5920  146.4060 C   0  0  0  0  0  1  0  0  0  0  0  0
  163.1470  213.3620  144.0800 C   0  0  0  0  0  1  0  0  0  0  0  0
  162.6470  212.9590  145.3280 O   0  0  0  0  0  0  0  0  0  0  0  0
  160.8280  203.9750  148.9820 C   0  0  0  0  0  2  0  0  0  0  0  0
  161.1260  202.7830  149.8810 C   0  0  0  0  0  2  0  0  0  0  0  0
  161.2340  204.4210  151.7770 C   0  0  0  0  0  0  0  0  0  0  0  0
  161.7360  205.1340  149.3910 C   0  0  2  0  0  3  0  0  0  0  0  0
  161.3720  205.5750  150.8210 C   0  0  0  0  0  2  0  0  0  0  0  0
  161.0590  203.1570  151.3360 C   0  0  0  0  0  3  0  0  0  0  0  0
  160.7070  207.1370  154.1360 C   0  0  0  0  0  3  0  0  0  0  0  0
  161.1650  204.7390  153.2110 C   0  0  0  0  0  3  0  0  0  0  0  0
  160.9340  205.9420  153.6670 C   0  0  0  0  0  0  0  0  0  0  0  0
  161.6200  207.6870  155.1760 C   0  0  0  0  0  2  0  0  0  0  0  0
  161.2570  209.1390  155.4660 C   0  0  0  0  0  2  0  0  0  0  0  0
  159.8200  208.3450  157.2150 O   0  0  0  0  0  0  0  0  0  0  0  0
  159.1080  210.3050  156.2260 N   0  0  0  0  0  2  0  0  0  0  0  0
  160.0610  209.2540  156.3750 C   0  0  0  0  0  0  0  0  0  0  0  0
  156.1890  213.2370  154.4300 C   0  0  0  0  0  1  0  0  0  0  0  0
  159.2600  211.5330  155.4530 C   0  0  1  0  0  0  0  0  0  0  0  0
  158.1310  211.6900  154.4460 C   0  0  1  0  0  3  0  0  0  0  0  0
  159.0890  212.7210  156.3890 C   0  0  0  0  0  2  0  0  0  0  0  0
  157.6830  213.1210  154.6590 C   0  0  2  0  0  3  0  0  0  0  0  0
  157.9690  213.4920  155.9910 O   0  0  0  0  0  0  0  0  0  0  0  0
  158.5490  211.5050  152.9870 C   0  0  0  0  0  1  0  0  0  0  0  0
  160.5240  211.5860  154.8600 O   0  0  0  0  0  1  0  0  0  0  0  0
  159.7020  205.9620  145.2980 C   0  0  0  0  0  3  0  0  0  0  0  0
  160.5780  205.2690  144.4670 C   0  0  0  0  0  2  0  0  0  0  0  0
  161.3020  205.9040  147.0490 C   0  0  2  0  0  3  0  0  0  0  0  0
  160.0800  206.2610  146.5690 N   0  0  0  0  0  0  0  0  0  0  0  0
  162.1890  205.2110  146.2080 C   0  0  0  0  0  0  0  0  0  0  0  0
  161.8020  204.9050  144.9360 N   0  0  0  0  0  0  0  0  0  0  0  0
  164.2970  203.9520  145.9740 C   0  0  0  0  0  1  0  0  0  0  0  0
  163.4630  204.8650  146.6620 O   0  0  0  0  0  0  0  0  0  0  0  0
  1  5  1  0  0  0  0
  2  4  1  0  0  0  0
  3  7  1  0  0  0  0
  4  9  1  6  0  0  0
  4  6  1  0  0  0  0
  5  8  2  0  0  0  0
  7  6  2  0  0  0  0
  8  2  1  0  0  0  0
  8  3  1  0  0  0  0
 10  9  1  0  0  0  0
 11 14  1  0  0  0  0
 12 20  1  1  0  0  0
 12 11  1  0  0  0  0
 13 16  1  1  0  0  0
 13 14  1  0  0  0  0
 14 10  1  6  0  0  0
 15 12  1  0  0  0  0
 15 13  1  0  0  0  0
 16 17  1  0  0  0  0
 18 16  1  0  0  0  0
 19 20  1  0  0  0  0
 21 24  1  0  0  0  0
 21 22  1  0  0  0  0
 22 26  1  0  0  0  0
 23 28  1  0  0  0  0
 24  1  1  6  0  0  0
 24 25  1  0  0  0  0
 25 23  1  0  0  0  0
 26 23  2  0  0  0  0
 27 30  1  0  0  0  0
 28 29  2  0  0  0  0
 29 27  2  0  0  0  0
 30 31  1  0  0  0  0
 31 34  1  0  0  0  0
 33 34  1  0  0  0  0
 34 32  2  0  0  0  0
 36 42  1  6  0  0  0
 36 33  1  0  0  0  0
 36 38  1  0  0  0  0
 37 41  1  6  0  0  0
 37 39  1  0  0  0  0
 37 36  1  0  0  0  0
 39 35  1  1  0  0  0
 39 40  1  0  0  0  0
 40 38  1  0  0  0  0
 43 46  2  0  0  0  0
 44 48  1  0  0  0  0
 44 43  1  0  0  0  0
 45  1  1  1  0  0  0
 46 45  1  0  0  0  0
 47 50  1  0  0  0  0
 47 45  1  0  0  0  0
 48 47  2  0  0  0  0
 49 50  1  0  0  0  0
M  END
>  <MODEL>
1

>  <REMARK>
 VINA RESULT:      -6.4      0.000      0.000
  Name = 
  14 active torsions:
  status: ('A' for Active; 'I' for Inactive)
    1  A    between atoms: N_1  and  C_7
    2  A    between atoms: N_1  and  C_49
    3  A    between atoms: C_4  and  N_33
    4  A    between atoms: C_7  and  C_23
    5  A    between atoms: C_12  and  C_14
    6  A    between atoms: C_12  and  C_43
    7  A    between atoms: C_14  and  C_15
    8  A    between atoms: N_17  and  C_22
    9  A    between atoms: N_17  and  C_24
   10  A    between atoms: N_17  and  C_32
   11  A    between atoms: C_19  and  C_36
   12  A    between atoms: C_27  and  O_44
   13  A    between atoms: N_29  and  C_48
   14  A    between atoms: O_35  and  C_41
                            x       y       z     vdW  Elec       q    Type
                         _______ _______ _______ _____ _____    ______ ____

>  <TORSDO>
F 14

$$$$
=
 OpenBabel11042422153D

 50 54  0  0  1  0  0  0  0  0999 V2000
  159.9700  211.1150  153.6980 N   0  0  0  0  0  0  0  0  0  0  0  0
  160.1310  213.7030  150.9210 C   0  0  0  0  0  2  0  0  0  0  0  0
  158.0610  212.4510  151.9720 C   0  0  0  0  0  2  0  0  0  0  0  0
  159.0810  214.1680  149.8890 C   0  0  2  0  0  3  0  0  0  0  0  0
  160.4020  212.0720  152.7200 C   0  0  0  0  0  3  0  0  0  0  0  0
  157.7530  214.4530  150.5490 C   0  0  0  0  0  3  0  0  0  0  0  0
  157.2820  213.6590  151.5230 C   0  0  0  0  0  3  0  0  0  0  0  0
  159.5500  212.7440  151.9380 C   0  0  0  0  0  0  0  0  0  0  0  0
  158.9680  213.1200  148.7800 C   0  0  0  0  0  2  0  0  0  0  0  0
  159.4200  213.6810  147.5100 N   0  0  0  0  0  2  0  0  0  0  0  0
  159.7110  212.1990  145.5630 C   0  0  0  0  0  2  0  0  0  0  0  0
  160.3830  212.9590  144.4220 C   0  0  2  0  0  3  0  0  0  0  0  0
  161.6010  213.4170  146.4670 C   0  0  2  0  0  3  0  0  0  0  0  0
  160.3160  212.7130  146.8700 C   0  0  1  0  0  3  0  0  0  0  0  0
  161.7820  213.2220  144.9560 C   0  0  0  0  0  2  0  0  0  0  0  0
  162.7500  212.9910  147.2890 N   0  0  0  0  0  0  0  0  0  0  0  0
  163.2330  214.0810  148.1310 C   0  0  0  0  0  1  0  0  0  0  0  0
  162.3130  211.9110  148.1700 C   0  0  0  0  0  1  0  0  0  0  0  0
  158.3820  213.9020  144.0490 C   0  0  0  0  0  1  0  0  0  0  0  0
  159.7420  214.1950  144.2360 O   0  0  0  0  0  0  0  0  0  0  0  0
  160.5330  208.9610  154.7650 C   0  0  0  0  0  2  0  0  0  0  0  0
  160.4460  207.4580  154.5430 C   0  0  0  0  0  2  0  0  0  0  0  0
  161.4930  207.8730  152.3020 C   0  0  0  0  0  0  0  0  0  0  0  0
  160.1320  209.6700  153.4720 C   0  0  2  0  0  3  0  0  0  0  0  0
  161.1650  209.3390  152.3790 C   0  0  0  0  0  2  0  0  0  0  0  0
  161.2170  207.0340  153.3230 C   0  0  0  0  0  3  0  0  0  0  0  0
  161.7250  208.1810  148.6870 C   0  0  0  0  0  3  0  0  0  0  0  0
  162.2460  207.4110  151.1260 C   0  0  0  0  0  3  0  0  0  0  0  0
  161.9800  207.8020  149.9080 C   0  0  0  0  0  0  0  0  0  0  0  0
  161.5680  207.1440  147.6290 C   0  0  0  0  0  2  0  0  0  0  0  0
  161.6330  205.7550  148.2540 C   0  0  0  0  0  2  0  0  0  0  0  0
  163.2820  205.1470  146.6210 O   0  0  0  0  0  0  0  0  0  0  0  0
  161.8770  203.4210  147.2310 N   0  0  0  0  0  2  0  0  0  0  0  0
  162.3360  204.7650  147.3630 C   0  0  0  0  0  0  0  0  0  0  0  0
  161.9400  202.1610  151.5620 C   0  0  0  0  0  1  0  0  0  0  0  0
  160.9280  202.7220  148.0920 C   0  0  1  0  0  0  0  0  0  0  0  0
  161.6490  201.8580  149.1160 C   0  0  1  0  0  3  0  0  0  0  0  0
  160.1860  203.7510  148.9330 C   0  0  0  0  0  2  0  0  0  0  0  0
  160.9540  202.2170  150.4120 C   0  0  2  0  0  3  0  0  0  0  0  0
  160.4500  203.5310  150.3070 O   0  0  0  0  0  0  0  0  0  0  0  0
  161.5260  200.3530  148.8770 C   0  0  0  0  0  1  0  0  0  0  0  0
  160.0110  201.9990  147.3240 O   0  0  0  0  0  1  0  0  0  0  0  0
  156.6230  211.6800  155.1340 C   0  0  0  0  0  3  0  0  0  0  0  0
  156.9220  212.4130  156.2800 C   0  0  0  0  0  2  0  0  0  0  0  0
  158.9310  211.5560  154.5980 C   0  0  2  0  0  3  0  0  0  0  0  0
  157.6300  211.2710  154.3190 N   0  0  0  0  0  0  0  0  0  0  0  0
  159.2330  212.2900  155.7580 C   0  0  0  0  0  0  0  0  0  0  0  0
  158.2190  212.7050  156.5690 N   0  0  0  0  0  0  0  0  0  0  0  0
  161.3130  211.7510  156.9680 C   0  0  0  0  0  1  0  0  0  0  0  0
  160.5620  212.5650  156.0890 O   0  0  0  0  0  0  0  0  0  0  0  0
  2  8  1  0  0  0  0
  4  9  1  6  0  0  0
  4  6  1  0  0  0  0
  4  2  1  0  0  0  0
  5  1  1  0  0  0  0
  6  7  2  0  0  0  0
  7  3  1  0  0  0  0
  8  3  1  0  0  0  0
  8  5  2  0  0  0  0
 10  9  1  0  0  0  0
 11 14  1  0  0  0  0
 12 20  1  1  0  0  0
 12 15  1  0  0  0  0
 12 11  1  0  0  0  0
 13 14  1  0  0  0  0
 13 16  1  1  0  0  0
 14 10  1  6  0  0  0
 15 13  1  0  0  0  0
 16 17  1  0  0  0  0
 16 18  1  0  0  0  0
 19 20  1  0  0  0  0
 22 21  1  0  0  0  0
 23 25  1  0  0  0  0
 23 26  2  0  0  0  0
 24  1  1  1  0  0  0
 24 21  1  0  0  0  0
 25 24  1  0  0  0  0
 26 22  1  0  0  0  0
 27 29  2  0  0  0  0
 28 23  1  0  0  0  0
 29 28  2  0  0  0  0
 30 31  1  0  0  0  0
 30 27  1  0  0  0  0
 32 34  2  0  0  0  0
 33 34  1  0  0  0  0
 33 36  1  0  0  0  0
 34 31  1  0  0  0  0
 36 42  1  6  0  0  0
 36 38  1  0  0  0  0
 36 37  1  0  0  0  0
 37 41  1  6  0  0  0
 37 39  1  0  0  0  0
 38 40  1  0  0  0  0
 39 35  1  1  0  0  0
 40 39  1  0  0  0  0
 43 44  1  0  0  0  0
 44 48  1  0  0  0  0
 45  1  1  6  0  0  0
 45 47  1  0  0  0  0
 46 45  1  0  0  0  0
 46 43  2  0  0  0  0
 47 50  1  0  0  0  0
 47 48  2  0  0  0  0
 50 49  1  0  0  0  0
M  END
>  <MODEL>
2

>  <REMARK>
 VINA RESULT:      -6.1      1.986      8.440
  Name = 
  14 active torsions:
  status: ('A' for Active; 'I' for Inactive)
    1  A    between atoms: N_1  and  C_7
    2  A    between atoms: N_1  and  C_49
    3  A    between atoms: C_4  and  N_33
    4  A    between atoms: C_7  and  C_23
    5  A    between atoms: C_12  and  C_14
    6  A    between atoms: C_12  and  C_43
    7  A    between atoms: C_14  and  C_15
    8  A    between atoms: N_17  and  C_22
    9  A    between atoms: N_17  and  C_24
   10  A    between atoms: N_17  and  C_32
   11  A    between atoms: C_19  and  C_36
   12  A    between atoms: C_27  and  O_44
   13  A    between atoms: N_29  and  C_48
   14  A    between atoms: O_35  and  C_41
                            x       y       z     vdW  Elec       q    Type
                         _______ _______ _______ _____ _____    ______ ____

>  <TORSDO>
F 14

$$$$
=
 OpenBabel11042422153D

 50 54  0  0  1  0  0  0  0  0999 V2000
  161.4270  209.1340  153.3710 N   0  0  0  0  0  0  0  0  0  0  0  0
  160.8780  212.7630  152.3910 C   0  0  0  0  0  2  0  0  0  0  0  0
  159.1600  210.7740  152.6080 C   0  0  0  0  0  2  0  0  0  0  0  0
  159.6680  213.4840  151.7580 C   0  0  2  0  0  3  0  0  0  0  0  0
  161.5950  210.5220  153.0520 C   0  0  0  0  0  3  0  0  0  0  0  0
  158.3840  213.1190  152.4630 C   0  0  0  0  0  3  0  0  0  0  0  0
  158.1500  211.8600  152.8650 C   0  0  0  0  0  3  0  0  0  0  0  0
  160.5690  211.3230  152.7410 C   0  0  0  0  0  0  0  0  0  0  0  0
  159.6230  213.1690  150.2620 C   0  0  0  0  0  2  0  0  0  0  0  0
  160.4770  214.0980  149.5260 N   0  0  0  0  0  2  0  0  0  0  0  0
  161.1370  213.9330  147.1590 C   0  0  0  0  0  2  0  0  0  0  0  0
  161.0300  212.4850  146.6850 C   0  0  2  0  0  3  0  0  0  0  0  0
  159.0090  213.0430  147.9000 C   0  0  2  0  0  3  0  0  0  0  0  0
  159.9940  214.1740  148.1440 C   0  0  1  0  0  3  0  0  0  0  0  0
  159.5350  212.2190  146.7170 C   0  0  0  0  0  2  0  0  0  0  0  0
  157.6260  213.5340  147.7480 N   0  0  0  0  0  0  0  0  0  0  0  0
  156.9880  212.9660  146.5640 C   0  0  0  0  0  1  0  0  0  0  0  0
  156.8540  213.1110  148.9120 C   0  0  0  0  0  1  0  0  0  0  0  0
  162.9010  212.2120  147.8950 C   0  0  0  0  0  1  0  0  0  0  0  0
  161.6510  211.6360  147.6170 O   0  0  0  0  0  0  0  0  0  0  0  0
  161.9520  206.8510  152.5910 C   0  0  0  0  0  2  0  0  0  0  0  0
  161.4700  205.7760  151.6260 C   0  0  0  0  0  2  0  0  0  0  0  0
  161.4710  207.5600  149.8630 C   0  0  0  0  0  0  0  0  0  0  0  0
  161.1720  208.1370  152.3190 C   0  0  2  0  0  3  0  0  0  0  0  0
  161.5190  208.6430  150.9060 C   0  0  0  0  0  2  0  0  0  0  0  0
  161.5130  206.2540  150.2000 C   0  0  0  0  0  3  0  0  0  0  0  0
  160.6250  206.5100  146.4870 C   0  0  0  0  0  3  0  0  0  0  0  0
  161.5100  207.9800  148.4540 C   0  0  0  0  0  3  0  0  0  0  0  0
  161.0640  207.2380  147.4740 C   0  0  0  0  0  0  0  0  0  0  0  0
  161.5070  206.2890  145.3070 C   0  0  0  0  0  2  0  0  0  0  0  0
  161.7160  204.7940  145.0930 C   0  0  0  0  0  2  0  0  0  0  0  0
  163.9990  204.7010  145.8250 O   0  0  0  0  0  0  0  0  0  0  0  0
  162.6270  203.1310  146.8130 N   0  0  0  0  0  2  0  0  0  0  0  0
  162.8280  204.2470  145.9490 C   0  0  0  0  0  0  0  0  0  0  0  0
  161.2150  201.1230  150.5980 C   0  0  0  0  0  1  0  0  0  0  0  0
  161.3520  202.5600  147.2370 C   0  0  1  0  0  0  0  0  0  0  0  0
  161.5640  201.3630  148.1520 C   0  0  1  0  0  3  0  0  0  0  0  0
  160.6320  203.5740  148.1140 C   0  0  0  0  0  2  0  0  0  0  0  0
  160.6240  201.6470  149.3040 C   0  0  2  0  0  3  0  0  0  0  0  0
  160.4510  203.0430  149.4150 O   0  0  0  0  0  0  0  0  0  0  0  0
  161.2070  200.0140  147.5290 C   0  0  0  0  0  1  0  0  0  0  0  0
  160.5580  202.2570  146.1270 O   0  0  0  0  0  1  0  0  0  0  0  0
  159.6500  207.5320  156.1740 C   0  0  0  0  0  3  0  0  0  0  0  0
  160.0920  208.2820  157.2610 C   0  0  0  0  0  2  0  0  0  0  0  0
  160.9840  208.8420  154.7130 C   0  0  2  0  0  3  0  0  0  0  0  0
  160.1010  207.8290  154.9270 N   0  0  0  0  0  0  0  0  0  0  0  0
  161.4360  209.5940  155.8110 C   0  0  0  0  0  0  0  0  0  0  0  0
  160.9740  209.2980  157.0590 N   0  0  0  0  0  0  0  0  0  0  0  0
  163.1700  211.1190  156.6780 C   0  0  0  0  0  1  0  0  0  0  0  0
  162.3710  210.6150  155.6250 O   0  0  0  0  0  0  0  0  0  0  0  0
  2  8  1  0  0  0  0
  3  8  1  0  0  0  0
  3  7  1  0  0  0  0
  4  9  1  6  0  0  0
  4  2  1  0  0  0  0
  4  6  1  0  0  0  0
  5  1  1  0  0  0  0
  6  7  2  0  0  0  0
  8  5  2  0  0  0  0
 10  9  1  0  0  0  0
 11 14  1  0  0  0  0
 12 15  1  0  0  0  0
 12 11  1  0  0  0  0
 12 20  1  1  0  0  0
 13 16  1  6  0  0  0
 13 14  1  0  0  0  0
 14 10  1  1  0  0  0
 15 13  1  0  0  0  0
 16 18  1  0  0  0  0
 17 16  1  0  0  0  0
 20 19  1  0  0  0  0
 22 21  1  0  0  0  0
 23 26  2  0  0  0  0
 23 25  1  0  0  0  0
 24 21  1  0  0  0  0
 24  1  1  1  0  0  0
 25 24  1  0  0  0  0
 26 22  1  0  0  0  0
 27 29  2  0  0  0  0
 28 23  1  0  0  0  0
 29 28  2  0  0  0  0
 30 27  1  0  0  0  0
 31 30  1  0  0  0  0
 31 34  1  0  0  0  0
 32 34  2  0  0  0  0
 33 36  1  0  0  0  0
 34 33  1  0  0  0  0
 36 42  1  6  0  0  0
 36 38  1  0  0  0  0
 36 37  1  0  0  0  0
 37 41  1  6  0  0  0
 37 39  1  0  0  0  0
 38 40  1  0  0  0  0
 39 40  1  0  0  0  0
 39 35  1  1  0  0  0
 43 44  1  0  0  0  0
 45  1  1  6  0  0  0
 45 46  1  0  0  0  0
 45 47  1  0  0  0  0
 46 43  2  0  0  0  0
 47 48  2  0  0  0  0
 48 44  1  0  0  0  0
 50 47  1  0  0  0  0
 50 49  1  0  0  0  0
M  END
>  <MODEL>
3

>  <REMARK>
 VINA RESULT:      -5.6      2.122      8.302
  Name = 
  14 active torsions:
  status: ('A' for Active; 'I' for Inactive)
    1  A    between atoms: N_1  and  C_7
    2  A    between atoms: N_1  and  C_49
    3  A    between atoms: C_4  and  N_33
    4  A    between atoms: C_7  and  C_23
    5  A    between atoms: C_12  and  C_14
    6  A    between atoms: C_12  and  C_43
    7  A    between atoms: C_14  and  C_15
    8  A    between atoms: N_17  and  C_22
    9  A    between atoms: N_17  and  C_24
   10  A    between atoms: N_17  and  C_32
   11  A    between atoms: C_19  and  C_36
   12  A    between atoms: C_27  and  O_44
   13  A    between atoms: N_29  and  C_48
   14  A    between atoms: O_35  and  C_41
                            x       y       z     vdW  Elec       q    Type
                         _______ _______ _______ _____ _____    ______ ____

>  <TORSDO>
F 14

$$$$
=
 OpenBabel11042422153D

 50 54  0  0  1  0  0  0  0  0999 V2000
  161.7240  209.3780  153.6580 N   0  0  0  0  0  0  0  0  0  0  0  0
  160.3950  212.8730  152.9860 C   0  0  0  0  0  2  0  0  0  0  0  0
  159.1920  210.5310  152.8380 C   0  0  0  0  0  2  0  0  0  0  0  0
  159.0970  213.3660  152.3100 C   0  0  2  0  0  3  0  0  0  0  0  0
  161.5770  210.7960  153.4930 C   0  0  0  0  0  3  0  0  0  0  0  0
  157.8900  212.6360  152.8460 C   0  0  0  0  0  3  0  0  0  0  0  0
  157.9350  211.3180  153.0990 C   0  0  0  0  0  3  0  0  0  0  0  0
  160.4150  211.3700  153.1620 C   0  0  0  0  0  0  0  0  0  0  0  0
  159.2370  213.2280  150.7930 C   0  0  0  0  0  2  0  0  0  0  0  0
  160.1010  214.2820  150.2690 N   0  0  0  0  0  2  0  0  0  0  0  0
  161.0440  214.1460  147.9970 C   0  0  0  0  0  2  0  0  0  0  0  0
  160.8760  212.7330  147.4440 C   0  0  2  0  0  3  0  0  0  0  0  0
  158.7700  213.4260  148.4220 C   0  0  2  0  0  3  0  0  0  0  0  0
  159.8080  214.4530  148.8430 C   0  0  1  0  0  3  0  0  0  0  0  0
  159.3710  212.6020  147.2760 C   0  0  0  0  0  2  0  0  0  0  0  0
  157.4650  214.0460  148.1230 N   0  0  0  0  0  0  0  0  0  0  0  0
  156.9470  213.5960  146.8350 C   0  0  0  0  0  1  0  0  0  0  0  0
  156.5130  213.6380  149.1510 C   0  0  0  0  0  1  0  0  0  0  0  0
  162.6850  211.9630  148.5260 C   0  0  0  0  0  1  0  0  0  0  0  0
  161.2970  211.7970  148.4040 O   0  0  0  0  0  0  0  0  0  0  0  0
  161.6350  209.2530  151.1940 C   0  0  0  0  0  2  0  0  0  0  0  0
  162.0360  208.3630  150.0260 C   0  0  0  0  0  2  0  0  0  0  0  0
  160.9130  206.4880  151.2550 C   0  0  0  0  0  0  0  0  0  0  0  0
  161.8700  208.4880  152.4950 C   0  0  2  0  0  3  0  0  0  0  0  0
  160.9240  207.2720  152.5390 C   0  0  0  0  0  2  0  0  0  0  0  0
  161.3660  207.0190  150.0990 C   0  0  0  0  0  3  0  0  0  0  0  0
  161.5790  202.9270  151.5690 C   0  0  0  0  0  3  0  0  0  0  0  0
  160.2690  205.1660  151.2790 C   0  0  0  0  0  3  0  0  0  0  0  0
  160.9320  204.0490  151.4260 C   0  0  0  0  0  0  0  0  0  0  0  0
  161.3240  201.8210  150.6050 C   0  0  0  0  0  2  0  0  0  0  0  0
  161.7880  202.2320  149.2120 C   0  0  0  0  0  2  0  0  0  0  0  0
  159.7960  201.3070  148.2490 O   0  0  0  0  0  0  0  0  0  0  0  0
  160.6120  203.1540  147.1340 N   0  0  0  0  0  2  0  0  0  0  0  0
  160.6610  202.2230  148.2130 C   0  0  0  0  0  0  0  0  0  0  0  0
  161.5980  205.8180  143.6290 C   0  0  0  0  0  1  0  0  0  0  0  0
  161.3930  204.3780  146.9860 C   0  0  1  0  0  0  0  0  0  0  0  0
  162.0810  204.4300  145.6300 C   0  0  1  0  0  3  0  0  0  0  0  0
  160.4380  205.5630  146.9620 C   0  0  0  0  0  2  0  0  0  0  0  0
  161.7540  205.8240  145.1380 C   0  0  2  0  0  3  0  0  0  0  0  0
  160.5370  206.2370  145.7200 O   0  0  0  0  0  0  0  0  0  0  0  0
  163.5990  204.2550  145.6800 C   0  0  0  0  0  1  0  0  0  0  0  0
  162.2860  204.5210  148.0510 O   0  0  0  0  0  1  0  0  0  0  0  0
  159.5770  207.4710  155.9680 C   0  0  0  0  0  3  0  0  0  0  0  0
  160.1400  207.7810  157.2040 C   0  0  0  0  0  3  0  0  0  0  0  0
  161.1950  208.8250  154.8810 C   0  0  0  0  0  0  0  0  0  0  0  0
  160.1130  208.0010  154.8370 N   0  0  0  0  0  0  0  0  0  0  0  0
  161.7660  209.1320  156.1280 C   0  0  0  0  0  0  0  0  0  0  0  0
  161.2200  208.6040  157.2610 N   0  0  0  0  0  0  0  0  0  0  0  0
  162.9350  211.1380  156.9590 C   0  0  0  0  0  1  0  0  0  0  0  0
  162.8990  209.9450  156.2000 O   0  0  0  0  0  0  0  0  0  0  0  0
  1 45  1  0  0  0  0
  2  8  1  0  0  0  0
  3  7  1  0  0  0  0
  3  8  1  0  0  0  0
  4  9  1  6  0  0  0
  4  6  1  0  0  0  0
  4  2  1  0  0  0  0
  5  1  1  0  0  0  0
  6  7  2  0  0  0  0
  8  5  2  0  0  0  0
 10  9  1  0  0  0  0
 11 14  1  0  0  0  0
 12 11  1  0  0  0  0
 12 20  1  1  0  0  0
 13 16  1  6  0  0  0
 13 14  1  0  0  0  0
 14 10  1  1  0  0  0
 15 12  1  0  0  0  0
 15 13  1  0  0  0  0
 16 18  1  0  0  0  0
 17 16  1  0  0  0  0
 20 19  1  0  0  0  0
 21 24  1  0  0  0  0
 22 26  1  0  0  0  0
 22 21  1  0  0  0  0
 23 28  1  0  0  0  0
 23 25  1  0  0  0  0
 24 25  1  0  0  0  0
 24  1  1  1  0  0  0
 26 23  2  0  0  0  0
 28 29  2  0  0  0  0
 29 27  2  0  0  0  0
 30 27  1  0  0  0  0
 31 30  1  0  0  0  0
 33 34  1  0  0  0  0
 34 32  2  0  0  0  0
 34 31  1  0  0  0  0
 36 33  1  0  0  0  0
 36 42  1  1  0  0  0
 37 41  1  1  0  0  0
 37 36  1  0  0  0  0
 38 36  1  0  0  0  0
 39 35  1  6  0  0  0
 39 37  1  0  0  0  0
 39 40  1  0  0  0  0
 40 38  1  0  0  0  0
 43 44  2  0  0  0  0
 44 48  1  0  0  0  0
 45 47  1  0  0  0  0
 46 45  2  0  0  0  0
 46 43  1  0  0  0  0
 47 50  1  0  0  0  0
 47 48  2  0  0  0  0
 50 49  1  0  0  0  0
M  END
>  <MODEL>
4

>  <REMARK>
 VINA RESULT:      -5.5      2.210      7.924
  Name = 
  14 active torsions:
  status: ('A' for Active; 'I' for Inactive)
    1  A    between atoms: N_1  and  C_7
    2  A    between atoms: N_1  and  C_49
    3  A    between atoms: C_4  and  N_33
    4  A    between atoms: C_7  and  C_23
    5  A    between atoms: C_12  and  C_14
    6  A    between atoms: C_12  and  C_43
    7  A    between atoms: C_14  and  C_15
    8  A    between atoms: N_17  and  C_22
    9  A    between atoms: N_17  and  C_24
   10  A    between atoms: N_17  and  C_32
   11  A    between atoms: C_19  and  C_36
   12  A    between atoms: C_27  and  O_44
   13  A    between atoms: N_29  and  C_48
   14  A    between atoms: O_35  and  C_41
                            x       y       z     vdW  Elec       q    Type
                         _______ _______ _______ _____ _____    ______ ____

>  <TORSDO>
F 14

$$$$
=
 OpenBabel11042422153D

 50 54  0  0  1  0  0  0  0  0999 V2000
  161.8220  209.1380  152.9830 N   0  0  0  0  0  0  0  0  0  0  0  0
  160.5200  212.6210  152.2020 C   0  0  0  0  0  2  0  0  0  0  0  0
  159.2180  210.3920  152.7390 C   0  0  0  0  0  2  0  0  0  0  0  0
  159.1070  213.1340  151.8490 C   0  0  2  0  0  3  0  0  0  0  0  0
  161.7000  210.5310  152.6600 C   0  0  0  0  0  3  0  0  0  0  0  0
  158.0720  212.5850  152.8000 C   0  0  0  0  0  3  0  0  0  0  0  0
  158.1270  211.3120  153.2210 C   0  0  0  0  0  3  0  0  0  0  0  0
  160.5200  211.1560  152.5840 C   0  0  0  0  0  0  0  0  0  0  0  0
  158.7990  212.7920  150.3900 C   0  0  0  0  0  2  0  0  0  0  0  0
  159.4770  213.7300  149.4990 N   0  0  0  0  0  2  0  0  0  0  0  0
  158.8160  212.4240  147.5180 C   0  0  0  0  0  2  0  0  0  0  0  0
  158.6130  213.3530  146.3230 C   0  0  2  0  0  3  0  0  0  0  0  0
  160.6970  213.9470  147.4070 C   0  0  2  0  0  3  0  0  0  0  0  0
  159.9760  212.9870  148.3390 C   0  0  1  0  0  3  0  0  0  0  0  0
  160.0170  213.8600  146.0350 C   0  0  0  0  0  2  0  0  0  0  0  0
  162.1550  213.7180  147.3930 N   0  0  0  0  0  0  0  0  0  0  0  0
  162.4990  212.4500  148.0290 C   0  0  0  0  0  1  0  0  0  0  0  0
  162.5980  213.6520  146.0040 C   0  0  0  0  0  1  0  0  0  0  0  0
  156.7110  213.9050  147.3780 C   0  0  0  0  0  1  0  0  0  0  0  0
  157.8170  214.4460  146.7030 O   0  0  0  0  0  0  0  0  0  0  0  0
  161.9500  208.7700  150.5450 C   0  0  0  0  0  2  0  0  0  0  0  0
  162.3550  207.7280  149.5120 C   0  0  0  0  0  2  0  0  0  0  0  0
  160.9150  206.1160  150.7850 C   0  0  0  0  0  0  0  0  0  0  0  0
  161.9730  208.1230  151.9280 C   0  0  2  0  0  3  0  0  0  0  0  0
  160.8950  207.0240  151.9850 C   0  0  0  0  0  2  0  0  0  0  0  0
  161.5310  206.4750  149.6390 C   0  0  0  0  0  3  0  0  0  0  0  0
  161.1610  202.4900  150.6900 C   0  0  0  0  0  3  0  0  0  0  0  0
  160.1230  204.8790  150.8630 C   0  0  0  0  0  3  0  0  0  0  0  0
  160.6510  203.6860  150.7770 C   0  0  0  0  0  0  0  0  0  0  0  0
  160.5610  201.5180  149.7350 C   0  0  0  0  0  2  0  0  0  0  0  0
  161.5330  201.2500  148.5920 C   0  0  0  0  0  2  0  0  0  0  0  0
  160.2070  200.2530  146.8590 O   0  0  0  0  0  0  0  0  0  0  0  0
  161.0120  202.3520  146.3410 N   0  0  0  0  0  2  0  0  0  0  0  0
  160.8480  201.2660  147.2500 C   0  0  0  0  0  0  0  0  0  0  0  0
  161.5090  206.1210  143.9120 C   0  0  0  0  0  1  0  0  0  0  0  0
  161.5580  203.6740  146.6310 C   0  0  1  0  0  0  0  0  0  0  0  0
  162.2300  204.2710  145.4040 C   0  0  1  0  0  3  0  0  0  0  0  0
  160.4050  204.6230  146.9210 C   0  0  0  0  0  2  0  0  0  0  0  0
  161.6570  205.6720  145.3530 C   0  0  2  0  0  3  0  0  0  0  0  0
  160.3830  205.6640  145.9610 O   0  0  0  0  0  0  0  0  0  0  0  0
  163.7540  204.3520  145.4880 C   0  0  0  0  0  1  0  0  0  0  0  0
  162.4080  203.6200  147.7390 O   0  0  0  0  0  1  0  0  0  0  0  0
  159.9400  207.2030  155.4920 C   0  0  0  0  0  3  0  0  0  0  0  0
  160.1540  207.9490  156.6490 C   0  0  0  0  0  2  0  0  0  0  0  0
  161.2630  208.7320  154.2500 C   0  0  2  0  0  3  0  0  0  0  0  0
  160.4940  207.6110  154.3200 N   0  0  0  0  0  0  0  0  0  0  0  0
  161.4850  209.4790  155.4190 C   0  0  0  0  0  0  0  0  0  0  0  0
  160.9200  209.0710  156.5910 N   0  0  0  0  0  0  0  0  0  0  0  0
  162.3770  211.5320  156.4560 C   0  0  0  0  0  1  0  0  0  0  0  0
  162.3000  210.6120  155.3830 O   0  0  0  0  0  0  0  0  0  0  0  0
  2  8  1  0  0  0  0
  3  7  1  0  0  0  0
  4  9  1  6  0  0  0
  4  2  1  0  0  0  0
  4  6  1  0  0  0  0
  5  1  1  0  0  0  0
  6  7  2  0  0  0  0
  8  5  2  0  0  0  0
  8  3  1  0  0  0  0
 10  9  1  0  0  0  0
 11 14  1  0  0  0  0
 12 20  1  1  0  0  0
 12 11  1  0  0  0  0
 13 16  1  6  0  0  0
 13 14  1  0  0  0  0
 14 10  1  1  0  0  0
 15 12  1  0  0  0  0
 15 13  1  0  0  0  0
 16 17  1  0  0  0  0
 18 16  1  0  0  0  0
 20 19  1  0  0  0  0
 21 24  1  0  0  0  0
 22 26  1  0  0  0  0
 22 21  1  0  0  0  0
 23 28  1  0  0  0  0
 23 25  1  0  0  0  0
 24 25  1  0  0  0  0
 24  1  1  1  0  0  0
 26 23  2  0  0  0  0
 27 29  2  0  0  0  0
 29 28  2  0  0  0  0
 30 27  1  0  0  0  0
 31 30  1  0  0  0  0
 32 34  2  0  0  0  0
 33 36  1  0  0  0  0
 33 34  1  0  0  0  0
 34 31  1  0  0  0  0
 36 38  1  0  0  0  0
 36 42  1  1  0  0  0
 37 41  1  1  0  0  0
 37 36  1  0  0  0  0
 39 35  1  6  0  0  0
 39 37  1  0  0  0  0
 39 40  1  0  0  0  0
 40 38  1  0  0  0  0
 43 44  1  0  0  0  0
 45  1  1  6  0  0  0
 45 46  1  0  0  0  0
 45 47  1  0  0  0  0
 46 43  2  0  0  0  0
 47 48  2  0  0  0  0
 48 44  1  0  0  0  0
 50 47  1  0  0  0  0
 50 49  1  0  0  0  0
M  END
>  <MODEL>
5

>  <REMARK>
 VINA RESULT:      -4.8      2.174      8.124
  Name = 
  14 active torsions:
  status: ('A' for Active; 'I' for Inactive)
    1  A    between atoms: N_1  and  C_7
    2  A    between atoms: N_1  and  C_49
    3  A    between atoms: C_4  and  N_33
    4  A    between atoms: C_7  and  C_23
    5  A    between atoms: C_12  and  C_14
    6  A    between atoms: C_12  and  C_43
    7  A    between atoms: C_14  and  C_15
    8  A    between atoms: N_17  and  C_22
    9  A    between atoms: N_17  and  C_24
   10  A    between atoms: N_17  and  C_32
   11  A    between atoms: C_19  and  C_36
   12  A    between atoms: C_27  and  O_44
   13  A    between atoms: N_29  and  C_48
   14  A    between atoms: O_35  and  C_41
                            x       y       z     vdW  Elec       q    Type
                         _______ _______ _______ _____ _____    ______ ____

>  <TORSDO>
F 14

$$$$
=
 OpenBabel11042422153D

 50 54  0  0  1  0  0  0  0  0999 V2000
  161.4290  204.3510  148.0290 N   0  0  0  0  0  0  0  0  0  0  0  0
  162.8570  207.8650  148.2460 C   0  0  0  0  0  2  0  0  0  0  0  0
  160.8730  206.7430  149.5720 C   0  0  0  0  0  2  0  0  0  0  0  0
  162.3300  209.1480  148.9230 C   0  0  2  0  0  3  0  0  0  0  0  0
  162.1980  205.5470  147.8390 C   0  0  0  0  0  3  0  0  0  0  0  0
  161.8750  208.8730  150.3370 C   0  0  0  0  0  3  0  0  0  0  0  0
  161.2040  207.7510  150.6400 C   0  0  0  0  0  3  0  0  0  0  0  0
  162.0040  206.6560  148.5630 C   0  0  0  0  0  0  0  0  0  0  0  0
  161.2200  209.7520  148.0600 C   0  0  0  0  0  2  0  0  0  0  0  0
  161.6970  210.9670  147.4070 N   0  0  0  0  0  2  0  0  0  0  0  0
  162.1220  213.1930  148.3730 C   0  0  0  0  0  2  0  0  0  0  0  0
  162.0020  214.2650  147.2920 C   0  0  2  0  0  3  0  0  0  0  0  0
  160.0990  212.7760  147.1060 C   0  0  2  0  0  3  0  0  0  0  0  0
  161.0770  212.1200  148.0670 C   0  0  1  0  0  3  0  0  0  0  0  0
  160.5240  214.2410  146.9410 C   0  0  0  0  0  2  0  0  0  0  0  0
  158.6970  212.5790  147.5200 N   0  0  0  0  0  0  0  0  0  0  0  0
  158.2320  213.6780  148.3610 C   0  0  0  0  0  1  0  0  0  0  0  0
  157.8610  212.5530  146.3240 C   0  0  0  0  0  1  0  0  0  0  0  0
  162.0430  214.3990  145.0520 C   0  0  0  0  0  1  0  0  0  0  0  0
  162.7320  213.8740  146.1560 O   0  0  0  0  0  0  0  0  0  0  0  0
  160.8300  202.2150  149.1110 C   0  0  0  0  0  2  0  0  0  0  0  0
  161.1950  201.3290  150.2940 C   0  0  0  0  0  2  0  0  0  0  0  0
  160.9590  203.3800  151.7190 C   0  0  0  0  0  0  0  0  0  0  0  0
  161.5580  203.5500  149.2560 C   0  0  2  0  0  3  0  0  0  0  0  0
  161.0330  204.2740  150.5110 C   0  0  0  0  0  2  0  0  0  0  0  0
  160.9700  202.0350  151.6030 C   0  0  0  0  0  3  0  0  0  0  0  0
  160.8280  206.6090  153.3840 C   0  0  0  0  0  3  0  0  0  0  0  0
  160.7400  204.0260  153.0220 C   0  0  0  0  0  3  0  0  0  0  0  0
  160.7850  205.3210  153.1950 C   0  0  0  0  0  0  0  0  0  0  0  0
  161.6690  207.1480  154.4890 C   0  0  0  0  0  2  0  0  0  0  0  0
  161.2940  208.6000  154.7620 C   0  0  0  0  0  2  0  0  0  0  0  0
  159.7250  207.6920  156.3330 O   0  0  0  0  0  0  0  0  0  0  0  0
  159.4250  209.9370  155.8910 N   0  0  0  0  0  2  0  0  0  0  0  0
  160.1460  208.7170  155.7300 C   0  0  0  0  0  0  0  0  0  0  0  0
  157.5190  213.0040  153.1880 C   0  0  0  0  0  1  0  0  0  0  0  0
  159.8230  211.2650  155.4350 C   0  0  1  0  0  0  0  0  0  0  0  0
  159.3340  211.5280  154.0180 C   0  0  1  0  0  3  0  0  0  0  0  0
  159.0970  212.3050  156.2760 C   0  0  0  0  0  2  0  0  0  0  0  0
  158.7050  212.9010  154.1260 C   0  0  2  0  0  3  0  0  0  0  0  0
  158.2560  213.0910  155.4510 O   0  0  0  0  0  0  0  0  0  0  0  0
  160.4370  211.5600  152.9600 C   0  0  0  0  0  1  0  0  0  0  0  0
  161.2030  211.4370  155.5710 O   0  0  0  0  0  1  0  0  0  0  0  0
  160.4480  201.6820  145.6840 C   0  0  0  0  0  3  0  0  0  0  0  0
  160.1410  202.4080  144.5350 C   0  0  0  0  0  2  0  0  0  0  0  0
  160.9740  203.6940  146.8270 C   0  0  2  0  0  3  0  0  0  0  0  0
  160.8600  202.3380  146.8000 N   0  0  0  0  0  0  0  0  0  0  0  0
  160.6570  204.4260  145.6700 C   0  0  0  0  0  0  0  0  0  0  0  0
  160.2530  203.7630  144.5490 N   0  0  0  0  0  0  0  0  0  0  0  0
  160.8310  206.5890  144.4960 C   0  0  0  0  0  1  0  0  0  0  0  0
  160.7300  205.8210  145.6800 O   0  0  0  0  0  0  0  0  0  0  0  0
  2  8  1  0  0  0  0
  2  4  1  0  0  0  0
  3  7  1  0  0  0  0
  4  9  1  6  0  0  0
  4  6  1  0  0  0  0
  5  1  1  0  0  0  0
  5  8  2  0  0  0  0
  6  7  2  0  0  0  0
  8  3  1  0  0  0  0
 10  9  1  0  0  0  0
 12 20  1  6  0  0  0
 12 11  1  0  0  0  0
 13 16  1  1  0  0  0
 13 14  1  0  0  0  0
 14 10  1  6  0  0  0
 14 11  1  0  0  0  0
 15 13  1  0  0  0  0
 15 12  1  0  0  0  0
 16 17  1  0  0  0  0
 18 16  1  0  0  0  0
 19 20  1  0  0  0  0
 21 24  1  0  0  0  0
 21 22  1  0  0  0  0
 22 26  1  0  0  0  0
 23 28  1  0  0  0  0
 24  1  1  6  0  0  0
 24 25  1  0  0  0  0
 25 23  1  0  0  0  0
 26 23  2  0  0  0  0
 27 30  1  0  0  0  0
 28 29  2  0  0  0  0
 29 27  2  0  0  0  0
 30 31  1  0  0  0  0
 31 34  1  0  0  0  0
 34 33  1  0  0  0  0
 34 32  2  0  0  0  0
 36 42  1  1  0  0  0
 36 33  1  0  0  0  0
 36 38  1  0  0  0  0
 37 41  1  6  0  0  0
 37 39  1  0  0  0  0
 37 36  1  0  0  0  0
 39 35  1  6  0  0  0
 39 40  1  0  0  0  0
 40 38  1  0  0  0  0
 43 46  2  0  0  0  0
 44 48  1  0  0  0  0
 44 43  1  0  0  0  0
 45  1  1  6  0  0  0
 46 45  1  0  0  0  0
 47 50  1  0  0  0  0
 47 45  1  0  0  0  0
 48 47  2  0  0  0  0
 49 50  1  0  0  0  0
M  END
>  <MODEL>
6

>  <REMARK>
 VINA RESULT:      -4.6      1.447      1.830
  Name = 
  14 active torsions:
  status: ('A' for Active; 'I' for Inactive)
    1  A    between atoms: N_1  and  C_7
    2  A    between atoms: N_1  and  C_49
    3  A    between atoms: C_4  and  N_33
    4  A    between atoms: C_7  and  C_23
    5  A    between atoms: C_12  and  C_14
    6  A    between atoms: C_12  and  C_43
    7  A    between atoms: C_14  and  C_15
    8  A    between atoms: N_17  and  C_22
    9  A    between atoms: N_17  and  C_24
   10  A    between atoms: N_17  and  C_32
   11  A    between atoms: C_19  and  C_36
   12  A    between atoms: C_27  and  O_44
   13  A    between atoms: N_29  and  C_48
   14  A    between atoms: O_35  and  C_41
                            x       y       z     vdW  Elec       q    Type
                         _______ _______ _______ _____ _____    ______ ____

>  <TORSDO>
F 14

$$$$
=
 OpenBabel11042422153D

 50 54  0  0  1  0  0  0  0  0999 V2000
  161.2820  204.4120  148.5070 N   0  0  0  0  0  0  0  0  0  0  0  0
  160.5010  207.9690  149.5880 C   0  0  0  0  0  2  0  0  0  0  0  0
  162.7490  206.9050  148.7110 C   0  0  0  0  0  2  0  0  0  0  0  0
  161.4170  209.1730  149.8990 C   0  0  2  0  0  3  0  0  0  0  0  0
  160.6440  205.6070  148.9780 C   0  0  0  0  0  3  0  0  0  0  0  0
  162.4580  209.3600  148.8210 C   0  0  0  0  0  3  0  0  0  0  0  0
  163.0730  208.3060  148.2630 C   0  0  0  0  0  3  0  0  0  0  0  0
  161.2730  206.7870  149.0420 C   0  0  0  0  0  0  0  0  0  0  0  0
  162.0390  208.9860  151.2840 C   0  0  0  0  0  2  0  0  0  0  0  0
  161.7610  210.1500  152.1210 N   0  0  0  0  0  2  0  0  0  0  0  0
  160.8220  209.0060  154.0900 C   0  0  0  0  0  2  0  0  0  0  0  0
  160.8990  209.9190  155.3120 C   0  0  2  0  0  3  0  0  0  0  0  0
  160.0190  211.2010  153.4530 C   0  0  2  0  0  3  0  0  0  0  0  0
  160.5330  209.8920  152.8790 C   0  0  1  0  0  3  0  0  0  0  0  0
  159.9210  211.0320  154.9750 C   0  0  0  0  0  2  0  0  0  0  0  0
  158.7750  211.6460  152.7970 N   0  0  0  0  0  0  0  0  0  0  0  0
  157.8410  212.2170  153.7620 C   0  0  0  0  0  1  0  0  0  0  0  0
  159.1090  212.6900  151.8330 C   0  0  0  0  0  1  0  0  0  0  0  0
  162.6660  210.1270  156.6800 C   0  0  0  0  0  1  0  0  0  0  0  0
  162.1860  210.4740  155.4070 O   0  0  0  0  0  0  0  0  0  0  0  0
  163.2990  204.3920  147.0850 C   0  0  0  0  0  2  0  0  0  0  0  0
  163.7720  204.0330  145.6830 C   0  0  0  0  0  2  0  0  0  0  0  0
  161.8540  205.4110  144.8390 C   0  0  0  0  0  0  0  0  0  0  0  0
  161.7750  204.3060  147.1250 C   0  0  2  0  0  3  0  0  0  0  0  0
  161.1880  205.3790  146.1870 C   0  0  0  0  0  2  0  0  0  0  0  0
  163.0640  204.8470  144.6350 C   0  0  0  0  0  3  0  0  0  0  0  0
  161.9920  206.2150  141.2960 C   0  0  0  0  0  3  0  0  0  0  0  0
  161.1980  206.1960  143.7820 C   0  0  0  0  0  3  0  0  0  0  0  0
  161.6010  206.1990  142.5390 C   0  0  0  0  0  0  0  0  0  0  0  0
  162.2010  207.5270  140.6230 C   0  0  0  0  0  2  0  0  0  0  0  0
  161.2080  207.6830  139.4760 C   0  0  0  0  0  2  0  0  0  0  0  0
  162.2890  206.8750  137.4930 O   0  0  0  0  0  0  0  0  0  0  0  0
  162.2400  209.1750  137.6710 N   0  0  0  0  0  2  0  0  0  0  0  0
  161.8970  207.8770  138.1510 C   0  0  0  0  0  0  0  0  0  0  0  0
  164.2720  212.9930  138.9520 C   0  0  0  0  0  1  0  0  0  0  0  0
  161.7540  210.4590  138.1660 C   0  0  1  0  0  0  0  0  0  0  0  0
  162.7250  211.0630  139.1690 C   0  0  1  0  0  3  0  0  0  0  0  0
  161.7450  211.4530  137.0140 C   0  0  0  0  0  2  0  0  0  0  0  0
  162.8660  212.4910  138.6850 C   0  0  2  0  0  3  0  0  0  0  0  0
  162.6280  212.5240  137.2940 O   0  0  0  0  0  0  0  0  0  0  0  0
  162.2280  211.0670  140.6140 C   0  0  0  0  0  1  0  0  0  0  0  0
  160.4600  210.3280  138.6790 O   0  0  0  0  0  1  0  0  0  0  0  0
  159.9700  201.0340  149.1770 C   0  0  0  0  0  3  0  0  0  0  0  0
  160.2580  200.8770  150.5310 C   0  0  0  0  0  2  0  0  0  0  0  0
  160.9450  203.1960  149.2090 C   0  0  2  0  0  3  0  0  0  0  0  0
  160.3150  202.1880  148.5480 N   0  0  0  0  0  0  0  0  0  0  0  0
  161.2420  203.0350  150.5730 C   0  0  0  0  0  0  0  0  0  0  0  0
  160.8860  201.8790  151.2020 N   0  0  0  0  0  0  0  0  0  0  0  0
  161.2850  204.8780  152.2120 C   0  0  0  0  0  1  0  0  0  0  0  0
  161.9210  204.0390  151.2670 O   0  0  0  0  0  0  0  0  0  0  0  0
  1  5  1  0  0  0  0
  2  4  1  0  0  0  0
  3  8  1  0  0  0  0
  4  9  1  1  0  0  0
  5  8  2  0  0  0  0
  6  4  1  0  0  0  0
  7  3  1  0  0  0  0
  7  6  2  0  0  0  0
  8  2  1  0  0  0  0
  9 10  1  0  0  0  0
 11 12  1  0  0  0  0
 12 20  1  6  0  0  0
 13 16  1  6  0  0  0
 13 15  1  0  0  0  0
 14 10  1  1  0  0  0
 14 13  1  0  0  0  0
 14 11  1  0  0  0  0
 15 12  1  0  0  0  0
 16 17  1  0  0  0  0
 18 16  1  0  0  0  0
 20 19  1  0  0  0  0
 21 24  1  0  0  0  0
 22 21  1  0  0  0  0
 23 25  1  0  0  0  0
 24  1  1  1  0  0  0
 25 24  1  0  0  0  0
 26 23  2  0  0  0  0
 26 22  1  0  0  0  0
 27 29  2  0  0  0  0
 28 23  1  0  0  0  0
 29 28  2  0  0  0  0
 30 27  1  0  0  0  0
 31 30  1  0  0  0  0
 32 34  2  0  0  0  0
 33 34  1  0  0  0  0
 33 36  1  0  0  0  0
 34 31  1  0  0  0  0
 36 42  1  1  0  0  0
 36 37  1  0  0  0  0
 37 41  1  1  0  0  0
 38 40  1  0  0  0  0
 38 36  1  0  0  0  0
 39 35  1  6  0  0  0
 39 37  1  0  0  0  0
 40 39  1  0  0  0  0
 43 44  1  0  0  0  0
 44 48  1  0  0  0  0
 45  1  1  1  0  0  0
 45 47  1  0  0  0  0
 46 43  2  0  0  0  0
 46 45  1  0  0  0  0
 47 48  2  0  0  0  0
 47 50  1  0  0  0  0
 50 49  1  0  0  0  0
M  END
>  <MODEL>
7

>  <REMARK>
 VINA RESULT:      -4.0      3.916     10.523
  Name = 
  14 active torsions:
  status: ('A' for Active; 'I' for Inactive)
    1  A    between atoms: N_1  and  C_7
    2  A    between atoms: N_1  and  C_49
    3  A    between atoms: C_4  and  N_33
    4  A    between atoms: C_7  and  C_23
    5  A    between atoms: C_12  and  C_14
    6  A    between atoms: C_12  and  C_43
    7  A    between atoms: C_14  and  C_15
    8  A    between atoms: N_17  and  C_22
    9  A    between atoms: N_17  and  C_24
   10  A    between atoms: N_17  and  C_32
   11  A    between atoms: C_19  and  C_36
   12  A    between atoms: C_27  and  O_44
   13  A    between atoms: N_29  and  C_48
   14  A    between atoms: O_35  and  C_41
                            x       y       z     vdW  Elec       q    Type
                         _______ _______ _______ _____ _____    ______ ____

>  <TORSDO>
F 14

$$$$
=
 OpenBabel11042422153D

 50 54  0  0  1  0  0  0  0  0999 V2000
  161.2960  204.4540  148.4510 N   0  0  0  0  0  0  0  0  0  0  0  0
  160.4390  207.9730  149.5980 C   0  0  0  0  0  2  0  0  0  0  0  0
  162.7670  206.8960  148.9830 C   0  0  0  0  0  2  0  0  0  0  0  0
  161.3250  209.1360  150.0930 C   0  0  2  0  0  3  0  0  0  0  0  0
  160.6210  205.6410  148.8910 C   0  0  0  0  0  3  0  0  0  0  0  0
  162.5080  209.3500  149.1800 C   0  0  0  0  0  3  0  0  0  0  0  0
  163.1750  208.3090  148.6570 C   0  0  0  0  0  3  0  0  0  0  0  0
  161.2560  206.8000  149.1020 C   0  0  0  0  0  0  0  0  0  0  0  0
  161.7450  208.8670  151.5390 C   0  0  0  0  0  2  0  0  0  0  0  0
  160.6100  209.0600  152.4370 N   0  0  0  0  0  2  0  0  0  0  0  0
  160.7950  211.2840  153.4820 C   0  0  0  0  0  2  0  0  0  0  0  0
  159.5380  211.5870  154.2950 C   0  0  2  0  0  3  0  0  0  0  0  0
  160.2700  209.3390  154.8290 C   0  0  2  0  0  3  0  0  0  0  0  0
  161.0770  209.7870  153.6210 C   0  0  1  0  0  3  0  0  0  0  0  0
  159.6120  210.5850  155.4350 C   0  0  0  0  0  2  0  0  0  0  0  0
  161.0780  208.5430  155.7720 N   0  0  0  0  0  0  0  0  0  0  0  0
  162.0900  209.3640  156.4290 C   0  0  0  0  0  1  0  0  0  0  0  0
  160.1940  208.0160  156.8070 C   0  0  0  0  0  1  0  0  0  0  0  0
  157.3030  211.4110  154.3970 C   0  0  0  0  0  1  0  0  0  0  0  0
  158.3980  211.2980  153.5260 O   0  0  0  0  0  0  0  0  0  0  0  0
  163.2870  204.3360  146.9970 C   0  0  0  0  0  2  0  0  0  0  0  0
  163.7210  203.9430  145.5920 C   0  0  0  0  0  2  0  0  0  0  0  0
  161.8480  205.3910  144.7630 C   0  0  0  0  0  0  0  0  0  0  0  0
  161.7610  204.3140  147.0620 C   0  0  2  0  0  3  0  0  0  0  0  0
  161.2040  205.4000  146.1230 C   0  0  0  0  0  2  0  0  0  0  0  0
  163.0300  204.7750  144.5470 C   0  0  0  0  0  3  0  0  0  0  0  0
  162.0080  206.2090  141.2240 C   0  0  0  0  0  3  0  0  0  0  0  0
  161.2070  206.1910  143.7090 C   0  0  0  0  0  3  0  0  0  0  0  0
  161.6130  206.1940  142.4670 C   0  0  0  0  0  0  0  0  0  0  0  0
  162.2400  207.5200  140.5580 C   0  0  0  0  0  2  0  0  0  0  0  0
  161.1530  207.7710  139.5190 C   0  0  0  0  0  2  0  0  0  0  0  0
  162.0130  206.9180  137.4490 O   0  0  0  0  0  0  0  0  0  0  0  0
  162.0590  209.2190  137.6130 N   0  0  0  0  0  2  0  0  0  0  0  0
  161.7190  207.9360  138.1330 C   0  0  0  0  0  0  0  0  0  0  0  0
  164.3550  212.8700  138.9380 C   0  0  0  0  0  1  0  0  0  0  0  0
  161.6650  210.5210  138.1420 C   0  0  1  0  0  0  0  0  0  0  0  0
  162.6890  211.0400  139.1410 C   0  0  1  0  0  3  0  0  0  0  0  0
  161.7030  211.5380  137.0110 C   0  0  0  0  0  2  0  0  0  0  0  0
  162.9150  212.4650  138.6840 C   0  0  2  0  0  3  0  0  0  0  0  0
  162.6580  212.5440  137.2980 O   0  0  0  0  0  0  0  0  0  0  0  0
  162.2140  211.0450  140.5940 C   0  0  0  0  0  1  0  0  0  0  0  0
  160.3740  210.4630  138.6730 O   0  0  0  0  0  1  0  0  0  0  0  0
  160.3040  200.9950  149.2450 C   0  0  0  0  0  3  0  0  0  0  0  0
  160.4640  200.9600  150.6280 C   0  0  0  0  0  2  0  0  0  0  0  0
  161.0250  203.2550  149.2070 C   0  0  2  0  0  3  0  0  0  0  0  0
  160.5820  202.1390  148.5670 N   0  0  0  0  0  0  0  0  0  0  0  0
  161.1930  203.2170  150.6020 C   0  0  0  0  0  0  0  0  0  0  0  0
  160.9040  202.0700  151.2790 N   0  0  0  0  0  0  0  0  0  0  0  0
  161.2010  204.7260  152.5530 C   0  0  0  0  0  1  0  0  0  0  0  0
  161.6810  204.3360  151.2800 O   0  0  0  0  0  0  0  0  0  0  0  0
  1  5  1  0  0  0  0
  2  4  1  0  0  0  0
  3  8  1  0  0  0  0
  4  9  1  1  0  0  0
  5  8  2  0  0  0  0
  6  4  1  0  0  0  0
  7  3  1  0  0  0  0
  7  6  2  0  0  0  0
  8  2  1  0  0  0  0
  9 10  1  0  0  0  0
 11 14  1  0  0  0  0
 11 12  1  0  0  0  0
 12 20  1  6  0  0  0
 12 15  1  0  0  0  0
 13 15  1  0  0  0  0
 13 16  1  1  0  0  0
 14 10  1  6  0  0  0
 14 13  1  0  0  0  0
 16 17  1  0  0  0  0
 16 18  1  0  0  0  0
 20 19  1  0  0  0  0
 21 24  1  0  0  0  0
 22 21  1  0  0  0  0
 23 25  1  0  0  0  0
 24  1  1  1  0  0  0
 25 24  1  0  0  0  0
 26 23  2  0  0  0  0
 26 22  1  0  0  0  0
 27 29  2  0  0  0  0
 28 23  1  0  0  0  0
 29 28  2  0  0  0  0
 30 27  1  0  0  0  0
 31 30  1  0  0  0  0
 32 34  2  0  0  0  0
 33 34  1  0  0  0  0
 33 36  1  0  0  0  0
 34 31  1  0  0  0  0
 36 42  1  1  0  0  0
 36 37  1  0  0  0  0
 37 41  1  1  0  0  0
 38 40  1  0  0  0  0
 38 36  1  0  0  0  0
 39 35  1  6  0  0  0
 39 37  1  0  0  0  0
 40 39  1  0  0  0  0
 43 44  1  0  0  0  0
 44 48  1  0  0  0  0
 45  1  1  1  0  0  0
 45 47  1  0  0  0  0
 46 45  1  0  0  0  0
 46 43  2  0  0  0  0
 47 48  2  0  0  0  0
 47 50  1  0  0  0  0
 50 49  1  0  0  0  0
M  END
>  <MODEL>
8

>  <REMARK>
 VINA RESULT:      -4.0      3.914     10.727
  Name = 
  14 active torsions:
  status: ('A' for Active; 'I' for Inactive)
    1  A    between atoms: N_1  and  C_7
    2  A    between atoms: N_1  and  C_49
    3  A    between atoms: C_4  and  N_33
    4  A    between atoms: C_7  and  C_23
    5  A    between atoms: C_12  and  C_14
    6  A    between atoms: C_12  and  C_43
    7  A    between atoms: C_14  and  C_15
    8  A    between atoms: N_17  and  C_22
    9  A    between atoms: N_17  and  C_24
   10  A    between atoms: N_17  and  C_32
   11  A    between atoms: C_19  and  C_36
   12  A    between atoms: C_27  and  O_44
   13  A    between atoms: N_29  and  C_48
   14  A    between atoms: O_35  and  C_41
                            x       y       z     vdW  Elec       q    Type
                         _______ _______ _______ _____ _____    ______ ____

>  <TORSDO>
F 14

$$$$
=
 OpenBabel11042422153D

 50 54  0  0  1  0  0  0  0  0999 V2000
  161.3090  204.5100  148.5250 N   0  0  0  0  0  0  0  0  0  0  0  0
  160.3280  207.8160  150.1190 C   0  0  0  0  0  2  0  0  0  0  0  0
  162.5780  206.4470  150.2710 C   0  0  0  0  0  2  0  0  0  0  0  0
  160.9860  208.6520  151.2380 C   0  0  2  0  0  3  0  0  0  0  0  0
  160.6120  205.6910  148.9460 C   0  0  0  0  0  3  0  0  0  0  0  0
  162.4700  208.8090  151.0030 C   0  0  0  0  0  3  0  0  0  0  0  0
  163.2090  207.7860  150.5460 C   0  0  0  0  0  3  0  0  0  0  0  0
  161.1780  206.6310  149.7130 C   0  0  0  0  0  0  0  0  0  0  0  0
  160.6750  208.0110  152.5920 C   0  0  0  0  0  2  0  0  0  0  0  0
  159.9400  208.9500  153.4350 N   0  0  0  0  0  2  0  0  0  0  0  0
  161.3130  210.8670  154.1480 C   0  0  0  0  0  2  0  0  0  0  0  0
  160.4770  211.8240  154.9950 C   0  0  2  0  0  3  0  0  0  0  0  0
  160.0860  209.5660  155.7830 C   0  0  2  0  0  3  0  0  0  0  0  0
  160.8470  209.4470  154.4730 C   0  0  1  0  0  3  0  0  0  0  0  0
  160.2000  211.0210  156.2550 C   0  0  0  0  0  2  0  0  0  0  0  0
  160.5180  208.5580  156.7700 N   0  0  0  0  0  0  0  0  0  0  0  0
  160.1220  207.2130  156.3630 C   0  0  0  0  0  1  0  0  0  0  0  0
  161.9750  208.5850  156.8510 C   0  0  0  0  0  1  0  0  0  0  0  0
  159.5770  212.5580  153.0750 C   0  0  0  0  0  1  0  0  0  0  0  0
  159.2530  212.0760  154.3530 O   0  0  0  0  0  0  0  0  0  0  0  0
  163.2950  204.4010  147.0630 C   0  0  0  0  0  2  0  0  0  0  0  0
  163.7290  203.9910  145.6620 C   0  0  0  0  0  2  0  0  0  0  0  0
  161.8280  205.3920  144.8180 C   0  0  0  0  0  0  0  0  0  0  0  0
  161.7700  204.3530  147.1360 C   0  0  2  0  0  3  0  0  0  0  0  0
  161.1900  205.4140  146.1810 C   0  0  0  0  0  2  0  0  0  0  0  0
  163.0190  204.7940  144.6060 C   0  0  0  0  0  3  0  0  0  0  0  0
  161.9970  206.2060  141.2790 C   0  0  0  0  0  3  0  0  0  0  0  0
  161.1680  206.1630  143.7540 C   0  0  0  0  0  3  0  0  0  0  0  0
  161.5890  206.1790  142.5160 C   0  0  0  0  0  0  0  0  0  0  0  0
  162.1850  207.5240  140.6110 C   0  0  0  0  0  2  0  0  0  0  0  0
  161.1320  207.7060  139.5240 C   0  0  0  0  0  2  0  0  0  0  0  0
  162.2460  207.0500  137.5030 O   0  0  0  0  0  0  0  0  0  0  0  0
  161.9070  209.3240  137.6970 N   0  0  0  0  0  2  0  0  0  0  0  0
  161.7480  207.9920  138.1790 C   0  0  0  0  0  0  0  0  0  0  0  0
  163.4790  213.0590  139.6790 C   0  0  0  0  0  1  0  0  0  0  0  0
  161.2750  210.5330  138.2160 C   0  0  1  0  0  0  0  0  0  0  0  0
  162.0210  211.0650  139.4300 C   0  0  1  0  0  3  0  0  0  0  0  0
  161.4160  211.6390  137.1800 C   0  0  0  0  0  2  0  0  0  0  0  0
  162.1700  212.5390  139.1170 C   0  0  2  0  0  3  0  0  0  0  0  0
  162.1780  212.7060  137.7150 O   0  0  0  0  0  0  0  0  0  0  0  0
  161.2780  210.9040  140.7560 C   0  0  0  0  0  1  0  0  0  0  0  0
  159.9190  210.3050  138.4730 O   0  0  0  0  0  1  0  0  0  0  0  0
  160.8940  202.2810  151.4300 C   0  0  0  0  0  3  0  0  0  0  0  0
  160.6420  201.0560  150.8180 C   0  0  0  0  0  2  0  0  0  0  0  0
  161.0670  203.3200  149.3040 C   0  0  2  0  0  3  0  0  0  0  0  0
  161.1040  203.3820  150.6620 N   0  0  0  0  0  0  0  0  0  0  0  0
  160.8060  202.0840  148.6870 C   0  0  0  0  0  0  0  0  0  0  0  0
  160.6040  200.9800  149.4610 N   0  0  0  0  0  0  0  0  0  0  0  0
  160.9540  200.7920  146.5910 C   0  0  0  0  0  1  0  0  0  0  0  0
  160.7250  201.9980  147.2950 O   0  0  0  0  0  0  0  0  0  0  0  0
  1  5  1  0  0  0  0
  2  4  1  0  0  0  0
  3  7  1  0  0  0  0
  4  9  1  1  0  0  0
  5  8  2  0  0  0  0
  6  4  1  0  0  0  0
  7  6  2  0  0  0  0
  8  2  1  0  0  0  0
  8  3  1  0  0  0  0
  9 10  1  0  0  0  0
 11 14  1  0  0  0  0
 11 12  1  0  0  0  0
 12 20  1  6  0  0  0
 12 15  1  0  0  0  0
 13 15  1  0  0  0  0
 13 16  1  1  0  0  0
 14 10  1  6  0  0  0
 14 13  1  0  0  0  0
 16 18  1  0  0  0  0
 17 16  1  0  0  0  0
 19 20  1  0  0  0  0
 21 24  1  0  0  0  0
 22 21  1  0  0  0  0
 23 25  1  0  0  0  0
 24  1  1  1  0  0  0
 25 24  1  0  0  0  0
 26 23  2  0  0  0  0
 26 22  1  0  0  0  0
 27 29  2  0  0  0  0
 28 23  1  0  0  0  0
 29 28  2  0  0  0  0
 30 27  1  0  0  0  0
 31 30  1  0  0  0  0
 32 34  2  0  0  0  0
 33 34  1  0  0  0  0
 33 36  1  0  0  0  0
 34 31  1  0  0  0  0
 36 42  1  1  0  0  0
 36 37  1  0  0  0  0
 37 41  1  1  0  0  0
 38 40  1  0  0  0  0
 38 36  1  0  0  0  0
 39 37  1  0  0  0  0
 39 35  1  6  0  0  0
 40 39  1  0  0  0  0
 44 43  1  0  0  0  0
 45  1  1  6  0  0  0
 45 46  1  0  0  0  0
 46 43  2  0  0  0  0
 47 45  1  0  0  0  0
 47 48  2  0  0  0  0
 48 44  1  0  0  0  0
 49 50  1  0  0  0  0
 50 47  1  0  0  0  0
M  END
>  <MODEL>
9

>  <REMARK>
 VINA RESULT:      -3.9      3.858     10.637
  Name = 
  14 active torsions:
  status: ('A' for Active; 'I' for Inactive)
    1  A    between atoms: N_1  and  C_7
    2  A    between atoms: N_1  and  C_49
    3  A    between atoms: C_4  and  N_33
    4  A    between atoms: C_7  and  C_23
    5  A    between atoms: C_12  and  C_14
    6  A    between atoms: C_12  and  C_43
    7  A    between atoms: C_14  and  C_15
    8  A    between atoms: N_17  and  C_22
    9  A    between atoms: N_17  and  C_24
   10  A    between atoms: N_17  and  C_32
   11  A    between atoms: C_19  and  C_36
   12  A    between atoms: C_27  and  O_44
   13  A    between atoms: N_29  and  C_48
   14  A    between atoms: O_35  and  C_41
                            x       y       z     vdW  Elec       q    Type
                         _______ _______ _______ _____ _____    ______ ____

>  <TORSDO>
F 14

$$$$
