=
 OpenBabel11052409573D

 29 31  0  0  1  0  0  0  0  0999 V2000
  160.7790  208.5620  152.5290 C   0  0  1  0  0  3  0  0  0  0  0  0
  159.9790  210.5570  154.7710 C   0  0  0  0  0  0  0  0  0  0  0  0
  162.0980  209.3820  150.6870 C   0  0  0  0  0  2  0  0  0  0  0  0
  161.3270  206.1070  152.2530 C   0  0  0  0  0  0  0  0  0  0  0  0
  160.6580  209.3160  154.9880 N   0  0  0  0  0  2  0  0  0  0  0  0
  161.6520  209.7250  152.1000 C   0  0  0  0  0  2  0  0  0  0  0  0
  161.0590  207.0660  154.4440 N   0  0  0  0  0  0  0  0  0  0  0  0
  159.3010  210.7440  153.7240 O   0  0  0  0  0  0  0  0  0  0  0  0
  161.2420  205.9390  153.5760 C   0  0  0  0  0  3  0  0  0  0  0  0
  160.0440  211.5680  155.7800 N   0  0  0  0  0  2  0  0  0  0  0  0
  161.2460  207.4380  151.7300 N   0  0  0  0  0  0  0  0  0  0  0  0
  162.0320  207.8670  150.5900 C   0  0  0  0  0  2  0  0  0  0  0  0
  160.8700  208.2810  154.0170 C   0  0  0  0  0  0  0  0  0  0  0  0
  159.3760  212.8630  155.6990 C   0  0  1  0  0  0  0  0  0  0  0  0
  160.1050  213.8110  156.4200 O   0  0  0  0  0  1  0  0  0  0  0  0
  159.2770  213.2950  154.2430 C   0  0  0  0  0  1  0  0  0  0  0  0
  157.9750  212.7170  156.2940 C   0  0  0  0  0  2  0  0  0  0  0  0
  156.1880  211.3500  155.2580 C   0  0  0  0  0  1  0  0  0  0  0  0
  155.8860  213.7320  155.5460 N   0  0  0  0  0  1  0  0  0  0  0  0
  156.8670  212.7030  155.2470 C   0  0  1  0  0  3  0  0  0  0  0  0
  160.5940  204.4300  150.5960 C   0  0  0  0  0  3  0  0  0  0  0  0
  161.5570  204.9680  151.3450 C   0  0  0  0  0  3  0  0  0  0  0  0
  161.2810  201.0780  148.0380 C   0  0  0  0  0  0  0  0  0  0  0  0
  161.0550  203.4720  148.3220 C   0  0  0  0  0  3  0  0  0  0  0  0
  161.0570  200.8940  149.4060 C   0  0  0  0  0  3  0  0  0  0  0  0
  161.2790  202.3660  147.4970 C   0  0  0  0  0  3  0  0  0  0  0  0
  160.8330  203.2930  149.6970 C   0  0  0  0  0  0  0  0  0  0  0  0
  160.8340  202.0000  150.2320 C   0  0  0  0  0  3  0  0  0  0  0  0
  161.5090  199.9530  147.1980 N   0  0  0  0  0  1  0  0  0  0  0  0
  1  6  1  1  0  0  0
  1 13  1  0  0  0  0
  2  5  1  0  0  0  0
  2 10  1  0  0  0  0
  3  6  1  0  0  0  0
  4  9  2  0  0  0  0
  8  2  2  0  0  0  0
  9  7  1  0  0  0  0
 11  4  1  0  0  0  0
 11  1  1  0  0  0  0
 12  3  1  0  0  0  0
 12 11  1  0  0  0  0
 13  7  2  0  0  0  0
 13  5  1  0  0  0  0
 14 16  1  6  0  0  0
 14 10  1  0  0  0  0
 14 17  1  0  0  0  0
 14 15  1  0  0  0  0
 20 18  1  1  0  0  0
 20 19  1  0  0  0  0
 20 17  1  0  0  0  0
 21 22  2  0  0  0  0
 22  4  1  0  0  0  0
 23 25  1  0  0  0  0
 24 27  2  0  0  0  0
 25 28  2  0  0  0  0
 26 23  2  0  0  0  0
 26 24  1  0  0  0  0
 27 28  1  0  0  0  0
 27 21  1  0  0  0  0
 29 23  1  0  0  0  0
M  END
>  <MODEL>
1

>  <REMARK>
 VINA RESULT:      -8.8      0.000      0.000
  Name = 
  5 active torsions:
  status: ('A' for Active; 'I' for Inactive)
    1  A    between atoms: C_2  and  N_19
    2  A    between atoms: C_2  and  C_25
    3  A    between atoms: C_9  and  C_20
    4  A    between atoms: C_10  and  C_13
    5  A    between atoms: C_23  and  C_25
                            x       y       z     vdW  Elec       q    Type
                         _______ _______ _______ _____ _____    ______ ____

>  <TORSDO>
F 5

$$$$
=
 OpenBabel11052409573D

 29 31  0  0  1  0  0  0  0  0999 V2000
  160.8000  207.6140  151.9090 C   0  0  1  0  0  3  0  0  0  0  0  0
  160.1500  209.5780  154.2250 C   0  0  0  0  0  0  0  0  0  0  0  0
  161.9980  208.4600  149.9960 C   0  0  0  0  0  2  0  0  0  0  0  0
  161.3250  205.1640  151.5630 C   0  0  0  0  0  0  0  0  0  0  0  0
  160.8390  208.3340  154.3800 N   0  0  0  0  0  2  0  0  0  0  0  0
  161.6440  208.7830  151.4410 C   0  0  0  0  0  2  0  0  0  0  0  0
  161.2010  206.0920  153.7800 N   0  0  0  0  0  0  0  0  0  0  0  0
  159.4060  209.7810  153.2270 O   0  0  0  0  0  0  0  0  0  0  0  0
  161.3250  204.9770  152.8860 C   0  0  0  0  0  3  0  0  0  0  0  0
  160.2810  210.5750  155.2430 N   0  0  0  0  0  2  0  0  0  0  0  0
  161.2120  206.5030  151.0650 N   0  0  0  0  0  0  0  0  0  0  0  0
  161.9230  206.9470  149.8820 C   0  0  0  0  0  2  0  0  0  0  0  0
  160.9860  207.3120  153.3830 C   0  0  0  0  0  0  0  0  0  0  0  0
  159.6110  211.8710  155.2230 C   0  0  1  0  0  0  0  0  0  0  0  0
  158.2530  211.6990  155.5060 O   0  0  0  0  0  1  0  0  0  0  0  0
  160.2380  212.7860  156.2650 C   0  0  0  0  0  1  0  0  0  0  0  0
  159.7810  212.4770  153.8290 C   0  0  0  0  0  2  0  0  0  0  0  0
  158.3290  214.4490  153.4550 C   0  0  0  0  0  1  0  0  0  0  0  0
  158.4730  212.7090  151.7830 N   0  0  0  0  0  1  0  0  0  0  0  0
  158.4730  212.9620  153.2130 C   0  0  1  0  0  3  0  0  0  0  0  0
  160.7200  203.8610  149.5550 C   0  0  0  0  0  3  0  0  0  0  0  0
  161.4940  204.0380  150.6260 C   0  0  0  0  0  3  0  0  0  0  0  0
  161.2360  200.5380  146.9200 C   0  0  0  0  0  0  0  0  0  0  0  0
  160.8170  202.9020  147.2370 C   0  0  0  0  0  3  0  0  0  0  0  0
  161.3120  200.3660  148.3050 C   0  0  0  0  0  3  0  0  0  0  0  0
  160.9880  201.8050  146.3870 C   0  0  0  0  0  3  0  0  0  0  0  0
  160.8940  202.7340  148.6290 C   0  0  0  0  0  0  0  0  0  0  0  0
  161.1410  201.4620  149.1570 C   0  0  0  0  0  3  0  0  0  0  0  0
  161.4110  199.4240  146.0550 N   0  0  0  0  0  1  0  0  0  0  0  0
  1  6  1  6  0  0  0
  1 13  1  0  0  0  0
  2  5  1  0  0  0  0
  2 10  1  0  0  0  0
  3  6  1  0  0  0  0
  4  9  2  0  0  0  0
  8  2  2  0  0  0  0
  9  7  1  0  0  0  0
 11  4  1  0  0  0  0
 11  1  1  0  0  0  0
 12  3  1  0  0  0  0
 12 11  1  0  0  0  0
 13  7  2  0  0  0  0
 13  5  1  0  0  0  0
 14 10  1  0  0  0  0
 14 15  1  0  0  0  0
 14 16  1  1  0  0  0
 17 14  1  0  0  0  0
 19 20  1  0  0  0  0
 20 18  1  6  0  0  0
 20 17  1  0  0  0  0
 21 22  2  0  0  0  0
 22  4  1  0  0  0  0
 23 25  1  0  0  0  0
 24 27  2  0  0  0  0
 25 28  2  0  0  0  0
 26 23  2  0  0  0  0
 26 24  1  0  0  0  0
 27 28  1  0  0  0  0
 27 21  1  0  0  0  0
 29 23  1  0  0  0  0
M  END
>  <MODEL>
2

>  <REMARK>
 VINA RESULT:      -7.7      1.654      1.874
  Name = 
  5 active torsions:
  status: ('A' for Active; 'I' for Inactive)
    1  A    between atoms: C_2  and  N_19
    2  A    between atoms: C_2  and  C_25
    3  A    between atoms: C_9  and  C_20
    4  A    between atoms: C_10  and  C_13
    5  A    between atoms: C_23  and  C_25
                            x       y       z     vdW  Elec       q    Type
                         _______ _______ _______ _____ _____    ______ ____

>  <TORSDO>
F 5

$$$$
=
 OpenBabel11052409573D

 29 31  0  0  1  0  0  0  0  0999 V2000
  161.1730  207.4910  150.4940 C   0  0  1  0  0  3  0  0  0  0  0  0
  161.9440  206.2550  147.7510 C   0  0  0  0  0  0  0  0  0  0  0  0
  161.2970  206.0930  152.4530 C   0  0  0  0  0  2  0  0  0  0  0  0
  161.2570  209.7230  151.6830 C   0  0  0  0  0  0  0  0  0  0  0  0
  162.5170  207.4460  148.2990 N   0  0  0  0  0  2  0  0  0  0  0  0
  161.7520  206.1850  151.0040 C   0  0  0  0  0  2  0  0  0  0  0  0
  162.3480  209.4210  149.5590 N   0  0  0  0  0  0  0  0  0  0  0  0
  160.8150  205.8480  148.1390 O   0  0  0  0  0  0  0  0  0  0  0  0
  161.9140  210.2500  150.6460 C   0  0  0  0  0  3  0  0  0  0  0  0
  162.6510  205.5540  146.7240 N   0  0  0  0  0  2  0  0  0  0  0  0
  161.0120  208.3110  151.6860 N   0  0  0  0  0  0  0  0  0  0  0  0
  161.0570  207.5240  152.9030 C   0  0  0  0  0  2  0  0  0  0  0  0
  162.0570  208.1570  149.4580 C   0  0  0  0  0  0  0  0  0  0  0  0
  162.1670  204.3470  146.0620 C   0  0  1  0  0  0  0  0  0  0  0  0
  160.9090  204.5930  145.5050 O   0  0  0  0  0  1  0  0  0  0  0  0
  163.1400  203.9410  144.9650 C   0  0  0  0  0  1  0  0  0  0  0  0
  162.0670  203.2350  147.1070 C   0  0  0  0  0  2  0  0  0  0  0  0
  160.7770  201.3300  146.1880 C   0  0  0  0  0  1  0  0  0  0  0  0
  160.4000  202.0740  148.4570 N   0  0  0  0  0  1  0  0  0  0  0  0
  160.7170  202.5260  147.1130 C   0  0  1  0  0  3  0  0  0  0  0  0
  159.6610  211.1710  152.8870 C   0  0  0  0  0  3  0  0  0  0  0  0
  160.8380  210.5480  152.8300 C   0  0  0  0  0  3  0  0  0  0  0  0
  158.4480  213.6140  156.1760 C   0  0  0  0  0  0  0  0  0  0  0  0
  159.5260  211.6060  155.3560 C   0  0  0  0  0  3  0  0  0  0  0  0
  158.1730  214.0030  154.8610 C   0  0  0  0  0  3  0  0  0  0  0  0
  159.1240  212.4160  156.4220 C   0  0  0  0  0  3  0  0  0  0  0  0
  159.2540  211.9940  154.0340 C   0  0  0  0  0  0  0  0  0  0  0  0
  158.5760  213.1940  153.7940 C   0  0  0  0  0  3  0  0  0  0  0  0
  158.0400  214.4370  157.2610 N   0  0  0  0  0  1  0  0  0  0  0  0
  1  6  1  1  0  0  0
  1 11  1  0  0  0  0
  2  8  2  0  0  0  0
  2  5  1  0  0  0  0
  3 12  1  0  0  0  0
  4 11  1  0  0  0  0
  4 22  1  0  0  0  0
  5 13  1  0  0  0  0
  6  3  1  0  0  0  0
  7  9  1  0  0  0  0
  9  4  2  0  0  0  0
 10  2  1  0  0  0  0
 11 12  1  0  0  0  0
 13  7  2  0  0  0  0
 13  1  1  0  0  0  0
 14 16  1  6  0  0  0
 14 10  1  0  0  0  0
 14 17  1  0  0  0  0
 15 14  1  0  0  0  0
 17 20  1  0  0  0  0
 20 18  1  6  0  0  0
 20 19  1  0  0  0  0
 21 27  1  0  0  0  0
 22 21  2  0  0  0  0
 23 26  1  0  0  0  0
 23 29  1  0  0  0  0
 24 26  2  0  0  0  0
 25 23  2  0  0  0  0
 27 24  1  0  0  0  0
 28 27  2  0  0  0  0
 28 25  1  0  0  0  0
M  END
>  <MODEL>
3

>  <REMARK>
 VINA RESULT:      -6.8      3.242     10.482
  Name = 
  5 active torsions:
  status: ('A' for Active; 'I' for Inactive)
    1  A    between atoms: C_2  and  N_19
    2  A    between atoms: C_2  and  C_25
    3  A    between atoms: C_9  and  C_20
    4  A    between atoms: C_10  and  C_13
    5  A    between atoms: C_23  and  C_25
                            x       y       z     vdW  Elec       q    Type
                         _______ _______ _______ _____ _____    ______ ____

>  <TORSDO>
F 5

$$$$
=
 OpenBabel11052409573D

 29 31  0  0  1  0  0  0  0  0999 V2000
  161.5680  205.8380  151.0900 C   0  0  1  0  0  3  0  0  0  0  0  0
  161.4630  208.6360  152.4330 C   0  0  0  0  0  0  0  0  0  0  0  0
  160.8310  203.9300  152.3650 C   0  0  0  0  0  2  0  0  0  0  0  0
  161.3310  204.8030  148.7930 C   0  0  0  0  0  0  0  0  0  0  0  0
  160.8520  208.3090  151.1810 N   0  0  0  0  0  2  0  0  0  0  0  0
  160.7830  205.4510  152.3290 C   0  0  0  0  0  2  0  0  0  0  0  0
  160.8230  207.1290  149.1510 N   0  0  0  0  0  0  0  0  0  0  0  0
  162.4180  207.9450  152.8820 O   0  0  0  0  0  0  0  0  0  0  0  0
  161.0110  205.9980  148.2880 C   0  0  0  0  0  3  0  0  0  0  0  0
  161.0050  209.7870  153.1490 N   0  0  0  0  0  2  0  0  0  0  0  0
  161.4660  204.6800  150.2140 N   0  0  0  0  0  0  0  0  0  0  0  0
  161.0450  203.4900  150.9270 C   0  0  0  0  0  2  0  0  0  0  0  0
  161.0390  207.0990  150.4340 C   0  0  0  0  0  0  0  0  0  0  0  0
  161.5600  210.2470  154.4170 C   0  0  1  0  0  0  0  0  0  0  0  0
  162.8610  210.7150  154.2150 O   0  0  0  0  0  1  0  0  0  0  0  0
  160.6950  211.3690  154.9750 C   0  0  0  0  0  1  0  0  0  0  0  0
  161.5740  209.0680  155.3900 C   0  0  0  0  0  2  0  0  0  0  0  0
  160.0000  207.1580  155.5050 C   0  0  0  0  0  1  0  0  0  0  0  0
  160.0280  208.8200  157.2610 N   0  0  0  0  0  1  0  0  0  0  0  0
  160.1820  208.6250  155.8290 C   0  0  1  0  0  3  0  0  0  0  0  0
  160.6740  202.5660  147.9830 C   0  0  0  0  0  3  0  0  0  0  0  0
  161.4890  203.6190  147.9290 C   0  0  0  0  0  3  0  0  0  0  0  0
  161.1990  199.1100  145.5270 C   0  0  0  0  0  0  0  0  0  0  0  0
  160.3060  201.3410  145.8230 C   0  0  0  0  0  3  0  0  0  0  0  0
  161.7320  199.1520  146.8190 C   0  0  0  0  0  3  0  0  0  0  0  0
  160.4860  200.2040  145.0300 C   0  0  0  0  0  3  0  0  0  0  0  0
  160.8410  201.3890  147.1200 C   0  0  0  0  0  0  0  0  0  0  0  0
  161.5530  200.2900  147.6120 C   0  0  0  0  0  3  0  0  0  0  0  0
  161.3820  197.9530  144.7200 N   0  0  0  0  0  1  0  0  0  0  0  0
  1  6  1  1  0  0  0
  2  8  2  0  0  0  0
  2 10  1  0  0  0  0
  4 11  1  0  0  0  0
  5  2  1  0  0  0  0
  6  3  1  0  0  0  0
  7 13  2  0  0  0  0
  9  4  2  0  0  0  0
  9  7  1  0  0  0  0
 10 14  1  0  0  0  0
 11 12  1  0  0  0  0
 11  1  1  0  0  0  0
 12  3  1  0  0  0  0
 13  1  1  0  0  0  0
 13  5  1  0  0  0  0
 14 16  1  1  0  0  0
 14 17  1  0  0  0  0
 15 14  1  0  0  0  0
 17 20  1  0  0  0  0
 20 18  1  1  0  0  0
 20 19  1  0  0  0  0
 22 21  2  0  0  0  0
 22  4  1  0  0  0  0
 23 25  1  0  0  0  0
 24 27  2  0  0  0  0
 25 28  2  0  0  0  0
 26 23  2  0  0  0  0
 26 24  1  0  0  0  0
 27 28  1  0  0  0  0
 27 21  1  0  0  0  0
 29 23  1  0  0  0  0
M  END
>  <MODEL>
4

>  <REMARK>
 VINA RESULT:      -6.7      2.614      4.170
  Name = 
  5 active torsions:
  status: ('A' for Active; 'I' for Inactive)
    1  A    between atoms: C_2  and  N_19
    2  A    between atoms: C_2  and  C_25
    3  A    between atoms: C_9  and  C_20
    4  A    between atoms: C_10  and  C_13
    5  A    between atoms: C_23  and  C_25
                            x       y       z     vdW  Elec       q    Type
                         _______ _______ _______ _____ _____    ______ ____

>  <TORSDO>
F 5

$$$$
=
 OpenBabel11052409573D

 29 31  0  0  1  0  0  0  0  0999 V2000
  160.8710  206.1730  151.3590 C   0  0  1  0  0  3  0  0  0  0  0  0
  161.1540  204.0150  149.1440 C   0  0  0  0  0  0  0  0  0  0  0  0
  161.2090  205.5090  153.6510 C   0  0  0  0  0  2  0  0  0  0  0  0
  161.2530  208.6530  151.6800 C   0  0  0  0  0  0  0  0  0  0  0  0
  161.8670  205.2550  149.1700 N   0  0  0  0  0  2  0  0  0  0  0  0
  161.4470  205.0620  152.2160 C   0  0  0  0  0  2  0  0  0  0  0  0
  161.9960  207.5450  149.6770 N   0  0  0  0  0  0  0  0  0  0  0  0
  160.0750  203.8800  149.7830 O   0  0  0  0  0  0  0  0  0  0  0  0
  161.7760  208.7310  150.4530 C   0  0  0  0  0  3  0  0  0  0  0  0
  161.6600  202.9410  148.3460 N   0  0  0  0  0  2  0  0  0  0  0  0
  160.9340  207.3570  152.2020 N   0  0  0  0  0  0  0  0  0  0  0  0
  161.1180  207.0250  153.6010 C   0  0  0  0  0  2  0  0  0  0  0  0
  161.6250  206.3570  150.0570 C   0  0  0  0  0  0  0  0  0  0  0  0
  161.0170  201.6380  148.2080 C   0  0  1  0  0  0  0  0  0  0  0  0
  161.9810  200.6700  147.9150 O   0  0  0  0  0  1  0  0  0  0  0  0
  160.3110  201.2780  149.5070 C   0  0  0  0  0  1  0  0  0  0  0  0
  160.0000  201.7240  147.0700 C   0  0  0  0  0  2  0  0  0  0  0  0
  159.7220  200.9740  144.7250 C   0  0  0  0  0  1  0  0  0  0  0  0
  160.8310  203.0670  145.2110 N   0  0  0  0  0  1  0  0  0  0  0  0
  160.6350  201.7070  145.6840 C   0  0  1  0  0  3  0  0  0  0  0  0
  160.4280  209.8300  153.6870 C   0  0  0  0  0  3  0  0  0  0  0  0
  161.0570  209.8550  152.5110 C   0  0  0  0  0  3  0  0  0  0  0  0
  159.9070  213.3000  156.1250 C   0  0  0  0  0  0  0  0  0  0  0  0
  159.4950  212.1330  154.0440 C   0  0  0  0  0  3  0  0  0  0  0  0
  160.6480  212.2090  156.5900 C   0  0  0  0  0  3  0  0  0  0  0  0
  159.3320  213.2620  154.8530 C   0  0  0  0  0  3  0  0  0  0  0  0
  160.2350  211.0340  154.5070 C   0  0  0  0  0  0  0  0  0  0  0  0
  160.8100  211.0790  155.7820 C   0  0  0  0  0  3  0  0  0  0  0  0
  159.7410  214.4480  156.9480 N   0  0  0  0  0  1  0  0  0  0  0  0
  1 11  1  0  0  0  0
  1  6  1  1  0  0  0
  2  5  1  0  0  0  0
  2  8  2  0  0  0  0
  4 11  1  0  0  0  0
  4 22  1  0  0  0  0
  5 13  1  0  0  0  0
  6  3  1  0  0  0  0
  7 13  2  0  0  0  0
  7  9  1  0  0  0  0
  9  4  2  0  0  0  0
 10  2  1  0  0  0  0
 11 12  1  0  0  0  0
 12  3  1  0  0  0  0
 13  1  1  0  0  0  0
 14 10  1  0  0  0  0
 14 16  1  1  0  0  0
 15 14  1  0  0  0  0
 17 14  1  0  0  0  0
 19 20  1  0  0  0  0
 20 18  1  6  0  0  0
 20 17  1  0  0  0  0
 21 27  1  0  0  0  0
 22 21  2  0  0  0  0
 23 25  1  0  0  0  0
 23 29  1  0  0  0  0
 24 27  2  0  0  0  0
 24 26  1  0  0  0  0
 26 23  2  0  0  0  0
 27 28  1  0  0  0  0
 28 25  2  0  0  0  0
M  END
>  <MODEL>
5

>  <REMARK>
 VINA RESULT:      -6.6      3.218     10.541
  Name = 
  5 active torsions:
  status: ('A' for Active; 'I' for Inactive)
    1  A    between atoms: C_2  and  N_19
    2  A    between atoms: C_2  and  C_25
    3  A    between atoms: C_9  and  C_20
    4  A    between atoms: C_10  and  C_13
    5  A    between atoms: C_23  and  C_25
                            x       y       z     vdW  Elec       q    Type
                         _______ _______ _______ _____ _____    ______ ____

>  <TORSDO>
F 5

$$$$
=
 OpenBabel11052409573D

 29 31  0  0  1  0  0  0  0  0999 V2000
  161.4500  205.9050  151.5460 C   0  0  1  0  0  3  0  0  0  0  0  0
  161.2740  208.6500  152.9860 C   0  0  0  0  0  0  0  0  0  0  0  0
  160.7490  203.9370  152.7480 C   0  0  0  0  0  2  0  0  0  0  0  0
  161.2510  204.9470  149.2120 C   0  0  0  0  0  0  0  0  0  0  0  0
  160.6780  208.3540  151.7190 N   0  0  0  0  0  2  0  0  0  0  0  0
  160.6670  205.4560  152.7650 C   0  0  0  0  0  2  0  0  0  0  0  0
  160.6880  207.2460  149.6490 N   0  0  0  0  0  0  0  0  0  0  0  0
  162.2410  207.9650  153.4180 O   0  0  0  0  0  0  0  0  0  0  0  0
  160.9070  206.1510  148.7480 C   0  0  0  0  0  3  0  0  0  0  0  0
  160.7850  209.7640  153.7390 N   0  0  0  0  0  2  0  0  0  0  0  0
  161.3800  204.7760  150.6290 N   0  0  0  0  0  0  0  0  0  0  0  0
  160.9810  203.5520  151.2960 C   0  0  0  0  0  2  0  0  0  0  0  0
  160.8960  207.1750  150.9310 C   0  0  0  0  0  0  0  0  0  0  0  0
  161.3210  210.1910  155.0270 C   0  0  1  0  0  0  0  0  0  0  0  0
  161.2390  209.1370  155.9410 O   0  0  0  0  0  1  0  0  0  0  0  0
  162.7750  210.6100  154.8610 C   0  0  0  0  0  1  0  0  0  0  0  0
  160.4920  211.3770  155.5220 C   0  0  0  0  0  2  0  0  0  0  0  0
  158.0210  211.2690  155.6630 C   0  0  0  0  0  1  0  0  0  0  0  0
  159.0900  212.9460  154.2880 N   0  0  0  0  0  1  0  0  0  0  0  0
  159.1910  211.5730  154.7520 C   0  0  1  0  0  3  0  0  0  0  0  0
  160.6310  202.7400  148.2980 C   0  0  0  0  0  3  0  0  0  0  0  0
  161.4410  203.7980  148.3080 C   0  0  0  0  0  3  0  0  0  0  0  0
  161.2450  199.3830  145.7270 C   0  0  0  0  0  0  0  0  0  0  0  0
  160.3870  201.6220  146.0630 C   0  0  0  0  0  3  0  0  0  0  0  0
  161.6860  199.3530  147.0530 C   0  0  0  0  0  3  0  0  0  0  0  0
  160.5950  200.5170  145.2320 C   0  0  0  0  0  3  0  0  0  0  0  0
  160.8300  201.5980  147.3950 C   0  0  0  0  0  0  0  0  0  0  0  0
  161.4790  200.4590  147.8840 C   0  0  0  0  0  3  0  0  0  0  0  0
  161.4560  198.2590  144.8820 N   0  0  0  0  0  1  0  0  0  0  0  0
  1  6  1  1  0  0  0
  2  8  2  0  0  0  0
  2 10  1  0  0  0  0
  3  6  1  0  0  0  0
  4 11  1  0  0  0  0
  5  2  1  0  0  0  0
  7 13  2  0  0  0  0
  9  4  2  0  0  0  0
  9  7  1  0  0  0  0
 10 14  1  0  0  0  0
 11 12  1  0  0  0  0
 11  1  1  0  0  0  0
 12  3  1  0  0  0  0
 13  1  1  0  0  0  0
 13  5  1  0  0  0  0
 14 16  1  6  0  0  0
 14 17  1  0  0  0  0
 14 15  1  0  0  0  0
 19 20  1  0  0  0  0
 20 17  1  0  0  0  0
 20 18  1  1  0  0  0
 21 22  2  0  0  0  0
 22  4  1  0  0  0  0
 23 25  1  0  0  0  0
 24 27  2  0  0  0  0
 25 28  2  0  0  0  0
 26 23  2  0  0  0  0
 26 24  1  0  0  0  0
 27 28  1  0  0  0  0
 27 21  1  0  0  0  0
 29 23  1  0  0  0  0
M  END
>  <MODEL>
6

>  <REMARK>
 VINA RESULT:      -6.4      2.010      3.567
  Name = 
  5 active torsions:
  status: ('A' for Active; 'I' for Inactive)
    1  A    between atoms: C_2  and  N_19
    2  A    between atoms: C_2  and  C_25
    3  A    between atoms: C_9  and  C_20
    4  A    between atoms: C_10  and  C_13
    5  A    between atoms: C_23  and  C_25
                            x       y       z     vdW  Elec       q    Type
                         _______ _______ _______ _____ _____    ______ ____

>  <TORSDO>
F 5

$$$$
