=
 OpenBabel11052410303D

 57 62  0  0  1  0  0  0  0  0999 V2000
  162.1870  211.2360  149.4940 C   0  0  1  0  0  3  0  0  0  0  0  0
  161.3040  210.7810  150.6710 C   0  0  1  0  0  3  0  0  0  0  0  0
  160.6140  211.4650  152.9810 C   0  0  0  0  0  0  0  0  0  0  0  0
  162.1640  210.2290  151.8100 C   0  0  1  0  0  3  0  0  0  0  0  0
  159.8290  211.8620  154.1050 N   0  0  0  0  0  2  0  0  0  0  0  0
  161.5000  210.5340  153.0650 N   0  0  0  0  0  0  0  0  0  0  0  0
  160.3410  212.1690  151.3730 S   0  0  0  0  0  0  0  0  0  0  0  0
  162.4420  208.7340  151.6710 C   0  0  0  0  0  2  0  0  0  0  0  0
  161.1880  207.8820  151.8270 C   0  0  0  0  0  2  0  0  0  0  0  0
  161.7600  204.3180  152.3840 O   0  0  0  0  0  0  0  0  0  0  0  0
  161.3370  205.3630  151.8220 C   0  0  0  0  0  0  0  0  0  0  0  0
  161.5390  206.6240  152.4590 N   0  0  0  0  0  2  0  0  0  0  0  0
  160.6040  205.2680  150.5180 C   0  0  1  0  0  3  0  0  0  0  0  0
  161.4580  205.7780  149.3480 C   0  0  0  0  0  2  0  0  0  0  0  0
  161.0530  205.0950  148.1230 N   0  0  0  0  0  0  0  0  0  0  0  0
  161.0660  203.0770  149.5930 C   0  0  0  0  0  2  0  0  0  0  0  0
  161.4290  203.6790  148.2240 C   0  0  0  0  0  2  0  0  0  0  0  0
  160.0820  203.9100  150.2970 N   0  0  0  0  0  2  0  0  0  0  0  0
  161.8160  205.6730  147.0260 C   0  0  0  0  0  2  0  0  0  0  0  0
  160.3650  206.6270  145.3930 O   0  0  0  0  0  1  0  0  0  0  0  0
  161.0170  205.6180  145.7700 C   0  0  0  0  0  0  0  0  0  0  0  0
  160.9360  204.4330  145.0550 O   0  0  0  0  0  0  0  0  0  0  0  0
  160.0690  211.3480  155.3870 N   0  0  0  0  0  2  0  0  0  0  0  0
  161.1670  210.3980  155.2640 C   0  0  0  0  0  2  0  0  0  0  0  0
  160.1980  208.1230  155.1690 O   0  0  0  0  0  0  0  0  0  0  0  0
  160.7720  209.0850  155.8460 C   0  0  0  0  0  0  0  0  0  0  0  0
  160.9280  208.7270  157.1670 C   0  0  0  0  0  3  0  0  0  0  0  0
  159.9630  207.1160  155.9770 C   0  0  0  0  0  3  0  0  0  0  0  0
  160.4060  207.4460  157.2490 C   0  0  0  0  0  3  0  0  0  0  0  0
  162.3530  210.1670  148.4410 C   0  0  0  0  0  3  0  0  0  0  0  0
  161.5740  209.0870  148.3830 C   0  0  0  0  0  2  0  0  0  0  0  0
  161.7870  212.5870  148.8800 C   0  0  0  0  0  2  0  0  0  0  0  0
  162.9180  213.2590  148.1500 C   0  0  0  0  0  3  0  0  0  0  0  0
  162.7160  214.1010  147.1290 C   0  0  0  0  0  3  0  0  0  0  0  0
  161.3450  214.4480  146.6390 C   0  0  0  0  0  2  0  0  0  0  0  0
  160.8320  213.3640  145.7170 C   0  0  0  0  0  2  0  0  0  0  0  0
  161.7870  212.8660  143.4450 C   0  0  1  0  0  3  0  0  0  0  0  0
  159.5810  214.1520  143.5830 C   0  0  2  0  0  3  0  0  0  0  0  0
  160.1370  213.0790  141.5030 C   0  0  2  0  0  3  0  0  0  0  0  0
  159.8500  214.2440  140.5530 C   0  0  0  0  0  2  0  0  0  0  0  0
  160.0800  213.8270  139.1050 C   0  0  0  0  0  2  0  0  0  0  0  0
  162.6100  213.4350  139.3140 C   0  0  0  0  0  2  0  0  0  0  0  0
  162.1870  212.1630  139.7300 O   0  0  0  0  0  0  0  0  0  0  0  0
  161.4790  214.1800  138.5980 C   0  0  0  0  0  2  0  0  0  0  0  0
  159.2070  213.0950  142.6430 N   0  0  0  0  0  2  0  0  0  0  0  0
  160.9370  213.8500  144.2730 C   0  0  1  0  0  3  0  0  0  0  0  0
  161.6180  213.0890  141.9310 C   0  0  2  0  0  3  0  0  0  0  0  0
  162.4460  212.0830  141.1150 C   0  0  0  0  0  2  0  0  0  0  0  0
  163.1390  212.8030  143.8660 O   0  0  0  0  0  0  0  0  0  0  0  0
  163.7320  214.0680  143.6960 C   0  0  0  0  0  1  0  0  0  0  0  0
  158.4260  214.4320  144.5350 C   0  0  0  0  0  2  0  0  0  0  0  0
  158.1740  213.2760  145.3860 N   0  0  0  0  0  2  0  0  0  0  0  0
  157.4230  213.7420  146.5510 C   0  0  2  0  0  3  0  0  0  0  0  0
  159.0370  212.2090  147.7240 F   0  0  0  0  0  0  0  0  0  0  0  0
  157.9690  213.0900  147.8060 C   0  0  2  0  0  0  0  0  0  0  0  0
  156.6790  212.5800  147.2170 C   0  0  0  0  0  2  0  0  0  0  0  0
  157.7950  213.8080  148.9910 O   0  0  0  0  0  1  0  0  0  0  0  0
  1 30  1  6  0  0  0
  2  1  1  6  0  0  0
  2  7  1  0  0  0  0
  2  4  1  0  0  0  0
  3  6  2  0  0  0  0
  3  5  1  0  0  0  0
  4  8  1  6  0  0  0
  4  6  1  0  0  0  0
  5 23  1  0  0  0  0
  7  3  1  0  0  0  0
  8  9  1  0  0  0  0
  9 12  1  0  0  0  0
 11 10  2  0  0  0  0
 11 12  1  0  0  0  0
 13 11  1  1  0  0  0
 14 13  1  0  0  0  0
 15 17  1  0  0  0  0
 15 14  1  0  0  0  0
 16 18  1  0  0  0  0
 17 16  1  0  0  0  0
 18 13  1  0  0  0  0
 19 15  1  0  0  0  0
 20 21  1  0  0  0  0
 21 19  1  0  0  0  0
 22 21  2  0  0  0  0
 24 23  1  0  0  0  0
 24 26  1  0  0  0  0
 25 26  1  0  0  0  0
 25 28  1  0  0  0  0
 26 27  2  0  0  0  0
 27 29  1  0  0  0  0
 28 29  2  0  0  0  0
 31 30  2  0  0  0  0
 32  1  1  0  0  0  0
 33 32  1  0  0  0  0
 34 33  2  0  0  0  0
 35 34  1  0  0  0  0
 36 35  1  0  0  0  0
 37 49  1  1  0  0  0
 37 46  1  0  0  0  0
 38 46  1  0  0  0  0
 38 51  1  1  0  0  0
 39 40  1  6  0  0  0
 39 47  1  0  0  0  0
 39 45  1  0  0  0  0
 41 40  1  0  0  0  0
 42 43  1  0  0  0  0
 43 48  1  0  0  0  0
 44 41  1  0  0  0  0
 44 42  1  0  0  0  0
 45 38  1  0  0  0  0
 46 36  1  1  0  0  0
 47 48  1  6  0  0  0
 47 37  1  0  0  0  0
 50 49  1  0  0  0  0
 51 52  1  0  0  0  0
 53 52  1  6  0  0  0
 53 56  1  0  0  0  0
 53 55  1  0  0  0  0
 55 54  1  6  0  0  0
 55 57  1  0  0  0  0
 56 55  1  0  0  0  0
M  END
>  <MODEL>
1

>  <REMARK>
 VINA RESULT:      -5.8      0.000      0.000
  Name = 
  20 active torsions:
  status: ('A' for Active; 'I' for Inactive)
    1  A    between atoms: C_1  and  N_13
    2  A    between atoms: C_1  and  C_28
    3  A    between atoms: C_2  and  C_34
    4  A    between atoms: C_3  and  O_9
    5  A    between atoms: C_4  and  C_32
    6  A    between atoms: C_5  and  C_56
    7  A    between atoms: C_7  and  N_51
    8  A    between atoms: N_11  and  C_45
    9  A    between atoms: N_13  and  N_23
   10  A    between atoms: C_14  and  C_29
   11  A    between atoms: C_14  and  N_35
   12  A    between atoms: C_17  and  C_29
   13  A    between atoms: C_19  and  C_21
   14  A    between atoms: C_19  and  C_54
   15  A    between atoms: C_21  and  C_39
   16  A    between atoms: C_25  and  C_34
   17  A    between atoms: C_34  and  C_42
   18  A    between atoms: C_36  and  C_42
   19  A    between atoms: C_45  and  C_46
   20  A    between atoms: N_51  and  C_56
                            x       y       z     vdW  Elec       q    Type
                         _______ _______ _______ _____ _____    ______ ____

>  <TORSDO>
F 20

$$$$
=
 OpenBabel11052410303D

 57 62  0  0  1  0  0  0  0  0999 V2000
  161.5700  209.9070  149.7590 C   0  0  1  0  0  3  0  0  0  0  0  0
  162.2500  208.5610  149.4420 C   0  0  1  0  0  3  0  0  0  0  0  0
  162.1340  206.6370  147.8410 C   0  0  0  0  0  0  0  0  0  0  0  0
  161.3610  207.3920  149.8740 C   0  0  1  0  0  3  0  0  0  0  0  0
  162.4720  205.6790  146.8380 N   0  0  0  0  0  2  0  0  0  0  0  0
  161.5850  206.2920  148.9540 N   0  0  0  0  0  0  0  0  0  0  0  0
  162.5440  208.3550  147.6490 S   0  0  0  0  0  0  0  0  0  0  0  0
  161.6000  206.9710  151.3220 C   0  0  0  0  0  2  0  0  0  0  0  0
  160.9090  207.8870  152.3260 C   0  0  0  0  0  2  0  0  0  0  0  0
  160.2790  207.1760  155.8530 O   0  0  0  0  0  0  0  0  0  0  0  0
  160.5270  207.8540  154.8200 C   0  0  0  0  0  0  0  0  0  0  0  0
  160.7360  207.1780  153.5800 N   0  0  0  0  0  2  0  0  0  0  0  0
  160.6310  209.3460  154.9100 C   0  0  1  0  0  3  0  0  0  0  0  0
  159.2500  210.0160  154.8400 C   0  0  0  0  0  2  0  0  0  0  0  0
  159.2930  211.2820  155.5670 N   0  0  0  0  0  0  0  0  0  0  0  0
  160.5340  209.9310  157.2600 C   0  0  0  0  0  2  0  0  0  0  0  0
  159.4580  211.0010  156.9980 C   0  0  0  0  0  2  0  0  0  0  0  0
  161.4070  209.7560  156.0920 N   0  0  0  0  0  2  0  0  0  0  0  0
  157.9990  211.9290  155.3950 C   0  0  0  0  0  2  0  0  0  0  0  0
  158.3380  213.3730  153.5290 O   0  0  0  0  0  0  0  0  0  0  0  0
  158.1840  213.2710  154.7740 C   0  0  0  0  0  0  0  0  0  0  0  0
  158.2540  214.3980  155.5770 O   0  0  0  0  0  1  0  0  0  0  0  0
  162.1090  204.3310  146.9590 N   0  0  0  0  0  2  0  0  0  0  0  0
  160.9030  204.2880  147.7740 C   0  0  0  0  0  2  0  0  0  0  0  0
  160.9790  201.8270  148.0250 O   0  0  0  0  0  0  0  0  0  0  0  0
  160.8610  203.0180  148.5530 C   0  0  0  0  0  0  0  0  0  0  0  0
  160.6630  202.9320  149.9140 C   0  0  0  0  0  3  0  0  0  0  0  0
  160.8770  200.9290  148.9760 C   0  0  0  0  0  3  0  0  0  0  0  0
  160.6790  201.5750  150.1870 C   0  0  0  0  0  3  0  0  0  0  0  0
  162.2400  210.6480  150.8910 C   0  0  0  0  0  3  0  0  0  0  0  0
  162.3460  210.1420  152.1190 C   0  0  0  0  0  2  0  0  0  0  0  0
  161.3450  210.8120  148.5370 C   0  0  0  0  0  2  0  0  0  0  0  0
  161.1960  212.2640  148.9010 C   0  0  0  0  0  3  0  0  0  0  0  0
  161.3820  213.2500  148.0140 C   0  0  0  0  0  3  0  0  0  0  0  0
  161.7410  212.9840  146.5860 C   0  0  0  0  0  2  0  0  0  0  0  0
  162.1050  214.2780  145.8910 C   0  0  0  0  0  2  0  0  0  0  0  0
  162.0980  213.3210  143.5660 C   0  0  1  0  0  3  0  0  0  0  0  0
  159.8800  214.1160  144.5620 C   0  0  2  0  0  3  0  0  0  0  0  0
  159.8030  212.6010  142.6950 C   0  0  2  0  0  3  0  0  0  0  0  0
  158.7790  213.3420  141.8330 C   0  0  0  0  0  2  0  0  0  0  0  0
  158.4860  212.5630  140.5560 C   0  0  0  0  0  2  0  0  0  0  0  0
  160.8380  212.7720  139.5430 C   0  0  0  0  0  2  0  0  0  0  0  0
  161.0680  211.6260  140.3220 O   0  0  0  0  0  0  0  0  0  0  0  0
  159.3360  213.0210  139.3700 C   0  0  0  0  0  2  0  0  0  0  0  0
  159.5020  212.7720  144.1250 N   0  0  0  0  0  2  0  0  0  0  0  0
  161.4180  214.3170  144.5270 C   0  0  1  0  0  3  0  0  0  0  0  0
  161.2340  213.0390  142.3230 C   0  0  2  0  0  3  0  0  0  0  0  0
  161.9060  212.0220  141.3850 C   0  0  0  0  0  2  0  0  0  0  0  0
  163.4400  213.6630  143.2640 O   0  0  0  0  0  0  0  0  0  0  0  0
  163.5000  214.1720  141.9520 C   0  0  0  0  0  1  0  0  0  0  0  0
  159.2240  214.4310  145.8990 C   0  0  0  0  0  2  0  0  0  0  0  0
  157.8450  213.9610  145.9140 N   0  0  0  0  0  2  0  0  0  0  0  0
  157.2300  214.4360  147.1530 C   0  0  2  0  0  3  0  0  0  0  0  0
  157.9980  212.1780  147.9510 F   0  0  0  0  0  0  0  0  0  0  0  0
  157.3570  213.3760  148.2280 C   0  0  2  0  0  0  0  0  0  0  0  0
  156.0310  213.5610  147.5340 C   0  0  0  0  0  2  0  0  0  0  0  0
  157.3660  213.8410  149.5440 O   0  0  0  0  0  1  0  0  0  0  0  0
  1 32  1  6  0  0  0
  1 30  1  0  0  0  0
  2  1  1  6  0  0  0
  2  4  1  0  0  0  0
  3  6  2  0  0  0  0
  4  8  1  1  0  0  0
  5 23  1  0  0  0  0
  5  3  1  0  0  0  0
  6  4  1  0  0  0  0
  7  3  1  0  0  0  0
  7  2  1  0  0  0  0
  8  9  1  0  0  0  0
  9 12  1  0  0  0  0
 11 10  2  0  0  0  0
 12 11  1  0  0  0  0
 13 11  1  1  0  0  0
 13 18  1  0  0  0  0
 14 13  1  0  0  0  0
 14 15  1  0  0  0  0
 15 17  1  0  0  0  0
 17 16  1  0  0  0  0
 18 16  1  0  0  0  0
 19 15  1  0  0  0  0
 20 21  2  0  0  0  0
 21 19  1  0  0  0  0
 21 22  1  0  0  0  0
 23 24  1  0  0  0  0
 24 26  1  0  0  0  0
 25 26  1  0  0  0  0
 25 28  1  0  0  0  0
 26 27  2  0  0  0  0
 27 29  1  0  0  0  0
 28 29  2  0  0  0  0
 30 31  2  0  0  0  0
 32 33  1  0  0  0  0
 34 33  2  0  0  0  0
 35 34  1  0  0  0  0
 36 35  1  0  0  0  0
 37 49  1  6  0  0  0
 37 46  1  0  0  0  0
 38 51  1  1  0  0  0
 39 40  1  6  0  0  0
 39 45  1  0  0  0  0
 41 40  1  0  0  0  0
 42 43  1  0  0  0  0
 43 48  1  0  0  0  0
 44 42  1  0  0  0  0
 44 41  1  0  0  0  0
 45 38  1  0  0  0  0
 46 38  1  0  0  0  0
 46 36  1  1  0  0  0
 47 48  1  1  0  0  0
 47 39  1  0  0  0  0
 47 37  1  0  0  0  0
 50 49  1  0  0  0  0
 51 52  1  0  0  0  0
 53 52  1  6  0  0  0
 53 56  1  0  0  0  0
 53 55  1  0  0  0  0
 55 54  1  6  0  0  0
 55 57  1  0  0  0  0
 56 55  1  0  0  0  0
M  END
>  <MODEL>
2

>  <REMARK>
 VINA RESULT:      -4.4      2.001      6.101
  Name = 
  20 active torsions:
  status: ('A' for Active; 'I' for Inactive)
    1  A    between atoms: C_1  and  N_13
    2  A    between atoms: C_1  and  C_28
    3  A    between atoms: C_2  and  C_34
    4  A    between atoms: C_3  and  O_9
    5  A    between atoms: C_4  and  C_32
    6  A    between atoms: C_5  and  C_56
    7  A    between atoms: C_7  and  N_51
    8  A    between atoms: N_11  and  C_45
    9  A    between atoms: N_13  and  N_23
   10  A    between atoms: C_14  and  C_29
   11  A    between atoms: C_14  and  N_35
   12  A    between atoms: C_17  and  C_29
   13  A    between atoms: C_19  and  C_21
   14  A    between atoms: C_19  and  C_54
   15  A    between atoms: C_21  and  C_39
   16  A    between atoms: C_25  and  C_34
   17  A    between atoms: C_34  and  C_42
   18  A    between atoms: C_36  and  C_42
   19  A    between atoms: C_45  and  C_46
   20  A    between atoms: N_51  and  C_56
                            x       y       z     vdW  Elec       q    Type
                         _______ _______ _______ _____ _____    ______ ____

>  <TORSDO>
F 20

$$$$
=
 OpenBabel11052410303D

 57 62  0  0  1  0  0  0  0  0999 V2000
  161.8710  209.4130  155.2210 C   0  0  1  0  0  3  0  0  0  0  0  0
  161.3550  210.8490  155.0150 C   0  0  1  0  0  3  0  0  0  0  0  0
  159.9250  212.5930  156.1070 C   0  0  0  0  0  0  0  0  0  0  0  0
  159.8780  210.8410  154.6150 C   0  0  1  0  0  3  0  0  0  0  0  0
  159.4890  213.8030  156.7260 N   0  0  0  0  0  2  0  0  0  0  0  0
  159.2570  212.0350  155.1580 N   0  0  0  0  0  0  0  0  0  0  0  0
  161.4720  211.8390  156.5480 S   0  0  0  0  0  0  0  0  0  0  0  0
  159.6740  210.7390  153.1050 C   0  0  0  0  0  2  0  0  0  0  0  0
  160.3950  211.8390  152.3350 C   0  0  0  0  0  2  0  0  0  0  0  0
  158.2300  214.4530  150.9870 O   0  0  0  0  0  0  0  0  0  0  0  0
  159.0590  213.5050  150.9910 C   0  0  0  0  0  0  0  0  0  0  0  0
  159.5330  213.0020  152.2400 N   0  0  0  0  0  2  0  0  0  0  0  0
  159.5590  212.9420  149.6950 C   0  0  1  0  0  3  0  0  0  0  0  0
  158.8640  213.5900  148.4890 C   0  0  0  0  0  2  0  0  0  0  0  0
  159.7640  213.5560  147.3390 N   0  0  0  0  0  0  0  0  0  0  0  0
  161.4630  214.2800  149.0190 C   0  0  0  0  0  2  0  0  0  0  0  0
  160.8970  214.4530  147.5970 C   0  0  0  0  0  2  0  0  0  0  0  0
  161.0270  213.0110  149.6150 N   0  0  0  0  0  2  0  0  0  0  0  0
  159.0360  214.0900  146.1970 C   0  0  0  0  0  2  0  0  0  0  0  0
  158.8640  212.7740  144.2160 O   0  0  0  0  0  0  0  0  0  0  0  0
  158.4660  212.9710  145.3940 C   0  0  0  0  0  0  0  0  0  0  0  0
  157.4480  212.1920  145.9220 O   0  0  0  0  0  1  0  0  0  0  0  0
  158.2490  214.3790  156.4190 N   0  0  0  0  0  2  0  0  0  0  0  0
  157.2550  213.7100  157.2480 C   0  0  0  0  0  2  0  0  0  0  0  0
  156.2910  211.4680  156.8390 O   0  0  0  0  0  0  0  0  0  0  0  0
  156.5220  212.6930  156.4420 C   0  0  0  0  0  0  0  0  0  0  0  0
  156.0250  212.8980  155.1730 C   0  0  0  0  0  3  0  0  0  0  0  0
  155.6450  210.8290  155.8910 C   0  0  0  0  0  3  0  0  0  0  0  0
  155.4520  211.6880  154.8190 C   0  0  0  0  0  3  0  0  0  0  0  0
  161.2460  208.7330  156.4160 C   0  0  0  0  0  3  0  0  0  0  0  0
  160.0540  208.1390  156.3640 C   0  0  0  0  0  2  0  0  0  0  0  0
  161.8140  208.5270  153.9660 C   0  0  0  0  0  2  0  0  0  0  0  0
  161.4900  207.0910  154.2740 C   0  0  0  0  0  3  0  0  0  0  0  0
  160.9830  206.2560  153.3590 C   0  0  0  0  0  3  0  0  0  0  0  0
  160.7080  206.6840  151.9510 C   0  0  0  0  0  2  0  0  0  0  0  0
  161.8130  206.2030  151.0360 C   0  0  0  0  0  2  0  0  0  0  0  0
  161.6730  206.5030  148.5440 C   0  0  1  0  0  3  0  0  0  0  0  0
  161.3910  204.1500  149.5040 C   0  0  2  0  0  3  0  0  0  0  0  0
  161.9520  204.3610  147.1740 C   0  0  2  0  0  3  0  0  0  0  0  0
  160.9150  203.3990  146.5940 C   0  0  0  0  0  2  0  0  0  0  0  0
  161.0680  203.2910  145.0810 C   0  0  0  0  0  2  0  0  0  0  0  0
  160.4370  205.7250  144.5520 C   0  0  0  0  0  2  0  0  0  0  0  0
  161.8060  205.9310  144.7870 O   0  0  0  0  0  0  0  0  0  0  0  0
  160.1410  204.2400  144.3190 C   0  0  0  0  0  2  0  0  0  0  0  0
  162.4160  203.8960  148.4910 N   0  0  0  0  0  2  0  0  0  0  0  0
  161.1910  205.6690  149.7470 C   0  0  1  0  0  3  0  0  0  0  0  0
  161.3940  205.7980  147.2040 C   0  0  2  0  0  3  0  0  0  0  0  0
  161.9050  206.6240  146.0120 C   0  0  0  0  0  2  0  0  0  0  0  0
  161.2320  207.8490  148.5840 O   0  0  0  0  0  0  0  0  0  0  0  0
  162.2860  208.6650  149.0370 C   0  0  0  0  0  1  0  0  0  0  0  0
  161.6840  203.3340  150.7560 C   0  0  0  0  0  2  0  0  0  0  0  0
  160.5950  202.4050  151.0270 N   0  0  0  0  0  2  0  0  0  0  0  0
  159.9390  202.1110  149.7540 C   0  0  2  0  0  3  0  0  0  0  0  0
  158.9870  200.2240  151.1190 F   0  0  0  0  0  0  0  0  0  0  0  0
  159.0700  200.8770  149.8980 C   0  0  2  0  0  0  0  0  0  0  0  0
  160.4030  200.7580  149.2040 C   0  0  0  0  0  2  0  0  0  0  0  0
  157.9810  200.7940  149.0290 O   0  0  0  0  0  1  0  0  0  0  0  0
  1 32  1  6  0  0  0
  1 30  1  0  0  0  0
  2  1  1  1  0  0  0
  2  7  1  0  0  0  0
  3  7  1  0  0  0  0
  3  5  1  0  0  0  0
  4  8  1  6  0  0  0
  4  2  1  0  0  0  0
  4  6  1  0  0  0  0
  6  3  2  0  0  0  0
  9  8  1  0  0  0  0
 10 11  2  0  0  0  0
 11 12  1  0  0  0  0
 12  9  1  0  0  0  0
 13 11  1  1  0  0  0
 14 13  1  0  0  0  0
 15 17  1  0  0  0  0
 15 14  1  0  0  0  0
 16 18  1  0  0  0  0
 17 16  1  0  0  0  0
 18 13  1  0  0  0  0
 19 15  1  0  0  0  0
 20 21  2  0  0  0  0
 21 22  1  0  0  0  0
 21 19  1  0  0  0  0
 23  5  1  0  0  0  0
 23 24  1  0  0  0  0
 26 25  1  0  0  0  0
 26 24  1  0  0  0  0
 27 26  2  0  0  0  0
 28 25  1  0  0  0  0
 29 27  1  0  0  0  0
 29 28  2  0  0  0  0
 31 30  2  0  0  0  0
 32 33  1  0  0  0  0
 34 33  2  0  0  0  0
 35 34  1  0  0  0  0
 36 35  1  0  0  0  0
 37 49  1  6  0  0  0
 37 46  1  0  0  0  0
 38 46  1  0  0  0  0
 38 51  1  1  0  0  0
 39 40  1  1  0  0  0
 39 47  1  0  0  0  0
 39 45  1  0  0  0  0
 41 40  1  0  0  0  0
 42 43  1  0  0  0  0
 43 48  1  0  0  0  0
 44 42  1  0  0  0  0
 44 41  1  0  0  0  0
 45 38  1  0  0  0  0
 46 36  1  1  0  0  0
 47 48  1  6  0  0  0
 47 37  1  0  0  0  0
 49 50  1  0  0  0  0
 51 52  1  0  0  0  0
 53 55  1  0  0  0  0
 53 52  1  1  0  0  0
 55 57  1  6  0  0  0
 55 54  1  0  0  0  0
 56 53  1  0  0  0  0
 56 55  1  0  0  0  0
M  END
>  <MODEL>
3

>  <REMARK>
 VINA RESULT:      -4.4      3.623      8.820
  Name = 
  20 active torsions:
  status: ('A' for Active; 'I' for Inactive)
    1  A    between atoms: C_1  and  N_13
    2  A    between atoms: C_1  and  C_28
    3  A    between atoms: C_2  and  C_34
    4  A    between atoms: C_3  and  O_9
    5  A    between atoms: C_4  and  C_32
    6  A    between atoms: C_5  and  C_56
    7  A    between atoms: C_7  and  N_51
    8  A    between atoms: N_11  and  C_45
    9  A    between atoms: N_13  and  N_23
   10  A    between atoms: C_14  and  C_29
   11  A    between atoms: C_14  and  N_35
   12  A    between atoms: C_17  and  C_29
   13  A    between atoms: C_19  and  C_21
   14  A    between atoms: C_19  and  C_54
   15  A    between atoms: C_21  and  C_39
   16  A    between atoms: C_25  and  C_34
   17  A    between atoms: C_34  and  C_42
   18  A    between atoms: C_36  and  C_42
   19  A    between atoms: C_45  and  C_46
   20  A    between atoms: N_51  and  C_56
                            x       y       z     vdW  Elec       q    Type
                         _______ _______ _______ _____ _____    ______ ____

>  <TORSDO>
F 20

$$$$
=
 OpenBabel11052410303D

 57 62  0  0  1  0  0  0  0  0999 V2000
  161.1020  208.7860  154.1780 C   0  0  1  0  0  3  0  0  0  0  0  0
  161.0270  210.3100  154.3820 C   0  0  1  0  0  3  0  0  0  0  0  0
  160.5540  212.0300  156.1420 C   0  0  0  0  0  0  0  0  0  0  0  0
  159.5710  210.7710  154.4850 C   0  0  1  0  0  3  0  0  0  0  0  0
  160.6990  213.1200  157.0530 N   0  0  0  0  0  2  0  0  0  0  0  0
  159.5210  211.9100  155.3830 N   0  0  0  0  0  0  0  0  0  0  0  0
  161.8460  210.8280  155.9320 S   0  0  0  0  0  0  0  0  0  0  0  0
  158.9570  211.1000  153.1260 C   0  0  0  0  0  2  0  0  0  0  0  0
  159.9970  211.2170  152.0190 C   0  0  0  0  0  2  0  0  0  0  0  0
  160.7930  214.4530  150.5250 O   0  0  0  0  0  0  0  0  0  0  0  0
  160.5640  213.2160  150.5870 C   0  0  0  0  0  0  0  0  0  0  0  0
  160.3800  212.6080  151.8650 N   0  0  0  0  0  2  0  0  0  0  0  0
  160.5190  212.3980  149.3320 C   0  0  1  0  0  3  0  0  0  0  0  0
  159.9920  213.2130  148.1420 C   0  0  0  0  0  2  0  0  0  0  0  0
  160.5620  212.6830  146.9060 N   0  0  0  0  0  0  0  0  0  0  0  0
  162.6700  212.6370  148.2420 C   0  0  0  0  0  2  0  0  0  0  0  0
  162.0030  212.9580  146.8920 C   0  0  0  0  0  2  0  0  0  0  0  0
  161.8190  211.7640  149.0620 N   0  0  0  0  0  2  0  0  0  0  0  0
  159.9660  213.4180  145.7990 C   0  0  0  0  0  2  0  0  0  0  0  0
  158.2230  212.0700  144.8880 O   0  0  0  0  0  1  0  0  0  0  0  0
  159.4160  212.4620  144.7970 C   0  0  0  0  0  0  0  0  0  0  0  0
  160.2390  211.9540  143.8040 O   0  0  0  0  0  0  0  0  0  0  0  0
  159.6660  214.0440  157.2610 N   0  0  0  0  0  2  0  0  0  0  0  0
  159.0180  214.2520  155.9730 C   0  0  0  0  0  2  0  0  0  0  0  0
  156.8060  213.4980  155.1580 O   0  0  0  0  0  0  0  0  0  0  0  0
  157.5510  214.0200  156.0990 C   0  0  0  0  0  0  0  0  0  0  0  0
  156.7900  214.3500  157.1980 C   0  0  0  0  0  3  0  0  0  0  0  0
  155.5630  213.4510  155.5780 C   0  0  0  0  0  3  0  0  0  0  0  0
  155.5000  213.9750  156.8600 C   0  0  0  0  0  3  0  0  0  0  0  0
  160.4590  208.0130  155.3040 C   0  0  0  0  0  3  0  0  0  0  0  0
  160.1990  206.7080  155.2250 C   0  0  0  0  0  2  0  0  0  0  0  0
  160.6160  208.3010  152.8020 C   0  0  0  0  0  2  0  0  0  0  0  0
  161.4050  208.8860  151.6610 C   0  0  0  0  0  3  0  0  0  0  0  0
  162.3490  208.1950  151.0110 C   0  0  0  0  0  3  0  0  0  0  0  0
  162.6890  206.7800  151.3610 C   0  0  0  0  0  2  0  0  0  0  0  0
  161.4700  205.8980  151.2020 C   0  0  0  0  0  2  0  0  0  0  0  0
  161.0510  203.4800  150.6590 C   0  0  1  0  0  3  0  0  0  0  0  0
  161.5910  205.0840  148.7410 C   0  0  2  0  0  3  0  0  0  0  0  0
  160.5260  202.9940  148.2030 C   0  0  2  0  0  3  0  0  0  0  0  0
  161.4320  202.5580  147.0500 C   0  0  0  0  0  2  0  0  0  0  0  0
  160.9520  201.2380  146.4590 C   0  0  0  0  0  2  0  0  0  0  0  0
  161.3950  199.8070  148.5460 C   0  0  0  0  0  2  0  0  0  0  0  0
  160.1080  200.2490  148.8890 O   0  0  0  0  0  0  0  0  0  0  0  0
  161.6670  200.0230  147.0540 C   0  0  0  0  0  2  0  0  0  0  0  0
  160.3740  204.4580  148.2220 N   0  0  0  0  0  2  0  0  0  0  0  0
  161.8050  204.7590  150.2430 C   0  0  1  0  0  3  0  0  0  0  0  0
  161.0440  202.4240  149.5380 C   0  0  2  0  0  3  0  0  0  0  0  0
  160.2640  201.1640  149.9510 C   0  0  0  0  0  2  0  0  0  0  0  0
  161.4590  202.9740  151.9180 O   0  0  0  0  0  0  0  0  0  0  0  0
  162.6090  202.1800  151.7430 C   0  0  0  0  0  1  0  0  0  0  0  0
  161.5990  206.5670  148.3990 C   0  0  0  0  0  2  0  0  0  0  0  0
  161.8610  206.7620  146.9790 N   0  0  0  0  0  2  0  0  0  0  0  0
  161.0190  205.8220  146.2410 C   0  0  2  0  0  3  0  0  0  0  0  0
  162.8020  206.1800  144.5040 F   0  0  0  0  0  0  0  0  0  0  0  0
  161.6170  205.5630  144.8730 C   0  0  2  0  0  0  0  0  0  0  0  0
  160.4310  206.4860  144.9920 C   0  0  0  0  0  2  0  0  0  0  0  0
  161.3070  204.3290  144.2970 O   0  0  0  0  0  1  0  0  0  0  0  0
  1 32  1  6  0  0  0
  1 30  1  0  0  0  0
  2  1  1  1  0  0  0
  2  4  1  0  0  0  0
  2  7  1  0  0  0  0
  3  5  1  0  0  0  0
  4  8  1  6  0  0  0
  4  6  1  0  0  0  0
  5 23  1  0  0  0  0
  6  3  2  0  0  0  0
  7  3  1  0  0  0  0
  9  8  1  0  0  0  0
 10 11  2  0  0  0  0
 11 12  1  0  0  0  0
 12  9  1  0  0  0  0
 13 11  1  1  0  0  0
 14 13  1  0  0  0  0
 15 14  1  0  0  0  0
 16 18  1  0  0  0  0
 17 15  1  0  0  0  0
 17 16  1  0  0  0  0
 18 13  1  0  0  0  0
 19 15  1  0  0  0  0
 21 20  1  0  0  0  0
 21 19  1  0  0  0  0
 22 21  2  0  0  0  0
 24 26  1  0  0  0  0
 24 23  1  0  0  0  0
 25 28  1  0  0  0  0
 25 26  1  0  0  0  0
 26 27  2  0  0  0  0
 28 29  2  0  0  0  0
 29 27  1  0  0  0  0
 31 30  2  0  0  0  0
 33 32  1  0  0  0  0
 34 35  1  0  0  0  0
 34 33  2  0  0  0  0
 36 35  1  0  0  0  0
 37 49  1  1  0  0  0
 38 51  1  1  0  0  0
 38 46  1  0  0  0  0
 39 40  1  6  0  0  0
 39 45  1  0  0  0  0
 39 47  1  0  0  0  0
 41 40  1  0  0  0  0
 41 44  1  0  0  0  0
 42 43  1  0  0  0  0
 43 48  1  0  0  0  0
 44 42  1  0  0  0  0
 45 38  1  0  0  0  0
 46 37  1  0  0  0  0
 46 36  1  1  0  0  0
 47 48  1  1  0  0  0
 47 37  1  0  0  0  0
 50 49  1  0  0  0  0
 52 51  1  0  0  0  0
 53 52  1  1  0  0  0
 54 55  1  0  0  0  0
 55 57  1  6  0  0  0
 55 56  1  0  0  0  0
 55 53  1  0  0  0  0
 56 53  1  0  0  0  0
M  END
>  <MODEL>
4

>  <REMARK>
 VINA RESULT:      -3.5      3.087      9.125
  Name = 
  20 active torsions:
  status: ('A' for Active; 'I' for Inactive)
    1  A    between atoms: C_1  and  N_13
    2  A    between atoms: C_1  and  C_28
    3  A    between atoms: C_2  and  C_34
    4  A    between atoms: C_3  and  O_9
    5  A    between atoms: C_4  and  C_32
    6  A    between atoms: C_5  and  C_56
    7  A    between atoms: C_7  and  N_51
    8  A    between atoms: N_11  and  C_45
    9  A    between atoms: N_13  and  N_23
   10  A    between atoms: C_14  and  C_29
   11  A    between atoms: C_14  and  N_35
   12  A    between atoms: C_17  and  C_29
   13  A    between atoms: C_19  and  C_21
   14  A    between atoms: C_19  and  C_54
   15  A    between atoms: C_21  and  C_39
   16  A    between atoms: C_25  and  C_34
   17  A    between atoms: C_34  and  C_42
   18  A    between atoms: C_36  and  C_42
   19  A    between atoms: C_45  and  C_46
   20  A    between atoms: N_51  and  C_56
                            x       y       z     vdW  Elec       q    Type
                         _______ _______ _______ _____ _____    ______ ____

>  <TORSDO>
F 20

$$$$
=
 OpenBabel11052410303D

 57 62  0  0  1  0  0  0  0  0999 V2000
  161.2050  209.1760  154.7340 C   0  0  1  0  0  3  0  0  0  0  0  0
  161.0800  210.6270  154.2320 C   0  0  1  0  0  3  0  0  0  0  0  0
  159.3960  212.4580  153.9330 C   0  0  0  0  0  0  0  0  0  0  0  0
  160.3830  210.6700  152.8700 C   0  0  1  0  0  3  0  0  0  0  0  0
  158.7050  213.7030  154.0430 N   0  0  0  0  0  2  0  0  0  0  0  0
  159.6220  211.9040  152.7920 N   0  0  0  0  0  0  0  0  0  0  0  0
  160.0730  211.6520  155.3640 S   0  0  0  0  0  0  0  0  0  0  0  0
  161.3570  210.5370  151.7030 C   0  0  0  0  0  2  0  0  0  0  0  0
  160.8970  211.2880  150.4590 C   0  0  0  0  0  2  0  0  0  0  0  0
  162.9250  213.4200  148.2950 O   0  0  0  0  0  0  0  0  0  0  0  0
  161.9860  212.6540  148.6380 C   0  0  0  0  0  0  0  0  0  0  0  0
  161.9970  212.0840  149.9460 N   0  0  0  0  0  2  0  0  0  0  0  0
  160.8930  212.3270  147.6650 C   0  0  1  0  0  3  0  0  0  0  0  0
  159.8450  213.4470  147.5920 C   0  0  0  0  0  2  0  0  0  0  0  0
  159.2310  213.4450  146.2660 N   0  0  0  0  0  0  0  0  0  0  0  0
  161.5890  213.1580  145.4980 C   0  0  0  0  0  2  0  0  0  0  0  0
  160.2360  213.8590  145.2790 C   0  0  0  0  0  2  0  0  0  0  0  0
  161.4420  211.9690  146.3470 N   0  0  0  0  0  2  0  0  0  0  0  0
  158.1810  214.4530  146.2690 C   0  0  0  0  0  2  0  0  0  0  0  0
  155.7990  214.4150  146.1550 O   0  0  0  0  0  0  0  0  0  0  0  0
  156.8550  213.8010  146.4610 C   0  0  0  0  0  0  0  0  0  0  0  0
  156.7830  212.5430  147.0400 O   0  0  0  0  0  1  0  0  0  0  0  0
  158.1260  214.3210  152.9260 N   0  0  0  0  0  2  0  0  0  0  0  0
  156.7670  213.8070  152.8140 C   0  0  0  0  0  2  0  0  0  0  0  0
  155.7690  214.4530  154.9850 O   0  0  0  0  0  0  0  0  0  0  0  0
  156.2150  213.5300  154.1700 C   0  0  0  0  0  0  0  0  0  0  0  0
  156.1310  212.2840  154.7500 C   0  0  0  0  0  3  0  0  0  0  0  0
  155.3750  213.8810  156.0990 C   0  0  0  0  0  3  0  0  0  0  0  0
  155.5810  212.5130  156.0010 C   0  0  0  0  0  3  0  0  0  0  0  0
  160.1720  208.8280  155.7780 C   0  0  0  0  0  3  0  0  0  0  0  0
  160.4510  208.7890  157.0810 C   0  0  0  0  0  2  0  0  0  0  0  0
  161.2710  208.1190  153.6200 C   0  0  0  0  0  2  0  0  0  0  0  0
  160.7290  206.7820  154.0460 C   0  0  0  0  0  3  0  0  0  0  0  0
  161.1000  205.6360  153.4610 C   0  0  0  0  0  3  0  0  0  0  0  0
  162.0920  205.5940  152.3420 C   0  0  0  0  0  2  0  0  0  0  0  0
  161.3950  205.8280  151.0190 C   0  0  0  0  0  2  0  0  0  0  0  0
  161.0220  203.3980  150.4920 C   0  0  1  0  0  3  0  0  0  0  0  0
  161.5260  205.0000  148.5630 C   0  0  2  0  0  3  0  0  0  0  0  0
  160.5000  202.8870  148.0410 C   0  0  2  0  0  3  0  0  0  0  0  0
  161.4110  202.4610  146.8880 C   0  0  0  0  0  2  0  0  0  0  0  0
  160.9550  201.1280  146.3060 C   0  0  0  0  0  2  0  0  0  0  0  0
  161.4330  199.7190  148.4010 C   0  0  0  0  0  2  0  0  0  0  0  0
  160.1380  200.1380  148.7460 O   0  0  0  0  0  0  0  0  0  0  0  0
  161.6950  199.9310  146.9070 C   0  0  0  0  0  2  0  0  0  0  0  0
  160.3190  204.3480  148.0510 N   0  0  0  0  0  2  0  0  0  0  0  0
  161.7500  204.6890  150.0660 C   0  0  1  0  0  3  0  0  0  0  0  0
  161.0330  202.3350  149.3780 C   0  0  2  0  0  3  0  0  0  0  0  0
  160.2790  201.0630  149.8010 C   0  0  0  0  0  2  0  0  0  0  0  0
  161.4440  202.9080  151.7530 O   0  0  0  0  0  0  0  0  0  0  0  0
  162.2530  201.7720  151.5580 C   0  0  0  0  0  1  0  0  0  0  0  0
  161.5030  206.4810  148.2110 C   0  0  0  0  0  2  0  0  0  0  0  0
  161.8260  206.6770  146.8040 N   0  0  0  0  0  2  0  0  0  0  0  0
  160.6630  206.2610  146.0220 C   0  0  2  0  0  3  0  0  0  0  0  0
  162.4080  204.8450  144.8920 F   0  0  0  0  0  0  0  0  0  0  0  0
  161.0830  205.2460  144.9780 C   0  0  2  0  0  0  0  0  0  0  0  0
  160.8220  206.6690  144.5540 C   0  0  0  0  0  2  0  0  0  0  0  0
  160.0940  204.3520  144.5650 O   0  0  0  0  0  1  0  0  0  0  0  0
  1 32  1  6  0  0  0
  1 30  1  0  0  0  0
  2  1  1  1  0  0  0
  2  7  1  0  0  0  0
  3  5  1  0  0  0  0
  3  7  1  0  0  0  0
  4  8  1  6  0  0  0
  4  2  1  0  0  0  0
  6  4  1  0  0  0  0
  6  3  2  0  0  0  0
  9  8  1  0  0  0  0
 10 11  2  0  0  0  0
 11 12  1  0  0  0  0
 12  9  1  0  0  0  0
 13 11  1  1  0  0  0
 14 13  1  0  0  0  0
 15 19  1  0  0  0  0
 15 14  1  0  0  0  0
 16 18  1  0  0  0  0
 17 16  1  0  0  0  0
 17 15  1  0  0  0  0
 18 13  1  0  0  0  0
 19 21  1  0  0  0  0
 20 21  2  0  0  0  0
 21 22  1  0  0  0  0
 23  5  1  0  0  0  0
 24 23  1  0  0  0  0
 24 26  1  0  0  0  0
 25 28  1  0  0  0  0
 26 27  2  0  0  0  0
 26 25  1  0  0  0  0
 27 29  1  0  0  0  0
 29 28  2  0  0  0  0
 30 31  2  0  0  0  0
 32 33  1  0  0  0  0
 34 33  2  0  0  0  0
 35 34  1  0  0  0  0
 36 35  1  0  0  0  0
 37 49  1  1  0  0  0
 38 51  1  1  0  0  0
 38 46  1  0  0  0  0
 39 40  1  6  0  0  0
 39 45  1  0  0  0  0
 39 47  1  0  0  0  0
 41 40  1  0  0  0  0
 41 44  1  0  0  0  0
 42 43  1  0  0  0  0
 43 48  1  0  0  0  0
 44 42  1  0  0  0  0
 45 38  1  0  0  0  0
 46 37  1  0  0  0  0
 46 36  1  1  0  0  0
 47 48  1  1  0  0  0
 47 37  1  0  0  0  0
 50 49  1  0  0  0  0
 52 51  1  0  0  0  0
 53 52  1  1  0  0  0
 54 55  1  0  0  0  0
 55 57  1  6  0  0  0
 55 53  1  0  0  0  0
 56 55  1  0  0  0  0
 56 53  1  0  0  0  0
M  END
>  <MODEL>
5

>  <REMARK>
 VINA RESULT:      -3.4      3.179      9.487
  Name = 
  20 active torsions:
  status: ('A' for Active; 'I' for Inactive)
    1  A    between atoms: C_1  and  N_13
    2  A    between atoms: C_1  and  C_28
    3  A    between atoms: C_2  and  C_34
    4  A    between atoms: C_3  and  O_9
    5  A    between atoms: C_4  and  C_32
    6  A    between atoms: C_5  and  C_56
    7  A    between atoms: C_7  and  N_51
    8  A    between atoms: N_11  and  C_45
    9  A    between atoms: N_13  and  N_23
   10  A    between atoms: C_14  and  C_29
   11  A    between atoms: C_14  and  N_35
   12  A    between atoms: C_17  and  C_29
   13  A    between atoms: C_19  and  C_21
   14  A    between atoms: C_19  and  C_54
   15  A    between atoms: C_21  and  C_39
   16  A    between atoms: C_25  and  C_34
   17  A    between atoms: C_34  and  C_42
   18  A    between atoms: C_36  and  C_42
   19  A    between atoms: C_45  and  C_46
   20  A    between atoms: N_51  and  C_56
                            x       y       z     vdW  Elec       q    Type
                         _______ _______ _______ _____ _____    ______ ____

>  <TORSDO>
F 20

$$$$
