=
 OpenBabel11042421443D

 47 55  0  0  1  0  0  0  0  0999 V2000
  158.7850  210.4280  152.4590 C   0  0  0  0  0  2  0  0  0  0  0  0
  163.2720  211.1990  148.1190 C   0  0  0  0  0  0  0  0  0  0  0  0
  160.0150  212.5910  150.8030 N   0  0  0  0  0  2  0  0  0  0  0  0
  159.1260  213.3480  151.5780 N   0  0  0  0  0  2  0  0  0  0  0  0
  161.6410  210.0250  149.7090 C   0  0  1  0  0  3  0  0  0  0  0  0
  155.9220  211.8510  155.6120 C   0  0  1  0  0  3  0  0  0  0  0  0
  161.5410  214.3800  148.0830 C   0  0  0  0  0  3  0  0  0  0  0  0
  160.5970  214.3410  149.1190 C   0  0  0  0  0  3  0  0  0  0  0  0
  164.1810  210.3420  147.9710 O   0  0  0  0  0  0  0  0  0  0  0  0
  159.8820  214.1520  155.0060 N   0  0  0  0  0  0  0  0  0  0  0  0
  158.4770  211.6730  153.3150 C   0  0  1  0  0  3  0  0  0  0  0  0
  160.5370  213.0190  149.5450 C   0  0  0  0  0  0  0  0  0  0  0  0
  155.6740  210.6720  156.4270 N   0  0  0  0  0  1  0  0  0  0  0  0
  157.2350  213.2910  156.2340 C   0  0  0  0  0  0  0  0  0  0  0  0
  155.7730  213.0340  156.4080 C   0  0  0  0  0  2  0  0  0  0  0  0
  157.3470  212.0430  155.4490 N   0  0  0  0  0  0  0  0  0  0  0  0
  160.3340  210.0110  150.2440 N   0  0  0  0  0  2  0  0  0  0  0  0
  161.3420  212.2620  148.7780 N   0  0  0  0  0  0  0  0  0  0  0  0
  162.0700  211.0560  148.9550 C   0  0  2  0  0  3  0  0  0  0  0  0
  163.2400  212.5190  147.3880 C   0  0  0  0  0  2  0  0  0  0  0  0
  158.0790  214.2340  156.6430 C   0  0  0  0  0  3  0  0  0  0  0  0
  160.4850  214.3900  157.2610 N   0  0  0  0  0  1  0  0  0  0  0  0
  158.4240  211.3170  154.7970 C   0  0  0  0  0  2  0  0  0  0  0  0
  158.9710  214.1080  153.8670 C   0  0  0  0  0  2  0  0  0  0  0  0
  160.0860  209.7340  152.6240 N   0  0  1  0  0  0  0  0  0  0  0  0
  162.3640  208.8740  150.2470 C   0  0  0  0  0  0  0  0  0  0  0  0
  163.6800  208.3370  149.7970 C   0  0  0  0  0  1  0  0  0  0  0  0
  161.5980  208.3090  151.1880 C   0  0  0  0  0  0  0  0  0  0  0  0
  159.3150  212.9340  152.9680 C   0  0  2  0  0  3  0  0  0  0  0  0
  160.2860  209.0450  151.3260 C   0  0  2  0  0  3  0  0  0  0  0  0
  161.9620  213.0720  147.9350 C   0  0  0  0  0  0  0  0  0  0  0  0
  159.5000  214.2410  156.2460 C   0  0  0  0  0  0  0  0  0  0  0  0
  162.9310  210.8650  154.6300 C   0  0  0  0  0  2  0  0  0  0  0  0
  161.4370  210.7830  154.3920 C   0  0  1  0  0  3  0  0  0  0  0  0
  161.1880  210.6730  152.8940 C   0  0  1  0  0  3  0  0  0  0  0  0
  162.3650  209.9640  153.5510 C   0  0  1  0  0  3  0  0  0  0  0  0
  161.8640  206.9810  151.8310 C   0  0  0  0  0  2  0  0  0  0  0  0
  160.6860  206.0310  151.6700 C   0  0  0  0  0  2  0  0  0  0  0  0
  161.1400  204.7340  151.0180 C   0  0  0  0  0  2  0  0  0  0  0  0
  161.5080  204.5780  146.4730 C   0  0  0  0  0  3  0  0  0  0  0  0
  160.4780  206.0480  148.9490 C   0  0  0  0  0  3  0  0  0  0  0  0
  161.0920  204.8370  149.5280 C   0  0  0  0  0  0  0  0  0  0  0  0
  160.7620  206.5520  147.7490 C   0  0  0  0  0  3  0  0  0  0  0  0
  161.3710  203.5840  147.3500 C   0  0  0  0  0  0  0  0  0  0  0  0
  161.4420  203.7550  148.8170 C   0  0  0  0  0  3  0  0  0  0  0  0
  161.8170  205.9840  146.8620 C   0  0  0  0  0  2  0  0  0  0  0  0
  161.1960  202.3310  146.8680 F   0  0  0  0  0  0  0  0  0  0  0  0
  3  4  1  0  0  0  0
  4 29  1  0  0  0  0
  5 17  1  1  0  0  0
  5 26  1  0  0  0  0
  6 15  1  0  0  0  0
  6 13  1  1  0  0  0
  7  8  1  0  0  0  0
  8 12  2  0  0  0  0
  9  2  2  0  0  0  0
 10 32  2  0  0  0  0
 11  1  1  6  0  0  0
 11 23  1  0  0  0  0
 12  3  1  0  0  0  0
 14 15  1  0  0  0  0
 14 21  2  0  0  0  0
 16  6  1  0  0  0  0
 16 14  1  0  0  0  0
 18 19  1  0  0  0  0
 18 12  1  0  0  0  0
 19  2  1  6  0  0  0
 19  5  1  0  0  0  0
 20 31  1  0  0  0  0
 20  2  1  0  0  0  0
 23 16  1  0  0  0  0
 24 10  1  0  0  0  0
 25  1  1  6  0  0  0
 26 28  2  0  0  0  0
 27 26  1  0  0  0  0
 28 30  1  0  0  0  0
 28 37  1  0  0  0  0
 29 11  1  0  0  0  0
 29 24  1  1  0  0  0
 30 17  1  6  0  0  0
 30 25  1  0  0  0  0
 31  7  2  0  0  0  0
 31 18  1  0  0  0  0
 32 21  1  0  0  0  0
 32 22  1  0  0  0  0
 34 33  1  6  0  0  0
 35 25  1  1  0  0  0
 35 36  1  0  0  0  0
 35 34  1  0  0  0  0
 36 34  1  0  0  0  0
 36 33  1  6  0  0  0
 38 37  1  0  0  0  0
 39 38  1  0  0  0  0
 40 46  1  0  0  0  0
 40 44  2  0  0  0  0
 41 42  1  0  0  0  0
 42 39  1  0  0  0  0
 43 41  2  0  0  0  0
 44 45  1  0  0  0  0
 45 42  2  0  0  0  0
 46 43  1  0  0  0  0
 47 44  1  0  0  0  0
M  END
>  <MODEL>
1

>  <REMARK>
 VINA RESULT:       2.5      0.000      0.000
  Name = 
  5 active torsions:
  status: ('A' for Active; 'I' for Inactive)
    1  A    between atoms: C_5  and  C_30
    2  A    between atoms: C_19  and  C_31
    3  A    between atoms: C_19  and  C_42
    4  A    between atoms: C_30  and  C_31
    5  A    between atoms: C_37  and  N_38
                            x       y       z     vdW  Elec       q    Type
                         _______ _______ _______ _____ _____    ______ ____

>  <TORSDO>
F 5

$$$$
