=
 OpenBabel11052410073D

 54 60  0  0  1  0  0  0  0  0999 V2000
  161.3070  211.2910  155.5060 C   0  0  0  0  0  3  0  0  0  0  0  0
  159.3970  211.3660  152.4580 C   0  0  0  0  0  3  0  0  0  0  0  0
  160.5190  206.2390  153.7160 C   0  0  0  0  0  3  0  0  0  0  0  0
  160.4170  206.9520  154.8280 C   0  0  0  0  0  3  0  0  0  0  0  0
  161.7180  205.3860  151.7150 C   0  0  0  0  0  1  0  0  0  0  0  0
  161.6170  208.3670  156.2370 N   0  0  0  0  0  0  0  0  0  0  0  0
  158.8470  212.4360  151.5730 C   0  0  1  0  0  3  0  0  0  0  0  0
  162.3320  209.4540  156.7700 N   0  0  0  0  0  0  0  0  0  0  0  0
  160.1550  213.5860  150.9730 S   0  0  0  0  0  0  0  0  0  0  0  0
  163.0830  211.6660  157.2340 C   0  0  0  0  0  1  0  0  0  0  0  0
  161.1940  212.3710  150.0870 C   0  0  0  0  0  2  0  0  0  0  0  0
  161.3620  207.8300  151.9760 C   0  0  0  0  0  0  0  0  0  0  0  0
  162.1450  211.6600  151.0420 C   0  0  0  0  0  2  0  0  0  0  0  0
  160.9960  209.3140  154.0620 C   0  0  0  0  0  0  0  0  0  0  0  0
  160.0080  211.6810  153.5950 C   0  0  0  0  0  3  0  0  0  0  0  0
  161.0560  208.2400  155.0730 C   0  0  0  0  0  0  0  0  0  0  0  0
  162.2430  210.7100  156.4680 C   0  0  0  0  0  0  0  0  0  0  0  0
  161.6080  209.4650  149.9660 C   0  0  0  0  0  2  0  0  0  0  0  0
  160.7240  210.7200  154.4610 C   0  0  0  0  0  0  0  0  0  0  0  0
  161.1010  209.0650  152.7500 C   0  0  0  0  0  3  0  0  0  0  0  0
  162.7270  210.3910  150.4260 C   0  0  0  0  0  2  0  0  0  0  0  0
  161.2610  206.5790  152.4940 C   0  0  0  0  0  0  0  0  0  0  0  0
  161.7150  208.0220  150.4910 C   0  0  2  0  0  3  0  0  0  0  0  0
  160.9100  207.1480  149.6250 N   0  0  0  0  0  2  0  0  0  0  0  0
  161.7500  206.5410  148.5930 C   0  0  0  0  0  2  0  0  0  0  0  0
  160.9810  205.4600  147.8550 C   0  0  1  0  0  3  0  0  0  0  0  0
  161.0930  205.6820  146.3550 C   0  0  2  0  0  0  0  0  0  0  0  0
  162.4200  205.8520  145.9350 O   0  0  0  0  0  0  0  0  0  0  0  0
  160.2050  206.6260  145.7000 N   0  0  0  0  0  1  0  0  0  0  0  0
  161.7530  204.6830  145.4970 C   0  0  0  0  0  2  0  0  0  0  0  0
  161.4880  204.2040  148.1950 O   0  0  0  0  0  0  0  0  0  0  0  0
  160.6130  203.7170  149.1740 C   0  0  0  0  0  2  0  0  0  0  0  0
  161.4930  201.9030  150.6340 C   0  0  0  0  0  1  0  0  0  0  0  0
  160.7560  202.2060  149.3420 C   0  0  0  0  0  0  0  0  0  0  0  0
  159.3870  201.5470  149.3890 C   0  0  0  0  0  1  0  0  0  0  0  0
  161.5670  201.6330  148.1830 C   0  0  0  0  0  2  0  0  0  0  0  0
  161.0410  200.4170  147.7460 O   0  0  0  0  0  1  0  0  0  0  0  0
  158.0070  211.8610  150.4350 C   0  0  0  0  0  2  0  0  0  0  0  0
  157.1930  212.8450  149.8640 O   0  0  0  0  0  0  0  0  0  0  0  0
  157.9820  213.4390  148.8840 C   0  0  0  0  0  2  0  0  0  0  0  0
  157.2840  213.0610  147.2510 S   0  0  0  0  0  0  0  0  0  0  0  0
  159.8340  214.1320  147.1600 N   0  0  0  0  0  2  0  0  0  0  0  0
  161.2090  214.4180  146.8430 C   0  0  0  0  0  3  0  0  0  0  0  0
  161.3290  212.9270  144.9030 C   0  0  0  0  0  2  0  0  0  0  0  0
  158.9020  213.1660  145.1090 C   0  0  0  0  0  3  0  0  0  0  0  0
  161.8590  213.8980  145.8450 N   0  0  0  0  0  0  0  0  0  0  0  0
  158.8100  213.4580  146.4100 C   0  0  0  0  0  0  0  0  0  0  0  0
  160.0830  213.4820  144.2470 C   0  0  2  0  0  3  0  0  0  0  0  0
  160.4400  211.5630  142.4350 C   0  0  0  0  0  3  0  0  0  0  0  0
  160.0890  213.8360  141.6620 C   0  0  1  0  0  3  0  0  0  0  0  0
  160.8210  211.5950  141.0250 N   0  0  0  0  0  0  0  0  0  0  0  0
  159.9600  212.9410  142.8150 C   0  0  2  0  0  0  0  0  0  0  0  0
  160.5770  212.9520  140.5290 C   0  0  0  0  0  2  0  0  0  0  0  0
  158.8290  213.3710  142.1080 O   0  0  0  0  0  0  0  0  0  0  0  0
  1 17  1  0  0  0  0
  2 15  2  0  0  0  0
  3  4  2  0  0  0  0
  4 16  1  0  0  0  0
  5 22  1  0  0  0  0
  6  8  1  0  0  0  0
  7 38  1  6  0  0  0
  7  2  1  0  0  0  0
  9  7  1  0  0  0  0
 11  9  1  0  0  0  0
 11 13  1  0  0  0  0
 12 22  2  0  0  0  0
 12 20  1  0  0  0  0
 14 19  1  0  0  0  0
 14 16  1  0  0  0  0
 15 19  1  0  0  0  0
 16  6  2  0  0  0  0
 17  8  2  0  0  0  0
 17 10  1  0  0  0  0
 18 21  1  0  0  0  0
 18 23  1  0  0  0  0
 19  1  2  0  0  0  0
 20 14  2  0  0  0  0
 21 13  1  0  0  0  0
 22  3  1  0  0  0  0
 23 24  1  6  0  0  0
 23 12  1  0  0  0  0
 25 24  1  0  0  0  0
 26 31  1  0  0  0  0
 26 25  1  1  0  0  0
 27 29  1  6  0  0  0
 27 26  1  0  0  0  0
 28 27  1  0  0  0  0
 30 28  1  0  0  0  0
 30 27  1  0  0  0  0
 31 32  1  0  0  0  0
 32 34  1  0  0  0  0
 34 35  1  0  0  0  0
 34 33  1  0  0  0  0
 36 34  1  0  0  0  0
 37 36  1  0  0  0  0
 39 38  1  0  0  0  0
 40 39  1  0  0  0  0
 41 40  1  0  0  0  0
 43 42  1  0  0  0  0
 44 46  1  0  0  0  0
 45 47  2  0  0  0  0
 46 43  2  0  0  0  0
 47 42  1  0  0  0  0
 47 41  1  0  0  0  0
 48 44  1  1  0  0  0
 48 45  1  0  0  0  0
 50 53  1  6  0  0  0
 50 54  1  0  0  0  0
 50 52  1  0  0  0  0
 51 49  2  0  0  0  0
 52 49  1  6  0  0  0
 52 48  1  0  0  0  0
 53 51  1  0  0  0  0
 54 52  1  0  0  0  0
M  END
>  <MODEL>
1

>  <REMARK>
 VINA RESULT:      -4.7      0.000      0.000
  Name = 
  14 active torsions:
  status: ('A' for Active; 'I' for Inactive)
    1  A    between atoms: C_2  and  C_11
    2  A    between atoms: O_5  and  C_20
    3  A    between atoms: O_5  and  C_29
    4  A    between atoms: N_6  and  C_36
    5  A    between atoms: N_6  and  C_53
    6  A    between atoms: C_11  and  O_16
    7  A    between atoms: C_11  and  C_36
    8  A    between atoms: C_14  and  C_21
    9  A    between atoms: C_14  and  C_28
   10  A    between atoms: O_16  and  C_28
   11  A    between atoms: C_20  and  C_25
   12  A    between atoms: C_29  and  S_45
   13  A    between atoms: C_31  and  S_45
   14  A    between atoms: C_37  and  C_43
                            x       y       z     vdW  Elec       q    Type
                         _______ _______ _______ _____ _____    ______ ____

>  <TORSDO>
F 14

$$$$
=
 OpenBabel11052410073D

 54 60  0  0  1  0  0  0  0  0999 V2000
  160.2250  212.6570  144.4840 C   0  0  0  0  0  3  0  0  0  0  0  0
  161.0260  210.9070  147.5240 C   0  0  0  0  0  3  0  0  0  0  0  0
  156.0770  213.0170  147.9490 C   0  0  0  0  0  3  0  0  0  0  0  0
  156.3200  212.7210  146.6810 C   0  0  0  0  0  3  0  0  0  0  0  0
  156.2160  214.4530  149.9710 C   0  0  0  0  0  1  0  0  0  0  0  0
  157.3380  213.5370  144.7510 N   0  0  0  0  0  0  0  0  0  0  0  0
  162.2220  210.1840  148.0520 C   0  0  1  0  0  3  0  0  0  0  0  0
  158.2770  213.9860  143.8050 N   0  0  0  0  0  0  0  0  0  0  0  0
  163.7250  211.2490  148.0770 S   0  0  0  0  0  0  0  0  0  0  0  0
  160.2790  214.2390  142.5410 C   0  0  0  0  0  1  0  0  0  0  0  0
  163.1090  212.5550  149.1980 C   0  0  0  0  0  2  0  0  0  0  0  0
  158.3030  213.5850  148.9440 C   0  0  0  0  0  0  0  0  0  0  0  0
  162.2910  213.5920  148.4360 C   0  0  0  0  0  2  0  0  0  0  0  0
  158.8640  212.8280  146.5350 C   0  0  0  0  0  0  0  0  0  0  0  0
  161.0250  211.3890  146.2860 C   0  0  0  0  0  3  0  0  0  0  0  0
  157.5320  213.0660  145.9450 C   0  0  0  0  0  0  0  0  0  0  0  0
  159.5210  213.6510  143.6740 C   0  0  0  0  0  0  0  0  0  0  0  0
  160.5590  213.5710  150.2430 C   0  0  0  0  0  2  0  0  0  0  0  0
  159.9650  212.2510  145.7190 C   0  0  0  0  0  0  0  0  0  0  0  0
  159.1170  213.0380  147.8330 C   0  0  0  0  0  3  0  0  0  0  0  0
  161.4480  214.4520  149.3740 C   0  0  0  0  0  2  0  0  0  0  0  0
  156.9540  213.7240  148.8930 C   0  0  0  0  0  0  0  0  0  0  0  0
  159.0680  213.9530  150.2260 C   0  0  2  0  0  3  0  0  0  0  0  0
  158.4260  213.3860  151.4220 N   0  0  0  0  0  2  0  0  0  0  0  0
  158.4450  214.3550  152.5180 C   0  0  0  0  0  2  0  0  0  0  0  0
  158.7210  213.6550  153.8360 C   0  0  1  0  0  3  0  0  0  0  0  0
  157.5040  213.7640  154.7410 C   0  0  2  0  0  0  0  0  0  0  0  0
  157.3080  212.6120  155.5160 O   0  0  0  0  0  0  0  0  0  0  0  0
  156.2500  214.2600  154.2030 N   0  0  0  0  0  1  0  0  0  0  0  0
  157.6600  213.7970  156.2050 C   0  0  0  0  0  2  0  0  0  0  0  0
  159.0300  212.3130  153.6020 O   0  0  0  0  0  0  0  0  0  0  0  0
  160.0770  212.0270  154.4860 C   0  0  0  0  0  2  0  0  0  0  0  0
  160.5450  210.2950  152.7610 C   0  0  0  0  0  1  0  0  0  0  0  0
  160.6450  210.6310  154.2370 C   0  0  0  0  0  0  0  0  0  0  0  0
  162.1040  210.5710  154.6600 C   0  0  0  0  0  1  0  0  0  0  0  0
  159.8360  209.5990  155.0190 C   0  0  0  0  0  2  0  0  0  0  0  0
  159.8070  209.9020  156.3810 O   0  0  0  0  0  1  0  0  0  0  0  0
  161.9440  209.5330  149.4050 C   0  0  0  0  0  2  0  0  0  0  0  0
  162.1500  208.1500  149.3490 O   0  0  0  0  0  0  0  0  0  0  0  0
  160.9530  207.5920  149.7850 C   0  0  0  0  0  2  0  0  0  0  0  0
  161.2710  206.5890  151.2650 S   0  0  0  0  0  0  0  0  0  0  0  0
  161.3170  203.8300  151.0560 N   0  0  0  0  0  2  0  0  0  0  0  0
  161.1720  202.4690  150.6090 C   0  0  0  0  0  3  0  0  0  0  0  0
  160.4360  203.0320  148.3420 C   0  0  0  0  0  2  0  0  0  0  0  0
  161.4570  205.1570  148.9990 C   0  0  0  0  0  3  0  0  0  0  0  0
  160.7980  202.1210  149.4140 N   0  0  0  0  0  0  0  0  0  0  0  0
  161.3340  205.0690  150.3280 C   0  0  0  0  0  0  0  0  0  0  0  0
  161.5810  203.9860  148.0760 C   0  0  2  0  0  3  0  0  0  0  0  0
  161.5680  205.8120  146.1390 C   0  0  0  0  0  3  0  0  0  0  0  0
  160.9540  203.5320  145.5850 C   0  0  1  0  0  3  0  0  0  0  0  0
  160.9360  205.8520  144.8230 N   0  0  0  0  0  0  0  0  0  0  0  0
  161.6050  204.3750  146.5910 C   0  0  2  0  0  0  0  0  0  0  0  0
  160.5940  204.4760  144.4520 C   0  0  0  0  0  2  0  0  0  0  0  0
  162.3580  203.5300  145.7640 O   0  0  0  0  0  0  0  0  0  0  0  0
  1 19  1  0  0  0  0
  2  7  1  0  0  0  0
  3 22  2  0  0  0  0
  4  3  1  0  0  0  0
  6 16  1  0  0  0  0
  7  9  1  0  0  0  0
  7 38  1  1  0  0  0
  8  6  2  0  0  0  0
  9 11  1  0  0  0  0
 10 17  1  0  0  0  0
 12 23  1  0  0  0  0
 13 11  1  0  0  0  0
 13 21  1  0  0  0  0
 14 20  1  0  0  0  0
 15  2  2  0  0  0  0
 16 14  1  0  0  0  0
 16  4  2  0  0  0  0
 17  8  1  0  0  0  0
 17  1  2  0  0  0  0
 19 15  1  0  0  0  0
 19 14  2  0  0  0  0
 20 12  2  0  0  0  0
 21 18  1  0  0  0  0
 22 12  1  0  0  0  0
 22  5  1  0  0  0  0
 23 18  1  0  0  0  0
 23 24  1  1  0  0  0
 24 25  1  0  0  0  0
 26 25  1  6  0  0  0
 26 27  1  0  0  0  0
 27 29  1  6  0  0  0
 27 28  1  0  0  0  0
 27 30  1  0  0  0  0
 28 30  1  0  0  0  0
 31 26  1  0  0  0  0
 31 32  1  0  0  0  0
 33 34  1  0  0  0  0
 34 32  1  0  0  0  0
 34 35  1  0  0  0  0
 34 36  1  0  0  0  0
 36 37  1  0  0  0  0
 39 38  1  0  0  0  0
 39 40  1  0  0  0  0
 40 41  1  0  0  0  0
 43 42  1  0  0  0  0
 44 46  1  0  0  0  0
 45 47  2  0  0  0  0
 46 43  2  0  0  0  0
 47 42  1  0  0  0  0
 47 41  1  0  0  0  0
 48 44  1  6  0  0  0
 48 45  1  0  0  0  0
 50 53  1  6  0  0  0
 50 54  1  0  0  0  0
 50 52  1  0  0  0  0
 51 49  2  0  0  0  0
 52 49  1  6  0  0  0
 52 48  1  0  0  0  0
 53 51  1  0  0  0  0
 54 52  1  0  0  0  0
M  END
>  <MODEL>
2

>  <REMARK>
 VINA RESULT:      -2.4      3.040      9.760
  Name = 
  14 active torsions:
  status: ('A' for Active; 'I' for Inactive)
    1  A    between atoms: C_2  and  C_11
    2  A    between atoms: O_5  and  C_20
    3  A    between atoms: O_5  and  C_29
    4  A    between atoms: N_6  and  C_36
    5  A    between atoms: N_6  and  C_53
    6  A    between atoms: C_11  and  O_16
    7  A    between atoms: C_11  and  C_36
    8  A    between atoms: C_14  and  C_21
    9  A    between atoms: C_14  and  C_28
   10  A    between atoms: O_16  and  C_28
   11  A    between atoms: C_20  and  C_25
   12  A    between atoms: C_29  and  S_45
   13  A    between atoms: C_31  and  S_45
   14  A    between atoms: C_37  and  C_43
                            x       y       z     vdW  Elec       q    Type
                         _______ _______ _______ _____ _____    ______ ____

>  <TORSDO>
F 14

$$$$
