=
 OpenBabel11052411263D

 43 47  0  0  1  0  0  0  0  0999 V2000
  160.4590  210.0220  148.8340 C   0  0  0  0  0  2  0  0  0  0  0  0
  160.3850  213.8940  149.4190 C   0  0  0  0  0  0  0  0  0  0  0  0
  160.4420  213.0650  150.5430 C   0  0  0  0  0  3  0  0  0  0  0  0
  158.0040  214.1840  149.7600 C   0  0  0  0  0  3  0  0  0  0  0  0
  161.1550  210.1660  152.2700 C   0  0  1  0  0  3  0  0  0  0  0  0
  162.0660  206.5420  150.9930 C   0  0  2  0  0  3  0  0  0  0  0  0
  158.2470  211.3870  152.8900 O   0  0  0  0  0  0  0  0  0  0  0  0
  160.9730  203.2200  150.1280 C   0  0  0  0  0  2  0  0  0  0  0  0
  160.7880  207.7430  152.7760 C   0  0  0  0  0  2  0  0  0  0  0  0
  161.7300  211.7790  147.5820 C   0  0  1  0  0  3  0  0  0  0  0  0
  161.3890  205.1620  154.1680 O   0  0  0  0  0  0  0  0  0  0  0  0
  158.0610  213.3420  150.8750 C   0  0  0  0  0  3  0  0  0  0  0  0
  162.2820  211.1110  146.5000 F   0  0  0  0  0  0  0  0  0  0  0  0
  161.8020  204.4910  151.9450 N   0  0  0  0  0  0  0  0  0  0  0  0
  160.4710  209.5080  154.4980 C   0  0  0  0  0  2  0  0  0  0  0  0
  162.5130  210.4650  151.6620 C   0  0  0  0  0  1  0  0  0  0  0  0
  161.5900  213.2840  147.3050 C   0  0  1  0  0  3  0  0  0  0  0  0
  160.5210  211.0210  154.4680 C   0  0  0  0  0  2  0  0  0  0  0  0
  160.3600  211.1860  147.8660 C   0  0  0  0  0  2  0  0  0  0  0  0
  161.6110  214.1080  148.5980 C   0  0  0  0  0  2  0  0  0  0  0  0
  161.9690  206.8320  152.4750 C   0  0  1  0  0  3  0  0  0  0  0  0
  159.2800  212.7750  151.2750 C   0  0  0  0  0  0  0  0  0  0  0  0
  159.3250  211.8490  152.4240 C   0  0  0  0  0  0  0  0  0  0  0  0
  161.2980  209.0690  153.3110 C   0  0  2  0  0  3  0  0  0  0  0  0
  160.8680  208.7520  148.1130 C   0  0  0  0  0  2  0  0  0  0  0  0
  159.1640  214.4530  149.0270 C   0  0  0  0  0  3  0  0  0  0  0  0
  162.1340  207.5870  149.9240 C   0  0  0  0  0  2  0  0  0  0  0  0
  162.0010  205.2270  150.7820 C   0  0  1  0  0  3  0  0  0  0  0  0
  161.6850  205.4510  152.9790 C   0  0  0  0  0  0  0  0  0  0  0  0
  160.8630  207.5880  149.0850 C   0  0  0  0  0  2  0  0  0  0  0  0
  160.6440  211.4010  152.9990 C   0  0  2  0  0  3  0  0  0  0  0  0
  161.6130  204.5010  149.5570 C   0  0  0  0  0  2  0  0  0  0  0  0
  160.9670  203.3440  151.6680 C   0  0  0  0  0  2  0  0  0  0  0  0
  162.6520  213.7940  146.3810 C   0  0  0  0  0  0  0  0  0  0  0  0
  162.3920  213.8120  144.9730 N   0  0  0  0  0  2  0  0  0  0  0  0
  163.7340  214.2490  146.8450 O   0  0  0  0  0  0  0  0  0  0  0  0
  163.3720  214.0220  143.9460 C   0  0  0  0  0  0  0  0  0  0  0  0
  164.5700  214.4530  144.3160 C   0  0  0  0  0  2  0  0  0  0  0  0
  163.0250  213.9330  142.5050 C   0  0  0  0  0  0  0  0  0  0  0  0
  163.7870  214.4520  141.6480 O   0  0  0  0  0  0  0  0  0  0  0  0
  161.8120  213.2000  142.0130 C   0  0  0  0  0  3  0  0  0  0  0  0
  161.9560  211.8260  142.2190 O   0  0  0  0  0  1  0  0  0  0  0  0
  161.5990  213.4560  140.6560 O   0  0  0  0  0  1  0  0  0  0  0  0
  2  3  1  0  0  0  0
  3 22  2  0  0  0  0
  4 12  2  0  0  0  0
  5 16  1  1  0  0  0
  5 31  1  0  0  0  0
  5 24  1  0  0  0  0
  6 27  1  6  0  0  0
  6 21  1  0  0  0  0
  8 33  1  0  0  0  0
 10 13  1  6  0  0  0
 10 19  1  0  0  0  0
 12 22  1  0  0  0  0
 14 29  1  0  0  0  0
 17 34  1  6  0  0  0
 17 10  1  0  0  0  0
 17 20  1  0  0  0  0
 18 15  1  0  0  0  0
 19  1  1  0  0  0  0
 20  2  1  0  0  0  0
 21  9  1  6  0  0  0
 21 29  1  0  0  0  0
 22 23  1  0  0  0  0
 23  7  2  0  0  0  0
 23 31  1  0  0  0  0
 24  9  1  6  0  0  0
 24 15  1  0  0  0  0
 25  1  1  0  0  0  0
 25 30  1  0  0  0  0
 26  2  2  0  0  0  0
 26  4  1  0  0  0  0
 28 32  1  6  0  0  0
 28  6  1  0  0  0  0
 28 14  1  0  0  0  0
 29 11  2  0  0  0  0
 30 27  1  0  0  0  0
 31 18  1  1  0  0  0
 32  8  1  0  0  0  0
 33 14  1  0  0  0  0
 34 36  2  0  0  0  0
 35 34  1  0  0  0  0
 37 38  2  0  0  0  0
 37 35  1  0  0  0  0
 39 37  1  0  0  0  0
 40 39  2  0  0  0  0
 41 42  1  0  0  0  0
 41 39  1  0  0  0  0
 43 41  1  0  0  0  0
M  END
>  <MODEL>
1

>  <REMARK>
 VINA RESULT:       2.3      0.000      0.000
  Name = 
  4 active torsions:
  status: ('A' for Active; 'I' for Inactive)
    1  A    between atoms: C_5  and  C_20
    2  A    between atoms: C_6  and  C_24
    3  A    between atoms: N_13  and  C_37
    4  A    between atoms: C_24  and  C_37
                            x       y       z     vdW  Elec       q    Type
                         _______ _______ _______ _____ _____    ______ ____

>  <TORSDO>
F 4

$$$$
=
 OpenBabel11052411263D

 43 47  0  0  1  0  0  0  0  0999 V2000
  160.3320  210.9510  148.1970 C   0  0  0  0  0  2  0  0  0  0  0  0
  158.9230  214.0250  146.2210 C   0  0  0  0  0  0  0  0  0  0  0  0
  158.6290  213.9350  147.5860 C   0  0  0  0  0  3  0  0  0  0  0  0
  156.7200  213.1650  145.6960 C   0  0  0  0  0  3  0  0  0  0  0  0
  159.1340  212.9190  150.8420 C   0  0  1  0  0  3  0  0  0  0  0  0
  161.5100  210.1550  152.3600 C   0  0  2  0  0  3  0  0  0  0  0  0
  156.1040  212.5980  149.8170 O   0  0  0  0  0  0  0  0  0  0  0  0
  161.9540  206.7640  153.4940 C   0  0  0  0  0  2  0  0  0  0  0  0
  159.2370  211.1650  152.6240 C   0  0  0  0  0  2  0  0  0  0  0  0
  161.5260  212.3510  146.4990 C   0  0  1  0  0  3  0  0  0  0  0  0
  159.7310  210.1800  155.4070 O   0  0  0  0  0  0  0  0  0  0  0  0
  156.4340  213.0620  147.0610 C   0  0  0  0  0  3  0  0  0  0  0  0
  162.7060  211.6690  146.2460 F   0  0  0  0  0  0  0  0  0  0  0  0
  161.3720  208.9230  154.2700 N   0  0  0  0  0  0  0  0  0  0  0  0
  157.6300  213.0590  152.7350 C   0  0  0  0  0  2  0  0  0  0  0  0
  160.4710  213.5720  150.5470 C   0  0  0  0  0  1  0  0  0  0  0  0
  161.1410  213.2690  145.3280 C   0  0  1  0  0  3  0  0  0  0  0  0
  157.2740  214.1870  151.7910 C   0  0  0  0  0  2  0  0  0  0  0  0
  160.4210  211.3340  146.7320 C   0  0  0  0  0  2  0  0  0  0  0  0
  160.2840  214.4530  145.7870 C   0  0  0  0  0  2  0  0  0  0  0  0
  160.6050  210.9680  153.2610 C   0  0  1  0  0  3  0  0  0  0  0  0
  157.3870  213.4450  148.0170 C   0  0  0  0  0  0  0  0  0  0  0  0
  157.0970  213.2880  149.4550 C   0  0  0  0  0  0  0  0  0  0  0  0
  159.0250  212.6390  152.3320 C   0  0  2  0  0  3  0  0  0  0  0  0
  161.3760  209.9080  148.5480 C   0  0  0  0  0  2  0  0  0  0  0  0
  157.9670  213.6390  145.2770 C   0  0  0  0  0  3  0  0  0  0  0  0
  161.8200  210.4930  150.9350 C   0  0  0  0  0  2  0  0  0  0  0  0
  161.9210  209.0590  152.9990 C   0  0  1  0  0  3  0  0  0  0  0  0
  160.4940  210.0250  154.4180 C   0  0  0  0  0  0  0  0  0  0  0  0
  161.1990  209.4730  149.9900 C   0  0  0  0  0  2  0  0  0  0  0  0
  158.0110  213.8870  150.4940 C   0  0  2  0  0  3  0  0  0  0  0  0
  162.4170  207.7870  152.4380 C   0  0  0  0  0  2  0  0  0  0  0  0
  161.1390  207.5270  154.5620 C   0  0  0  0  0  2  0  0  0  0  0  0
  162.3380  213.7850  144.5930 C   0  0  0  0  0  0  0  0  0  0  0  0
  162.3380  213.7510  143.1610 N   0  0  0  0  0  2  0  0  0  0  0  0
  163.3060  214.2900  145.2270 O   0  0  0  0  0  0  0  0  0  0  0  0
  163.4820  213.9630  142.3210 C   0  0  0  0  0  0  0  0  0  0  0  0
  164.5770  214.4530  142.8840 C   0  0  0  0  0  2  0  0  0  0  0  0
  163.4070  213.8090  140.8460 C   0  0  0  0  0  0  0  0  0  0  0  0
  164.3330  214.2630  140.1250 O   0  0  0  0  0  0  0  0  0  0  0  0
  162.2820  213.0820  140.1690 C   0  0  0  0  0  3  0  0  0  0  0  0
  162.4450  211.7020  140.3000 O   0  0  0  0  0  1  0  0  0  0  0  0
  162.2180  213.4260  138.8160 O   0  0  0  0  0  1  0  0  0  0  0  0
  1 25  1  0  0  0  0
  2  3  1  0  0  0  0
  3 22  2  0  0  0  0
  4 12  2  0  0  0  0
  5 16  1  1  0  0  0
  5 24  1  0  0  0  0
  6 27  1  6  0  0  0
  6 28  1  0  0  0  0
  6 21  1  0  0  0  0
  8 33  1  0  0  0  0
 10 13  1  6  0  0  0
 10 19  1  0  0  0  0
 12 22  1  0  0  0  0
 14 29  1  0  0  0  0
 14 33  1  0  0  0  0
 17 34  1  1  0  0  0
 17 20  1  0  0  0  0
 17 10  1  0  0  0  0
 18 15  1  0  0  0  0
 19  1  1  0  0  0  0
 20  2  1  0  0  0  0
 21  9  1  6  0  0  0
 21 29  1  0  0  0  0
 22 23  1  0  0  0  0
 23  7  2  0  0  0  0
 23 31  1  0  0  0  0
 24  9  1  6  0  0  0
 24 15  1  0  0  0  0
 25 30  1  0  0  0  0
 26  4  1  0  0  0  0
 26  2  2  0  0  0  0
 28 32  1  6  0  0  0
 28 14  1  0  0  0  0
 29 11  2  0  0  0  0
 30 27  1  0  0  0  0
 31  5  1  0  0  0  0
 31 18  1  1  0  0  0
 32  8  1  0  0  0  0
 34 36  2  0  0  0  0
 35 34  1  0  0  0  0
 37 38  2  0  0  0  0
 37 35  1  0  0  0  0
 39 37  1  0  0  0  0
 40 39  2  0  0  0  0
 41 42  1  0  0  0  0
 41 39  1  0  0  0  0
 43 41  1  0  0  0  0
M  END
>  <MODEL>
2

>  <REMARK>
 VINA RESULT:       2.8      2.165      3.497
  Name = 
  4 active torsions:
  status: ('A' for Active; 'I' for Inactive)
    1  A    between atoms: C_5  and  C_20
    2  A    between atoms: C_6  and  C_24
    3  A    between atoms: N_13  and  C_37
    4  A    between atoms: C_24  and  C_37
                            x       y       z     vdW  Elec       q    Type
                         _______ _______ _______ _____ _____    ______ ____

>  <TORSDO>
F 4

$$$$
=
 OpenBabel11052411263D

 43 47  0  0  1  0  0  0  0  0999 V2000
  160.1930  210.8090  147.6280 C   0  0  0  0  0  2  0  0  0  0  0  0
  158.9180  214.1220  145.9720 C   0  0  0  0  0  0  0  0  0  0  0  0
  158.8670  214.0270  147.3660 C   0  0  0  0  0  3  0  0  0  0  0  0
  156.5540  213.6060  145.8550 C   0  0  0  0  0  3  0  0  0  0  0  0
  159.7970  212.8350  150.4660 C   0  0  1  0  0  3  0  0  0  0  0  0
  161.9750  209.7060  151.4960 C   0  0  2  0  0  3  0  0  0  0  0  0
  156.6190  212.9870  150.0140 O   0  0  0  0  0  0  0  0  0  0  0  0
  162.1120  206.2490  152.5000 C   0  0  0  0  0  2  0  0  0  0  0  0
  159.9620  211.0220  152.1820 C   0  0  0  0  0  2  0  0  0  0  0  0
  161.2530  212.0840  145.7510 C   0  0  1  0  0  3  0  0  0  0  0  0
  160.8020  209.8780  154.8190 O   0  0  0  0  0  0  0  0  0  0  0  0
  156.5080  213.4970  147.2480 C   0  0  0  0  0  3  0  0  0  0  0  0
  162.2530  211.2480  145.2790 F   0  0  0  0  0  0  0  0  0  0  0  0
  162.0060  208.4400  153.3880 N   0  0  0  0  0  0  0  0  0  0  0  0
  158.6990  213.1220  152.6050 C   0  0  0  0  0  2  0  0  0  0  0  0
  161.1410  213.2990  149.9340 C   0  0  0  0  0  1  0  0  0  0  0  0
  160.8020  213.0880  144.6790 C   0  0  1  0  0  3  0  0  0  0  0  0
  158.3480  214.3220  151.7510 C   0  0  0  0  0  2  0  0  0  0  0  0
  160.0710  211.2280  146.1750 C   0  0  0  0  0  2  0  0  0  0  0  0
  160.2260  214.3660  145.2980 C   0  0  0  0  0  2  0  0  0  0  0  0
  161.3780  210.6080  152.5550 C   0  0  1  0  0  3  0  0  0  0  0  0
  157.6640  213.7050  148.0150 C   0  0  0  0  0  0  0  0  0  0  0  0
  157.6200  213.5410  149.4810 C   0  0  0  0  0  0  0  0  0  0  0  0
  159.9200  212.5210  151.9470 C   0  0  2  0  0  3  0  0  0  0  0  0
  161.1180  209.6160  147.7720 C   0  0  0  0  0  2  0  0  0  0  0  0
  157.7600  213.9110  145.2170 C   0  0  0  0  0  3  0  0  0  0  0  0
  162.0680  210.0460  150.0410 C   0  0  0  0  0  2  0  0  0  0  0  0
  162.3290  208.5410  152.0390 C   0  0  1  0  0  3  0  0  0  0  0  0
  161.3410  209.6510  153.7040 C   0  0  0  0  0  0  0  0  0  0  0  0
  161.1430  209.1600  149.2180 C   0  0  0  0  0  2  0  0  0  0  0  0
  158.7860  213.9660  150.3380 C   0  0  2  0  0  3  0  0  0  0  0  0
  162.5220  207.2320  151.3850 C   0  0  0  0  0  2  0  0  0  0  0  0
  161.6260  207.0830  153.7060 C   0  0  0  0  0  2  0  0  0  0  0  0
  161.9090  213.4530  143.7400 C   0  0  0  0  0  0  0  0  0  0  0  0
  161.7370  213.2060  142.3400 N   0  0  0  0  0  2  0  0  0  0  0  0
  162.9510  214.0180  144.1740 O   0  0  0  0  0  0  0  0  0  0  0  0
  162.7750  213.2560  141.3500 C   0  0  0  0  0  0  0  0  0  0  0  0
  163.4380  214.3950  141.2090 C   0  0  0  0  0  2  0  0  0  0  0  0
  162.9970  212.1420  140.3940 C   0  0  0  0  0  0  0  0  0  0  0  0
  163.2270  210.9840  140.8300 O   0  0  0  0  0  0  0  0  0  0  0  0
  162.9130  212.3290  138.9070 C   0  0  0  0  0  3  0  0  0  0  0  0
  162.3200  213.5560  138.6040 O   0  0  0  0  0  1  0  0  0  0  0  0
  162.1820  211.2910  138.3220 O   0  0  0  0  0  1  0  0  0  0  0  0
  1 25  1  0  0  0  0
  2  3  1  0  0  0  0
  3 22  2  0  0  0  0
  4 12  2  0  0  0  0
  5 16  1  1  0  0  0
  5 24  1  0  0  0  0
  6 27  1  6  0  0  0
  6 28  1  0  0  0  0
  6 21  1  0  0  0  0
  8 33  1  0  0  0  0
 10 13  1  6  0  0  0
 10 19  1  0  0  0  0
 12 22  1  0  0  0  0
 14 29  1  0  0  0  0
 14 33  1  0  0  0  0
 17 34  1  1  0  0  0
 17 20  1  0  0  0  0
 17 10  1  0  0  0  0
 18 15  1  0  0  0  0
 19  1  1  0  0  0  0
 20  2  1  0  0  0  0
 21  9  1  6  0  0  0
 21 29  1  0  0  0  0
 22 23  1  0  0  0  0
 23  7  2  0  0  0  0
 23 31  1  0  0  0  0
 24  9  1  6  0  0  0
 24 15  1  0  0  0  0
 25 30  1  0  0  0  0
 26  4  1  0  0  0  0
 26  2  2  0  0  0  0
 28 32  1  6  0  0  0
 28 14  1  0  0  0  0
 29 11  2  0  0  0  0
 30 27  1  0  0  0  0
 31  5  1  0  0  0  0
 31 18  1  1  0  0  0
 32  8  1  0  0  0  0
 34 36  2  0  0  0  0
 35 34  1  0  0  0  0
 37 35  1  0  0  0  0
 38 37  2  0  0  0  0
 39 40  2  0  0  0  0
 39 37  1  0  0  0  0
 41 39  1  0  0  0  0
 42 41  1  0  0  0  0
 43 41  1  0  0  0  0
M  END
>  <MODEL>
3

>  <REMARK>
 VINA RESULT:       5.0      2.180      3.464
  Name = 
  4 active torsions:
  status: ('A' for Active; 'I' for Inactive)
    1  A    between atoms: C_5  and  C_20
    2  A    between atoms: C_6  and  C_24
    3  A    between atoms: N_13  and  C_37
    4  A    between atoms: C_24  and  C_37
                            x       y       z     vdW  Elec       q    Type
                         _______ _______ _______ _____ _____    ______ ____

>  <TORSDO>
F 4

$$$$
