=
 OpenBabel11042422393D

 33 38  0  0  1  0  0  0  0  0999 V2000
  161.2690  206.7480  153.5920 C   0  0  2  0  0  3  0  0  0  0  0  0
  160.9180  208.4230  151.2110 N   0  0  0  0  0  0  0  0  0  0  0  0
  160.9390  206.1850  152.2470 C   0  0  0  0  0  0  0  0  0  0  0  0
  161.7760  211.2030  153.4270 N   0  0  1  0  0  0  0  0  0  0  0  0
  160.4970  205.9770  154.6480 C   0  0  0  0  0  1  0  0  0  0  0  0
  161.0310  206.2440  148.7310 C   0  0  0  0  0  3  0  0  0  0  0  0
  160.7310  207.0130  151.1580 C   0  0  0  0  0  0  0  0  0  0  0  0
  161.9290  210.5060  154.7330 C   0  0  2  0  0  3  0  0  0  0  0  0
  160.7940  206.1710  150.0840 C   0  0  0  0  0  0  0  0  0  0  0  0
  161.3730  204.1280  149.5940 N   0  0  0  0  0  2  0  0  0  0  0  0
  161.0890  209.0140  152.3600 C   0  0  0  0  0  0  0  0  0  0  0  0
  161.2190  210.4310  152.3820 N   0  0  0  0  0  2  0  0  0  0  0  0
  160.9760  204.9570  150.5320 N   0  0  0  0  0  0  0  0  0  0  0  0
  161.7520  208.9630  154.7630 C   0  0  2  0  0  3  0  0  0  0  0  0
  160.7840  211.4170  154.5260 C   0  0  2  0  0  3  0  0  0  0  0  0
  161.1470  204.9000  151.8430 N   0  0  0  0  0  0  0  0  0  0  0  0
  161.3520  204.8940  148.4690 C   0  0  0  0  0  0  0  0  0  0  0  0
  161.7330  204.3740  147.1290 C   0  0  0  0  0  1  0  0  0  0  0  0
  160.9360  208.2690  153.6700 C   0  0  2  0  0  3  0  0  0  0  0  0
  160.0250  208.3750  156.4820 O   0  0  0  0  0  0  0  0  0  0  0  0
  161.3640  208.5270  156.1390 C   0  0  0  0  0  0  0  0  0  0  0  0
  162.2560  208.3190  157.0030 O   0  0  0  0  0  1  0  0  0  0  0  0
  159.4180  210.7380  154.3490 C   0  0  0  0  0  2  0  0  0  0  0  0
  156.9670  212.6110  156.3110 O   0  0  0  0  0  0  0  0  0  0  0  0
  158.3380  211.6710  154.6640 N   0  0  0  0  0  0  0  0  0  0  0  0
  158.6740  211.2530  157.0900 N   0  0  0  0  0  1  0  0  0  0  0  0
  157.9490  211.8740  156.0310 C   0  0  0  0  0  0  0  0  0  0  0  0
  158.0160  211.8650  152.2780 N   0  0  0  0  0  2  0  0  0  0  0  0
  157.7100  214.0350  150.7170 O   0  0  0  0  0  0  0  0  0  0  0  0
  160.0180  213.5310  151.6020 O   0  0  0  0  0  0  0  0  0  0  0  0
  157.9890  213.8130  153.4430 C   0  0  0  0  0  2  0  0  0  0  0  0
  157.5830  212.3420  153.6000 C   0  0  2  0  0  3  0  0  0  0  0  0
  158.5350  213.4400  151.8220 S   0  0  0  0  0  0  0  0  0  0  0  0
  1 19  1  0  0  0  0
  1  5  1  1  0  0  0
  2 11  2  0  0  0  0
  3  1  1  0  0  0  0
  4 12  1  6  0  0  0
  4 15  1  0  0  0  0
  4  8  1  0  0  0  0
  6  9  1  0  0  0  0
  7  2  1  0  0  0  0
  7  3  1  0  0  0  0
  8 14  1  0  0  0  0
  9 13  1  0  0  0  0
  9  7  2  0  0  0  0
 10 13  1  0  0  0  0
 11 12  1  0  0  0  0
 11 19  1  0  0  0  0
 13 16  1  0  0  0  0
 14 21  1  0  0  0  0
 15  8  1  0  0  0  0
 16  3  2  0  0  0  0
 17  6  2  0  0  0  0
 17 10  1  0  0  0  0
 18 17  1  0  0  0  0
 19 14  1  0  0  0  0
 21 20  2  0  0  0  0
 21 22  1  0  0  0  0
 23 15  1  0  0  0  0
 23 25  1  0  0  0  0
 25 27  1  0  0  0  0
 27 24  2  0  0  0  0
 27 26  1  0  0  0  0
 28 32  1  0  0  0  0
 29 33  2  0  0  0  0
 30 33  2  0  0  0  0
 31 32  1  0  0  0  0
 32 25  1  0  0  0  0
 33 28  1  0  0  0  0
 33 31  1  0  0  0  0
M  END
>  <MODEL>
1

>  <REMARK>
 VINA RESULT:      -6.5      0.000      0.000
  Name = 
  4 active torsions:
  status: ('A' for Active; 'I' for Inactive)
    1  A    between atoms: C_1  and  N_7
    2  A    between atoms: C_1  and  C_25
    3  A    between atoms: N_7  and  C_24
    4  A    between atoms: C_23  and  C_27
                            x       y       z     vdW  Elec       q    Type
                         _______ _______ _______ _____ _____    ______ ____

>  <TORSDO>
F 4

$$$$
=
 OpenBabel11042422393D

 33 38  0  0  1  0  0  0  0  0999 V2000
  161.1660  206.7770  153.7590 C   0  0  2  0  0  3  0  0  0  0  0  0
  160.8970  208.1130  151.1620 N   0  0  0  0  0  0  0  0  0  0  0  0
  160.8430  206.0400  152.4980 C   0  0  0  0  0  0  0  0  0  0  0  0
  161.7930  211.1520  152.9880 N   0  0  1  0  0  0  0  0  0  0  0  0
  160.3570  206.1780  154.8970 C   0  0  0  0  0  1  0  0  0  0  0  0
  160.9920  205.6080  149.0100 C   0  0  0  0  0  3  0  0  0  0  0  0
  160.6740  206.7140  151.3010 C   0  0  0  0  0  0  0  0  0  0  0  0
  161.9070  210.6400  154.3810 C   0  0  2  0  0  3  0  0  0  0  0  0
  160.7320  205.7300  150.3560 C   0  0  0  0  0  0  0  0  0  0  0  0
  161.2630  203.6260  150.1640 N   0  0  0  0  0  2  0  0  0  0  0  0
  161.0650  208.8530  152.2210 C   0  0  0  0  0  0  0  0  0  0  0  0
  161.2330  210.2560  152.0500 N   0  0  0  0  0  2  0  0  0  0  0  0
  160.8740  204.5860  150.9710 N   0  0  0  0  0  0  0  0  0  0  0  0
  161.6900  209.1210  154.6200 C   0  0  2  0  0  3  0  0  0  0  0  0
  160.7900  211.5400  154.0270 C   0  0  2  0  0  3  0  0  0  0  0  0
  161.0220  204.7070  152.2800 N   0  0  0  0  0  0  0  0  0  0  0  0
  161.2810  204.2270  148.9440 C   0  0  0  0  0  0  0  0  0  0  0  0
  161.6690  203.5180  147.6970 C   0  0  0  0  0  1  0  0  0  0  0  0
  160.8720  208.3020  153.6180 C   0  0  2  0  0  3  0  0  0  0  0  0
  159.9350  209.0200  156.4080 O   0  0  0  0  0  0  0  0  0  0  0  0
  161.2680  208.8900  156.0370 C   0  0  0  0  0  0  0  0  0  0  0  0
  162.1320  208.5970  156.9050 O   0  0  0  0  0  1  0  0  0  0  0  0
  159.4100  210.8770  153.9200 C   0  0  0  0  0  2  0  0  0  0  0  0
  157.2720  213.6190  152.7900 O   0  0  0  0  0  0  0  0  0  0  0  0
  158.3540  211.8870  153.9330 N   0  0  0  0  0  0  0  0  0  0  0  0
  158.8420  212.4400  151.5610 N   0  0  0  0  0  1  0  0  0  0  0  0
  158.1220  212.6900  152.7660 C   0  0  0  0  0  0  0  0  0  0  0  0
  157.4130  210.9280  155.9410 N   0  0  0  0  0  2  0  0  0  0  0  0
  155.0000  211.2630  157.0840 O   0  0  0  0  0  0  0  0  0  0  0  0
  155.1360  209.8470  155.0020 O   0  0  0  0  0  0  0  0  0  0  0  0
  156.1000  212.4220  154.8470 C   0  0  0  0  0  2  0  0  0  0  0  0
  157.5800  212.1580  155.1510 C   0  0  2  0  0  3  0  0  0  0  0  0
  155.7020  210.9980  155.7830 S   0  0  0  0  0  0  0  0  0  0  0  0
  1  5  1  1  0  0  0
  2  7  1  0  0  0  0
  2 11  2  0  0  0  0
  3  1  1  0  0  0  0
  4 12  1  6  0  0  0
  4 15  1  0  0  0  0
  4  8  1  0  0  0  0
  6  9  1  0  0  0  0
  7  3  1  0  0  0  0
  8 14  1  0  0  0  0
  9 13  1  0  0  0  0
  9  7  2  0  0  0  0
 10 13  1  0  0  0  0
 11 19  1  0  0  0  0
 12 11  1  0  0  0  0
 13 16  1  0  0  0  0
 14 21  1  0  0  0  0
 15  8  1  0  0  0  0
 16  3  2  0  0  0  0
 17  6  2  0  0  0  0
 17 10  1  0  0  0  0
 18 17  1  0  0  0  0
 19  1  1  0  0  0  0
 19 14  1  0  0  0  0
 21 20  2  0  0  0  0
 21 22  1  0  0  0  0
 23 25  1  0  0  0  0
 23 15  1  0  0  0  0
 25 32  1  0  0  0  0
 26 27  1  0  0  0  0
 27 24  2  0  0  0  0
 27 25  1  0  0  0  0
 30 33  2  0  0  0  0
 31 32  1  0  0  0  0
 31 33  1  0  0  0  0
 32 28  1  0  0  0  0
 33 28  1  0  0  0  0
 33 29  2  0  0  0  0
M  END
>  <MODEL>
2

>  <REMARK>
 VINA RESULT:      -6.4      1.458      2.594
  Name = 
  4 active torsions:
  status: ('A' for Active; 'I' for Inactive)
    1  A    between atoms: C_1  and  N_7
    2  A    between atoms: C_1  and  C_25
    3  A    between atoms: N_7  and  C_24
    4  A    between atoms: C_23  and  C_27
                            x       y       z     vdW  Elec       q    Type
                         _______ _______ _______ _____ _____    ______ ____

>  <TORSDO>
F 4

$$$$
=
 OpenBabel11042422393D

 33 38  0  0  1  0  0  0  0  0999 V2000
  161.1990  206.4310  152.6130 C   0  0  2  0  0  3  0  0  0  0  0  0
  161.2270  208.0970  150.1990 N   0  0  0  0  0  0  0  0  0  0  0  0
  160.9630  205.8780  151.2440 C   0  0  0  0  0  0  0  0  0  0  0  0
  162.0750  210.8290  152.4770 N   0  0  1  0  0  0  0  0  0  0  0  0
  160.2640  205.7370  153.5880 C   0  0  0  0  0  1  0  0  0  0  0  0
  161.4160  205.8830  147.7550 C   0  0  0  0  0  3  0  0  0  0  0  0
  160.9330  206.7060  150.1340 C   0  0  0  0  0  0  0  0  0  0  0  0
  162.0390  210.1400  153.7950 C   0  0  2  0  0  3  0  0  0  0  0  0
  161.0370  205.8470  149.0780 C   0  0  0  0  0  0  0  0  0  0  0  0
  161.4970  203.7590  148.6590 N   0  0  0  0  0  2  0  0  0  0  0  0
  161.3260  208.6880  151.3570 C   0  0  0  0  0  0  0  0  0  0  0  0
  161.5670  210.0900  151.3850 N   0  0  0  0  0  2  0  0  0  0  0  0
  161.0750  204.6290  149.5470 N   0  0  0  0  0  0  0  0  0  0  0  0
  161.7370  208.6170  153.8150 C   0  0  2  0  0  3  0  0  0  0  0  0
  160.9970  211.1360  153.4680 C   0  0  2  0  0  3  0  0  0  0  0  0
  161.1070  204.5760  150.8690 N   0  0  0  0  0  0  0  0  0  0  0  0
  161.6520  204.5080  147.5340 C   0  0  0  0  0  0  0  0  0  0  0  0
  162.1250  203.9430  146.2430 C   0  0  0  0  0  1  0  0  0  0  0  0
  160.9820  207.9750  152.6480 C   0  0  2  0  0  3  0  0  0  0  0  0
  159.8030  208.2150  155.3590 O   0  0  0  0  0  0  0  0  0  0  0  0
  161.1770  208.2310  155.1470 C   0  0  0  0  0  0  0  0  0  0  0  0
  161.9570  207.9400  156.0920 O   0  0  0  0  0  1  0  0  0  0  0  0
  159.6060  210.5650  153.1560 C   0  0  0  0  0  2  0  0  0  0  0  0
  157.9720  213.5960  151.9280 O   0  0  0  0  0  0  0  0  0  0  0  0
  158.6260  211.6420  153.0380 N   0  0  0  0  0  0  0  0  0  0  0  0
  159.7830  212.4830  151.0070 N   0  0  0  0  0  1  0  0  0  0  0  0
  158.7610  212.6170  151.9920 C   0  0  0  0  0  0  0  0  0  0  0  0
  157.8780  212.8660  154.9820 N   0  0  0  0  0  2  0  0  0  0  0  0
  156.7300  212.0110  157.2610 O   0  0  0  0  0  0  0  0  0  0  0  0
  159.1990  211.5970  156.9530 O   0  0  0  0  0  0  0  0  0  0  0  0
  157.5000  210.6270  155.0140 C   0  0  0  0  0  2  0  0  0  0  0  0
  157.5500  211.7990  154.0240 C   0  0  2  0  0  3  0  0  0  0  0  0
  157.8560  211.7600  156.3000 S   0  0  0  0  0  0  0  0  0  0  0  0
  1 19  1  0  0  0  0
  1  5  1  1  0  0  0
  2 11  2  0  0  0  0
  3  1  1  0  0  0  0
  4 12  1  6  0  0  0
  4 15  1  0  0  0  0
  4  8  1  0  0  0  0
  6  9  1  0  0  0  0
  7  2  1  0  0  0  0
  7  3  1  0  0  0  0
  8 14  1  0  0  0  0
  9 13  1  0  0  0  0
  9  7  2  0  0  0  0
 10 13  1  0  0  0  0
 11 12  1  0  0  0  0
 11 19  1  0  0  0  0
 13 16  1  0  0  0  0
 14 21  1  0  0  0  0
 15  8  1  0  0  0  0
 16  3  2  0  0  0  0
 17  6  2  0  0  0  0
 17 10  1  0  0  0  0
 18 17  1  0  0  0  0
 19 14  1  0  0  0  0
 21 20  2  0  0  0  0
 21 22  1  0  0  0  0
 23 15  1  0  0  0  0
 24 27  2  0  0  0  0
 25 23  1  0  0  0  0
 25 32  1  0  0  0  0
 26 27  1  0  0  0  0
 27 25  1  0  0  0  0
 28 33  1  0  0  0  0
 31 33  1  0  0  0  0
 32 28  1  0  0  0  0
 32 31  1  0  0  0  0
 33 30  2  0  0  0  0
 33 29  2  0  0  0  0
M  END
>  <MODEL>
3

>  <REMARK>
 VINA RESULT:      -5.8      1.449      2.661
  Name = 
  4 active torsions:
  status: ('A' for Active; 'I' for Inactive)
    1  A    between atoms: C_1  and  N_7
    2  A    between atoms: C_1  and  C_25
    3  A    between atoms: N_7  and  C_24
    4  A    between atoms: C_23  and  C_27
                            x       y       z     vdW  Elec       q    Type
                         _______ _______ _______ _____ _____    ______ ____

>  <TORSDO>
F 4

$$$$
=
 OpenBabel11042422393D

 33 38  0  0  1  0  0  0  0  0999 V2000
  161.1430  206.2290  152.0540 C   0  0  2  0  0  3  0  0  0  0  0  0
  161.7250  208.1400  149.9060 N   0  0  0  0  0  0  0  0  0  0  0  0
  161.0150  205.8830  150.6040 C   0  0  0  0  0  0  0  0  0  0  0  0
  162.6400  210.4210  152.6140 N   0  0  1  0  0  0  0  0  0  0  0  0
  159.9980  205.5810  152.8140 C   0  0  0  0  0  1  0  0  0  0  0  0
  161.9230  206.2240  147.2230 C   0  0  0  0  0  3  0  0  0  0  0  0
  161.2500  206.8290  149.6210 C   0  0  0  0  0  0  0  0  0  0  0  0
  162.3320  209.5970  153.8140 C   0  0  2  0  0  3  0  0  0  0  0  0
  161.3710  206.0930  148.4770 C   0  0  0  0  0  0  0  0  0  0  0  0
  161.5840  204.0220  147.8350 N   0  0  0  0  0  2  0  0  0  0  0  0
  161.7520  208.5680  151.1370 C   0  0  0  0  0  0  0  0  0  0  0  0
  162.1820  209.9030  151.3820 N   0  0  0  0  0  2  0  0  0  0  0  0
  161.1750  204.8380  148.7790 N   0  0  0  0  0  0  0  0  0  0  0  0
  161.8190  208.1480  153.5940 C   0  0  2  0  0  3  0  0  0  0  0  0
  161.4940  210.7750  153.5080 C   0  0  2  0  0  3  0  0  0  0  0  0
  161.0230  204.6270  150.0760 N   0  0  0  0  0  0  0  0  0  0  0  0
  161.9910  204.8640  146.8460 C   0  0  0  0  0  0  0  0  0  0  0  0
  162.5460  204.3860  145.5530 C   0  0  0  0  0  1  0  0  0  0  0  0
  161.1430  207.7730  152.2720 C   0  0  2  0  0  3  0  0  0  0  0  0
  159.7270  208.1250  154.9760 O   0  0  0  0  0  0  0  0  0  0  0  0
  161.0380  207.7020  154.7890 C   0  0  0  0  0  0  0  0  0  0  0  0
  161.5810  206.9560  155.6450 O   0  0  0  0  0  1  0  0  0  0  0  0
  160.0900  210.4690  152.9660 C   0  0  0  0  0  2  0  0  0  0  0  0
  157.3730  212.8760  153.4020 O   0  0  0  0  0  0  0  0  0  0  0  0
  159.3140  211.7000  152.8310 N   0  0  0  0  0  0  0  0  0  0  0  0
  157.6850  210.8670  154.5120 N   0  0  0  0  0  1  0  0  0  0  0  0
  158.0930  211.8570  153.5700 C   0  0  0  0  0  0  0  0  0  0  0  0
  158.5970  213.6700  151.6300 N   0  0  0  0  0  2  0  0  0  0  0  0
  158.9870  214.4060  149.0710 O   0  0  0  0  0  0  0  0  0  0  0  0
  157.3110  212.5780  149.5330 O   0  0  0  0  0  0  0  0  0  0  0  0
  159.8790  212.2070  150.4590 C   0  0  0  0  0  2  0  0  0  0  0  0
  159.7150  212.7480  151.8850 C   0  0  2  0  0  3  0  0  0  0  0  0
  158.5780  213.2650  149.9580 S   0  0  0  0  0  0  0  0  0  0  0  0
  1 19  1  0  0  0  0
  1  5  1  1  0  0  0
  2 11  2  0  0  0  0
  3  1  1  0  0  0  0
  4 12  1  6  0  0  0
  4 15  1  0  0  0  0
  4  8  1  0  0  0  0
  6  9  1  0  0  0  0
  7  2  1  0  0  0  0
  7  3  1  0  0  0  0
  9 13  1  0  0  0  0
  9  7  2  0  0  0  0
 10 13  1  0  0  0  0
 11 12  1  0  0  0  0
 11 19  1  0  0  0  0
 13 16  1  0  0  0  0
 14  8  1  0  0  0  0
 14 21  1  0  0  0  0
 15  8  1  0  0  0  0
 16  3  2  0  0  0  0
 17  6  2  0  0  0  0
 17 10  1  0  0  0  0
 18 17  1  0  0  0  0
 19 14  1  0  0  0  0
 21 20  2  0  0  0  0
 21 22  1  0  0  0  0
 23 15  1  0  0  0  0
 24 27  2  0  0  0  0
 25 23  1  0  0  0  0
 25 27  1  0  0  0  0
 27 26  1  0  0  0  0
 28 32  1  0  0  0  0
 29 33  2  0  0  0  0
 30 33  2  0  0  0  0
 31 32  1  0  0  0  0
 32 25  1  0  0  0  0
 33 31  1  0  0  0  0
 33 28  1  0  0  0  0
M  END
>  <MODEL>
4

>  <REMARK>
 VINA RESULT:      -3.6      1.643      2.031
  Name = 
  4 active torsions:
  status: ('A' for Active; 'I' for Inactive)
    1  A    between atoms: C_1  and  N_7
    2  A    between atoms: C_1  and  C_25
    3  A    between atoms: N_7  and  C_24
    4  A    between atoms: C_23  and  C_27
                            x       y       z     vdW  Elec       q    Type
                         _______ _______ _______ _____ _____    ______ ____

>  <TORSDO>
F 4

$$$$
