=
 OpenBabel11052410013D

 39 45  0  0  1  0  0  0  0  0999 V2000
  161.7020  208.8040  153.1210 C   0  0  2  0  0  3  0  0  0  0  0  0
  161.3480  204.6440  146.5940 O   0  0  0  0  0  0  0  0  0  0  0  0
  161.1960  204.1400  147.7900 C   0  0  0  0  0  0  0  0  0  0  0  0
  161.1740  204.8230  150.0710 C   0  0  0  0  0  0  0  0  0  0  0  0
  161.4490  206.9170  151.4450 C   0  0  0  0  0  3  0  0  0  0  0  0
  160.8300  202.4780  149.5210 C   0  0  0  0  0  3  0  0  0  0  0  0
  161.0180  204.6660  152.2490 C   0  0  0  0  0  0  0  0  0  0  0  0
  161.3000  205.1340  148.7240 C   0  0  1  0  0  3  0  0  0  0  0  0
  161.4450  207.3640  152.7840 C   0  0  0  0  0  0  0  0  0  0  0  0
  161.2280  205.5620  151.2200 C   0  0  0  0  0  0  0  0  0  0  0  0
  160.9380  203.5170  150.4620 C   0  0  0  0  0  0  0  0  0  0  0  0
  161.2280  206.4470  153.8360 C   0  0  0  0  0  3  0  0  0  0  0  0
  161.0110  205.0820  153.5770 C   0  0  0  0  0  3  0  0  0  0  0  0
  161.5490  205.9470  146.7210 C   0  0  0  0  0  3  0  0  0  0  0  0
  160.8370  203.3980  151.8060 N   0  0  0  0  0  0  0  0  0  0  0  0
  160.9660  202.7950  148.1470 C   0  0  0  0  0  0  0  0  0  0  0  0
  161.5280  206.3230  148.0670 C   0  0  0  0  0  3  0  0  0  0  0  0
  160.8520  201.7250  147.1110 C   0  0  0  0  0  2  0  0  0  0  0  0
  161.5310  199.4150  146.4660 C   0  0  0  0  0  1  0  0  0  0  0  0
  161.4820  200.4280  147.5910 C   0  0  0  0  0  2  0  0  0  0  0  0
  160.8640  211.2530  155.4030 O   0  0  0  0  0  0  0  0  0  0  0  0
  161.9830  210.4980  154.9830 C   0  0  0  0  0  2  0  0  0  0  0  0
  161.4470  209.1070  154.6030 C   0  0  1  0  0  3  0  0  0  0  0  0
  158.5120  210.9860  155.6980 C   0  0  0  0  0  3  0  0  0  0  0  0
  159.7080  210.5070  155.3660 C   0  0  0  0  0  0  0  0  0  0  0  0
  159.9450  209.1260  154.8990 C   0  0  2  0  0  3  0  0  0  0  0  0
  159.5920  207.9580  156.1960 Cl  0  0  0  0  0  0  0  0  0  0  0  0
  156.5270  214.2010  156.0360 O   0  0  0  0  0  0  0  0  0  0  0  0
  157.3030  212.4430  157.2020 C   0  0  0  0  0  2  0  0  0  0  0  0
  156.9160  212.8570  155.7750 C   0  0  2  0  0  0  0  0  0  0  0  0
  158.3290  212.3920  156.1560 C   0  0  2  0  0  3  0  0  0  0  0  0
  157.3920  214.0370  154.9800 C   0  0  0  0  0  2  0  0  0  0  0  0
  160.6930  209.8860  152.0470 S   0  0  0  0  0  0  0  0  0  0  0  0
  162.0580  210.1870  150.8870 C   0  0  0  0  0  2  0  0  0  0  0  0
  161.7490  211.3400  150.0500 N   0  0  0  0  0  2  0  0  0  0  0  0
  162.1480  211.0700  148.6680 C   0  0  1  0  0  3  0  0  0  0  0  0
  161.9200  209.7300  148.3480 O   0  0  0  0  0  1  0  0  0  0  0  0
  162.3610  212.9430  147.5100 C   0  0  0  0  0  1  0  0  0  0  0  0
  161.4700  211.9030  147.7750 O   0  0  0  0  0  0  0  0  0  0  0  0
  1 33  1  6  0  0  0
  2 14  1  0  0  0  0
  2  3  1  0  0  0  0
  3 16  2  0  0  0  0
  3  8  1  0  0  0  0
  4 11  1  0  0  0  0
  4 10  2  0  0  0  0
  5  9  2  0  0  0  0
  6 11  2  0  0  0  0
  7 13  1  0  0  0  0
  8 17  1  1  0  0  0
  8  4  1  0  0  0  0
  9  1  1  0  0  0  0
  9 12  1  0  0  0  0
 10  5  1  0  0  0  0
 10  7  1  0  0  0  0
 11 15  1  0  0  0  0
 13 12  2  0  0  0  0
 14 17  2  0  0  0  0
 15  7  2  0  0  0  0
 16  6  1  0  0  0  0
 18 20  1  0  0  0  0
 18 16  1  0  0  0  0
 19 20  1  0  0  0  0
 22 21  1  0  0  0  0
 23  1  1  6  0  0  0
 23 26  1  0  0  0  0
 23 22  1  0  0  0  0
 25 21  1  0  0  0  0
 25 24  2  0  0  0  0
 26 25  1  0  0  0  0
 26 27  1  1  0  0  0
 30 32  1  6  0  0  0
 30 28  1  0  0  0  0
 30 31  1  0  0  0  0
 30 29  1  0  0  0  0
 31 24  1  6  0  0  0
 31 29  1  0  0  0  0
 32 28  1  0  0  0  0
 34 33  1  0  0  0  0
 35 34  1  0  0  0  0
 36 37  1  6  0  0  0
 36 35  1  0  0  0  0
 38 39  1  0  0  0  0
 39 36  1  0  0  0  0
M  END
>  <MODEL>
1

>  <REMARK>
 VINA RESULT:      -9.0      0.000      0.000
  Name = 
  10 active torsions:
  status: ('A' for Active; 'I' for Inactive)
    1  A    between atoms: S_6  and  C_8
    2  A    between atoms: S_6  and  C_20
    3  A    between atoms: C_8  and  N_18
    4  A    between atoms: C_13  and  C_20
    5  A    between atoms: C_14  and  N_18
    6  A    between atoms: C_14  and  O_33
    7  A    between atoms: C_17  and  C_21
    8  A    between atoms: C_19  and  C_37
    9  A    between atoms: C_19  and  C_39
   10  A    between atoms: C_20  and  C_26
                            x       y       z     vdW  Elec       q    Type
                         _______ _______ _______ _____ _____    ______ ____

>  <TORSDO>
F 10

$$$$
=
 OpenBabel11052410013D

 39 45  0  0  1  0  0  0  0  0999 V2000
  161.1040  207.4350  152.1270 C   0  0  2  0  0  3  0  0  0  0  0  0
  161.1880  203.6110  145.3890 O   0  0  0  0  0  0  0  0  0  0  0  0
  161.0920  203.0320  146.5560 C   0  0  0  0  0  0  0  0  0  0  0  0
  160.9980  203.5880  148.8690 C   0  0  0  0  0  0  0  0  0  0  0  0
  161.0510  205.6240  150.3530 C   0  0  0  0  0  3  0  0  0  0  0  0
  160.9030  201.2510  148.1950 C   0  0  0  0  0  3  0  0  0  0  0  0
  160.8610  203.3000  151.0350 C   0  0  0  0  0  0  0  0  0  0  0  0
  161.0900  203.9810  147.5410 C   0  0  1  0  0  3  0  0  0  0  0  0
  161.0000  205.9960  151.7130 C   0  0  0  0  0  0  0  0  0  0  0  0
  160.9740  204.2660  150.0560 C   0  0  0  0  0  0  0  0  0  0  0  0
  160.9020  202.2450  149.1900 C   0  0  0  0  0  0  0  0  0  0  0  0
  160.8810  205.0070  152.7150 C   0  0  0  0  0  3  0  0  0  0  0  0
  160.8100  203.6430  152.3840 C   0  0  0  0  0  3  0  0  0  0  0  0
  161.2500  204.9200  145.5850 C   0  0  0  0  0  3  0  0  0  0  0  0
  160.8150  202.0460  150.5250 N   0  0  0  0  0  0  0  0  0  0  0  0
  161.0050  201.6530  146.8400 C   0  0  0  0  0  0  0  0  0  0  0  0
  161.1910  205.2200  146.9490 C   0  0  0  0  0  3  0  0  0  0  0  0
  161.0040  200.6340  145.7500 C   0  0  0  0  0  2  0  0  0  0  0  0
  161.2380  198.2020  145.2510 C   0  0  0  0  0  1  0  0  0  0  0  0
  161.5540  199.3040  146.2410 C   0  0  0  0  0  2  0  0  0  0  0  0
  162.2480  208.8920  149.2160 O   0  0  0  0  0  0  0  0  0  0  0  0
  162.4290  207.7210  149.9870 C   0  0  0  0  0  2  0  0  0  0  0  0
  162.2860  208.1480  151.4590 C   0  0  1  0  0  3  0  0  0  0  0  0
  161.8340  211.2200  149.5330 C   0  0  0  0  0  3  0  0  0  0  0  0
  162.0450  209.9960  150.0120 C   0  0  0  0  0  0  0  0  0  0  0  0
  162.0680  209.6640  151.4500 C   0  0  2  0  0  3  0  0  0  0  0  0
  163.4480  210.4550  152.2530 Cl  0  0  0  0  0  0  0  0  0  0  0  0
  161.1410  213.4150  146.5190 O   0  0  0  0  0  0  0  0  0  0  0  0
  162.8030  212.5310  147.7470 C   0  0  0  0  0  2  0  0  0  0  0  0
  161.3250  212.9370  147.8470 C   0  0  2  0  0  0  0  0  0  0  0  0
  161.8130  211.4980  148.0700 C   0  0  2  0  0  3  0  0  0  0  0  0
  160.1820  212.5360  146.9620 C   0  0  0  0  0  2  0  0  0  0  0  0
  161.2100  207.5540  153.9490 S   0  0  0  0  0  0  0  0  0  0  0  0
  160.3740  209.1640  154.0000 C   0  0  0  0  0  2  0  0  0  0  0  0
  160.4910  209.7400  155.3350 N   0  0  0  0  0  2  0  0  0  0  0  0
  161.3220  210.9440  155.2830 C   0  0  1  0  0  3  0  0  0  0  0  0
  160.8520  211.9010  156.1850 O   0  0  0  0  0  1  0  0  0  0  0  0
  162.6580  210.1140  156.8390 C   0  0  0  0  0  1  0  0  0  0  0  0
  162.6610  210.6440  155.5500 O   0  0  0  0  0  0  0  0  0  0  0  0
  1 33  1  1  0  0  0
  2 14  1  0  0  0  0
  2  3  1  0  0  0  0
  3 16  2  0  0  0  0
  3  8  1  0  0  0  0
  4 11  1  0  0  0  0
  4 10  2  0  0  0  0
  5  9  2  0  0  0  0
  6 11  2  0  0  0  0
  7 13  1  0  0  0  0
  8 17  1  1  0  0  0
  8  4  1  0  0  0  0
  9  1  1  0  0  0  0
  9 12  1  0  0  0  0
 10  5  1  0  0  0  0
 10  7  1  0  0  0  0
 11 15  1  0  0  0  0
 13 12  2  0  0  0  0
 14 17  2  0  0  0  0
 15  7  2  0  0  0  0
 16  6  1  0  0  0  0
 18 20  1  0  0  0  0
 18 16  1  0  0  0  0
 19 20  1  0  0  0  0
 21 22  1  0  0  0  0
 21 25  1  0  0  0  0
 22 23  1  0  0  0  0
 23  1  1  6  0  0  0
 24 25  2  0  0  0  0
 25 26  1  0  0  0  0
 26 23  1  0  0  0  0
 26 27  1  1  0  0  0
 28 32  1  0  0  0  0
 28 30  1  0  0  0  0
 29 30  1  0  0  0  0
 29 31  1  0  0  0  0
 30 32  1  1  0  0  0
 30 31  1  0  0  0  0
 31 24  1  1  0  0  0
 33 34  1  0  0  0  0
 34 35  1  0  0  0  0
 36 35  1  0  0  0  0
 36 39  1  0  0  0  0
 36 37  1  1  0  0  0
 39 38  1  0  0  0  0
M  END
>  <MODEL>
2

>  <REMARK>
 VINA RESULT:      -8.8      2.436      5.264
  Name = 
  10 active torsions:
  status: ('A' for Active; 'I' for Inactive)
    1  A    between atoms: S_6  and  C_8
    2  A    between atoms: S_6  and  C_20
    3  A    between atoms: C_8  and  N_18
    4  A    between atoms: C_13  and  C_20
    5  A    between atoms: C_14  and  N_18
    6  A    between atoms: C_14  and  O_33
    7  A    between atoms: C_17  and  C_21
    8  A    between atoms: C_19  and  C_37
    9  A    between atoms: C_19  and  C_39
   10  A    between atoms: C_20  and  C_26
                            x       y       z     vdW  Elec       q    Type
                         _______ _______ _______ _____ _____    ______ ____

>  <TORSDO>
F 10

$$$$
=
 OpenBabel11052410013D

 39 45  0  0  1  0  0  0  0  0999 V2000
  160.8620  210.2870  153.8980 C   0  0  2  0  0  3  0  0  0  0  0  0
  160.8610  203.5820  150.0160 O   0  0  0  0  0  0  0  0  0  0  0  0
  161.1910  204.7300  149.4880 C   0  0  0  0  0  0  0  0  0  0  0  0
  161.4060  207.0230  150.0920 C   0  0  0  0  0  0  0  0  0  0  0  0
  161.0960  208.5100  152.1030 C   0  0  0  0  0  3  0  0  0  0  0  0
  161.9000  206.3350  147.8110 C   0  0  0  0  0  3  0  0  0  0  0  0
  161.8190  209.1620  149.8770 C   0  0  0  0  0  0  0  0  0  0  0  0
  161.1020  205.7130  150.4360 C   0  0  1  0  0  3  0  0  0  0  0  0
  161.2100  209.8590  152.5020 C   0  0  0  0  0  0  0  0  0  0  0  0
  161.4140  208.2030  150.7830 C   0  0  0  0  0  0  0  0  0  0  0  0
  161.8030  207.3280  148.8020 C   0  0  0  0  0  0  0  0  0  0  0  0
  161.6270  210.8410  151.5750 C   0  0  0  0  0  3  0  0  0  0  0  0
  161.9370  210.4990  150.2470 C   0  0  0  0  0  3  0  0  0  0  0  0
  160.5570  203.7870  151.2880 C   0  0  0  0  0  3  0  0  0  0  0  0
  162.0640  208.6460  148.6480 N   0  0  0  0  0  0  0  0  0  0  0  0
  161.5820  204.9990  148.1600 C   0  0  0  0  0  0  0  0  0  0  0  0
  160.6940  205.1380  151.6190 C   0  0  0  0  0  3  0  0  0  0  0  0
  161.6760  203.9110  147.1420 C   0  0  0  0  0  2  0  0  0  0  0  0
  160.8610  204.2150  144.8060 C   0  0  0  0  0  1  0  0  0  0  0  0
  162.0020  204.4730  145.7680 C   0  0  0  0  0  2  0  0  0  0  0  0
  157.6460  211.5370  153.9450 O   0  0  0  0  0  0  0  0  0  0  0  0
  158.7410  211.3930  153.0630 C   0  0  0  0  0  2  0  0  0  0  0  0
  160.0090  211.5610  153.9190 C   0  0  1  0  0  3  0  0  0  0  0  0
  157.2280  211.9700  156.2540 C   0  0  0  0  0  3  0  0  0  0  0  0
  158.0620  211.8050  155.2290 C   0  0  0  0  0  0  0  0  0  0  0  0
  159.5320  211.8680  155.3420 C   0  0  2  0  0  3  0  0  0  0  0  0
  160.0560  213.5120  155.7890 Cl  0  0  0  0  0  0  0  0  0  0  0  0
  153.7720  210.7750  157.2590 O   0  0  0  0  0  0  0  0  0  0  0  0
  155.0850  212.5970  157.1810 C   0  0  0  0  0  2  0  0  0  0  0  0
  155.1650  211.0650  157.2410 C   0  0  2  0  0  0  0  0  0  0  0  0
  155.7500  211.8880  156.0840 C   0  0  2  0  0  3  0  0  0  0  0  0
  154.5070  210.0570  156.3460 C   0  0  0  0  0  2  0  0  0  0  0  0
  162.3870  210.5000  154.8840 S   0  0  0  0  0  0  0  0  0  0  0  0
  161.5700  210.0540  156.4420 C   0  0  0  0  0  2  0  0  0  0  0  0
  161.9110  208.6830  156.8040 N   0  0  0  0  0  2  0  0  0  0  0  0
  160.7120  207.9790  157.2610 C   0  0  1  0  0  3  0  0  0  0  0  0
  159.5690  208.7340  156.9880 O   0  0  0  0  0  1  0  0  0  0  0  0
  160.2080  206.9700  155.3580 C   0  0  0  0  0  1  0  0  0  0  0  0
  160.6110  206.7180  156.6680 O   0  0  0  0  0  0  0  0  0  0  0  0
  1 33  1  1  0  0  0
  2 14  1  0  0  0  0
  3  2  1  0  0  0  0
  3  8  1  0  0  0  0
  4  8  1  0  0  0  0
  4 10  2  0  0  0  0
  5  9  2  0  0  0  0
  6 16  1  0  0  0  0
  6 11  2  0  0  0  0
  7 13  1  0  0  0  0
  7 10  1  0  0  0  0
  8 17  1  6  0  0  0
  9  1  1  0  0  0  0
 10  5  1  0  0  0  0
 11  4  1  0  0  0  0
 12  9  1  0  0  0  0
 13 12  2  0  0  0  0
 14 17  2  0  0  0  0
 15 11  1  0  0  0  0
 15  7  2  0  0  0  0
 16  3  2  0  0  0  0
 18 16  1  0  0  0  0
 19 20  1  0  0  0  0
 20 18  1  0  0  0  0
 21 25  1  0  0  0  0
 22 23  1  0  0  0  0
 22 21  1  0  0  0  0
 23  1  1  1  0  0  0
 23 26  1  0  0  0  0
 25 26  1  0  0  0  0
 25 24  2  0  0  0  0
 26 27  1  6  0  0  0
 29 30  1  0  0  0  0
 30 32  1  1  0  0  0
 30 28  1  0  0  0  0
 31 24  1  1  0  0  0
 31 29  1  0  0  0  0
 31 30  1  0  0  0  0
 32 28  1  0  0  0  0
 33 34  1  0  0  0  0
 34 35  1  0  0  0  0
 35 36  1  0  0  0  0
 36 37  1  6  0  0  0
 38 39  1  0  0  0  0
 39 36  1  0  0  0  0
M  END
>  <MODEL>
3

>  <REMARK>
 VINA RESULT:      -7.6      2.878      4.886
  Name = 
  10 active torsions:
  status: ('A' for Active; 'I' for Inactive)
    1  A    between atoms: S_6  and  C_8
    2  A    between atoms: S_6  and  C_20
    3  A    between atoms: C_8  and  N_18
    4  A    between atoms: C_13  and  C_20
    5  A    between atoms: C_14  and  N_18
    6  A    between atoms: C_14  and  O_33
    7  A    between atoms: C_17  and  C_21
    8  A    between atoms: C_19  and  C_37
    9  A    between atoms: C_19  and  C_39
   10  A    between atoms: C_20  and  C_26
                            x       y       z     vdW  Elec       q    Type
                         _______ _______ _______ _____ _____    ______ ____

>  <TORSDO>
F 10

$$$$
=
 OpenBabel11052410013D

 39 45  0  0  1  0  0  0  0  0999 V2000
  160.8580  210.1010  153.4030 C   0  0  2  0  0  3  0  0  0  0  0  0
  160.9460  205.2690  147.3480 O   0  0  0  0  0  0  0  0  0  0  0  0
  161.0550  204.8820  148.5910 C   0  0  0  0  0  0  0  0  0  0  0  0
  161.0860  205.7940  150.7900 C   0  0  0  0  0  0  0  0  0  0  0  0
  160.9400  208.0330  151.9370 C   0  0  0  0  0  3  0  0  0  0  0  0
  161.3170  203.3900  150.4880 C   0  0  0  0  0  3  0  0  0  0  0  0
  161.2010  205.8520  152.9760 C   0  0  0  0  0  0  0  0  0  0  0  0
  160.9880  205.9710  149.4170 C   0  0  1  0  0  3  0  0  0  0  0  0
  160.9560  208.6140  153.2230 C   0  0  0  0  0  0  0  0  0  0  0  0
  161.0610  206.6490  151.8570 C   0  0  0  0  0  0  0  0  0  0  0  0
  161.2440  204.5240  151.3160 C   0  0  0  0  0  0  0  0  0  0  0  0
  161.0960  207.7980  154.3680 C   0  0  0  0  0  3  0  0  0  0  0  0
  161.2200  206.4020  154.2540 C   0  0  0  0  0  3  0  0  0  0  0  0
  160.8090  206.5860  147.3380 C   0  0  0  0  0  3  0  0  0  0  0  0
  161.3160  204.5380  152.6670 N   0  0  0  0  0  0  0  0  0  0  0  0
  161.2240  203.5730  149.0850 C   0  0  0  0  0  0  0  0  0  0  0  0
  160.8270  207.0960  148.6390 C   0  0  0  0  0  3  0  0  0  0  0  0
  161.2910  202.3980  148.1660 C   0  0  0  0  0  2  0  0  0  0  0  0
  159.1830  201.3410  148.9740 C   0  0  0  0  0  1  0  0  0  0  0  0
  160.6780  201.1640  148.8090 C   0  0  0  0  0  2  0  0  0  0  0  0
  159.6580  212.4120  155.6670 O   0  0  0  0  0  0  0  0  0  0  0  0
  160.8670  212.0340  155.0400 C   0  0  0  0  0  2  0  0  0  0  0  0
  160.8110  210.5040  154.8820 C   0  0  1  0  0  3  0  0  0  0  0  0
  157.6750  211.4030  156.5260 C   0  0  0  0  0  3  0  0  0  0  0  0
  158.8710  211.3190  155.9500 C   0  0  0  0  0  0  0  0  0  0  0  0
  159.4970  210.0520  155.5240 C   0  0  2  0  0  3  0  0  0  0  0  0
  159.8600  209.0280  156.9360 Cl  0  0  0  0  0  0  0  0  0  0  0  0
  155.4210  214.4060  155.9880 O   0  0  0  0  0  0  0  0  0  0  0  0
  155.6610  212.5450  157.2250 C   0  0  0  0  0  2  0  0  0  0  0  0
  156.0630  213.1420  155.8690 C   0  0  2  0  0  0  0  0  0  0  0  0
  157.0870  212.7120  156.9290 C   0  0  2  0  0  3  0  0  0  0  0  0
  156.7340  214.4530  155.5840 C   0  0  0  0  0  2  0  0  0  0  0  0
  159.4030  210.7440  152.5010 S   0  0  0  0  0  0  0  0  0  0  0  0
  160.3720  212.0010  151.6190 C   0  0  0  0  0  2  0  0  0  0  0  0
  159.4780  212.9920  151.0320 N   0  0  0  0  0  2  0  0  0  0  0  0
  160.1630  213.6950  149.9460 C   0  0  1  0  0  3  0  0  0  0  0  0
  161.2730  214.3870  150.4360 O   0  0  0  0  0  1  0  0  0  0  0  0
  159.9620  213.3080  147.7770 C   0  0  0  0  0  1  0  0  0  0  0  0
  160.5520  212.8090  148.9380 O   0  0  0  0  0  0  0  0  0  0  0  0
  1 33  1  6  0  0  0
  2  3  1  0  0  0  0
  3 16  2  0  0  0  0
  3  8  1  0  0  0  0
  4 11  1  0  0  0  0
  4 10  2  0  0  0  0
  5  9  2  0  0  0  0
  6 11  2  0  0  0  0
  7 13  1  0  0  0  0
  8 17  1  6  0  0  0
  8  4  1  0  0  0  0
  9  1  1  0  0  0  0
  9 12  1  0  0  0  0
 10  5  1  0  0  0  0
 10  7  1  0  0  0  0
 11 15  1  0  0  0  0
 13 12  2  0  0  0  0
 14  2  1  0  0  0  0
 14 17  2  0  0  0  0
 15  7  2  0  0  0  0
 16  6  1  0  0  0  0
 18 20  1  0  0  0  0
 18 16  1  0  0  0  0
 20 19  1  0  0  0  0
 21 25  1  0  0  0  0
 22 21  1  0  0  0  0
 23  1  1  6  0  0  0
 23 22  1  0  0  0  0
 23 26  1  0  0  0  0
 25 24  2  0  0  0  0
 26 25  1  0  0  0  0
 26 27  1  1  0  0  0
 30 32  1  6  0  0  0
 30 28  1  0  0  0  0
 30 31  1  0  0  0  0
 30 29  1  0  0  0  0
 31 24  1  6  0  0  0
 31 29  1  0  0  0  0
 32 28  1  0  0  0  0
 34 33  1  0  0  0  0
 35 34  1  0  0  0  0
 36 37  1  1  0  0  0
 36 35  1  0  0  0  0
 38 39  1  0  0  0  0
 39 36  1  0  0  0  0
M  END
>  <MODEL>
4

>  <REMARK>
 VINA RESULT:      -7.3      1.556      1.888
  Name = 
  10 active torsions:
  status: ('A' for Active; 'I' for Inactive)
    1  A    between atoms: S_6  and  C_8
    2  A    between atoms: S_6  and  C_20
    3  A    between atoms: C_8  and  N_18
    4  A    between atoms: C_13  and  C_20
    5  A    between atoms: C_14  and  N_18
    6  A    between atoms: C_14  and  O_33
    7  A    between atoms: C_17  and  C_21
    8  A    between atoms: C_19  and  C_37
    9  A    between atoms: C_19  and  C_39
   10  A    between atoms: C_20  and  C_26
                            x       y       z     vdW  Elec       q    Type
                         _______ _______ _______ _____ _____    ______ ____

>  <TORSDO>
F 10

$$$$
=
 OpenBabel11052410013D

 39 45  0  0  1  0  0  0  0  0999 V2000
  162.0920  208.4930  150.6200 C   0  0  2  0  0  3  0  0  0  0  0  0
  160.9400  203.4410  144.8610 O   0  0  0  0  0  0  0  0  0  0  0  0
  160.9720  203.1110  146.1240 C   0  0  0  0  0  0  0  0  0  0  0  0
  161.2510  204.1130  148.2660 C   0  0  0  0  0  0  0  0  0  0  0  0
  161.6580  206.3850  149.2790 C   0  0  0  0  0  3  0  0  0  0  0  0
  160.8990  201.7110  148.1060 C   0  0  0  0  0  3  0  0  0  0  0  0
  161.4080  204.2680  150.4440 C   0  0  0  0  0  0  0  0  0  0  0  0
  161.1780  204.2300  146.8850 C   0  0  1  0  0  3  0  0  0  0  0  0
  161.8300  207.0180  150.5280 C   0  0  0  0  0  0  0  0  0  0  0  0
  161.4450  205.0090  149.2810 C   0  0  0  0  0  0  0  0  0  0  0  0
  161.1090  202.8740  148.8660 C   0  0  0  0  0  0  0  0  0  0  0  0
  161.7880  206.2590  151.7190 C   0  0  0  0  0  3  0  0  0  0  0  0
  161.5750  204.8700  151.6880 C   0  0  0  0  0  3  0  0  0  0  0  0
  161.1200  204.7490  144.7730 C   0  0  0  0  0  3  0  0  0  0  0  0
  161.2020  202.9490  150.2140 N   0  0  0  0  0  0  0  0  0  0  0  0
  160.8320  201.8290  146.6950 C   0  0  0  0  0  0  0  0  0  0  0  0
  161.2780  205.3140  146.0420 C   0  0  0  0  0  3  0  0  0  0  0  0
  160.6040  200.6220  145.8480 C   0  0  0  0  0  2  0  0  0  0  0  0
  161.3960  198.3250  145.2900 C   0  0  0  0  0  1  0  0  0  0  0  0
  161.5130  199.4780  146.2660 C   0  0  0  0  0  2  0  0  0  0  0  0
  160.2460  208.4610  153.5350 O   0  0  0  0  0  0  0  0  0  0  0  0
  160.0910  208.2240  152.1510 C   0  0  0  0  0  2  0  0  0  0  0  0
  161.0170  209.2230  151.4360 C   0  0  1  0  0  3  0  0  0  0  0  0
  161.4510  209.9110  154.9980 C   0  0  0  0  0  3  0  0  0  0  0  0
  161.1200  209.4970  153.7770 C   0  0  0  0  0  0  0  0  0  0  0  0
  161.6600  210.0780  152.5320 C   0  0  2  0  0  3  0  0  0  0  0  0
  161.1220  211.7660  152.3450 Cl  0  0  0  0  0  0  0  0  0  0  0  0
  160.7430  206.9500  157.2610 O   0  0  0  0  0  0  0  0  0  0  0  0
  161.9660  208.8300  157.0980 C   0  0  0  0  0  2  0  0  0  0  0  0
  161.2460  207.7900  156.2270 C   0  0  2  0  0  0  0  0  0  0  0  0
  160.8810  209.2820  156.2220 C   0  0  2  0  0  3  0  0  0  0  0  0
  159.8220  207.3230  156.3100 C   0  0  0  0  0  2  0  0  0  0  0  0
  162.2400  209.2060  148.9420 S   0  0  0  0  0  0  0  0  0  0  0  0
  162.3090  210.9120  149.5570 C   0  0  0  0  0  2  0  0  0  0  0  0
  162.5800  211.8250  148.4530 N   0  0  0  0  0  2  0  0  0  0  0  0
  161.3620  212.5580  148.1050 C   0  0  1  0  0  3  0  0  0  0  0  0
  161.6770  213.8400  147.6500 O   0  0  0  0  0  1  0  0  0  0  0  0
  160.4280  212.7940  146.1140 C   0  0  0  0  0  1  0  0  0  0  0  0
  160.6180  211.8710  147.1420 O   0  0  0  0  0  0  0  0  0  0  0  0
  1 33  1  6  0  0  0
  2  3  1  0  0  0  0
  3 16  2  0  0  0  0
  3  8  1  0  0  0  0
  4 11  1  0  0  0  0
  4 10  2  0  0  0  0
  5 10  1  0  0  0  0
  5  9  2  0  0  0  0
  6 11  2  0  0  0  0
  7 13  1  0  0  0  0
  8 17  1  6  0  0  0
  8  4  1  0  0  0  0
  9  1  1  0  0  0  0
  9 12  1  0  0  0  0
 10  7  1  0  0  0  0
 11 15  1  0  0  0  0
 13 12  2  0  0  0  0
 14  2  1  0  0  0  0
 14 17  2  0  0  0  0
 15  7  2  0  0  0  0
 16  6  1  0  0  0  0
 18 20  1  0  0  0  0
 18 16  1  0  0  0  0
 19 20  1  0  0  0  0
 21 25  1  0  0  0  0
 22 21  1  0  0  0  0
 23  1  1  1  0  0  0
 23 22  1  0  0  0  0
 23 26  1  0  0  0  0
 25 24  2  0  0  0  0
 26 27  1  6  0  0  0
 26 25  1  0  0  0  0
 30 32  1  6  0  0  0
 30 29  1  0  0  0  0
 30 28  1  0  0  0  0
 31 24  1  6  0  0  0
 31 30  1  0  0  0  0
 31 29  1  0  0  0  0
 32 28  1  0  0  0  0
 33 34  1  0  0  0  0
 35 34  1  0  0  0  0
 36 37  1  6  0  0  0
 36 35  1  0  0  0  0
 38 39  1  0  0  0  0
 39 36  1  0  0  0  0
M  END
>  <MODEL>
5

>  <REMARK>
 VINA RESULT:      -6.4      2.653      3.365
  Name = 
  10 active torsions:
  status: ('A' for Active; 'I' for Inactive)
    1  A    between atoms: S_6  and  C_8
    2  A    between atoms: S_6  and  C_20
    3  A    between atoms: C_8  and  N_18
    4  A    between atoms: C_13  and  C_20
    5  A    between atoms: C_14  and  N_18
    6  A    between atoms: C_14  and  O_33
    7  A    between atoms: C_17  and  C_21
    8  A    between atoms: C_19  and  C_37
    9  A    between atoms: C_19  and  C_39
   10  A    between atoms: C_20  and  C_26
                            x       y       z     vdW  Elec       q    Type
                         _______ _______ _______ _____ _____    ______ ____

>  <TORSDO>
F 10

$$$$
=
 OpenBabel11052410013D

 39 45  0  0  1  0  0  0  0  0999 V2000
  160.7520  210.1960  154.0760 C   0  0  2  0  0  3  0  0  0  0  0  0
  160.7510  203.8480  149.6340 O   0  0  0  0  0  0  0  0  0  0  0  0
  161.1270  205.0280  149.2200 C   0  0  0  0  0  0  0  0  0  0  0  0
  161.3720  207.2540  150.0270 C   0  0  0  0  0  0  0  0  0  0  0  0
  161.0170  208.5730  152.1450 C   0  0  0  0  0  3  0  0  0  0  0  0
  161.9390  206.7510  147.7150 C   0  0  0  0  0  3  0  0  0  0  0  0
  161.8420  209.3930  150.0110 C   0  0  0  0  0  0  0  0  0  0  0  0
  161.0240  205.9280  150.2450 C   0  0  1  0  0  3  0  0  0  0  0  0
  161.1450  209.8800  152.6620 C   0  0  0  0  0  0  0  0  0  0  0  0
  161.3790  208.3710  150.8160 C   0  0  0  0  0  0  0  0  0  0  0  0
  161.8260  207.6570  148.7830 C   0  0  0  0  0  0  0  0  0  0  0  0
  161.6210  210.9250  151.8390 C   0  0  0  0  0  3  0  0  0  0  0  0
  161.9760  210.6900  150.4990 C   0  0  0  0  0  3  0  0  0  0  0  0
  160.4020  203.9520  150.9070 C   0  0  0  0  0  3  0  0  0  0  0  0
  162.1230  208.9770  148.7530 N   0  0  0  0  0  0  0  0  0  0  0  0
  161.5770  205.3990  147.9350 C   0  0  0  0  0  0  0  0  0  0  0  0
  160.5570  205.2660  151.3580 C   0  0  0  0  0  3  0  0  0  0  0  0
  161.6860  204.3990  146.8320 C   0  0  0  0  0  2  0  0  0  0  0  0
  160.2510  204.9970  144.8830 C   0  0  0  0  0  1  0  0  0  0  0  0
  161.6450  205.0770  145.4720 C   0  0  0  0  0  2  0  0  0  0  0  0
  159.6700  213.1720  152.7050 O   0  0  0  0  0  0  0  0  0  0  0  0
  160.3110  212.6820  153.8650 C   0  0  0  0  0  2  0  0  0  0  0  0
  159.6920  211.3020  154.1500 C   0  0  1  0  0  3  0  0  0  0  0  0
  157.9740  212.5140  151.1620 C   0  0  0  0  0  3  0  0  0  0  0  0
  158.7120  212.2960  152.2480 C   0  0  0  0  0  0  0  0  0  0  0  0
  158.6110  211.0860  153.0870 C   0  0  2  0  0  3  0  0  0  0  0  0
  157.0190  211.0060  153.8820 Cl  0  0  0  0  0  0  0  0  0  0  0  0
  157.9450  214.4310  147.8890 O   0  0  0  0  0  0  0  0  0  0  0  0
  156.8180  214.1550  149.8140 C   0  0  0  0  0  2  0  0  0  0  0  0
  157.7960  213.4230  148.8830 C   0  0  2  0  0  0  0  0  0  0  0  0
  158.1230  213.7520  150.3470 C   0  0  2  0  0  3  0  0  0  0  0  0
  159.1200  213.8940  148.3590 C   0  0  0  0  0  2  0  0  0  0  0  0
  162.2340  210.6400  155.0510 S   0  0  0  0  0  0  0  0  0  0  0  0
  161.4500  210.2190  156.6340 C   0  0  0  0  0  2  0  0  0  0  0  0
  162.0130  208.9770  157.1490 N   0  0  0  0  0  2  0  0  0  0  0  0
  161.1760  207.8480  156.7410 C   0  0  1  0  0  3  0  0  0  0  0  0
  159.8250  208.1920  156.8080 O   0  0  0  0  0  1  0  0  0  0  0  0
  160.4670  206.5580  155.0900 C   0  0  0  0  0  1  0  0  0  0  0  0
  161.5030  207.4180  155.4520 O   0  0  0  0  0  0  0  0  0  0  0  0
  1 33  1  1  0  0  0
  2 14  1  0  0  0  0
  3  2  1  0  0  0  0
  3  8  1  0  0  0  0
  4  8  1  0  0  0  0
  4 10  2  0  0  0  0
  5  9  2  0  0  0  0
  6 16  1  0  0  0  0
  6 11  2  0  0  0  0
  7 13  1  0  0  0  0
  7 10  1  0  0  0  0
  8 17  1  6  0  0  0
  9  1  1  0  0  0  0
 10  5  1  0  0  0  0
 11  4  1  0  0  0  0
 12  9  1  0  0  0  0
 13 12  2  0  0  0  0
 14 17  2  0  0  0  0
 15 11  1  0  0  0  0
 15  7  2  0  0  0  0
 16  3  2  0  0  0  0
 18 16  1  0  0  0  0
 19 20  1  0  0  0  0
 20 18  1  0  0  0  0
 21 22  1  0  0  0  0
 22 23  1  0  0  0  0
 23  1  1  6  0  0  0
 24 25  2  0  0  0  0
 25 21  1  0  0  0  0
 25 26  1  0  0  0  0
 26 27  1  1  0  0  0
 26 23  1  0  0  0  0
 28 32  1  0  0  0  0
 28 30  1  0  0  0  0
 29 31  1  0  0  0  0
 30 32  1  6  0  0  0
 30 29  1  0  0  0  0
 30 31  1  0  0  0  0
 31 24  1  1  0  0  0
 33 34  1  0  0  0  0
 34 35  1  0  0  0  0
 36 37  1  6  0  0  0
 36 35  1  0  0  0  0
 38 39  1  0  0  0  0
 39 36  1  0  0  0  0
M  END
>  <MODEL>
6

>  <REMARK>
 VINA RESULT:      -6.3      2.939      5.375
  Name = 
  10 active torsions:
  status: ('A' for Active; 'I' for Inactive)
    1  A    between atoms: S_6  and  C_8
    2  A    between atoms: S_6  and  C_20
    3  A    between atoms: C_8  and  N_18
    4  A    between atoms: C_13  and  C_20
    5  A    between atoms: C_14  and  N_18
    6  A    between atoms: C_14  and  O_33
    7  A    between atoms: C_17  and  C_21
    8  A    between atoms: C_19  and  C_37
    9  A    between atoms: C_19  and  C_39
   10  A    between atoms: C_20  and  C_26
                            x       y       z     vdW  Elec       q    Type
                         _______ _______ _______ _____ _____    ______ ____

>  <TORSDO>
F 10

$$$$
