=
 OpenBabel11042421123D

 32 36  0  0  1  0  0  0  0  0999 V2000
  161.0420  206.2100  149.7040 C   0  0  0  0  0  0  0  0  0  0  0  0
  160.2430  205.1950  149.5110 C   0  0  0  0  0  3  0  0  0  0  0  0
  161.8250  207.2360  149.8990 C   0  0  0  0  0  0  0  0  0  0  0  0
  160.6230  203.0200  150.5420 C   0  0  0  0  0  3  0  0  0  0  0  0
  161.4890  201.8240  148.2020 C   0  0  0  0  0  3  0  0  0  0  0  0
  160.6640  203.7840  149.3730 C   0  0  0  0  0  0  0  0  0  0  0  0
  161.0160  201.6810  150.5200 C   0  0  0  0  0  3  0  0  0  0  0  0
  161.1020  203.1690  148.1720 C   0  0  0  0  0  0  0  0  0  0  0  0
  161.4400  201.1150  149.3600 N   0  0  0  0  0  0  0  0  0  0  0  0
  161.1480  203.8720  146.8490 C   0  0  0  0  0  2  0  0  0  0  0  0
  162.2950  204.8730  146.7890 C   0  0  0  0  0  3  0  0  0  0  0  0
  161.8720  206.1280  146.0490 C   0  0  0  0  0  1  0  0  0  0  0  0
  163.4640  204.2450  146.0580 C   0  0  0  0  0  1  0  0  0  0  0  0
  162.0280  208.2180  148.7970 C   0  0  0  0  0  2  0  0  0  0  0  0
  162.0380  209.6280  149.3530 C   0  0  0  0  0  2  0  0  0  0  0  0
  161.8180  210.5740  148.2740 N   0  0  0  0  0  2  0  0  0  0  0  0
  161.1200  212.8010  149.0660 C   0  0  0  0  0  2  0  0  0  0  0  0
  162.2690  211.8690  148.7510 C   0  0  2  0  0  0  0  0  0  0  0  0
  161.8090  212.8920  147.7230 C   0  0  2  0  0  3  0  0  0  0  0  0
  163.2700  212.5170  147.8200 C   0  0  0  0  0  2  0  0  0  0  0  0
  162.7520  207.2260  151.0700 C   0  0  0  0  0  2  0  0  0  0  0  0
  160.3610  208.9160  154.9900 C   0  0  0  0  0  0  0  0  0  0  0  0
  161.5060  207.7540  153.2040 C   0  0  0  0  0  0  0  0  0  0  0  0
  161.0270  209.7370  154.0990 C   0  0  0  0  0  0  0  0  0  0  0  0
  159.6280  210.7980  156.2150 N   0  0  0  0  0  0  0  0  0  0  0  0
  160.2210  212.9770  155.5440 F   0  0  0  0  0  0  0  0  0  0  0  0
  160.9990  211.1200  154.2620 C   0  0  0  0  0  3  0  0  0  0  0  0
  159.6510  209.4420  156.0610 C   0  0  0  0  0  3  0  0  0  0  0  0
  161.6750  209.0950  153.0950 N   0  0  0  0  0  0  0  0  0  0  0  0
  162.0470  206.8140  152.2750 N   0  0  0  0  0  2  0  0  0  0  0  0
  160.5610  207.3130  154.5380 S   0  0  0  0  0  0  0  0  0  0  0  0
  160.2780  211.6380  155.3510 C   0  0  0  0  0  0  0  0  0  0  0  0
  1  3  2  0  0  0  0
  2  1  2  0  0  0  0
  3 21  1  0  0  0  0
  5  9  1  0  0  0  0
  6  2  1  0  0  0  0
  6  4  2  0  0  0  0
  7  4  1  0  0  0  0
  8  5  2  0  0  0  0
  8  6  1  0  0  0  0
  9  7  2  0  0  0  0
 10  8  1  0  0  0  0
 11 10  1  0  0  0  0
 12 11  1  0  0  0  0
 13 11  1  0  0  0  0
 14 15  1  0  0  0  0
 14  3  1  0  0  0  0
 16 15  1  0  0  0  0
 18 16  1  6  0  0  0
 18 17  1  0  0  0  0
 19 20  1  1  0  0  0
 19 18  1  0  0  0  0
 19 17  1  0  0  0  0
 20 18  1  0  0  0  0
 21 30  1  0  0  0  0
 22 28  1  0  0  0  0
 23 31  1  0  0  0  0
 24 27  1  0  0  0  0
 24 22  2  0  0  0  0
 27 32  2  0  0  0  0
 28 25  2  0  0  0  0
 29 23  2  0  0  0  0
 29 24  1  0  0  0  0
 30 23  1  0  0  0  0
 31 22  1  0  0  0  0
 32 26  1  0  0  0  0
 32 25  1  0  0  0  0
M  END
>  <MODEL>
1

>  <REMARK>
 VINA RESULT:      -7.8      0.000      0.000
  Name = 
  9 active torsions:
  status: ('A' for Active; 'I' for Inactive)
    1  A    between atoms: C_3  and  N_25
    2  A    between atoms: C_9  and  C_20
    3  A    between atoms: C_10  and  C_13
    4  A    between atoms: C_10  and  C_23
    5  A    between atoms: C_21  and  C_24
    6  A    between atoms: C_21  and  C_27
    7  A    between atoms: C_24  and  C_31
    8  A    between atoms: N_25  and  C_27
    9  A    between atoms: N_26  and  C_31
                            x       y       z     vdW  Elec       q    Type
                         _______ _______ _______ _____ _____    ______ ____

>  <TORSDO>
F 9

$$$$
=
 OpenBabel11042421123D

 32 36  0  0  1  0  0  0  0  0999 V2000
  161.0050  207.2120  149.1890 C   0  0  0  0  0  0  0  0  0  0  0  0
  160.2810  206.5800  148.3040 C   0  0  0  0  0  3  0  0  0  0  0  0
  161.7120  207.8480  150.0820 C   0  0  0  0  0  0  0  0  0  0  0  0
  160.5870  206.1850  145.9190 C   0  0  0  0  0  3  0  0  0  0  0  0
  161.9030  203.7770  146.2700 C   0  0  0  0  0  3  0  0  0  0  0  0
  160.8040  205.7220  147.2200 C   0  0  0  0  0  0  0  0  0  0  0  0
  161.0280  205.4390  144.8250 C   0  0  0  0  0  3  0  0  0  0  0  0
  161.4840  204.4890  147.4000 C   0  0  0  0  0  0  0  0  0  0  0  0
  161.6710  204.2580  145.0210 N   0  0  0  0  0  0  0  0  0  0  0  0
  161.8110  203.9120  148.7430 C   0  0  0  0  0  2  0  0  0  0  0  0
  160.5950  203.2490  149.3760 C   0  0  0  0  0  3  0  0  0  0  0  0
  160.5170  203.5750  150.8560 C   0  0  0  0  0  1  0  0  0  0  0  0
  160.7070  201.7470  149.2130 C   0  0  0  0  0  1  0  0  0  0  0  0
  161.8090  209.3340  150.0120 C   0  0  0  0  0  2  0  0  0  0  0  0
  162.2540  209.7600  148.6270 C   0  0  0  0  0  2  0  0  0  0  0  0
  161.4450  210.8810  148.1850 N   0  0  0  0  0  2  0  0  0  0  0  0
  161.0660  213.1720  149.0140 C   0  0  0  0  0  2  0  0  0  0  0  0
  162.0700  212.0830  148.7080 C   0  0  2  0  0  0  0  0  0  0  0  0
  161.8030  213.1850  147.6940 C   0  0  2  0  0  3  0  0  0  0  0  0
  163.1870  212.5910  147.8220 C   0  0  0  0  0  2  0  0  0  0  0  0
  162.6690  207.0770  150.9310 C   0  0  0  0  0  2  0  0  0  0  0  0
  160.5370  208.5950  155.0640 C   0  0  0  0  0  0  0  0  0  0  0  0
  161.5510  207.5110  153.1550 C   0  0  0  0  0  0  0  0  0  0  0  0
  161.1820  209.4490  154.1890 C   0  0  0  0  0  0  0  0  0  0  0  0
  159.9280  210.4200  156.4360 N   0  0  0  0  0  0  0  0  0  0  0  0
  160.5540  212.6170  155.8630 F   0  0  0  0  0  0  0  0  0  0  0  0
  161.2060  210.8200  154.4350 C   0  0  0  0  0  3  0  0  0  0  0  0
  159.9000  209.0750  156.2010 C   0  0  0  0  0  3  0  0  0  0  0  0
  161.7560  208.8510  153.1160 N   0  0  0  0  0  0  0  0  0  0  0  0
  162.0140  206.6130  152.1450 N   0  0  0  0  0  2  0  0  0  0  0  0
  160.6630  207.0160  154.5090 S   0  0  0  0  0  0  0  0  0  0  0  0
  160.5590  211.2910  155.5890 C   0  0  0  0  0  0  0  0  0  0  0  0
  1  3  2  0  0  0  0
  2  1  2  0  0  0  0
  3 21  1  0  0  0  0
  4  6  1  0  0  0  0
  5  8  1  0  0  0  0
  6  8  2  0  0  0  0
  6  2  1  0  0  0  0
  7  9  1  0  0  0  0
  7  4  2  0  0  0  0
  8 10  1  0  0  0  0
  9  5  2  0  0  0  0
 10 11  1  0  0  0  0
 11 12  1  0  0  0  0
 13 11  1  0  0  0  0
 14  3  1  0  0  0  0
 15 14  1  0  0  0  0
 16 15  1  0  0  0  0
 18 16  1  6  0  0  0
 18 17  1  0  0  0  0
 19 20  1  1  0  0  0
 19 18  1  0  0  0  0
 19 17  1  0  0  0  0
 20 18  1  0  0  0  0
 21 30  1  0  0  0  0
 22 28  1  0  0  0  0
 23 31  1  0  0  0  0
 24 27  1  0  0  0  0
 24 22  2  0  0  0  0
 27 32  2  0  0  0  0
 28 25  2  0  0  0  0
 29 23  2  0  0  0  0
 29 24  1  0  0  0  0
 30 23  1  0  0  0  0
 31 22  1  0  0  0  0
 32 26  1  0  0  0  0
 32 25  1  0  0  0  0
M  END
>  <MODEL>
2

>  <REMARK>
 VINA RESULT:      -7.8      1.257      2.547
  Name = 
  9 active torsions:
  status: ('A' for Active; 'I' for Inactive)
    1  A    between atoms: C_3  and  N_25
    2  A    between atoms: C_9  and  C_20
    3  A    between atoms: C_10  and  C_13
    4  A    between atoms: C_10  and  C_23
    5  A    between atoms: C_21  and  C_24
    6  A    between atoms: C_21  and  C_27
    7  A    between atoms: C_24  and  C_31
    8  A    between atoms: N_25  and  C_27
    9  A    between atoms: N_26  and  C_31
                            x       y       z     vdW  Elec       q    Type
                         _______ _______ _______ _____ _____    ______ ____

>  <TORSDO>
F 9

$$$$
=
 OpenBabel11042421123D

 32 36  0  0  1  0  0  0  0  0999 V2000
  162.0080  206.4470  152.1450 C   0  0  0  0  0  0  0  0  0  0  0  0
  162.7680  207.0640  151.2790 C   0  0  0  0  0  3  0  0  0  0  0  0
  161.2640  205.8180  153.0130 C   0  0  0  0  0  0  0  0  0  0  0  0
  162.2330  209.4390  151.3930 C   0  0  0  0  0  3  0  0  0  0  0  0
  161.9310  209.7190  148.6580 C   0  0  0  0  0  3  0  0  0  0  0  0
  162.4270  208.3200  150.5780 C   0  0  0  0  0  0  0  0  0  0  0  0
  161.8920  210.6680  150.8290 C   0  0  0  0  0  3  0  0  0  0  0  0
  162.2770  208.4650  149.1750 C   0  0  0  0  0  0  0  0  0  0  0  0
  161.7470  210.7830  149.4830 N   0  0  0  0  0  0  0  0  0  0  0  0
  162.5000  207.3520  148.1970 C   0  0  0  0  0  2  0  0  0  0  0  0
  161.1940  206.9040  147.5540 C   0  0  0  0  0  3  0  0  0  0  0  0
  160.3000  206.2250  148.5750 C   0  0  0  0  0  1  0  0  0  0  0  0
  161.4990  205.9220  146.4430 C   0  0  0  0  0  1  0  0  0  0  0  0
  160.6370  204.5200  152.6310 C   0  0  0  0  0  2  0  0  0  0  0  0
  161.4180  203.8790  151.5010 C   0  0  0  0  0  2  0  0  0  0  0  0
  160.4930  203.3230  150.5310 N   0  0  0  0  0  2  0  0  0  0  0  0
  161.1190  202.7570  148.2150 C   0  0  0  0  0  2  0  0  0  0  0  0
  161.2600  202.4270  149.6840 C   0  0  2  0  0  0  0  0  0  0  0  0
  160.2530  201.6770  148.8240 C   0  0  2  0  0  3  0  0  0  0  0  0
  160.9600  200.9690  149.9560 C   0  0  0  0  0  2  0  0  0  0  0  0
  160.7810  206.5530  154.2190 C   0  0  0  0  0  2  0  0  0  0  0  0
  160.5090  211.2130  155.6870 C   0  0  0  0  0  0  0  0  0  0  0  0
  160.9880  208.9840  154.8780 C   0  0  0  0  0  0  0  0  0  0  0  0
  159.3980  210.4090  155.5130 C   0  0  0  0  0  0  0  0  0  0  0  0
  159.1410  212.9860  156.4390 N   0  0  0  0  0  0  0  0  0  0  0  0
  156.8040  212.7270  156.5780 F   0  0  0  0  0  0  0  0  0  0  0  0
  158.1260  210.8960  155.8060 C   0  0  0  0  0  3  0  0  0  0  0  0
  160.3910  212.5150  156.1550 C   0  0  0  0  0  3  0  0  0  0  0  0
  159.6550  209.1580  155.0570 N   0  0  0  0  0  0  0  0  0  0  0  0
  161.5700  207.7590  154.4310 N   0  0  0  0  0  2  0  0  0  0  0  0
  161.8930  210.3610  155.2670 S   0  0  0  0  0  0  0  0  0  0  0  0
  158.0210  212.2150  156.2770 C   0  0  0  0  0  0  0  0  0  0  0  0
  1  3  2  0  0  0  0
  2  1  2  0  0  0  0
  3 21  1  0  0  0  0
  5  8  2  0  0  0  0
  5  9  1  0  0  0  0
  6  2  1  0  0  0  0
  6  4  2  0  0  0  0
  7  4  1  0  0  0  0
  8  6  1  0  0  0  0
  9  7  2  0  0  0  0
 10  8  1  0  0  0  0
 11 10  1  0  0  0  0
 11 12  1  0  0  0  0
 13 11  1  0  0  0  0
 14  3  1  0  0  0  0
 15 14  1  0  0  0  0
 16 15  1  0  0  0  0
 17 18  1  0  0  0  0
 18 20  1  0  0  0  0
 18 16  1  1  0  0  0
 19 17  1  6  0  0  0
 19 18  1  0  0  0  0
 19 20  1  0  0  0  0
 21 30  1  0  0  0  0
 22 28  1  0  0  0  0
 23 29  2  0  0  0  0
 23 31  1  0  0  0  0
 24 22  2  0  0  0  0
 24 27  1  0  0  0  0
 27 32  2  0  0  0  0
 28 25  2  0  0  0  0
 29 24  1  0  0  0  0
 30 23  1  0  0  0  0
 31 22  1  0  0  0  0
 32 25  1  0  0  0  0
 32 26  1  0  0  0  0
M  END
>  <MODEL>
3

>  <REMARK>
 VINA RESULT:      -7.8      1.885      5.864
  Name = 
  9 active torsions:
  status: ('A' for Active; 'I' for Inactive)
    1  A    between atoms: C_3  and  N_25
    2  A    between atoms: C_9  and  C_20
    3  A    between atoms: C_10  and  C_13
    4  A    between atoms: C_10  and  C_23
    5  A    between atoms: C_21  and  C_24
    6  A    between atoms: C_21  and  C_27
    7  A    between atoms: C_24  and  C_31
    8  A    between atoms: N_25  and  C_27
    9  A    between atoms: N_26  and  C_31
                            x       y       z     vdW  Elec       q    Type
                         _______ _______ _______ _____ _____    ______ ____

>  <TORSDO>
F 9

$$$$
=
 OpenBabel11042421123D

 32 36  0  0  1  0  0  0  0  0999 V2000
  161.9730  209.7510  151.1000 C   0  0  0  0  0  0  0  0  0  0  0  0
  161.9560  210.2850  152.2920 C   0  0  0  0  0  3  0  0  0  0  0  0
  162.0090  209.2160  149.9110 C   0  0  0  0  0  0  0  0  0  0  0  0
  159.9090  211.5850  152.5370 C   0  0  0  0  0  3  0  0  0  0  0  0
  159.2040  210.4180  154.9450 C   0  0  0  0  0  3  0  0  0  0  0  0
  160.7430  210.6010  153.0760 C   0  0  0  0  0  0  0  0  0  0  0  0
  158.7470  211.9660  153.2090 C   0  0  0  0  0  3  0  0  0  0  0  0
  160.3780  209.9990  154.3080 C   0  0  0  0  0  0  0  0  0  0  0  0
  158.4220  211.3810  154.3910 N   0  0  0  0  0  0  0  0  0  0  0  0
  161.1670  208.9060  154.9620 C   0  0  0  0  0  2  0  0  0  0  0  0
  160.4250  207.5760  154.9120 C   0  0  0  0  0  3  0  0  0  0  0  0
  160.2180  207.0260  156.3100 C   0  0  0  0  0  1  0  0  0  0  0  0
  161.2420  206.5820  154.1130 C   0  0  0  0  0  1  0  0  0  0  0  0
  162.4210  210.0520  148.7480 C   0  0  0  0  0  2  0  0  0  0  0  0
  161.9900  211.4890  148.9620 C   0  0  0  0  0  2  0  0  0  0  0  0
  161.4940  212.0350  147.7120 N   0  0  0  0  0  2  0  0  0  0  0  0
  162.4610  214.2790  148.0330 C   0  0  0  0  0  2  0  0  0  0  0  0
  162.4860  212.9870  147.2470 C   0  0  2  0  0  0  0  0  0  0  0  0
  161.7170  214.1900  146.7200 C   0  0  2  0  0  3  0  0  0  0  0  0
  162.3950  213.2430  145.7580 C   0  0  0  0  0  2  0  0  0  0  0  0
  161.3230  207.9090  149.6840 C   0  0  0  0  0  2  0  0  0  0  0  0
  161.2540  204.0360  146.6960 C   0  0  0  0  0  0  0  0  0  0  0  0
  161.3780  206.1410  147.8790 C   0  0  0  0  0  0  0  0  0  0  0  0
  161.2270  203.9270  148.0740 C   0  0  0  0  0  0  0  0  0  0  0  0
  161.0820  201.6890  146.4830 N   0  0  0  0  0  0  0  0  0  0  0  0
  160.9520  200.3140  148.3910 F   0  0  0  0  0  0  0  0  0  0  0  0
  161.1270  202.6760  148.6780 C   0  0  0  0  0  3  0  0  0  0  0  0
  161.1800  202.9110  145.8830 C   0  0  0  0  0  3  0  0  0  0  0  0
  161.2990  205.1020  148.7470 N   0  0  0  0  0  0  0  0  0  0  0  0
  161.4380  207.5080  148.2890 N   0  0  0  0  0  2  0  0  0  0  0  0
  161.3670  205.6510  146.2580 S   0  0  0  0  0  0  0  0  0  0  0  0
  161.0550  201.5480  147.8450 C   0  0  0  0  0  0  0  0  0  0  0  0
  1  2  2  0  0  0  0
  2  6  1  0  0  0  0
  3  1  2  0  0  0  0
  4  6  2  0  0  0  0
  4  7  1  0  0  0  0
  6  8  1  0  0  0  0
  7  9  2  0  0  0  0
  8  5  2  0  0  0  0
  8 10  1  0  0  0  0
  9  5  1  0  0  0  0
 11 10  1  0  0  0  0
 11 12  1  0  0  0  0
 13 11  1  0  0  0  0
 14 15  1  0  0  0  0
 14  3  1  0  0  0  0
 16 15  1  0  0  0  0
 18 16  1  1  0  0  0
 18 17  1  0  0  0  0
 19 20  1  6  0  0  0
 19 18  1  0  0  0  0
 19 17  1  0  0  0  0
 20 18  1  0  0  0  0
 21  3  1  0  0  0  0
 22 24  1  0  0  0  0
 23 30  1  0  0  0  0
 23 29  2  0  0  0  0
 24 27  2  0  0  0  0
 24 29  1  0  0  0  0
 25 32  2  0  0  0  0
 28 25  1  0  0  0  0
 28 22  2  0  0  0  0
 30 21  1  0  0  0  0
 31 22  1  0  0  0  0
 31 23  1  0  0  0  0
 32 26  1  0  0  0  0
 32 27  1  0  0  0  0
M  END
>  <MODEL>
4

>  <REMARK>
 VINA RESULT:      -7.7      3.470      8.224
  Name = 
  9 active torsions:
  status: ('A' for Active; 'I' for Inactive)
    1  A    between atoms: C_3  and  N_25
    2  A    between atoms: C_9  and  C_20
    3  A    between atoms: C_10  and  C_13
    4  A    between atoms: C_10  and  C_23
    5  A    between atoms: C_21  and  C_24
    6  A    between atoms: C_21  and  C_27
    7  A    between atoms: C_24  and  C_31
    8  A    between atoms: N_25  and  C_27
    9  A    between atoms: N_26  and  C_31
                            x       y       z     vdW  Elec       q    Type
                         _______ _______ _______ _____ _____    ______ ____

>  <TORSDO>
F 9

$$$$
=
 OpenBabel11042421123D

 32 36  0  0  1  0  0  0  0  0999 V2000
  161.7610  206.5320  152.1730 C   0  0  0  0  0  0  0  0  0  0  0  0
  162.1010  206.9660  153.3580 C   0  0  0  0  0  3  0  0  0  0  0  0
  161.4390  206.0910  150.9890 C   0  0  0  0  0  0  0  0  0  0  0  0
  160.5210  206.8460  155.2090 C   0  0  0  0  0  3  0  0  0  0  0  0
  160.1010  209.5790  155.3060 C   0  0  0  0  0  3  0  0  0  0  0  0
  161.2080  207.6630  154.3070 C   0  0  0  0  0  0  0  0  0  0  0  0
  159.6400  207.4070  156.1350 C   0  0  0  0  0  3  0  0  0  0  0  0
  160.9970  209.0660  154.3610 C   0  0  0  0  0  0  0  0  0  0  0  0
  159.4480  208.7520  156.1630 N   0  0  0  0  0  0  0  0  0  0  0  0
  161.7060  210.0450  153.4770 C   0  0  0  0  0  2  0  0  0  0  0  0
  160.9770  210.2310  152.1520 C   0  0  0  0  0  3  0  0  0  0  0  0
  161.9580  210.2130  150.9950 C   0  0  0  0  0  1  0  0  0  0  0  0
  160.2590  211.5650  152.1640 C   0  0  0  0  0  1  0  0  0  0  0  0
  161.9800  206.7790  149.7820 C   0  0  0  0  0  2  0  0  0  0  0  0
  160.9490  206.7660  148.6700 C   0  0  0  0  0  2  0  0  0  0  0  0
  161.6180  206.9170  147.3910 N   0  0  0  0  0  2  0  0  0  0  0  0
  162.7520  204.9260  146.4820 C   0  0  0  0  0  2  0  0  0  0  0  0
  161.4460  205.6630  146.6780 C   0  0  2  0  0  0  0  0  0  0  0  0
  162.2160  205.8010  145.3720 C   0  0  2  0  0  3  0  0  0  0  0  0
  160.7050  205.8340  145.3700 C   0  0  0  0  0  2  0  0  0  0  0  0
  160.2900  205.1460  150.8560 C   0  0  0  0  0  2  0  0  0  0  0  0
  161.2450  200.9790  148.4790 C   0  0  0  0  0  0  0  0  0  0  0  0
  160.8330  202.8490  149.9560 C   0  0  0  0  0  0  0  0  0  0  0  0
  160.6790  202.0830  147.8700 C   0  0  0  0  0  0  0  0  0  0  0  0
  161.2680  199.8230  146.4180 N   0  0  0  0  0  0  0  0  0  0  0  0
  160.4540  200.8430  144.4570 F   0  0  0  0  0  0  0  0  0  0  0  0
  160.3970  202.0660  146.5060 C   0  0  0  0  0  3  0  0  0  0  0  0
  161.5480  199.8330  147.7540 C   0  0  0  0  0  3  0  0  0  0  0  0
  160.4410  203.1360  148.6900 N   0  0  0  0  0  0  0  0  0  0  0  0
  160.7350  203.7730  151.0400 N   0  0  0  0  0  2  0  0  0  0  0  0
  161.4790  201.2910  150.1100 S   0  0  0  0  0  0  0  0  0  0  0  0
  160.7070  200.9000  145.7860 C   0  0  0  0  0  0  0  0  0  0  0  0
  1  2  2  0  0  0  0
  2  6  1  0  0  0  0
  3  1  2  0  0  0  0
  4  7  1  0  0  0  0
  5  9  1  0  0  0  0
  6  8  1  0  0  0  0
  6  4  2  0  0  0  0
  7  9  2  0  0  0  0
  8  5  2  0  0  0  0
 10  8  1  0  0  0  0
 11 13  1  0  0  0  0
 11 10  1  0  0  0  0
 12 11  1  0  0  0  0
 14  3  1  0  0  0  0
 15 14  1  0  0  0  0
 16 15  1  0  0  0  0
 17 18  1  0  0  0  0
 18 16  1  1  0  0  0
 19 20  1  6  0  0  0
 19 17  1  0  0  0  0
 19 18  1  0  0  0  0
 20 18  1  0  0  0  0
 21  3  1  0  0  0  0
 21 30  1  0  0  0  0
 22 31  1  0  0  0  0
 23 31  1  0  0  0  0
 23 30  1  0  0  0  0
 24 22  1  0  0  0  0
 24 29  1  0  0  0  0
 25 28  1  0  0  0  0
 26 32  1  0  0  0  0
 27 24  2  0  0  0  0
 28 22  2  0  0  0  0
 29 23  2  0  0  0  0
 32 25  2  0  0  0  0
 32 27  1  0  0  0  0
M  END
>  <MODEL>
5

>  <REMARK>
 VINA RESULT:      -7.5      3.809      8.633
  Name = 
  9 active torsions:
  status: ('A' for Active; 'I' for Inactive)
    1  A    between atoms: C_3  and  N_25
    2  A    between atoms: C_9  and  C_20
    3  A    between atoms: C_10  and  C_13
    4  A    between atoms: C_10  and  C_23
    5  A    between atoms: C_21  and  C_24
    6  A    between atoms: C_21  and  C_27
    7  A    between atoms: C_24  and  C_31
    8  A    between atoms: N_25  and  C_27
    9  A    between atoms: N_26  and  C_31
                            x       y       z     vdW  Elec       q    Type
                         _______ _______ _______ _____ _____    ______ ____

>  <TORSDO>
F 9

$$$$
=
 OpenBabel11042421123D

 32 36  0  0  1  0  0  0  0  0999 V2000
  160.8910  206.9120  150.0740 C   0  0  0  0  0  0  0  0  0  0  0  0
  160.5230  205.9530  149.2670 C   0  0  0  0  0  3  0  0  0  0  0  0
  161.2500  207.8820  150.8690 C   0  0  0  0  0  0  0  0  0  0  0  0
  160.6300  204.0600  150.7980 C   0  0  0  0  0  3  0  0  0  0  0  0
  161.3270  202.2390  148.8360 C   0  0  0  0  0  3  0  0  0  0  0  0
  160.7610  204.5100  149.4810 C   0  0  0  0  0  0  0  0  0  0  0  0
  160.8510  202.7180  151.1070 C   0  0  0  0  0  3  0  0  0  0  0  0
  161.1130  203.5740  148.4740 C   0  0  0  0  0  0  0  0  0  0  0  0
  161.1940  201.8410  150.1280 N   0  0  0  0  0  0  0  0  0  0  0  0
  161.2410  203.9270  147.0230 C   0  0  0  0  0  2  0  0  0  0  0  0
  162.3290  204.9700  146.7970 C   0  0  0  0  0  3  0  0  0  0  0  0
  161.7850  206.1490  146.0130 C   0  0  0  0  0  1  0  0  0  0  0  0
  163.4620  204.3420  146.0120 C   0  0  0  0  0  1  0  0  0  0  0  0
  162.3500  208.7980  150.4520 C   0  0  0  0  0  2  0  0  0  0  0  0
  161.9550  209.5440  149.1930 C   0  0  0  0  0  2  0  0  0  0  0  0
  161.9630  210.9710  149.4560 N   0  0  0  0  0  2  0  0  0  0  0  0
  163.2640  212.3270  147.8610 C   0  0  0  0  0  2  0  0  0  0  0  0
  161.9530  211.6360  148.1650 C   0  0  2  0  0  0  0  0  0  0  0  0
  162.1190  213.1230  148.4440 C   0  0  2  0  0  3  0  0  0  0  0  0
  160.7800  212.5780  148.0030 C   0  0  0  0  0  2  0  0  0  0  0  0
  160.8040  207.8530  152.2940 C   0  0  0  0  0  2  0  0  0  0  0  0
  160.5760  211.4520  155.6000 C   0  0  0  0  0  0  0  0  0  0  0  0
  161.0450  209.7330  153.9650 C   0  0  0  0  0  0  0  0  0  0  0  0
  159.4610  210.9400  154.9620 C   0  0  0  0  0  0  0  0  0  0  0  0
  159.2120  212.8950  156.8800 N   0  0  0  0  0  0  0  0  0  0  0  0
  156.8710  212.8910  156.6120 F   0  0  0  0  0  0  0  0  0  0  0  0
  158.1900  211.4100  155.2840 C   0  0  0  0  0  3  0  0  0  0  0  0
  160.4600  212.4390  156.5700 C   0  0  0  0  0  3  0  0  0  0  0  0
  159.7130  209.9770  154.0410 N   0  0  0  0  0  0  0  0  0  0  0  0
  161.6180  208.7490  153.1020 N   0  0  0  0  0  2  0  0  0  0  0  0
  161.9560  210.6940  155.0200 S   0  0  0  0  0  0  0  0  0  0  0  0
  158.0890  212.4090  156.2660 C   0  0  0  0  0  0  0  0  0  0  0  0
  1  3  2  0  0  0  0
  2  6  1  0  0  0  0
  2  1  2  0  0  0  0
  3 21  1  0  0  0  0
  4  7  1  0  0  0  0
  5  9  1  0  0  0  0
  6  4  2  0  0  0  0
  8  5  2  0  0  0  0
  8  6  1  0  0  0  0
  9  7  2  0  0  0  0
 10  8  1  0  0  0  0
 11 10  1  0  0  0  0
 12 11  1  0  0  0  0
 13 11  1  0  0  0  0
 14  3  1  0  0  0  0
 15 16  1  0  0  0  0
 15 14  1  0  0  0  0
 17 18  1  0  0  0  0
 18 19  1  0  0  0  0
 18 16  1  1  0  0  0
 19 17  1  6  0  0  0
 20 18  1  0  0  0  0
 20 19  1  0  0  0  0
 21 30  1  0  0  0  0
 22 28  1  0  0  0  0
 23 29  2  0  0  0  0
 23 31  1  0  0  0  0
 24 27  1  0  0  0  0
 24 22  2  0  0  0  0
 27 32  2  0  0  0  0
 28 25  2  0  0  0  0
 29 24  1  0  0  0  0
 30 23  1  0  0  0  0
 31 22  1  0  0  0  0
 32 26  1  0  0  0  0
 32 25  1  0  0  0  0
M  END
>  <MODEL>
6

>  <REMARK>
 VINA RESULT:      -7.4      1.429      1.895
  Name = 
  9 active torsions:
  status: ('A' for Active; 'I' for Inactive)
    1  A    between atoms: C_3  and  N_25
    2  A    between atoms: C_9  and  C_20
    3  A    between atoms: C_10  and  C_13
    4  A    between atoms: C_10  and  C_23
    5  A    between atoms: C_21  and  C_24
    6  A    between atoms: C_21  and  C_27
    7  A    between atoms: C_24  and  C_31
    8  A    between atoms: N_25  and  C_27
    9  A    between atoms: N_26  and  C_31
                            x       y       z     vdW  Elec       q    Type
                         _______ _______ _______ _____ _____    ______ ____

>  <TORSDO>
F 9

$$$$
=
 OpenBabel11042421123D

 32 36  0  0  1  0  0  0  0  0999 V2000
  161.9420  209.5910  150.9770 C   0  0  0  0  0  0  0  0  0  0  0  0
  161.9410  210.0360  152.2060 C   0  0  0  0  0  3  0  0  0  0  0  0
  161.9620  209.1430  149.7520 C   0  0  0  0  0  0  0  0  0  0  0  0
  159.8980  211.3580  152.3460 C   0  0  0  0  0  3  0  0  0  0  0  0
  159.2430  210.4660  154.8810 C   0  0  0  0  0  3  0  0  0  0  0  0
  160.7440  210.4380  152.9730 C   0  0  0  0  0  0  0  0  0  0  0  0
  158.7500  211.8130  152.9950 C   0  0  0  0  0  3  0  0  0  0  0  0
  160.4040  209.9770  154.2720 C   0  0  0  0  0  0  0  0  0  0  0  0
  158.4490  211.3630  154.2400 N   0  0  0  0  0  0  0  0  0  0  0  0
  161.2070  208.9620  155.0270 C   0  0  0  0  0  2  0  0  0  0  0  0
  160.4390  207.6560  155.1930 C   0  0  0  0  0  3  0  0  0  0  0  0
  160.4370  207.2190  156.6460 C   0  0  0  0  0  1  0  0  0  0  0  0
  161.1040  206.5800  154.3610 C   0  0  0  0  0  1  0  0  0  0  0  0
  162.5160  210.0050  148.6700 C   0  0  0  0  0  2  0  0  0  0  0  0
  161.9920  211.4210  148.8130 C   0  0  0  0  0  2  0  0  0  0  0  0
  162.7860  212.3140  147.9890 N   0  0  0  0  0  2  0  0  0  0  0  0
  162.6110  213.3380  145.7530 C   0  0  0  0  0  2  0  0  0  0  0  0
  161.8860  212.8820  147.0000 C   0  0  2  0  0  0  0  0  0  0  0  0
  162.2900  214.3410  146.8380 C   0  0  2  0  0  3  0  0  0  0  0  0
  161.0160  213.9820  147.5680 C   0  0  0  0  0  2  0  0  0  0  0  0
  161.1360  207.9480  149.4050 C   0  0  0  0  0  2  0  0  0  0  0  0
  161.1750  203.1900  150.5420 C   0  0  0  0  0  0  0  0  0  0  0  0
  161.1000  205.5980  150.3330 C   0  0  0  0  0  0  0  0  0  0  0  0
  161.0940  203.6560  149.2430 C   0  0  0  0  0  0  0  0  0  0  0  0
  161.2100  200.9580  149.7670 N   0  0  0  0  0  0  0  0  0  0  0  0
  161.1130  200.4840  147.4610 F   0  0  0  0  0  0  0  0  0  0  0  0
  161.0690  202.7600  148.1760 C   0  0  0  0  0  3  0  0  0  0  0  0
  161.2350  201.8300  150.8170 C   0  0  0  0  0  3  0  0  0  0  0  0
  161.0480  205.0050  149.1150 N   0  0  0  0  0  0  0  0  0  0  0  0
  161.0980  207.0140  150.5210 N   0  0  0  0  0  2  0  0  0  0  0  0
  161.1970  204.4860  151.6070 S   0  0  0  0  0  0  0  0  0  0  0  0
  161.1290  201.3880  148.4690 C   0  0  0  0  0  0  0  0  0  0  0  0
  1  2  2  0  0  0  0
  2  6  1  0  0  0  0
  3  1  2  0  0  0  0
  4  6  2  0  0  0  0
  4  7  1  0  0  0  0
  6  8  1  0  0  0  0
  7  9  2  0  0  0  0
  8  5  2  0  0  0  0
  8 10  1  0  0  0  0
  9  5  1  0  0  0  0
 10 11  1  0  0  0  0
 11 12  1  0  0  0  0
 13 11  1  0  0  0  0
 14 15  1  0  0  0  0
 14  3  1  0  0  0  0
 16 15  1  0  0  0  0
 17 18  1  0  0  0  0
 18 20  1  0  0  0  0
 18 16  1  1  0  0  0
 19 17  1  6  0  0  0
 19 18  1  0  0  0  0
 19 20  1  0  0  0  0
 21  3  1  0  0  0  0
 21 30  1  0  0  0  0
 22 28  1  0  0  0  0
 22 31  1  0  0  0  0
 23 30  1  0  0  0  0
 23 31  1  0  0  0  0
 24 22  2  0  0  0  0
 25 28  2  0  0  0  0
 26 32  1  0  0  0  0
 27 32  2  0  0  0  0
 27 24  1  0  0  0  0
 29 24  1  0  0  0  0
 29 23  2  0  0  0  0
 32 25  1  0  0  0  0
M  END
>  <MODEL>
7

>  <REMARK>
 VINA RESULT:      -7.4      3.223      7.804
  Name = 
  9 active torsions:
  status: ('A' for Active; 'I' for Inactive)
    1  A    between atoms: C_3  and  N_25
    2  A    between atoms: C_9  and  C_20
    3  A    between atoms: C_10  and  C_13
    4  A    between atoms: C_10  and  C_23
    5  A    between atoms: C_21  and  C_24
    6  A    between atoms: C_21  and  C_27
    7  A    between atoms: C_24  and  C_31
    8  A    between atoms: N_25  and  C_27
    9  A    between atoms: N_26  and  C_31
                            x       y       z     vdW  Elec       q    Type
                         _______ _______ _______ _____ _____    ______ ____

>  <TORSDO>
F 9

$$$$
=
 OpenBabel11042421123D

 32 36  0  0  1  0  0  0  0  0999 V2000
  161.0930  206.9230  152.8650 C   0  0  0  0  0  0  0  0  0  0  0  0
  160.4570  207.7700  153.6300 C   0  0  0  0  0  3  0  0  0  0  0  0
  161.7120  206.0740  152.0930 C   0  0  0  0  0  0  0  0  0  0  0  0
  161.3690  208.0240  155.8750 C   0  0  0  0  0  3  0  0  0  0  0  0
  161.9500  210.7110  155.5660 C   0  0  0  0  0  3  0  0  0  0  0  0
  161.0770  208.6380  154.6540 C   0  0  0  0  0  0  0  0  0  0  0  0
  161.9410  208.7610  156.9130 C   0  0  0  0  0  3  0  0  0  0  0  0
  161.3800  210.0150  154.4940 C   0  0  0  0  0  0  0  0  0  0  0  0
  162.2160  210.0800  156.7390 N   0  0  0  0  0  0  0  0  0  0  0  0
  161.1520  210.7710  153.2200 C   0  0  0  0  0  2  0  0  0  0  0  0
  160.0820  211.8410  153.3910 C   0  0  0  0  0  3  0  0  0  0  0  0
  158.7650  211.2180  153.8120 C   0  0  0  0  0  1  0  0  0  0  0  0
  159.8830  212.5590  152.0720 C   0  0  0  0  0  1  0  0  0  0  0  0
  161.5270  204.6120  152.3210 C   0  0  0  0  0  2  0  0  0  0  0  0
  160.4480  204.0750  151.4020 C   0  0  0  0  0  2  0  0  0  0  0  0
  161.0650  203.3630  150.2980 N   0  0  0  0  0  2  0  0  0  0  0  0
  161.5120  200.9520  150.5540 C   0  0  0  0  0  2  0  0  0  0  0  0
  160.4860  202.0310  150.2830 C   0  0  2  0  0  0  0  0  0  0  0  0
  161.1430  201.2890  149.1270 C   0  0  2  0  0  3  0  0  0  0  0  0
  159.7070  201.7480  149.0170 C   0  0  0  0  0  2  0  0  0  0  0  0
  162.8360  206.5590  151.2380 C   0  0  0  0  0  2  0  0  0  0  0  0
  161.0650  206.3240  146.6830 C   0  0  0  0  0  0  0  0  0  0  0  0
  161.9290  206.7990  148.8910 C   0  0  0  0  0  0  0  0  0  0  0  0
  161.5800  205.2280  147.3510 C   0  0  0  0  0  0  0  0  0  0  0  0
  160.5160  204.9670  144.8280 N   0  0  0  0  0  0  0  0  0  0  0  0
  160.9830  202.6580  144.8470 F   0  0  0  0  0  0  0  0  0  0  0  0
  161.5670  203.9710  146.7520 C   0  0  0  0  0  3  0  0  0  0  0  0
  160.5250  206.2020  145.4090 C   0  0  0  0  0  3  0  0  0  0  0  0
  162.0690  205.4840  148.5890 N   0  0  0  0  0  0  0  0  0  0  0  0
  162.3270  207.3680  150.1390 N   0  0  0  0  0  2  0  0  0  0  0  0
  161.2040  207.6900  147.6460 S   0  0  0  0  0  0  0  0  0  0  0  0
  161.0190  203.8630  145.4630 C   0  0  0  0  0  0  0  0  0  0  0  0
  1  2  2  0  0  0  0
  2  6  1  0  0  0  0
  3 14  1  0  0  0  0
  3  1  2  0  0  0  0
  4  7  1  0  0  0  0
  5  9  1  0  0  0  0
  6  4  2  0  0  0  0
  8  6  1  0  0  0  0
  8  5  2  0  0  0  0
  9  7  2  0  0  0  0
 10 11  1  0  0  0  0
 10  8  1  0  0  0  0
 11 12  1  0  0  0  0
 13 11  1  0  0  0  0
 15 14  1  0  0  0  0
 16 15  1  0  0  0  0
 18 16  1  1  0  0  0
 18 17  1  0  0  0  0
 19 20  1  1  0  0  0
 19 18  1  0  0  0  0
 19 17  1  0  0  0  0
 20 18  1  0  0  0  0
 21  3  1  0  0  0  0
 22 24  1  0  0  0  0
 22 31  1  0  0  0  0
 23 30  1  0  0  0  0
 24 29  1  0  0  0  0
 25 28  1  0  0  0  0
 25 32  2  0  0  0  0
 26 32  1  0  0  0  0
 27 24  2  0  0  0  0
 28 22  2  0  0  0  0
 29 23  2  0  0  0  0
 30 21  1  0  0  0  0
 31 23  1  0  0  0  0
 32 27  1  0  0  0  0
M  END
>  <MODEL>
8

>  <REMARK>
 VINA RESULT:      -7.4      3.710      9.102
  Name = 
  9 active torsions:
  status: ('A' for Active; 'I' for Inactive)
    1  A    between atoms: C_3  and  N_25
    2  A    between atoms: C_9  and  C_20
    3  A    between atoms: C_10  and  C_13
    4  A    between atoms: C_10  and  C_23
    5  A    between atoms: C_21  and  C_24
    6  A    between atoms: C_21  and  C_27
    7  A    between atoms: C_24  and  C_31
    8  A    between atoms: N_25  and  C_27
    9  A    between atoms: N_26  and  C_31
                            x       y       z     vdW  Elec       q    Type
                         _______ _______ _______ _____ _____    ______ ____

>  <TORSDO>
F 9

$$$$
=
 OpenBabel11042421123D

 32 36  0  0  1  0  0  0  0  0999 V2000
  162.0900  209.9600  151.9850 C   0  0  0  0  0  0  0  0  0  0  0  0
  162.1770  210.0870  153.2830 C   0  0  0  0  0  3  0  0  0  0  0  0
  162.0190  209.8400  150.6880 C   0  0  0  0  0  0  0  0  0  0  0  0
  161.3770  208.2030  154.6060 C   0  0  0  0  0  3  0  0  0  0  0  0
  159.3100  209.6260  155.7710 C   0  0  0  0  0  3  0  0  0  0  0  0
  161.2140  209.5490  154.2660 C   0  0  0  0  0  0  0  0  0  0  0  0
  160.5070  207.5970  155.5130 C   0  0  0  0  0  3  0  0  0  0  0  0
  160.1570  210.2800  154.8680 C   0  0  0  0  0  0  0  0  0  0  0  0
  159.4980  208.3140  156.0720 N   0  0  0  0  0  0  0  0  0  0  0  0
  159.9080  211.7360  154.6180 C   0  0  0  0  0  2  0  0  0  0  0  0
  158.9330  211.9450  153.4660 C   0  0  0  0  0  3  0  0  0  0  0  0
  159.5840  212.7430  152.3520 C   0  0  0  0  0  1  0  0  0  0  0  0
  157.7240  212.7060  153.9700 C   0  0  0  0  0  1  0  0  0  0  0  0
  161.6990  211.0390  149.8620 C   0  0  0  0  0  2  0  0  0  0  0  0
  162.2360  210.8600  148.4560 C   0  0  0  0  0  2  0  0  0  0  0  0
  162.6170  212.1530  147.9170 N   0  0  0  0  0  2  0  0  0  0  0  0
  160.5200  213.0620  146.9930 C   0  0  0  0  0  2  0  0  0  0  0  0
  161.4980  213.0490  148.1480 C   0  0  2  0  0  0  0  0  0  0  0  0
  161.5860  214.1310  147.0810 C   0  0  2  0  0  3  0  0  0  0  0  0
  161.9390  214.4490  148.5150 C   0  0  0  0  0  2  0  0  0  0  0  0
  161.9210  208.4750  150.0910 C   0  0  0  0  0  2  0  0  0  0  0  0
  161.1500  203.7040  150.8540 C   0  0  0  0  0  0  0  0  0  0  0  0
  161.4770  206.1000  150.8330 C   0  0  0  0  0  0  0  0  0  0  0  0
  161.1760  204.2740  149.5940 C   0  0  0  0  0  0  0  0  0  0  0  0
  160.8350  201.5630  149.9080 N   0  0  0  0  0  0  0  0  0  0  0  0
  160.7130  201.2860  147.5720 F   0  0  0  0  0  0  0  0  0  0  0  0
  161.0290  203.4770  148.4610 C   0  0  0  0  0  3  0  0  0  0  0  0
  160.9790  202.3360  151.0230 C   0  0  0  0  0  3  0  0  0  0  0  0
  161.3560  205.6170  149.5710 N   0  0  0  0  0  0  0  0  0  0  0  0
  161.7040  207.4790  151.1310 N   0  0  0  0  0  2  0  0  0  0  0  0
  161.3610  204.8950  152.0170 S   0  0  0  0  0  0  0  0  0  0  0  0
  160.8550  202.0960  148.6470 C   0  0  0  0  0  0  0  0  0  0  0  0
  1  2  2  0  0  0  0
  2  6  1  0  0  0  0
  3  1  2  0  0  0  0
  4  7  1  0  0  0  0
  5  9  1  0  0  0  0
  6  4  2  0  0  0  0
  6  8  1  0  0  0  0
  7  9  2  0  0  0  0
  8  5  2  0  0  0  0
 10  8  1  0  0  0  0
 11 13  1  0  0  0  0
 11 10  1  0  0  0  0
 12 11  1  0  0  0  0
 14  3  1  0  0  0  0
 15 14  1  0  0  0  0
 16 15  1  0  0  0  0
 17 18  1  0  0  0  0
 18 16  1  6  0  0  0
 18 20  1  0  0  0  0
 19 17  1  1  0  0  0
 19 18  1  0  0  0  0
 19 20  1  0  0  0  0
 21  3  1  0  0  0  0
 21 30  1  0  0  0  0
 22 28  1  0  0  0  0
 22 31  1  0  0  0  0
 23 30  1  0  0  0  0
 23 31  1  0  0  0  0
 24 22  2  0  0  0  0
 25 28  2  0  0  0  0
 26 32  1  0  0  0  0
 27 32  2  0  0  0  0
 27 24  1  0  0  0  0
 29 24  1  0  0  0  0
 29 23  2  0  0  0  0
 32 25  1  0  0  0  0
M  END
>  <MODEL>
9

>  <REMARK>
 VINA RESULT:      -7.2      3.030      7.594
  Name = 
  9 active torsions:
  status: ('A' for Active; 'I' for Inactive)
    1  A    between atoms: C_3  and  N_25
    2  A    between atoms: C_9  and  C_20
    3  A    between atoms: C_10  and  C_13
    4  A    between atoms: C_10  and  C_23
    5  A    between atoms: C_21  and  C_24
    6  A    between atoms: C_21  and  C_27
    7  A    between atoms: C_24  and  C_31
    8  A    between atoms: N_25  and  C_27
    9  A    between atoms: N_26  and  C_31
                            x       y       z     vdW  Elec       q    Type
                         _______ _______ _______ _____ _____    ______ ____

>  <TORSDO>
F 9

$$$$
