=
 OpenBabel11042421133D

 32 36  0  0  1  0  0  0  0  0999 V2000
  161.6890  205.2370  151.0090 C   0  0  0  0  0  2  0  0  0  0  0  0
  161.3490  206.9580  154.2910 C   0  0  0  0  0  2  0  0  0  0  0  0
  161.2110  209.4590  154.6700 C   0  0  2  0  0  3  0  0  0  0  0  0
  162.1510  208.2510  157.1030 C   0  0  0  0  0  2  0  0  0  0  0  0
  161.8020  208.4170  149.5870 C   0  0  0  0  0  2  0  0  0  0  0  0
  162.2740  206.9820  149.3250 C   0  0  1  0  0  3  0  0  0  0  0  0
  161.2290  205.9240  149.7280 C   0  0  1  0  0  3  0  0  0  0  0  0
  160.0240  204.8950  152.6220 O   0  0  0  0  0  0  0  0  0  0  0  0
  160.3840  210.0830  153.5340 C   0  0  2  0  0  3  0  0  0  0  0  0
  161.0470  204.9550  148.7360 O   0  0  0  0  0  1  0  0  0  0  0  0
  161.2950  210.6290  152.5310 N   0  0  0  0  0  2  0  0  0  0  0  0
  160.6610  208.0770  155.0760 C   0  0  2  0  0  3  0  0  0  0  0  0
  160.7850  207.8090  156.5790 C   0  0  0  0  0  2  0  0  0  0  0  0
  161.4740  210.3970  155.8560 C   0  0  0  0  0  2  0  0  0  0  0  0
  160.9930  207.0350  152.8130 C   0  0  2  0  0  3  0  0  0  0  0  0
  162.7330  206.8750  147.8780 C   0  0  0  0  0  1  0  0  0  0  0  0
  160.8630  205.6670  152.1860 C   0  0  0  0  0  0  0  0  0  0  0  0
  162.4130  209.7480  156.8790 C   0  0  0  0  0  2  0  0  0  0  0  0
  161.1870  208.6420  150.9690 C   0  0  2  0  0  3  0  0  0  0  0  0
  160.9030  210.1380  151.2070 C   0  0  0  0  0  2  0  0  0  0  0  0
  161.9660  207.9480  152.0780 C   0  0  0  0  0  2  0  0  0  0  0  0
  159.3420  211.1220  154.0000 C   0  0  1  0  0  3  0  0  0  0  0  0
  158.7840  211.9600  152.8540 C   0  0  0  0  0  1  0  0  0  0  0  0
  158.2640  210.5030  154.7770 N   0  0  0  0  0  2  0  0  0  0  0  0
  157.0030  211.2160  154.5670 C   0  0  1  0  0  3  0  0  0  0  0  0
  155.6800  213.1800  155.5960 C   0  0  0  0  0  2  0  0  0  0  0  0
  157.4720  211.9600  157.0580 C   0  0  0  0  0  2  0  0  0  0  0  0
  155.9340  210.6530  155.4990 C   0  0  0  0  0  2  0  0  0  0  0  0
  156.5830  211.9760  155.8150 C   0  0  0  0  0  0  0  0  0  0  0  0
  156.4600  214.4530  155.9200 C   0  0  0  0  0  2  0  0  0  0  0  0
  158.0870  213.3450  157.2460 C   0  0  0  0  0  2  0  0  0  0  0  0
  157.0400  214.3670  157.2610 N   0  0  0  0  0  2  0  0  0  0  0  0
  1 17  1  0  0  0  0
  3 12  1  0  0  0  0
  3 14  1  1  0  0  0
  6 16  1  6  0  0  0
  6  5  1  0  0  0  0
  6  7  1  0  0  0  0
  7 10  1  6  0  0  0
  7  1  1  0  0  0  0
  9 22  1  1  0  0  0
  9  3  1  0  0  0  0
 11  9  1  0  0  0  0
 12  2  1  6  0  0  0
 12 13  1  0  0  0  0
 13  4  1  0  0  0  0
 14 18  1  0  0  0  0
 15 21  1  6  0  0  0
 15  2  1  0  0  0  0
 17  8  2  0  0  0  0
 17 15  1  0  0  0  0
 18  4  1  0  0  0  0
 19  5  1  6  0  0  0
 19 20  1  0  0  0  0
 19 21  1  0  0  0  0
 20 11  1  0  0  0  0
 22 23  1  6  0  0  0
 22 24  1  0  0  0  0
 25 24  1  1  0  0  0
 25 28  1  0  0  0  0
 25 29  1  0  0  0  0
 26 29  1  0  0  0  0
 26 30  1  0  0  0  0
 27 31  1  0  0  0  0
 28 29  1  0  0  0  0
 29 27  1  0  0  0  0
 30 32  1  0  0  0  0
 31 32  1  0  0  0  0
M  END
>  <MODEL>
1

>  <REMARK>
 VINA RESULT:      -6.0      0.000      0.000
  Name = 
  3 active torsions:
  status: ('A' for Active; 'I' for Inactive)
    1  A    between atoms: N_2  and  C_3
    2  A    between atoms: N_2  and  C_15
    3  A    between atoms: C_14  and  C_15
                            x       y       z     vdW  Elec       q    Type
                         _______ _______ _______ _____ _____    ______ ____

>  <TORSDO>
F 3

$$$$
=
 OpenBabel11042421133D

 32 36  0  0  1  0  0  0  0  0999 V2000
  161.7630  205.4570  150.9500 C   0  0  0  0  0  2  0  0  0  0  0  0
  161.3250  206.9160  154.3450 C   0  0  0  0  0  2  0  0  0  0  0  0
  161.1210  209.3780  154.9090 C   0  0  2  0  0  3  0  0  0  0  0  0
  162.0480  208.0110  157.2610 C   0  0  0  0  0  2  0  0  0  0  0  0
  161.8220  208.7370  149.7740 C   0  0  0  0  0  2  0  0  0  0  0  0
  162.3330  207.3370  149.4130 C   0  0  1  0  0  3  0  0  0  0  0  0
  161.3080  206.2280  149.7160 C   0  0  1  0  0  3  0  0  0  0  0  0
  160.0790  204.9550  152.5020 O   0  0  0  0  0  0  0  0  0  0  0  0
  160.2980  210.0670  153.8070 C   0  0  2  0  0  3  0  0  0  0  0  0
  161.1660  205.3330  148.6510 O   0  0  0  0  0  1  0  0  0  0  0  0
  161.2120  210.7070  152.8650 N   0  0  0  0  0  2  0  0  0  0  0  0
  160.5970  207.9570  155.1990 C   0  0  2  0  0  3  0  0  0  0  0  0
  160.7030  207.5790  156.6800 C   0  0  0  0  0  2  0  0  0  0  0  0
  161.3410  210.2290  156.1660 C   0  0  0  0  0  2  0  0  0  0  0  0
  160.9930  207.0970  152.8710 C   0  0  2  0  0  3  0  0  0  0  0  0
  162.8190  207.3500  147.9710 C   0  0  0  0  0  1  0  0  0  0  0  0
  160.9060  205.7780  152.1410 C   0  0  0  0  0  0  0  0  0  0  0  0
  162.2770  209.5260  157.1550 C   0  0  0  0  0  2  0  0  0  0  0  0
  161.1790  208.8430  151.1560 C   0  0  2  0  0  3  0  0  0  0  0  0
  160.8550  210.3090  151.5010 C   0  0  0  0  0  2  0  0  0  0  0  0
  161.9550  208.0850  152.2250 C   0  0  0  0  0  2  0  0  0  0  0  0
  159.2230  211.0430  154.3310 C   0  0  1  0  0  3  0  0  0  0  0  0
  158.4180  210.4740  155.4950 C   0  0  0  0  0  1  0  0  0  0  0  0
  159.7930  212.3510  154.6700 N   0  0  0  0  0  2  0  0  0  0  0  0
  159.0480  212.9660  155.7700 C   0  0  1  0  0  3  0  0  0  0  0  0
  156.8960  214.3460  156.1360 C   0  0  0  0  0  2  0  0  0  0  0  0
  158.0020  214.3330  153.7660 C   0  0  0  0  0  2  0  0  0  0  0  0
  159.4240  214.4410  155.8810 C   0  0  0  0  0  2  0  0  0  0  0  0
  158.1060  214.0470  155.2630 C   0  0  0  0  0  0  0  0  0  0  0  0
  155.6350  213.8740  155.4150 C   0  0  0  0  0  2  0  0  0  0  0  0
  156.6380  213.8610  153.2650 C   0  0  0  0  0  2  0  0  0  0  0  0
  155.5710  214.4500  154.0720 N   0  0  0  0  0  2  0  0  0  0  0  0
  1 17  1  0  0  0  0
  3 12  1  0  0  0  0
  3 14  1  1  0  0  0
  6 16  1  6  0  0  0
  6  7  1  0  0  0  0
  6  5  1  0  0  0  0
  7 10  1  6  0  0  0
  7  1  1  0  0  0  0
  9 22  1  1  0  0  0
  9  3  1  0  0  0  0
 11  9  1  0  0  0  0
 12  2  1  6  0  0  0
 12 13  1  0  0  0  0
 13  4  1  0  0  0  0
 14 18  1  0  0  0  0
 15 21  1  6  0  0  0
 15  2  1  0  0  0  0
 17  8  2  0  0  0  0
 17 15  1  0  0  0  0
 18  4  1  0  0  0  0
 19  5  1  6  0  0  0
 19 20  1  0  0  0  0
 19 21  1  0  0  0  0
 20 11  1  0  0  0  0
 22 24  1  0  0  0  0
 22 23  1  1  0  0  0
 25 24  1  6  0  0  0
 25 28  1  0  0  0  0
 27 29  1  0  0  0  0
 29 25  1  0  0  0  0
 29 28  1  0  0  0  0
 29 26  1  0  0  0  0
 30 26  1  0  0  0  0
 31 27  1  0  0  0  0
 31 32  1  0  0  0  0
 32 30  1  0  0  0  0
M  END
>  <MODEL>
2

>  <REMARK>
 VINA RESULT:      -5.6      1.244      1.863
  Name = 
  3 active torsions:
  status: ('A' for Active; 'I' for Inactive)
    1  A    between atoms: N_2  and  C_3
    2  A    between atoms: N_2  and  C_15
    3  A    between atoms: C_14  and  C_15
                            x       y       z     vdW  Elec       q    Type
                         _______ _______ _______ _____ _____    ______ ____

>  <TORSDO>
F 3

$$$$
=
 OpenBabel11042421133D

 32 36  0  0  1  0  0  0  0  0999 V2000
  161.8760  205.3780  151.1500 C   0  0  0  0  0  2  0  0  0  0  0  0
  161.4570  207.0390  154.4540 C   0  0  0  0  0  2  0  0  0  0  0  0
  161.1100  209.5160  154.8590 C   0  0  2  0  0  3  0  0  0  0  0  0
  162.2030  208.3760  157.2610 C   0  0  0  0  0  2  0  0  0  0  0  0
  161.6800  208.5670  149.7560 C   0  0  0  0  0  2  0  0  0  0  0  0
  162.2700  207.1800  149.4700 C   0  0  1  0  0  3  0  0  0  0  0  0
  161.3310  206.0320  149.8850 C   0  0  1  0  0  3  0  0  0  0  0  0
  160.2820  204.8800  152.7940 O   0  0  0  0  0  0  0  0  0  0  0  0
  160.2070  210.0730  153.7460 C   0  0  2  0  0  3  0  0  0  0  0  0
  161.2130  205.0580  148.8880 O   0  0  0  0  0  1  0  0  0  0  0  0
  161.0450  210.7030  152.7290 N   0  0  0  0  0  2  0  0  0  0  0  0
  160.6910  208.0870  155.2640 C   0  0  2  0  0  3  0  0  0  0  0  0
  160.8710  207.8200  156.7610 C   0  0  0  0  0  2  0  0  0  0  0  0
  161.3150  210.4640  156.0480 C   0  0  0  0  0  2  0  0  0  0  0  0
  161.0640  207.0950  152.9850 C   0  0  2  0  0  3  0  0  0  0  0  0
  162.7050  207.1240  148.0140 C   0  0  0  0  0  1  0  0  0  0  0  0
  161.0410  205.7260  152.3480 C   0  0  0  0  0  0  0  0  0  0  0  0
  162.3290  209.8920  157.0450 C   0  0  0  0  0  2  0  0  0  0  0  0
  161.0780  208.7270  151.1510 C   0  0  2  0  0  3  0  0  0  0  0  0
  160.6700  210.1900  151.4090 C   0  0  0  0  0  2  0  0  0  0  0  0
  161.9380  208.0950  152.2390 C   0  0  0  0  0  2  0  0  0  0  0  0
  159.0890  211.0130  154.2430 C   0  0  1  0  0  3  0  0  0  0  0  0
  158.9150  210.9820  155.7580 C   0  0  0  0  0  1  0  0  0  0  0  0
  159.2750  212.3850  153.7610 N   0  0  0  0  0  2  0  0  0  0  0  0
  158.0050  212.9400  153.2880 C   0  0  1  0  0  3  0  0  0  0  0  0
  157.0340  214.0570  151.1720 C   0  0  0  0  0  2  0  0  0  0  0  0
  159.6210  214.1020  151.5500 C   0  0  0  0  0  2  0  0  0  0  0  0
  158.0020  214.4530  153.4890 C   0  0  0  0  0  2  0  0  0  0  0  0
  158.2180  213.8800  152.1110 C   0  0  0  0  0  0  0  0  0  0  0  0
  157.3640  213.4110  149.8280 C   0  0  0  0  0  2  0  0  0  0  0  0
  159.7120  213.4500  150.1710 C   0  0  0  0  0  2  0  0  0  0  0  0
  158.6310  213.9300  149.3120 N   0  0  0  0  0  2  0  0  0  0  0  0
  1 17  1  0  0  0  0
  3 12  1  0  0  0  0
  3 14  1  1  0  0  0
  6 16  1  6  0  0  0
  6  5  1  0  0  0  0
  6  7  1  0  0  0  0
  7 10  1  6  0  0  0
  7  1  1  0  0  0  0
  9 22  1  1  0  0  0
  9  3  1  0  0  0  0
 11  9  1  0  0  0  0
 12  2  1  6  0  0  0
 12 13  1  0  0  0  0
 13  4  1  0  0  0  0
 14 18  1  0  0  0  0
 15 21  1  6  0  0  0
 15  2  1  0  0  0  0
 17  8  2  0  0  0  0
 17 15  1  0  0  0  0
 18  4  1  0  0  0  0
 19  5  1  6  0  0  0
 19 20  1  0  0  0  0
 19 21  1  0  0  0  0
 20 11  1  0  0  0  0
 22 23  1  1  0  0  0
 24 22  1  0  0  0  0
 25 28  1  0  0  0  0
 25 24  1  1  0  0  0
 26 29  1  0  0  0  0
 27 29  1  0  0  0  0
 29 25  1  0  0  0  0
 29 28  1  0  0  0  0
 30 26  1  0  0  0  0
 31 27  1  0  0  0  0
 32 30  1  0  0  0  0
 32 31  1  0  0  0  0
M  END
>  <MODEL>
3

>  <REMARK>
 VINA RESULT:      -5.5      1.706      2.980
  Name = 
  3 active torsions:
  status: ('A' for Active; 'I' for Inactive)
    1  A    between atoms: N_2  and  C_3
    2  A    between atoms: N_2  and  C_15
    3  A    between atoms: C_14  and  C_15
                            x       y       z     vdW  Elec       q    Type
                         _______ _______ _______ _____ _____    ______ ____

>  <TORSDO>
F 3

$$$$
=
 OpenBabel11042421133D

 32 36  0  0  1  0  0  0  0  0999 V2000
  159.0570  212.2490  154.0930 C   0  0  0  0  0  2  0  0  0  0  0  0
  160.4410  212.6050  150.6570 C   0  0  0  0  0  2  0  0  0  0  0  0
  162.0410  211.0120  149.5070 C   0  0  2  0  0  3  0  0  0  0  0  0
  162.3150  213.5870  148.2590 C   0  0  0  0  0  2  0  0  0  0  0  0
  161.0100  209.3740  154.3570 C   0  0  0  0  0  2  0  0  0  0  0  0
  160.3760  210.4630  155.2310 C   0  0  1  0  0  3  0  0  0  0  0  0
  158.9710  210.8760  154.7500 C   0  0  1  0  0  3  0  0  0  0  0  0
  157.8510  212.4870  152.0970 O   0  0  0  0  0  0  0  0  0  0  0  0
  161.6650  209.5730  149.8970 C   0  0  2  0  0  3  0  0  0  0  0  0
  158.0480  210.9330  155.7980 O   0  0  0  0  0  1  0  0  0  0  0  0
  162.5410  209.1330  150.9800 N   0  0  0  0  0  2  0  0  0  0  0  0
  160.7890  211.8980  149.3450 C   0  0  2  0  0  3  0  0  0  0  0  0
  160.9360  212.9300  148.2220 C   0  0  0  0  0  2  0  0  0  0  0  0
  163.0330  211.1180  148.3420 C   0  0  0  0  0  2  0  0  0  0  0  0
  160.0010  211.6020  151.7130 C   0  0  2  0  0  3  0  0  0  0  0  0
  160.4210  210.0130  156.6840 C   0  0  0  0  0  1  0  0  0  0  0  0
  158.9110  212.1510  152.6020 C   0  0  0  0  0  0  0  0  0  0  0  0
  163.4570  212.5710  148.1040 C   0  0  0  0  0  2  0  0  0  0  0  0
  160.9170  209.6310  152.8540 C   0  0  2  0  0  3  0  0  0  0  0  0
  161.7260  208.5820  152.0660 C   0  0  0  0  0  2  0  0  0  0  0  0
  161.2060  211.0800  152.4850 C   0  0  0  0  0  2  0  0  0  0  0  0
  161.6500  208.5760  148.7190 C   0  0  1  0  0  3  0  0  0  0  0  0
  163.0480  208.1760  148.2600 C   0  0  0  0  0  1  0  0  0  0  0  0
  160.8320  207.3950  149.0140 N   0  0  0  0  0  2  0  0  0  0  0  0
  161.6340  206.1750  148.9100 C   0  0  1  0  0  3  0  0  0  0  0  0
  162.2630  204.4010  147.1420 C   0  0  0  0  0  2  0  0  0  0  0  0
  160.1010  205.8270  146.7870 C   0  0  0  0  0  2  0  0  0  0  0  0
  160.7370  204.9550  149.0980 C   0  0  0  0  0  2  0  0  0  0  0  0
  161.2080  205.3340  147.7160 C   0  0  0  0  0  0  0  0  0  0  0  0
  162.6770  204.9080  145.7610 C   0  0  0  0  0  2  0  0  0  0  0  0
  160.7140  206.2030  145.4400 C   0  0  0  0  0  2  0  0  0  0  0  0
  161.4990  205.0870  144.9120 N   0  0  0  0  0  2  0  0  0  0  0  0
  1  7  1  0  0  0  0
  3 14  1  6  0  0  0
  3  9  1  0  0  0  0
  5  6  1  0  0  0  0
  6 16  1  1  0  0  0
  7  6  1  0  0  0  0
  7 10  1  1  0  0  0
  8 17  2  0  0  0  0
  9 22  1  6  0  0  0
  9 11  1  0  0  0  0
 11 20  1  0  0  0  0
 12 13  1  6  0  0  0
 12  3  1  0  0  0  0
 12  2  1  0  0  0  0
 13  4  1  0  0  0  0
 15  2  1  6  0  0  0
 15 21  1  0  0  0  0
 15 17  1  0  0  0  0
 17  1  1  0  0  0  0
 18  4  1  0  0  0  0
 18 14  1  0  0  0  0
 19 20  1  6  0  0  0
 19  5  1  0  0  0  0
 21 19  1  0  0  0  0
 22 23  1  1  0  0  0
 22 24  1  0  0  0  0
 25 24  1  6  0  0  0
 25 28  1  0  0  0  0
 26 29  1  0  0  0  0
 27 29  1  0  0  0  0
 29 25  1  0  0  0  0
 29 28  1  0  0  0  0
 30 26  1  0  0  0  0
 31 27  1  0  0  0  0
 32 31  1  0  0  0  0
 32 30  1  0  0  0  0
M  END
>  <MODEL>
4

>  <REMARK>
 VINA RESULT:      -5.4      3.504      8.849
  Name = 
  3 active torsions:
  status: ('A' for Active; 'I' for Inactive)
    1  A    between atoms: N_2  and  C_3
    2  A    between atoms: N_2  and  C_15
    3  A    between atoms: C_14  and  C_15
                            x       y       z     vdW  Elec       q    Type
                         _______ _______ _______ _____ _____    ______ ____

>  <TORSDO>
F 3

$$$$
=
 OpenBabel11042421133D

 32 36  0  0  1  0  0  0  0  0999 V2000
  161.5770  204.5270  150.5170 C   0  0  0  0  0  2  0  0  0  0  0  0
  161.1990  206.5720  153.6040 C   0  0  0  0  0  2  0  0  0  0  0  0
  161.2350  209.1020  153.7460 C   0  0  2  0  0  3  0  0  0  0  0  0
  161.9500  208.0650  156.3290 C   0  0  0  0  0  2  0  0  0  0  0  0
  162.0080  207.5410  148.8220 C   0  0  0  0  0  2  0  0  0  0  0  0
  162.3820  206.0570  148.7200 C   0  0  1  0  0  3  0  0  0  0  0  0
  161.2390  205.1200  149.1540 C   0  0  1  0  0  3  0  0  0  0  0  0
  159.8080  204.4600  152.0540 O   0  0  0  0  0  0  0  0  0  0  0  0
  160.5190  209.6720  152.5110 C   0  0  2  0  0  3  0  0  0  0  0  0
  161.0340  204.0770  148.2460 O   0  0  0  0  0  1  0  0  0  0  0  0
  161.5210  210.0530  151.5180 N   0  0  0  0  0  2  0  0  0  0  0  0
  160.5590  207.8070  154.2420 C   0  0  2  0  0  3  0  0  0  0  0  0
  160.5840  207.6750  155.7680 C   0  0  0  0  0  2  0  0  0  0  0  0
  161.5070  210.1260  154.8550 C   0  0  0  0  0  2  0  0  0  0  0  0
  160.9280  206.5330  152.1070 C   0  0  2  0  0  3  0  0  0  0  0  0
  162.9050  205.7800  147.3190 C   0  0  0  0  0  1  0  0  0  0  0  0
  160.7250  205.1250  151.6000 C   0  0  0  0  0  0  0  0  0  0  0  0
  162.3380  209.5110  155.9860 C   0  0  0  0  0  2  0  0  0  0  0  0
  161.3420  207.9400  150.1390 C   0  0  2  0  0  3  0  0  0  0  0  0
  161.1620  209.4680  150.2220 C   0  0  0  0  0  2  0  0  0  0  0  0
  162.0050  207.3000  151.3510 C   0  0  0  0  0  2  0  0  0  0  0  0
  159.5380  210.8230  152.8180 C   0  0  1  0  0  3  0  0  0  0  0  0
  159.3120  211.0300  154.3120 C   0  0  0  0  0  1  0  0  0  0  0  0
  159.9410  212.0730  152.1660 N   0  0  0  0  0  2  0  0  0  0  0  0
  158.7650  212.8400  151.7530 C   0  0  1  0  0  3  0  0  0  0  0  0
  157.8970  214.1150  149.6810 C   0  0  0  0  0  2  0  0  0  0  0  0
  160.4680  213.7100  149.9300 C   0  0  0  0  0  2  0  0  0  0  0  0
  159.0330  214.3310  151.9450 C   0  0  0  0  0  2  0  0  0  0  0  0
  159.0770  213.7330  150.5620 C   0  0  0  0  0  0  0  0  0  0  0  0
  158.0430  213.4250  148.3260 C   0  0  0  0  0  2  0  0  0  0  0  0
  160.3770  213.0560  148.5530 C   0  0  0  0  0  2  0  0  0  0  0  0
  159.3530  213.7190  147.7450 N   0  0  0  0  0  2  0  0  0  0  0  0
  1 17  1  0  0  0  0
  3 12  1  0  0  0  0
  3 14  1  1  0  0  0
  6 16  1  6  0  0  0
  6  5  1  0  0  0  0
  6  7  1  0  0  0  0
  7 10  1  6  0  0  0
  7  1  1  0  0  0  0
  9 22  1  1  0  0  0
  9  3  1  0  0  0  0
 11  9  1  0  0  0  0
 12  2  1  6  0  0  0
 12 13  1  0  0  0  0
 13  4  1  0  0  0  0
 14 18  1  0  0  0  0
 15 21  1  6  0  0  0
 15  2  1  0  0  0  0
 17  8  2  0  0  0  0
 17 15  1  0  0  0  0
 18  4  1  0  0  0  0
 19  5  1  6  0  0  0
 19 20  1  0  0  0  0
 19 21  1  0  0  0  0
 20 11  1  0  0  0  0
 22 23  1  1  0  0  0
 24 22  1  0  0  0  0
 25 28  1  0  0  0  0
 25 24  1  1  0  0  0
 26 29  1  0  0  0  0
 27 29  1  0  0  0  0
 29 25  1  0  0  0  0
 29 28  1  0  0  0  0
 30 26  1  0  0  0  0
 31 27  1  0  0  0  0
 32 30  1  0  0  0  0
 32 31  1  0  0  0  0
M  END
>  <MODEL>
5

>  <REMARK>
 VINA RESULT:      -5.1      2.311      3.817
  Name = 
  3 active torsions:
  status: ('A' for Active; 'I' for Inactive)
    1  A    between atoms: N_2  and  C_3
    2  A    between atoms: N_2  and  C_15
    3  A    between atoms: C_14  and  C_15
                            x       y       z     vdW  Elec       q    Type
                         _______ _______ _______ _____ _____    ______ ____

>  <TORSDO>
F 3

$$$$
=
 OpenBabel11042421133D

 32 36  0  0  1  0  0  0  0  0999 V2000
  161.4700  205.2660  151.1660 C   0  0  0  0  0  2  0  0  0  0  0  0
  161.3570  207.3630  154.2390 C   0  0  0  0  0  2  0  0  0  0  0  0
  161.5220  209.8890  154.3430 C   0  0  2  0  0  3  0  0  0  0  0  0
  162.3250  208.8500  156.8990 C   0  0  0  0  0  2  0  0  0  0  0  0
  161.9530  208.2360  149.4080 C   0  0  0  0  0  2  0  0  0  0  0  0
  162.2480  206.7350  149.3060 C   0  0  1  0  0  3  0  0  0  0  0  0
  161.0870  205.8590  149.8150 C   0  0  1  0  0  3  0  0  0  0  0  0
  159.7850  205.3030  152.7960 O   0  0  0  0  0  0  0  0  0  0  0  0
  160.7680  210.4800  153.1400 C   0  0  2  0  0  3  0  0  0  0  0  0
  160.7850  204.8170  148.9330 O   0  0  0  0  0  1  0  0  0  0  0  0
  161.7320  210.8000  152.0890 N   0  0  0  0  0  2  0  0  0  0  0  0
  160.8130  208.6350  154.8930 C   0  0  2  0  0  3  0  0  0  0  0  0
  160.9140  208.5200  156.4170 C   0  0  0  0  0  2  0  0  0  0  0  0
  161.9020  210.9120  155.4210 C   0  0  0  0  0  2  0  0  0  0  0  0
  161.0040  207.3200  152.7590 C   0  0  2  0  0  3  0  0  0  0  0  0
  162.6820  206.4170  147.8830 C   0  0  0  0  0  1  0  0  0  0  0  0
  160.7080  205.9180  152.2840 C   0  0  0  0  0  0  0  0  0  0  0  0
  162.7630  210.2710  156.5150 C   0  0  0  0  0  2  0  0  0  0  0  0
  161.3780  208.6820  150.7520 C   0  0  2  0  0  3  0  0  0  0  0  0
  161.2760  210.2180  150.8230 C   0  0  0  0  0  2  0  0  0  0  0  0
  162.0750  208.0250  151.9360 C   0  0  0  0  0  2  0  0  0  0  0  0
  159.8610  211.6800  153.4820 C   0  0  1  0  0  3  0  0  0  0  0  0
  159.6820  212.6440  152.3140 C   0  0  0  0  0  1  0  0  0  0  0  0
  158.5640  211.2490  154.0160 N   0  0  0  0  0  2  0  0  0  0  0  0
  158.0360  212.2460  154.9490 C   0  0  1  0  0  3  0  0  0  0  0  0
  155.9510  212.6210  156.4250 C   0  0  0  0  0  2  0  0  0  0  0  0
  155.7820  210.9850  154.3920 C   0  0  0  0  0  2  0  0  0  0  0  0
  157.0750  213.1770  154.2140 C   0  0  0  0  0  2  0  0  0  0  0  0
  156.5320  212.1000  155.1190 C   0  0  0  0  0  0  0  0  0  0  0  0
  155.4660  211.4370  157.2610 C   0  0  0  0  0  2  0  0  0  0  0  0
  155.3140  209.9530  155.4160 C   0  0  0  0  0  2  0  0  0  0  0  0
  154.5510  210.6040  156.4800 N   0  0  0  0  0  2  0  0  0  0  0  0
  1 17  1  0  0  0  0
  3 12  1  0  0  0  0
  3 14  1  1  0  0  0
  6 16  1  6  0  0  0
  6  5  1  0  0  0  0
  6  7  1  0  0  0  0
  7 10  1  6  0  0  0
  7  1  1  0  0  0  0
  9 22  1  1  0  0  0
  9  3  1  0  0  0  0
 11  9  1  0  0  0  0
 12  2  1  6  0  0  0
 12 13  1  0  0  0  0
 13  4  1  0  0  0  0
 14 18  1  0  0  0  0
 15 21  1  6  0  0  0
 15  2  1  0  0  0  0
 17 15  1  0  0  0  0
 17  8  2  0  0  0  0
 18  4  1  0  0  0  0
 19  5  1  6  0  0  0
 19 20  1  0  0  0  0
 19 21  1  0  0  0  0
 20 11  1  0  0  0  0
 22 23  1  6  0  0  0
 22 24  1  0  0  0  0
 25 24  1  6  0  0  0
 25 29  1  0  0  0  0
 26 30  1  0  0  0  0
 27 29  1  0  0  0  0
 27 31  1  0  0  0  0
 28 25  1  0  0  0  0
 28 29  1  0  0  0  0
 29 26  1  0  0  0  0
 31 32  1  0  0  0  0
 32 30  1  0  0  0  0
M  END
>  <MODEL>
6

>  <REMARK>
 VINA RESULT:      -4.7      1.206      1.663
  Name = 
  3 active torsions:
  status: ('A' for Active; 'I' for Inactive)
    1  A    between atoms: N_2  and  C_3
    2  A    between atoms: N_2  and  C_15
    3  A    between atoms: C_14  and  C_15
                            x       y       z     vdW  Elec       q    Type
                         _______ _______ _______ _____ _____    ______ ____

>  <TORSDO>
F 3

$$$$
=
 OpenBabel11042421133D

 32 36  0  0  1  0  0  0  0  0999 V2000
  161.4430  204.7940  149.9090 C   0  0  0  0  0  2  0  0  0  0  0  0
  161.0870  206.8770  152.9720 C   0  0  0  0  0  2  0  0  0  0  0  0
  161.5490  209.3610  153.1640 C   0  0  2  0  0  3  0  0  0  0  0  0
  161.7790  208.2190  155.7910 C   0  0  0  0  0  2  0  0  0  0  0  0
  162.5810  207.6840  148.3280 C   0  0  0  0  0  2  0  0  0  0  0  0
  162.6980  206.1570  148.2390 C   0  0  1  0  0  3  0  0  0  0  0  0
  161.3680  205.4360  148.5280 C   0  0  1  0  0  3  0  0  0  0  0  0
  159.5300  205.0410  151.2400 O   0  0  0  0  0  0  0  0  0  0  0  0
  161.0850  210.0480  151.8680 C   0  0  2  0  0  3  0  0  0  0  0  0
  161.0880  204.4440  147.5840 O   0  0  0  0  0  1  0  0  0  0  0  0
  162.2420  210.2450  150.9980 N   0  0  0  0  0  2  0  0  0  0  0  0
  160.6060  208.2070  153.5590 C   0  0  2  0  0  3  0  0  0  0  0  0
  160.4370  208.0740  155.0750 C   0  0  0  0  0  2  0  0  0  0  0  0
  161.8700  210.3240  154.3150 C   0  0  0  0  0  2  0  0  0  0  0  0
  160.9820  206.8850  151.4540 C   0  0  2  0  0  3  0  0  0  0  0  0
  163.3190  205.7900  146.9000 C   0  0  0  0  0  1  0  0  0  0  0  0
  160.5940  205.5340  150.9020 C   0  0  0  0  0  0  0  0  0  0  0  0
  162.4490  209.5740  155.5190 C   0  0  0  0  0  2  0  0  0  0  0  0
  161.8520  208.1950  149.5690 C   0  0  2  0  0  3  0  0  0  0  0  0
  161.9340  209.7310  149.6610 C   0  0  0  0  0  2  0  0  0  0  0  0
  162.2540  207.4500  150.8360 C   0  0  0  0  0  2  0  0  0  0  0  0
  160.2920  211.3530  152.0860 C   0  0  1  0  0  3  0  0  0  0  0  0
  160.1070  212.1590  150.8040 C   0  0  0  0  0  1  0  0  0  0  0  0
  159.0060  211.1060  152.7460 N   0  0  0  0  0  2  0  0  0  0  0  0
  158.3540  212.3710  153.0910 C   0  0  1  0  0  3  0  0  0  0  0  0
  157.5840  213.6580  155.1930 C   0  0  0  0  0  2  0  0  0  0  0  0
  157.9180  211.0690  155.3480 C   0  0  0  0  0  2  0  0  0  0  0  0
  156.8580  212.1390  153.2890 C   0  0  0  0  0  2  0  0  0  0  0  0
  157.7550  212.3210  154.4880 C   0  0  0  0  0  0  0  0  0  0  0  0
  158.5640  213.7310  156.3630 C   0  0  0  0  0  2  0  0  0  0  0  0
  158.8670  211.3810  156.5030 C   0  0  0  0  0  2  0  0  0  0  0  0
  158.4070  212.5630  157.2310 N   0  0  0  0  0  2  0  0  0  0  0  0
  1 17  1  0  0  0  0
  3 12  1  0  0  0  0
  3 14  1  1  0  0  0
  6 16  1  6  0  0  0
  6  5  1  0  0  0  0
  6  7  1  0  0  0  0
  7 10  1  6  0  0  0
  7  1  1  0  0  0  0
  9 22  1  1  0  0  0
  9  3  1  0  0  0  0
 11  9  1  0  0  0  0
 12  2  1  1  0  0  0
 12 13  1  0  0  0  0
 13  4  1  0  0  0  0
 14 18  1  0  0  0  0
 15 21  1  6  0  0  0
 15  2  1  0  0  0  0
 17  8  2  0  0  0  0
 17 15  1  0  0  0  0
 18  4  1  0  0  0  0
 19  5  1  6  0  0  0
 19 20  1  0  0  0  0
 19 21  1  0  0  0  0
 20 11  1  0  0  0  0
 22 23  1  6  0  0  0
 22 24  1  0  0  0  0
 25 24  1  1  0  0  0
 25 28  1  0  0  0  0
 25 29  1  0  0  0  0
 26 30  1  0  0  0  0
 27 31  1  0  0  0  0
 28 29  1  0  0  0  0
 29 26  1  0  0  0  0
 29 27  1  0  0  0  0
 30 32  1  0  0  0  0
 31 32  1  0  0  0  0
M  END
>  <MODEL>
7

>  <REMARK>
 VINA RESULT:      -4.1      1.412      1.796
  Name = 
  3 active torsions:
  status: ('A' for Active; 'I' for Inactive)
    1  A    between atoms: N_2  and  C_3
    2  A    between atoms: N_2  and  C_15
    3  A    between atoms: C_14  and  C_15
                            x       y       z     vdW  Elec       q    Type
                         _______ _______ _______ _____ _____    ______ ____

>  <TORSDO>
F 3

$$$$
=
 OpenBabel11042421133D

 32 36  0  0  1  0  0  0  0  0999 V2000
  160.3100  210.1610  156.4400 C   0  0  0  0  0  2  0  0  0  0  0  0
  161.1910  207.5870  153.9000 C   0  0  0  0  0  2  0  0  0  0  0  0
  161.0750  207.8560  151.3830 C   0  0  2  0  0  3  0  0  0  0  0  0
  160.9190  205.0490  151.9760 C   0  0  0  0  0  2  0  0  0  0  0  0
  159.4300  212.2060  153.7590 C   0  0  0  0  0  2  0  0  0  0  0  0
  159.1080  211.9890  155.2420 C   0  0  1  0  0  3  0  0  0  0  0  0
  160.3520  211.6420  156.0820 C   0  0  1  0  0  3  0  0  0  0  0  0
  162.3440  209.0160  156.2290 O   0  0  0  0  0  0  0  0  0  0  0  0
  161.5130  209.2850  151.0220 C   0  0  2  0  0  3  0  0  0  0  0  0
  160.4210  212.3900  157.2610 O   0  0  0  0  0  1  0  0  0  0  0  0
  160.3230  210.1090  150.8240 N   0  0  0  0  0  2  0  0  0  0  0  0
  161.8890  207.2990  152.5690 C   0  0  2  0  0  3  0  0  0  0  0  0
  162.1660  205.7980  152.4420 C   0  0  0  0  0  2  0  0  0  0  0  0
  160.9790  206.8980  150.1890 C   0  0  0  0  0  2  0  0  0  0  0  0
  161.1690  209.0820  154.1880 C   0  0  2  0  0  3  0  0  0  0  0  0
  158.3350  213.1940  155.7570 C   0  0  0  0  0  1  0  0  0  0  0  0
  161.3290  209.3810  155.6590 C   0  0  0  0  0  0  0  0  0  0  0  0
  160.4100  205.5400  150.6120 C   0  0  0  0  0  2  0  0  0  0  0  0
  160.3220  211.1320  153.1370 C   0  0  2  0  0  3  0  0  0  0  0  0
  160.4490  211.3360  151.6160 C   0  0  0  0  0  2  0  0  0  0  0  0
  159.9330  209.7240  153.5700 C   0  0  0  0  0  2  0  0  0  0  0  0
  162.4850  209.3710  149.8270 C   0  0  1  0  0  3  0  0  0  0  0  0
  162.8200  208.0060  149.2320 C   0  0  0  0  0  1  0  0  0  0  0  0
  162.0020  210.2930  148.7950 N   0  0  0  0  0  2  0  0  0  0  0  0
  162.4870  211.6510  149.0500 C   0  0  1  0  0  3  0  0  0  0  0  0
  161.7670  214.0920  148.6130 C   0  0  0  0  0  2  0  0  0  0  0  0
  160.7800  212.1950  147.1080 C   0  0  0  0  0  2  0  0  0  0  0  0
  163.2290  212.1690  147.8210 C   0  0  0  0  0  2  0  0  0  0  0  0
  161.8320  212.6560  148.1150 C   0  0  0  0  0  0  0  0  0  0  0  0
  160.3110  214.4530  148.9020 C   0  0  0  0  0  2  0  0  0  0  0  0
  159.4150  212.7300  147.5370 C   0  0  0  0  0  2  0  0  0  0  0  0
  159.4770  214.1780  147.7310 N   0  0  0  0  0  2  0  0  0  0  0  0
  2 15  1  0  0  0  0
  3 14  1  6  0  0  0
  3 12  1  0  0  0  0
  4 13  1  0  0  0  0
  5  6  1  0  0  0  0
  6 16  1  1  0  0  0
  6  7  1  0  0  0  0
  7  1  1  0  0  0  0
  7 10  1  1  0  0  0
  9 22  1  6  0  0  0
  9  3  1  0  0  0  0
 11  9  1  0  0  0  0
 11 20  1  0  0  0  0
 12 13  1  6  0  0  0
 12  2  1  0  0  0  0
 14 18  1  0  0  0  0
 15 21  1  1  0  0  0
 15 17  1  0  0  0  0
 17  8  2  0  0  0  0
 17  1  1  0  0  0  0
 18  4  1  0  0  0  0
 19 20  1  6  0  0  0
 19 21  1  0  0  0  0
 19  5  1  0  0  0  0
 22 23  1  6  0  0  0
 24 22  1  0  0  0  0
 25 24  1  6  0  0  0
 26 30  1  0  0  0  0
 27 31  1  0  0  0  0
 27 29  1  0  0  0  0
 28 29  1  0  0  0  0
 28 25  1  0  0  0  0
 29 26  1  0  0  0  0
 29 25  1  0  0  0  0
 31 32  1  0  0  0  0
 32 30  1  0  0  0  0
M  END
>  <MODEL>
8

>  <REMARK>
 VINA RESULT:      -3.2      3.224      7.116
  Name = 
  3 active torsions:
  status: ('A' for Active; 'I' for Inactive)
    1  A    between atoms: N_2  and  C_3
    2  A    between atoms: N_2  and  C_15
    3  A    between atoms: C_14  and  C_15
                            x       y       z     vdW  Elec       q    Type
                         _______ _______ _______ _____ _____    ______ ____

>  <TORSDO>
F 3

$$$$
