=
 OpenBabel11042422333D

 60 68  0  0  1  0  0  0  0  0999 V2000
  160.6380  202.0450  150.3790 C   0  0  2  0  0  3  0  0  0  0  0  0
  161.7000  205.0220  149.4410 C   0  0  2  0  0  3  0  0  0  0  0  0
  161.6990  206.1060  153.1710 C   0  0  0  0  0  2  0  0  0  0  0  0
  161.0830  203.8560  148.6370 C   0  0  2  0  0  3  0  0  0  0  0  0
  161.5110  204.9190  150.9680 C   0  0  2  0  0  3  0  0  0  0  0  0
  160.6690  207.3200  149.8930 C   0  0  0  0  0  2  0  0  0  0  0  0
  161.0270  202.7500  151.6810 C   0  0  0  0  0  2  0  0  0  0  0  0
  161.2760  207.5130  153.5420 C   0  0  0  0  0  2  0  0  0  0  0  0
  161.5480  207.4760  151.1370 C   0  0  2  0  0  3  0  0  0  0  0  0
  161.3780  206.4320  148.8760 C   0  0  2  0  0  3  0  0  0  0  0  0
  162.0800  206.1420  151.6980 C   0  0  1  0  0  3  0  0  0  0  0  0
  160.0290  203.0280  149.3810 C   0  0  0  0  0  2  0  0  0  0  0  0
  162.1140  203.6900  151.4630 N   0  0  0  0  0  2  0  0  0  0  0  0
  160.7570  208.1210  152.2540 C   0  0  2  0  0  3  0  0  0  0  0  0
  160.6190  206.3840  147.6290 N   0  0  0  0  0  2  0  0  0  0  0  0
  161.2680  206.2370  146.3630 C   0  0  0  0  0  0  0  0  0  0  0  0
  162.5330  206.2490  146.2880 O   0  0  0  0  0  0  0  0  0  0  0  0
  161.3270  205.6890  142.9940 C   0  0  0  0  0  0  0  0  0  0  0  0
  160.4410  206.1180  145.1250 C   0  0  2  0  0  3  0  0  0  0  0  0
  160.3440  204.7280  144.7070 N   0  0  0  0  0  2  0  0  0  0  0  0
  161.1310  206.8150  143.9490 C   0  0  0  0  0  2  0  0  0  0  0  0
  160.8880  204.5650  143.4340 N   0  0  0  0  0  0  0  0  0  0  0  0
  161.9310  205.8110  141.7470 O   0  0  0  0  0  0  0  0  0  0  0  0
  162.3220  207.0110  141.2950 O   0  0  0  0  0  0  0  0  0  0  0  0
  162.1520  208.6210  138.3300 C   0  0  2  0  0  3  0  0  0  0  0  0
  162.0550  207.2150  137.9560 N   0  0  0  0  0  2  0  0  0  0  0  0
  161.5470  207.2340  140.1540 C   0  0  2  0  0  3  0  0  0  0  0  0
  161.5480  209.6080  140.4120 O   0  0  0  0  0  0  0  0  0  0  0  0
  162.0460  206.4370  139.0980 O   0  0  0  0  0  0  0  0  0  0  0  0
  161.7030  208.6200  139.7110 C   0  0  0  0  0  0  0  0  0  0  0  0
  160.0000  209.0050  137.1140 O   0  0  0  0  0  1  0  0  0  0  0  0
  161.6510  210.5960  137.0410 O   0  0  0  0  0  0  0  0  0  0  0  0
  161.2630  209.4690  137.4620 C   0  0  0  0  0  0  0  0  0  0  0  0
  159.6110  200.9680  150.6760 C   0  0  0  0  0  2  0  0  0  0  0  0
  158.4550  201.0510  149.6990 C   0  0  0  0  0  1  0  0  0  0  0  0
  162.0850  203.0410  148.1080 O   0  0  0  0  0  0  0  0  0  0  0  0
  161.7280  202.8600  146.7690 C   0  0  0  0  0  2  0  0  0  0  0  0
  160.8420  201.2890  146.5870 P   0  0  0  0  0  0  0  0  0  0  0  0
  161.4580  200.1550  147.6810 O   0  0  0  0  0  1  0  0  0  0  0  0
  159.3740  201.5080  146.8700 O   0  0  0  0  0  1  0  0  0  0  0  0
  161.0350  200.7030  145.0070 O   0  0  0  0  0  0  0  0  0  0  0  0
  160.8580  209.6440  152.2460 C   0  0  0  0  0  2  0  0  0  0  0  0
  159.5180  211.7350  152.9220 C   0  0  1  0  0  3  0  0  0  0  0  0
  159.9390  210.3050  153.2760 C   0  0  2  0  0  3  0  0  0  0  0  0
  160.6590  211.4900  153.8900 C   0  0  0  0  0  2  0  0  0  0  0  0
  159.3680  213.1210  150.8040 C   0  0  0  0  0  0  0  0  0  0  0  0
  160.0420  212.1680  151.6270 N   0  0  0  0  0  2  0  0  0  0  0  0
  158.2570  213.6030  151.1680 O   0  0  0  0  0  0  0  0  0  0  0  0
  161.3740  212.1080  148.3330 C   0  0  0  0  0  2  0  0  0  0  0  0
  158.7150  214.3310  147.6460 N   0  0  0  0  0  2  0  0  0  0  0  0
  160.5550  213.3840  146.3690 C   0  0  1  0  0  3  0  0  0  0  0  0
  160.2960  213.4930  143.9720 O   0  0  0  0  0  0  0  0  0  0  0  0
  160.1790  212.4090  147.4560 C   0  0  2  0  0  3  0  0  0  0  0  0
  160.6910  212.6600  145.0280 C   0  0  0  0  0  2  0  0  0  0  0  0
  161.3780  213.0520  149.4380 N   0  0  0  0  0  2  0  0  0  0  0  0
  158.9050  213.5360  144.0620 C   0  0  0  0  0  2  0  0  0  0  0  0
  159.2210  213.1510  148.3450 C   0  0  1  0  0  3  0  0  0  0  0  0
  160.0250  213.5850  149.5510 C   0  0  1  0  0  3  0  0  0  0  0  0
  158.4720  214.4500  145.2070 C   0  0  0  0  0  2  0  0  0  0  0  0
  159.4550  214.4530  146.3940 C   0  0  1  0  0  3  0  0  0  0  0  0
  1 34  1  1  0  0  0
  1  7  1  0  0  0  0
  2  5  1  0  0  0  0
  3  8  1  0  0  0  0
  4 12  1  0  0  0  0
  4  2  1  0  0  0  0
  5 13  1  0  0  0  0
  5 11  1  0  0  0  0
  6  9  1  0  0  0  0
  9 11  1  0  0  0  0
  9 14  1  0  0  0  0
 10  2  1  0  0  0  0
 10  6  1  0  0  0  0
 11  3  1  0  0  0  0
 12  1  1  0  0  0  0
 13  7  1  0  0  0  0
 14  8  1  0  0  0  0
 15 10  1  0  0  0  0
 16 15  1  0  0  0  0
 17 16  2  0  0  0  0
 18 22  2  0  0  0  0
 18 21  1  0  0  0  0
 19 16  1  0  0  0  0
 20 19  1  0  0  0  0
 21 19  1  0  0  0  0
 22 20  1  0  0  0  0
 23 18  1  0  0  0  0
 24 23  1  0  0  0  0
 25 30  1  0  0  0  0
 26 25  1  0  0  0  0
 26 29  1  0  0  0  0
 27 24  1  0  0  0  0
 29 27  1  0  0  0  0
 30 27  1  0  0  0  0
 30 28  2  0  0  0  0
 31 33  1  0  0  0  0
 32 33  2  0  0  0  0
 33 25  1  0  0  0  0
 35 34  1  0  0  0  0
 36  4  1  0  0  0  0
 37 36  1  0  0  0  0
 38 37  1  0  0  0  0
 38 40  1  0  0  0  0
 38 39  1  0  0  0  0
 41 38  2  0  0  0  0
 42 14  1  0  0  0  0
 42 44  1  0  0  0  0
 43 44  1  0  0  0  0
 43 45  1  0  0  0  0
 44 45  1  0  0  0  0
 46 48  2  0  0  0  0
 46 47  1  0  0  0  0
 47 43  1  0  0  0  0
 49 55  1  0  0  0  0
 50 57  1  0  0  0  0
 51 60  1  0  0  0  0
 51 53  1  0  0  0  0
 52 56  1  0  0  0  0
 52 54  1  0  0  0  0
 53 49  1  0  0  0  0
 53 57  1  0  0  0  0
 54 51  1  0  0  0  0
 55 58  1  0  0  0  0
 56 59  1  0  0  0  0
 57 58  1  0  0  0  0
 58 46  1  0  0  0  0
 59 60  1  0  0  0  0
 60 50  1  0  0  0  0
M  END
>  <MODEL>
1

>  <REMARK>
 VINA RESULT:      -4.4      0.000      0.000
  Name = 
  14 active torsions:
  status: ('A' for Active; 'I' for Inactive)
    1  A    between atoms: C_1  and  C_44
    2  A    between atoms: P_2  and  C_9
    3  A    between atoms: C_5  and  N_43
    4  A    between atoms: C_7  and  C_22
    5  A    between atoms: N_8  and  C_48
    6  A    between atoms: C_9  and  O_35
    7  A    between atoms: C_10  and  C_57
    8  A    between atoms: C_13  and  O_46
    9  A    between atoms: C_16  and  C_33
   10  A    between atoms: C_18  and  C_27
   11  A    between atoms: C_19  and  O_35
   12  A    between atoms: O_23  and  C_28
   13  A    between atoms: O_23  and  O_46
   14  A    between atoms: C_56  and  C_57
                            x       y       z     vdW  Elec       q    Type
                         _______ _______ _______ _____ _____    ______ ____

>  <TORSDO>
F 14

$$$$
=
 OpenBabel11042422333D

 60 68  0  0  1  0  0  0  0  0999 V2000
  158.3270  212.5460  153.0240 C   0  0  2  0  0  3  0  0  0  0  0  0
  160.9090  212.1650  151.0100 C   0  0  2  0  0  3  0  0  0  0  0  0
  159.1230  214.4510  148.4260 C   0  0  0  0  0  2  0  0  0  0  0  0
  160.4750  211.3900  152.2730 C   0  0  2  0  0  3  0  0  0  0  0  0
  159.8120  213.0610  150.3990 C   0  0  2  0  0  3  0  0  0  0  0  0
  160.9630  211.3100  148.5980 C   0  0  0  0  0  2  0  0  0  0  0  0
  158.1050  213.5690  151.9070 C   0  0  0  0  0  2  0  0  0  0  0  0
  159.2370  214.1420  146.9470 C   0  0  0  0  0  2  0  0  0  0  0  0
  160.8590  212.7470  148.0800 C   0  0  2  0  0  3  0  0  0  0  0  0
  161.6580  211.3060  149.9550 C   0  0  2  0  0  3  0  0  0  0  0  0
  160.2850  213.7430  149.1080 C   0  0  1  0  0  3  0  0  0  0  0  0
  158.9610  211.2660  152.4820 C   0  0  0  0  0  2  0  0  0  0  0  0
  159.3710  214.0450  151.3760 N   0  0  0  0  0  2  0  0  0  0  0  0
  159.9420  212.8020  146.8780 C   0  0  2  0  0  3  0  0  0  0  0  0
  161.8900  209.9350  150.4020 N   0  0  0  0  0  2  0  0  0  0  0  0
  162.4000  208.9350  149.5160 C   0  0  0  0  0  0  0  0  0  0  0  0
  162.5650  209.1940  148.2870 O   0  0  0  0  0  0  0  0  0  0  0  0
  161.1230  205.8220  150.0920 C   0  0  0  0  0  0  0  0  0  0  0  0
  162.6910  207.5680  150.0440 C   0  0  2  0  0  3  0  0  0  0  0  0
  162.8240  206.6160  148.9520 N   0  0  0  0  0  2  0  0  0  0  0  0
  161.5040  207.0430  150.8570 C   0  0  0  0  0  2  0  0  0  0  0  0
  161.8600  205.6150  149.0610 N   0  0  0  0  0  0  0  0  0  0  0  0
  160.0720  204.9770  150.4340 O   0  0  0  0  0  0  0  0  0  0  0  0
  160.3030  203.6890  150.7250 O   0  0  0  0  0  0  0  0  0  0  0  0
  160.2880  201.7320  147.9710 C   0  0  2  0  0  3  0  0  0  0  0  0
  160.6270  203.0500  147.4460 N   0  0  0  0  0  2  0  0  0  0  0  0
  161.0620  203.2100  149.6540 C   0  0  2  0  0  3  0  0  0  0  0  0
  160.6610  200.9150  150.1770 O   0  0  0  0  0  0  0  0  0  0  0  0
  160.7320  203.9460  148.4930 O   0  0  0  0  0  0  0  0  0  0  0  0
  160.6920  201.8250  149.3630 C   0  0  0  0  0  0  0  0  0  0  0  0
  161.8250  199.7590  147.9710 O   0  0  0  0  0  1  0  0  0  0  0  0
  160.9930  200.5560  145.9880 O   0  0  0  0  0  0  0  0  0  0  0  0
  161.0480  200.6550  147.2460 C   0  0  0  0  0  0  0  0  0  0  0  0
  156.9930  212.1890  153.6530 C   0  0  0  0  0  2  0  0  0  0  0  0
  155.9510  213.2400  153.3220 C   0  0  0  0  0  1  0  0  0  0  0  0
  161.1010  211.9110  153.4070 O   0  0  0  0  0  0  0  0  0  0  0  0
  161.3770  210.7970  154.2050 C   0  0  0  0  0  2  0  0  0  0  0  0
  160.4850  210.9430  155.7770 P   0  0  0  0  0  0  0  0  0  0  0  0
  160.2110  212.5750  156.1280 O   0  0  0  0  0  1  0  0  0  0  0  0
  159.1590  210.2280  155.6670 O   0  0  0  0  0  0  0  0  0  0  0  0
  161.4030  210.2500  157.0220 O   0  0  0  0  0  1  0  0  0  0  0  0
  160.6840  212.5990  145.5600 C   0  0  0  0  0  2  0  0  0  0  0  0
  161.7470  213.9200  143.6230 C   0  0  1  0  0  3  0  0  0  0  0  0
  161.4740  213.8370  145.1290 C   0  0  2  0  0  3  0  0  0  0  0  0
  162.8130  213.3970  144.5670 C   0  0  0  0  0  2  0  0  0  0  0  0
  160.2760  213.0140  141.7670 C   0  0  0  0  0  0  0  0  0  0  0  0
  161.1440  212.8120  142.8840 N   0  0  0  0  0  2  0  0  0  0  0  0
  159.9740  214.1860  141.4000 O   0  0  0  0  0  0  0  0  0  0  0  0
  159.0940  212.0830  138.7850 C   0  0  0  0  0  2  0  0  0  0  0  0
  161.2420  209.9280  140.5810 N   0  0  0  0  0  2  0  0  0  0  0  0
  159.9660  209.7760  138.5170 C   0  0  1  0  0  3  0  0  0  0  0  0
  160.6630  208.0210  137.0130 O   0  0  0  0  0  0  0  0  0  0  0  0
  160.3360  211.2190  138.7420 C   0  0  2  0  0  3  0  0  0  0  0  0
  160.2730  209.3650  137.0750 C   0  0  0  0  0  2  0  0  0  0  0  0
  158.6500  212.1750  140.1660 N   0  0  0  0  0  2  0  0  0  0  0  0
  161.9590  208.0090  137.5280 C   0  0  0  0  0  2  0  0  0  0  0  0
  160.8980  211.2760  140.1350 C   0  0  1  0  0  3  0  0  0  0  0  0
  159.7910  211.8290  141.0060 C   0  0  1  0  0  3  0  0  0  0  0  0
  161.9300  208.1370  139.0500 C   0  0  0  0  0  2  0  0  0  0  0  0
  160.7580  208.9910  139.5710 C   0  0  1  0  0  3  0  0  0  0  0  0
  1 34  1  6  0  0  0
  2  4  1  0  0  0  0
  3 11  1  0  0  0  0
  4 12  1  0  0  0  0
  4 36  1  0  0  0  0
  5  2  1  0  0  0  0
  5 13  1  0  0  0  0
  6 10  1  0  0  0  0
  7  1  1  0  0  0  0
  8  3  1  0  0  0  0
  9  6  1  0  0  0  0
  9 11  1  0  0  0  0
 10 15  1  0  0  0  0
 10  2  1  0  0  0  0
 11  5  1  0  0  0  0
 12  1  1  0  0  0  0
 13  7  1  0  0  0  0
 14  8  1  0  0  0  0
 14  9  1  0  0  0  0
 16 19  1  0  0  0  0
 16 15  1  0  0  0  0
 17 16  2  0  0  0  0
 18 23  1  0  0  0  0
 18 21  1  0  0  0  0
 19 21  1  0  0  0  0
 20 22  1  0  0  0  0
 20 19  1  0  0  0  0
 22 18  2  0  0  0  0
 23 24  1  0  0  0  0
 25 30  1  0  0  0  0
 26 25  1  0  0  0  0
 26 29  1  0  0  0  0
 27 24  1  0  0  0  0
 29 27  1  0  0  0  0
 30 27  1  0  0  0  0
 30 28  2  0  0  0  0
 32 33  2  0  0  0  0
 33 31  1  0  0  0  0
 33 25  1  0  0  0  0
 35 34  1  0  0  0  0
 36 37  1  0  0  0  0
 37 38  1  0  0  0  0
 38 39  1  0  0  0  0
 38 41  1  0  0  0  0
 40 38  2  0  0  0  0
 42 14  1  0  0  0  0
 43 45  1  0  0  0  0
 43 44  1  0  0  0  0
 44 42  1  0  0  0  0
 45 44  1  0  0  0  0
 46 47  1  0  0  0  0
 47 43  1  0  0  0  0
 48 46  2  0  0  0  0
 49 55  1  0  0  0  0
 51 53  1  0  0  0  0
 51 60  1  0  0  0  0
 52 54  1  0  0  0  0
 52 56  1  0  0  0  0
 53 49  1  0  0  0  0
 53 57  1  0  0  0  0
 54 51  1  0  0  0  0
 55 58  1  0  0  0  0
 56 59  1  0  0  0  0
 57 50  1  0  0  0  0
 57 58  1  0  0  0  0
 58 46  1  0  0  0  0
 59 60  1  0  0  0  0
 60 50  1  0  0  0  0
M  END
>  <MODEL>
2

>  <REMARK>
 VINA RESULT:      -3.3      3.213      9.721
  Name = 
  14 active torsions:
  status: ('A' for Active; 'I' for Inactive)
    1  A    between atoms: C_1  and  C_44
    2  A    between atoms: P_2  and  C_9
    3  A    between atoms: C_5  and  N_43
    4  A    between atoms: C_7  and  C_22
    5  A    between atoms: N_8  and  C_48
    6  A    between atoms: C_9  and  O_35
    7  A    between atoms: C_10  and  C_57
    8  A    between atoms: C_13  and  O_46
    9  A    between atoms: C_16  and  C_33
   10  A    between atoms: C_18  and  C_27
   11  A    between atoms: C_19  and  O_35
   12  A    between atoms: O_23  and  C_28
   13  A    between atoms: O_23  and  O_46
   14  A    between atoms: C_56  and  C_57
                            x       y       z     vdW  Elec       q    Type
                         _______ _______ _______ _____ _____    ______ ____

>  <TORSDO>
F 14

$$$$
=
 OpenBabel11042422333D

 60 68  0  0  1  0  0  0  0  0999 V2000
  160.8030  204.8820  149.0890 C   0  0  2  0  0  3  0  0  0  0  0  0
  161.9650  207.8030  150.0820 C   0  0  2  0  0  3  0  0  0  0  0  0
  161.6810  206.5730  153.7550 C   0  0  0  0  0  2  0  0  0  0  0  0
  161.4020  207.3350  148.7210 C   0  0  2  0  0  3  0  0  0  0  0  0
  161.6550  206.8600  151.2620 C   0  0  2  0  0  3  0  0  0  0  0  0
  160.9250  209.4870  151.7020 C   0  0  0  0  0  2  0  0  0  0  0  0
  161.0960  204.6990  150.5800 C   0  0  0  0  0  2  0  0  0  0  0  0
  161.2440  207.5390  154.8370 C   0  0  0  0  0  2  0  0  0  0  0  0
  161.7040  208.8620  152.8620 C   0  0  2  0  0  3  0  0  0  0  0  0
  161.7020  209.2980  150.4050 C   0  0  2  0  0  3  0  0  0  0  0  0
  162.1780  207.4190  152.5920 C   0  0  1  0  0  3  0  0  0  0  0  0
  160.2850  206.2880  148.7960 C   0  0  0  0  0  2  0  0  0  0  0  0
  162.2050  205.5380  151.0020 N   0  0  0  0  0  2  0  0  0  0  0  0
  160.8340  208.7980  154.0990 C   0  0  2  0  0  3  0  0  0  0  0  0
  161.0440  210.0080  149.3110 N   0  0  0  0  0  2  0  0  0  0  0  0
  161.0840  211.4340  149.2130 C   0  0  0  0  0  0  0  0  0  0  0  0
  161.6090  212.1240  150.1360 O   0  0  0  0  0  0  0  0  0  0  0  0
  161.6400  212.7260  146.1020 C   0  0  0  0  0  0  0  0  0  0  0  0
  160.4590  212.1050  148.0330 C   0  0  2  0  0  3  0  0  0  0  0  0
  160.3250  211.1720  146.9260 N   0  0  0  0  0  2  0  0  0  0  0  0
  161.3790  213.2020  147.4900 C   0  0  0  0  0  2  0  0  0  0  0  0
  161.0520  211.6190  145.8240 N   0  0  0  0  0  0  0  0  0  0  0  0
  162.4440  213.3910  145.1810 O   0  0  0  0  0  0  0  0  0  0  0  0
  161.9440  213.7800  144.0000 O   0  0  0  0  0  0  0  0  0  0  0  0
  161.6800  212.6110  140.8410 C   0  0  2  0  0  3  0  0  0  0  0  0
  163.0770  213.0150  140.9350 N   0  0  0  0  0  2  0  0  0  0  0  0
  162.4140  212.8350  143.0830 C   0  0  2  0  0  3  0  0  0  0  0  0
  160.2430  211.9550  142.6230 O   0  0  0  0  0  0  0  0  0  0  0  0
  163.3410  213.4590  142.2170 O   0  0  0  0  0  0  0  0  0  0  0  0
  161.3150  212.3840  142.2280 C   0  0  0  0  0  0  0  0  0  0  0  0
  160.3140  211.0580  139.4350 O   0  0  0  0  0  0  0  0  0  0  0  0
  162.5150  210.5720  139.8620 O   0  0  0  0  0  1  0  0  0  0  0  0
  161.5380  211.3570  140.0220 C   0  0  0  0  0  0  0  0  0  0  0  0
  159.7460  203.8820  148.6560 C   0  0  0  0  0  2  0  0  0  0  0  0
  160.0650  202.5020  149.1980 C   0  0  0  0  0  1  0  0  0  0  0  0
  162.4350  206.9130  147.8830 O   0  0  0  0  0  0  0  0  0  0  0  0
  161.8640  206.8720  146.6080 C   0  0  0  0  0  2  0  0  0  0  0  0
  162.4370  205.3890  145.7360 P   0  0  0  0  0  0  0  0  0  0  0  0
  161.1250  204.3640  145.4320 O   0  0  0  0  0  1  0  0  0  0  0  0
  163.0680  205.7920  144.4240 O   0  0  0  0  0  0  0  0  0  0  0  0
  163.5770  204.5700  146.6880 O   0  0  0  0  0  1  0  0  0  0  0  0
  160.9510  210.0480  154.9670 C   0  0  0  0  0  2  0  0  0  0  0  0
  159.6980  210.6610  157.1310 C   0  0  1  0  0  3  0  0  0  0  0  0
  160.7360  209.7590  156.4540 C   0  0  2  0  0  3  0  0  0  0  0  0
  161.1780  210.9650  157.2610 C   0  0  0  0  0  2  0  0  0  0  0  0
  159.2220  213.0100  156.3050 C   0  0  0  0  0  0  0  0  0  0  0  0
  159.0740  211.5940  156.1940 N   0  0  0  0  0  2  0  0  0  0  0  0
  159.8860  213.5080  157.2590 O   0  0  0  0  0  0  0  0  0  0  0  0
  159.3860  213.6790  153.0360 C   0  0  0  0  0  2  0  0  0  0  0  0
  156.2740  213.7950  154.7050 N   0  0  0  0  0  2  0  0  0  0  0  0
  157.0580  214.3140  152.4630 C   0  0  1  0  0  3  0  0  0  0  0  0
  155.3320  214.4290  150.7800 O   0  0  0  0  0  0  0  0  0  0  0  0
  157.9400  213.2350  153.0360 C   0  0  2  0  0  3  0  0  0  0  0  0
  156.6190  213.9450  151.0430 C   0  0  0  0  0  2  0  0  0  0  0  0
  159.6650  214.3250  154.3080 N   0  0  0  0  0  2  0  0  0  0  0  0
  154.4860  213.5860  151.4990 C   0  0  0  0  0  2  0  0  0  0  0  0
  157.5620  213.1400  154.4880 C   0  0  1  0  0  3  0  0  0  0  0  0
  158.6400  213.8820  155.2470 C   0  0  1  0  0  3  0  0  0  0  0  0
  154.5270  213.9320  152.9870 C   0  0  0  0  0  2  0  0  0  0  0  0
  155.8980  214.4530  153.4580 C   0  0  1  0  0  3  0  0  0  0  0  0
  1 34  1  1  0  0  0
  1  7  1  0  0  0  0
  2 10  1  0  0  0  0
  2  5  1  0  0  0  0
  3  8  1  0  0  0  0
  4 12  1  0  0  0  0
  4  2  1  0  0  0  0
  5 11  1  0  0  0  0
  6  9  1  0  0  0  0
  7 13  1  0  0  0  0
  9 14  1  0  0  0  0
 10  6  1  0  0  0  0
 11  9  1  0  0  0  0
 11  3  1  0  0  0  0
 12  1  1  0  0  0  0
 13  5  1  0  0  0  0
 14  8  1  0  0  0  0
 14 42  1  0  0  0  0
 15 10  1  0  0  0  0
 16 15  1  0  0  0  0
 16 17  2  0  0  0  0
 18 21  1  0  0  0  0
 19 16  1  0  0  0  0
 20 19  1  0  0  0  0
 21 19  1  0  0  0  0
 22 18  2  0  0  0  0
 22 20  1  0  0  0  0
 23 18  1  0  0  0  0
 24 23  1  0  0  0  0
 25 26  1  0  0  0  0
 25 30  1  0  0  0  0
 26 29  1  0  0  0  0
 27 24  1  0  0  0  0
 29 27  1  0  0  0  0
 30 28  2  0  0  0  0
 30 27  1  0  0  0  0
 31 33  2  0  0  0  0
 32 33  1  0  0  0  0
 33 25  1  0  0  0  0
 34 35  1  0  0  0  0
 36  4  1  0  0  0  0
 37 36  1  0  0  0  0
 38 37  1  0  0  0  0
 38 41  1  0  0  0  0
 39 38  1  0  0  0  0
 40 38  2  0  0  0  0
 42 44  1  0  0  0  0
 43 45  1  0  0  0  0
 44 43  1  0  0  0  0
 44 45  1  0  0  0  0
 46 48  2  0  0  0  0
 47 46  1  0  0  0  0
 47 43  1  0  0  0  0
 49 55  1  0  0  0  0
 51 53  1  0  0  0  0
 51 60  1  0  0  0  0
 52 54  1  0  0  0  0
 52 56  1  0  0  0  0
 53 49  1  0  0  0  0
 53 57  1  0  0  0  0
 54 51  1  0  0  0  0
 55 58  1  0  0  0  0
 56 59  1  0  0  0  0
 57 50  1  0  0  0  0
 57 58  1  0  0  0  0
 58 46  1  0  0  0  0
 59 60  1  0  0  0  0
 60 50  1  0  0  0  0
M  END
>  <MODEL>
3

>  <REMARK>
 VINA RESULT:      -2.1      2.924      5.336
  Name = 
  14 active torsions:
  status: ('A' for Active; 'I' for Inactive)
    1  A    between atoms: C_1  and  C_44
    2  A    between atoms: P_2  and  C_9
    3  A    between atoms: C_5  and  N_43
    4  A    between atoms: C_7  and  C_22
    5  A    between atoms: N_8  and  C_48
    6  A    between atoms: C_9  and  O_35
    7  A    between atoms: C_10  and  C_57
    8  A    between atoms: C_13  and  O_46
    9  A    between atoms: C_16  and  C_33
   10  A    between atoms: C_18  and  C_27
   11  A    between atoms: C_19  and  O_35
   12  A    between atoms: O_23  and  C_28
   13  A    between atoms: O_23  and  O_46
   14  A    between atoms: C_56  and  C_57
                            x       y       z     vdW  Elec       q    Type
                         _______ _______ _______ _____ _____    ______ ____

>  <TORSDO>
F 14

$$$$
