=
 OpenBabel11052410133D

 25 27  0  0  1  0  0  0  0  0999 V2000
  162.0530  205.5580  147.2520 C   0  0  0  0  0  0  0  0  0  0  0  0
  160.8660  206.0620  149.2120 C   0  0  1  0  0  3  0  0  0  0  0  0
  160.6200  207.1330  148.1370 C   0  0  0  0  0  2  0  0  0  0  0  0
  162.7970  205.0110  146.3960 O   0  0  0  0  0  0  0  0  0  0  0  0
  161.8900  205.0760  148.6410 C   0  0  1  0  0  3  0  0  0  0  0  0
  161.3280  206.6980  146.9900 O   0  0  0  0  0  0  0  0  0  0  0  0
  160.4940  209.5120  153.6180 O   0  0  0  0  0  1  0  0  0  0  0  0
  161.9710  210.0950  151.4690 O   0  0  0  0  0  1  0  0  0  0  0  0
  160.4240  207.0230  154.8450 C   0  0  0  0  0  1  0  0  0  0  0  0
  161.3900  207.9950  150.5700 C   0  0  0  0  0  3  0  0  0  0  0  0
  161.9420  208.7280  151.7460 C   0  0  2  0  0  3  0  0  0  0  0  0
  161.3500  206.6650  150.4920 C   0  0  0  0  0  0  0  0  0  0  0  0
  161.8030  205.7780  151.5910 C   0  0  0  0  0  3  0  0  0  0  0  0
  161.0880  207.2220  153.5250 C   0  0  0  0  0  0  0  0  0  0  0  0
  161.6920  206.0250  152.9030 C   0  0  0  0  0  3  0  0  0  0  0  0
  161.1460  208.4540  152.9880 C   0  0  0  0  0  0  0  0  0  0  0  0
  160.4470  201.8600  149.9200 C   0  0  0  0  0  3  0  0  0  0  0  0
  161.3260  202.9220  147.5140 C   0  0  0  0  0  3  0  0  0  0  0  0
  161.3540  203.6800  148.6860 C   0  0  0  0  0  0  0  0  0  0  0  0
  160.9190  203.1340  149.8570 N   0  0  0  0  0  0  0  0  0  0  0  0
  160.8410  201.6130  147.5550 C   0  0  0  0  0  0  0  0  0  0  0  0
  160.4010  201.0730  148.7660 C   0  0  0  0  0  3  0  0  0  0  0  0
  160.8210  200.7840  146.3180 C   0  0  0  0  0  2  0  0  0  0  0  0
  161.5310  199.4660  146.5610 C   0  0  0  0  0  2  0  0  0  0  0  0
  161.2820  198.5360  145.3930 C   0  0  0  0  0  1  0  0  0  0  0  0
  1  5  1  0  0  0  0
  2 12  1  1  0  0  0
  3  2  1  0  0  0  0
  4  1  2  0  0  0  0
  5 19  1  6  0  0  0
  5  2  1  0  0  0  0
  6  1  1  0  0  0  0
  6  3  1  0  0  0  0
 10 11  1  0  0  0  0
 11  8  1  6  0  0  0
 11 16  1  0  0  0  0
 12 10  2  0  0  0  0
 12 13  1  0  0  0  0
 13 15  2  0  0  0  0
 14  9  1  0  0  0  0
 15 14  1  0  0  0  0
 16 14  2  0  0  0  0
 16  7  1  0  0  0  0
 18 21  2  0  0  0  0
 18 19  1  0  0  0  0
 19 20  2  0  0  0  0
 20 17  1  0  0  0  0
 21 22  1  0  0  0  0
 22 17  2  0  0  0  0
 23 24  1  0  0  0  0
 23 21  1  0  0  0  0
 25 24  1  0  0  0  0
M  END
>  <MODEL>
1

>  <REMARK>
 VINA RESULT:      -9.2      0.000      0.000
  Name = 
  4 active torsions:
  status: ('A' for Active; 'I' for Inactive)
    1  A    between atoms: C_4  and  C_14
    2  A    between atoms: C_6  and  C_24
    3  A    between atoms: C_7  and  C_17
    4  A    between atoms: C_21  and  C_24
                            x       y       z     vdW  Elec       q    Type
                         _______ _______ _______ _____ _____    ______ ____

>  <TORSDO>
F 4

$$$$
=
 OpenBabel11052410133D

 25 27  0  0  1  0  0  0  0  0999 V2000
  161.8460  205.2710  145.9230 C   0  0  0  0  0  0  0  0  0  0  0  0
  160.8710  205.8960  147.9640 C   0  0  1  0  0  3  0  0  0  0  0  0
  160.3960  206.8180  146.8290 C   0  0  0  0  0  2  0  0  0  0  0  0
  162.5250  204.6910  145.0350 O   0  0  0  0  0  0  0  0  0  0  0  0
  161.9020  204.9350  147.3620 C   0  0  1  0  0  3  0  0  0  0  0  0
  160.9920  206.3140  145.6470 O   0  0  0  0  0  0  0  0  0  0  0  0
  160.8100  209.9080  151.8820 O   0  0  0  0  0  1  0  0  0  0  0  0
  162.0710  210.2130  149.5460 O   0  0  0  0  0  1  0  0  0  0  0  0
  160.9160  207.6080  153.4330 C   0  0  0  0  0  1  0  0  0  0  0  0
  161.4660  208.0030  148.9950 C   0  0  0  0  0  3  0  0  0  0  0  0
  162.1030  208.8960  150.0050 C   0  0  2  0  0  3  0  0  0  0  0  0
  161.4530  206.6730  149.1010 C   0  0  0  0  0  0  0  0  0  0  0  0
  162.0260  205.9510  150.2610 C   0  0  0  0  0  3  0  0  0  0  0  0
  161.4530  207.6350  152.0430 C   0  0  0  0  0  0  0  0  0  0  0  0
  162.0280  206.3720  151.5330 C   0  0  0  0  0  3  0  0  0  0  0  0
  161.4300  208.7820  151.3420 C   0  0  0  0  0  0  0  0  0  0  0  0
  160.8820  201.3700  146.8040 C   0  0  0  0  0  3  0  0  0  0  0  0
  161.3610  203.0760  148.9370 C   0  0  0  0  0  3  0  0  0  0  0  0
  161.5060  203.5150  147.6190 C   0  0  0  0  0  0  0  0  0  0  0  0
  161.2620  202.6580  146.5880 N   0  0  0  0  0  0  0  0  0  0  0  0
  160.9760  201.7560  149.1810 C   0  0  0  0  0  0  0  0  0  0  0  0
  160.7310  200.8940  148.1090 C   0  0  0  0  0  3  0  0  0  0  0  0
  160.7990  201.2750  150.5800 C   0  0  0  0  0  2  0  0  0  0  0  0
  161.5430  202.1810  151.5410 C   0  0  0  0  0  2  0  0  0  0  0  0
  160.5590  203.0940  152.2400 C   0  0  0  0  0  1  0  0  0  0  0  0
  1  5  1  0  0  0  0
  2 12  1  1  0  0  0
  3  2  1  0  0  0  0
  4  1  2  0  0  0  0
  5 19  1  6  0  0  0
  5  2  1  0  0  0  0
  6  1  1  0  0  0  0
  6  3  1  0  0  0  0
 10 12  2  0  0  0  0
 10 11  1  0  0  0  0
 11  8  1  6  0  0  0
 11 16  1  0  0  0  0
 12 13  1  0  0  0  0
 13 15  2  0  0  0  0
 14  9  1  0  0  0  0
 15 14  1  0  0  0  0
 16  7  1  0  0  0  0
 16 14  2  0  0  0  0
 17 22  1  0  0  0  0
 18 21  1  0  0  0  0
 19 18  2  0  0  0  0
 20 17  2  0  0  0  0
 20 19  1  0  0  0  0
 21 23  1  0  0  0  0
 22 21  2  0  0  0  0
 23 24  1  0  0  0  0
 24 25  1  0  0  0  0
M  END
>  <MODEL>
2

>  <REMARK>
 VINA RESULT:      -9.1      1.429      2.713
  Name = 
  4 active torsions:
  status: ('A' for Active; 'I' for Inactive)
    1  A    between atoms: C_4  and  C_14
    2  A    between atoms: C_6  and  C_24
    3  A    between atoms: C_7  and  C_17
    4  A    between atoms: C_21  and  C_24
                            x       y       z     vdW  Elec       q    Type
                         _______ _______ _______ _____ _____    ______ ____

>  <TORSDO>
F 4

$$$$
=
 OpenBabel11052410133D

 25 27  0  0  1  0  0  0  0  0999 V2000
  160.7750  203.4310  150.6070 C   0  0  0  0  0  0  0  0  0  0  0  0
  161.7640  205.4000  151.4120 C   0  0  1  0  0  3  0  0  0  0  0  0
  162.2000  204.1890  152.2530 C   0  0  0  0  0  2  0  0  0  0  0  0
  160.0980  202.6010  149.9430 O   0  0  0  0  0  0  0  0  0  0  0  0
  160.7490  204.8920  150.3830 C   0  0  1  0  0  3  0  0  0  0  0  0
  161.5990  203.0600  151.6450 O   0  0  0  0  0  0  0  0  0  0  0  0
  161.7160  208.8910  155.8010 O   0  0  0  0  0  1  0  0  0  0  0  0
  160.3340  206.6040  155.7810 O   0  0  0  0  0  1  0  0  0  0  0  0
  161.8430  210.6660  153.6720 C   0  0  0  0  0  1  0  0  0  0  0  0
  161.0690  206.2450  153.5700 C   0  0  0  0  0  3  0  0  0  0  0  0
  160.4160  207.1930  154.5190 C   0  0  2  0  0  3  0  0  0  0  0  0
  161.1800  206.4820  152.2630 C   0  0  0  0  0  0  0  0  0  0  0  0
  160.7120  207.7370  151.6270 C   0  0  0  0  0  3  0  0  0  0  0  0
  161.2430  209.3100  153.5200 C   0  0  0  0  0  0  0  0  0  0  0  0
  160.7370  208.9580  152.1760 C   0  0  0  0  0  3  0  0  0  0  0  0
  161.1540  208.4980  154.5880 C   0  0  0  0  0  0  0  0  0  0  0  0
  161.9200  206.8780  147.4260 C   0  0  0  0  0  3  0  0  0  0  0  0
  161.1930  204.2660  148.0090 C   0  0  0  0  0  3  0  0  0  0  0  0
  161.1830  205.2520  148.9980 C   0  0  0  0  0  0  0  0  0  0  0  0
  161.5420  206.5300  148.6850 N   0  0  0  0  0  0  0  0  0  0  0  0
  161.5830  204.6020  146.7100 C   0  0  0  0  0  0  0  0  0  0  0  0
  161.9470  205.9170  146.4120 C   0  0  0  0  0  3  0  0  0  0  0  0
  161.5820  203.5670  145.6390 C   0  0  0  0  0  2  0  0  0  0  0  0
  161.0110  202.2670  146.1700 C   0  0  0  0  0  2  0  0  0  0  0  0
  160.1070  201.6490  145.1250 C   0  0  0  0  0  1  0  0  0  0  0  0
  1  6  1  0  0  0  0
  2  3  1  0  0  0  0
  2 12  1  1  0  0  0
  4  1  2  0  0  0  0
  5 19  1  6  0  0  0
  5  1  1  0  0  0  0
  5  2  1  0  0  0  0
  6  3  1  0  0  0  0
 10 11  1  0  0  0  0
 11 16  1  0  0  0  0
 11  8  1  1  0  0  0
 12 10  2  0  0  0  0
 13 15  2  0  0  0  0
 13 12  1  0  0  0  0
 14  9  1  0  0  0  0
 14 16  2  0  0  0  0
 15 14  1  0  0  0  0
 16  7  1  0  0  0  0
 17 20  1  0  0  0  0
 18 19  1  0  0  0  0
 20 19  2  0  0  0  0
 21 18  2  0  0  0  0
 22 21  1  0  0  0  0
 22 17  2  0  0  0  0
 23 24  1  0  0  0  0
 23 21  1  0  0  0  0
 25 24  1  0  0  0  0
M  END
>  <MODEL>
3

>  <REMARK>
 VINA RESULT:      -9.0      2.409      3.712
  Name = 
  4 active torsions:
  status: ('A' for Active; 'I' for Inactive)
    1  A    between atoms: C_4  and  C_14
    2  A    between atoms: C_6  and  C_24
    3  A    between atoms: C_7  and  C_17
    4  A    between atoms: C_21  and  C_24
                            x       y       z     vdW  Elec       q    Type
                         _______ _______ _______ _____ _____    ______ ____

>  <TORSDO>
F 4

$$$$
=
 OpenBabel11052410133D

 25 27  0  0  1  0  0  0  0  0999 V2000
  161.7040  205.3930  152.1960 C   0  0  0  0  0  0  0  0  0  0  0  0
  160.8070  205.4630  150.0290 C   0  0  1  0  0  3  0  0  0  0  0  0
  160.1380  204.3550  150.8590 C   0  0  0  0  0  2  0  0  0  0  0  0
  162.3850  205.6210  153.2300 O   0  0  0  0  0  0  0  0  0  0  0  0
  161.9050  206.0800  150.9010 C   0  0  1  0  0  3  0  0  0  0  0  0
  160.7070  204.4450  152.1520 O   0  0  0  0  0  0  0  0  0  0  0  0
  160.4620  202.8730  145.0660 O   0  0  0  0  0  1  0  0  0  0  0  0
  161.3200  201.6280  147.2700 O   0  0  0  0  0  1  0  0  0  0  0  0
  161.2250  205.4330  144.3130 C   0  0  0  0  0  1  0  0  0  0  0  0
  161.1000  203.6640  148.4380 C   0  0  0  0  0  3  0  0  0  0  0  0
  161.6730  202.9780  147.2440 C   0  0  2  0  0  3  0  0  0  0  0  0
  161.3660  204.9330  148.7470 C   0  0  0  0  0  0  0  0  0  0  0  0
  162.2190  205.8070  147.9070 C   0  0  0  0  0  3  0  0  0  0  0  0
  161.5600  204.8850  145.6590 C   0  0  0  0  0  0  0  0  0  0  0  0
  162.3030  205.7810  146.5700 C   0  0  0  0  0  3  0  0  0  0  0  0
  161.2170  203.6220  145.9670 C   0  0  0  0  0  0  0  0  0  0  0  0
  162.1000  209.7590  150.2050 C   0  0  0  0  0  3  0  0  0  0  0  0
  160.9900  208.0670  152.1010 C   0  0  0  0  0  3  0  0  0  0  0  0
  161.7110  207.5580  151.0190 C   0  0  0  0  0  0  0  0  0  0  0  0
  162.2500  208.4110  150.1010 N   0  0  0  0  0  0  0  0  0  0  0  0
  160.8200  209.4480  152.2230 C   0  0  0  0  0  0  0  0  0  0  0  0
  161.3810  210.3040  151.2720 C   0  0  0  0  0  3  0  0  0  0  0  0
  160.0690  210.0090  153.3810 C   0  0  0  0  0  2  0  0  0  0  0  0
  160.8200  211.1880  153.9680 C   0  0  0  0  0  2  0  0  0  0  0  0
  161.8090  210.6920  155.0010 C   0  0  0  0  0  1  0  0  0  0  0  0
  1  4  2  0  0  0  0
  2 12  1  6  0  0  0
  2  3  1  0  0  0  0
  2  5  1  0  0  0  0
  3  6  1  0  0  0  0
  5 19  1  1  0  0  0
  5  1  1  0  0  0  0
  6  1  1  0  0  0  0
  7 16  1  0  0  0  0
  9 14  1  0  0  0  0
 10 12  2  0  0  0  0
 11  8  1  6  0  0  0
 11 10  1  0  0  0  0
 13 12  1  0  0  0  0
 14 16  2  0  0  0  0
 14 15  1  0  0  0  0
 15 13  2  0  0  0  0
 16 11  1  0  0  0  0
 17 22  1  0  0  0  0
 18 21  1  0  0  0  0
 19 18  2  0  0  0  0
 20 17  2  0  0  0  0
 20 19  1  0  0  0  0
 21 23  1  0  0  0  0
 22 21  2  0  0  0  0
 23 24  1  0  0  0  0
 24 25  1  0  0  0  0
M  END
>  <MODEL>
4

>  <REMARK>
 VINA RESULT:      -8.5      2.717      8.080
  Name = 
  4 active torsions:
  status: ('A' for Active; 'I' for Inactive)
    1  A    between atoms: C_4  and  C_14
    2  A    between atoms: C_6  and  C_24
    3  A    between atoms: C_7  and  C_17
    4  A    between atoms: C_21  and  C_24
                            x       y       z     vdW  Elec       q    Type
                         _______ _______ _______ _____ _____    ______ ____

>  <TORSDO>
F 4

$$$$
=
 OpenBabel11052410133D

 25 27  0  0  1  0  0  0  0  0999 V2000
  161.7750  205.4540  151.9960 C   0  0  0  0  0  0  0  0  0  0  0  0
  160.8410  205.5010  149.8450 C   0  0  1  0  0  3  0  0  0  0  0  0
  160.1810  204.4070  150.7000 C   0  0  0  0  0  2  0  0  0  0  0  0
  162.4750  205.6910  153.0160 O   0  0  0  0  0  0  0  0  0  0  0  0
  161.9570  206.1220  150.6900 C   0  0  1  0  0  3  0  0  0  0  0  0
  160.7730  204.5110  151.9830 O   0  0  0  0  0  0  0  0  0  0  0  0
  160.3800  202.9220  144.8860 O   0  0  0  0  0  1  0  0  0  0  0  0
  161.2060  201.6490  147.0860 O   0  0  0  0  0  1  0  0  0  0  0  0
  161.2280  205.4530  144.1270 C   0  0  0  0  0  1  0  0  0  0  0  0
  161.0630  203.6920  148.2530 C   0  0  0  0  0  3  0  0  0  0  0  0
  161.6060  202.9860  147.0560 C   0  0  2  0  0  3  0  0  0  0  0  0
  161.3740  204.9510  148.5610 C   0  0  0  0  0  0  0  0  0  0  0  0
  162.2530  205.7950  147.7150 C   0  0  0  0  0  3  0  0  0  0  0  0
  161.5500  204.8950  145.4710 C   0  0  0  0  0  0  0  0  0  0  0  0
  162.3290  205.7650  146.3780 C   0  0  0  0  0  3  0  0  0  0  0  0
  161.1660  203.6450  145.7820 C   0  0  0  0  0  0  0  0  0  0  0  0
  161.0390  209.5110  152.0080 C   0  0  0  0  0  3  0  0  0  0  0  0
  162.1400  208.4110  149.7130 C   0  0  0  0  0  3  0  0  0  0  0  0
  161.7740  207.6040  150.7920 C   0  0  0  0  0  0  0  0  0  0  0  0
  161.2310  208.1680  151.9080 N   0  0  0  0  0  0  0  0  0  0  0  0
  161.9560  209.7930  149.7980 C   0  0  0  0  0  0  0  0  0  0  0  0
  161.3980  210.3500  150.9510 C   0  0  0  0  0  3  0  0  0  0  0  0
  162.3250  210.6680  148.6500 C   0  0  0  0  0  2  0  0  0  0  0  0
  161.9530  212.1070  148.9490 C   0  0  0  0  0  2  0  0  0  0  0  0
  162.2820  212.9730  147.7520 C   0  0  0  0  0  1  0  0  0  0  0  0
  1  4  2  0  0  0  0
  2 12  1  6  0  0  0
  2  5  1  0  0  0  0
  2  3  1  0  0  0  0
  3  6  1  0  0  0  0
  5 19  1  1  0  0  0
  5  1  1  0  0  0  0
  6  1  1  0  0  0  0
  7 16  1  0  0  0  0
  9 14  1  0  0  0  0
 10 12  2  0  0  0  0
 11  8  1  6  0  0  0
 11 10  1  0  0  0  0
 13 12  1  0  0  0  0
 14 16  2  0  0  0  0
 14 15  1  0  0  0  0
 15 13  2  0  0  0  0
 16 11  1  0  0  0  0
 18 21  2  0  0  0  0
 18 19  1  0  0  0  0
 19 20  2  0  0  0  0
 20 17  1  0  0  0  0
 21 22  1  0  0  0  0
 22 17  2  0  0  0  0
 23 24  1  0  0  0  0
 23 21  1  0  0  0  0
 25 24  1  0  0  0  0
M  END
>  <MODEL>
5

>  <REMARK>
 VINA RESULT:      -8.2      2.867      7.836
  Name = 
  4 active torsions:
  status: ('A' for Active; 'I' for Inactive)
    1  A    between atoms: C_4  and  C_14
    2  A    between atoms: C_6  and  C_24
    3  A    between atoms: C_7  and  C_17
    4  A    between atoms: C_21  and  C_24
                            x       y       z     vdW  Elec       q    Type
                         _______ _______ _______ _____ _____    ______ ____

>  <TORSDO>
F 4

$$$$
=
 OpenBabel11052410133D

 25 27  0  0  1  0  0  0  0  0999 V2000
  161.6700  209.9010  154.9120 C   0  0  0  0  0  0  0  0  0  0  0  0
  160.6240  208.3900  153.4540 C   0  0  1  0  0  3  0  0  0  0  0  0
  160.8390  207.7510  154.8360 C   0  0  0  0  0  2  0  0  0  0  0  0
  162.2220  210.9190  155.4070 O   0  0  0  0  0  0  0  0  0  0  0  0
  161.2640  209.7820  153.4960 C   0  0  1  0  0  3  0  0  0  0  0  0
  161.4140  208.7630  155.6430 O   0  0  0  0  0  0  0  0  0  0  0  0
  160.5080  204.3090  149.6090 O   0  0  0  0  0  1  0  0  0  0  0  0
  161.6320  203.9770  152.0110 O   0  0  0  0  0  1  0  0  0  0  0  0
  160.8310  206.5650  148.0250 C   0  0  0  0  0  1  0  0  0  0  0  0
  161.1370  206.2300  152.4920 C   0  0  0  0  0  3  0  0  0  0  0  0
  161.7670  205.2790  151.5300 C   0  0  2  0  0  3  0  0  0  0  0  0
  161.2120  207.5550  152.3620 C   0  0  0  0  0  0  0  0  0  0  0  0
  161.8850  208.2180  151.2190 C   0  0  0  0  0  3  0  0  0  0  0  0
  161.2970  206.5350  149.4410 C   0  0  0  0  0  0  0  0  0  0  0  0
  161.9230  207.7710  149.9570 C   0  0  0  0  0  3  0  0  0  0  0  0
  161.1690  205.4060  150.1600 C   0  0  0  0  0  0  0  0  0  0  0  0
  159.5730  212.5850  151.6670 C   0  0  0  0  0  3  0  0  0  0  0  0
  159.1330  211.0140  153.9090 C   0  0  0  0  0  3  0  0  0  0  0  0
  160.2650  210.8280  153.1130 C   0  0  0  0  0  0  0  0  0  0  0  0
  160.4610  211.6160  152.0170 N   0  0  0  0  0  0  0  0  0  0  0  0
  158.2070  212.0000  153.5640 C   0  0  0  0  0  0  0  0  0  0  0  0
  158.4270  212.7960  152.4370 C   0  0  0  0  0  3  0  0  0  0  0  0
  157.0030  212.2240  154.4120 C   0  0  0  0  0  2  0  0  0  0  0  0
  156.8320  211.0780  155.3900 C   0  0  0  0  0  2  0  0  0  0  0  0
  155.5320  210.3580  155.1010 C   0  0  0  0  0  1  0  0  0  0  0  0
  1  4  2  0  0  0  0
  1  6  1  0  0  0  0
  2 12  1  6  0  0  0
  2  5  1  0  0  0  0
  2  3  1  0  0  0  0
  3  6  1  0  0  0  0
  5 19  1  1  0  0  0
  5  1  1  0  0  0  0
  7 16  1  0  0  0  0
  9 14  1  0  0  0  0
 11  8  1  1  0  0  0
 11 10  1  0  0  0  0
 12 10  2  0  0  0  0
 13 12  1  0  0  0  0
 14 15  1  0  0  0  0
 14 16  2  0  0  0  0
 15 13  2  0  0  0  0
 16 11  1  0  0  0  0
 17 20  2  0  0  0  0
 17 22  1  0  0  0  0
 19 18  2  0  0  0  0
 20 19  1  0  0  0  0
 21 18  1  0  0  0  0
 21 23  1  0  0  0  0
 22 21  2  0  0  0  0
 23 24  1  0  0  0  0
 25 24  1  0  0  0  0
M  END
>  <MODEL>
6

>  <REMARK>
 VINA RESULT:      -8.1      3.843      8.920
  Name = 
  4 active torsions:
  status: ('A' for Active; 'I' for Inactive)
    1  A    between atoms: C_4  and  C_14
    2  A    between atoms: C_6  and  C_24
    3  A    between atoms: C_7  and  C_17
    4  A    between atoms: C_21  and  C_24
                            x       y       z     vdW  Elec       q    Type
                         _______ _______ _______ _____ _____    ______ ____

>  <TORSDO>
F 4

$$$$
=
 OpenBabel11052410133D

 25 27  0  0  1  0  0  0  0  0999 V2000
  161.1730  209.7500  152.3350 C   0  0  0  0  0  0  0  0  0  0  0  0
  161.7970  207.5240  151.9320 C   0  0  1  0  0  3  0  0  0  0  0  0
  162.6580  208.4890  151.1010 C   0  0  0  0  0  2  0  0  0  0  0  0
  160.6010  210.7860  152.7640 O   0  0  0  0  0  0  0  0  0  0  0  0
  160.7570  208.3710  152.6730 C   0  0  1  0  0  3  0  0  0  0  0  0
  162.2400  209.7920  151.4670 O   0  0  0  0  0  0  0  0  0  0  0  0
  161.5860  203.9490  147.6160 O   0  0  0  0  0  1  0  0  0  0  0  0
  160.4610  206.3710  147.5200 O   0  0  0  0  0  1  0  0  0  0  0  0
  161.4150  202.2240  149.7840 C   0  0  0  0  0  1  0  0  0  0  0  0
  161.1210  206.7040  149.7580 C   0  0  0  0  0  3  0  0  0  0  0  0
  160.4160  205.8080  148.7960 C   0  0  2  0  0  3  0  0  0  0  0  0
  161.1410  206.4900  151.0740 C   0  0  0  0  0  0  0  0  0  0  0  0
  160.5090  205.3090  151.7090 C   0  0  0  0  0  3  0  0  0  0  0  0
  160.9590  203.6410  149.8780 C   0  0  0  0  0  0  0  0  0  0  0  0
  160.4280  204.0780  151.1870 C   0  0  0  0  0  3  0  0  0  0  0  0
  161.0110  204.4300  148.7910 C   0  0  0  0  0  0  0  0  0  0  0  0
  160.1630  206.8550  156.0510 C   0  0  0  0  0  3  0  0  0  0  0  0
  161.5990  208.9560  154.9480 C   0  0  0  0  0  3  0  0  0  0  0  0
  160.8260  208.1140  154.1450 C   0  0  0  0  0  0  0  0  0  0  0  0
  160.1270  207.0900  154.7120 N   0  0  0  0  0  0  0  0  0  0  0  0
  161.6540  208.7290  156.3260 C   0  0  0  0  0  0  0  0  0  0  0  0
  160.9290  207.6730  156.8850 C   0  0  0  0  0  3  0  0  0  0  0  0
  162.4580  209.6280  157.2000 C   0  0  0  0  0  2  0  0  0  0  0  0
  163.1340  210.6980  156.3660 C   0  0  0  0  0  2  0  0  0  0  0  0
  164.1470  211.4340  157.2160 C   0  0  0  0  0  1  0  0  0  0  0  0
  1  5  1  0  0  0  0
  1  4  2  0  0  0  0
  2 12  1  6  0  0  0
  2  5  1  0  0  0  0
  3  6  1  0  0  0  0
  3  2  1  0  0  0  0
  5 19  1  1  0  0  0
  6  1  1  0  0  0  0
  7 16  1  0  0  0  0
  9 14  1  0  0  0  0
 10 12  2  0  0  0  0
 11  8  1  6  0  0  0
 11 10  1  0  0  0  0
 12 13  1  0  0  0  0
 14 15  1  0  0  0  0
 15 13  2  0  0  0  0
 16 11  1  0  0  0  0
 16 14  2  0  0  0  0
 17 22  1  0  0  0  0
 18 21  1  0  0  0  0
 19 20  1  0  0  0  0
 19 18  2  0  0  0  0
 20 17  2  0  0  0  0
 21 22  2  0  0  0  0
 21 23  1  0  0  0  0
 24 23  1  0  0  0  0
 24 25  1  0  0  0  0
M  END
>  <MODEL>
7

>  <REMARK>
 VINA RESULT:      -7.9      2.491      8.172
  Name = 
  4 active torsions:
  status: ('A' for Active; 'I' for Inactive)
    1  A    between atoms: C_4  and  C_14
    2  A    between atoms: C_6  and  C_24
    3  A    between atoms: C_7  and  C_17
    4  A    between atoms: C_21  and  C_24
                            x       y       z     vdW  Elec       q    Type
                         _______ _______ _______ _____ _____    ______ ____

>  <TORSDO>
F 4

$$$$
=
 OpenBabel11052410133D

 25 27  0  0  1  0  0  0  0  0999 V2000
  161.6470  209.2730  155.4830 C   0  0  0  0  0  0  0  0  0  0  0  0
  160.6130  207.9460  153.8470 C   0  0  1  0  0  3  0  0  0  0  0  0
  160.7950  207.1560  155.1540 C   0  0  0  0  0  2  0  0  0  0  0  0
  162.1990  210.2240  156.0960 O   0  0  0  0  0  0  0  0  0  0  0  0
  161.2660  209.3170  154.0540 C   0  0  1  0  0  3  0  0  0  0  0  0
  161.3640  208.0650  156.0780 O   0  0  0  0  0  0  0  0  0  0  0  0
  160.5490  204.2770  149.6060 O   0  0  0  0  0  1  0  0  0  0  0  0
  161.6570  203.7080  151.9700 O   0  0  0  0  0  1  0  0  0  0  0  0
  160.8700  206.6850  148.2620 C   0  0  0  0  0  1  0  0  0  0  0  0
  161.1460  205.8980  152.6740 C   0  0  0  0  0  3  0  0  0  0  0  0
  161.7880  205.0530  151.6250 C   0  0  2  0  0  3  0  0  0  0  0  0
  161.2140  207.2300  152.6800 C   0  0  0  0  0  0  0  0  0  0  0  0
  161.8910  208.0090  151.6160 C   0  0  0  0  0  3  0  0  0  0  0  0
  161.3250  206.5130  149.6710 C   0  0  0  0  0  0  0  0  0  0  0  0
  161.9410  207.6930  150.3150 C   0  0  0  0  0  3  0  0  0  0  0  0
  161.1990  205.3150  150.2700 C   0  0  0  0  0  0  0  0  0  0  0  0
  158.2900  211.5830  154.3190 C   0  0  0  0  0  3  0  0  0  0  0  0
  160.4780  211.2250  152.6530 C   0  0  0  0  0  3  0  0  0  0  0  0
  160.2860  210.4110  153.7710 C   0  0  0  0  0  0  0  0  0  0  0  0
  159.2010  210.6050  154.5740 N   0  0  0  0  0  0  0  0  0  0  0  0
  159.5570  212.2380  152.3760 C   0  0  0  0  0  0  0  0  0  0  0  0
  158.4520  212.4190  153.2110 C   0  0  0  0  0  3  0  0  0  0  0  0
  159.7350  213.1040  151.1770 C   0  0  0  0  0  2  0  0  0  0  0  0
  158.4300  213.7920  150.8310 C   0  0  0  0  0  2  0  0  0  0  0  0
  158.2050  213.7230  149.3350 C   0  0  0  0  0  1  0  0  0  0  0  0
  1  6  1  0  0  0  0
  1  4  2  0  0  0  0
  2 12  1  6  0  0  0
  2  5  1  0  0  0  0
  2  3  1  0  0  0  0
  3  6  1  0  0  0  0
  5 19  1  1  0  0  0
  5  1  1  0  0  0  0
  7 16  1  0  0  0  0
  9 14  1  0  0  0  0
 10 12  2  0  0  0  0
 11  8  1  1  0  0  0
 11 10  1  0  0  0  0
 13 12  1  0  0  0  0
 14 16  2  0  0  0  0
 14 15  1  0  0  0  0
 15 13  2  0  0  0  0
 16 11  1  0  0  0  0
 17 20  1  0  0  0  0
 18 19  1  0  0  0  0
 19 20  2  0  0  0  0
 21 18  2  0  0  0  0
 21 22  1  0  0  0  0
 22 17  2  0  0  0  0
 23 21  1  0  0  0  0
 24 23  1  0  0  0  0
 25 24  1  0  0  0  0
M  END
>  <MODEL>
8

>  <REMARK>
 VINA RESULT:      -7.9      3.902      8.800
  Name = 
  4 active torsions:
  status: ('A' for Active; 'I' for Inactive)
    1  A    between atoms: C_4  and  C_14
    2  A    between atoms: C_6  and  C_24
    3  A    between atoms: C_7  and  C_17
    4  A    between atoms: C_21  and  C_24
                            x       y       z     vdW  Elec       q    Type
                         _______ _______ _______ _____ _____    ______ ____

>  <TORSDO>
F 4

$$$$
=
 OpenBabel11052410133D

 25 27  0  0  1  0  0  0  0  0999 V2000
  161.5600  201.8840  151.1690 C   0  0  0  0  0  0  0  0  0  0  0  0
  160.4730  202.8780  149.3420 C   0  0  1  0  0  3  0  0  0  0  0  0
  159.8590  201.5040  149.6580 C   0  0  0  0  0  2  0  0  0  0  0  0
  162.3350  201.6490  152.1320 O   0  0  0  0  0  0  0  0  0  0  0  0
  161.6580  203.0730  150.2940 C   0  0  1  0  0  3  0  0  0  0  0  0
  160.5440  201.0300  150.8030 O   0  0  0  0  0  0  0  0  0  0  0  0
  159.5730  203.3410  143.8260 O   0  0  0  0  0  1  0  0  0  0  0  0
  160.0810  200.9940  144.9980 O   0  0  0  0  0  1  0  0  0  0  0  0
  160.9380  205.6950  144.3730 C   0  0  0  0  0  1  0  0  0  0  0  0
  160.3430  202.1350  147.0430 C   0  0  0  0  0  3  0  0  0  0  0  0
  160.7480  202.0550  145.6100 C   0  0  2  0  0  3  0  0  0  0  0  0
  160.9030  202.9760  147.9140 C   0  0  0  0  0  0  0  0  0  0  0  0
  161.9510  203.9530  147.5320 C   0  0  0  0  0  3  0  0  0  0  0  0
  161.1160  204.4780  145.2160 C   0  0  0  0  0  0  0  0  0  0  0  0
  162.0420  204.5980  146.3620 C   0  0  0  0  0  3  0  0  0  0  0  0
  160.4760  203.3420  144.8880 C   0  0  0  0  0  0  0  0  0  0  0  0
  161.2060  205.4790  153.1340 C   0  0  0  0  0  3  0  0  0  0  0  0
  161.4830  205.5610  150.3770 C   0  0  0  0  0  3  0  0  0  0  0  0
  161.5060  204.3460  151.0650 C   0  0  0  0  0  0  0  0  0  0  0  0
  161.3650  204.3320  152.4210 N   0  0  0  0  0  0  0  0  0  0  0  0
  161.3250  206.7510  151.0910 C   0  0  0  0  0  0  0  0  0  0  0  0
  161.1820  206.7130  152.4800 C   0  0  0  0  0  3  0  0  0  0  0  0
  161.2800  208.0540  150.3710 C   0  0  0  0  0  2  0  0  0  0  0  0
  161.2070  207.8220  148.8750 C   0  0  0  0  0  2  0  0  0  0  0  0
  162.5940  207.9290  148.2790 C   0  0  0  0  0  1  0  0  0  0  0  0
  1  4  2  0  0  0  0
  2 12  1  6  0  0  0
  2  3  1  0  0  0  0
  2  5  1  0  0  0  0
  3  6  1  0  0  0  0
  5 19  1  1  0  0  0
  5  1  1  0  0  0  0
  6  1  1  0  0  0  0
  7 16  1  0  0  0  0
  9 14  1  0  0  0  0
 10 12  2  0  0  0  0
 11  8  1  6  0  0  0
 11 10  1  0  0  0  0
 13 12  1  0  0  0  0
 14 15  1  0  0  0  0
 15 13  2  0  0  0  0
 16 14  2  0  0  0  0
 16 11  1  0  0  0  0
 18 19  2  0  0  0  0
 18 21  1  0  0  0  0
 19 20  1  0  0  0  0
 20 17  2  0  0  0  0
 21 22  2  0  0  0  0
 22 17  1  0  0  0  0
 23 21  1  0  0  0  0
 24 23  1  0  0  0  0
 25 24  1  0  0  0  0
M  END
>  <MODEL>
9

>  <REMARK>
 VINA RESULT:      -7.9      3.113      7.252
  Name = 
  4 active torsions:
  status: ('A' for Active; 'I' for Inactive)
    1  A    between atoms: C_4  and  C_14
    2  A    between atoms: C_6  and  C_24
    3  A    between atoms: C_7  and  C_17
    4  A    between atoms: C_21  and  C_24
                            x       y       z     vdW  Elec       q    Type
                         _______ _______ _______ _____ _____    ______ ____

>  <TORSDO>
F 4

$$$$
