=
 OpenBabel11052410503D

 28 31  0  0  1  0  0  0  0  0999 V2000
  161.5220  209.5410  152.1010 C   0  0  0  0  0  3  0  0  0  0  0  0
  162.0240  210.6390  149.9800 N   0  0  0  0  0  2  0  0  0  0  0  0
  161.1090  207.1630  152.1560 C   0  0  0  0  0  3  0  0  0  0  0  0
  161.3040  207.1070  150.7680 C   0  0  0  0  0  0  0  0  0  0  0  0
  161.2190  208.3840  152.8190 C   0  0  0  0  0  3  0  0  0  0  0  0
  161.7120  209.4570  150.7210 C   0  0  0  0  0  0  0  0  0  0  0  0
  161.5980  208.2540  150.0920 N   0  0  0  0  0  0  0  0  0  0  0  0
  161.3730  205.7750  148.6450 C   0  0  0  0  0  3  0  0  0  0  0  0
  161.1980  205.8270  150.0370 C   0  0  0  0  0  0  0  0  0  0  0  0
  160.8130  203.4270  150.0470 C   0  0  0  0  0  3  0  0  0  0  0  0
  160.8730  202.1610  147.9960 O   0  0  0  0  0  0  0  0  0  0  0  0
  160.8930  200.9070  146.0770 O   0  0  0  0  0  0  0  0  0  0  0  0
  161.2730  204.5610  147.9540 C   0  0  0  0  0  0  0  0  0  0  0  0
  160.9900  203.3820  148.6610 C   0  0  0  0  0  0  0  0  0  0  0  0
  161.4590  204.5050  146.4940 C   0  0  0  0  0  0  0  0  0  0  0  0
  160.9180  204.6410  150.7310 C   0  0  0  0  0  3  0  0  0  0  0  0
  161.4380  203.2010  145.7540 C   0  0  0  0  0  2  0  0  0  0  0  0
  161.6610  205.5640  145.8430 O   0  0  0  0  0  0  0  0  0  0  0  0
  161.0480  202.0340  146.6140 C   0  0  0  0  0  0  0  0  0  0  0  0
  162.2720  210.6350  148.5440 C   0  0  0  0  0  2  0  0  0  0  0  0
  160.1650  212.1610  147.0410 C   0  0  0  0  0  2  0  0  0  0  0  0
  160.3490  214.3990  146.0950 C   0  0  0  0  0  2  0  0  0  0  0  0
  162.4920  212.0290  148.0490 C   0  0  0  0  0  0  0  0  0  0  0  0
  158.6920  212.8020  145.1480 C   0  0  0  0  0  1  0  0  0  0  0  0
  161.6120  214.0930  146.8770 C   0  0  0  0  0  2  0  0  0  0  0  0
  159.3620  213.2850  146.4170 C   0  0  1  0  0  3  0  0  0  0  0  0
  161.4590  212.7330  147.3490 N   0  0  0  0  0  0  0  0  0  0  0  0
  163.5980  212.5890  148.2750 O   0  0  0  0  0  0  0  0  0  0  0  0
  1  5  2  0  0  0  0
  2  6  1  0  0  0  0
  3  5  1  0  0  0  0
  4  3  2  0  0  0  0
  6  1  1  0  0  0  0
  7  6  2  0  0  0  0
  7  4  1  0  0  0  0
  8  9  1  0  0  0  0
  9 16  2  0  0  0  0
  9  4  1  0  0  0  0
 10 16  1  0  0  0  0
 11 14  1  0  0  0  0
 12 19  2  0  0  0  0
 13  8  2  0  0  0  0
 13 14  1  0  0  0  0
 14 10  2  0  0  0  0
 15 13  1  0  0  0  0
 17 15  1  0  0  0  0
 17 19  1  0  0  0  0
 18 15  2  0  0  0  0
 19 11  1  0  0  0  0
 20  2  1  0  0  0  0
 21 27  1  0  0  0  0
 22 26  1  0  0  0  0
 22 25  1  0  0  0  0
 23 28  2  0  0  0  0
 23 20  1  0  0  0  0
 25 27  1  0  0  0  0
 26 24  1  6  0  0  0
 26 21  1  0  0  0  0
 27 23  1  0  0  0  0
M  END
>  <MODEL>
1

>  <REMARK>
 VINA RESULT:     -10.0      0.000      0.000
  Name = 
  3 active torsions:
  status: ('A' for Active; 'I' for Inactive)
    1  A    between atoms: N_5  and  C_24
    2  A    between atoms: C_6  and  C_14
    3  A    between atoms: C_7  and  C_24
                            x       y       z     vdW  Elec       q    Type
                         _______ _______ _______ _____ _____    ______ ____

>  <TORSDO>
F 3

$$$$
=
 OpenBabel11052410503D

 28 31  0  0  1  0  0  0  0  0999 V2000
  161.3800  207.8250  153.9230 C   0  0  0  0  0  3  0  0  0  0  0  0
  161.7030  209.6080  152.2880 N   0  0  0  0  0  2  0  0  0  0  0  0
  161.0780  205.5490  153.1760 C   0  0  0  0  0  3  0  0  0  0  0  0
  161.1900  205.9810  151.8460 C   0  0  0  0  0  0  0  0  0  0  0  0
  161.1730  206.4760  154.2130 C   0  0  0  0  0  3  0  0  0  0  0  0
  161.4890  208.2280  152.5910 C   0  0  0  0  0  0  0  0  0  0  0  0
  161.3910  207.3050  151.5920 N   0  0  0  0  0  0  0  0  0  0  0  0
  161.3600  205.4260  149.4080 C   0  0  0  0  0  3  0  0  0  0  0  0
  161.0960  205.0220  150.7260 C   0  0  0  0  0  0  0  0  0  0  0  0
  160.6460  202.7750  149.9150 C   0  0  0  0  0  3  0  0  0  0  0  0
  160.8050  202.2580  147.5650 O   0  0  0  0  0  0  0  0  0  0  0  0
  160.9150  201.7110  145.3410 O   0  0  0  0  0  0  0  0  0  0  0  0
  161.2720  204.5150  148.3470 C   0  0  0  0  0  0  0  0  0  0  0  0
  160.9110  203.1830  148.6050 C   0  0  0  0  0  0  0  0  0  0  0  0
  161.5510  204.9370  146.9640 C   0  0  0  0  0  0  0  0  0  0  0  0
  160.7400  203.6870  150.9690 C   0  0  0  0  0  3  0  0  0  0  0  0
  161.5420  203.9540  145.8310 C   0  0  0  0  0  2  0  0  0  0  0  0
  161.8240  206.1410  146.7140 O   0  0  0  0  0  0  0  0  0  0  0  0
  161.0660  202.5880  146.2310 C   0  0  0  0  0  0  0  0  0  0  0  0
  161.8620  210.1080  150.9290 C   0  0  0  0  0  2  0  0  0  0  0  0
  161.8950  211.6510  148.3510 C   0  0  0  0  0  2  0  0  0  0  0  0
  160.8500  213.8060  147.9010 C   0  0  0  0  0  2  0  0  0  0  0  0
  161.1400  211.4070  150.7630 C   0  0  0  0  0  0  0  0  0  0  0  0
  162.7950  213.0780  146.5300 C   0  0  0  0  0  1  0  0  0  0  0  0
  160.4580  213.3530  149.2940 C   0  0  0  0  0  2  0  0  0  0  0  0
  161.5390  212.6190  147.2400 C   0  0  1  0  0  3  0  0  0  0  0  0
  161.1640  212.1090  149.5150 N   0  0  0  0  0  0  0  0  0  0  0  0
  160.4880  211.8720  151.7370 O   0  0  0  0  0  0  0  0  0  0  0  0
  1  5  2  0  0  0  0
  2  6  1  0  0  0  0
  3  5  1  0  0  0  0
  4  3  2  0  0  0  0
  6  1  1  0  0  0  0
  7  4  1  0  0  0  0
  7  6  2  0  0  0  0
  8  9  1  0  0  0  0
  9 16  2  0  0  0  0
  9  4  1  0  0  0  0
 10 16  1  0  0  0  0
 11 14  1  0  0  0  0
 12 19  2  0  0  0  0
 13 14  1  0  0  0  0
 13  8  2  0  0  0  0
 14 10  2  0  0  0  0
 15 13  1  0  0  0  0
 17 19  1  0  0  0  0
 17 15  1  0  0  0  0
 18 15  2  0  0  0  0
 19 11  1  0  0  0  0
 20  2  1  0  0  0  0
 21 27  1  0  0  0  0
 22 25  1  0  0  0  0
 23 20  1  0  0  0  0
 23 28  2  0  0  0  0
 25 27  1  0  0  0  0
 26 24  1  1  0  0  0
 26 22  1  0  0  0  0
 26 21  1  0  0  0  0
 27 23  1  0  0  0  0
M  END
>  <MODEL>
2

>  <REMARK>
 VINA RESULT:      -9.5      1.613      2.108
  Name = 
  3 active torsions:
  status: ('A' for Active; 'I' for Inactive)
    1  A    between atoms: N_5  and  C_24
    2  A    between atoms: C_6  and  C_14
    3  A    between atoms: C_7  and  C_24
                            x       y       z     vdW  Elec       q    Type
                         _______ _______ _______ _____ _____    ______ ____

>  <TORSDO>
F 3

$$$$
=
 OpenBabel11052410503D

 28 31  0  0  1  0  0  0  0  0999 V2000
  161.1270  206.5630  154.1900 C   0  0  0  0  0  3  0  0  0  0  0  0
  161.0870  208.9970  154.0120 N   0  0  0  0  0  2  0  0  0  0  0  0
  161.1910  205.2120  152.1900 C   0  0  0  0  0  3  0  0  0  0  0  0
  161.1840  206.3800  151.4130 C   0  0  0  0  0  0  0  0  0  0  0  0
  161.1610  205.3090  153.5800 C   0  0  0  0  0  3  0  0  0  0  0  0
  161.1210  207.7090  153.3930 C   0  0  0  0  0  0  0  0  0  0  0  0
  161.1480  207.5920  152.0360 N   0  0  0  0  0  0  0  0  0  0  0  0
  161.2880  205.0760  149.2750 C   0  0  0  0  0  3  0  0  0  0  0  0
  161.2170  206.3110  149.9370 C   0  0  0  0  0  0  0  0  0  0  0  0
  161.2090  207.4330  147.7800 C   0  0  0  0  0  3  0  0  0  0  0  0
  161.3200  206.1660  145.7320 O   0  0  0  0  0  0  0  0  0  0  0  0
  161.4480  205.0180  143.7510 O   0  0  0  0  0  0  0  0  0  0  0  0
  161.3180  205.0130  147.8750 C   0  0  0  0  0  0  0  0  0  0  0  0
  161.2800  206.1990  147.1270 C   0  0  0  0  0  0  0  0  0  0  0  0
  161.3910  203.7170  147.1790 C   0  0  0  0  0  0  0  0  0  0  0  0
  161.1760  207.4890  149.1760 C   0  0  0  0  0  3  0  0  0  0  0  0
  161.3390  203.6310  145.6830 C   0  0  0  0  0  2  0  0  0  0  0  0
  161.4790  202.6490  147.8410 O   0  0  0  0  0  0  0  0  0  0  0  0
  161.3790  204.9710  145.0070 C   0  0  0  0  0  0  0  0  0  0  0  0
  161.1140  210.2430  153.2580 C   0  0  0  0  0  2  0  0  0  0  0  0
  159.2520  212.2880  152.0850 C   0  0  0  0  0  2  0  0  0  0  0  0
  158.2610  214.2080  153.2130 C   0  0  0  0  0  2  0  0  0  0  0  0
  160.5340  211.3570  154.0690 C   0  0  0  0  0  0  0  0  0  0  0  0
  158.5290  214.2450  150.7390 C   0  0  0  0  0  1  0  0  0  0  0  0
  159.0250  213.3830  154.2310 C   0  0  0  0  0  2  0  0  0  0  0  0
  158.2070  213.3770  151.9370 C   0  0  1  0  0  3  0  0  0  0  0  0
  159.6360  212.3060  153.4810 N   0  0  0  0  0  0  0  0  0  0  0  0
  160.8300  211.4400  155.2910 O   0  0  0  0  0  0  0  0  0  0  0  0
  3  5  1  0  0  0  0
  4  7  1  0  0  0  0
  4  3  2  0  0  0  0
  5  1  2  0  0  0  0
  6  2  1  0  0  0  0
  6  1  1  0  0  0  0
  7  6  2  0  0  0  0
  8  9  1  0  0  0  0
  9  4  1  0  0  0  0
 10 16  1  0  0  0  0
 11 14  1  0  0  0  0
 12 19  2  0  0  0  0
 13  8  2  0  0  0  0
 14 10  2  0  0  0  0
 14 13  1  0  0  0  0
 15 18  2  0  0  0  0
 15 13  1  0  0  0  0
 16  9  2  0  0  0  0
 17 15  1  0  0  0  0
 19 17  1  0  0  0  0
 19 11  1  0  0  0  0
 20  2  1  0  0  0  0
 20 23  1  0  0  0  0
 21 27  1  0  0  0  0
 22 25  1  0  0  0  0
 23 28  2  0  0  0  0
 26 24  1  6  0  0  0
 26 21  1  0  0  0  0
 26 22  1  0  0  0  0
 27 23  1  0  0  0  0
 27 25  1  0  0  0  0
M  END
>  <MODEL>
3

>  <REMARK>
 VINA RESULT:      -9.3      3.296      4.421
  Name = 
  3 active torsions:
  status: ('A' for Active; 'I' for Inactive)
    1  A    between atoms: N_5  and  C_24
    2  A    between atoms: C_6  and  C_14
    3  A    between atoms: C_7  and  C_24
                            x       y       z     vdW  Elec       q    Type
                         _______ _______ _______ _____ _____    ______ ____

>  <TORSDO>
F 3

$$$$
=
 OpenBabel11052410503D

 28 31  0  0  1  0  0  0  0  0999 V2000
  160.4570  208.0170  155.4880 C   0  0  0  0  0  3  0  0  0  0  0  0
  160.3590  210.4180  155.0610 N   0  0  0  0  0  2  0  0  0  0  0  0
  160.9200  206.4910  153.6760 C   0  0  0  0  0  3  0  0  0  0  0  0
  161.0060  207.5790  152.7950 C   0  0  0  0  0  0  0  0  0  0  0  0
  160.6440  206.7150  155.0240 C   0  0  0  0  0  3  0  0  0  0  0  0
  160.5480  209.0820  154.5900 C   0  0  0  0  0  0  0  0  0  0  0  0
  160.8160  208.8400  153.2760 N   0  0  0  0  0  0  0  0  0  0  0  0
  161.1240  206.1180  150.7610 C   0  0  0  0  0  3  0  0  0  0  0  0
  161.2990  207.3750  151.3610 C   0  0  0  0  0  0  0  0  0  0  0  0
  162.0410  208.2580  149.2210 C   0  0  0  0  0  3  0  0  0  0  0  0
  162.1590  206.8380  147.2760 O   0  0  0  0  0  0  0  0  0  0  0  0
  162.3150  205.5330  145.3970 O   0  0  0  0  0  0  0  0  0  0  0  0
  161.4010  205.9270  149.4020 C   0  0  0  0  0  0  0  0  0  0  0  0
  161.8640  207.0040  148.6300 C   0  0  0  0  0  0  0  0  0  0  0  0
  161.2160  204.6080  148.7710 C   0  0  0  0  0  0  0  0  0  0  0  0
  161.7590  208.4430  150.5770 C   0  0  0  0  0  3  0  0  0  0  0  0
  161.4280  204.4100  147.2990 C   0  0  0  0  0  2  0  0  0  0  0  0
  160.8520  203.6220  149.4650 O   0  0  0  0  0  0  0  0  0  0  0  0
  161.9950  205.6180  146.6110 C   0  0  0  0  0  0  0  0  0  0  0  0
  160.4710  211.5870  154.2000 C   0  0  0  0  0  2  0  0  0  0  0  0
  159.4340  212.8240  151.6650 C   0  0  0  0  0  2  0  0  0  0  0  0
  157.3820  214.1060  151.3730 C   0  0  0  0  0  2  0  0  0  0  0  0
  159.1670  212.3170  154.1390 C   0  0  0  0  0  0  0  0  0  0  0  0
  159.2700  214.4390  149.7870 C   0  0  0  0  0  1  0  0  0  0  0  0
  157.4270  213.5690  152.7920 C   0  0  0  0  0  2  0  0  0  0  0  0
  158.5160  213.4230  150.6190 C   0  0  1  0  0  3  0  0  0  0  0  0
  158.6950  212.8810  152.9090 N   0  0  0  0  0  0  0  0  0  0  0  0
  158.4720  212.4140  155.1860 O   0  0  0  0  0  0  0  0  0  0  0  0
  3  5  1  0  0  0  0
  4  7  1  0  0  0  0
  4  3  2  0  0  0  0
  5  1  2  0  0  0  0
  6  2  1  0  0  0  0
  6  1  1  0  0  0  0
  7  6  2  0  0  0  0
  8  9  1  0  0  0  0
  9  4  1  0  0  0  0
 10 16  1  0  0  0  0
 11 14  1  0  0  0  0
 12 19  2  0  0  0  0
 13  8  2  0  0  0  0
 14 10  2  0  0  0  0
 14 13  1  0  0  0  0
 15 13  1  0  0  0  0
 15 18  2  0  0  0  0
 16  9  2  0  0  0  0
 17 15  1  0  0  0  0
 19 11  1  0  0  0  0
 19 17  1  0  0  0  0
 20  2  1  0  0  0  0
 21 27  1  0  0  0  0
 22 25  1  0  0  0  0
 23 20  1  0  0  0  0
 23 28  2  0  0  0  0
 25 27  1  0  0  0  0
 26 24  1  1  0  0  0
 26 22  1  0  0  0  0
 26 21  1  0  0  0  0
 27 23  1  0  0  0  0
M  END
>  <MODEL>
4

>  <REMARK>
 VINA RESULT:      -9.2      3.361      4.605
  Name = 
  3 active torsions:
  status: ('A' for Active; 'I' for Inactive)
    1  A    between atoms: N_5  and  C_24
    2  A    between atoms: C_6  and  C_14
    3  A    between atoms: C_7  and  C_24
                            x       y       z     vdW  Elec       q    Type
                         _______ _______ _______ _____ _____    ______ ____

>  <TORSDO>
F 3

$$$$
=
 OpenBabel11052410503D

 28 31  0  0  1  0  0  0  0  0999 V2000
  161.3620  207.8400  153.6130 C   0  0  0  0  0  3  0  0  0  0  0  0
  161.7430  209.7680  152.1650 N   0  0  0  0  0  2  0  0  0  0  0  0
  161.0950  205.6440  152.6460 C   0  0  0  0  0  3  0  0  0  0  0  0
  161.2570  206.1980  151.3670 C   0  0  0  0  0  0  0  0  0  0  0  0
  161.1470  206.4710  153.7670 C   0  0  0  0  0  3  0  0  0  0  0  0
  161.5210  208.3660  152.3290 C   0  0  0  0  0  0  0  0  0  0  0  0
  161.4640  207.5400  151.2460 N   0  0  0  0  0  0  0  0  0  0  0  0
  161.0510  203.9580  150.2620 C   0  0  0  0  0  3  0  0  0  0  0  0
  161.2090  205.3490  150.1590 C   0  0  0  0  0  0  0  0  0  0  0  0
  161.2800  205.1320  147.7390 C   0  0  0  0  0  3  0  0  0  0  0  0
  161.0910  202.9690  146.6900 O   0  0  0  0  0  0  0  0  0  0  0  0
  160.9400  200.9390  145.6350 O   0  0  0  0  0  0  0  0  0  0  0  0
  161.0050  203.1550  149.1150 C   0  0  0  0  0  0  0  0  0  0  0  0
  161.1220  203.7470  147.8480 C   0  0  0  0  0  0  0  0  0  0  0  0
  160.8360  201.6950  149.2220 C   0  0  0  0  0  0  0  0  0  0  0  0
  161.3220  205.9270  148.8860 C   0  0  0  0  0  3  0  0  0  0  0  0
  160.7010  200.8340  148.0010 C   0  0  0  0  0  2  0  0  0  0  0  0
  160.7830  201.1470  150.3550 O   0  0  0  0  0  0  0  0  0  0  0  0
  160.9230  201.5800  146.7180 C   0  0  0  0  0  0  0  0  0  0  0  0
  161.9530  210.3930  150.8660 C   0  0  0  0  0  2  0  0  0  0  0  0
  161.7740  211.9660  148.3130 C   0  0  0  0  0  2  0  0  0  0  0  0
  160.5680  214.0510  147.9390 C   0  0  0  0  0  2  0  0  0  0  0  0
  161.1390  211.6420  150.7510 C   0  0  0  0  0  0  0  0  0  0  0  0
  162.4980  213.4730  146.4780 C   0  0  0  0  0  1  0  0  0  0  0  0
  160.2660  213.5550  149.3410 C   0  0  0  0  0  2  0  0  0  0  0  0
  161.3060  212.9210  147.2330 C   0  0  1  0  0  3  0  0  0  0  0  0
  161.0630  212.3590  149.5130 N   0  0  0  0  0  0  0  0  0  0  0  0
  160.5000  212.0490  151.7570 O   0  0  0  0  0  0  0  0  0  0  0  0
  1  5  2  0  0  0  0
  2  6  1  0  0  0  0
  3  5  1  0  0  0  0
  4  3  2  0  0  0  0
  6  1  1  0  0  0  0
  7  4  1  0  0  0  0
  7  6  2  0  0  0  0
  9  8  1  0  0  0  0
  9  4  1  0  0  0  0
 10 14  2  0  0  0  0
 10 16  1  0  0  0  0
 11 19  1  0  0  0  0
 11 14  1  0  0  0  0
 12 19  2  0  0  0  0
 13 15  1  0  0  0  0
 13  8  2  0  0  0  0
 14 13  1  0  0  0  0
 15 18  2  0  0  0  0
 16  9  2  0  0  0  0
 17 15  1  0  0  0  0
 19 17  1  0  0  0  0
 20  2  1  0  0  0  0
 21 27  1  0  0  0  0
 22 25  1  0  0  0  0
 23 20  1  0  0  0  0
 23 28  2  0  0  0  0
 25 27  1  0  0  0  0
 26 24  1  1  0  0  0
 26 22  1  0  0  0  0
 26 21  1  0  0  0  0
 27 23  1  0  0  0  0
M  END
>  <MODEL>
5

>  <REMARK>
 VINA RESULT:      -9.0      1.711      2.662
  Name = 
  3 active torsions:
  status: ('A' for Active; 'I' for Inactive)
    1  A    between atoms: N_5  and  C_24
    2  A    between atoms: C_6  and  C_14
    3  A    between atoms: C_7  and  C_24
                            x       y       z     vdW  Elec       q    Type
                         _______ _______ _______ _____ _____    ______ ____

>  <TORSDO>
F 3

$$$$
=
 OpenBabel11052410503D

 28 31  0  0  1  0  0  0  0  0999 V2000
  161.7890  210.3600  150.8500 C   0  0  0  0  0  3  0  0  0  0  0  0
  161.2170  209.4670  153.0480 N   0  0  0  0  0  2  0  0  0  0  0  0
  161.9620  208.8730  148.9560 C   0  0  0  0  0  3  0  0  0  0  0  0
  161.6420  207.7900  149.7890 C   0  0  0  0  0  0  0  0  0  0  0  0
  162.0350  210.1580  149.4920 C   0  0  0  0  0  3  0  0  0  0  0  0
  161.4720  209.2650  151.6570 C   0  0  0  0  0  0  0  0  0  0  0  0
  161.4080  208.0170  151.1130 N   0  0  0  0  0  0  0  0  0  0  0  0
  161.3070  205.3250  150.0970 C   0  0  0  0  0  3  0  0  0  0  0  0
  161.5550  206.4170  149.2500 C   0  0  0  0  0  0  0  0  0  0  0  0
  161.6390  204.8930  147.3590 C   0  0  0  0  0  3  0  0  0  0  0  0
  161.3250  202.5230  147.6720 O   0  0  0  0  0  0  0  0  0  0  0  0
  161.0580  200.2580  147.9080 O   0  0  0  0  0  0  0  0  0  0  0  0
  161.2230  204.0240  149.5840 C   0  0  0  0  0  0  0  0  0  0  0  0
  161.3920  203.8100  148.2080 C   0  0  0  0  0  0  0  0  0  0  0  0
  160.9620  202.8780  150.4720 C   0  0  0  0  0  0  0  0  0  0  0  0
  161.7180  206.1880  147.8760 C   0  0  0  0  0  3  0  0  0  0  0  0
  160.7860  201.4920  149.9250 C   0  0  0  0  0  2  0  0  0  0  0  0
  160.8610  203.0530  151.7150 O   0  0  0  0  0  0  0  0  0  0  0  0
  161.0690  201.3910  148.4540 C   0  0  0  0  0  0  0  0  0  0  0  0
  160.8460  208.3870  153.9530 C   0  0  0  0  0  2  0  0  0  0  0  0
  159.0640  210.5610  155.0140 C   0  0  0  0  0  2  0  0  0  0  0  0
  159.0550  211.5040  157.2610 C   0  0  0  0  0  2  0  0  0  0  0  0
  160.9070  208.8510  155.3730 C   0  0  0  0  0  0  0  0  0  0  0  0
  158.1840  212.8560  155.3610 C   0  0  0  0  0  1  0  0  0  0  0  0
  160.0300  210.3430  157.2210 C   0  0  0  0  0  2  0  0  0  0  0  0
  158.2830  211.4630  155.9480 C   0  0  1  0  0  3  0  0  0  0  0  0
  160.0310  209.8800  155.8500 N   0  0  0  0  0  0  0  0  0  0  0  0
  161.7310  208.3090  156.1570 O   0  0  0  0  0  0  0  0  0  0  0  0
  1  6  1  0  0  0  0
  2 20  1  0  0  0  0
  3  5  1  0  0  0  0
  3  4  2  0  0  0  0
  4  7  1  0  0  0  0
  5  1  2  0  0  0  0
  6  2  1  0  0  0  0
  7  6  2  0  0  0  0
  9  4  1  0  0  0  0
  9  8  2  0  0  0  0
 10 16  2  0  0  0  0
 10 14  1  0  0  0  0
 11 14  1  0  0  0  0
 11 19  1  0  0  0  0
 12 19  2  0  0  0  0
 13  8  1  0  0  0  0
 13 15  1  0  0  0  0
 14 13  2  0  0  0  0
 15 18  2  0  0  0  0
 16  9  1  0  0  0  0
 17 15  1  0  0  0  0
 19 17  1  0  0  0  0
 20 23  1  0  0  0  0
 21 27  1  0  0  0  0
 21 26  1  0  0  0  0
 23 27  1  0  0  0  0
 23 28  2  0  0  0  0
 25 22  1  0  0  0  0
 26 24  1  6  0  0  0
 26 22  1  0  0  0  0
 27 25  1  0  0  0  0
M  END
>  <MODEL>
6

>  <REMARK>
 VINA RESULT:      -9.0      3.346      5.848
  Name = 
  3 active torsions:
  status: ('A' for Active; 'I' for Inactive)
    1  A    between atoms: N_5  and  C_24
    2  A    between atoms: C_6  and  C_14
    3  A    between atoms: C_7  and  C_24
                            x       y       z     vdW  Elec       q    Type
                         _______ _______ _______ _____ _____    ______ ____

>  <TORSDO>
F 3

$$$$
=
 OpenBabel11052410503D

 28 31  0  0  1  0  0  0  0  0999 V2000
  160.9100  208.3930  154.7850 C   0  0  0  0  0  3  0  0  0  0  0  0
  160.5570  210.3430  153.3620 N   0  0  0  0  0  2  0  0  0  0  0  0
  161.1830  206.2100  153.7890 C   0  0  0  0  0  3  0  0  0  0  0  0
  161.0360  206.7840  152.5180 C   0  0  0  0  0  0  0  0  0  0  0  0
  161.1180  207.0200  154.9220 C   0  0  0  0  0  3  0  0  0  0  0  0
  160.7680  208.9380  153.5080 C   0  0  0  0  0  0  0  0  0  0  0  0
  160.8320  208.1280  152.4140 N   0  0  0  0  0  0  0  0  0  0  0  0
  161.4270  206.5200  150.0560 C   0  0  0  0  0  3  0  0  0  0  0  0
  161.1020  205.9530  151.2970 C   0  0  0  0  0  0  0  0  0  0  0  0
  160.8970  203.7840  150.2190 C   0  0  0  0  0  3  0  0  0  0  0  0
  161.2670  203.5470  147.8480 O   0  0  0  0  0  0  0  0  0  0  0  0
  161.5820  203.2630  145.5950 O   0  0  0  0  0  0  0  0  0  0  0  0
  161.4900  205.7300  148.9010 C   0  0  0  0  0  0  0  0  0  0  0  0
  161.2220  204.3550  148.9850 C   0  0  0  0  0  0  0  0  0  0  0  0
  161.8330  206.3240  147.5970 C   0  0  0  0  0  0  0  0  0  0  0  0
  160.8390  204.5770  151.3670 C   0  0  0  0  0  3  0  0  0  0  0  0
  161.9870  205.4770  146.3690 C   0  0  0  0  0  2  0  0  0  0  0  0
  162.0240  207.5660  147.5000 O   0  0  0  0  0  0  0  0  0  0  0  0
  161.5960  204.0430  146.5820 C   0  0  0  0  0  0  0  0  0  0  0  0
  160.4330  210.9980  152.0660 C   0  0  0  0  0  2  0  0  0  0  0  0
  158.1170  211.3520  153.9470 C   0  0  0  0  0  2  0  0  0  0  0  0
  156.7620  213.3520  154.2690 C   0  0  0  0  0  2  0  0  0  0  0  0
  159.7050  212.2970  152.2060 C   0  0  0  0  0  0  0  0  0  0  0  0
  155.8070  211.1230  154.8290 C   0  0  0  0  0  1  0  0  0  0  0  0
  157.8990  213.6780  153.3180 C   0  0  0  0  0  2  0  0  0  0  0  0
  157.0610  211.9730  154.8410 C   0  0  1  0  0  3  0  0  0  0  0  0
  158.6140  212.4350  153.1240 N   0  0  0  0  0  0  0  0  0  0  0  0
  160.0790  213.2830  151.5150 O   0  0  0  0  0  0  0  0  0  0  0  0
  1  5  2  0  0  0  0
  2  6  1  0  0  0  0
  3  5  1  0  0  0  0
  4  3  2  0  0  0  0
  6  1  1  0  0  0  0
  7  4  1  0  0  0  0
  7  6  2  0  0  0  0
  8  9  1  0  0  0  0
  9 16  2  0  0  0  0
  9  4  1  0  0  0  0
 10 16  1  0  0  0  0
 11 14  1  0  0  0  0
 12 19  2  0  0  0  0
 13 14  1  0  0  0  0
 13  8  2  0  0  0  0
 14 10  2  0  0  0  0
 15 13  1  0  0  0  0
 17 19  1  0  0  0  0
 17 15  1  0  0  0  0
 18 15  2  0  0  0  0
 19 11  1  0  0  0  0
 20 23  1  0  0  0  0
 20  2  1  0  0  0  0
 21 26  1  0  0  0  0
 22 26  1  0  0  0  0
 23 27  1  0  0  0  0
 25 22  1  0  0  0  0
 26 24  1  6  0  0  0
 27 25  1  0  0  0  0
 27 21  1  0  0  0  0
 28 23  2  0  0  0  0
M  END
>  <MODEL>
7

>  <REMARK>
 VINA RESULT:      -8.8      3.514      4.498
  Name = 
  3 active torsions:
  status: ('A' for Active; 'I' for Inactive)
    1  A    between atoms: N_5  and  C_24
    2  A    between atoms: C_6  and  C_14
    3  A    between atoms: C_7  and  C_24
                            x       y       z     vdW  Elec       q    Type
                         _______ _______ _______ _____ _____    ______ ____

>  <TORSDO>
F 3

$$$$
=
 OpenBabel11052410503D

 28 31  0  0  1  0  0  0  0  0999 V2000
  160.9820  207.7150  154.5210 C   0  0  0  0  0  3  0  0  0  0  0  0
  160.4900  209.8390  153.4250 N   0  0  0  0  0  2  0  0  0  0  0  0
  161.2950  205.7210  153.1960 C   0  0  0  0  0  3  0  0  0  0  0  0
  161.0690  206.4720  152.0320 C   0  0  0  0  0  0  0  0  0  0  0  0
  161.2500  206.3490  154.4400 C   0  0  0  0  0  3  0  0  0  0  0  0
  160.7630  208.4390  153.3480 C   0  0  0  0  0  0  0  0  0  0  0  0
  160.8090  207.8060  152.1420 N   0  0  0  0  0  0  0  0  0  0  0  0
  160.9740  204.4480  150.5570 C   0  0  0  0  0  3  0  0  0  0  0  0
  161.1130  205.8370  150.6990 C   0  0  0  0  0  0  0  0  0  0  0  0
  161.3390  206.0310  148.2860 C   0  0  0  0  0  3  0  0  0  0  0  0
  161.2550  204.0740  146.8800 O   0  0  0  0  0  0  0  0  0  0  0  0
  161.2080  202.2490  145.4930 O   0  0  0  0  0  0  0  0  0  0  0  0
  161.0140  203.8490  149.2910 C   0  0  0  0  0  0  0  0  0  0  0  0
  161.1990  204.6470  148.1520 C   0  0  0  0  0  0  0  0  0  0  0  0
  160.8670  202.3900  149.1410 C   0  0  0  0  0  0  0  0  0  0  0  0
  161.2940  206.6230  149.5510 C   0  0  0  0  0  3  0  0  0  0  0  0
  160.8240  201.7460  147.7870 C   0  0  0  0  0  2  0  0  0  0  0  0
  160.7530  201.6600  150.1600 O   0  0  0  0  0  0  0  0  0  0  0  0
  161.1120  202.6990  146.6640 C   0  0  0  0  0  0  0  0  0  0  0  0
  160.2830  210.6750  152.2500 C   0  0  0  0  0  2  0  0  0  0  0  0
  158.1800  210.9070  154.3830 C   0  0  0  0  0  2  0  0  0  0  0  0
  157.0290  212.9270  155.1140 C   0  0  0  0  0  2  0  0  0  0  0  0
  159.6810  211.9860  152.6410 C   0  0  0  0  0  0  0  0  0  0  0  0
  155.9470  210.7110  155.4500 C   0  0  0  0  0  1  0  0  0  0  0  0
  158.1000  213.3100  154.1110 C   0  0  0  0  0  2  0  0  0  0  0  0
  157.2630  211.4610  155.4550 C   0  0  1  0  0  3  0  0  0  0  0  0
  158.6910  212.0630  153.6740 N   0  0  0  0  0  0  0  0  0  0  0  0
  160.0720  213.0350  152.0620 O   0  0  0  0  0  0  0  0  0  0  0  0
  3  5  1  0  0  0  0
  4  7  1  0  0  0  0
  4  3  2  0  0  0  0
  5  1  2  0  0  0  0
  6  2  1  0  0  0  0
  6  1  1  0  0  0  0
  7  6  2  0  0  0  0
  8  9  1  0  0  0  0
  9  4  1  0  0  0  0
 10 16  1  0  0  0  0
 11 14  1  0  0  0  0
 12 19  2  0  0  0  0
 13  8  2  0  0  0  0
 14 10  2  0  0  0  0
 14 13  1  0  0  0  0
 15 13  1  0  0  0  0
 15 18  2  0  0  0  0
 16  9  2  0  0  0  0
 17 15  1  0  0  0  0
 19 11  1  0  0  0  0
 19 17  1  0  0  0  0
 20 23  1  0  0  0  0
 20  2  1  0  0  0  0
 21 26  1  0  0  0  0
 22 26  1  0  0  0  0
 23 27  1  0  0  0  0
 25 22  1  0  0  0  0
 26 24  1  6  0  0  0
 27 25  1  0  0  0  0
 27 21  1  0  0  0  0
 28 23  2  0  0  0  0
M  END
>  <MODEL>
8

>  <REMARK>
 VINA RESULT:      -8.7      3.689      4.948
  Name = 
  3 active torsions:
  status: ('A' for Active; 'I' for Inactive)
    1  A    between atoms: N_5  and  C_24
    2  A    between atoms: C_6  and  C_14
    3  A    between atoms: C_7  and  C_24
                            x       y       z     vdW  Elec       q    Type
                         _______ _______ _______ _____ _____    ______ ____

>  <TORSDO>
F 3

$$$$
=
 OpenBabel11052410503D

 28 31  0  0  1  0  0  0  0  0999 V2000
  161.9130  209.9690  151.4520 C   0  0  0  0  0  3  0  0  0  0  0  0
  161.3300  208.9970  153.6130 N   0  0  0  0  0  2  0  0  0  0  0  0
  161.9660  208.5760  149.4810 C   0  0  0  0  0  3  0  0  0  0  0  0
  161.6000  207.4710  150.2650 C   0  0  0  0  0  0  0  0  0  0  0  0
  162.1230  209.8250  150.0810 C   0  0  0  0  0  3  0  0  0  0  0  0
  161.5480  208.8540  152.2080 C   0  0  0  0  0  0  0  0  0  0  0  0
  161.4020  207.6420  151.6030 N   0  0  0  0  0  0  0  0  0  0  0  0
  161.5570  205.9480  148.2740 C   0  0  0  0  0  3  0  0  0  0  0  0
  161.4240  206.1350  149.6590 C   0  0  0  0  0  0  0  0  0  0  0  0
  160.9490  203.7630  149.9030 C   0  0  0  0  0  3  0  0  0  0  0  0
  160.9020  202.3120  147.9780 O   0  0  0  0  0  0  0  0  0  0  0  0
  160.8180  200.8860  146.1840 O   0  0  0  0  0  0  0  0  0  0  0  0
  161.3910  204.6800  147.7030 C   0  0  0  0  0  0  0  0  0  0  0  0
  161.0840  203.5840  148.5230 C   0  0  0  0  0  0  0  0  0  0  0  0
  161.5320  204.4820  146.2490 C   0  0  0  0  0  0  0  0  0  0  0  0
  161.1190  205.0300  150.4670 C   0  0  0  0  0  3  0  0  0  0  0  0
  161.4400  203.1170  145.6350 C   0  0  0  0  0  2  0  0  0  0  0  0
  161.7560  205.4680  145.4980 O   0  0  0  0  0  0  0  0  0  0  0  0
  161.0320  202.0510  146.6100 C   0  0  0  0  0  0  0  0  0  0  0  0
  160.9140  207.8940  154.4690 C   0  0  0  0  0  2  0  0  0  0  0  0
  159.5650  210.5490  154.8710 C   0  0  0  0  0  2  0  0  0  0  0  0
  158.9240  211.5800  156.9830 C   0  0  0  0  0  2  0  0  0  0  0  0
  160.5290  208.4010  155.8220 C   0  0  0  0  0  0  0  0  0  0  0  0
  159.3220  213.0170  154.9910 C   0  0  0  0  0  1  0  0  0  0  0  0
  159.4520  210.1850  157.2600 C   0  0  0  0  0  2  0  0  0  0  0  0
  158.7700  211.6910  155.4720 C   0  0  1  0  0  3  0  0  0  0  0  0
  159.8720  209.6650  155.9760 N   0  0  0  0  0  0  0  0  0  0  0  0
  160.7710  207.6880  156.8330 O   0  0  0  0  0  0  0  0  0  0  0  0
  1  6  1  0  0  0  0
  2 20  1  0  0  0  0
  3  5  1  0  0  0  0
  3  4  2  0  0  0  0
  4  7  1  0  0  0  0
  5  1  2  0  0  0  0
  6  2  1  0  0  0  0
  7  6  2  0  0  0  0
  8  9  1  0  0  0  0
  9  4  1  0  0  0  0
  9 16  2  0  0  0  0
 10 16  1  0  0  0  0
 11 14  1  0  0  0  0
 12 19  2  0  0  0  0
 13  8  2  0  0  0  0
 13 14  1  0  0  0  0
 14 10  2  0  0  0  0
 15 13  1  0  0  0  0
 17 15  1  0  0  0  0
 17 19  1  0  0  0  0
 18 15  2  0  0  0  0
 19 11  1  0  0  0  0
 20 23  1  0  0  0  0
 21 26  1  0  0  0  0
 21 27  1  0  0  0  0
 22 25  1  0  0  0  0
 23 27  1  0  0  0  0
 23 28  2  0  0  0  0
 26 24  1  6  0  0  0
 26 22  1  0  0  0  0
 27 25  1  0  0  0  0
M  END
>  <MODEL>
9

>  <REMARK>
 VINA RESULT:      -8.5      3.299      5.545
  Name = 
  3 active torsions:
  status: ('A' for Active; 'I' for Inactive)
    1  A    between atoms: N_5  and  C_24
    2  A    between atoms: C_6  and  C_14
    3  A    between atoms: C_7  and  C_24
                            x       y       z     vdW  Elec       q    Type
                         _______ _______ _______ _____ _____    ______ ____

>  <TORSDO>
F 3

$$$$
