=
 OpenBabel11052411503D

 40 41  0  0  1  0  0  0  0  0999 V2000
  160.6760  206.7490  153.5370 C   0  0  2  0  0  3  0  0  0  0  0  0
  161.2320  208.5870  152.1000 C   0  0  0  0  0  3  0  0  0  0  0  0
  161.0120  207.3200  152.2410 N   0  0  0  0  0  0  0  0  0  0  0  0
  161.5800  210.5750  150.5650 C   0  0  0  0  0  0  0  0  0  0  0  0
  162.1930  210.1800  148.2860 N   0  0  0  0  0  0  0  0  0  0  0  0
  162.1880  208.8350  148.4880 C   0  0  0  0  0  3  0  0  0  0  0  0
  161.8700  208.3160  149.7440 C   0  0  0  0  0  3  0  0  0  0  0  0
  161.5610  209.1830  150.7930 C   0  0  0  0  0  0  0  0  0  0  0  0
  161.8980  211.0600  149.2860 C   0  0  0  0  0  0  0  0  0  0  0  0
  161.2800  211.4530  151.5580 F   0  0  0  0  0  0  0  0  0  0  0  0
  160.6810  213.0420  148.3900 C   0  0  0  0  0  0  0  0  0  0  0  0
  162.9320  212.8750  147.9680 C   0  0  0  0  0  3  0  0  0  0  0  0
  162.3540  213.4670  146.9260 C   0  0  0  0  0  3  0  0  0  0  0  0
  161.9240  212.5430  149.0370 C   0  0  2  0  0  3  0  0  0  0  0  0
  159.9930  213.9230  146.0920 C   0  0  0  0  0  1  0  0  0  0  0  0
  160.9600  213.6200  147.1300 N   0  0  0  0  0  0  0  0  0  0  0  0
  159.5240  212.9650  148.8830 O   0  0  0  0  0  0  0  0  0  0  0  0
  161.3590  207.5320  154.6500 C   0  0  0  0  0  2  0  0  0  0  0  0
  159.5680  210.5170  155.5150 C   0  0  0  0  0  0  0  0  0  0  0  0
  160.3420  208.0300  155.6180 C   0  0  0  0  0  3  0  0  0  0  0  0
  158.2350  210.8280  155.2890 O   0  0  0  0  0  1  0  0  0  0  0  0
  159.9460  209.2700  155.5680 C   0  0  0  0  0  0  0  0  0  0  0  0
  160.5720  211.6040  155.7130 C   0  0  0  0  0  2  0  0  0  0  0  0
  162.8340  210.8800  155.9550 O   0  0  0  0  0  1  0  0  0  0  0  0
  161.6680  211.1580  156.6680 C   0  0  0  0  0  2  0  0  0  0  0  0
  161.1500  205.3030  153.5840 C   0  0  0  0  0  2  0  0  0  0  0  0
  161.5290  204.8010  152.1990 C   0  0  0  0  0  2  0  0  0  0  0  0
  160.5680  203.7200  151.7170 C   0  0  0  0  0  2  0  0  0  0  0  0
  161.2490  202.3570  151.6430 C   0  0  0  0  0  2  0  0  0  0  0  0
  160.9970  201.7280  150.3550 N   0  0  0  0  0  2  0  0  0  0  0  0
  160.2940  202.6180  149.6140 O   0  0  0  0  0  0  0  0  0  0  0  0
  160.7170  202.3940  148.3010 C   0  0  2  0  0  3  0  0  0  0  0  0
  161.4040  201.0410  148.2320 C   0  0  0  0  0  1  0  0  0  0  0  0
  161.6700  203.5000  147.8460 C   0  0  2  0  0  3  0  0  0  0  0  0
  161.4060  204.6840  148.5420 O   0  0  0  0  0  1  0  0  0  0  0  0
  161.4820  203.8130  146.0590 P   0  0  2  0  0  0  0  0  0  0  0  0
  160.8650  202.6020  145.3950 O   0  0  0  0  0  1  0  0  0  0  0  0
  163.0120  204.0870  145.3920 O   0  0  0  0  0  0  0  0  0  0  0  0
  161.1280  205.8840  144.7510 C   0  0  0  0  0  1  0  0  0  0  0  0
  160.5110  205.1820  145.7880 O   0  0  0  0  0  0  0  0  0  0  0  0
  1 26  1  6  0  0  0
  1 18  1  0  0  0  0
  2  3  2  0  0  0  0
  3  1  1  0  0  0  0
  4  8  1  0  0  0  0
  4 10  1  0  0  0  0
  5  6  2  0  0  0  0
  5  9  1  0  0  0  0
  6  7  1  0  0  0  0
  7  8  2  0  0  0  0
  8  2  1  0  0  0  0
  9  4  2  0  0  0  0
 11 17  2  0  0  0  0
 11 14  1  0  0  0  0
 12 14  1  0  0  0  0
 13 16  1  0  0  0  0
 13 12  2  0  0  0  0
 14  9  1  6  0  0  0
 15 16  1  0  0  0  0
 16 11  1  0  0  0  0
 18 20  1  0  0  0  0
 19 22  2  0  0  0  0
 19 23  1  0  0  0  0
 21 19  1  0  0  0  0
 22 20  2  0  0  0  0
 23 25  1  0  0  0  0
 24 25  1  0  0  0  0
 27 26  1  0  0  0  0
 28 27  1  0  0  0  0
 29 28  1  0  0  0  0
 30 29  1  0  0  0  0
 31 30  1  0  0  0  0
 32 33  1  1  0  0  0
 32 31  1  0  0  0  0
 34 32  1  0  0  0  0
 34 35  1  1  0  0  0
 36 38  2  6  0  0  0
 36 34  1  0  0  0  0
 37 36  1  0  0  0  0
 39 40  1  0  0  0  0
 40 36  1  0  0  0  0
M  END
>  <MODEL>
1

>  <REMARK>
 VINA RESULT:      -6.8      0.000      0.000
  Name = 
  17 active torsions:
  status: ('A' for Active; 'I' for Inactive)
    1  A    between atoms: C_3  and  C_37
    2  A    between atoms: C_3  and  C_40
    3  A    between atoms: P_5  and  C_6
    4  A    between atoms: P_5  and  O_29
    5  A    between atoms: C_6  and  C_33
    6  A    between atoms: C_8  and  C_19
    7  A    between atoms: C_13  and  C_23
    8  A    between atoms: C_14  and  C_22
    9  A    between atoms: C_18  and  C_25
   10  A    between atoms: C_19  and  C_32
   11  A    between atoms: N_20  and  C_40
   12  A    between atoms: C_22  and  C_40
   13  A    between atoms: C_24  and  C_27
   14  A    between atoms: C_24  and  N_36
   15  A    between atoms: C_27  and  C_37
   16  A    between atoms: C_33  and  O_34
   17  A    between atoms: O_34  and  N_36
                            x       y       z     vdW  Elec       q    Type
                         _______ _______ _______ _____ _____    ______ ____

>  <TORSDO>
F 17

$$$$
=
 OpenBabel11052411503D

 40 41  0  0  1  0  0  0  0  0999 V2000
  161.2160  206.7570  151.2670 C   0  0  2  0  0  3  0  0  0  0  0  0
  161.0520  208.3500  153.0510 C   0  0  0  0  0  3  0  0  0  0  0  0
  160.9130  207.1310  152.6400 N   0  0  0  0  0  0  0  0  0  0  0  0
  160.0660  209.9240  154.7780 C   0  0  0  0  0  0  0  0  0  0  0  0
  160.2830  209.3750  157.0960 N   0  0  0  0  0  0  0  0  0  0  0  0
  160.9480  208.2290  156.7930 C   0  0  0  0  0  3  0  0  0  0  0  0
  161.2000  207.8970  155.4600 C   0  0  0  0  0  3  0  0  0  0  0  0
  160.7630  208.7440  154.4420 C   0  0  0  0  0  0  0  0  0  0  0  0
  159.8370  210.2280  156.1300 C   0  0  0  0  0  0  0  0  0  0  0  0
  159.6270  210.7780  153.8160 F   0  0  0  0  0  0  0  0  0  0  0  0
  157.8790  211.6960  155.6590 C   0  0  0  0  0  0  0  0  0  0  0  0
  159.8950  212.6970  156.1150 C   0  0  0  0  0  3  0  0  0  0  0  0
  159.2390  213.4560  155.2410 C   0  0  0  0  0  3  0  0  0  0  0  0
  159.0910  211.4820  156.4950 C   0  0  2  0  0  3  0  0  0  0  0  0
  157.1490  213.2880  153.7980 C   0  0  0  0  0  1  0  0  0  0  0  0
  157.9720  212.9040  154.9300 N   0  0  0  0  0  0  0  0  0  0  0  0
  156.8930  210.9150  155.5950 O   0  0  0  0  0  0  0  0  0  0  0  0
  161.5770  205.2800  151.1900 C   0  0  0  0  0  2  0  0  0  0  0  0
  161.3830  203.5900  148.0330 C   0  0  0  0  0  0  0  0  0  0  0  0
  160.6020  204.5640  150.3200 C   0  0  0  0  0  3  0  0  0  0  0  0
  161.2850  202.2290  147.7790 O   0  0  0  0  0  1  0  0  0  0  0  0
  160.9870  204.0690  149.1790 C   0  0  0  0  0  0  0  0  0  0  0  0
  161.9270  204.5120  146.9930 C   0  0  0  0  0  2  0  0  0  0  0  0
  160.7720  204.3790  144.9080 O   0  0  0  0  0  1  0  0  0  0  0  0
  161.8620  203.8710  145.6160 C   0  0  0  0  0  2  0  0  0  0  0  0
  162.3940  207.5840  150.7720 C   0  0  0  0  0  2  0  0  0  0  0  0
  162.4870  207.5590  149.2530 C   0  0  0  0  0  2  0  0  0  0  0  0
  161.9190  208.8350  148.6410 C   0  0  0  0  0  2  0  0  0  0  0  0
  162.0150  210.0110  149.6070 C   0  0  0  0  0  2  0  0  0  0  0  0
  162.3150  211.2410  148.8900 N   0  0  0  0  0  2  0  0  0  0  0  0
  161.3460  211.3960  147.9560 O   0  0  0  0  0  0  0  0  0  0  0  0
  161.7130  212.5480  147.2560 C   0  0  2  0  0  3  0  0  0  0  0  0
  162.9040  213.1850  147.9510 C   0  0  0  0  0  1  0  0  0  0  0  0
  160.5450  213.5340  147.1910 C   0  0  2  0  0  3  0  0  0  0  0  0
  159.5390  213.1540  148.0850 O   0  0  0  0  0  1  0  0  0  0  0  0
  159.8450  213.5880  145.5070 P   0  0  2  0  0  0  0  0  0  0  0  0
  158.4780  214.2340  145.5480 O   0  0  0  0  0  1  0  0  0  0  0  0
  159.6890  212.0040  144.9340 O   0  0  0  0  0  0  0  0  0  0  0  0
  160.8600  213.7460  143.2560 C   0  0  0  0  0  1  0  0  0  0  0  0
  160.8660  214.4530  144.4600 O   0  0  0  0  0  0  0  0  0  0  0  0
  1 26  1  1  0  0  0
  1  3  1  0  0  0  0
  2  8  1  0  0  0  0
  3  2  2  0  0  0  0
  4  9  1  0  0  0  0
  6  5  1  0  0  0  0
  7  6  2  0  0  0  0
  8  4  2  0  0  0  0
  8  7  1  0  0  0  0
  9  5  2  0  0  0  0
 10  4  1  0  0  0  0
 11 14  1  0  0  0  0
 12 14  1  0  0  0  0
 13 12  2  0  0  0  0
 14  9  1  6  0  0  0
 15 16  1  0  0  0  0
 16 13  1  0  0  0  0
 16 11  1  0  0  0  0
 17 11  2  0  0  0  0
 18  1  1  0  0  0  0
 19 22  2  0  0  0  0
 20 18  1  0  0  0  0
 21 19  1  0  0  0  0
 22 20  2  0  0  0  0
 23 19  1  0  0  0  0
 24 25  1  0  0  0  0
 25 23  1  0  0  0  0
 27 26  1  0  0  0  0
 28 27  1  0  0  0  0
 28 29  1  0  0  0  0
 30 29  1  0  0  0  0
 31 30  1  0  0  0  0
 32 33  1  1  0  0  0
 32 31  1  0  0  0  0
 34 32  1  0  0  0  0
 34 35  1  1  0  0  0
 36 38  2  6  0  0  0
 36 37  1  0  0  0  0
 36 34  1  0  0  0  0
 39 40  1  0  0  0  0
 40 36  1  0  0  0  0
M  END
>  <MODEL>
2

>  <REMARK>
 VINA RESULT:      -6.4      2.849      8.389
  Name = 
  17 active torsions:
  status: ('A' for Active; 'I' for Inactive)
    1  A    between atoms: C_3  and  C_37
    2  A    between atoms: C_3  and  C_40
    3  A    between atoms: P_5  and  C_6
    4  A    between atoms: P_5  and  O_29
    5  A    between atoms: C_6  and  C_33
    6  A    between atoms: C_8  and  C_19
    7  A    between atoms: C_13  and  C_23
    8  A    between atoms: C_14  and  C_22
    9  A    between atoms: C_18  and  C_25
   10  A    between atoms: C_19  and  C_32
   11  A    between atoms: N_20  and  C_40
   12  A    between atoms: C_22  and  C_40
   13  A    between atoms: C_24  and  C_27
   14  A    between atoms: C_24  and  N_36
   15  A    between atoms: C_27  and  C_37
   16  A    between atoms: C_33  and  O_34
   17  A    between atoms: O_34  and  N_36
                            x       y       z     vdW  Elec       q    Type
                         _______ _______ _______ _____ _____    ______ ____

>  <TORSDO>
F 17

$$$$
=
 OpenBabel11052411503D

 40 41  0  0  1  0  0  0  0  0999 V2000
  160.5850  208.5870  154.3550 C   0  0  2  0  0  3  0  0  0  0  0  0
  160.9980  209.9680  152.4390 C   0  0  0  0  0  3  0  0  0  0  0  0
  160.9890  208.7890  152.9710 N   0  0  0  0  0  0  0  0  0  0  0  0
  161.3080  211.4470  150.4020 C   0  0  0  0  0  0  0  0  0  0  0  0
  162.1630  210.4760  148.3910 N   0  0  0  0  0  0  0  0  0  0  0  0
  162.2600  209.2580  148.9860 C   0  0  0  0  0  3  0  0  0  0  0  0
  161.8750  209.0950  150.3170 C   0  0  0  0  0  3  0  0  0  0  0  0
  161.3920  210.1900  151.0360 C   0  0  0  0  0  0  0  0  0  0  0  0
  161.6990  211.5700  149.0590 C   0  0  0  0  0  0  0  0  0  0  0  0
  160.8400  212.5370  151.0650 F   0  0  0  0  0  0  0  0  0  0  0  0
  160.5120  212.9830  147.3840 C   0  0  0  0  0  0  0  0  0  0  0  0
  162.8030  213.1090  147.4740 C   0  0  0  0  0  3  0  0  0  0  0  0
  162.4240  213.2810  146.2100 C   0  0  0  0  0  3  0  0  0  0  0  0
  161.6160  212.9090  148.3790 C   0  0  2  0  0  3  0  0  0  0  0  0
  160.2890  213.0660  144.8400 C   0  0  0  0  0  1  0  0  0  0  0  0
  161.0130  213.2350  146.0860 N   0  0  0  0  0  0  0  0  0  0  0  0
  159.2880  212.8410  147.6460 O   0  0  0  0  0  0  0  0  0  0  0  0
  161.4890  209.3780  155.2890 C   0  0  0  0  0  2  0  0  0  0  0  0
  158.3410  211.0840  155.0790 C   0  0  0  0  0  0  0  0  0  0  0  0
  160.7050  210.4450  155.9710 C   0  0  0  0  0  3  0  0  0  0  0  0
  157.2250  210.9540  155.8930 O   0  0  0  0  0  1  0  0  0  0  0  0
  159.5210  210.7650  155.5350 C   0  0  0  0  0  0  0  0  0  0  0  0
  158.2020  211.6030  153.6860 C   0  0  0  0  0  2  0  0  0  0  0  0
  157.4820  213.8200  154.2010 O   0  0  0  0  0  1  0  0  0  0  0  0
  158.5220  213.0880  153.6290 C   0  0  0  0  0  2  0  0  0  0  0  0
  160.6920  207.1070  154.6950 C   0  0  0  0  0  2  0  0  0  0  0  0
  161.6920  206.4030  153.7900 C   0  0  0  0  0  2  0  0  0  0  0  0
  161.0690  205.1860  153.1150 C   0  0  0  0  0  2  0  0  0  0  0  0
  161.8490  204.7750  151.8700 C   0  0  0  0  0  2  0  0  0  0  0  0
  160.9540  204.2280  150.8610 N   0  0  0  0  0  2  0  0  0  0  0  0
  161.6980  204.0240  149.7470 O   0  0  0  0  0  0  0  0  0  0  0  0
  160.7720  203.6500  148.7700 C   0  0  2  0  0  3  0  0  0  0  0  0
  160.5820  202.1450  148.8240 C   0  0  0  0  0  1  0  0  0  0  0  0
  161.2500  204.0780  147.3820 C   0  0  2  0  0  3  0  0  0  0  0  0
  162.6080  203.7820  147.2250 O   0  0  0  0  0  1  0  0  0  0  0  0
  161.0070  205.8700  147.1440 P   0  0  2  0  0  0  0  0  0  0  0  0
  162.3520  206.5630  147.1100 O   0  0  0  0  0  0  0  0  0  0  0  0
  160.1110  206.4740  148.4450 O   0  0  0  0  0  1  0  0  0  0  0  0
  160.9480  205.6460  144.6800 C   0  0  0  0  0  1  0  0  0  0  0  0
  160.1590  206.1750  145.7030 O   0  0  0  0  0  0  0  0  0  0  0  0
  1 26  1  1  0  0  0
  1 18  1  0  0  0  0
  2  3  2  0  0  0  0
  3  1  1  0  0  0  0
  4  8  1  0  0  0  0
  4 10  1  0  0  0  0
  5  6  2  0  0  0  0
  5  9  1  0  0  0  0
  6  7  1  0  0  0  0
  7  8  2  0  0  0  0
  8  2  1  0  0  0  0
  9  4  2  0  0  0  0
 11 17  2  0  0  0  0
 11 14  1  0  0  0  0
 12 14  1  0  0  0  0
 13 12  2  0  0  0  0
 14  9  1  6  0  0  0
 15 16  1  0  0  0  0
 16 13  1  0  0  0  0
 16 11  1  0  0  0  0
 18 20  1  0  0  0  0
 19 22  2  0  0  0  0
 19 21  1  0  0  0  0
 22 20  2  0  0  0  0
 23 19  1  0  0  0  0
 25 23  1  0  0  0  0
 25 24  1  0  0  0  0
 27 26  1  0  0  0  0
 28 27  1  0  0  0  0
 29 28  1  0  0  0  0
 30 29  1  0  0  0  0
 31 30  1  0  0  0  0
 32 33  1  6  0  0  0
 32 31  1  0  0  0  0
 34 35  1  1  0  0  0
 34 32  1  0  0  0  0
 36 37  2  6  0  0  0
 36 34  1  0  0  0  0
 36 38  1  0  0  0  0
 39 40  1  0  0  0  0
 40 36  1  0  0  0  0
M  END
>  <MODEL>
3

>  <REMARK>
 VINA RESULT:      -6.3      1.598      2.244
  Name = 
  17 active torsions:
  status: ('A' for Active; 'I' for Inactive)
    1  A    between atoms: C_3  and  C_37
    2  A    between atoms: C_3  and  C_40
    3  A    between atoms: P_5  and  C_6
    4  A    between atoms: P_5  and  O_29
    5  A    between atoms: C_6  and  C_33
    6  A    between atoms: C_8  and  C_19
    7  A    between atoms: C_13  and  C_23
    8  A    between atoms: C_14  and  C_22
    9  A    between atoms: C_18  and  C_25
   10  A    between atoms: C_19  and  C_32
   11  A    between atoms: N_20  and  C_40
   12  A    between atoms: C_22  and  C_40
   13  A    between atoms: C_24  and  C_27
   14  A    between atoms: C_24  and  N_36
   15  A    between atoms: C_27  and  C_37
   16  A    between atoms: C_33  and  O_34
   17  A    between atoms: O_34  and  N_36
                            x       y       z     vdW  Elec       q    Type
                         _______ _______ _______ _____ _____    ______ ____

>  <TORSDO>
F 17

$$$$
=
 OpenBabel11052411503D

 40 41  0  0  1  0  0  0  0  0999 V2000
  160.9740  207.5720  150.7970 C   0  0  2  0  0  3  0  0  0  0  0  0
  161.2200  205.2110  150.4560 C   0  0  0  0  0  3  0  0  0  0  0  0
  160.8630  206.3650  149.9910 N   0  0  0  0  0  0  0  0  0  0  0  0
  161.3440  203.9540  148.2570 C   0  0  0  0  0  0  0  0  0  0  0  0
  160.9160  201.6000  148.2490 N   0  0  0  0  0  0  0  0  0  0  0  0
  160.7110  201.6030  149.5920 C   0  0  0  0  0  3  0  0  0  0  0  0
  160.8110  202.7940  150.3140 C   0  0  0  0  0  3  0  0  0  0  0  0
  161.1260  203.9800  149.6500 C   0  0  0  0  0  0  0  0  0  0  0  0
  161.2280  202.7380  147.5640 C   0  0  0  0  0  0  0  0  0  0  0  0
  161.6470  205.0880  147.5730 F   0  0  0  0  0  0  0  0  0  0  0  0
  162.0840  203.9520  145.5630 C   0  0  0  0  0  0  0  0  0  0  0  0
  160.1500  202.7330  145.3420 C   0  0  0  0  0  3  0  0  0  0  0  0
  160.0670  203.7980  144.5470 C   0  0  0  0  0  3  0  0  0  0  0  0
  161.4630  202.7020  146.0790 C   0  0  2  0  0  3  0  0  0  0  0  0
  161.3610  205.9530  144.1470 C   0  0  0  0  0  1  0  0  0  0  0  0
  161.2420  204.5860  144.6200 N   0  0  0  0  0  0  0  0  0  0  0  0
  163.2080  204.4010  145.9100 O   0  0  0  0  0  0  0  0  0  0  0  0
  162.2060  208.3670  150.3880 C   0  0  0  0  0  2  0  0  0  0  0  0
  162.1310  211.4960  148.6360 C   0  0  0  0  0  0  0  0  0  0  0  0
  162.0220  208.9200  149.0170 C   0  0  0  0  0  3  0  0  0  0  0  0
  163.0830  212.0390  147.7860 O   0  0  0  0  0  1  0  0  0  0  0  0
  162.0820  210.2050  148.8180 C   0  0  0  0  0  0  0  0  0  0  0  0
  161.1510  212.3800  149.3340 C   0  0  0  0  0  2  0  0  0  0  0  0
  159.8730  213.0330  147.4270 O   0  0  0  0  0  1  0  0  0  0  0  0
  160.7130  213.5200  148.4280 C   0  0  0  0  0  2  0  0  0  0  0  0
  161.0970  207.1840  152.2640 C   0  0  0  0  0  2  0  0  0  0  0  0
  161.0140  208.4060  153.1670 C   0  0  0  0  0  2  0  0  0  0  0  0
  160.8750  208.0060  154.6310 C   0  0  0  0  0  2  0  0  0  0  0  0
  161.5460  209.0170  155.5550 C   0  0  0  0  0  2  0  0  0  0  0  0
  160.5610  209.9280  156.1200 N   0  0  0  0  0  2  0  0  0  0  0  0
  160.9350  211.1800  155.7650 O   0  0  0  0  0  0  0  0  0  0  0  0
  159.7350  211.8400  155.4880 C   0  0  2  0  0  3  0  0  0  0  0  0
  158.6410  211.2550  156.3640 C   0  0  0  0  0  1  0  0  0  0  0  0
  159.3690  211.6970  154.0100 C   0  0  2  0  0  3  0  0  0  0  0  0
  160.5150  211.7970  153.2150 O   0  0  0  0  0  1  0  0  0  0  0  0
  158.1920  212.9980  153.5120 P   0  0  2  0  0  0  0  0  0  0  0  0
  158.2320  213.1680  152.0090 O   0  0  0  0  0  0  0  0  0  0  0  0
  158.6490  214.4530  154.2430 O   0  0  0  0  0  1  0  0  0  0  0  0
  156.1860  213.6780  154.7910 C   0  0  0  0  0  1  0  0  0  0  0  0
  156.6150  212.6040  154.0100 O   0  0  0  0  0  0  0  0  0  0  0  0
  1 18  1  6  0  0  0
  1 26  1  0  0  0  0
  3  2  2  0  0  0  0
  3  1  1  0  0  0  0
  4  8  1  0  0  0  0
  5  6  2  0  0  0  0
  6  7  1  0  0  0  0
  8  7  2  0  0  0  0
  8  2  1  0  0  0  0
  9  5  1  0  0  0  0
  9  4  2  0  0  0  0
 10  4  1  0  0  0  0
 11 17  2  0  0  0  0
 11 14  1  0  0  0  0
 12 14  1  0  0  0  0
 13 16  1  0  0  0  0
 13 12  2  0  0  0  0
 14  9  1  1  0  0  0
 15 16  1  0  0  0  0
 16 11  1  0  0  0  0
 19 22  2  0  0  0  0
 19 23  1  0  0  0  0
 20 18  1  0  0  0  0
 21 19  1  0  0  0  0
 22 20  2  0  0  0  0
 24 25  1  0  0  0  0
 25 23  1  0  0  0  0
 26 27  1  0  0  0  0
 27 28  1  0  0  0  0
 28 29  1  0  0  0  0
 29 30  1  0  0  0  0
 31 30  1  0  0  0  0
 32 31  1  0  0  0  0
 32 33  1  1  0  0  0
 34 35  1  6  0  0  0
 34 32  1  0  0  0  0
 36 37  2  6  0  0  0
 36 34  1  0  0  0  0
 36 40  1  0  0  0  0
 36 38  1  0  0  0  0
 40 39  1  0  0  0  0
M  END
>  <MODEL>
4

>  <REMARK>
 VINA RESULT:      -6.1      3.253      8.932
  Name = 
  17 active torsions:
  status: ('A' for Active; 'I' for Inactive)
    1  A    between atoms: C_3  and  C_37
    2  A    between atoms: C_3  and  C_40
    3  A    between atoms: P_5  and  C_6
    4  A    between atoms: P_5  and  O_29
    5  A    between atoms: C_6  and  C_33
    6  A    between atoms: C_8  and  C_19
    7  A    between atoms: C_13  and  C_23
    8  A    between atoms: C_14  and  C_22
    9  A    between atoms: C_18  and  C_25
   10  A    between atoms: C_19  and  C_32
   11  A    between atoms: N_20  and  C_40
   12  A    between atoms: C_22  and  C_40
   13  A    between atoms: C_24  and  C_27
   14  A    between atoms: C_24  and  N_36
   15  A    between atoms: C_27  and  C_37
   16  A    between atoms: C_33  and  O_34
   17  A    between atoms: O_34  and  N_36
                            x       y       z     vdW  Elec       q    Type
                         _______ _______ _______ _____ _____    ______ ____

>  <TORSDO>
F 17

$$$$
=
 OpenBabel11052411503D

 40 41  0  0  1  0  0  0  0  0999 V2000
  161.2840  207.3180  151.5380 C   0  0  2  0  0  3  0  0  0  0  0  0
  160.8260  209.0430  153.1400 C   0  0  0  0  0  3  0  0  0  0  0  0
  160.6650  208.5710  151.9460 N   0  0  0  0  0  0  0  0  0  0  0  0
  159.4980  210.4360  154.7920 C   0  0  0  0  0  0  0  0  0  0  0  0
  159.0560  212.7290  154.2740 N   0  0  0  0  0  0  0  0  0  0  0  0
  159.7330  212.6250  153.1000 C   0  0  0  0  0  3  0  0  0  0  0  0
  160.3120  211.4100  152.7300 C   0  0  0  0  0  3  0  0  0  0  0  0
  160.1970  210.3040  153.5730 C   0  0  0  0  0  0  0  0  0  0  0  0
  158.9230  211.6720  155.1260 C   0  0  0  0  0  0  0  0  0  0  0  0
  159.3590  209.3820  155.6380 F   0  0  0  0  0  0  0  0  0  0  0  0
  156.7160  212.0100  156.2350 C   0  0  0  0  0  0  0  0  0  0  0  0
  158.5340  213.1300  157.0810 C   0  0  0  0  0  3  0  0  0  0  0  0
  157.4570  213.8960  157.2420 C   0  0  0  0  0  3  0  0  0  0  0  0
  158.1800  211.8210  156.4260 C   0  0  2  0  0  3  0  0  0  0  0  0
  155.0280  213.9120  156.4840 C   0  0  0  0  0  1  0  0  0  0  0  0
  156.2920  213.2530  156.7570 N   0  0  0  0  0  0  0  0  0  0  0  0
  155.9430  211.1830  155.6820 O   0  0  0  0  0  0  0  0  0  0  0  0
  161.9660  206.6560  152.7270 C   0  0  0  0  0  2  0  0  0  0  0  0
  161.1750  203.4430  151.3420 C   0  0  0  0  0  0  0  0  0  0  0  0
  161.2650  205.3890  153.0750 C   0  0  0  0  0  3  0  0  0  0  0  0
  161.7220  202.2060  151.6490 O   0  0  0  0  0  1  0  0  0  0  0  0
  161.2220  204.4100  152.2160 C   0  0  0  0  0  0  0  0  0  0  0  0
  160.5190  203.6710  150.0210 C   0  0  0  0  0  2  0  0  0  0  0  0
  159.7380  201.6640  148.9930 O   0  0  0  0  0  1  0  0  0  0  0  0
  160.8270  202.5320  149.0630 C   0  0  0  0  0  2  0  0  0  0  0  0
  162.3230  207.6020  150.4620 C   0  0  0  0  0  2  0  0  0  0  0  0
  161.7940  208.5850  149.4290 C   0  0  0  0  0  2  0  0  0  0  0  0
  162.1820  210.0180  149.7760 C   0  0  0  0  0  2  0  0  0  0  0  0
  162.1460  210.9210  148.5480 C   0  0  0  0  0  2  0  0  0  0  0  0
  161.6690  212.2500  148.9030 N   0  0  0  0  0  2  0  0  0  0  0  0
  161.9920  213.0700  147.8730 O   0  0  0  0  0  0  0  0  0  0  0  0
  161.0600  214.1080  147.9450 C   0  0  2  0  0  3  0  0  0  0  0  0
  160.4270  214.1040  149.3260 C   0  0  0  0  0  1  0  0  0  0  0  0
  159.9880  213.9460  146.8670 C   0  0  2  0  0  3  0  0  0  0  0  0
  159.0330  213.0080  147.2700 O   0  0  0  0  0  1  0  0  0  0  0  0
  160.7350  213.3880  145.2990 P   0  0  2  0  0  0  0  0  0  0  0  0
  160.5100  214.4350  144.2300 O   0  0  0  0  0  0  0  0  0  0  0  0
  159.9860  211.9480  144.8230 O   0  0  0  0  0  1  0  0  0  0  0  0
  162.9670  213.3080  144.2340 C   0  0  0  0  0  1  0  0  0  0  0  0
  162.3990  213.1040  145.4940 O   0  0  0  0  0  0  0  0  0  0  0  0
  1 26  1  6  0  0  0
  1  3  1  0  0  0  0
  1 18  1  0  0  0  0
  2  8  1  0  0  0  0
  3  2  2  0  0  0  0
  4  9  1  0  0  0  0
  4 10  1  0  0  0  0
  5  9  2  0  0  0  0
  6  5  1  0  0  0  0
  7  6  2  0  0  0  0
  7  8  1  0  0  0  0
  8  4  2  0  0  0  0
 11 14  1  0  0  0  0
 11 16  1  0  0  0  0
 12 13  2  0  0  0  0
 14  9  1  6  0  0  0
 14 12  1  0  0  0  0
 15 16  1  0  0  0  0
 16 13  1  0  0  0  0
 17 11  2  0  0  0  0
 18 20  1  0  0  0  0
 19 21  1  0  0  0  0
 19 22  2  0  0  0  0
 22 20  2  0  0  0  0
 23 19  1  0  0  0  0
 24 25  1  0  0  0  0
 25 23  1  0  0  0  0
 27 28  1  0  0  0  0
 27 26  1  0  0  0  0
 29 30  1  0  0  0  0
 29 28  1  0  0  0  0
 31 32  1  0  0  0  0
 31 30  1  0  0  0  0
 32 33  1  1  0  0  0
 34 35  1  1  0  0  0
 34 32  1  0  0  0  0
 36 37  2  6  0  0  0
 36 40  1  0  0  0  0
 36 34  1  0  0  0  0
 38 36  1  0  0  0  0
 39 40  1  0  0  0  0
M  END
>  <MODEL>
5

>  <REMARK>
 VINA RESULT:      -5.7      3.342      8.422
  Name = 
  17 active torsions:
  status: ('A' for Active; 'I' for Inactive)
    1  A    between atoms: C_3  and  C_37
    2  A    between atoms: C_3  and  C_40
    3  A    between atoms: P_5  and  C_6
    4  A    between atoms: P_5  and  O_29
    5  A    between atoms: C_6  and  C_33
    6  A    between atoms: C_8  and  C_19
    7  A    between atoms: C_13  and  C_23
    8  A    between atoms: C_14  and  C_22
    9  A    between atoms: C_18  and  C_25
   10  A    between atoms: C_19  and  C_32
   11  A    between atoms: N_20  and  C_40
   12  A    between atoms: C_22  and  C_40
   13  A    between atoms: C_24  and  C_27
   14  A    between atoms: C_24  and  N_36
   15  A    between atoms: C_27  and  C_37
   16  A    between atoms: C_33  and  O_34
   17  A    between atoms: O_34  and  N_36
                            x       y       z     vdW  Elec       q    Type
                         _______ _______ _______ _____ _____    ______ ____

>  <TORSDO>
F 17

$$$$
=
 OpenBabel11052411503D

 40 41  0  0  1  0  0  0  0  0999 V2000
  162.2090  208.3290  149.3140 C   0  0  2  0  0  3  0  0  0  0  0  0
  162.0150  210.7170  149.4230 C   0  0  0  0  0  3  0  0  0  0  0  0
  161.6390  209.5990  148.8900 N   0  0  0  0  0  0  0  0  0  0  0  0
  161.6680  212.5900  147.7490 C   0  0  0  0  0  0  0  0  0  0  0  0
  160.3000  214.4520  148.3690 N   0  0  0  0  0  0  0  0  0  0  0  0
  160.0600  213.9060  149.5900 C   0  0  0  0  0  3  0  0  0  0  0  0
  160.6270  212.6780  149.9330 C   0  0  0  0  0  3  0  0  0  0  0  0
  161.4390  212.0110  149.0140 C   0  0  0  0  0  0  0  0  0  0  0  0
  161.0850  213.8310  147.4430 C   0  0  0  0  0  0  0  0  0  0  0  0
  162.4560  211.9750  146.8280 F   0  0  0  0  0  0  0  0  0  0  0  0
  160.5450  213.7910  145.0100 C   0  0  0  0  0  0  0  0  0  0  0  0
  162.7250  214.1670  145.6270 C   0  0  0  0  0  3  0  0  0  0  0  0
  162.7250  213.4880  144.4820 C   0  0  0  0  0  3  0  0  0  0  0  0
  161.3220  214.4520  146.0930 C   0  0  2  0  0  3  0  0  0  0  0  0
  161.0380  212.2700  143.0170 C   0  0  0  0  0  1  0  0  0  0  0  0
  161.4050  213.2380  144.0330 N   0  0  0  0  0  0  0  0  0  0  0  0
  159.2890  213.7210  144.9560 O   0  0  0  0  0  0  0  0  0  0  0  0
  162.1840  207.3310  148.1660 C   0  0  0  0  0  2  0  0  0  0  0  0
  161.3890  203.8720  147.6470 C   0  0  0  0  0  0  0  0  0  0  0  0
  161.0730  206.3580  148.3630 C   0  0  0  0  0  3  0  0  0  0  0  0
  161.2840  202.8540  148.5840 O   0  0  0  0  0  1  0  0  0  0  0  0
  161.2260  205.1130  148.0140 C   0  0  0  0  0  0  0  0  0  0  0  0
  161.6730  203.5530  146.2170 C   0  0  0  0  0  2  0  0  0  0  0  0
  161.2960  205.3080  144.6430 O   0  0  0  0  0  1  0  0  0  0  0  0
  162.2520  204.7630  145.5000 C   0  0  0  0  0  2  0  0  0  0  0  0
  161.3910  207.7760  150.4730 C   0  0  0  0  0  2  0  0  0  0  0  0
  162.2860  207.3610  151.6310 C   0  0  0  0  0  2  0  0  0  0  0  0
  161.5970  206.3370  152.5260 C   0  0  0  0  0  2  0  0  0  0  0  0
  160.8070  207.0100  153.6440 C   0  0  0  0  0  2  0  0  0  0  0  0
  161.2240  208.3960  153.8030 N   0  0  0  0  0  2  0  0  0  0  0  0
  160.4360  208.9340  154.7650 O   0  0  0  0  0  0  0  0  0  0  0  0
  160.1680  210.2290  154.3160 C   0  0  2  0  0  3  0  0  0  0  0  0
  160.7830  210.4090  152.9390 C   0  0  0  0  0  1  0  0  0  0  0  0
  160.7320  211.2640  155.2900 C   0  0  2  0  0  3  0  0  0  0  0  0
  161.0740  210.6540  156.5010 O   0  0  0  0  0  1  0  0  0  0  0  0
  159.5030  212.5730  155.6180 P   0  0  2  0  0  0  0  0  0  0  0  0
  159.1300  213.2530  154.3190 O   0  0  0  0  0  0  0  0  0  0  0  0
  160.1910  213.7150  156.6580 O   0  0  0  0  0  1  0  0  0  0  0  0
  157.0610  212.1970  155.4810 C   0  0  0  0  0  1  0  0  0  0  0  0
  158.1160  211.9230  156.3540 O   0  0  0  0  0  0  0  0  0  0  0  0
  1 18  1  6  0  0  0
  1 26  1  0  0  0  0
  3  1  1  0  0  0  0
  3  2  2  0  0  0  0
  4  8  1  0  0  0  0
  5  6  2  0  0  0  0
  6  7  1  0  0  0  0
  8  2  1  0  0  0  0
  8  7  2  0  0  0  0
  9  4  2  0  0  0  0
  9  5  1  0  0  0  0
 10  4  1  0  0  0  0
 11 14  1  0  0  0  0
 12 14  1  0  0  0  0
 13 12  2  0  0  0  0
 14  9  1  1  0  0  0
 15 16  1  0  0  0  0
 16 13  1  0  0  0  0
 16 11  1  0  0  0  0
 17 11  2  0  0  0  0
 18 20  1  0  0  0  0
 19 22  2  0  0  0  0
 19 21  1  0  0  0  0
 22 20  2  0  0  0  0
 23 19  1  0  0  0  0
 24 25  1  0  0  0  0
 25 23  1  0  0  0  0
 26 27  1  0  0  0  0
 27 28  1  0  0  0  0
 28 29  1  0  0  0  0
 29 30  1  0  0  0  0
 30 31  1  0  0  0  0
 32 33  1  6  0  0  0
 32 31  1  0  0  0  0
 32 34  1  0  0  0  0
 34 36  1  0  0  0  0
 34 35  1  1  0  0  0
 36 37  2  6  0  0  0
 36 40  1  0  0  0  0
 36 38  1  0  0  0  0
 39 40  1  0  0  0  0
M  END
>  <MODEL>
6

>  <REMARK>
 VINA RESULT:      -5.4      3.068      8.188
  Name = 
  17 active torsions:
  status: ('A' for Active; 'I' for Inactive)
    1  A    between atoms: C_3  and  C_37
    2  A    between atoms: C_3  and  C_40
    3  A    between atoms: P_5  and  C_6
    4  A    between atoms: P_5  and  O_29
    5  A    between atoms: C_6  and  C_33
    6  A    between atoms: C_8  and  C_19
    7  A    between atoms: C_13  and  C_23
    8  A    between atoms: C_14  and  C_22
    9  A    between atoms: C_18  and  C_25
   10  A    between atoms: C_19  and  C_32
   11  A    between atoms: N_20  and  C_40
   12  A    between atoms: C_22  and  C_40
   13  A    between atoms: C_24  and  C_27
   14  A    between atoms: C_24  and  N_36
   15  A    between atoms: C_27  and  C_37
   16  A    between atoms: C_33  and  O_34
   17  A    between atoms: O_34  and  N_36
                            x       y       z     vdW  Elec       q    Type
                         _______ _______ _______ _____ _____    ______ ____

>  <TORSDO>
F 17

$$$$
=
 OpenBabel11052411503D

 40 41  0  0  1  0  0  0  0  0999 V2000
  162.1790  209.8720  150.2690 C   0  0  2  0  0  3  0  0  0  0  0  0
  160.7210  210.6280  152.0150 C   0  0  0  0  0  3  0  0  0  0  0  0
  161.4420  210.9070  150.9780 N   0  0  0  0  0  0  0  0  0  0  0  0
  159.5190  211.5040  154.0700 C   0  0  0  0  0  0  0  0  0  0  0  0
  158.5280  213.6800  153.9860 N   0  0  0  0  0  0  0  0  0  0  0  0
  158.9500  213.8550  152.7050 C   0  0  0  0  0  3  0  0  0  0  0  0
  159.6700  212.8470  152.0610 C   0  0  0  0  0  3  0  0  0  0  0  0
  159.9580  211.6620  152.7380 C   0  0  0  0  0  0  0  0  0  0  0  0
  158.7920  212.5380  154.6820 C   0  0  0  0  0  0  0  0  0  0  0  0
  159.7750  210.3640  154.7620 F   0  0  0  0  0  0  0  0  0  0  0  0
  156.8670  212.0940  156.2030 C   0  0  0  0  0  0  0  0  0  0  0  0
  158.3880  213.6990  156.8240 C   0  0  0  0  0  3  0  0  0  0  0  0
  157.1860  214.0690  157.2610 C   0  0  0  0  0  3  0  0  0  0  0  0
  158.3240  212.3780  156.1030 C   0  0  2  0  0  3  0  0  0  0  0  0
  154.7670  213.3370  156.9620 C   0  0  0  0  0  1  0  0  0  0  0  0
  156.2000  213.1090  156.9270 N   0  0  0  0  0  0  0  0  0  0  0  0
  156.2880  211.0890  155.7120 O   0  0  0  0  0  0  0  0  0  0  0  0
  162.1910  210.1630  148.7750 C   0  0  0  0  0  2  0  0  0  0  0  0
  160.8660  213.2230  147.4550 C   0  0  0  0  0  0  0  0  0  0  0  0
  162.5770  211.5820  148.5360 C   0  0  0  0  0  3  0  0  0  0  0  0
  160.4560  214.3590  148.1380 O   0  0  0  0  0  1  0  0  0  0  0  0
  161.7250  212.4090  148.0030 C   0  0  0  0  0  0  0  0  0  0  0  0
  160.3390  212.9340  146.0880 C   0  0  0  0  0  2  0  0  0  0  0  0
  158.4750  211.9770  144.9450 O   0  0  0  0  0  1  0  0  0  0  0  0
  158.8630  212.5750  146.1440 C   0  0  0  0  0  2  0  0  0  0  0  0
  161.5070  208.5270  150.5080 C   0  0  0  0  0  2  0  0  0  0  0  0
  162.2810  207.6950  151.5210 C   0  0  0  0  0  2  0  0  0  0  0  0
  162.3380  206.2290  151.1070 C   0  0  0  0  0  2  0  0  0  0  0  0
  161.2420  205.4130  151.7840 C   0  0  0  0  0  2  0  0  0  0  0  0
  160.9510  204.2100  151.0180 N   0  0  0  0  0  2  0  0  0  0  0  0
  161.6840  204.2820  149.8810 O   0  0  0  0  0  0  0  0  0  0  0  0
  160.8330  203.8020  148.8830 C   0  0  2  0  0  3  0  0  0  0  0  0
  160.7700  202.2870  148.9790 C   0  0  0  0  0  1  0  0  0  0  0  0
  161.3290  204.2270  147.5000 C   0  0  2  0  0  3  0  0  0  0  0  0
  162.6890  203.9320  147.3610 O   0  0  0  0  0  1  0  0  0  0  0  0
  161.0880  206.0180  147.2560 P   0  0  2  0  0  0  0  0  0  0  0  0
  162.4090  206.7360  147.4270 O   0  0  0  0  0  0  0  0  0  0  0  0
  160.0000  206.5840  148.4210 O   0  0  0  0  0  1  0  0  0  0  0  0
  160.9160  205.3020  144.8930 C   0  0  0  0  0  1  0  0  0  0  0  0
  160.4520  206.3340  145.7110 O   0  0  0  0  0  0  0  0  0  0  0  0
  1 18  1  6  0  0  0
  1 26  1  0  0  0  0
  1  3  1  0  0  0  0
  2  8  1  0  0  0  0
  3  2  2  0  0  0  0
  4  9  1  0  0  0  0
  4 10  1  0  0  0  0
  5  9  2  0  0  0  0
  6  5  1  0  0  0  0
  7  6  2  0  0  0  0
  7  8  1  0  0  0  0
  8  4  2  0  0  0  0
 11 16  1  0  0  0  0
 12 13  2  0  0  0  0
 14  9  1  6  0  0  0
 14 11  1  0  0  0  0
 14 12  1  0  0  0  0
 16 15  1  0  0  0  0
 16 13  1  0  0  0  0
 17 11  2  0  0  0  0
 19 22  2  0  0  0  0
 19 21  1  0  0  0  0
 20 18  1  0  0  0  0
 22 20  2  0  0  0  0
 23 25  1  0  0  0  0
 23 19  1  0  0  0  0
 24 25  1  0  0  0  0
 26 27  1  0  0  0  0
 28 27  1  0  0  0  0
 28 29  1  0  0  0  0
 30 29  1  0  0  0  0
 31 30  1  0  0  0  0
 32 33  1  6  0  0  0
 32 31  1  0  0  0  0
 34 35  1  1  0  0  0
 34 32  1  0  0  0  0
 36 37  2  1  0  0  0
 36 34  1  0  0  0  0
 36 38  1  0  0  0  0
 39 40  1  0  0  0  0
 40 36  1  0  0  0  0
M  END
>  <MODEL>
7

>  <REMARK>
 VINA RESULT:      -5.4      2.976      6.655
  Name = 
  17 active torsions:
  status: ('A' for Active; 'I' for Inactive)
    1  A    between atoms: C_3  and  C_37
    2  A    between atoms: C_3  and  C_40
    3  A    between atoms: P_5  and  C_6
    4  A    between atoms: P_5  and  O_29
    5  A    between atoms: C_6  and  C_33
    6  A    between atoms: C_8  and  C_19
    7  A    between atoms: C_13  and  C_23
    8  A    between atoms: C_14  and  C_22
    9  A    between atoms: C_18  and  C_25
   10  A    between atoms: C_19  and  C_32
   11  A    between atoms: N_20  and  C_40
   12  A    between atoms: C_22  and  C_40
   13  A    between atoms: C_24  and  C_27
   14  A    between atoms: C_24  and  N_36
   15  A    between atoms: C_27  and  C_37
   16  A    between atoms: C_33  and  O_34
   17  A    between atoms: O_34  and  N_36
                            x       y       z     vdW  Elec       q    Type
                         _______ _______ _______ _____ _____    ______ ____

>  <TORSDO>
F 17

$$$$
=
 OpenBabel11052411503D

 40 41  0  0  1  0  0  0  0  0999 V2000
  161.0610  205.6790  151.8480 C   0  0  2  0  0  3  0  0  0  0  0  0
  160.7050  207.7250  153.0470 C   0  0  0  0  0  3  0  0  0  0  0  0
  161.2030  206.5310  153.0190 N   0  0  0  0  0  0  0  0  0  0  0  0
  160.2640  209.8870  154.2970 C   0  0  0  0  0  0  0  0  0  0  0  0
  161.1980  210.1670  156.4820 N   0  0  0  0  0  0  0  0  0  0  0  0
  161.7630  208.9320  156.4300 C   0  0  0  0  0  3  0  0  0  0  0  0
  161.5990  208.1330  155.2980 C   0  0  0  0  0  3  0  0  0  0  0  0
  160.8500  208.6060  154.2200 C   0  0  0  0  0  0  0  0  0  0  0  0
  160.4570  210.6640  155.4510 C   0  0  0  0  0  0  0  0  0  0  0  0
  159.5310  210.3860  153.2680 F   0  0  0  0  0  0  0  0  0  0  0  0
  158.4040  211.9830  155.9590 C   0  0  0  0  0  0  0  0  0  0  0  0
  159.6880  212.6300  154.1680 C   0  0  0  0  0  3  0  0  0  0  0  0
  158.4130  212.8870  153.8840 C   0  0  0  0  0  3  0  0  0  0  0  0
  159.8310  212.0290  155.5420 C   0  0  2  0  0  3  0  0  0  0  0  0
  156.1240  212.3740  154.8720 C   0  0  0  0  0  1  0  0  0  0  0  0
  157.5640  212.5280  154.9600 N   0  0  0  0  0  0  0  0  0  0  0  0
  157.9810  211.5210  157.0520 O   0  0  0  0  0  0  0  0  0  0  0  0
  161.7540  204.3440  152.0800 C   0  0  0  0  0  2  0  0  0  0  0  0
  160.7500  201.9070  149.6470 C   0  0  0  0  0  0  0  0  0  0  0  0
  160.7830  203.2290  151.8930 C   0  0  0  0  0  3  0  0  0  0  0  0
  160.9920  200.5410  149.6350 O   0  0  0  0  0  1  0  0  0  0  0  0
  160.7660  202.5600  150.7760 C   0  0  0  0  0  0  0  0  0  0  0  0
  160.4580  202.6330  148.3760 C   0  0  0  0  0  2  0  0  0  0  0  0
  161.5020  202.6310  146.2290 O   0  0  0  0  0  1  0  0  0  0  0  0
  160.8880  201.8080  147.1740 C   0  0  0  0  0  2  0  0  0  0  0  0
  161.6990  206.3680  150.6490 C   0  0  0  0  0  2  0  0  0  0  0  0
  160.8870  206.1380  149.3830 C   0  0  0  0  0  2  0  0  0  0  0  0
  161.7140  206.4210  148.1340 C   0  0  0  0  0  2  0  0  0  0  0  0
  161.5610  207.8680  147.6780 C   0  0  0  0  0  2  0  0  0  0  0  0
  162.0910  208.7810  148.6790 N   0  0  0  0  0  2  0  0  0  0  0  0
  161.8220  210.0370  148.2470 O   0  0  0  0  0  0  0  0  0  0  0  0
  162.3710  210.8700  149.2250 C   0  0  2  0  0  3  0  0  0  0  0  0
  162.1830  210.2210  150.5850 C   0  0  0  0  0  1  0  0  0  0  0  0
  161.7060  212.2470  149.1950 C   0  0  2  0  0  3  0  0  0  0  0  0
  160.4940  212.2150  149.8940 O   0  0  0  0  0  1  0  0  0  0  0  0
  161.3800  212.7650  147.4770 P   0  0  2  0  0  0  0  0  0  0  0  0
  162.6880  212.8710  146.7230 O   0  0  0  0  0  0  0  0  0  0  0  0
  160.6340  214.2820  147.4990 O   0  0  0  0  0  1  0  0  0  0  0  0
  159.1970  212.3750  146.3780 C   0  0  0  0  0  1  0  0  0  0  0  0
  160.3510  211.6580  146.7000 O   0  0  0  0  0  0  0  0  0  0  0  0
  1 26  1  6  0  0  0
  1 18  1  0  0  0  0
  1  3  1  0  0  0  0
  2  8  1  0  0  0  0
  3  2  2  0  0  0  0
  4  9  1  0  0  0  0
  6  5  1  0  0  0  0
  7  6  2  0  0  0  0
  8  4  2  0  0  0  0
  8  7  1  0  0  0  0
  9  5  2  0  0  0  0
 10  4  1  0  0  0  0
 11 17  2  0  0  0  0
 12 14  1  0  0  0  0
 13 12  2  0  0  0  0
 13 16  1  0  0  0  0
 14  9  1  6  0  0  0
 14 11  1  0  0  0  0
 15 16  1  0  0  0  0
 16 11  1  0  0  0  0
 19 22  2  0  0  0  0
 20 18  1  0  0  0  0
 21 19  1  0  0  0  0
 22 20  2  0  0  0  0
 23 19  1  0  0  0  0
 24 25  1  0  0  0  0
 25 23  1  0  0  0  0
 27 26  1  0  0  0  0
 28 27  1  0  0  0  0
 29 28  1  0  0  0  0
 29 30  1  0  0  0  0
 31 30  1  0  0  0  0
 31 32  1  0  0  0  0
 32 33  1  1  0  0  0
 34 32  1  0  0  0  0
 34 35  1  1  0  0  0
 36 37  2  6  0  0  0
 36 38  1  0  0  0  0
 36 34  1  0  0  0  0
 39 40  1  0  0  0  0
 40 36  1  0  0  0  0
M  END
>  <MODEL>
8

>  <REMARK>
 VINA RESULT:      -5.2      2.700      7.853
  Name = 
  17 active torsions:
  status: ('A' for Active; 'I' for Inactive)
    1  A    between atoms: C_3  and  C_37
    2  A    between atoms: C_3  and  C_40
    3  A    between atoms: P_5  and  C_6
    4  A    between atoms: P_5  and  O_29
    5  A    between atoms: C_6  and  C_33
    6  A    between atoms: C_8  and  C_19
    7  A    between atoms: C_13  and  C_23
    8  A    between atoms: C_14  and  C_22
    9  A    between atoms: C_18  and  C_25
   10  A    between atoms: C_19  and  C_32
   11  A    between atoms: N_20  and  C_40
   12  A    between atoms: C_22  and  C_40
   13  A    between atoms: C_24  and  C_27
   14  A    between atoms: C_24  and  N_36
   15  A    between atoms: C_27  and  C_37
   16  A    between atoms: C_33  and  O_34
   17  A    between atoms: O_34  and  N_36
                            x       y       z     vdW  Elec       q    Type
                         _______ _______ _______ _____ _____    ______ ____

>  <TORSDO>
F 17

$$$$
=
 OpenBabel11052411503D

 40 41  0  0  1  0  0  0  0  0999 V2000
  161.4540  207.5560  151.7660 C   0  0  2  0  0  3  0  0  0  0  0  0
  160.8260  209.2360  153.3570 C   0  0  0  0  0  3  0  0  0  0  0  0
  161.0270  207.9870  153.0890 N   0  0  0  0  0  0  0  0  0  0  0  0
  159.5720  210.8110  154.8990 C   0  0  0  0  0  0  0  0  0  0  0  0
  159.6860  210.4460  157.2610 N   0  0  0  0  0  0  0  0  0  0  0  0
  160.4820  209.3590  157.0840 C   0  0  0  0  0  3  0  0  0  0  0  0
  160.8550  208.9650  155.7980 C   0  0  0  0  0  3  0  0  0  0  0  0
  160.4050  209.6910  154.6940 C   0  0  0  0  0  0  0  0  0  0  0  0
  159.2240  211.1800  156.2090 C   0  0  0  0  0  0  0  0  0  0  0  0
  159.1170  211.5480  153.8520 F   0  0  0  0  0  0  0  0  0  0  0  0
  157.2350  212.4690  155.4340 C   0  0  0  0  0  0  0  0  0  0  0  0
  159.0790  213.6450  156.1360 C   0  0  0  0  0  3  0  0  0  0  0  0
  158.4900  214.3320  155.1590 C   0  0  0  0  0  3  0  0  0  0  0  0
  158.3330  212.3710  156.4340 C   0  0  2  0  0  3  0  0  0  0  0  0
  156.6420  213.9640  153.4480 C   0  0  0  0  0  1  0  0  0  0  0  0
  157.3290  213.6690  154.6920 N   0  0  0  0  0  0  0  0  0  0  0  0
  156.3360  211.6050  155.2560 O   0  0  0  0  0  0  0  0  0  0  0  0
  162.2200  206.2450  151.8600 C   0  0  0  0  0  2  0  0  0  0  0  0
  161.0670  202.8790  151.4060 C   0  0  0  0  0  0  0  0  0  0  0  0
  161.3790  205.2110  152.5260 C   0  0  0  0  0  3  0  0  0  0  0  0
  161.4700  201.7260  152.0640 O   0  0  0  0  0  1  0  0  0  0  0  0
  161.2250  204.0420  151.9750 C   0  0  0  0  0  0  0  0  0  0  0  0
  160.4400  202.7960  150.0540 C   0  0  0  0  0  2  0  0  0  0  0  0
  159.7390  201.0170  148.6250 O   0  0  0  0  0  1  0  0  0  0  0  0
  160.8220  201.4970  149.3610 C   0  0  0  0  0  2  0  0  0  0  0  0
  162.3610  208.6200  151.1630 C   0  0  0  0  0  2  0  0  0  0  0  0
  161.5760  209.5810  150.2830 C   0  0  0  0  0  2  0  0  0  0  0  0
  161.9400  209.4110  148.8120 C   0  0  0  0  0  2  0  0  0  0  0  0
  162.9750  208.3080  148.6150 C   0  0  0  0  0  2  0  0  0  0  0  0
  162.3260  207.0110  148.4920 N   0  0  0  0  0  2  0  0  0  0  0  0
  161.8630  206.9240  147.2220 O   0  0  0  0  0  0  0  0  0  0  0  0
  160.7600  206.0710  147.3090 C   0  0  2  0  0  3  0  0  0  0  0  0
  160.1470  206.2000  148.6920 C   0  0  0  0  0  1  0  0  0  0  0  0
  161.1750  204.6240  147.0430 C   0  0  2  0  0  3  0  0  0  0  0  0
  162.3520  204.3220  147.7350 O   0  0  0  0  0  1  0  0  0  0  0  0
  161.4550  204.3540  145.2610 P   0  0  2  0  0  0  0  0  0  0  0  0
  162.9300  204.1260  145.0090 O   0  0  0  0  0  1  0  0  0  0  0  0
  160.9600  205.7350  144.4180 O   0  0  0  0  0  0  0  0  0  0  0  0
  160.7580  202.0120  145.6510 C   0  0  0  0  0  1  0  0  0  0  0  0
  160.5590  203.0210  144.7060 O   0  0  0  0  0  0  0  0  0  0  0  0
  1 26  1  1  0  0  0
  1 18  1  0  0  0  0
  1  3  1  0  0  0  0
  2  8  1  0  0  0  0
  3  2  2  0  0  0  0
  4  9  1  0  0  0  0
  6  5  1  0  0  0  0
  7  6  2  0  0  0  0
  8  4  2  0  0  0  0
  8  7  1  0  0  0  0
  9  5  2  0  0  0  0
 10  4  1  0  0  0  0
 11 14  1  0  0  0  0
 12 14  1  0  0  0  0
 13 12  2  0  0  0  0
 14  9  1  6  0  0  0
 15 16  1  0  0  0  0
 16 13  1  0  0  0  0
 16 11  1  0  0  0  0
 17 11  2  0  0  0  0
 18 20  1  0  0  0  0
 19 22  2  0  0  0  0
 19 21  1  0  0  0  0
 22 20  2  0  0  0  0
 23 19  1  0  0  0  0
 24 25  1  0  0  0  0
 25 23  1  0  0  0  0
 27 26  1  0  0  0  0
 28 27  1  0  0  0  0
 29 28  1  0  0  0  0
 30 29  1  0  0  0  0
 31 32  1  0  0  0  0
 31 30  1  0  0  0  0
 32 33  1  1  0  0  0
 34 32  1  0  0  0  0
 34 35  1  1  0  0  0
 36 38  2  6  0  0  0
 36 34  1  0  0  0  0
 37 36  1  0  0  0  0
 40 36  1  0  0  0  0
 40 39  1  0  0  0  0
M  END
>  <MODEL>
9

>  <REMARK>
 VINA RESULT:      -5.1      2.891      6.608
  Name = 
  17 active torsions:
  status: ('A' for Active; 'I' for Inactive)
    1  A    between atoms: C_3  and  C_37
    2  A    between atoms: C_3  and  C_40
    3  A    between atoms: P_5  and  C_6
    4  A    between atoms: P_5  and  O_29
    5  A    between atoms: C_6  and  C_33
    6  A    between atoms: C_8  and  C_19
    7  A    between atoms: C_13  and  C_23
    8  A    between atoms: C_14  and  C_22
    9  A    between atoms: C_18  and  C_25
   10  A    between atoms: C_19  and  C_32
   11  A    between atoms: N_20  and  C_40
   12  A    between atoms: C_22  and  C_40
   13  A    between atoms: C_24  and  C_27
   14  A    between atoms: C_24  and  N_36
   15  A    between atoms: C_27  and  C_37
   16  A    between atoms: C_33  and  O_34
   17  A    between atoms: O_34  and  N_36
                            x       y       z     vdW  Elec       q    Type
                         _______ _______ _______ _____ _____    ______ ____

>  <TORSDO>
F 17

$$$$
