=
 OpenBabel11042420313D

 49 55  0  0  1  0  0  0  0  0999 V2000
  160.7270  204.8900  150.9890 C   0  0  0  0  0  3  0  0  0  0  0  0
  162.0650  207.2230  147.5160 C   0  0  0  0  0  0  0  0  0  0  0  0
  161.3680  206.8920  149.7270 C   0  0  0  0  0  0  0  0  0  0  0  0
  161.5510  208.2110  150.0120 C   0  0  0  0  0  0  0  0  0  0  0  0
  160.6180  201.4790  148.1360 C   0  0  0  0  0  1  0  0  0  0  0  0
  161.0780  203.9770  148.6310 C   0  0  0  0  0  0  0  0  0  0  0  0
  162.0850  209.0870  149.0670 C   0  0  0  0  0  0  0  0  0  0  0  0
  162.5660  210.4310  149.4900 C   0  0  0  0  0  2  0  0  0  0  0  0
  161.0260  202.8540  147.7270 C   0  0  0  0  0  0  0  0  0  0  0  0
  161.2110  208.3850  151.3330 C   0  0  0  0  0  0  0  0  0  0  0  0
  161.7900  205.2560  146.6720 C   0  0  0  0  0  0  0  0  0  0  0  0
  160.8510  207.1740  151.8490 N   0  0  0  0  0  0  0  0  0  0  0  0
  162.9620  212.9100  148.1640 O   0  0  0  0  0  0  0  0  0  0  0  0
  160.8350  209.7380  153.2330 O   0  0  0  0  0  0  0  0  0  0  0  0
  161.3310  203.0080  146.4000 N   0  0  0  0  0  0  0  0  0  0  0  0
  161.0340  209.7010  151.9930 C   0  0  0  0  0  0  0  0  0  0  0  0
  160.9140  210.9250  151.2470 N   0  0  0  0  0  0  0  0  0  0  0  0
  161.7650  213.1800  148.4580 C   0  0  0  0  0  0  0  0  0  0  0  0
  161.4930  211.2670  150.1330 C   0  0  0  0  0  0  0  0  0  0  0  0
  160.9530  206.2510  150.8490 C   0  0  0  0  0  0  0  0  0  0  0  0
  161.4530  205.1890  148.0010 C   0  0  0  0  0  0  0  0  0  0  0  0
  162.1930  206.5390  146.3160 C   0  0  0  0  0  3  0  0  0  0  0  0
  160.8090  203.8470  150.0410 C   0  0  0  0  0  0  0  0  0  0  0  0
  161.6330  206.4060  148.5100 N   0  0  0  0  0  0  0  0  0  0  0  0
  161.0980  212.5040  149.5300 N   0  0  0  0  0  2  0  0  0  0  0  0
  161.7070  204.1760  145.8750 N   0  0  0  0  0  0  0  0  0  0  0  0
  162.3520  208.5840  147.7690 C   0  0  0  0  0  3  0  0  0  0  0  0
  161.0410  214.2200  147.6780 C   0  0  0  0  0  2  0  0  0  0  0  0
  159.8920  211.9630  144.9200 C   0  0  0  0  0  3  0  0  0  0  0  0
  161.0560  212.6870  144.2380 C   0  0  0  0  0  2  0  0  0  0  0  0
  160.6320  213.6960  146.3850 N   0  0  0  0  0  0  0  0  0  0  0  0
  159.6000  212.6900  146.2420 C   0  0  0  0  0  3  0  0  0  0  0  0
  162.4520  214.4530  145.1150 O   0  0  0  0  0  0  0  0  0  0  0  0
  161.4640  213.6850  145.2440 C   0  0  0  0  0  0  0  0  0  0  0  0
  160.6460  202.5300  150.5930 N   0  0  0  0  0  2  0  0  0  0  0  0
  161.1520  202.1120  151.8990 C   0  0  2  0  0  3  0  0  0  0  0  0
  160.8420  203.0900  152.8420 O   0  0  0  0  0  1  0  0  0  0  0  0
  162.6590  201.9520  151.8320 C   0  0  0  0  0  1  0  0  0  0  0  0
  160.4940  206.9010  153.2430 C   0  0  0  0  0  2  0  0  0  0  0  0
  161.7480  206.6830  154.0840 C   0  0  0  0  0  2  0  0  0  0  0  0
  161.5360  207.1400  155.5150 C   0  0  0  0  0  2  0  0  0  0  0  0
  160.1720  207.7840  155.6660 C   0  0  0  0  0  2  0  0  0  0  0  0
  160.0970  208.6650  156.9190 C   0  0  0  0  0  2  0  0  0  0  0  0
  158.3090  210.5200  155.7180 O   0  0  0  0  0  0  0  0  0  0  0  0
  160.4280  210.0560  156.6210 N   0  0  0  0  0  0  0  0  0  0  0  0
  159.7380  212.3990  155.8440 C   0  0  0  0  0  1  0  0  0  0  0  0
  159.4440  210.9500  156.0520 C   0  0  0  0  0  0  0  0  0  0  0  0
  162.7830  210.5230  156.1240 C   0  0  0  0  0  1  0  0  0  0  0  0
  161.6860  210.5650  157.1730 C   0  0  0  0  0  2  0  0  0  0  0  0
  2 27  1  0  0  0  0
  2 24  1  0  0  0  0
  3  4  1  0  0  0  0
  3 20  2  0  0  0  0
  4 10  2  0  0  0  0
  6 23  1  0  0  0  0
  7  8  1  0  0  0  0
  7  4  1  0  0  0  0
  8 19  1  0  0  0  0
  9  5  1  0  0  0  0
  9  6  2  0  0  0  0
 10 12  1  0  0  0  0
 10 16  1  0  0  0  0
 11 21  2  0  0  0  0
 12 39  1  0  0  0  0
 13 18  2  0  0  0  0
 15  9  1  0  0  0  0
 16 14  2  0  0  0  0
 17 16  1  0  0  0  0
 18 25  1  0  0  0  0
 19 17  2  0  0  0  0
 20  1  1  0  0  0  0
 20 12  1  0  0  0  0
 21 24  1  0  0  0  0
 21  6  1  0  0  0  0
 22 11  1  0  0  0  0
 22  2  2  0  0  0  0
 23 35  1  0  0  0  0
 23  1  2  0  0  0  0
 24  3  1  0  0  0  0
 25 19  1  0  0  0  0
 26 15  2  0  0  0  0
 26 11  1  0  0  0  0
 27  7  2  0  0  0  0
 28 18  1  0  0  0  0
 29 32  2  0  0  0  0
 30 29  1  0  0  0  0
 30 34  1  0  0  0  0
 31 28  1  0  0  0  0
 32 31  1  0  0  0  0
 33 34  2  0  0  0  0
 34 31  1  0  0  0  0
 35 36  1  0  0  0  0
 36 38  1  6  0  0  0
 36 37  1  0  0  0  0
 39 40  1  0  0  0  0
 40 41  1  0  0  0  0
 41 42  1  0  0  0  0
 42 43  1  0  0  0  0
 44 47  2  0  0  0  0
 45 43  1  0  0  0  0
 45 49  1  0  0  0  0
 46 47  1  0  0  0  0
 47 45  1  0  0  0  0
 48 49  1  0  0  0  0
M  END
>  <MODEL>
1

>  <REMARK>
 VINA RESULT:      -6.7      0.000      0.000
  Name = 
  11 active torsions:
  status: ('A' for Active; 'I' for Inactive)
    1  A    between atoms: C_1  and  N_22
    2  A    between atoms: C_1  and  C_31
    3  A    between atoms: C_3  and  C_6
    4  A    between atoms: C_3  and  C_41
    5  A    between atoms: C_6  and  C_36
    6  A    between atoms: C_10  and  N_30
    7  A    between atoms: C_20  and  N_43
    8  A    between atoms: N_23  and  C_36
    9  A    between atoms: C_24  and  C_41
   10  A    between atoms: C_24  and  N_43
   11  A    between atoms: N_30  and  C_42
                            x       y       z     vdW  Elec       q    Type
                         _______ _______ _______ _____ _____    ______ ____

>  <TORSDO>
F 11

$$$$
=
 OpenBabel11042420313D

 49 55  0  0  1  0  0  0  0  0999 V2000
  160.9050  211.0960  153.0940 C   0  0  0  0  0  3  0  0  0  0  0  0
  161.4840  206.7620  152.6820 C   0  0  0  0  0  0  0  0  0  0  0  0
  161.3800  208.9830  151.9470 C   0  0  0  0  0  0  0  0  0  0  0  0
  161.7640  208.6150  150.6920 C   0  0  0  0  0  0  0  0  0  0  0  0
  159.6870  210.1210  157.2600 C   0  0  0  0  0  1  0  0  0  0  0  0
  160.5130  209.3640  154.9270 C   0  0  0  0  0  0  0  0  0  0  0  0
  162.1090  207.2960  150.4000 C   0  0  0  0  0  0  0  0  0  0  0  0
  162.8190  206.9790  149.1310 C   0  0  0  0  0  2  0  0  0  0  0  0
  160.1060  209.0770  156.2810 C   0  0  0  0  0  0  0  0  0  0  0  0
  161.8130  209.7630  149.9370 C   0  0  0  0  0  0  0  0  0  0  0  0
  160.7950  206.9430  154.7190 C   0  0  0  0  0  0  0  0  0  0  0  0
  161.4860  210.8210  150.7370 N   0  0  0  0  0  0  0  0  0  0  0  0
  163.0890  204.6480  147.5320 O   0  0  0  0  0  0  0  0  0  0  0  0
  162.1020  210.9070  147.8910 O   0  0  0  0  0  0  0  0  0  0  0  0
  160.0550  207.7860  156.7390 N   0  0  0  0  0  0  0  0  0  0  0  0
  161.9540  209.7980  148.4610 C   0  0  0  0  0  0  0  0  0  0  0  0
  161.7610  208.6310  147.6440 N   0  0  0  0  0  0  0  0  0  0  0  0
  162.0500  205.0270  146.9260 C   0  0  0  0  0  0  0  0  0  0  0  0
  162.0490  207.3890  147.9050 C   0  0  0  0  0  0  0  0  0  0  0  0
  161.2200  210.3300  151.9820 C   0  0  0  0  0  0  0  0  0  0  0  0
  160.8240  208.2040  154.1760 C   0  0  0  0  0  0  0  0  0  0  0  0
  161.2140  205.9870  153.8000 C   0  0  0  0  0  3  0  0  0  0  0  0
  160.6220  210.7090  154.4220 C   0  0  0  0  0  0  0  0  0  0  0  0
  161.2560  208.0780  152.9230 N   0  0  0  0  0  0  0  0  0  0  0  0
  161.6320  206.3960  146.9620 N   0  0  0  0  0  2  0  0  0  0  0  0
  160.3910  206.7370  155.9850 N   0  0  0  0  0  0  0  0  0  0  0  0
  161.9640  206.3280  151.4250 C   0  0  0  0  0  3  0  0  0  0  0  0
  161.2510  204.0310  146.1600 C   0  0  0  0  0  2  0  0  0  0  0  0
  161.2120  201.4290  148.8530 C   0  0  0  0  0  3  0  0  0  0  0  0
  160.8820  200.5800  147.6220 C   0  0  0  0  0  2  0  0  0  0  0  0
  160.8830  202.9100  147.0110 N   0  0  0  0  0  0  0  0  0  0  0  0
  161.1180  202.9070  148.4400 C   0  0  0  0  0  3  0  0  0  0  0  0
  160.5610  201.3000  145.3390 O   0  0  0  0  0  0  0  0  0  0  0  0
  160.7570  201.5830  146.5480 C   0  0  0  0  0  0  0  0  0  0  0  0
  160.4830  211.8040  155.3420 N   0  0  0  0  0  2  0  0  0  0  0  0
  159.5740  212.9330  155.1530 C   0  0  2  0  0  3  0  0  0  0  0  0
  159.2830  213.4970  156.3940 O   0  0  0  0  0  1  0  0  0  0  0  0
  158.2850  212.4460  154.5180 C   0  0  0  0  0  1  0  0  0  0  0  0
  161.4920  212.2330  150.3480 C   0  0  0  0  0  2  0  0  0  0  0  0
  160.0990  212.6720  149.9080 C   0  0  0  0  0  2  0  0  0  0  0  0
  160.0480  214.1670  149.6550 C   0  0  0  0  0  2  0  0  0  0  0  0
  159.4480  214.4510  148.2920 C   0  0  0  0  0  2  0  0  0  0  0  0
  159.5300  213.2270  147.3710 C   0  0  0  0  0  2  0  0  0  0  0  0
  161.1460  212.5950  145.1210 O   0  0  0  0  0  0  0  0  0  0  0  0
  159.1920  213.5660  145.9910 N   0  0  0  0  0  0  0  0  0  0  0  0
  159.6580  213.4130  143.4760 C   0  0  0  0  0  1  0  0  0  0  0  0
  160.0470  213.1650  144.8970 C   0  0  0  0  0  0  0  0  0  0  0  0
  156.8030  213.0480  146.1800 C   0  0  0  0  0  1  0  0  0  0  0  0
  157.8380  214.0730  145.7520 C   0  0  0  0  0  2  0  0  0  0  0  0
  1 23  2  0  0  0  0
  2 24  1  0  0  0  0
  2 22  2  0  0  0  0
  3 20  2  0  0  0  0
  3 24  1  0  0  0  0
  4  3  1  0  0  0  0
  6  9  1  0  0  0  0
  7  4  1  0  0  0  0
  7 27  2  0  0  0  0
  8  7  1  0  0  0  0
  9 15  2  0  0  0  0
  9  5  1  0  0  0  0
 10  4  2  0  0  0  0
 10 12  1  0  0  0  0
 11 26  2  0  0  0  0
 12 20  1  0  0  0  0
 14 16  2  0  0  0  0
 16 10  1  0  0  0  0
 17 19  2  0  0  0  0
 17 16  1  0  0  0  0
 18 25  1  0  0  0  0
 18 13  2  0  0  0  0
 19  8  1  0  0  0  0
 20  1  1  0  0  0  0
 21 11  1  0  0  0  0
 21  6  2  0  0  0  0
 22 11  1  0  0  0  0
 23  6  1  0  0  0  0
 23 35  1  0  0  0  0
 24 21  1  0  0  0  0
 25 19  1  0  0  0  0
 26 15  1  0  0  0  0
 27  2  1  0  0  0  0
 28 18  1  0  0  0  0
 28 31  1  0  0  0  0
 30 29  1  0  0  0  0
 31 32  1  0  0  0  0
 32 29  2  0  0  0  0
 33 34  2  0  0  0  0
 34 31  1  0  0  0  0
 34 30  1  0  0  0  0
 36 38  1  1  0  0  0
 36 35  1  0  0  0  0
 36 37  1  0  0  0  0
 39 12  1  0  0  0  0
 40 39  1  0  0  0  0
 41 40  1  0  0  0  0
 42 41  1  0  0  0  0
 43 42  1  0  0  0  0
 45 43  1  0  0  0  0
 46 47  1  0  0  0  0
 47 44  2  0  0  0  0
 47 45  1  0  0  0  0
 49 45  1  0  0  0  0
 49 48  1  0  0  0  0
M  END
>  <MODEL>
2

>  <REMARK>
 VINA RESULT:      -6.4      2.133      8.949
  Name = 
  11 active torsions:
  status: ('A' for Active; 'I' for Inactive)
    1  A    between atoms: C_1  and  N_22
    2  A    between atoms: C_1  and  C_31
    3  A    between atoms: C_3  and  C_6
    4  A    between atoms: C_3  and  C_41
    5  A    between atoms: C_6  and  C_36
    6  A    between atoms: C_10  and  N_30
    7  A    between atoms: C_20  and  N_43
    8  A    between atoms: N_23  and  C_36
    9  A    between atoms: C_24  and  C_41
   10  A    between atoms: C_24  and  N_43
   11  A    between atoms: N_30  and  C_42
                            x       y       z     vdW  Elec       q    Type
                         _______ _______ _______ _____ _____    ______ ____

>  <TORSDO>
F 11

$$$$
