=
 OpenBabel11042423043D

 55 59  0  0  1  0  0  0  0  0999 V2000
  159.8050  212.9640  153.5980 F   0  0  0  0  0  0  0  0  0  0  0  0
  159.1920  210.7630  153.0440 C   0  0  0  0  0  0  0  0  0  0  0  0
  160.1690  212.3990  150.6850 C   0  0  0  0  0  0  0  0  0  0  0  0
  160.9890  211.2900  150.9450 O   0  0  0  0  0  0  0  0  0  0  0  0
  163.6330  211.0350  155.3370 C   0  0  0  0  0  2  0  0  0  0  0  0
  162.0440  209.9220  153.2700 C   0  0  1  0  0  0  0  0  0  0  0  0
  158.4450  213.9450  151.3180 O   0  0  0  0  0  1  0  0  0  0  0  0
  161.5840  209.7820  154.7300 C   0  0  0  0  0  2  0  0  0  0  0  0
  160.6470  210.1830  152.2100 P   0  0  1  0  0  4  0  0  0  0  0  0
  160.5180  213.2730  149.7870 N   0  0  0  0  0  0  0  0  0  0  0  0
  158.8540  212.6130  151.4240 C   0  0  2  0  0  3  0  0  0  0  0  0
  161.5120  207.9180  152.3850 C   0  0  2  0  0  3  0  0  0  0  0  0
  163.0580  211.0670  153.1530 C   0  0  0  0  0  2  0  0  0  0  0  0
  162.7540  209.8520  155.7180 C   0  0  2  0  0  3  0  0  0  0  0  0
  158.8690  212.2090  152.9070 C   0  0  2  0  0  3  0  0  0  0  0  0
  160.5200  208.6110  151.6430 O   0  0  0  0  0  0  0  0  0  0  0  0
  164.1360  210.8620  154.0350 O   0  0  0  0  0  0  0  0  0  0  0  0
  162.5990  208.7320  152.8000 O   0  0  0  0  0  0  0  0  0  0  0  0
  158.4960  210.0100  153.7100 O   0  0  0  0  0  0  0  0  0  0  0  0
  162.1310  205.2780  148.0720 C   0  0  0  0  0  2  0  0  0  0  0  0
  162.0570  206.6750  151.6660 C   0  0  1  0  0  3  0  0  0  0  0  0
  160.2320  203.5200  152.1590 C   0  0  0  0  0  2  0  0  0  0  0  0
  160.3720  204.9900  152.6020 C   0  0  0  0  0  2  0  0  0  0  0  0
  161.5960  207.7400  149.3950 C   0  0  0  0  0  2  0  0  0  0  0  0
  161.8380  205.4340  152.5520 C   0  0  0  0  0  2  0  0  0  0  0  0
  161.7740  205.2800  149.5290 C   0  0  0  0  0  0  0  0  0  0  0  0
  161.2580  204.2070  150.0540 C   0  0  0  0  0  0  0  0  0  0  0  0
  160.7630  207.4620  148.1460 C   0  0  0  0  0  2  0  0  0  0  0  0
  162.3370  206.9730  146.4060 O   0  0  0  0  0  1  0  0  0  0  0  0
  160.7120  203.2490  150.7510 C   0  0  0  0  0  3  0  0  0  0  0  0
  161.6610  206.5380  150.2350 N   0  0  0  0  0  0  0  0  0  0  0  0
  161.4060  206.3710  147.2600 C   0  0  1  0  0  0  0  0  0  0  0  0
  160.6250  205.7110  144.9270 C   0  0  0  0  0  1  0  0  0  0  0  0
  160.3290  205.6790  146.4220 C   0  0  0  0  0  2  0  0  0  0  0  0
  161.6570  213.2160  148.9550 N   0  0  0  0  0  2  0  0  0  0  0  0
  161.7840  212.4880  147.7220 C   0  0  0  0  0  0  0  0  0  0  0  0
  160.8440  211.7800  147.2790 O   0  0  0  0  0  0  0  0  0  0  0  0
  163.0020  212.5630  146.9820 N   0  0  0  0  0  0  0  0  0  0  0  0
  163.1210  213.1640  145.8300 C   0  0  0  0  0  3  0  0  0  0  0  0
  161.9650  213.7750  145.0990 C   0  0  0  0  0  2  0  0  0  0  0  0
  162.3790  214.1480  143.7580 N   0  0  0  0  0  2  0  0  0  0  0  0
  162.7590  212.9300  143.0630 C   0  0  0  0  0  2  0  0  0  0  0  0
  162.3160  212.9890  141.6080 C   0  0  0  0  0  2  0  0  0  0  0  0
  160.7610  211.3860  140.7810 O   0  0  0  0  0  1  0  0  0  0  0  0
  162.1110  211.5880  141.0560 C   0  0  0  0  0  2  0  0  0  0  0  0
  162.2470  210.0400  157.1460 C   0  0  0  0  0  2  0  0  0  0  0  0
  160.7520  209.7380  157.2590 C   0  0  2  0  0  3  0  0  0  0  0  0
  160.5520  208.2230  157.1990 C   0  0  2  0  0  3  0  0  0  0  0  0
  161.7640  207.5510  156.9710 O   0  0  0  0  0  1  0  0  0  0  0  0
  159.4810  207.8070  156.1870 C   0  0  0  0  0  2  0  0  0  0  0  0
  159.9960  206.7850  155.1860 C   0  0  0  0  0  1  0  0  0  0  0  0
  160.0170  210.3780  156.2180 O   0  0  0  0  0  0  0  0  0  0  0  0
  157.7490  211.3660  156.5140 C   0  0  0  0  0  1  0  0  0  0  0  0
  159.2250  211.5120  156.4180 C   0  0  0  0  0  0  0  0  0  0  0  0
  159.7380  212.6630  156.4830 O   0  0  0  0  0  0  0  0  0  0  0  0
  2 19  2  0  0  0  0
  3  4  1  0  0  0  0
  3 11  1  0  0  0  0
  5 14  1  0  0  0  0
  6 13  1  6  0  0  0
  6  8  1  0  0  0  0
  8 14  1  0  0  0  0
  9  4  1  6  0  0  0
  9  2  1  0  0  0  0
  9  6  1  0  0  0  0
 10  3  2  0  0  0  0
 11  7  1  1  0  0  0
 11 15  1  0  0  0  0
 12 16  1  6  0  0  0
 12 18  1  0  0  0  0
 13 17  1  0  0  0  0
 14 46  1  1  0  0  0
 15  2  1  0  0  0  0
 15  1  1  1  0  0  0
 16  9  1  0  0  0  0
 17  5  1  0  0  0  0
 18  6  1  0  0  0  0
 20 26  1  0  0  0  0
 21 12  1  0  0  0  0
 21 25  1  1  0  0  0
 22 23  1  0  0  0  0
 24 31  1  0  0  0  0
 25 23  1  0  0  0  0
 26 27  2  0  0  0  0
 26 31  1  0  0  0  0
 27 30  2  0  0  0  0
 28 24  1  0  0  0  0
 30 22  1  0  0  0  0
 31 21  1  0  0  0  0
 32 29  1  6  0  0  0
 32 20  1  0  0  0  0
 32 28  1  0  0  0  0
 33 34  1  0  0  0  0
 34 32  1  0  0  0  0
 35 10  1  0  0  0  0
 36 35  1  0  0  0  0
 37 36  2  0  0  0  0
 38 36  1  0  0  0  0
 39 38  2  0  0  0  0
 40 39  1  0  0  0  0
 41 40  1  0  0  0  0
 42 41  1  0  0  0  0
 43 42  1  0  0  0  0
 44 45  1  0  0  0  0
 45 43  1  0  0  0  0
 47 46  1  6  0  0  0
 48 49  1  6  0  0  0
 48 47  1  0  0  0  0
 50 48  1  0  0  0  0
 51 50  1  0  0  0  0
 52 54  1  0  0  0  0
 52 47  1  0  0  0  0
 54 55  2  0  0  0  0
 54 53  1  0  0  0  0
M  END
>  <MODEL>
1

>  <REMARK>
 VINA RESULT:      -2.4      0.000      0.000
  Name = 
  15 active torsions:
  status: ('A' for Active; 'I' for Inactive)
    1  A    between atoms: N_1  and  C_10
    2  A    between atoms: N_3  and  N_29
    3  A    between atoms: C_4  and  C_38
    4  A    between atoms: C_4  and  C_50
    5  A    between atoms: C_6  and  C_25
    6  A    between atoms: C_6  and  C_42
    7  A    between atoms: O_11  and  C_41
    8  A    between atoms: O_11  and  C_50
    9  A    between atoms: C_12  and  C_55
   10  A    between atoms: C_15  and  C_33
   11  A    between atoms: C_21  and  C_22
   12  A    between atoms: C_21  and  C_50
   13  A    between atoms: C_24  and  C_49
   14  A    between atoms: N_40  and  C_42
   15  A    between atoms: N_40  and  C_49
                            x       y       z     vdW  Elec       q    Type
                         _______ _______ _______ _____ _____    ______ ____

>  <TORSDO>
F 15

$$$$
