=
 OpenBabel11052411513D

 32 37  0  0  1  0  0  0  0  0999 V2000
  161.9450  208.7130  150.8670 C   0  0  0  0  0  0  0  0  0  0  0  0
  161.5900  204.8410  151.7150 C   0  0  0  0  0  0  0  0  0  0  0  0
  160.5540  202.8380  151.0430 C   0  0  0  0  0  2  0  0  0  0  0  0
  161.5990  204.3060  149.3120 C   0  0  0  0  0  3  0  0  0  0  0  0
  161.2730  208.3610  152.1510 C   0  0  0  0  0  3  0  0  0  0  0  0
  161.3020  207.1120  152.6660 C   0  0  0  0  0  0  0  0  0  0  0  0
  161.9280  205.1290  150.3740 C   0  0  1  0  0  0  0  0  0  0  0  0
  162.4910  206.4350  150.7170 N   0  0  0  0  0  0  0  0  0  0  0  0
  162.2290  206.0740  152.0640 C   0  0  2  0  0  0  0  0  0  0  0  0
  160.8850  203.1290  149.6760 C   0  0  0  0  0  0  0  0  0  0  0  0
  162.5050  207.7340  150.1360 C   0  0  0  0  0  3  0  0  0  0  0  0
  160.9130  203.7020  152.1100 C   0  0  0  0  0  3  0  0  0  0  0  0
  160.7790  209.4950  157.2430 C   0  0  0  0  0  2  0  0  0  0  0  0
  160.8540  210.0670  155.8260 C   0  0  0  0  0  2  0  0  0  0  0  0
  161.4820  209.0370  154.8860 C   0  0  0  0  0  2  0  0  0  0  0  0
  160.0630  207.3910  156.2580 C   0  0  0  0  0  3  0  0  0  0  0  0
  160.7480  207.7260  154.9950 C   0  0  0  0  0  0  0  0  0  0  0  0
  160.6830  206.8610  153.9780 C   0  0  0  0  0  3  0  0  0  0  0  0
  160.0560  208.2220  157.2600 N   0  0  0  0  0  0  0  0  0  0  0  0
  161.7760  209.7800  148.1160 O   0  0  0  0  0  0  0  0  0  0  0  0
  161.9300  210.5650  149.0900 C   0  0  0  0  0  0  0  0  0  0  0  0
  161.9450  210.0820  150.4420 N   0  0  0  0  0  2  0  0  0  0  0  0
  162.1760  212.0200  148.8450 C   0  0  0  0  0  2  0  0  0  0  0  0
  162.6460  212.9490  146.6280 N   0  0  0  0  0  1  0  0  0  0  0  0
  161.5880  212.4910  147.5170 C   0  0  0  0  0  2  0  0  0  0  0  0
  160.5230  202.1670  148.6350 C   0  0  0  0  0  0  0  0  0  0  0  0
  159.5630  201.3660  148.8260 O   0  0  0  0  0  0  0  0  0  0  0  0
  161.2590  202.1340  147.4480 O   0  0  0  0  0  0  0  0  0  0  0  0
  160.7040  202.5490  146.2060 C   0  0  0  0  0  2  0  0  0  0  0  0
  161.6440  203.5280  145.5250 C   0  0  2  0  0  3  0  0  0  0  0  0
  161.2070  204.9210  145.7640 C   0  0  0  0  0  2  0  0  0  0  0  0
  160.9240  204.2540  144.5570 O   0  0  0  0  0  0  0  0  0  0  0  0
  1  5  1  0  0  0  0
  2 12  2  0  0  0  0
  3 12  1  0  0  0  0
  4 10  2  0  0  0  0
  5  6  2  0  0  0  0
  6 18  1  0  0  0  0
  7  4  1  6  0  0  0
  7  8  1  0  0  0  0
  7  2  1  0  0  0  0
  7  9  1  0  0  0  0
  8  9  1  0  0  0  0
  9  2  1  1  0  0  0
  9  6  1  0  0  0  0
 10  3  1  0  0  0  0
 11  8  1  0  0  0  0
 11  1  2  0  0  0  0
 13 19  1  0  0  0  0
 14 13  1  0  0  0  0
 15 17  1  0  0  0  0
 15 14  1  0  0  0  0
 16 19  2  0  0  0  0
 17 16  1  0  0  0  0
 18 17  2  0  0  0  0
 20 21  2  0  0  0  0
 21 22  1  0  0  0  0
 22  1  1  0  0  0  0
 23 21  1  0  0  0  0
 24 25  1  0  0  0  0
 25 23  1  0  0  0  0
 26 27  2  0  0  0  0
 26 10  1  0  0  0  0
 28 26  1  0  0  0  0
 29 28  1  0  0  0  0
 30 31  1  0  0  0  0
 30 29  1  1  0  0  0
 32 30  1  0  0  0  0
 32 31  1  0  0  0  0
M  END
>  <MODEL>
1

>  <REMARK>
 VINA RESULT:      -8.3      0.000      0.000
  Name = 
  8 active torsions:
  status: ('A' for Active; 'I' for Inactive)
    1  A    between atoms: C_1  and  N_28
    2  A    between atoms: C_3  and  C_13
    3  A    between atoms: C_5  and  C_9
    4  A    between atoms: C_8  and  O_10
    5  A    between atoms: C_8  and  C_25
    6  A    between atoms: C_9  and  C_27
    7  A    between atoms: O_10  and  C_13
    8  A    between atoms: C_18  and  C_20
                            x       y       z     vdW  Elec       q    Type
                         _______ _______ _______ _____ _____    ______ ____

>  <TORSDO>
F 8

$$$$
=
 OpenBabel11052411513D

 32 37  0  0  1  0  0  0  0  0999 V2000
  161.5690  209.8810  150.6470 C   0  0  0  0  0  0  0  0  0  0  0  0
  161.6770  205.9870  151.4550 C   0  0  0  0  0  0  0  0  0  0  0  0
  160.9000  203.8800  150.7530 C   0  0  0  0  0  2  0  0  0  0  0  0
  161.7790  205.4820  149.0480 C   0  0  0  0  0  3  0  0  0  0  0  0
  160.9300  209.4380  151.9190 C   0  0  0  0  0  3  0  0  0  0  0  0
  161.1050  208.1950  152.4230 C   0  0  0  0  0  0  0  0  0  0  0  0
  161.9930  206.3280  150.1220 C   0  0  1  0  0  0  0  0  0  0  0  0
  162.3890  207.6890  150.4830 N   0  0  0  0  0  0  0  0  0  0  0  0
  162.1580  207.2840  151.8240 C   0  0  2  0  0  0  0  0  0  0  0  0
  161.2090  204.2230  149.3920 C   0  0  0  0  0  0  0  0  0  0  0  0
  162.2530  208.9850  149.9140 C   0  0  0  0  0  3  0  0  0  0  0  0
  161.1380  204.7690  151.8310 C   0  0  0  0  0  3  0  0  0  0  0  0
  160.9890  210.0690  157.2570 C   0  0  0  0  0  2  0  0  0  0  0  0
  161.0780  210.7920  155.9120 C   0  0  0  0  0  2  0  0  0  0  0  0
  161.5610  209.8200  154.8350 C   0  0  0  0  0  2  0  0  0  0  0  0
  160.0200  208.1790  156.0750 C   0  0  0  0  0  3  0  0  0  0  0  0
  160.6950  208.5870  154.8280 C   0  0  0  0  0  0  0  0  0  0  0  0
  160.5060  207.8580  153.7240 C   0  0  0  0  0  3  0  0  0  0  0  0
  160.1340  208.8830  157.1630 N   0  0  0  0  0  0  0  0  0  0  0  0
  161.7160  211.0010  147.9150 O   0  0  0  0  0  0  0  0  0  0  0  0
  161.5530  211.7660  148.9040 C   0  0  0  0  0  0  0  0  0  0  0  0
  161.4080  211.2450  150.2330 N   0  0  0  0  0  2  0  0  0  0  0  0
  161.5820  213.2490  148.7130 C   0  0  0  0  0  2  0  0  0  0  0  0
  159.8760  214.2770  150.1380 N   0  0  0  0  0  1  0  0  0  0  0  0
  160.1890  213.8690  148.7760 C   0  0  0  0  0  2  0  0  0  0  0  0
  160.9780  203.2350  148.3380 C   0  0  0  0  0  0  0  0  0  0  0  0
  160.0900  202.3480  148.4920 O   0  0  0  0  0  0  0  0  0  0  0  0
  161.7610  203.2740  147.1820 O   0  0  0  0  0  0  0  0  0  0  0  0
  161.1990  203.5310  145.9000 C   0  0  0  0  0  2  0  0  0  0  0  0
  161.7610  204.8270  145.3440 C   0  0  2  0  0  3  0  0  0  0  0  0
  160.7020  205.8550  145.2460 C   0  0  0  0  0  2  0  0  0  0  0  0
  161.1210  205.1160  144.1230 O   0  0  0  0  0  0  0  0  0  0  0  0
  1  5  1  0  0  0  0
  2 12  2  0  0  0  0
  3 12  1  0  0  0  0
  4 10  2  0  0  0  0
  5  6  2  0  0  0  0
  6 18  1  0  0  0  0
  7  4  1  6  0  0  0
  7  8  1  0  0  0  0
  7  2  1  0  0  0  0
  7  9  1  0  0  0  0
  8  9  1  0  0  0  0
  9  2  1  1  0  0  0
  9  6  1  0  0  0  0
 10  3  1  0  0  0  0
 11  8  1  0  0  0  0
 11  1  2  0  0  0  0
 14 13  1  0  0  0  0
 15 14  1  0  0  0  0
 16 19  2  0  0  0  0
 17 15  1  0  0  0  0
 17 16  1  0  0  0  0
 18 17  2  0  0  0  0
 19 13  1  0  0  0  0
 20 21  2  0  0  0  0
 21 22  1  0  0  0  0
 22  1  1  0  0  0  0
 23 25  1  0  0  0  0
 23 21  1  0  0  0  0
 25 24  1  0  0  0  0
 26 27  2  0  0  0  0
 26 10  1  0  0  0  0
 28 26  1  0  0  0  0
 29 28  1  0  0  0  0
 30 29  1  1  0  0  0
 31 30  1  0  0  0  0
 32 31  1  0  0  0  0
 32 30  1  0  0  0  0
M  END
>  <MODEL>
2

>  <REMARK>
 VINA RESULT:      -7.8      1.340      1.432
  Name = 
  8 active torsions:
  status: ('A' for Active; 'I' for Inactive)
    1  A    between atoms: C_1  and  N_28
    2  A    between atoms: C_3  and  C_13
    3  A    between atoms: C_5  and  C_9
    4  A    between atoms: C_8  and  O_10
    5  A    between atoms: C_8  and  C_25
    6  A    between atoms: C_9  and  C_27
    7  A    between atoms: O_10  and  C_13
    8  A    between atoms: C_18  and  C_20
                            x       y       z     vdW  Elec       q    Type
                         _______ _______ _______ _____ _____    ______ ____

>  <TORSDO>
F 8

$$$$
=
 OpenBabel11052411513D

 32 37  0  0  1  0  0  0  0  0999 V2000
  162.1990  210.1540  149.2070 C   0  0  0  0  0  0  0  0  0  0  0  0
  161.0290  207.0460  151.3990 C   0  0  0  0  0  0  0  0  0  0  0  0
  161.2830  205.9930  153.4880 C   0  0  0  0  0  2  0  0  0  0  0  0
  160.9730  208.4710  153.4050 C   0  0  0  0  0  3  0  0  0  0  0  0
  162.6090  208.8010  148.7330 C   0  0  0  0  0  3  0  0  0  0  0  0
  162.0820  207.6640  149.2430 C   0  0  0  0  0  0  0  0  0  0  0  0
  160.9090  208.3020  152.0340 C   0  0  1  0  0  0  0  0  0  0  0  0
  160.8540  209.0240  150.7630 N   0  0  0  0  0  0  0  0  0  0  0  0
  160.8750  207.7410  150.1570 C   0  0  2  0  0  0  0  0  0  0  0  0
  161.1720  207.2690  154.1400 C   0  0  0  0  0  0  0  0  0  0  0  0
  161.3620  210.2520  150.2540 C   0  0  0  0  0  3  0  0  0  0  0  0
  161.2060  205.8540  152.0790 C   0  0  0  0  0  3  0  0  0  0  0  0
  160.7620  204.6030  145.2700 C   0  0  0  0  0  2  0  0  0  0  0  0
  160.7600  206.1280  145.3940 C   0  0  0  0  0  2  0  0  0  0  0  0
  160.7620  206.5250  146.8710 C   0  0  0  0  0  2  0  0  0  0  0  0
  162.3930  204.5490  147.0720 C   0  0  0  0  0  3  0  0  0  0  0  0
  161.8960  205.8380  147.5870 C   0  0  0  0  0  0  0  0  0  0  0  0
  162.4790  206.3690  148.6670 C   0  0  0  0  0  3  0  0  0  0  0  0
  161.8910  204.0160  145.9960 N   0  0  0  0  0  0  0  0  0  0  0  0
  160.8150  212.0570  147.4180 O   0  0  0  0  0  0  0  0  0  0  0  0
  162.0530  212.1730  147.6290 C   0  0  0  0  0  0  0  0  0  0  0  0
  162.7370  211.3080  148.5470 N   0  0  0  0  0  2  0  0  0  0  0  0
  162.8490  213.1800  146.8610 C   0  0  0  0  0  2  0  0  0  0  0  0
  163.1110  213.1060  144.4270 N   0  0  0  0  0  1  0  0  0  0  0  0
  162.2220  213.5050  145.5080 C   0  0  0  0  0  2  0  0  0  0  0  0
  161.2140  207.3270  155.6020 C   0  0  0  0  0  0  0  0  0  0  0  0
  160.3380  206.7200  156.2810 O   0  0  0  0  0  0  0  0  0  0  0  0
  162.2150  208.0760  156.2270 O   0  0  0  0  0  0  0  0  0  0  0  0
  161.9220  209.0080  157.2610 C   0  0  0  0  0  2  0  0  0  0  0  0
  162.6780  210.3020  157.0130 C   0  0  2  0  0  3  0  0  0  0  0  0
  161.7380  211.4010  156.7030 C   0  0  0  0  0  2  0  0  0  0  0  0
  162.4420  210.7220  155.6900 O   0  0  0  0  0  0  0  0  0  0  0  0
  1 11  2  0  0  0  0
  2  7  1  0  0  0  0
  2 12  2  0  0  0  0
  3 10  1  0  0  0  0
  4 10  2  0  0  0  0
  5  1  1  0  0  0  0
  5  6  2  0  0  0  0
  7  4  1  1  0  0  0
  8  7  1  0  0  0  0
  9  6  1  1  0  0  0
  9  8  1  0  0  0  0
  9  2  1  0  0  0  0
  9  7  1  0  0  0  0
 10 26  1  0  0  0  0
 11  8  1  0  0  0  0
 12  3  1  0  0  0  0
 13 14  1  0  0  0  0
 13 19  1  0  0  0  0
 14 15  1  0  0  0  0
 15 17  1  0  0  0  0
 16 17  1  0  0  0  0
 17 18  2  0  0  0  0
 18  6  1  0  0  0  0
 19 16  2  0  0  0  0
 20 21  2  0  0  0  0
 21 22  1  0  0  0  0
 22  1  1  0  0  0  0
 23 21  1  0  0  0  0
 24 25  1  0  0  0  0
 25 23  1  0  0  0  0
 26 28  1  0  0  0  0
 26 27  2  0  0  0  0
 28 29  1  0  0  0  0
 30 29  1  6  0  0  0
 31 30  1  0  0  0  0
 32 31  1  0  0  0  0
 32 30  1  0  0  0  0
M  END
>  <MODEL>
3

>  <REMARK>
 VINA RESULT:      -6.9      3.513      7.603
  Name = 
  8 active torsions:
  status: ('A' for Active; 'I' for Inactive)
    1  A    between atoms: C_1  and  N_28
    2  A    between atoms: C_3  and  C_13
    3  A    between atoms: C_5  and  C_9
    4  A    between atoms: C_8  and  O_10
    5  A    between atoms: C_8  and  C_25
    6  A    between atoms: C_9  and  C_27
    7  A    between atoms: O_10  and  C_13
    8  A    between atoms: C_18  and  C_20
                            x       y       z     vdW  Elec       q    Type
                         _______ _______ _______ _____ _____    ______ ____

>  <TORSDO>
F 8

$$$$
=
 OpenBabel11052411513D

 32 37  0  0  1  0  0  0  0  0999 V2000
  161.2610  212.0520  149.8410 C   0  0  0  0  0  0  0  0  0  0  0  0
  161.4880  208.6470  151.8870 C   0  0  0  0  0  0  0  0  0  0  0  0
  160.8650  206.3770  151.8710 C   0  0  0  0  0  2  0  0  0  0  0  0
  161.7960  207.3970  149.7880 C   0  0  0  0  0  3  0  0  0  0  0  0
  160.5490  212.0010  151.1500 C   0  0  0  0  0  3  0  0  0  0  0  0
  160.7420  211.0040  152.0430 C   0  0  0  0  0  0  0  0  0  0  0  0
  161.8880  208.5580  150.5350 C   0  0  1  0  0  0  0  0  0  0  0  0
  162.1920  209.9860  150.4520 N   0  0  0  0  0  0  0  0  0  0  0  0
  161.8790  210.0230  151.8360 C   0  0  2  0  0  0  0  0  0  0  0  0
  161.2610  206.2820  150.4930 C   0  0  0  0  0  0  0  0  0  0  0  0
  162.0390  211.0160  149.4820 C   0  0  0  0  0  3  0  0  0  0  0  0
  160.9800  207.5830  152.6100 C   0  0  0  0  0  3  0  0  0  0  0  0
  157.2440  213.9640  154.4720 C   0  0  0  0  0  2  0  0  0  0  0  0
  157.3850  213.6020  152.9920 C   0  0  0  0  0  2  0  0  0  0  0  0
  158.8100  213.1220  152.7120 C   0  0  0  0  0  2  0  0  0  0  0  0
  158.5280  211.9660  154.9900 C   0  0  0  0  0  3  0  0  0  0  0  0
  159.1770  212.0160  153.6670 C   0  0  0  0  0  0  0  0  0  0  0  0
  160.0630  211.0670  153.3470 C   0  0  0  0  0  3  0  0  0  0  0  0
  157.6240  212.8380  155.3290 N   0  0  0  0  0  0  0  0  0  0  0  0
  159.9340  212.1790  147.2030 O   0  0  0  0  0  0  0  0  0  0  0  0
  160.4780  213.2080  147.6870 C   0  0  0  0  0  0  0  0  0  0  0  0
  161.0680  213.1940  148.9950 N   0  0  0  0  0  2  0  0  0  0  0  0
  160.5840  214.4530  146.8650 C   0  0  0  0  0  2  0  0  0  0  0  0
  162.5300  213.6890  145.5890 N   0  0  0  0  0  1  0  0  0  0  0  0
  161.1660  214.1850  145.4790 C   0  0  0  0  0  2  0  0  0  0  0  0
  161.1560  204.9920  149.8100 C   0  0  0  0  0  0  0  0  0  0  0  0
  161.3680  203.9230  150.4510 O   0  0  0  0  0  0  0  0  0  0  0  0
  160.8440  204.9630  148.4490 O   0  0  0  0  0  0  0  0  0  0  0  0
  161.6940  204.3370  147.4950 C   0  0  0  0  0  2  0  0  0  0  0  0
  162.5610  205.3830  146.8160 C   0  0  2  0  0  3  0  0  0  0  0  0
  162.1710  205.5410  145.3980 C   0  0  0  0  0  2  0  0  0  0  0  0
  163.2860  204.7700  145.7750 O   0  0  0  0  0  0  0  0  0  0  0  0
  1  5  1  0  0  0  0
  2 12  2  0  0  0  0
  3 12  1  0  0  0  0
  4 10  2  0  0  0  0
  5  6  2  0  0  0  0
  6 18  1  0  0  0  0
  7  4  1  1  0  0  0
  7  9  1  0  0  0  0
  7  2  1  0  0  0  0
  8  7  1  0  0  0  0
  8  9  1  0  0  0  0
  9  2  1  1  0  0  0
  9  6  1  0  0  0  0
 10  3  1  0  0  0  0
 11  1  2  0  0  0  0
 11  8  1  0  0  0  0
 13 19  1  0  0  0  0
 14 13  1  0  0  0  0
 15 14  1  0  0  0  0
 15 17  1  0  0  0  0
 16 19  2  0  0  0  0
 17 16  1  0  0  0  0
 18 17  2  0  0  0  0
 20 21  2  0  0  0  0
 21 22  1  0  0  0  0
 22  1  1  0  0  0  0
 23 21  1  0  0  0  0
 25 24  1  0  0  0  0
 25 23  1  0  0  0  0
 26 27  2  0  0  0  0
 26 10  1  0  0  0  0
 28 26  1  0  0  0  0
 29 28  1  0  0  0  0
 30 29  1  1  0  0  0
 31 32  1  0  0  0  0
 31 30  1  0  0  0  0
 32 30  1  0  0  0  0
M  END
>  <MODEL>
4

>  <REMARK>
 VINA RESULT:      -6.7      2.749      3.807
  Name = 
  8 active torsions:
  status: ('A' for Active; 'I' for Inactive)
    1  A    between atoms: C_1  and  N_28
    2  A    between atoms: C_3  and  C_13
    3  A    between atoms: C_5  and  C_9
    4  A    between atoms: C_8  and  O_10
    5  A    between atoms: C_8  and  C_25
    6  A    between atoms: C_9  and  C_27
    7  A    between atoms: O_10  and  C_13
    8  A    between atoms: C_18  and  C_20
                            x       y       z     vdW  Elec       q    Type
                         _______ _______ _______ _____ _____    ______ ____

>  <TORSDO>
F 8

$$$$
=
 OpenBabel11052411513D

 32 37  0  0  1  0  0  0  0  0999 V2000
  161.1780  211.2700  150.8720 C   0  0  0  0  0  0  0  0  0  0  0  0
  161.5270  207.9030  152.9620 C   0  0  0  0  0  0  0  0  0  0  0  0
  160.9380  205.6250  153.0050 C   0  0  0  0  0  2  0  0  0  0  0  0
  161.7780  206.6230  150.8740 C   0  0  0  0  0  3  0  0  0  0  0  0
  160.5130  211.2310  152.2060 C   0  0  0  0  0  3  0  0  0  0  0  0
  160.7530  210.2520  153.1070 C   0  0  0  0  0  0  0  0  0  0  0  0
  161.8800  207.7970  151.5990 C   0  0  1  0  0  0  0  0  0  0  0  0
  162.1600  209.2280  151.4820 N   0  0  2  0  0  0  0  0  0  0  0  0
  161.8960  209.2830  152.8750 C   0  0  2  0  0  0  0  0  0  0  0  0
  161.2850  205.5120  151.6160 C   0  0  0  0  0  0  0  0  0  0  0  0
  161.9580  210.2390  150.5020 C   0  0  0  0  0  2  0  0  0  0  0  0
  161.0610  206.8440  153.7200 C   0  0  0  0  0  3  0  0  0  0  0  0
  156.8560  212.7710  155.4230 C   0  0  0  0  0  2  0  0  0  0  0  0
  157.0090  212.2880  153.9800 C   0  0  0  0  0  2  0  0  0  0  0  0
  158.4880  212.0460  153.6720 C   0  0  0  0  0  2  0  0  0  0  0  0
  158.5030  211.1010  156.0610 C   0  0  0  0  0  3  0  0  0  0  0  0
  159.0860  211.1290  154.7070 C   0  0  0  0  0  0  0  0  0  0  0  0
  160.1190  210.3260  154.4330 C   0  0  0  0  0  3  0  0  0  0  0  0
  157.4650  211.8270  156.3630 N   0  0  0  0  0  0  0  0  0  0  0  0
  161.8990  211.5940  148.0240 O   0  0  0  0  0  0  0  0  0  0  0  0
  161.3630  212.5460  148.6520 C   0  0  0  0  0  0  0  0  0  0  0  0
  160.9390  212.3950  150.0150 N   0  0  0  0  0  0  0  0  0  0  0  0
  161.2270  213.8870  148.0020 C   0  0  0  0  0  2  0  0  0  0  0  0
  160.2320  213.4690  145.8040 N   0  0  0  0  0  1  0  0  0  0  0  0
  159.9720  213.9870  147.1390 C   0  0  0  0  0  2  0  0  0  0  0  0
  161.1750  204.2100  150.9580 C   0  0  0  0  0  0  0  0  0  0  0  0
  161.5820  203.1700  151.5510 O   0  0  0  0  0  0  0  0  0  0  0  0
  160.6410  204.1390  149.6690 O   0  0  0  0  0  0  0  0  0  0  0  0
  161.2140  203.3130  148.6610 C   0  0  0  0  0  2  0  0  0  0  0  0
  160.3710  202.0630  148.4820 C   0  0  2  0  0  3  0  0  0  0  0  0
  161.2030  200.8490  148.6330 C   0  0  0  0  0  2  0  0  0  0  0  0
  160.8470  201.3480  147.3660 O   0  0  0  0  0  0  0  0  0  0  0  0
  1  5  1  0  0  0  0
  2 12  2  0  0  0  0
  3 12  1  0  0  0  0
  4 10  2  0  0  0  0
  5  6  2  0  0  0  0
  6 18  1  0  0  0  0
  7  4  1  1  0  0  0
  7  9  1  0  0  0  0
  7  2  1  0  0  0  0
  8 11  1  6  0  0  0
  8  7  1  0  0  0  0
  8  9  1  0  0  0  0
  9  2  1  1  0  0  0
  9  6  1  0  0  0  0
 10  3  1  0  0  0  0
 11  1  1  0  0  0  0
 13 19  1  0  0  0  0
 14 13  1  0  0  0  0
 15 14  1  0  0  0  0
 15 17  1  0  0  0  0
 16 19  2  0  0  0  0
 17 16  1  0  0  0  0
 18 17  2  0  0  0  0
 20 21  2  0  0  0  0
 21 22  1  0  0  0  0
 22  1  2  0  0  0  0
 23 21  1  0  0  0  0
 24 25  1  0  0  0  0
 25 23  1  0  0  0  0
 26 27  2  0  0  0  0
 26 10  1  0  0  0  0
 28 26  1  0  0  0  0
 29 28  1  0  0  0  0
 30 31  1  0  0  0  0
 30 29  1  6  0  0  0
 32 30  1  0  0  0  0
 32 31  1  0  0  0  0
M  END
>  <MODEL>
5

>  <REMARK>
 VINA RESULT:      -6.6      2.377      3.425
  Name = 
  8 active torsions:
  status: ('A' for Active; 'I' for Inactive)
    1  A    between atoms: C_1  and  N_28
    2  A    between atoms: C_3  and  C_13
    3  A    between atoms: C_5  and  C_9
    4  A    between atoms: C_8  and  O_10
    5  A    between atoms: C_8  and  C_25
    6  A    between atoms: C_9  and  C_27
    7  A    between atoms: O_10  and  C_13
    8  A    between atoms: C_18  and  C_20
                            x       y       z     vdW  Elec       q    Type
                         _______ _______ _______ _____ _____    ______ ____

>  <TORSDO>
F 8

$$$$
=
 OpenBabel11052411513D

 32 37  0  0  1  0  0  0  0  0999 V2000
  160.4570  212.0920  151.5140 C   0  0  0  0  0  0  0  0  0  0  0  0
  161.3310  208.8950  153.7160 C   0  0  0  0  0  0  0  0  0  0  0  0
  160.9800  206.5770  153.9210 C   0  0  0  0  0  2  0  0  0  0  0  0
  161.5200  207.5310  151.6760 C   0  0  0  0  0  3  0  0  0  0  0  0
  159.9230  212.0640  152.9060 C   0  0  0  0  0  3  0  0  0  0  0  0
  160.3400  211.1640  153.8250 C   0  0  0  0  0  0  0  0  0  0  0  0
  161.5680  208.7480  152.3320 C   0  0  1  0  0  0  0  0  0  0  0  0
  161.6910  210.1910  152.1220 N   0  0  0  0  0  0  0  0  0  0  0  0
  161.5500  210.2980  153.5300 C   0  0  2  0  0  0  0  0  0  0  0  0
  161.2100  206.4210  152.5110 C   0  0  0  0  0  0  0  0  0  0  0  0
  161.3000  211.1220  151.1200 C   0  0  0  0  0  3  0  0  0  0  0  0
  161.0440  207.8400  154.5640 C   0  0  0  0  0  3  0  0  0  0  0  0
  155.8000  211.8090  156.2460 C   0  0  0  0  0  2  0  0  0  0  0  0
  156.1330  211.1100  154.9270 C   0  0  0  0  0  2  0  0  0  0  0  0
  157.4880  211.5970  154.4130 C   0  0  0  0  0  2  0  0  0  0  0  0
  158.1170  211.4770  156.9020 C   0  0  0  0  0  3  0  0  0  0  0  0
  158.5330  211.4400  155.4880 C   0  0  0  0  0  0  0  0  0  0  0  0
  159.8250  211.2510  155.2010 C   0  0  0  0  0  3  0  0  0  0  0  0
  156.8650  211.6100  157.2320 N   0  0  0  0  0  0  0  0  0  0  0  0
  157.6990  212.9520  150.8870 O   0  0  0  0  0  0  0  0  0  0  0  0
  158.6770  213.4870  150.2980 C   0  0  0  0  0  0  0  0  0  0  0  0
  160.0290  213.1390  150.6330 N   0  0  0  0  0  2  0  0  0  0  0  0
  158.4390  214.4490  149.1780 C   0  0  0  0  0  2  0  0  0  0  0  0
  158.1890  212.7990  147.3850 N   0  0  0  0  0  1  0  0  0  0  0  0
  157.5190  213.8730  148.1050 C   0  0  0  0  0  2  0  0  0  0  0  0
  161.1730  205.0800  151.9280 C   0  0  0  0  0  0  0  0  0  0  0  0
  160.7840  204.1010  152.6280 O   0  0  0  0  0  0  0  0  0  0  0  0
  161.5900  204.8980  150.6070 O   0  0  0  0  0  0  0  0  0  0  0  0
  160.7870  204.2130  149.6520 C   0  0  0  0  0  2  0  0  0  0  0  0
  161.6620  203.6960  148.5240 C   0  0  2  0  0  3  0  0  0  0  0  0
  161.2080  204.2380  147.2240 C   0  0  0  0  0  2  0  0  0  0  0  0
  160.8680  202.9370  147.6420 O   0  0  0  0  0  0  0  0  0  0  0  0
  1  5  1  0  0  0  0
  2 12  2  0  0  0  0
  3 12  1  0  0  0  0
  4 10  2  0  0  0  0
  5  6  2  0  0  0  0
  6 18  1  0  0  0  0
  7  4  1  1  0  0  0
  7  9  1  0  0  0  0
  7  2  1  0  0  0  0
  8  7  1  0  0  0  0
  8  9  1  0  0  0  0
  9  2  1  1  0  0  0
  9  6  1  0  0  0  0
 10  3  1  0  0  0  0
 11  1  2  0  0  0  0
 11  8  1  0  0  0  0
 13 19  1  0  0  0  0
 14 13  1  0  0  0  0
 15 14  1  0  0  0  0
 15 17  1  0  0  0  0
 16 19  2  0  0  0  0
 17 16  1  0  0  0  0
 18 17  2  0  0  0  0
 21 22  1  0  0  0  0
 21 20  2  0  0  0  0
 22  1  1  0  0  0  0
 23 21  1  0  0  0  0
 24 25  1  0  0  0  0
 25 23  1  0  0  0  0
 26 10  1  0  0  0  0
 26 27  2  0  0  0  0
 28 26  1  0  0  0  0
 29 28  1  0  0  0  0
 30 29  1  1  0  0  0
 31 32  1  0  0  0  0
 31 30  1  0  0  0  0
 32 30  1  0  0  0  0
M  END
>  <MODEL>
6

>  <REMARK>
 VINA RESULT:      -6.3      3.168      4.347
  Name = 
  8 active torsions:
  status: ('A' for Active; 'I' for Inactive)
    1  A    between atoms: C_1  and  N_28
    2  A    between atoms: C_3  and  C_13
    3  A    between atoms: C_5  and  C_9
    4  A    between atoms: C_8  and  O_10
    5  A    between atoms: C_8  and  C_25
    6  A    between atoms: C_9  and  C_27
    7  A    between atoms: O_10  and  C_13
    8  A    between atoms: C_18  and  C_20
                            x       y       z     vdW  Elec       q    Type
                         _______ _______ _______ _____ _____    ______ ____

>  <TORSDO>
F 8

$$$$
=
 OpenBabel11052411513D

 32 37  0  0  1  0  0  0  0  0999 V2000
  161.5390  211.3510  150.0060 C   0  0  0  0  0  0  0  0  0  0  0  0
  161.4860  207.8970  151.9800 C   0  0  0  0  0  0  0  0  0  0  0  0
  160.7750  205.6570  151.8680 C   0  0  0  0  0  2  0  0  0  0  0  0
  161.8870  206.6800  149.8780 C   0  0  0  0  0  3  0  0  0  0  0  0
  160.7370  211.3030  151.2610 C   0  0  0  0  0  3  0  0  0  0  0  0
  160.8280  210.2810  152.1410 C   0  0  0  0  0  0  0  0  0  0  0  0
  161.9750  207.8200  150.6570 C   0  0  1  0  0  0  0  0  0  0  0  0
  162.3410  209.2360  150.6290 N   0  0  0  0  0  0  0  0  0  0  0  0
  161.9350  209.2560  151.9890 C   0  0  2  0  0  0  0  0  0  0  0  0
  161.2600  205.5740  150.5180 C   0  0  0  0  0  0  0  0  0  0  0  0
  162.2970  210.2910  149.6760 C   0  0  0  0  0  3  0  0  0  0  0  0
  160.8870  206.8410  152.6420 C   0  0  0  0  0  3  0  0  0  0  0  0
  161.7310  210.3890  157.2470 C   0  0  0  0  0  2  0  0  0  0  0  0
  162.5420  210.9590  156.0810 C   0  0  0  0  0  2  0  0  0  0  0  0
  162.1310  210.2660  154.7810 C   0  0  0  0  0  2  0  0  0  0  0  0
  159.7790  210.4460  155.8000 C   0  0  0  0  0  3  0  0  0  0  0  0
  160.6370  210.3460  154.6040 C   0  0  0  0  0  0  0  0  0  0  0  0
  160.0630  210.3440  153.3970 C   0  0  0  0  0  3  0  0  0  0  0  0
  160.2930  210.5010  156.9940 N   0  0  0  0  0  0  0  0  0  0  0  0
  159.3710  213.3560  149.8800 O   0  0  0  0  0  0  0  0  0  0  0  0
  160.3510  213.4350  149.0910 C   0  0  0  0  0  0  0  0  0  0  0  0
  161.4520  212.5180  149.1760 N   0  0  0  0  0  2  0  0  0  0  0  0
  160.3480  214.4530  147.9950 C   0  0  0  0  0  2  0  0  0  0  0  0
  159.4760  212.7610  146.4540 N   0  0  0  0  0  1  0  0  0  0  0  0
  160.4670  213.8160  146.6130 C   0  0  0  0  0  2  0  0  0  0  0  0
  161.1500  204.3050  149.7990 C   0  0  0  0  0  0  0  0  0  0  0  0
  160.5940  203.3140  150.3540 O   0  0  0  0  0  0  0  0  0  0  0  0
  161.6850  204.2000  148.5130 O   0  0  0  0  0  0  0  0  0  0  0  0
  160.9260  204.5240  147.3530 C   0  0  0  0  0  2  0  0  0  0  0  0
  161.8100  205.2370  146.3460 C   0  0  2  0  0  3  0  0  0  0  0  0
  162.3500  204.2790  145.3570 C   0  0  0  0  0  2  0  0  0  0  0  0
  163.1190  204.7290  146.4460 O   0  0  0  0  0  0  0  0  0  0  0  0
  1  5  1  0  0  0  0
  2 12  2  0  0  0  0
  3 12  1  0  0  0  0
  4 10  2  0  0  0  0
  5  6  2  0  0  0  0
  6 18  1  0  0  0  0
  7  4  1  1  0  0  0
  7  2  1  0  0  0  0
  7  9  1  0  0  0  0
  8  7  1  0  0  0  0
  8  9  1  0  0  0  0
  9  2  1  1  0  0  0
  9  6  1  0  0  0  0
 10  3  1  0  0  0  0
 11  1  2  0  0  0  0
 11  8  1  0  0  0  0
 14 13  1  0  0  0  0
 15 14  1  0  0  0  0
 16 19  2  0  0  0  0
 17 15  1  0  0  0  0
 17 16  1  0  0  0  0
 18 17  2  0  0  0  0
 19 13  1  0  0  0  0
 21 22  1  0  0  0  0
 21 20  2  0  0  0  0
 22  1  1  0  0  0  0
 23 21  1  0  0  0  0
 24 25  1  0  0  0  0
 25 23  1  0  0  0  0
 26 27  2  0  0  0  0
 26 10  1  0  0  0  0
 28 26  1  0  0  0  0
 29 28  1  0  0  0  0
 30 32  1  0  0  0  0
 30 29  1  1  0  0  0
 31 30  1  0  0  0  0
 31 32  1  0  0  0  0
M  END
>  <MODEL>
7

>  <REMARK>
 VINA RESULT:      -6.3      1.970      2.774
  Name = 
  8 active torsions:
  status: ('A' for Active; 'I' for Inactive)
    1  A    between atoms: C_1  and  N_28
    2  A    between atoms: C_3  and  C_13
    3  A    between atoms: C_5  and  C_9
    4  A    between atoms: C_8  and  O_10
    5  A    between atoms: C_8  and  C_25
    6  A    between atoms: C_9  and  C_27
    7  A    between atoms: O_10  and  C_13
    8  A    between atoms: C_18  and  C_20
                            x       y       z     vdW  Elec       q    Type
                         _______ _______ _______ _____ _____    ______ ____

>  <TORSDO>
F 8

$$$$
=
 OpenBabel11052411513D

 32 37  0  0  1  0  0  0  0  0999 V2000
  161.6900  211.2110  150.2160 C   0  0  0  0  0  0  0  0  0  0  0  0
  161.6360  207.3510  151.1780 C   0  0  0  0  0  0  0  0  0  0  0  0
  160.9250  205.2250  150.4610 C   0  0  0  0  0  2  0  0  0  0  0  0
  162.0380  206.7510  148.8240 C   0  0  0  0  0  3  0  0  0  0  0  0
  160.8870  210.8240  151.4110 C   0  0  0  0  0  3  0  0  0  0  0  0
  160.9770  209.6010  151.9800 C   0  0  0  0  0  0  0  0  0  0  0  0
  162.1250  207.6360  149.8840 C   0  0  1  0  0  0  0  0  0  0  0  0
  162.4920  209.0060  150.2420 N   0  0  0  0  0  0  0  0  0  0  0  0
  162.0850  208.6560  151.5560 C   0  0  2  0  0  0  0  0  0  0  0  0
  161.4100  205.5120  149.1390 C   0  0  0  0  0  0  0  0  0  0  0  0
  162.4480  210.2810  149.6110 C   0  0  0  0  0  3  0  0  0  0  0  0
  161.0360  206.1540  151.5270 C   0  0  0  0  0  3  0  0  0  0  0  0
  161.5310  210.0900  157.1130 C   0  0  0  0  0  2  0  0  0  0  0  0
  162.0570  210.9590  155.9690 C   0  0  0  0  0  2  0  0  0  0  0  0
  162.0450  210.1580  154.6660 C   0  0  0  0  0  2  0  0  0  0  0  0
  159.8140  209.2850  155.5940 C   0  0  0  0  0  3  0  0  0  0  0  0
  160.6770  209.5730  154.4330 C   0  0  0  0  0  0  0  0  0  0  0  0
  160.2120  209.3200  153.2060 C   0  0  0  0  0  3  0  0  0  0  0  0
  160.2020  209.5590  156.8060 N   0  0  0  0  0  0  0  0  0  0  0  0
  160.0530  212.2640  147.9910 O   0  0  0  0  0  0  0  0  0  0  0  0
  160.8480  213.0250  148.6060 C   0  0  0  0  0  0  0  0  0  0  0  0
  161.6030  212.5590  149.7350 N   0  0  0  0  0  2  0  0  0  0  0  0
  161.0740  214.4210  148.1170 C   0  0  0  0  0  2  0  0  0  0  0  0
  162.3420  213.1470  146.4540 N   0  0  0  0  0  1  0  0  0  0  0  0
  161.7790  214.4530  146.7640 C   0  0  0  0  0  2  0  0  0  0  0  0
  161.3020  204.4860  148.1020 C   0  0  0  0  0  0  0  0  0  0  0  0
  160.7460  204.7620  147.0000 O   0  0  0  0  0  0  0  0  0  0  0  0
  161.7970  203.2050  148.3550 O   0  0  0  0  0  0  0  0  0  0  0  0
  161.3280  202.0630  147.6460 C   0  0  0  0  0  2  0  0  0  0  0  0
  160.9010  200.9880  148.6290 C   0  0  2  0  0  3  0  0  0  0  0  0
  159.7500  201.4490  149.4360 C   0  0  0  0  0  2  0  0  0  0  0  0
  161.0640  201.4780  149.9400 O   0  0  0  0  0  0  0  0  0  0  0  0
  1  5  1  0  0  0  0
  2 12  2  0  0  0  0
  3 12  1  0  0  0  0
  4 10  2  0  0  0  0
  5  6  2  0  0  0  0
  6 18  1  0  0  0  0
  7  4  1  1  0  0  0
  7  8  1  0  0  0  0
  7  2  1  0  0  0  0
  7  9  1  0  0  0  0
  8  9  1  0  0  0  0
  9  2  1  1  0  0  0
  9  6  1  0  0  0  0
 10  3  1  0  0  0  0
 11  1  2  0  0  0  0
 11  8  1  0  0  0  0
 14 13  1  0  0  0  0
 15 14  1  0  0  0  0
 16 19  2  0  0  0  0
 17 15  1  0  0  0  0
 17 16  1  0  0  0  0
 18 17  2  0  0  0  0
 19 13  1  0  0  0  0
 20 21  2  0  0  0  0
 21 22  1  0  0  0  0
 22  1  1  0  0  0  0
 23 21  1  0  0  0  0
 24 25  1  0  0  0  0
 25 23  1  0  0  0  0
 26 28  1  0  0  0  0
 26 10  1  0  0  0  0
 27 26  2  0  0  0  0
 29 28  1  0  0  0  0
 30 29  1  6  0  0  0
 30 31  1  0  0  0  0
 30 32  1  0  0  0  0
 31 32  1  0  0  0  0
M  END
>  <MODEL>
8

>  <REMARK>
 VINA RESULT:      -6.2      1.739      2.765
  Name = 
  8 active torsions:
  status: ('A' for Active; 'I' for Inactive)
    1  A    between atoms: C_1  and  N_28
    2  A    between atoms: C_3  and  C_13
    3  A    between atoms: C_5  and  C_9
    4  A    between atoms: C_8  and  O_10
    5  A    between atoms: C_8  and  C_25
    6  A    between atoms: C_9  and  C_27
    7  A    between atoms: O_10  and  C_13
    8  A    between atoms: C_18  and  C_20
                            x       y       z     vdW  Elec       q    Type
                         _______ _______ _______ _____ _____    ______ ____

>  <TORSDO>
F 8

$$$$
=
 OpenBabel11052411513D

 32 37  0  0  1  0  0  0  0  0999 V2000
  161.1070  207.0010  148.5470 C   0  0  0  0  0  0  0  0  0  0  0  0
  162.2980  209.2600  151.5980 C   0  0  0  0  0  0  0  0  0  0  0  0
  161.5700  210.3410  153.5580 C   0  0  0  0  0  2  0  0  0  0  0  0
  160.8320  207.9950  153.1180 C   0  0  0  0  0  3  0  0  0  0  0  0
  161.5600  208.3850  148.2260 C   0  0  0  0  0  3  0  0  0  0  0  0
  162.2070  209.1620  149.1230 C   0  0  0  0  0  0  0  0  0  0  0  0
  161.5840  208.0970  151.9610 C   0  0  1  0  0  0  0  0  0  0  0  0
  161.9150  207.4120  150.7120 N   0  0  0  0  0  0  0  0  0  0  0  0
  162.7050  208.5550  150.4210 C   0  0  2  0  0  0  0  0  0  0  0  0
  160.8330  209.1650  153.9280 C   0  0  0  0  0  0  0  0  0  0  0  0
  161.2440  206.5450  149.8040 C   0  0  0  0  0  3  0  0  0  0  0  0
  162.3370  210.4100  152.3660 C   0  0  0  0  0  3  0  0  0  0  0  0
  160.6050  214.0940  149.1920 C   0  0  0  0  0  2  0  0  0  0  0  0
  160.3510  212.9520  150.1780 C   0  0  0  0  0  2  0  0  0  0  0  0
  160.6150  211.6110  149.4920 C   0  0  0  0  0  2  0  0  0  0  0  0
  162.5830  212.8920  148.4500 C   0  0  0  0  0  3  0  0  0  0  0  0
  161.9880  211.6110  148.8720 C   0  0  0  0  0  0  0  0  0  0  0  0
  162.6930  210.4870  148.7070 C   0  0  0  0  0  3  0  0  0  0  0  0
  161.9570  214.0180  148.6340 N   0  0  0  0  0  0  0  0  0  0  0  0
  162.2950  206.1580  145.9750 O   0  0  0  0  0  0  0  0  0  0  0  0
  161.0950  205.8770  146.2390 C   0  0  0  0  0  0  0  0  0  0  0  0
  160.5120  206.2120  147.5070 N   0  0  0  0  0  2  0  0  0  0  0  0
  160.2280  205.2490  145.1940 C   0  0  0  0  0  2  0  0  0  0  0  0
  161.2010  203.0500  145.6630 N   0  0  0  0  0  1  0  0  0  0  0  0
  160.8540  203.9880  144.6040 C   0  0  0  0  0  2  0  0  0  0  0  0
  160.1030  209.1530  155.1960 C   0  0  0  0  0  0  0  0  0  0  0  0
  159.8370  208.0510  155.7580 O   0  0  0  0  0  0  0  0  0  0  0  0
  159.6890  210.3630  155.7580 O   0  0  0  0  0  0  0  0  0  0  0  0
  158.3850  210.8880  155.5390 C   0  0  0  0  0  2  0  0  0  0  0  0
  158.4810  212.1890  154.7630 C   0  0  2  0  0  3  0  0  0  0  0  0
  157.1730  212.5370  154.1660 C   0  0  0  0  0  2  0  0  0  0  0  0
  158.1940  211.9350  153.4070 O   0  0  0  0  0  0  0  0  0  0  0  0
  1 11  2  0  0  0  0
  2  7  1  0  0  0  0
  2 12  2  0  0  0  0
  3 10  1  0  0  0  0
  4 10  2  0  0  0  0
  5  1  1  0  0  0  0
  5  6  2  0  0  0  0
  7  4  1  1  0  0  0
  8  7  1  0  0  0  0
  9  6  1  6  0  0  0
  9  8  1  0  0  0  0
  9  2  1  0  0  0  0
  9  7  1  0  0  0  0
 10 26  1  0  0  0  0
 11  8  1  0  0  0  0
 12  3  1  0  0  0  0
 13 14  1  0  0  0  0
 15 14  1  0  0  0  0
 16 19  2  0  0  0  0
 16 17  1  0  0  0  0
 17 15  1  0  0  0  0
 18 17  2  0  0  0  0
 18  6  1  0  0  0  0
 19 13  1  0  0  0  0
 20 21  2  0  0  0  0
 21 22  1  0  0  0  0
 22  1  1  0  0  0  0
 23 21  1  0  0  0  0
 25 23  1  0  0  0  0
 25 24  1  0  0  0  0
 26 27  2  0  0  0  0
 26 28  1  0  0  0  0
 29 28  1  0  0  0  0
 30 29  1  1  0  0  0
 31 30  1  0  0  0  0
 32 31  1  0  0  0  0
 32 30  1  0  0  0  0
M  END
>  <MODEL>
9

>  <REMARK>
 VINA RESULT:      -6.0      3.226      7.941
  Name = 
  8 active torsions:
  status: ('A' for Active; 'I' for Inactive)
    1  A    between atoms: C_1  and  N_28
    2  A    between atoms: C_3  and  C_13
    3  A    between atoms: C_5  and  C_9
    4  A    between atoms: C_8  and  O_10
    5  A    between atoms: C_8  and  C_25
    6  A    between atoms: C_9  and  C_27
    7  A    between atoms: O_10  and  C_13
    8  A    between atoms: C_18  and  C_20
                            x       y       z     vdW  Elec       q    Type
                         _______ _______ _______ _____ _____    ______ ____

>  <TORSDO>
F 8

$$$$
