=
 OpenBabel11052410033D

 68 78  0  0  1  0  0  0  0  0999 V2000
  160.1920  205.1260  149.7480 C   0  0  0  0  0  3  0  0  0  0  0  0
  160.7650  209.8760  146.8300 C   0  0  0  0  0  2  0  0  0  0  0  0
  161.1490  212.8470  148.9580 C   0  0  0  0  0  3  0  0  0  0  0  0
  161.3550  207.4630  146.6910 C   0  0  2  0  0  3  0  0  0  0  0  0
  160.4740  207.8870  144.4390 F   0  0  0  0  0  0  0  0  0  0  0  0
  160.9320  210.8310  153.9440 C   0  0  0  0  0  0  0  0  0  0  0  0
  161.2160  211.2820  146.4800 C   0  0  0  0  0  2  0  0  0  0  0  0
  160.8190  211.4640  152.6320 C   0  0  0  0  0  3  0  0  0  0  0  0
  161.9250  208.1890  152.0500 C   0  0  0  0  0  0  0  0  0  0  0  0
  161.1090  204.4480  147.2010 N   0  0  0  0  0  0  0  0  0  0  0  0
  159.3310  212.4100  154.9020 C   0  0  1  0  0  3  0  0  0  0  0  0
  158.0990  212.1500  155.7890 C   0  0  2  0  0  3  0  0  0  0  0  0
  159.5290  205.5230  144.0960 F   0  0  0  0  0  0  0  0  0  0  0  0
  161.3810  207.1520  151.2750 C   0  0  0  0  0  0  0  0  0  0  0  0
  159.1180  212.3910  145.8450 N   0  0  0  0  0  0  0  0  0  0  0  0
  157.5530  212.5290  153.0710 C   0  0  0  0  0  2  0  0  0  0  0  0
  159.7010  206.8240  152.9400 N   0  0  0  0  0  2  0  0  0  0  0  0
  160.1090  212.2440  146.7660 C   0  0  0  0  0  0  0  0  0  0  0  0
  161.9200  206.8040  150.0280 C   0  0  0  0  0  3  0  0  0  0  0  0
  160.2430  206.4710  151.7500 C   0  0  0  0  0  0  0  0  0  0  0  0
  162.4880  206.5540  147.1230 C   0  0  1  0  0  3  0  0  0  0  0  0
  160.3390  204.5560  146.1520 C   0  0  0  0  0  0  0  0  0  0  0  0
  156.9880  213.1570  155.4960 C   0  0  0  0  0  2  0  0  0  0  0  0
  161.9560  205.3870  147.9410 C   0  0  1  0  0  3  0  0  0  0  0  0
  158.4810  212.2280  157.2600 C   0  0  0  0  0  1  0  0  0  0  0  0
  159.7680  212.9160  150.9740 C   0  0  0  0  0  2  0  0  0  0  0  0
  160.2010  211.2280  154.9330 N   0  0  0  0  0  0  0  0  0  0  0  0
  157.9000  213.8440  147.2910 C   0  0  0  0  0  3  0  0  0  0  0  0
  158.9880  212.9310  153.4640 C   0  0  1  0  0  0  0  0  0  0  0  0
  161.0310  212.8830  150.2500 N   0  0  0  0  0  0  0  0  0  0  0  0
  160.2030  205.7450  145.2550 C   0  0  0  0  0  0  0  0  0  0  0  0
  162.9230  208.8520  151.6390 O   0  0  0  0  0  0  0  0  0  0  0  0
  160.6730  206.9870  145.4410 C   0  0  0  0  0  0  0  0  0  0  0  0
  158.0340  213.1820  146.0650 C   0  0  0  0  0  0  0  0  0  0  0  0
  161.8790  208.8910  146.5550 C   0  0  0  0  0  2  0  0  0  0  0  0
  161.3210  205.8000  149.2490 C   0  0  0  0  0  0  0  0  0  0  0  0
  160.0270  212.9180  147.9980 C   0  0  0  0  0  0  0  0  0  0  0  0
  160.2270  207.8010  153.6810 N   0  0  0  0  0  0  0  0  0  0  0  0
  158.9050  213.7160  148.2490 C   0  0  0  0  0  3  0  0  0  0  0  0
  156.4810  213.0270  154.0540 C   0  0  0  0  0  2  0  0  0  0  0  0
  159.6550  205.4640  150.9900 C   0  0  0  0  0  3  0  0  0  0  0  0
  159.0960  214.4530  153.4980 C   0  0  0  0  0  1  0  0  0  0  0  0
  161.3260  208.4950  153.2810 C   0  0  0  0  0  0  0  0  0  0  0  0
  161.8100  209.6380  154.1140 C   0  0  0  0  0  2  0  0  0  0  0  0
  159.9420  212.4390  152.3910 C   0  0  0  0  0  0  0  0  0  0  0  0
  156.9720  213.2690  145.0100 C   0  0  2  0  0  3  0  0  0  0  0  0
  157.4150  214.0920  143.8120 C   0  0  0  0  0  1  0  0  0  0  0  0
  155.7430  213.8180  145.5690 N   0  0  0  0  0  1  0  0  0  0  0  0
  163.8820  204.9500  146.5150 C   0  0  0  0  0  1  0  0  0  0  0  0
  163.2780  206.1200  146.0500 O   0  0  0  0  0  0  0  0  0  0  0  0
  159.5720  203.4410  145.7810 O   0  0  0  0  0  0  0  0  0  0  0  0
  160.0420  202.4420  144.8810 C   0  0  0  0  0  2  0  0  0  0  0  0
  161.1190  200.3070  147.8060 C   0  0  0  0  0  0  0  0  0  0  0  0
  161.9050  199.2410  147.0900 C   0  0  0  0  0  2  0  0  0  0  0  0
  160.4780  201.2350  145.6400 C   0  0  0  0  0  0  0  0  0  0  0  0
  160.5020  201.2700  147.1150 C   0  0  0  0  0  3  0  0  0  0  0  0
  160.8890  200.1450  144.9830 C   0  0  0  0  0  3  0  0  0  0  0  0
  161.2700  198.8980  145.7390 C   0  0  0  0  0  2  0  0  0  0  0  0
  160.5010  200.6600  150.5490 C   0  0  1  0  0  3  0  0  0  0  0  0
  162.7190  201.3900  150.7940 C   0  0  0  0  0  2  0  0  0  0  0  0
  160.5230  202.1600  150.8010 C   0  0  2  0  0  3  0  0  0  0  0  0
  161.9140  202.6000  150.8720 N   0  0  1  0  0  0  0  0  0  0  0  0
  162.0680  203.1320  152.2040 C   0  0  1  0  0  3  0  0  0  0  0  0
  159.8470  202.4440  152.0040 O   0  0  0  0  0  0  0  0  0  0  0  0
  162.7160  204.3660  152.1460 O   0  0  0  0  0  1  0  0  0  0  0  0
  160.6740  203.3180  152.7180 C   0  0  0  0  0  2  0  0  0  0  0  0
  161.1280  200.3540  149.2300 N   0  0  0  0  0  0  0  0  0  0  0  0
  161.8020  200.2060  150.5550 C   0  0  2  0  0  3  0  0  0  0  0  0
  1 41  1  0  0  0  0
  3 30  2  0  0  0  0
  4 35  1  6  0  0  0
  4 21  1  0  0  0  0
  5 33  1  0  0  0  0
  6 44  1  0  0  0  0
  6 27  2  0  0  0  0
  7 18  1  0  0  0  0
  7  2  1  0  0  0  0
  8  6  1  0  0  0  0
  9 43  1  0  0  0  0
 11 27  1  6  0  0  0
 11 12  1  0  0  0  0
 12 25  1  1  0  0  0
 13 31  1  0  0  0  0
 14 20  1  0  0  0  0
 14  9  1  0  0  0  0
 15 34  2  0  0  0  0
 15 18  1  0  0  0  0
 16 29  1  0  0  0  0
 16 40  1  0  0  0  0
 17 38  1  0  0  0  0
 18 37  2  0  0  0  0
 19 14  2  0  0  0  0
 20 17  1  0  0  0  0
 21 50  1  6  0  0  0
 21 24  1  0  0  0  0
 22 10  2  0  0  0  0
 23 12  1  0  0  0  0
 24 10  1  6  0  0  0
 24 36  1  0  0  0  0
 26 45  1  0  0  0  0
 28 39  2  0  0  0  0
 29 42  1  1  0  0  0
 29 11  1  0  0  0  0
 30 26  1  0  0  0  0
 31 33  2  0  0  0  0
 31 22  1  0  0  0  0
 32  9  2  0  0  0  0
 33  4  1  0  0  0  0
 34 28  1  0  0  0  0
 35  2  1  0  0  0  0
 36  1  2  0  0  0  0
 36 19  1  0  0  0  0
 37 39  1  0  0  0  0
 37  3  1  0  0  0  0
 40 23  1  0  0  0  0
 41 20  2  0  0  0  0
 43 38  2  0  0  0  0
 43 44  1  0  0  0  0
 45  8  2  0  0  0  0
 45 29  1  0  0  0  0
 46 47  1  6  0  0  0
 46 48  1  0  0  0  0
 46 34  1  0  0  0  0
 50 49  1  0  0  0  0
 51 22  1  0  0  0  0
 52 55  1  0  0  0  0
 52 51  1  0  0  0  0
 53 67  1  0  0  0  0
 54 53  1  0  0  0  0
 55 56  1  0  0  0  0
 56 53  2  0  0  0  0
 57 55  2  0  0  0  0
 57 58  1  0  0  0  0
 58 54  1  0  0  0  0
 59 67  1  6  0  0  0
 59 68  1  0  0  0  0
 59 61  1  0  0  0  0
 61 62  1  0  0  0  0
 61 64  1  1  0  0  0
 62 60  1  1  0  0  0
 62 63  1  0  0  0  0
 63 65  1  6  0  0  0
 63 66  1  0  0  0  0
 64 66  1  0  0  0  0
 67 68  1  0  0  0  0
 68 60  1  6  0  0  0
M  END
>  <MODEL>
1

>  <REMARK>
 VINA RESULT:      21.3      0.000      0.000
  Name = 
  6 active torsions:
  status: ('A' for Active; 'I' for Inactive)
    1  A    between atoms: C_10  and  N_57
    2  A    between atoms: C_17  and  C_25
    3  A    between atoms: C_17  and  O_30
    4  A    between atoms: C_20  and  C_54
    5  A    between atoms: O_24  and  C_35
    6  A    between atoms: O_30  and  C_36
                            x       y       z     vdW  Elec       q    Type
                         _______ _______ _______ _____ _____    ______ ____

>  <TORSDO>
F 6

$$$$
