=
 OpenBabel11052409313D

 38 42  0  0  1  0  0  0  0  0999 V2000
  161.3940  208.1050  151.0150 C   0  0  0  0  0  0  0  0  0  0  0  0
  161.3160  205.8220  150.2790 N   0  0  0  0  0  0  0  0  0  0  0  0
  161.0420  210.2730  152.8270 C   0  0  0  0  0  3  0  0  0  0  0  0
  161.4780  205.1980  149.0850 C   0  0  0  0  0  3  0  0  0  0  0  0
  161.9010  209.7080  149.2460 C   0  0  0  0  0  0  0  0  0  0  0  0
  161.7330  207.3660  148.7900 C   0  0  0  0  0  0  0  0  0  0  0  0
  161.6120  209.4380  150.6050 C   0  0  0  0  0  0  0  0  0  0  0  0
  161.1930  207.7940  152.4720 C   0  0  0  0  0  2  0  0  0  0  0  0
  161.9600  208.6560  148.3170 C   0  0  0  0  0  3  0  0  0  0  0  0
  161.4720  207.1220  150.0800 N   0  0  0  0  0  0  0  0  0  0  0  0
  160.4250  208.9320  153.1720 C   0  0  1  0  0  3  0  0  0  0  0  0
  161.7430  206.1690  148.1230 C   0  0  0  0  0  0  0  0  0  0  0  0
  161.5480  210.5130  151.6140 C   0  0  0  0  0  3  0  0  0  0  0  0
  161.5460  209.2200  156.7630 C   0  0  0  0  0  2  0  0  0  0  0  0
  161.5700  209.3320  155.2310 C   0  0  0  0  0  2  0  0  0  0  0  0
  160.4120  206.9910  156.4140 C   0  0  0  0  0  2  0  0  0  0  0  0
  160.4500  207.2880  154.9060 C   0  0  0  0  0  2  0  0  0  0  0  0
  160.3740  208.7290  154.6280 N   0  0  0  0  0  0  0  0  0  0  0  0
  160.4600  208.2630  157.2610 C   0  0  0  0  0  2  0  0  0  0  0  0
  159.7700  206.1340  145.9880 O   0  0  0  0  0  0  0  0  0  0  0  0
  161.9900  205.9810  146.7250 N   0  0  0  0  0  2  0  0  0  0  0  0
  160.9860  205.9720  145.7050 C   0  0  0  0  0  0  0  0  0  0  0  0
  161.3870  205.7670  144.2890 C   0  0  0  0  0  1  0  0  0  0  0  0
  161.6650  212.3680  148.2960 C   0  0  1  0  0  3  0  0  0  0  0  0
  162.1380  211.0420  148.7990 N   0  0  0  0  0  0  0  0  0  0  0  0
  163.6880  211.8730  147.2240 O   0  0  0  0  0  1  0  0  0  0  0  0
  163.0360  212.1770  148.4240 C   0  0  1  0  0  3  0  0  0  0  0  0
  161.0870  212.1950  146.8870 C   0  0  0  0  0  2  0  0  0  0  0  0
  160.3650  214.4380  147.3420 O   0  0  0  0  0  1  0  0  0  0  0  0
  160.5530  213.5080  146.3190 C   0  0  1  0  0  3  0  0  0  0  0  0
  161.4760  214.0900  145.2560 C   0  0  0  0  0  2  0  0  0  0  0  0
  163.4030  213.2060  144.1520 O   0  0  0  0  0  1  0  0  0  0  0  0
  162.0380  213.0000  144.3570 C   0  0  2  0  0  3  0  0  0  0  0  0
  161.0950  211.6180  142.2140 O   0  0  0  0  0  1  0  0  0  0  0  0
  161.1810  213.0280  142.7570 P   0  0  2  0  0  0  0  0  0  0  0  0
  162.0600  213.9930  141.6800 O   0  0  0  0  0  0  0  0  0  0  0  0
  159.6230  213.6650  142.9720 O   0  0  0  0  0  0  0  0  0  0  0  0
  158.9270  213.3440  141.8050 C   0  0  0  0  0  1  0  0  0  0  0  0
  1  8  1  0  0  0  0
  3 11  1  0  0  0  0
  4  2  2  0  0  0  0
  5  7  1  0  0  0  0
  6 10  1  0  0  0  0
  7  1  2  0  0  0  0
  7 13  1  0  0  0  0
  9  6  1  0  0  0  0
  9  5  2  0  0  0  0
 10  2  1  0  0  0  0
 10  1  1  0  0  0  0
 11  8  1  6  0  0  0
 11 18  1  0  0  0  0
 12  6  2  0  0  0  0
 12  4  1  0  0  0  0
 13  3  2  0  0  0  0
 14 19  1  0  0  0  0
 15 14  1  0  0  0  0
 16 19  1  0  0  0  0
 17 16  1  0  0  0  0
 18 17  1  0  0  0  0
 18 15  1  0  0  0  0
 21 12  1  0  0  0  0
 22 20  2  0  0  0  0
 22 21  1  0  0  0  0
 23 22  1  0  0  0  0
 24 28  1  6  0  0  0
 24 27  1  0  0  0  0
 24 25  1  0  0  0  0
 25  5  1  0  0  0  0
 27 26  1  6  0  0  0
 27 25  1  0  0  0  0
 30 28  1  0  0  0  0
 30 29  1  1  0  0  0
 31 30  1  0  0  0  0
 33 32  1  6  0  0  0
 33 31  1  0  0  0  0
 34 35  1  0  0  0  0
 35 36  2  6  0  0  0
 35 37  1  0  0  0  0
 35 33  1  0  0  0  0
 38 37  1  0  0  0  0
M  END
>  <MODEL>
1

>  <REMARK>
 VINA RESULT:      -7.2      0.000      0.000
  Name = 
  9 active torsions:
  status: ('A' for Active; 'I' for Inactive)
    1  A    between atoms: C_2  and  C_18
    2  A    between atoms: C_2  and  C_23
    3  A    between atoms: N_7  and  C_36
    4  A    between atoms: O_8  and  P_16
    5  A    between atoms: CA_12  and  C_20
    6  A    between atoms: C_13  and  N_19
    7  A    between atoms: P_16  and  C_18
    8  A    between atoms: C_20  and  C_23
    9  A    between atoms: N_30  and  C_35
                            x       y       z     vdW  Elec       q    Type
                         _______ _______ _______ _____ _____    ______ ____

>  <TORSDO>
F 9

$$$$
=
 OpenBabel11052409313D

 38 42  0  0  1  0  0  0  0  0999 V2000
  161.5140  207.8940  150.6760 C   0  0  0  0  0  0  0  0  0  0  0  0
  161.1040  207.3070  152.9660 N   0  0  0  0  0  0  0  0  0  0  0  0
  162.1210  207.4260  147.9330 C   0  0  0  0  0  3  0  0  0  0  0  0
  160.9840  208.0050  154.1240 C   0  0  0  0  0  3  0  0  0  0  0  0
  161.7550  210.2910  150.2870 C   0  0  0  0  0  0  0  0  0  0  0  0
  161.3690  209.4210  152.4810 C   0  0  0  0  0  0  0  0  0  0  0  0
  161.7300  208.9680  149.7850 C   0  0  0  0  0  0  0  0  0  0  0  0
  161.3780  206.4950  150.1420 C   0  0  0  0  0  2  0  0  0  0  0  0
  161.5750  210.5260  151.6600 C   0  0  0  0  0  3  0  0  0  0  0  0
  161.3350  208.1750  151.9930 N   0  0  0  0  0  0  0  0  0  0  0  0
  162.2930  206.2860  148.9190 C   0  0  1  0  0  3  0  0  0  0  0  0
  161.1520  209.3560  153.8320 C   0  0  0  0  0  0  0  0  0  0  0  0
  161.9080  208.6770  148.3500 C   0  0  0  0  0  3  0  0  0  0  0  0
  161.2130  203.9010  146.2030 C   0  0  0  0  0  2  0  0  0  0  0  0
  161.4350  205.2180  146.9610 C   0  0  0  0  0  2  0  0  0  0  0  0
  160.7220  202.8800  148.4600 C   0  0  0  0  0  2  0  0  0  0  0  0
  161.0480  204.2530  149.0710 C   0  0  0  0  0  2  0  0  0  0  0  0
  162.0430  204.9870  148.2770 N   0  0  0  0  0  0  0  0  0  0  0  0
  161.3920  202.6740  147.1000 C   0  0  0  0  0  2  0  0  0  0  0  0
  158.8740  211.0860  154.3520 O   0  0  0  0  0  0  0  0  0  0  0  0
  161.1020  210.4660  154.7350 N   0  0  0  0  0  2  0  0  0  0  0  0
  159.9560  211.2920  154.9620 C   0  0  0  0  0  0  0  0  0  0  0  0
  160.0450  212.4130  155.9330 C   0  0  0  0  0  1  0  0  0  0  0  0
  161.4550  212.4920  148.5260 C   0  0  1  0  0  3  0  0  0  0  0  0
  161.9600  211.4000  149.4140 N   0  0  0  0  0  0  0  0  0  0  0  0
  163.4230  211.6490  147.5770 O   0  0  0  0  0  1  0  0  0  0  0  0
  162.8310  212.3380  148.6410 C   0  0  1  0  0  3  0  0  0  0  0  0
  160.8060  211.8700  147.2840 C   0  0  0  0  0  2  0  0  0  0  0  0
  160.5860  214.1350  146.5210 O   0  0  0  0  0  1  0  0  0  0  0  0
  159.9710  212.8830  146.5040 C   0  0  1  0  0  3  0  0  0  0  0  0
  159.7330  212.4440  145.0640 C   0  0  0  0  0  2  0  0  0  0  0  0
  159.0450  214.1610  143.5510 O   0  0  0  0  0  1  0  0  0  0  0  0
  160.1660  213.5190  144.0810 C   0  0  2  0  0  3  0  0  0  0  0  0
  161.0700  213.6700  141.5210 O   0  0  0  0  0  0  0  0  0  0  0  0
  161.1160  212.7630  142.7310 P   0  0  2  0  0  0  0  0  0  0  0  0
  160.4240  211.2690  142.3420 O   0  0  0  0  0  1  0  0  0  0  0  0
  162.7220  212.5470  143.2350 O   0  0  0  0  0  0  0  0  0  0  0  0
  163.0470  213.7030  143.9470 C   0  0  0  0  0  1  0  0  0  0  0  0
  1 10  1  0  0  0  0
  2  4  2  0  0  0  0
  3 13  2  0  0  0  0
  5  9  2  0  0  0  0
  6 12  2  0  0  0  0
  7  5  1  0  0  0  0
  7  1  2  0  0  0  0
  8  1  1  0  0  0  0
  9  6  1  0  0  0  0
 10  6  1  0  0  0  0
 10  2  1  0  0  0  0
 11  3  1  6  0  0  0
 11  8  1  0  0  0  0
 12  4  1  0  0  0  0
 12 21  1  0  0  0  0
 13  7  1  0  0  0  0
 14 15  1  0  0  0  0
 14 19  1  0  0  0  0
 15 18  1  0  0  0  0
 16 17  1  0  0  0  0
 18 11  1  0  0  0  0
 18 17  1  0  0  0  0
 19 16  1  0  0  0  0
 20 22  2  0  0  0  0
 21 22  1  0  0  0  0
 22 23  1  0  0  0  0
 24 28  1  6  0  0  0
 24 27  1  0  0  0  0
 24 25  1  0  0  0  0
 25  5  1  0  0  0  0
 27 26  1  6  0  0  0
 27 25  1  0  0  0  0
 30 29  1  6  0  0  0
 30 28  1  0  0  0  0
 31 30  1  0  0  0  0
 33 32  1  6  0  0  0
 33 31  1  0  0  0  0
 35 34  2  6  0  0  0
 35 37  1  0  0  0  0
 35 33  1  0  0  0  0
 36 35  1  0  0  0  0
 37 38  1  0  0  0  0
M  END
>  <MODEL>
2

>  <REMARK>
 VINA RESULT:      -6.9      1.980      5.868
  Name = 
  9 active torsions:
  status: ('A' for Active; 'I' for Inactive)
    1  A    between atoms: C_2  and  C_18
    2  A    between atoms: C_2  and  C_23
    3  A    between atoms: N_7  and  C_36
    4  A    between atoms: O_8  and  P_16
    5  A    between atoms: CA_12  and  C_20
    6  A    between atoms: C_13  and  N_19
    7  A    between atoms: P_16  and  C_18
    8  A    between atoms: C_20  and  C_23
    9  A    between atoms: N_30  and  C_35
                            x       y       z     vdW  Elec       q    Type
                         _______ _______ _______ _____ _____    ______ ____

>  <TORSDO>
F 9

$$$$
=
 OpenBabel11052409313D

 38 42  0  0  1  0  0  0  0  0999 V2000
  160.0640  212.3270  151.7000 C   0  0  0  0  0  0  0  0  0  0  0  0
  160.1730  214.1870  150.1880 N   0  0  0  0  0  0  0  0  0  0  0  0
  159.4230  210.9700  154.1200 C   0  0  0  0  0  3  0  0  0  0  0  0
  160.8100  214.4260  149.0140 C   0  0  0  0  0  3  0  0  0  0  0  0
  161.3660  210.3880  150.9950 C   0  0  0  0  0  0  0  0  0  0  0  0
  161.3170  212.3930  149.6910 C   0  0  0  0  0  0  0  0  0  0  0  0
  160.5030  211.0060  151.9310 C   0  0  0  0  0  0  0  0  0  0  0  0
  159.0630  212.9560  152.6290 C   0  0  0  0  0  2  0  0  0  0  0  0
  161.7870  211.0920  149.8550 C   0  0  0  0  0  3  0  0  0  0  0  0
  160.4910  212.9620  150.5770 N   0  0  0  0  0  0  0  0  0  0  0  0
  159.2880  212.4800  154.0780 C   0  0  1  0  0  3  0  0  0  0  0  0
  161.5460  213.2920  148.6830 C   0  0  0  0  0  0  0  0  0  0  0  0
  160.0320  210.3000  153.1380 C   0  0  0  0  0  3  0  0  0  0  0  0
  157.0330  212.4690  157.1030 C   0  0  0  0  0  2  0  0  0  0  0  0
  158.0920  212.0040  156.0920 C   0  0  0  0  0  2  0  0  0  0  0  0
  155.7560  213.3440  155.1070 C   0  0  0  0  0  2  0  0  0  0  0  0
  156.9390  212.8830  154.2390 C   0  0  0  0  0  2  0  0  0  0  0  0
  158.2130  212.9420  154.9680 N   0  0  0  0  0  0  0  0  0  0  0  0
  156.1660  213.6050  156.5580 C   0  0  0  0  0  2  0  0  0  0  0  0
  160.8100  213.7270  145.9040 O   0  0  0  0  0  0  0  0  0  0  0  0
  162.3690  213.0790  147.5310 N   0  0  0  0  0  2  0  0  0  0  0  0
  161.9660  213.3080  146.1770 C   0  0  0  0  0  0  0  0  0  0  0  0
  162.9270  213.0460  145.0750 C   0  0  0  0  0  1  0  0  0  0  0  0
  162.3210  207.7390  150.6770 C   0  0  1  0  0  3  0  0  0  0  0  0
  161.8210  209.0510  151.1910 N   0  0  0  0  0  0  0  0  0  0  0  0
  160.9160  207.3060  152.5000 O   0  0  0  0  0  1  0  0  0  0  0  0
  162.1180  207.8610  152.0470 C   0  0  1  0  0  3  0  0  0  0  0  0
  161.2050  207.0480  149.8860 C   0  0  0  0  0  2  0  0  0  0  0  0
  162.5760  207.4450  147.9570 O   0  0  0  0  0  1  0  0  0  0  0  0
  161.2550  207.3960  148.4000 C   0  0  1  0  0  3  0  0  0  0  0  0
  160.4630  206.4070  147.5530 C   0  0  0  0  0  2  0  0  0  0  0  0
  160.2460  206.1380  145.1880 O   0  0  0  0  0  1  0  0  0  0  0  0
  161.1670  206.1190  146.2370 C   0  0  2  0  0  3  0  0  0  0  0  0
  161.7890  203.9160  147.7040 O   0  0  0  0  0  1  0  0  0  0  0  0
  161.9560  204.4860  146.3120 P   0  0  2  0  0  0  0  0  0  0  0  0
  163.6040  204.6570  145.9670 O   0  0  0  0  0  0  0  0  0  0  0  0
  161.2260  203.4620  145.1730 O   0  0  0  0  0  0  0  0  0  0  0  0
  160.9200  202.2910  145.8680 C   0  0  0  0  0  1  0  0  0  0  0  0
  1  7  2  0  0  0  0
  1  8  1  0  0  0  0
  2 10  1  0  0  0  0
  4  2  2  0  0  0  0
  5 25  1  0  0  0  0
  5  7  1  0  0  0  0
  6  9  1  0  0  0  0
  6 10  1  0  0  0  0
  7 13  1  0  0  0  0
  9  5  2  0  0  0  0
 10  1  1  0  0  0  0
 11  8  1  6  0  0  0
 11  3  1  0  0  0  0
 11 18  1  0  0  0  0
 12  4  1  0  0  0  0
 12  6  2  0  0  0  0
 13  3  2  0  0  0  0
 15 14  1  0  0  0  0
 16 19  1  0  0  0  0
 17 18  1  0  0  0  0
 17 16  1  0  0  0  0
 18 15  1  0  0  0  0
 19 14  1  0  0  0  0
 20 22  2  0  0  0  0
 21 12  1  0  0  0  0
 22 21  1  0  0  0  0
 23 22  1  0  0  0  0
 24 28  1  6  0  0  0
 24 25  1  0  0  0  0
 24 27  1  0  0  0  0
 25 27  1  0  0  0  0
 27 26  1  6  0  0  0
 30 29  1  6  0  0  0
 30 28  1  0  0  0  0
 31 30  1  0  0  0  0
 33 32  1  6  0  0  0
 33 35  1  0  0  0  0
 33 31  1  0  0  0  0
 35 36  2  6  0  0  0
 35 34  1  0  0  0  0
 37 38  1  0  0  0  0
 37 35  1  0  0  0  0
M  END
>  <MODEL>
3

>  <REMARK>
 VINA RESULT:      -6.9      3.550      6.857
  Name = 
  9 active torsions:
  status: ('A' for Active; 'I' for Inactive)
    1  A    between atoms: C_2  and  C_18
    2  A    between atoms: C_2  and  C_23
    3  A    between atoms: N_7  and  C_36
    4  A    between atoms: O_8  and  P_16
    5  A    between atoms: CA_12  and  C_20
    6  A    between atoms: C_13  and  N_19
    7  A    between atoms: P_16  and  C_18
    8  A    between atoms: C_20  and  C_23
    9  A    between atoms: N_30  and  C_35
                            x       y       z     vdW  Elec       q    Type
                         _______ _______ _______ _____ _____    ______ ____

>  <TORSDO>
F 9

$$$$
=
 OpenBabel11052409313D

 38 42  0  0  1  0  0  0  0  0999 V2000
  161.4710  206.8740  150.3130 C   0  0  0  0  0  0  0  0  0  0  0  0
  161.1070  205.8320  152.4440 N   0  0  0  0  0  0  0  0  0  0  0  0
  162.0300  206.9750  147.5230 C   0  0  0  0  0  3  0  0  0  0  0  0
  161.0060  206.2810  153.7210 C   0  0  0  0  0  3  0  0  0  0  0  0
  161.6950  209.3020  150.4130 C   0  0  0  0  0  0  0  0  0  0  0  0
  161.3530  208.0030  152.3930 C   0  0  0  0  0  0  0  0  0  0  0  0
  161.6660  208.1070  149.6550 C   0  0  0  0  0  0  0  0  0  0  0  0
  161.3320  205.6110  149.5100 C   0  0  0  0  0  2  0  0  0  0  0  0
  161.5390  209.2530  151.8080 C   0  0  0  0  0  3  0  0  0  0  0  0
  161.3160  206.8810  151.6630 N   0  0  0  0  0  0  0  0  0  0  0  0
  162.2250  205.6610  148.2540 C   0  0  1  0  0  3  0  0  0  0  0  0
  161.1620  207.6640  153.7060 C   0  0  0  0  0  0  0  0  0  0  0  0
  161.8180  208.1140  148.1870 C   0  0  0  0  0  3  0  0  0  0  0  0
  160.8880  203.8310  145.2370 C   0  0  0  0  0  2  0  0  0  0  0  0
  161.1340  204.9640  146.2450 C   0  0  0  0  0  2  0  0  0  0  0  0
  160.8560  202.2890  147.2360 C   0  0  0  0  0  2  0  0  0  0  0  0
  161.1770  203.5190  148.1010 C   0  0  0  0  0  2  0  0  0  0  0  0
  161.9680  204.5160  147.3670 N   0  0  0  0  0  0  0  0  0  0  0  0
  161.3040  202.4640  145.7850 C   0  0  0  0  0  2  0  0  0  0  0  0
  159.5090  207.4390  156.0870 O   0  0  0  0  0  0  0  0  0  0  0  0
  161.1240  208.5680  154.8160 N   0  0  0  0  0  2  0  0  0  0  0  0
  160.2930  208.4180  155.9720 C   0  0  0  0  0  0  0  0  0  0  0  0
  160.3570  209.4350  157.0530 C   0  0  0  0  0  1  0  0  0  0  0  0
  161.8350  212.0610  149.7800 C   0  0  1  0  0  3  0  0  0  0  0  0
  161.8790  210.5660  149.7800 N   0  0  0  0  0  0  0  0  0  0  0  0
  161.1870  211.3250  147.6530 O   0  0  0  0  0  1  0  0  0  0  0  0
  162.2110  211.4250  148.6010 C   0  0  1  0  0  3  0  0  0  0  0  0
  160.3760  212.5220  149.8640 C   0  0  0  0  0  2  0  0  0  0  0  0
  159.3450  214.3630  151.0080 O   0  0  0  0  0  1  0  0  0  0  0  0
  160.0590  213.1810  151.2050 C   0  0  1  0  0  3  0  0  0  0  0  0
  159.2790  212.2540  152.1290 C   0  0  0  0  0  2  0  0  0  0  0  0
  160.0100  211.7490  154.3480 O   0  0  0  0  0  1  0  0  0  0  0  0
  159.3650  212.7150  153.5750 C   0  0  2  0  0  3  0  0  0  0  0  0
  156.8270  213.5900  153.1440 O   0  0  0  0  0  0  0  0  0  0  0  0
  157.6930  212.9870  154.2280 P   0  0  2  0  0  0  0  0  0  0  0  0
  157.7830  214.0570  155.5370 O   0  0  0  0  0  1  0  0  0  0  0  0
  157.0450  211.5030  154.7330 O   0  0  0  0  0  0  0  0  0  0  0  0
  156.8900  211.6160  156.1150 C   0  0  0  0  0  1  0  0  0  0  0  0
  1 10  1  0  0  0  0
  2  4  2  0  0  0  0
  3 13  2  0  0  0  0
  3 11  1  0  0  0  0
  5  9  2  0  0  0  0
  6 12  2  0  0  0  0
  7  1  2  0  0  0  0
  7  5  1  0  0  0  0
  8  1  1  0  0  0  0
  9  6  1  0  0  0  0
 10  6  1  0  0  0  0
 10  2  1  0  0  0  0
 11 18  1  6  0  0  0
 11  8  1  0  0  0  0
 12  4  1  0  0  0  0
 12 21  1  0  0  0  0
 13  7  1  0  0  0  0
 14 19  1  0  0  0  0
 14 15  1  0  0  0  0
 15 18  1  0  0  0  0
 16 17  1  0  0  0  0
 18 17  1  0  0  0  0
 19 16  1  0  0  0  0
 21 22  1  0  0  0  0
 22 20  2  0  0  0  0
 22 23  1  0  0  0  0
 24 28  1  6  0  0  0
 25 24  1  0  0  0  0
 25  5  1  0  0  0  0
 27 26  1  6  0  0  0
 27 25  1  0  0  0  0
 27 24  1  0  0  0  0
 28 30  1  0  0  0  0
 30 29  1  6  0  0  0
 30 31  1  0  0  0  0
 31 33  1  0  0  0  0
 33 35  1  0  0  0  0
 33 32  1  1  0  0  0
 35 34  2  6  0  0  0
 35 37  1  0  0  0  0
 35 36  1  0  0  0  0
 37 38  1  0  0  0  0
M  END
>  <MODEL>
4

>  <REMARK>
 VINA RESULT:      -6.8      4.107      8.148
  Name = 
  9 active torsions:
  status: ('A' for Active; 'I' for Inactive)
    1  A    between atoms: C_2  and  C_18
    2  A    between atoms: C_2  and  C_23
    3  A    between atoms: N_7  and  C_36
    4  A    between atoms: O_8  and  P_16
    5  A    between atoms: CA_12  and  C_20
    6  A    between atoms: C_13  and  N_19
    7  A    between atoms: P_16  and  C_18
    8  A    between atoms: C_20  and  C_23
    9  A    between atoms: N_30  and  C_35
                            x       y       z     vdW  Elec       q    Type
                         _______ _______ _______ _____ _____    ______ ____

>  <TORSDO>
F 9

$$$$
=
 OpenBabel11052409313D

 38 42  0  0  1  0  0  0  0  0999 V2000
  160.7050  211.6830  151.2680 C   0  0  0  0  0  0  0  0  0  0  0  0
  160.7210  213.7640  150.0730 N   0  0  0  0  0  0  0  0  0  0  0  0
  160.2810  209.9590  153.4940 C   0  0  0  0  0  3  0  0  0  0  0  0
  161.2340  214.1790  148.8870 C   0  0  0  0  0  3  0  0  0  0  0  0
  161.8410  209.8580  150.1130 C   0  0  0  0  0  0  0  0  0  0  0  0
  161.7290  212.0510  149.1640 C   0  0  0  0  0  0  0  0  0  0  0  0
  161.1120  210.3320  151.2300 C   0  0  0  0  0  0  0  0  0  0  0  0
  159.8400  212.1720  152.3960 C   0  0  0  0  0  2  0  0  0  0  0  0
  162.1610  210.7310  149.0600 C   0  0  0  0  0  3  0  0  0  0  0  0
  161.0300  212.4850  150.2200 N   0  0  0  0  0  0  0  0  0  0  0  0
  160.2040  211.4580  153.7130 C   0  0  1  0  0  3  0  0  0  0  0  0
  161.8820  213.0980  148.2940 C   0  0  0  0  0  0  0  0  0  0  0  0
  160.7500  209.4470  152.3530 C   0  0  0  0  0  3  0  0  0  0  0  0
  156.8510  211.7680  155.4130 C   0  0  0  0  0  2  0  0  0  0  0  0
  157.8920  211.5110  154.3140 C   0  0  0  0  0  2  0  0  0  0  0  0
  158.3420  213.6710  156.1450 C   0  0  0  0  0  2  0  0  0  0  0  0
  159.3170  213.2370  155.0380 C   0  0  0  0  0  2  0  0  0  0  0  0
  159.2540  211.7910  154.7850 N   0  0  0  0  0  0  0  0  0  0  0  0
  157.4380  212.5260  156.6060 C   0  0  0  0  0  2  0  0  0  0  0  0
  160.7510  213.6660  145.6770 O   0  0  0  0  0  0  0  0  0  0  0  0
  162.5630  213.0610  147.0350 N   0  0  0  0  0  2  0  0  0  0  0  0
  161.9660  213.3500  145.7670 C   0  0  0  0  0  0  0  0  0  0  0  0
  162.7950  213.2730  144.5360 C   0  0  0  0  0  1  0  0  0  0  0  0
  162.3480  207.1820  149.3300 C   0  0  1  0  0  3  0  0  0  0  0  0
  162.2590  208.4970  150.0360 N   0  0  0  0  0  0  0  0  0  0  0  0
  162.0780  206.7520  151.6160 O   0  0  0  0  0  1  0  0  0  0  0  0
  162.8950  207.2690  150.6050 C   0  0  1  0  0  3  0  0  0  0  0  0
  160.9480  206.5650  149.2350 C   0  0  0  0  0  2  0  0  0  0  0  0
  161.3900  206.1340  146.9160 O   0  0  0  0  0  1  0  0  0  0  0  0
  160.8300  205.5850  148.0690 C   0  0  1  0  0  3  0  0  0  0  0  0
  161.4870  204.2460  148.3770 C   0  0  0  0  0  2  0  0  0  0  0  0
  161.5430  203.5580  150.6650 O   0  0  0  0  0  1  0  0  0  0  0  0
  160.7680  203.5240  149.5050 C   0  0  2  0  0  3  0  0  0  0  0  0
  158.9840  201.5220  149.0560 O   0  0  0  0  0  0  0  0  0  0  0  0
  160.4720  201.7960  149.0330 P   0  0  2  0  0  0  0  0  0  0  0  0
  161.2490  200.7830  150.1430 O   0  0  0  0  0  1  0  0  0  0  0  0
  161.0870  201.5330  147.4740 O   0  0  0  0  0  0  0  0  0  0  0  0
  161.5670  200.2220  147.4800 C   0  0  0  0  0  1  0  0  0  0  0  0
  1  8  1  0  0  0  0
  2 10  1  0  0  0  0
  3 11  1  0  0  0  0
  4  2  2  0  0  0  0
  5  7  1  0  0  0  0
  6 10  1  0  0  0  0
  7  1  2  0  0  0  0
  7 13  1  0  0  0  0
  9  6  1  0  0  0  0
  9  5  2  0  0  0  0
 10  1  1  0  0  0  0
 11  8  1  6  0  0  0
 11 18  1  0  0  0  0
 12  4  1  0  0  0  0
 12  6  2  0  0  0  0
 13  3  2  0  0  0  0
 14 19  1  0  0  0  0
 15 18  1  0  0  0  0
 15 14  1  0  0  0  0
 16 19  1  0  0  0  0
 17 16  1  0  0  0  0
 18 17  1  0  0  0  0
 20 22  2  0  0  0  0
 21 12  1  0  0  0  0
 22 21  1  0  0  0  0
 23 22  1  0  0  0  0
 24 28  1  1  0  0  0
 24 25  1  0  0  0  0
 24 27  1  0  0  0  0
 25  5  1  0  0  0  0
 25 27  1  0  0  0  0
 27 26  1  1  0  0  0
 30 29  1  6  0  0  0
 30 31  1  0  0  0  0
 30 28  1  0  0  0  0
 31 33  1  0  0  0  0
 33 32  1  1  0  0  0
 35 34  2  1  0  0  0
 35 33  1  0  0  0  0
 35 36  1  0  0  0  0
 37 38  1  0  0  0  0
 37 35  1  0  0  0  0
M  END
>  <MODEL>
5

>  <REMARK>
 VINA RESULT:      -6.6      3.830      7.759
  Name = 
  9 active torsions:
  status: ('A' for Active; 'I' for Inactive)
    1  A    between atoms: C_2  and  C_18
    2  A    between atoms: C_2  and  C_23
    3  A    between atoms: N_7  and  C_36
    4  A    between atoms: O_8  and  P_16
    5  A    between atoms: CA_12  and  C_20
    6  A    between atoms: C_13  and  N_19
    7  A    between atoms: P_16  and  C_18
    8  A    between atoms: C_20  and  C_23
    9  A    between atoms: N_30  and  C_35
                            x       y       z     vdW  Elec       q    Type
                         _______ _______ _______ _____ _____    ______ ____

>  <TORSDO>
F 9

$$$$
=
 OpenBabel11052409313D

 38 42  0  0  1  0  0  0  0  0999 V2000
  161.5060  208.3180  149.3220 C   0  0  0  0  0  0  0  0  0  0  0  0
  161.6740  206.7610  147.5040 N   0  0  0  0  0  0  0  0  0  0  0  0
  161.7050  210.8480  150.6140 C   0  0  0  0  0  3  0  0  0  0  0  0
  161.5960  205.4100  147.3940 C   0  0  0  0  0  3  0  0  0  0  0  0
  161.0710  207.2820  151.4880 C   0  0  0  0  0  0  0  0  0  0  0  0
  161.3140  205.9640  149.5070 C   0  0  0  0  0  0  0  0  0  0  0  0
  161.2850  208.4450  150.7110 C   0  0  0  0  0  0  0  0  0  0  0  0
  161.6270  209.5500  148.4680 C   0  0  0  0  0  2  0  0  0  0  0  0
  161.0890  206.0160  150.8800 C   0  0  0  0  0  3  0  0  0  0  0  0
  161.5030  207.0720  148.7800 N   0  0  0  0  0  0  0  0  0  0  0  0
  162.3290  210.6830  149.2420 C   0  0  1  0  0  3  0  0  0  0  0  0
  161.3680  204.8860  148.6640 C   0  0  0  0  0  0  0  0  0  0  0  0
  161.2670  209.7940  151.3080 C   0  0  0  0  0  3  0  0  0  0  0  0
  161.5750  214.3210  148.5850 C   0  0  0  0  0  2  0  0  0  0  0  0
  161.5810  212.9530  149.2830 C   0  0  0  0  0  2  0  0  0  0  0  0
  161.4210  213.0280  146.4210 C   0  0  0  0  0  2  0  0  0  0  0  0
  161.5110  211.7460  147.2640 C   0  0  0  0  0  2  0  0  0  0  0  0
  162.2980  211.9460  148.4890 N   0  0  0  0  0  0  0  0  0  0  0  0
  162.0380  214.2350  147.1290 C   0  0  0  0  0  2  0  0  0  0  0  0
  161.2010  202.5990  146.8750 O   0  0  0  0  0  0  0  0  0  0  0  0
  161.2070  203.5130  149.0350 N   0  0  0  0  0  2  0  0  0  0  0  0
  161.1310  202.4160  148.1190 C   0  0  0  0  0  0  0  0  0  0  0  0
  160.9650  201.0360  148.6450 C   0  0  0  0  0  1  0  0  0  0  0  0
  160.5740  208.1600  154.1370 C   0  0  1  0  0  3  0  0  0  0  0  0
  160.8330  207.3740  152.8920 N   0  0  0  0  0  0  0  0  0  0  0  0
  161.9570  206.3560  154.7010 O   0  0  0  0  0  1  0  0  0  0  0  0
  160.7000  206.7810  154.2580 C   0  0  1  0  0  3  0  0  0  0  0  0
  161.8190  208.9850  154.4800 C   0  0  0  0  0  2  0  0  0  0  0  0
  162.6690  210.6570  155.9780 O   0  0  0  0  0  1  0  0  0  0  0  0
  161.4980  210.1500  155.4140 C   0  0  1  0  0  3  0  0  0  0  0  0
  160.7410  211.2650  154.7030 C   0  0  0  0  0  2  0  0  0  0  0  0
  159.1120  210.6360  156.3340 O   0  0  0  0  0  1  0  0  0  0  0  0
  159.4950  211.6660  155.4740 C   0  0  2  0  0  3  0  0  0  0  0  0
  157.8900  213.5010  154.2690 O   0  0  0  0  0  0  0  0  0  0  0  0
  158.1430  212.0100  154.3120 P   0  0  2  0  0  0  0  0  0  0  0  0
  156.7470  211.2160  154.8450 O   0  0  0  0  0  1  0  0  0  0  0  0
  158.5790  211.4500  152.7710 O   0  0  0  0  0  0  0  0  0  0  0  0
  158.5840  212.5800  151.9520 C   0  0  0  0  0  1  0  0  0  0  0  0
  1  7  2  0  0  0  0
  2 10  1  0  0  0  0
  3 13  2  0  0  0  0
  4  2  2  0  0  0  0
  4 12  1  0  0  0  0
  5 25  1  0  0  0  0
  6  9  1  0  0  0  0
  7 13  1  0  0  0  0
  7  5  1  0  0  0  0
  8  1  1  0  0  0  0
  9  5  2  0  0  0  0
 10  1  1  0  0  0  0
 10  6  1  0  0  0  0
 11  8  1  6  0  0  0
 11  3  1  0  0  0  0
 12 21  1  0  0  0  0
 12  6  2  0  0  0  0
 14 15  1  0  0  0  0
 16 19  1  0  0  0  0
 16 17  1  0  0  0  0
 17 18  1  0  0  0  0
 18 11  1  0  0  0  0
 18 15  1  0  0  0  0
 19 14  1  0  0  0  0
 20 22  2  0  0  0  0
 22 23  1  0  0  0  0
 22 21  1  0  0  0  0
 24 27  1  0  0  0  0
 24 28  1  1  0  0  0
 25 24  1  0  0  0  0
 25 27  1  0  0  0  0
 27 26  1  1  0  0  0
 28 30  1  0  0  0  0
 30 29  1  6  0  0  0
 31 30  1  0  0  0  0
 31 33  1  0  0  0  0
 33 32  1  1  0  0  0
 35 34  2  6  0  0  0
 35 36  1  0  0  0  0
 35 33  1  0  0  0  0
 37 35  1  0  0  0  0
 38 37  1  0  0  0  0
M  END
>  <MODEL>
6

>  <REMARK>
 VINA RESULT:      -6.4      4.590      7.873
  Name = 
  9 active torsions:
  status: ('A' for Active; 'I' for Inactive)
    1  A    between atoms: C_2  and  C_18
    2  A    between atoms: C_2  and  C_23
    3  A    between atoms: N_7  and  C_36
    4  A    between atoms: O_8  and  P_16
    5  A    between atoms: CA_12  and  C_20
    6  A    between atoms: C_13  and  N_19
    7  A    between atoms: P_16  and  C_18
    8  A    between atoms: C_20  and  C_23
    9  A    between atoms: N_30  and  C_35
                            x       y       z     vdW  Elec       q    Type
                         _______ _______ _______ _____ _____    ______ ____

>  <TORSDO>
F 9

$$$$
=
 OpenBabel11052409313D

 38 42  0  0  1  0  0  0  0  0999 V2000
  161.5610  208.0290  148.9020 C   0  0  0  0  0  0  0  0  0  0  0  0
  161.7150  206.8570  146.8140 N   0  0  0  0  0  0  0  0  0  0  0  0
  161.7060  210.2740  150.6480 C   0  0  0  0  0  3  0  0  0  0  0  0
  161.6930  205.5500  146.4490 C   0  0  0  0  0  3  0  0  0  0  0  0
  161.2750  206.5790  150.8430 C   0  0  0  0  0  0  0  0  0  0  0  0
  161.4850  205.6760  148.6380 C   0  0  0  0  0  0  0  0  0  0  0  0
  161.3990  207.8780  150.2960 C   0  0  0  0  0  0  0  0  0  0  0  0
  161.5860  209.4050  148.2970 C   0  0  0  0  0  2  0  0  0  0  0  0
  161.3220  205.4540  150.0030 C   0  0  0  0  0  3  0  0  0  0  0  0
  161.5900  206.9110  148.1310 N   0  0  0  0  0  0  0  0  0  0  0  0
  162.2720  210.4070  149.2470 C   0  0  1  0  0  3  0  0  0  0  0  0
  161.5490  204.7830  147.6020 C   0  0  0  0  0  0  0  0  0  0  0  0
  161.3480  209.0860  151.1420 C   0  0  0  0  0  3  0  0  0  0  0  0
  160.8540  213.2630  147.2300 C   0  0  0  0  0  2  0  0  0  0  0  0
  161.0870  211.8320  147.7380 C   0  0  0  0  0  2  0  0  0  0  0  0
  163.3420  213.5880  147.5110 C   0  0  0  0  0  2  0  0  0  0  0  0
  163.3940  212.1560  148.0680 C   0  0  0  0  0  2  0  0  0  0  0  0
  162.1470  211.7870  148.7530 N   0  0  0  0  0  0  0  0  0  0  0  0
  161.9600  214.2250  147.6680 C   0  0  0  0  0  2  0  0  0  0  0  0
  161.0090  202.8970  145.4550 O   0  0  0  0  0  0  0  0  0  0  0  0
  161.4680  203.3570  147.7080 N   0  0  0  0  0  2  0  0  0  0  0  0
  161.2010  202.4640  146.6220 C   0  0  0  0  0  0  0  0  0  0  0  0
  161.1480  201.0010  146.8760 C   0  0  0  0  0  1  0  0  0  0  0  0
  160.4540  206.7250  153.5520 C   0  0  1  0  0  3  0  0  0  0  0  0
  161.1000  206.3900  152.2460 N   0  0  0  0  0  0  0  0  0  0  0  0
  162.6980  206.2060  153.9750 O   0  0  0  0  0  1  0  0  0  0  0  0
  161.4450  205.7500  153.5530 C   0  0  1  0  0  3  0  0  0  0  0  0
  160.8870  208.1300  153.9820 C   0  0  0  0  0  2  0  0  0  0  0  0
  161.7920  208.5490  156.1650 O   0  0  0  0  0  1  0  0  0  0  0  0
  160.5990  208.3940  155.4590 C   0  0  1  0  0  3  0  0  0  0  0  0
  159.7160  209.6190  155.6610 C   0  0  0  0  0  2  0  0  0  0  0  0
  160.8310  211.7330  155.6460 O   0  0  0  0  0  1  0  0  0  0  0  0
  160.2020  210.7940  154.8280 C   0  0  2  0  0  3  0  0  0  0  0  0
  158.7750  211.1520  152.5410 O   0  0  0  0  0  0  0  0  0  0  0  0
  158.7910  211.5750  153.9940 P   0  0  2  0  0  0  0  0  0  0  0  0
  158.9580  213.2560  154.0900 O   0  0  0  0  0  1  0  0  0  0  0  0
  157.3550  211.0880  154.7570 O   0  0  0  0  0  0  0  0  0  0  0  0
  156.8430  212.2410  155.3550 C   0  0  0  0  0  1  0  0  0  0  0  0
  1  7  2  0  0  0  0
  2 10  1  0  0  0  0
  3 13  2  0  0  0  0
  4  2  2  0  0  0  0
  4 12  1  0  0  0  0
  5 25  1  0  0  0  0
  6  9  1  0  0  0  0
  7  5  1  0  0  0  0
  7 13  1  0  0  0  0
  8  1  1  0  0  0  0
  9  5  2  0  0  0  0
 10  6  1  0  0  0  0
 10  1  1  0  0  0  0
 11  8  1  6  0  0  0
 11  3  1  0  0  0  0
 12 21  1  0  0  0  0
 12  6  2  0  0  0  0
 14 19  1  0  0  0  0
 14 15  1  0  0  0  0
 15 18  1  0  0  0  0
 16 19  1  0  0  0  0
 16 17  1  0  0  0  0
 17 18  1  0  0  0  0
 18 11  1  0  0  0  0
 20 22  2  0  0  0  0
 22 23  1  0  0  0  0
 22 21  1  0  0  0  0
 24 27  1  0  0  0  0
 24 28  1  1  0  0  0
 25 24  1  0  0  0  0
 25 27  1  0  0  0  0
 27 26  1  1  0  0  0
 28 30  1  0  0  0  0
 30 31  1  0  0  0  0
 30 29  1  1  0  0  0
 33 32  1  1  0  0  0
 33 31  1  0  0  0  0
 35 34  2  6  0  0  0
 35 36  1  0  0  0  0
 35 37  1  0  0  0  0
 35 33  1  0  0  0  0
 37 38  1  0  0  0  0
M  END
>  <MODEL>
7

>  <REMARK>
 VINA RESULT:      -6.1      4.478      7.961
  Name = 
  9 active torsions:
  status: ('A' for Active; 'I' for Inactive)
    1  A    between atoms: C_2  and  C_18
    2  A    between atoms: C_2  and  C_23
    3  A    between atoms: N_7  and  C_36
    4  A    between atoms: O_8  and  P_16
    5  A    between atoms: CA_12  and  C_20
    6  A    between atoms: C_13  and  N_19
    7  A    between atoms: P_16  and  C_18
    8  A    between atoms: C_20  and  C_23
    9  A    between atoms: N_30  and  C_35
                            x       y       z     vdW  Elec       q    Type
                         _______ _______ _______ _____ _____    ______ ____

>  <TORSDO>
F 9

$$$$
=
 OpenBabel11052409313D

 38 42  0  0  1  0  0  0  0  0999 V2000
  161.4480  206.8900  147.9270 C   0  0  0  0  0  0  0  0  0  0  0  0
  161.6220  206.1980  145.6360 N   0  0  0  0  0  0  0  0  0  0  0  0
  161.6270  208.6890  150.1270 C   0  0  0  0  0  3  0  0  0  0  0  0
  161.5590  205.0050  144.9920 C   0  0  0  0  0  3  0  0  0  0  0  0
  161.0420  205.0640  149.4950 C   0  0  0  0  0  0  0  0  0  0  0  0
  161.2860  204.6580  147.1500 C   0  0  0  0  0  0  0  0  0  0  0  0
  161.2360  206.4450  149.2500 C   0  0  0  0  0  0  0  0  0  0  0  0
  161.5480  208.3620  147.6400 C   0  0  0  0  0  2  0  0  0  0  0  0
  161.0710  204.1500  148.4290 C   0  0  0  0  0  3  0  0  0  0  0  0
  161.4570  205.9680  146.9290 N   0  0  0  0  0  0  0  0  0  0  0  0
  162.2420  209.0990  148.8030 C   0  0  1  0  0  3  0  0  0  0  0  0
  161.3470  204.0110  145.9440 C   0  0  0  0  0  0  0  0  0  0  0  0
  161.2060  207.4390  150.3390 C   0  0  0  0  0  3  0  0  0  0  0  0
  161.5800  212.6960  149.7300 C   0  0  0  0  0  2  0  0  0  0  0  0
  161.5980  211.1630  149.8220 C   0  0  0  0  0  2  0  0  0  0  0  0
  161.1580  212.3750  147.2610 C   0  0  0  0  0  2  0  0  0  0  0  0
  161.2770  210.8620  147.5110 C   0  0  0  0  0  2  0  0  0  0  0  0
  162.1890  210.5580  148.6220 N   0  0  0  0  0  0  0  0  0  0  0  0
  161.8930  213.1990  148.3190 C   0  0  0  0  0  2  0  0  0  0  0  0
  159.2050  202.6640  144.5110 O   0  0  0  0  0  0  0  0  0  0  0  0
  161.2060  202.6020  145.7320 N   0  0  0  0  0  2  0  0  0  0  0  0
  160.1340  201.9800  145.0170 C   0  0  0  0  0  0  0  0  0  0  0  0
  160.1150  200.5010  144.8720 C   0  0  0  0  0  1  0  0  0  0  0  0
  160.4190  204.7810  152.2450 C   0  0  1  0  0  3  0  0  0  0  0  0
  160.8150  204.5810  150.8170 N   0  0  0  0  0  0  0  0  0  0  0  0
  162.1560  203.2120  152.1950 O   0  0  0  0  0  1  0  0  0  0  0  0
  160.8310  203.5100  151.8610 C   0  0  1  0  0  3  0  0  0  0  0  0
  161.4700  205.6510  152.9420 C   0  0  0  0  0  2  0  0  0  0  0  0
  160.4570  206.3440  155.0040 O   0  0  0  0  0  1  0  0  0  0  0  0
  160.8370  206.7900  153.7380 C   0  0  1  0  0  3  0  0  0  0  0  0
  161.7710  207.9860  153.8710 C   0  0  0  0  0  2  0  0  0  0  0  0
  161.7300  210.2650  153.1510 O   0  0  0  0  0  1  0  0  0  0  0  0
  161.0000  209.2960  153.8390 C   0  0  2  0  0  3  0  0  0  0  0  0
  159.2950  209.4800  155.9500 O   0  0  0  0  0  1  0  0  0  0  0  0
  160.6980  209.8660  155.5360 P   0  0  2  0  0  0  0  0  0  0  0  0
  160.8560  211.5500  155.5850 O   0  0  0  0  0  0  0  0  0  0  0  0
  161.8300  209.1450  156.5750 O   0  0  0  0  0  0  0  0  0  0  0  0
  162.7440  210.1530  156.8860 C   0  0  0  0  0  1  0  0  0  0  0  0
  1  7  2  0  0  0  0
  2 10  1  0  0  0  0
  3 13  2  0  0  0  0
  4  2  2  0  0  0  0
  4 12  1  0  0  0  0
  5 25  1  0  0  0  0
  6  9  1  0  0  0  0
  7  5  1  0  0  0  0
  7 13  1  0  0  0  0
  8  1  1  0  0  0  0
  9  5  2  0  0  0  0
 10  6  1  0  0  0  0
 10  1  1  0  0  0  0
 11  8  1  6  0  0  0
 11  3  1  0  0  0  0
 12  6  2  0  0  0  0
 14 15  1  0  0  0  0
 16 17  1  0  0  0  0
 16 19  1  0  0  0  0
 17 18  1  0  0  0  0
 18 11  1  0  0  0  0
 18 15  1  0  0  0  0
 19 14  1  0  0  0  0
 20 22  2  0  0  0  0
 21 12  1  0  0  0  0
 22 21  1  0  0  0  0
 23 22  1  0  0  0  0
 24 28  1  1  0  0  0
 25 27  1  0  0  0  0
 25 24  1  0  0  0  0
 27 26  1  1  0  0  0
 27 24  1  0  0  0  0
 28 30  1  0  0  0  0
 30 31  1  0  0  0  0
 30 29  1  1  0  0  0
 33 32  1  6  0  0  0
 33 31  1  0  0  0  0
 33 35  1  0  0  0  0
 35 36  2  1  0  0  0
 35 34  1  0  0  0  0
 35 37  1  0  0  0  0
 37 38  1  0  0  0  0
M  END
>  <MODEL>
8

>  <REMARK>
 VINA RESULT:      -5.8      4.779      8.373
  Name = 
  9 active torsions:
  status: ('A' for Active; 'I' for Inactive)
    1  A    between atoms: C_2  and  C_18
    2  A    between atoms: C_2  and  C_23
    3  A    between atoms: N_7  and  C_36
    4  A    between atoms: O_8  and  P_16
    5  A    between atoms: CA_12  and  C_20
    6  A    between atoms: C_13  and  N_19
    7  A    between atoms: P_16  and  C_18
    8  A    between atoms: C_20  and  C_23
    9  A    between atoms: N_30  and  C_35
                            x       y       z     vdW  Elec       q    Type
                         _______ _______ _______ _____ _____    ______ ____

>  <TORSDO>
F 9

$$$$
=
 OpenBabel11052409313D

 38 42  0  0  1  0  0  0  0  0999 V2000
  161.4400  206.9270  150.3210 C   0  0  0  0  0  0  0  0  0  0  0  0
  161.9220  208.2220  148.3590 N   0  0  0  0  0  0  0  0  0  0  0  0
  160.8200  204.5770  151.8060 C   0  0  0  0  0  3  0  0  0  0  0  0
  162.0150  209.5490  148.0900 C   0  0  0  0  0  3  0  0  0  0  0  0
  161.0400  208.2600  152.3250 C   0  0  0  0  0  0  0  0  0  0  0  0
  161.5160  209.2920  150.2200 C   0  0  0  0  0  0  0  0  0  0  0  0
  161.1420  206.9950  151.6990 C   0  0  0  0  0  0  0  0  0  0  0  0
  161.6560  205.5900  149.6670 C   0  0  0  0  0  2  0  0  0  0  0  0
  161.2260  209.4330  151.5750 C   0  0  0  0  0  3  0  0  0  0  0  0
  161.6210  208.0890  149.6410 N   0  0  0  0  0  0  0  0  0  0  0  0
  160.7370  204.5210  150.2920 C   0  0  1  0  0  3  0  0  0  0  0  0
  161.7570  210.2470  149.2680 C   0  0  0  0  0  0  0  0  0  0  0  0
  160.9600  205.7390  152.4510 C   0  0  0  0  0  3  0  0  0  0  0  0
  161.5150  201.8580  147.7360 C   0  0  0  0  0  2  0  0  0  0  0  0
  161.1090  203.2170  148.3240 C   0  0  0  0  0  2  0  0  0  0  0  0
  160.2200  200.8340  149.6470 C   0  0  0  0  0  2  0  0  0  0  0  0
  159.9630  202.2660  150.1460 C   0  0  0  0  0  2  0  0  0  0  0  0
  161.0600  203.1770  149.7920 N   0  0  0  0  0  0  0  0  0  0  0  0
  161.4730  200.7370  148.7760 C   0  0  0  0  0  2  0  0  0  0  0  0
  162.7460  212.2780  147.4370 O   0  0  0  0  0  0  0  0  0  0  0  0
  161.7510  211.6640  149.4690 N   0  0  0  0  0  2  0  0  0  0  0  0
  162.2480  212.6300  148.5380 C   0  0  0  0  0  0  0  0  0  0  0  0
  162.1770  214.0750  148.8780 C   0  0  0  0  0  1  0  0  0  0  0  0
  160.0990  209.0400  154.8820 C   0  0  1  0  0  3  0  0  0  0  0  0
  160.7510  208.3660  153.7170 N   0  0  0  0  0  0  0  0  0  0  0  0
  162.1840  208.2420  155.5890 O   0  0  0  0  0  1  0  0  0  0  0  0
  160.8960  207.9300  155.1410 C   0  0  1  0  0  3  0  0  0  0  0  0
  160.7530  210.4080  155.1020 C   0  0  0  0  0  2  0  0  0  0  0  0
  160.0960  212.0300  153.4590 O   0  0  0  0  0  1  0  0  0  0  0  0
  159.8140  211.5580  154.7410 C   0  0  1  0  0  3  0  0  0  0  0  0
  158.3480  211.1520  154.8320 C   0  0  0  0  0  2  0  0  0  0  0  0
  156.6860  211.0160  156.5440 O   0  0  0  0  0  1  0  0  0  0  0  0
  157.6520  211.8550  155.9860 C   0  0  2  0  0  3  0  0  0  0  0  0
  157.8980  214.4530  155.2230 O   0  0  0  0  0  0  0  0  0  0  0  0
  156.8530  213.3700  155.3840 P   0  0  2  0  0  0  0  0  0  0  0  0
  155.6960  213.8670  156.5140 O   0  0  0  0  0  1  0  0  0  0  0  0
  156.1100  213.0520  153.8920 O   0  0  0  0  0  0  0  0  0  0  0  0
  156.0090  214.2900  153.2560 C   0  0  0  0  0  1  0  0  0  0  0  0
  1  7  2  0  0  0  0
  2 10  1  0  0  0  0
  3 13  2  0  0  0  0
  4  2  2  0  0  0  0
  4 12  1  0  0  0  0
  5 25  1  0  0  0  0
  6  9  1  0  0  0  0
  7  5  1  0  0  0  0
  7 13  1  0  0  0  0
  8  1  1  0  0  0  0
  9  5  2  0  0  0  0
 10  6  1  0  0  0  0
 10  1  1  0  0  0  0
 11  8  1  6  0  0  0
 11  3  1  0  0  0  0
 12 21  1  0  0  0  0
 12  6  2  0  0  0  0
 14 15  1  0  0  0  0
 14 19  1  0  0  0  0
 15 18  1  0  0  0  0
 16 17  1  0  0  0  0
 18 17  1  0  0  0  0
 18 11  1  0  0  0  0
 19 16  1  0  0  0  0
 20 22  2  0  0  0  0
 22 23  1  0  0  0  0
 22 21  1  0  0  0  0
 24 28  1  1  0  0  0
 24 27  1  0  0  0  0
 25 24  1  0  0  0  0
 25 27  1  0  0  0  0
 27 26  1  1  0  0  0
 30 29  1  6  0  0  0
 30 31  1  0  0  0  0
 30 28  1  0  0  0  0
 31 33  1  0  0  0  0
 33 32  1  6  0  0  0
 35 34  2  6  0  0  0
 35 33  1  0  0  0  0
 35 36  1  0  0  0  0
 37 35  1  0  0  0  0
 38 37  1  0  0  0  0
M  END
>  <MODEL>
9

>  <REMARK>
 VINA RESULT:      -5.6      4.740      8.519
  Name = 
  9 active torsions:
  status: ('A' for Active; 'I' for Inactive)
    1  A    between atoms: C_2  and  C_18
    2  A    between atoms: C_2  and  C_23
    3  A    between atoms: N_7  and  C_36
    4  A    between atoms: O_8  and  P_16
    5  A    between atoms: CA_12  and  C_20
    6  A    between atoms: C_13  and  N_19
    7  A    between atoms: P_16  and  C_18
    8  A    between atoms: C_20  and  C_23
    9  A    between atoms: N_30  and  C_35
                            x       y       z     vdW  Elec       q    Type
                         _______ _______ _______ _____ _____    ______ ____

>  <TORSDO>
F 9

$$$$
