=
 OpenBabel11052410143D

 25 27  0  0  1  0  0  0  0  0999 V2000
  161.0730  205.1190  152.3970 C   0  0  0  0  0  3  0  0  0  0  0  0
  161.1070  202.6720  151.7070 C   0  0  0  0  0  1  0  0  0  0  0  0
  161.2540  206.1090  150.4670 C   0  0  0  0  0  0  0  0  0  0  0  0
  160.6440  207.0510  154.9000 C   0  0  0  0  0  2  0  0  0  0  0  0
  161.4960  209.3440  148.8070 O   0  0  0  0  0  0  0  0  0  0  0  0
  160.1540  207.5650  153.6670 O   0  0  0  0  0  0  0  0  0  0  0  0
  162.4030  208.8150  150.9390 C   0  0  0  0  0  2  0  0  0  0  0  0
  160.9290  209.3850  155.7190 C   0  0  1  0  0  3  0  0  0  0  0  0
  161.1590  204.1340  151.4330 C   0  0  0  0  0  0  0  0  0  0  0  0
  161.2690  209.9240  152.8760 N   0  0  0  0  0  0  0  0  0  0  0  0
  161.1460  206.3300  151.8020 N   0  0  0  0  0  0  0  0  0  0  0  0
  161.6120  208.0370  155.5420 C   0  0  0  0  0  2  0  0  0  0  0  0
  161.2580  204.7520  150.1980 C   0  0  0  0  0  0  0  0  0  0  0  0
  161.2460  207.1280  149.4600 N   0  0  0  0  0  2  0  0  0  0  0  0
  162.3190  210.3470  153.7960 C   0  0  0  0  0  2  0  0  0  0  0  0
  160.5760  209.5980  157.1760 C   0  0  0  0  0  1  0  0  0  0  0  0
  160.9370  207.5710  152.5090 C   0  0  0  0  0  0  0  0  0  0  0  0
  161.4700  208.7390  152.1000 C   0  0  0  0  0  0  0  0  0  0  0  0
  161.7940  210.5420  155.2210 C   0  0  0  0  0  2  0  0  0  0  0  0
  161.6880  208.4640  149.6850 C   0  0  0  0  0  0  0  0  0  0  0  0
  160.7370  202.8270  148.6560 N   0  0  0  0  0  1  0  0  0  0  0  0
  161.9350  204.6660  147.9210 O   0  0  0  0  0  0  0  0  0  0  0  0
  161.3370  204.1000  148.8740 C   0  0  0  0  0  0  0  0  0  0  0  0
  160.2160  210.7940  152.5550 C   0  0  0  0  0  0  0  0  0  0  0  0
  159.3480  211.5120  152.2910 N   0  0  0  0  0  0  0  0  0  0  0  0
  3 11  1  0  0  0  0
  4 12  1  0  0  0  0
  5 20  2  0  0  0  0
  6  4  1  0  0  0  0
  7 18  1  0  0  0  0
  8 16  1  1  0  0  0
  9  2  1  0  0  0  0
  9  1  2  0  0  0  0
 10 15  1  0  0  0  0
 11  1  1  0  0  0  0
 11 17  1  0  0  0  0
 12  8  1  0  0  0  0
 13  3  2  0  0  0  0
 13  9  1  0  0  0  0
 14 20  1  0  0  0  0
 14  3  1  0  0  0  0
 15 19  1  0  0  0  0
 17  6  1  0  0  0  0
 18 17  2  0  0  0  0
 18 10  1  0  0  0  0
 19  8  1  0  0  0  0
 20  7  1  0  0  0  0
 21 23  1  0  0  0  0
 22 23  2  0  0  0  0
 23 13  1  0  0  0  0
 24 10  1  0  0  0  0
 25 24  3  0  0  0  0
M  END
>  <MODEL>
1

>  <REMARK>
 VINA RESULT:      -8.0      0.000      0.000
  Name = 
  2 active torsions:
  status: ('A' for Active; 'I' for Inactive)
    1  A    between atoms: N_12  and  C_18
    2  A    between atoms: C_15  and  C_21
                            x       y       z     vdW  Elec       q    Type
                         _______ _______ _______ _____ _____    ______ ____

>  <TORSDO>
F 2

$$$$
=
 OpenBabel11052410143D

 25 27  0  0  1  0  0  0  0  0999 V2000
  161.1070  205.9580  151.3160 C   0  0  0  0  0  3  0  0  0  0  0  0
  161.1020  203.8700  149.8650 C   0  0  0  0  0  1  0  0  0  0  0  0
  161.4720  207.5080  149.8320 C   0  0  0  0  0  0  0  0  0  0  0  0
  160.5590  206.9960  154.2840 C   0  0  0  0  0  2  0  0  0  0  0  0
  161.9620  211.0860  149.3420 O   0  0  0  0  0  0  0  0  0  0  0  0
  160.1850  207.9110  153.2600 O   0  0  0  0  0  0  0  0  0  0  0  0
  162.6820  209.8400  151.2330 C   0  0  0  0  0  2  0  0  0  0  0  0
  160.8680  208.9170  155.8380 C   0  0  1  0  0  3  0  0  0  0  0  0
  161.2290  205.3360  150.0890 C   0  0  0  0  0  0  0  0  0  0  0  0
  161.4450  210.3270  153.3540 N   0  0  0  0  0  0  0  0  0  0  0  0
  161.2700  207.2900  151.1570 N   0  0  0  0  0  0  0  0  0  0  0  0
  161.5110  207.6600  155.2700 C   0  0  0  0  0  2  0  0  0  0  0  0
  161.4460  206.3140  149.1340 C   0  0  0  0  0  0  0  0  0  0  0  0
  161.5790  208.7970  149.2160 N   0  0  0  0  0  2  0  0  0  0  0  0
  162.4360  210.3640  154.4240 C   0  0  0  0  0  2  0  0  0  0  0  0
  160.4120  208.6670  157.2610 C   0  0  0  0  0  1  0  0  0  0  0  0
  161.0550  208.2450  152.2170 C   0  0  0  0  0  0  0  0  0  0  0  0
  161.6600  209.4480  152.2460 C   0  0  0  0  0  0  0  0  0  0  0  0
  161.8110  210.1180  155.8000 C   0  0  0  0  0  2  0  0  0  0  0  0
  162.0530  209.9590  149.8930 C   0  0  0  0  0  0  0  0  0  0  0  0
  160.4820  206.2470  146.8050 N   0  0  0  0  0  1  0  0  0  0  0  0
  162.7290  205.8510  147.1880 O   0  0  0  0  0  0  0  0  0  0  0  0
  161.6020  206.1230  147.6770 C   0  0  0  0  0  0  0  0  0  0  0  0
  160.4530  211.3160  153.2740 C   0  0  0  0  0  0  0  0  0  0  0  0
  159.6350  212.1320  153.2080 N   0  0  0  0  0  0  0  0  0  0  0  0
  2  9  1  0  0  0  0
  3 11  1  0  0  0  0
  4 12  1  0  0  0  0
  5 20  2  0  0  0  0
  6  4  1  0  0  0  0
  7 18  1  0  0  0  0
  8 16  1  1  0  0  0
  9  1  2  0  0  0  0
 10 15  1  0  0  0  0
 11  1  1  0  0  0  0
 11 17  1  0  0  0  0
 12  8  1  0  0  0  0
 13  3  2  0  0  0  0
 13  9  1  0  0  0  0
 14  3  1  0  0  0  0
 14 20  1  0  0  0  0
 15 19  1  0  0  0  0
 17 18  2  0  0  0  0
 17  6  1  0  0  0  0
 18 10  1  0  0  0  0
 19  8  1  0  0  0  0
 20  7  1  0  0  0  0
 21 23  1  0  0  0  0
 22 23  2  0  0  0  0
 23 13  1  0  0  0  0
 24 10  1  0  0  0  0
 25 24  3  0  0  0  0
M  END
>  <MODEL>
2

>  <REMARK>
 VINA RESULT:      -7.8      1.352      1.516
  Name = 
  2 active torsions:
  status: ('A' for Active; 'I' for Inactive)
    1  A    between atoms: N_12  and  C_18
    2  A    between atoms: C_15  and  C_21
                            x       y       z     vdW  Elec       q    Type
                         _______ _______ _______ _____ _____    ______ ____

>  <TORSDO>
F 2

$$$$
=
 OpenBabel11052410143D

 25 27  0  0  1  0  0  0  0  0999 V2000
  160.9630  205.8820  152.5030 C   0  0  0  0  0  3  0  0  0  0  0  0
  160.5940  206.9120  154.7980 C   0  0  0  0  0  1  0  0  0  0  0  0
  161.3800  207.6490  151.3030 C   0  0  0  0  0  0  0  0  0  0  0  0
  161.2350  203.0900  150.9810 C   0  0  0  0  0  2  0  0  0  0  0  0
  162.1210  208.8410  147.9400 O   0  0  0  0  0  0  0  0  0  0  0  0
  162.0590  204.1280  150.4630 O   0  0  0  0  0  0  0  0  0  0  0  0
  160.7080  207.0060  148.4740 C   0  0  0  0  0  2  0  0  0  0  0  0
  161.2490  202.0070  148.7390 C   0  0  1  0  0  3  0  0  0  0  0  0
  160.8870  206.9770  153.3400 C   0  0  0  0  0  0  0  0  0  0  0  0
  161.6130  204.7580  147.8480 N   0  0  0  0  0  0  0  0  0  0  0  0
  161.2510  206.2990  151.2510 N   0  0  0  0  0  0  0  0  0  0  0  0
  160.3680  202.4970  149.8790 C   0  0  0  0  0  2  0  0  0  0  0  0
  161.1670  208.1070  152.5910 C   0  0  0  0  0  0  0  0  0  0  0  0
  161.7940  208.4800  150.2120 N   0  0  0  0  0  2  0  0  0  0  0  0
  160.5000  203.9900  147.3020 C   0  0  0  0  0  2  0  0  0  0  0  0
  161.3290  200.4950  148.7600 C   0  0  0  0  0  1  0  0  0  0  0  0
  161.5480  205.3940  150.1650 C   0  0  0  0  0  0  0  0  0  0  0  0
  161.3500  205.7200  148.8730 C   0  0  0  0  0  0  0  0  0  0  0  0
  160.7480  202.4800  147.3760 C   0  0  0  0  0  2  0  0  0  0  0  0
  161.5840  208.1480  148.8420 C   0  0  0  0  0  0  0  0  0  0  0  0
  160.0470  210.2380  153.3400 N   0  0  0  0  0  1  0  0  0  0  0  0
  162.3520  210.0600  153.2460 O   0  0  0  0  0  0  0  0  0  0  0  0
  161.2370  209.5040  153.0690 C   0  0  0  0  0  0  0  0  0  0  0  0
  162.8590  204.7550  147.2020 C   0  0  0  0  0  0  0  0  0  0  0  0
  163.8850  204.7520  146.6680 N   0  0  0  0  0  0  0  0  0  0  0  0
  1  9  2  0  0  0  0
  3 13  2  0  0  0  0
  5 20  2  0  0  0  0
  6  4  1  0  0  0  0
  7 20  1  0  0  0  0
  7 18  1  0  0  0  0
  8 16  1  6  0  0  0
  8 12  1  0  0  0  0
  9  2  1  0  0  0  0
 10 18  1  0  0  0  0
 11  3  1  0  0  0  0
 11  1  1  0  0  0  0
 12  4  1  0  0  0  0
 13 23  1  0  0  0  0
 13  9  1  0  0  0  0
 14  3  1  0  0  0  0
 15 19  1  0  0  0  0
 15 10  1  0  0  0  0
 17  6  1  0  0  0  0
 17 11  1  0  0  0  0
 18 17  2  0  0  0  0
 19  8  1  0  0  0  0
 20 14  1  0  0  0  0
 23 22  2  0  0  0  0
 23 21  1  0  0  0  0
 24 10  1  0  0  0  0
 25 24  3  0  0  0  0
M  END
>  <MODEL>
3

>  <REMARK>
 VINA RESULT:      -7.1      1.966      6.646
  Name = 
  2 active torsions:
  status: ('A' for Active; 'I' for Inactive)
    1  A    between atoms: N_12  and  C_18
    2  A    between atoms: C_15  and  C_21
                            x       y       z     vdW  Elec       q    Type
                         _______ _______ _______ _____ _____    ______ ____

>  <TORSDO>
F 2

$$$$
=
 OpenBabel11052410143D

 25 27  0  0  1  0  0  0  0  0999 V2000
  161.2060  207.8160  150.3340 C   0  0  0  0  0  3  0  0  0  0  0  0
  161.3230  210.0070  151.6200 C   0  0  0  0  0  1  0  0  0  0  0  0
  161.0510  206.3750  151.9570 C   0  0  0  0  0  0  0  0  0  0  0  0
  160.9820  206.6030  147.3910 C   0  0  0  0  0  2  0  0  0  0  0  0
  160.8310  202.8280  152.7610 O   0  0  0  0  0  0  0  0  0  0  0  0
  160.2940  205.8590  148.3900 O   0  0  0  0  0  0  0  0  0  0  0  0
  162.0550  203.7590  150.9490 C   0  0  0  0  0  2  0  0  0  0  0  0
  161.2060  204.5200  146.0450 C   0  0  1  0  0  3  0  0  0  0  0  0
  161.2310  208.5240  151.5200 C   0  0  0  0  0  0  0  0  0  0  0  0
  161.1170  203.2770  148.6790 N   0  0  0  0  0  0  0  0  0  0  0  0
  161.1100  206.4970  150.6070 N   0  0  0  0  0  0  0  0  0  0  0  0
  161.9540  205.7070  146.6350 C   0  0  0  0  0  2  0  0  0  0  0  0
  161.1170  207.6190  152.5600 C   0  0  0  0  0  0  0  0  0  0  0  0
  160.8330  205.1490  152.6660 N   0  0  0  0  0  2  0  0  0  0  0  0
  162.2490  202.9830  147.8070 C   0  0  0  0  0  2  0  0  0  0  0  0
  161.0400  204.7040  144.5510 C   0  0  0  0  0  1  0  0  0  0  0  0
  160.9100  205.4920  149.5900 C   0  0  0  0  0  0  0  0  0  0  0  0
  161.2960  204.2110  149.7480 C   0  0  0  0  0  0  0  0  0  0  0  0
  161.9090  203.1940  146.3290 C   0  0  0  0  0  2  0  0  0  0  0  0
  161.2040  203.8690  152.1620 C   0  0  0  0  0  0  0  0  0  0  0  0
  160.4210  209.1000  154.4780 N   0  0  0  0  0  1  0  0  0  0  0  0
  161.5810  207.1310  154.8400 O   0  0  0  0  0  0  0  0  0  0  0  0
  161.0620  207.9190  154.0060 C   0  0  0  0  0  0  0  0  0  0  0  0
  159.9700  202.4690  148.6470 C   0  0  0  0  0  0  0  0  0  0  0  0
  159.0250  201.8020  148.6210 N   0  0  0  0  0  0  0  0  0  0  0  0
  1 11  1  0  0  0  0
  1  9  2  0  0  0  0
  3 13  2  0  0  0  0
  3 14  1  0  0  0  0
  4  6  1  0  0  0  0
  6 17  1  0  0  0  0
  7 20  1  0  0  0  0
  8 16  1  6  0  0  0
  8 19  1  0  0  0  0
  8 12  1  0  0  0  0
  9  2  1  0  0  0  0
  9 13  1  0  0  0  0
 10 18  1  0  0  0  0
 11  3  1  0  0  0  0
 12  4  1  0  0  0  0
 13 23  1  0  0  0  0
 15 10  1  0  0  0  0
 17 18  2  0  0  0  0
 17 11  1  0  0  0  0
 18  7  1  0  0  0  0
 19 15  1  0  0  0  0
 20 14  1  0  0  0  0
 20  5  2  0  0  0  0
 23 21  1  0  0  0  0
 23 22  2  0  0  0  0
 24 10  1  0  0  0  0
 25 24  3  0  0  0  0
M  END
>  <MODEL>
4

>  <REMARK>
 VINA RESULT:      -5.9      2.128      7.447
  Name = 
  2 active torsions:
  status: ('A' for Active; 'I' for Inactive)
    1  A    between atoms: N_12  and  C_18
    2  A    between atoms: C_15  and  C_21
                            x       y       z     vdW  Elec       q    Type
                         _______ _______ _______ _____ _____    ______ ____

>  <TORSDO>
F 2

$$$$
=
 OpenBabel11052410143D

 25 27  0  0  1  0  0  0  0  0999 V2000
  160.8440  203.9790  151.1420 C   0  0  0  0  0  3  0  0  0  0  0  0
  160.4890  204.3430  153.6340 C   0  0  0  0  0  1  0  0  0  0  0  0
  161.4160  205.9770  150.4960 C   0  0  0  0  0  0  0  0  0  0  0  0
  160.9590  201.7190  148.8920 C   0  0  0  0  0  2  0  0  0  0  0  0
  162.3250  208.0130  147.6140 O   0  0  0  0  0  0  0  0  0  0  0  0
  161.8670  202.7970  148.6940 O   0  0  0  0  0  0  0  0  0  0  0  0
  160.7740  206.2120  147.5970 C   0  0  0  0  0  2  0  0  0  0  0  0
  160.9550  201.3170  146.4350 C   0  0  1  0  0  3  0  0  0  0  0  0
  160.8240  204.7960  152.2560 C   0  0  0  0  0  0  0  0  0  0  0  0
  161.5350  204.1710  146.3630 N   0  0  0  0  0  0  0  0  0  0  0  0
  161.1940  204.7100  150.0610 N   0  0  0  0  0  0  0  0  0  0  0  0
  160.0810  201.5290  147.6630 C   0  0  0  0  0  2  0  0  0  0  0  0
  161.2020  206.0670  151.8590 C   0  0  0  0  0  0  0  0  0  0  0  0
  161.9150  207.0500  149.6880 N   0  0  0  0  0  2  0  0  0  0  0  0
  160.3850  203.6750  145.6170 C   0  0  0  0  0  2  0  0  0  0  0  0
  160.9280  199.8590  146.0260 C   0  0  0  0  0  1  0  0  0  0  0  0
  161.4540  204.1300  148.7650 C   0  0  0  0  0  0  0  0  0  0  0  0
  161.3130  204.8220  147.6180 C   0  0  0  0  0  0  0  0  0  0  0  0
  160.5240  202.1920  145.2600 C   0  0  0  0  0  2  0  0  0  0  0  0
  161.7180  207.1350  148.2790 C   0  0  0  0  0  0  0  0  0  0  0  0
  160.8300  208.5210  152.3070 N   0  0  0  0  0  1  0  0  0  0  0  0
  161.9560  207.1800  153.8190 O   0  0  0  0  0  0  0  0  0  0  0  0
  161.3570  207.2620  152.7150 C   0  0  0  0  0  0  0  0  0  0  0  0
  162.7940  204.2580  145.7490 C   0  0  0  0  0  0  0  0  0  0  0  0
  163.8310  204.3300  145.2420 N   0  0  0  0  0  0  0  0  0  0  0  0
  1  9  2  0  0  0  0
  3 13  2  0  0  0  0
  5 20  2  0  0  0  0
  6 17  1  0  0  0  0
  6  4  1  0  0  0  0
  7 18  1  0  0  0  0
  7 20  1  0  0  0  0
  8 16  1  6  0  0  0
  8 12  1  0  0  0  0
  9  2  1  0  0  0  0
 10 18  1  0  0  0  0
 11  3  1  0  0  0  0
 11  1  1  0  0  0  0
 12  4  1  0  0  0  0
 13  9  1  0  0  0  0
 13 23  1  0  0  0  0
 14  3  1  0  0  0  0
 15 10  1  0  0  0  0
 17 11  1  0  0  0  0
 18 17  2  0  0  0  0
 19 15  1  0  0  0  0
 19  8  1  0  0  0  0
 20 14  1  0  0  0  0
 21 23  1  0  0  0  0
 23 22  2  0  0  0  0
 24 10  1  0  0  0  0
 25 24  3  0  0  0  0
M  END
>  <MODEL>
5

>  <REMARK>
 VINA RESULT:      -5.7      2.565      7.467
  Name = 
  2 active torsions:
  status: ('A' for Active; 'I' for Inactive)
    1  A    between atoms: N_12  and  C_18
    2  A    between atoms: C_15  and  C_21
                            x       y       z     vdW  Elec       q    Type
                         _______ _______ _______ _____ _____    ______ ____

>  <TORSDO>
F 2

$$$$
=
 OpenBabel11052410143D

 25 27  0  0  1  0  0  0  0  0999 V2000
  160.6940  208.4070  151.5330 C   0  0  0  0  0  3  0  0  0  0  0  0
  161.2180  206.7880  149.6430 C   0  0  0  0  0  1  0  0  0  0  0  0
  161.0410  207.1530  153.2780 C   0  0  0  0  0  0  0  0  0  0  0  0
  159.9980  211.4600  152.1490 C   0  0  0  0  0  2  0  0  0  0  0  0
  160.9420  207.0480  156.9190 O   0  0  0  0  0  0  0  0  0  0  0  0
  160.8000  210.8260  153.1390 O   0  0  0  0  0  0  0  0  0  0  0  0
  159.4510  208.2740  155.5330 C   0  0  0  0  0  2  0  0  0  0  0  0
  159.1470  213.0230  153.8900 C   0  0  1  0  0  3  0  0  0  0  0  0
  161.0680  207.1580  151.0770 C   0  0  0  0  0  0  0  0  0  0  0  0
  159.7120  210.7610  155.6380 N   0  0  0  0  0  0  0  0  0  0  0  0
  160.6640  208.3960  152.8840 N   0  0  0  0  0  0  0  0  0  0  0  0
  158.7490  212.0620  152.7800 C   0  0  0  0  0  2  0  0  0  0  0  0
  161.3070  206.3560  152.1800 C   0  0  0  0  0  0  0  0  0  0  0  0
  161.2500  206.7470  154.6360 N   0  0  0  0  0  2  0  0  0  0  0  0
  158.3680  211.3280  155.6440 C   0  0  0  0  0  2  0  0  0  0  0  0
  158.9590  214.4530  153.4280 C   0  0  0  0  0  1  0  0  0  0  0  0
  160.4570  209.5830  153.6790 C   0  0  0  0  0  0  0  0  0  0  0  0
  159.9430  209.5430  154.9240 C   0  0  0  0  0  0  0  0  0  0  0  0
  158.3540  212.7860  155.1740 C   0  0  0  0  0  2  0  0  0  0  0  0
  160.5850  207.3390  155.7490 C   0  0  0  0  0  0  0  0  0  0  0  0
  160.8390  203.8860  152.3820 N   0  0  0  0  0  1  0  0  0  0  0  0
  162.9800  204.6770  152.0010 O   0  0  0  0  0  0  0  0  0  0  0  0
  161.7640  204.9500  152.1810 C   0  0  0  0  0  0  0  0  0  0  0  0
  160.6860  211.2400  156.5280 C   0  0  0  0  0  0  0  0  0  0  0  0
  161.4890  211.6340  157.2610 N   0  0  0  0  0  0  0  0  0  0  0  0
  1 11  1  0  0  0  0
  2  9  1  0  0  0  0
  3 14  1  0  0  0  0
  4 12  1  0  0  0  0
  4  6  1  0  0  0  0
  6 17  1  0  0  0  0
  7 20  1  0  0  0  0
  8 16  1  6  0  0  0
  8 19  1  0  0  0  0
  9  1  2  0  0  0  0
  9 13  1  0  0  0  0
 10 15  1  0  0  0  0
 10 24  1  0  0  0  0
 11  3  1  0  0  0  0
 11 17  1  0  0  0  0
 12  8  1  0  0  0  0
 13 23  1  0  0  0  0
 13  3  2  0  0  0  0
 14 20  1  0  0  0  0
 17 18  2  0  0  0  0
 18  7  1  0  0  0  0
 18 10  1  0  0  0  0
 19 15  1  0  0  0  0
 20  5  2  0  0  0  0
 22 23  2  0  0  0  0
 23 21  1  0  0  0  0
 24 25  3  0  0  0  0
M  END
>  <MODEL>
6

>  <REMARK>
 VINA RESULT:      -5.7      2.543      4.544
  Name = 
  2 active torsions:
  status: ('A' for Active; 'I' for Inactive)
    1  A    between atoms: N_12  and  C_18
    2  A    between atoms: C_15  and  C_21
                            x       y       z     vdW  Elec       q    Type
                         _______ _______ _______ _____ _____    ______ ____

>  <TORSDO>
F 2

$$$$
=
 OpenBabel11052410143D

 25 27  0  0  1  0  0  0  0  0999 V2000
  161.4890  205.4550  146.6310 C   0  0  0  0  0  3  0  0  0  0  0  0
  161.3170  204.5570  144.2590 C   0  0  0  0  0  1  0  0  0  0  0  0
  161.1150  203.6560  147.7980 C   0  0  0  0  0  0  0  0  0  0  0  0
  162.2450  208.0570  148.3180 C   0  0  0  0  0  2  0  0  0  0  0  0
  160.7650  202.3330  151.1750 O   0  0  0  0  0  0  0  0  0  0  0  0
  162.6040  206.8260  148.9370 O   0  0  0  0  0  0  0  0  0  0  0  0
  160.0920  204.4980  150.4650 C   0  0  0  0  0  2  0  0  0  0  0  0
  162.1110  209.1100  150.5710 C   0  0  1  0  0  3  0  0  0  0  0  0
  161.2710  204.4230  145.7410 C   0  0  0  0  0  0  0  0  0  0  0  0
  161.4650  206.3840  151.3740 N   0  0  0  0  0  0  0  0  0  0  0  0
  161.3780  204.9850  147.8930 N   0  0  0  0  0  0  0  0  0  0  0  0
  161.3800  208.8910  149.2540 C   0  0  0  0  0  2  0  0  0  0  0  0
  161.0480  203.2690  146.4720 C   0  0  0  0  0  0  0  0  0  0  0  0
  161.0340  202.7510  148.9050 N   0  0  0  0  0  2  0  0  0  0  0  0
  160.5370  207.4530  151.7250 C   0  0  0  0  0  2  0  0  0  0  0  0
  162.6320  210.5300  150.6440 C   0  0  0  0  0  1  0  0  0  0  0  0
  161.6960  205.7720  149.0610 C   0  0  0  0  0  0  0  0  0  0  0  0
  161.1490  205.5330  150.2690 C   0  0  0  0  0  0  0  0  0  0  0  0
  161.2240  208.8200  151.7800 C   0  0  0  0  0  2  0  0  0  0  0  0
  160.6520  203.1440  150.2210 C   0  0  0  0  0  0  0  0  0  0  0  0
  159.9250  201.7040  144.8440 N   0  0  0  0  0  1  0  0  0  0  0  0
  161.3740  200.9140  146.4650 O   0  0  0  0  0  0  0  0  0  0  0  0
  160.8040  201.9090  145.9450 C   0  0  0  0  0  0  0  0  0  0  0  0
  162.4960  206.0250  152.2560 C   0  0  0  0  0  0  0  0  0  0  0  0
  163.3450  205.7290  152.9830 N   0  0  0  0  0  0  0  0  0  0  0  0
  1 11  1  0  0  0  0
  2  9  1  0  0  0  0
  3 11  1  0  0  0  0
  3 14  1  0  0  0  0
  4  6  1  0  0  0  0
  4 12  1  0  0  0  0
  6 17  1  0  0  0  0
  8 16  1  1  0  0  0
  8 19  1  0  0  0  0
  9 13  1  0  0  0  0
  9  1  2  0  0  0  0
 10 15  1  0  0  0  0
 10 24  1  0  0  0  0
 11 17  1  0  0  0  0
 12  8  1  0  0  0  0
 13  3  2  0  0  0  0
 14 20  1  0  0  0  0
 15 19  1  0  0  0  0
 17 18  2  0  0  0  0
 18  7  1  0  0  0  0
 18 10  1  0  0  0  0
 20  7  1  0  0  0  0
 20  5  2  0  0  0  0
 21 23  1  0  0  0  0
 23 22  2  0  0  0  0
 23 13  1  0  0  0  0
 24 25  3  0  0  0  0
M  END
>  <MODEL>
7

>  <REMARK>
 VINA RESULT:      -5.7      2.864      5.261
  Name = 
  2 active torsions:
  status: ('A' for Active; 'I' for Inactive)
    1  A    between atoms: N_12  and  C_18
    2  A    between atoms: C_15  and  C_21
                            x       y       z     vdW  Elec       q    Type
                         _______ _______ _______ _____ _____    ______ ____

>  <TORSDO>
F 2

$$$$
=
 OpenBabel11052410143D

 25 27  0  0  1  0  0  0  0  0999 V2000
  161.5750  206.8990  148.4980 C   0  0  0  0  0  3  0  0  0  0  0  0
  162.1060  209.3830  148.6090 C   0  0  0  0  0  1  0  0  0  0  0  0
  161.3260  206.4200  150.6070 C   0  0  0  0  0  0  0  0  0  0  0  0
  160.9630  204.5160  146.4660 C   0  0  0  0  0  2  0  0  0  0  0  0
  160.6450  203.7380  152.9780 O   0  0  0  0  0  0  0  0  0  0  0  0
  160.2470  204.4430  147.6930 O   0  0  0  0  0  0  0  0  0  0  0  0
  161.8600  203.5110  150.9480 C   0  0  0  0  0  2  0  0  0  0  0  0
  160.7810  202.0410  146.2540 C   0  0  1  0  0  3  0  0  0  0  0  0
  161.7890  208.0600  149.2140 C   0  0  0  0  0  0  0  0  0  0  0  0
  160.7000  202.1930  149.1630 N   0  0  0  0  0  0  0  0  0  0  0  0
  161.3050  205.8910  149.3570 N   0  0  0  0  0  0  0  0  0  0  0  0
  161.7360  203.2260  146.2230 C   0  0  0  0  0  2  0  0  0  0  0  0
  161.6180  207.7720  150.5570 C   0  0  0  0  0  0  0  0  0  0  0  0
  160.9820  205.7160  151.8060 N   0  0  0  0  0  2  0  0  0  0  0  0
  161.7100  201.3470  148.5370 C   0  0  0  0  0  2  0  0  0  0  0  0
  160.5360  201.5370  144.8470 C   0  0  0  0  0  1  0  0  0  0  0  0
  160.8870  204.5770  148.9280 C   0  0  0  0  0  0  0  0  0  0  0  0
  161.0900  203.4720  149.6700 C   0  0  0  0  0  0  0  0  0  0  0  0
  161.3000  200.9020  147.1300 C   0  0  0  0  0  2  0  0  0  0  0  0
  161.1230  204.3070  151.9630 C   0  0  0  0  0  0  0  0  0  0  0  0
  160.7610  208.6690  152.7520 N   0  0  0  0  0  1  0  0  0  0  0  0
  162.6390  209.5630  151.7390 O   0  0  0  0  0  0  0  0  0  0  0  0
  161.7120  208.7120  151.6930 C   0  0  0  0  0  0  0  0  0  0  0  0
  159.4470  201.6620  149.5070 C   0  0  0  0  0  0  0  0  0  0  0  0
  158.4140  201.2240  149.7900 N   0  0  0  0  0  0  0  0  0  0  0  0
  1  9  2  0  0  0  0
  1 11  1  0  0  0  0
  2  9  1  0  0  0  0
  3 14  1  0  0  0  0
  4  6  1  0  0  0  0
  6 17  1  0  0  0  0
  7 20  1  0  0  0  0
  8 16  1  6  0  0  0
  8 19  1  0  0  0  0
  9 13  1  0  0  0  0
 10 24  1  0  0  0  0
 10 18  1  0  0  0  0
 11  3  1  0  0  0  0
 12  8  1  0  0  0  0
 12  4  1  0  0  0  0
 13  3  2  0  0  0  0
 13 23  1  0  0  0  0
 14 20  1  0  0  0  0
 15 10  1  0  0  0  0
 17 11  1  0  0  0  0
 17 18  2  0  0  0  0
 18  7  1  0  0  0  0
 19 15  1  0  0  0  0
 20  5  2  0  0  0  0
 23 22  2  0  0  0  0
 23 21  1  0  0  0  0
 24 25  3  0  0  0  0
M  END
>  <MODEL>
8

>  <REMARK>
 VINA RESULT:      -5.6      2.534      7.837
  Name = 
  2 active torsions:
  status: ('A' for Active; 'I' for Inactive)
    1  A    between atoms: N_12  and  C_18
    2  A    between atoms: C_15  and  C_21
                            x       y       z     vdW  Elec       q    Type
                         _______ _______ _______ _____ _____    ______ ____

>  <TORSDO>
F 2

$$$$
=
 OpenBabel11052410143D

 25 27  0  0  1  0  0  0  0  0999 V2000
  160.9790  206.6950  154.7230 C   0  0  0  0  0  3  0  0  0  0  0  0
  160.7360  206.9530  157.2410 C   0  0  0  0  0  1  0  0  0  0  0  0
  161.2910  208.7600  154.1100 C   0  0  0  0  0  0  0  0  0  0  0  0
  161.2060  204.5210  152.3980 C   0  0  0  0  0  2  0  0  0  0  0  0
  161.8000  210.9580  151.2480 O   0  0  0  0  0  0  0  0  0  0  0  0
  161.9780  205.6970  152.1840 O   0  0  0  0  0  0  0  0  0  0  0  0
  160.4560  208.9980  151.2610 C   0  0  0  0  0  2  0  0  0  0  0  0
  161.0990  204.1840  149.9340 C   0  0  1  0  0  3  0  0  0  0  0  0
  160.9360  207.4760  155.8620 C   0  0  0  0  0  0  0  0  0  0  0  0
  161.3600  207.0860  149.9210 N   0  0  0  0  0  0  0  0  0  0  0  0
  161.1820  207.4890  153.6480 N   0  0  0  0  0  0  0  0  0  0  0  0
  160.2820  204.2670  151.2150 C   0  0  0  0  0  2  0  0  0  0  0  0
  161.1490  208.7910  155.4860 C   0  0  0  0  0  0  0  0  0  0  0  0
  161.6210  209.9020  153.3100 N   0  0  0  0  0  2  0  0  0  0  0  0
  160.2280  206.4850  149.2250 C   0  0  0  0  0  2  0  0  0  0  0  0
  161.2060  202.7430  149.4800 C   0  0  0  0  0  1  0  0  0  0  0  0
  161.4270  206.9740  152.3220 C   0  0  0  0  0  0  0  0  0  0  0  0
  161.1430  207.6750  151.2070 C   0  0  0  0  0  0  0  0  0  0  0  0
  160.5060  205.0360  148.8130 C   0  0  0  0  0  2  0  0  0  0  0  0
  161.3330  210.0020  151.9180 C   0  0  0  0  0  0  0  0  0  0  0  0
  162.4850  210.4960  156.7760 N   0  0  0  0  0  1  0  0  0  0  0  0
  160.1720  210.5350  156.7720 O   0  0  0  0  0  0  0  0  0  0  0  0
  161.2250  209.9730  156.3700 C   0  0  0  0  0  0  0  0  0  0  0  0
  162.5630  207.3280  149.2400 C   0  0  0  0  0  0  0  0  0  0  0  0
  163.5540  207.5260  148.6790 N   0  0  0  0  0  0  0  0  0  0  0  0
  1  9  2  0  0  0  0
  3 13  2  0  0  0  0
  5 20  2  0  0  0  0
  6 17  1  0  0  0  0
  6  4  1  0  0  0  0
  7 20  1  0  0  0  0
  8 16  1  6  0  0  0
  8 12  1  0  0  0  0
  9  2  1  0  0  0  0
 10 18  1  0  0  0  0
 11  3  1  0  0  0  0
 11  1  1  0  0  0  0
 12  4  1  0  0  0  0
 13  9  1  0  0  0  0
 13 23  1  0  0  0  0
 14  3  1  0  0  0  0
 15 10  1  0  0  0  0
 17 11  1  0  0  0  0
 18  7  1  0  0  0  0
 18 17  2  0  0  0  0
 19 15  1  0  0  0  0
 19  8  1  0  0  0  0
 20 14  1  0  0  0  0
 23 22  2  0  0  0  0
 23 21  1  0  0  0  0
 24 10  1  0  0  0  0
 25 24  3  0  0  0  0
M  END
>  <MODEL>
9

>  <REMARK>
 VINA RESULT:      -5.6      1.977      6.216
  Name = 
  2 active torsions:
  status: ('A' for Active; 'I' for Inactive)
    1  A    between atoms: N_12  and  C_18
    2  A    between atoms: C_15  and  C_21
                            x       y       z     vdW  Elec       q    Type
                         _______ _______ _______ _____ _____    ______ ____

>  <TORSDO>
F 2

$$$$
