=
 OpenBabel11052412163D

 41 44  0  0  1  0  0  0  0  0999 V2000
  161.1920  206.1420  151.0000 C   0  0  0  0  0  0  0  0  0  0  0  0
  161.3950  207.5270  150.9190 C   0  0  0  0  0  0  0  0  0  0  0  0
  160.8360  203.8830  152.0430 S   0  0  0  0  0  0  0  0  0  0  0  0
  161.0630  205.5310  152.2400 C   0  0  0  0  0  0  0  0  0  0  0  0
  161.1350  206.2450  153.4320 C   0  0  0  0  0  3  0  0  0  0  0  0
  161.1000  205.2530  149.9190 C   0  0  0  0  0  3  0  0  0  0  0  0
  161.4730  208.2660  152.1110 C   0  0  0  0  0  3  0  0  0  0  0  0
  160.8990  203.9450  150.3510 C   0  0  0  0  0  0  0  0  0  0  0  0
  161.3400  207.6320  153.3650 C   0  0  0  0  0  0  0  0  0  0  0  0
  160.2340  208.1860  155.5090 C   0  0  0  0  0  0  0  0  0  0  0  0
  159.3580  211.6320  155.1730 C   0  0  0  0  0  0  0  0  0  0  0  0
  161.4300  208.4130  154.6400 C   0  0  2  0  0  3  0  0  0  0  0  0
  159.4210  209.3150  155.7680 N   0  0  0  0  0  2  0  0  0  0  0  0
  159.9730  210.4590  155.1430 C   0  0  0  0  0  0  0  0  0  0  0  0
  159.9570  207.0570  155.9910 O   0  0  0  0  0  0  0  0  0  0  0  0
  159.2610  213.1110  154.8140 C   0  0  0  0  0  2  0  0  0  0  0  0
  161.5220  210.2140  154.2880 S   0  0  0  0  0  0  0  0  0  0  0  0
  158.2060  212.5410  155.5880 C   0  0  0  0  0  2  0  0  0  0  0  0
  161.0630  201.7120  147.4510 O   0  0  0  0  0  0  0  0  0  0  0  0
  161.2630  202.7650  148.1140 C   0  0  0  0  0  0  0  0  0  0  0  0
  160.7650  202.8360  149.4530 N   0  0  0  0  0  2  0  0  0  0  0  0
  161.9580  203.8450  147.5510 O   0  0  0  0  0  0  0  0  0  0  0  0
  161.6240  204.4760  146.3470 C   0  0  0  0  0  0  0  0  0  0  0  0
  161.3120  205.8640  146.3540 N   0  0  0  0  0  1  0  0  0  0  0  0
  161.5870  203.8400  145.2610 O   0  0  0  0  0  0  0  0  0  0  0  0
  161.5670  208.2180  149.6070 C   0  0  0  0  0  2  0  0  0  0  0  0
  162.0280  209.6470  149.8300 C   0  0  0  0  0  2  0  0  0  0  0  0
  161.9180  210.4100  148.5600 C   0  0  0  0  0  3  0  0  0  0  0  0
  161.9230  211.7120  148.5820 C   0  0  0  0  0  0  0  0  0  0  0  0
  161.9260  213.0140  148.6080 C   0  0  0  0  0  3  0  0  0  0  0  0
  161.1050  213.7460  147.7040 N   0  0  0  0  0  2  0  0  0  0  0  0
  161.1340  213.4720  146.2780 C   0  0  2  0  0  3  0  0  0  0  0  0
  162.7340  213.1100  144.4780 N   0  0  0  0  0  1  0  0  0  0  0  0
  162.5170  213.7940  145.7400 C   0  0  0  0  0  2  0  0  0  0  0  0
  160.0910  214.3280  145.5640 C   0  0  0  0  0  2  0  0  0  0  0  0
  158.3600  213.9760  143.9620 O   0  0  0  0  0  1  0  0  0  0  0  0
  158.8350  213.5330  145.1990 C   0  0  0  0  0  0  0  0  0  0  0  0
  159.1430  212.1710  145.1110 O   0  0  0  0  0  1  0  0  0  0  0  0
  157.4760  212.5020  147.0790 C   0  0  0  0  0  1  0  0  0  0  0  0
  157.7550  213.7600  146.2680 C   0  0  0  0  0  3  0  0  0  0  0  0
  156.4530  214.2520  145.6550 C   0  0  0  0  0  1  0  0  0  0  0  0
  1  4  1  0  0  0  0
  2  1  2  0  0  0  0
  2  7  1  0  0  0  0
  3  4  1  0  0  0  0
  4  5  2  0  0  0  0
  6  8  2  0  0  0  0
  6  1  1  0  0  0  0
  7  9  2  0  0  0  0
  8  3  1  0  0  0  0
  9  5  1  0  0  0  0
 10 13  1  0  0  0  0
 10 15  2  0  0  0  0
 11 18  1  0  0  0  0
 12  9  1  6  0  0  0
 12 10  1  0  0  0  0
 14 11  2  0  0  0  0
 14 13  1  0  0  0  0
 16 11  1  0  0  0  0
 16 18  1  0  0  0  0
 17 12  1  0  0  0  0
 17 14  1  0  0  0  0
 19 20  2  0  0  0  0
 20 21  1  0  0  0  0
 21  8  1  0  0  0  0
 22 20  1  0  0  0  0
 23 24  1  0  0  0  0
 23 22  1  0  0  0  0
 25 23  2  0  0  0  0
 26 27  1  0  0  0  0
 26  2  1  0  0  0  0
 28 29  2  0  0  0  0
 28 27  1  0  0  0  0
 29 30  2  0  0  0  0
 31 30  1  0  0  0  0
 32 35  1  6  0  0  0
 32 31  1  0  0  0  0
 33 34  1  0  0  0  0
 34 32  1  0  0  0  0
 36 37  1  0  0  0  0
 37 35  1  0  0  0  0
 37 40  1  0  0  0  0
 38 37  1  0  0  0  0
 40 39  1  0  0  0  0
 41 40  1  0  0  0  0
M  END
>  <MODEL>
1

>  <REMARK>
 VINA RESULT:      -8.2      0.000      0.000
  Name = 
  13 active torsions:
  status: ('A' for Active; 'I' for Inactive)
    1  A    between atoms: C_2  and  C_4
    2  A    between atoms: C_2  and  C_33
    3  A    between atoms: O_8  and  C_13
    4  A    between atoms: O_8  and  C_34
    5  A    between atoms: C_9  and  C_32
    6  A    between atoms: C_11  and  C_33
    7  A    between atoms: C_14  and  C_40
    8  A    between atoms: N_15  and  C_37
    9  A    between atoms: N_19  and  C_32
   10  A    between atoms: N_19  and  C_39
   11  A    between atoms: C_20  and  C_29
   12  A    between atoms: C_20  and  C_32
   13  A    between atoms: C_26  and  C_29
                            x       y       z     vdW  Elec       q    Type
                         _______ _______ _______ _____ _____    ______ ____

>  <TORSDO>
F 13

$$$$
=
 OpenBabel11052412163D

 41 44  0  0  1  0  0  0  0  0999 V2000
  160.9340  205.1370  150.6470 C   0  0  0  0  0  0  0  0  0  0  0  0
  160.8340  206.5100  150.3790 C   0  0  0  0  0  0  0  0  0  0  0  0
  161.2960  203.0260  151.9620 S   0  0  0  0  0  0  0  0  0  0  0  0
  161.2340  204.7000  151.9300 C   0  0  0  0  0  0  0  0  0  0  0  0
  161.4510  205.5820  152.9840 C   0  0  0  0  0  3  0  0  0  0  0  0
  160.7600  204.0980  149.7220 C   0  0  0  0  0  3  0  0  0  0  0  0
  161.0520  207.4170  151.4290 C   0  0  0  0  0  3  0  0  0  0  0  0
  160.9330  202.8510  150.3170 C   0  0  0  0  0  0  0  0  0  0  0  0
  161.3560  206.9590  152.7300 C   0  0  0  0  0  0  0  0  0  0  0  0
  160.5310  207.8240  154.8970 C   0  0  0  0  0  0  0  0  0  0  0  0
  159.5450  211.1810  154.1780 C   0  0  0  0  0  0  0  0  0  0  0  0
  161.5960  207.9210  153.8520 C   0  0  2  0  0  3  0  0  0  0  0  0
  159.7360  208.9780  155.0930 N   0  0  0  0  0  2  0  0  0  0  0  0
  160.1750  210.0170  154.2400 C   0  0  0  0  0  0  0  0  0  0  0  0
  160.3450  206.7790  155.5730 O   0  0  0  0  0  0  0  0  0  0  0  0
  159.3700  212.5890  153.6220 C   0  0  0  0  0  2  0  0  0  0  0  0
  161.6030  209.6500  153.2290 S   0  0  0  0  0  0  0  0  0  0  0  0
  158.4390  212.1390  154.6060 C   0  0  0  0  0  2  0  0  0  0  0  0
  160.9900  200.2400  147.7470 O   0  0  0  0  0  0  0  0  0  0  0  0
  161.1620  201.3900  148.2330 C   0  0  0  0  0  0  0  0  0  0  0  0
  160.8050  201.6170  149.5990 N   0  0  0  0  0  2  0  0  0  0  0  0
  161.6910  202.4270  147.4510 O   0  0  0  0  0  0  0  0  0  0  0  0
  161.2100  202.8100  146.1930 C   0  0  0  0  0  0  0  0  0  0  0  0
  161.4000  204.1500  145.7550 N   0  0  0  0  0  1  0  0  0  0  0  0
  160.6060  201.9960  145.4450 O   0  0  0  0  0  0  0  0  0  0  0  0
  160.5420  207.0220  149.0080 C   0  0  0  0  0  2  0  0  0  0  0  0
  161.8200  207.0740  148.1910 C   0  0  0  0  0  2  0  0  0  0  0  0
  162.6640  208.2030  148.6600 C   0  0  0  0  0  3  0  0  0  0  0  0
  162.2040  209.4210  148.6130 C   0  0  0  0  0  0  0  0  0  0  0  0
  161.7430  210.6390  148.5630 C   0  0  0  0  0  3  0  0  0  0  0  0
  162.6120  211.7170  148.2330 N   0  0  0  0  0  2  0  0  0  0  0  0
  162.0950  212.9390  147.6420 C   0  0  2  0  0  3  0  0  0  0  0  0
  160.0260  213.7290  148.6570 N   0  0  0  0  0  1  0  0  0  0  0  0
  161.4750  213.7930  148.7350 C   0  0  0  0  0  2  0  0  0  0  0  0
  161.0410  212.6020  146.5900 C   0  0  0  0  0  2  0  0  0  0  0  0
  160.4210  214.4530  145.2220 O   0  0  0  0  0  1  0  0  0  0  0  0
  161.2730  213.3470  145.2740 C   0  0  0  0  0  0  0  0  0  0  0  0
  162.5990  213.7850  145.2010 O   0  0  0  0  0  1  0  0  0  0  0  0
  161.9440  212.5930  142.9440 C   0  0  0  0  0  1  0  0  0  0  0  0
  160.9620  212.4120  144.0940 C   0  0  0  0  0  3  0  0  0  0  0  0
  159.5480  212.6160  143.5730 C   0  0  0  0  0  1  0  0  0  0  0  0
  1  4  1  0  0  0  0
  2  1  2  0  0  0  0
  2  7  1  0  0  0  0
  4  3  1  0  0  0  0
  4  5  2  0  0  0  0
  6  8  2  0  0  0  0
  6  1  1  0  0  0  0
  7  9  2  0  0  0  0
  8  3  1  0  0  0  0
  9  5  1  0  0  0  0
 10 13  1  0  0  0  0
 10 15  2  0  0  0  0
 11 14  2  0  0  0  0
 11 18  1  0  0  0  0
 12  9  1  6  0  0  0
 12 10  1  0  0  0  0
 14 13  1  0  0  0  0
 16 11  1  0  0  0  0
 16 18  1  0  0  0  0
 17 12  1  0  0  0  0
 17 14  1  0  0  0  0
 19 20  2  0  0  0  0
 20 21  1  0  0  0  0
 21  8  1  0  0  0  0
 22 20  1  0  0  0  0
 23 22  1  0  0  0  0
 24 23  1  0  0  0  0
 25 23  2  0  0  0  0
 26  2  1  0  0  0  0
 27 28  1  0  0  0  0
 27 26  1  0  0  0  0
 29 28  2  0  0  0  0
 30 29  2  0  0  0  0
 31 30  1  0  0  0  0
 32 35  1  6  0  0  0
 32 31  1  0  0  0  0
 32 34  1  0  0  0  0
 33 34  1  0  0  0  0
 36 37  1  0  0  0  0
 37 35  1  0  0  0  0
 38 37  1  0  0  0  0
 39 40  1  0  0  0  0
 40 37  1  0  0  0  0
 41 40  1  0  0  0  0
M  END
>  <MODEL>
2

>  <REMARK>
 VINA RESULT:      -8.1      1.709      2.282
  Name = 
  13 active torsions:
  status: ('A' for Active; 'I' for Inactive)
    1  A    between atoms: C_2  and  C_4
    2  A    between atoms: C_2  and  C_33
    3  A    between atoms: O_8  and  C_13
    4  A    between atoms: O_8  and  C_34
    5  A    between atoms: C_9  and  C_32
    6  A    between atoms: C_11  and  C_33
    7  A    between atoms: C_14  and  C_40
    8  A    between atoms: N_15  and  C_37
    9  A    between atoms: N_19  and  C_32
   10  A    between atoms: N_19  and  C_39
   11  A    between atoms: C_20  and  C_29
   12  A    between atoms: C_20  and  C_32
   13  A    between atoms: C_26  and  C_29
                            x       y       z     vdW  Elec       q    Type
                         _______ _______ _______ _____ _____    ______ ____

>  <TORSDO>
F 13

$$$$
=
 OpenBabel11052412163D

 41 44  0  0  1  0  0  0  0  0999 V2000
  161.3870  206.7420  150.8290 C   0  0  0  0  0  0  0  0  0  0  0  0
  161.5680  208.1300  150.9010 C   0  0  0  0  0  0  0  0  0  0  0  0
  161.0170  204.3830  151.6130 S   0  0  0  0  0  0  0  0  0  0  0  0
  161.2030  206.0040  151.9910 C   0  0  0  0  0  0  0  0  0  0  0  0
  161.1960  206.5930  153.2510 C   0  0  0  0  0  3  0  0  0  0  0  0
  161.3700  205.9680  149.6590 C   0  0  0  0  0  3  0  0  0  0  0  0
  161.5680  208.7430  152.1650 C   0  0  0  0  0  3  0  0  0  0  0  0
  161.1710  204.6200  149.9430 C   0  0  0  0  0  0  0  0  0  0  0  0
  161.3790  207.9820  153.3390 C   0  0  0  0  0  0  0  0  0  0  0  0
  160.1110  208.3700  155.4290 C   0  0  0  0  0  0  0  0  0  0  0  0
  159.3920  211.8680  155.3750 C   0  0  0  0  0  0  0  0  0  0  0  0
  161.3860  208.6280  154.6900 C   0  0  2  0  0  3  0  0  0  0  0  0
  159.3200  209.5030  155.7330 N   0  0  0  0  0  2  0  0  0  0  0  0
  159.9650  210.6770  155.2770 C   0  0  0  0  0  0  0  0  0  0  0  0
  159.7530  207.2110  155.7670 O   0  0  0  0  0  0  0  0  0  0  0  0
  159.3800  213.3770  155.1630 C   0  0  0  0  0  2  0  0  0  0  0  0
  161.5730  210.4490  154.5330 S   0  0  0  0  0  0  0  0  0  0  0  0
  158.2420  212.7810  155.7850 C   0  0  0  0  0  2  0  0  0  0  0  0
  161.3360  202.7740  146.7820 O   0  0  0  0  0  0  0  0  0  0  0  0
  161.4450  203.7680  147.5490 C   0  0  0  0  0  0  0  0  0  0  0  0
  161.1050  203.6090  148.9300 N   0  0  0  0  0  2  0  0  0  0  0  0
  161.8910  205.0050  147.0620 O   0  0  0  0  0  0  0  0  0  0  0  0
  161.3310  205.6890  145.9770 C   0  0  0  0  0  0  0  0  0  0  0  0
  161.8010  205.4130  144.6630 N   0  0  0  0  0  1  0  0  0  0  0  0
  160.4260  206.5490  146.1400 O   0  0  0  0  0  0  0  0  0  0  0  0
  161.7980  208.9550  149.6790 C   0  0  0  0  0  2  0  0  0  0  0  0
  161.8480  210.4270  150.0480 C   0  0  0  0  0  2  0  0  0  0  0  0
  162.2710  211.2230  148.8670 C   0  0  0  0  0  3  0  0  0  0  0  0
  161.8980  212.4660  148.7550 C   0  0  0  0  0  0  0  0  0  0  0  0
  161.5220  213.7080  148.6440 C   0  0  0  0  0  3  0  0  0  0  0  0
  161.1940  214.2420  147.3650 N   0  0  0  0  0  2  0  0  0  0  0  0
  160.1310  213.6610  146.5630 C   0  0  2  0  0  3  0  0  0  0  0  0
  157.9560  212.5740  146.7150 N   0  0  0  0  0  1  0  0  0  0  0  0
  159.0880  213.0560  147.4870 C   0  0  0  0  0  2  0  0  0  0  0  0
  160.7020  212.5790  145.6500 C   0  0  0  0  0  2  0  0  0  0  0  0
  159.9350  211.7940  143.5340 O   0  0  0  0  0  1  0  0  0  0  0  0
  160.5020  212.9020  144.1680 C   0  0  0  0  0  0  0  0  0  0  0  0
  159.6440  213.9980  144.0310 O   0  0  0  0  0  1  0  0  0  0  0  0
  162.1560  212.3080  142.3370 C   0  0  0  0  0  1  0  0  0  0  0  0
  161.8620  213.2150  143.5230 C   0  0  0  0  0  3  0  0  0  0  0  0
  162.9990  213.1000  144.5270 C   0  0  0  0  0  1  0  0  0  0  0  0
  1  2  2  0  0  0  0
  1  4  1  0  0  0  0
  2  7  1  0  0  0  0
  3  4  1  0  0  0  0
  4  5  2  0  0  0  0
  5  9  1  0  0  0  0
  6  8  2  0  0  0  0
  6  1  1  0  0  0  0
  7  9  2  0  0  0  0
  8  3  1  0  0  0  0
 10 13  1  0  0  0  0
 10 15  2  0  0  0  0
 11 18  1  0  0  0  0
 12  9  1  6  0  0  0
 12 10  1  0  0  0  0
 14 11  2  0  0  0  0
 14 13  1  0  0  0  0
 16 11  1  0  0  0  0
 16 18  1  0  0  0  0
 17 12  1  0  0  0  0
 17 14  1  0  0  0  0
 19 20  2  0  0  0  0
 20 21  1  0  0  0  0
 21  8  1  0  0  0  0
 22 20  1  0  0  0  0
 23 25  2  0  0  0  0
 23 22  1  0  0  0  0
 24 23  1  0  0  0  0
 26 27  1  0  0  0  0
 26  2  1  0  0  0  0
 28 27  1  0  0  0  0
 29 28  2  0  0  0  0
 30 29  2  0  0  0  0
 31 30  1  0  0  0  0
 32 35  1  6  0  0  0
 32 31  1  0  0  0  0
 32 34  1  0  0  0  0
 33 34  1  0  0  0  0
 36 37  1  0  0  0  0
 37 35  1  0  0  0  0
 38 37  1  0  0  0  0
 39 40  1  0  0  0  0
 40 37  1  0  0  0  0
 40 41  1  0  0  0  0
M  END
>  <MODEL>
3

>  <REMARK>
 VINA RESULT:      -7.8      1.360      2.248
  Name = 
  13 active torsions:
  status: ('A' for Active; 'I' for Inactive)
    1  A    between atoms: C_2  and  C_4
    2  A    between atoms: C_2  and  C_33
    3  A    between atoms: O_8  and  C_13
    4  A    between atoms: O_8  and  C_34
    5  A    between atoms: C_9  and  C_32
    6  A    between atoms: C_11  and  C_33
    7  A    between atoms: C_14  and  C_40
    8  A    between atoms: N_15  and  C_37
    9  A    between atoms: N_19  and  C_32
   10  A    between atoms: N_19  and  C_39
   11  A    between atoms: C_20  and  C_29
   12  A    between atoms: C_20  and  C_32
   13  A    between atoms: C_26  and  C_29
                            x       y       z     vdW  Elec       q    Type
                         _______ _______ _______ _____ _____    ______ ____

>  <TORSDO>
F 13

$$$$
=
 OpenBabel11052412163D

 41 44  0  0  1  0  0  0  0  0999 V2000
  161.3780  206.4130  149.3380 C   0  0  0  0  0  0  0  0  0  0  0  0
  161.2990  206.8590  150.6650 C   0  0  0  0  0  0  0  0  0  0  0  0
  161.7600  206.5000  146.8550 S   0  0  0  0  0  0  0  0  0  0  0  0
  161.7530  207.2920  148.3310 C   0  0  0  0  0  0  0  0  0  0  0  0
  162.0550  208.6270  148.5850 C   0  0  0  0  0  3  0  0  0  0  0  0
  161.1080  205.1140  148.8830 C   0  0  0  0  0  3  0  0  0  0  0  0
  161.5960  208.2040  150.9410 C   0  0  0  0  0  3  0  0  0  0  0  0
  161.2810  205.0110  147.5050 C   0  0  0  0  0  0  0  0  0  0  0  0
  161.9770  209.0870  149.9080 C   0  0  0  0  0  0  0  0  0  0  0  0
  161.2510  211.1460  151.0750 C   0  0  0  0  0  0  0  0  0  0  0  0
  160.3730  213.3830  148.4330 C   0  0  0  0  0  0  0  0  0  0  0  0
  162.2880  210.5240  150.1950 C   0  0  2  0  0  3  0  0  0  0  0  0
  160.5070  212.2110  150.5150 N   0  0  0  0  0  2  0  0  0  0  0  0
  160.9600  212.4770  149.2020 C   0  0  0  0  0  0  0  0  0  0  0  0
  161.0450  210.7520  152.2530 O   0  0  0  0  0  0  0  0  0  0  0  0
  160.2360  214.1530  147.1250 C   0  0  0  0  0  2  0  0  0  0  0  0
  162.3420  211.4950  148.6360 S   0  0  0  0  0  0  0  0  0  0  0  0
  159.3190  214.4530  148.1760 C   0  0  0  0  0  2  0  0  0  0  0  0
  160.9740  201.4920  146.5310 O   0  0  0  0  0  0  0  0  0  0  0  0
  161.1910  202.4650  147.3020 C   0  0  0  0  0  0  0  0  0  0  0  0
  161.0750  203.7920  146.7800 N   0  0  0  0  0  2  0  0  0  0  0  0
  161.5380  202.2530  148.6440 O   0  0  0  0  0  0  0  0  0  0  0  0
  160.6410  201.9070  149.6610 C   0  0  0  0  0  0  0  0  0  0  0  0
  160.8820  202.3650  150.9860 N   0  0  0  0  0  1  0  0  0  0  0  0
  159.6280  201.1950  149.4290 O   0  0  0  0  0  0  0  0  0  0  0  0
  160.8720  205.9530  151.7720 C   0  0  0  0  0  2  0  0  0  0  0  0
  161.8980  205.9820  152.8900 C   0  0  0  0  0  2  0  0  0  0  0  0
  161.2180  206.2610  154.1820 C   0  0  0  0  0  3  0  0  0  0  0  0
  160.8340  207.4730  154.4650 C   0  0  0  0  0  0  0  0  0  0  0  0
  160.4520  208.6860  154.7470 C   0  0  0  0  0  3  0  0  0  0  0  0
  160.5460  209.1700  156.0830 N   0  0  0  0  0  2  0  0  0  0  0  0
  160.5790  210.5950  156.3610 C   0  0  2  0  0  3  0  0  0  0  0  0
  163.0130  210.7020  156.3230 N   0  0  0  0  0  1  0  0  0  0  0  0
  161.8370  210.9160  157.1480 C   0  0  0  0  0  2  0  0  0  0  0  0
  159.3480  210.9950  157.1690 C   0  0  0  0  0  2  0  0  0  0  0  0
  157.4450  212.4290  157.2570 O   0  0  0  0  0  1  0  0  0  0  0  0
  158.4140  211.9220  156.3870 C   0  0  0  0  0  0  0  0  0  0  0  0
  159.1420  212.9850  155.8430 O   0  0  0  0  0  1  0  0  0  0  0  0
  158.0010  211.7190  153.8910 C   0  0  0  0  0  1  0  0  0  0  0  0
  157.7240  211.1280  155.2660 C   0  0  0  0  0  3  0  0  0  0  0  0
  156.2200  211.0510  155.4770 C   0  0  0  0  0  1  0  0  0  0  0  0
  1  2  1  0  0  0  0
  2  7  2  0  0  0  0
  2 26  1  0  0  0  0
  3  8  1  0  0  0  0
  3  4  1  0  0  0  0
  4  5  1  0  0  0  0
  4  1  2  0  0  0  0
  5  9  2  0  0  0  0
  6  1  1  0  0  0  0
  8  6  2  0  0  0  0
  9  7  1  0  0  0  0
 10 15  2  0  0  0  0
 11 14  2  0  0  0  0
 12  9  1  6  0  0  0
 12 10  1  0  0  0  0
 13 10  1  0  0  0  0
 14 13  1  0  0  0  0
 16 18  1  0  0  0  0
 16 11  1  0  0  0  0
 17 14  1  0  0  0  0
 17 12  1  0  0  0  0
 18 11  1  0  0  0  0
 19 20  2  0  0  0  0
 20 22  1  0  0  0  0
 21 20  1  0  0  0  0
 21  8  1  0  0  0  0
 22 23  1  0  0  0  0
 23 24  1  0  0  0  0
 25 23  2  0  0  0  0
 26 27  1  0  0  0  0
 27 28  1  0  0  0  0
 28 29  2  0  0  0  0
 29 30  2  0  0  0  0
 30 31  1  0  0  0  0
 31 32  1  0  0  0  0
 32 34  1  1  0  0  0
 32 35  1  0  0  0  0
 33 34  1  0  0  0  0
 37 35  1  0  0  0  0
 37 36  1  0  0  0  0
 38 37  1  0  0  0  0
 39 40  1  0  0  0  0
 40 41  1  0  0  0  0
 40 37  1  0  0  0  0
M  END
>  <MODEL>
4

>  <REMARK>
 VINA RESULT:      -7.3      3.097      7.100
  Name = 
  13 active torsions:
  status: ('A' for Active; 'I' for Inactive)
    1  A    between atoms: C_2  and  C_4
    2  A    between atoms: C_2  and  C_33
    3  A    between atoms: O_8  and  C_13
    4  A    between atoms: O_8  and  C_34
    5  A    between atoms: C_9  and  C_32
    6  A    between atoms: C_11  and  C_33
    7  A    between atoms: C_14  and  C_40
    8  A    between atoms: N_15  and  C_37
    9  A    between atoms: N_19  and  C_32
   10  A    between atoms: N_19  and  C_39
   11  A    between atoms: C_20  and  C_29
   12  A    between atoms: C_20  and  C_32
   13  A    between atoms: C_26  and  C_29
                            x       y       z     vdW  Elec       q    Type
                         _______ _______ _______ _____ _____    ______ ____

>  <TORSDO>
F 13

$$$$
=
 OpenBabel11052412163D

 41 44  0  0  1  0  0  0  0  0999 V2000
  161.5680  207.6590  151.8520 C   0  0  0  0  0  0  0  0  0  0  0  0
  161.7580  208.9750  151.4090 C   0  0  0  0  0  0  0  0  0  0  0  0
  161.0980  205.7630  153.4350 S   0  0  0  0  0  0  0  0  0  0  0  0
  161.2660  207.4110  153.1850 C   0  0  0  0  0  0  0  0  0  0  0  0
  161.1480  208.4320  154.1220 C   0  0  0  0  0  3  0  0  0  0  0  0
  161.6510  206.5000  151.0670 C   0  0  0  0  0  3  0  0  0  0  0  0
  161.6460  210.0210  152.3410 C   0  0  0  0  0  3  0  0  0  0  0  0
  161.4100  205.3540  151.8210 C   0  0  0  0  0  0  0  0  0  0  0  0
  161.3390  209.7550  153.6930 C   0  0  0  0  0  0  0  0  0  0  0  0
  161.0780  210.3370  156.0850 C   0  0  0  0  0  0  0  0  0  0  0  0
  157.8260  211.8020  156.2750 C   0  0  0  0  0  0  0  0  0  0  0  0
  161.2250  210.8650  154.6930 C   0  0  2  0  0  3  0  0  0  0  0  0
  159.8650  210.6430  156.7470 N   0  0  0  0  0  2  0  0  0  0  0  0
  159.0490  211.4430  155.9140 C   0  0  0  0  0  0  0  0  0  0  0  0
  161.9780  209.6600  156.6460 O   0  0  0  0  0  0  0  0  0  0  0  0
  156.5020  212.5150  156.0240 C   0  0  0  0  0  2  0  0  0  0  0  0
  159.7530  211.9050  154.3380 S   0  0  0  0  0  0  0  0  0  0  0  0
  156.6620  211.8200  157.2600 C   0  0  0  0  0  2  0  0  0  0  0  0
  161.1200  202.4550  149.5990 O   0  0  0  0  0  0  0  0  0  0  0  0
  161.0430  203.6670  149.9370 C   0  0  0  0  0  0  0  0  0  0  0  0
  161.4290  204.0340  151.2650 N   0  0  0  0  0  2  0  0  0  0  0  0
  160.5880  204.6360  149.0320 O   0  0  0  0  0  0  0  0  0  0  0  0
  161.2380  204.9950  147.8460 C   0  0  0  0  0  0  0  0  0  0  0  0
  160.8820  206.2110  147.1990 N   0  0  0  0  0  1  0  0  0  0  0  0
  162.1260  204.2620  147.3360 O   0  0  0  0  0  0  0  0  0  0  0  0
  162.1110  209.2820  149.9920 C   0  0  0  0  0  2  0  0  0  0  0  0
  162.0640  210.7810  149.7590 C   0  0  0  0  0  2  0  0  0  0  0  0
  161.9760  211.0550  148.3010 C   0  0  0  0  0  3  0  0  0  0  0  0
  162.2620  212.2410  147.8450 C   0  0  0  0  0  0  0  0  0  0  0  0
  162.5460  213.4300  147.3930 C   0  0  0  0  0  3  0  0  0  0  0  0
  161.8030  213.9750  146.3080 N   0  0  0  0  0  2  0  0  0  0  0  0
  161.7760  213.3150  145.0140 C   0  0  2  0  0  3  0  0  0  0  0  0
  163.1030  213.7250  143.0130 N   0  0  0  0  0  1  0  0  0  0  0  0
  163.1700  213.3450  144.4130 C   0  0  0  0  0  2  0  0  0  0  0  0
  160.7980  214.0330  144.0860 C   0  0  0  0  0  2  0  0  0  0  0  0
  159.6980  211.9390  144.3810 O   0  0  0  0  0  1  0  0  0  0  0  0
  159.5450  213.2020  143.8040 C   0  0  0  0  0  0  0  0  0  0  0  0
  158.4230  213.8260  144.3580 O   0  0  0  0  0  1  0  0  0  0  0  0
  160.1390  211.8570  141.7340 C   0  0  0  0  0  1  0  0  0  0  0  0
  159.3640  213.0460  142.2860 C   0  0  0  0  0  3  0  0  0  0  0  0
  159.7880  214.3010  141.5390 C   0  0  0  0  0  1  0  0  0  0  0  0
  1  4  1  0  0  0  0
  2  1  2  0  0  0  0
  2  7  1  0  0  0  0
  4  3  1  0  0  0  0
  4  5  2  0  0  0  0
  6  8  2  0  0  0  0
  6  1  1  0  0  0  0
  7  9  2  0  0  0  0
  8  3  1  0  0  0  0
  9  5  1  0  0  0  0
 10 15  2  0  0  0  0
 10 13  1  0  0  0  0
 11 18  1  0  0  0  0
 12  9  1  6  0  0  0
 12 10  1  0  0  0  0
 14 11  2  0  0  0  0
 14 13  1  0  0  0  0
 16 11  1  0  0  0  0
 16 18  1  0  0  0  0
 17 12  1  0  0  0  0
 17 14  1  0  0  0  0
 19 20  2  0  0  0  0
 20 21  1  0  0  0  0
 21  8  1  0  0  0  0
 22 20  1  0  0  0  0
 23 22  1  0  0  0  0
 24 23  1  0  0  0  0
 25 23  2  0  0  0  0
 26  2  1  0  0  0  0
 27 26  1  0  0  0  0
 28 27  1  0  0  0  0
 29 28  2  0  0  0  0
 30 29  2  0  0  0  0
 31 30  1  0  0  0  0
 32 35  1  6  0  0  0
 32 31  1  0  0  0  0
 33 34  1  0  0  0  0
 34 32  1  0  0  0  0
 37 35  1  0  0  0  0
 37 38  1  0  0  0  0
 37 36  1  0  0  0  0
 39 40  1  0  0  0  0
 40 37  1  0  0  0  0
 41 40  1  0  0  0  0
M  END
>  <MODEL>
5

>  <REMARK>
 VINA RESULT:      -7.2      1.772      2.375
  Name = 
  13 active torsions:
  status: ('A' for Active; 'I' for Inactive)
    1  A    between atoms: C_2  and  C_4
    2  A    between atoms: C_2  and  C_33
    3  A    between atoms: O_8  and  C_13
    4  A    between atoms: O_8  and  C_34
    5  A    between atoms: C_9  and  C_32
    6  A    between atoms: C_11  and  C_33
    7  A    between atoms: C_14  and  C_40
    8  A    between atoms: N_15  and  C_37
    9  A    between atoms: N_19  and  C_32
   10  A    between atoms: N_19  and  C_39
   11  A    between atoms: C_20  and  C_29
   12  A    between atoms: C_20  and  C_32
   13  A    between atoms: C_26  and  C_29
                            x       y       z     vdW  Elec       q    Type
                         _______ _______ _______ _____ _____    ______ ____

>  <TORSDO>
F 13

$$$$
=
 OpenBabel11052412163D

 41 44  0  0  1  0  0  0  0  0999 V2000
  161.8200  209.8100  150.6720 C   0  0  0  0  0  0  0  0  0  0  0  0
  162.0380  208.6110  151.3650 C   0  0  0  0  0  0  0  0  0  0  0  0
  161.2310  212.2240  150.2910 S   0  0  0  0  0  0  0  0  0  0  0  0
  161.4200  210.9480  151.3600 C   0  0  0  0  0  0  0  0  0  0  0  0
  161.2160  210.9500  152.7360 C   0  0  0  0  0  3  0  0  0  0  0  0
  161.9640  210.0060  149.2900 C   0  0  0  0  0  3  0  0  0  0  0  0
  161.8340  208.5920  152.7550 C   0  0  0  0  0  3  0  0  0  0  0  0
  161.6660  211.3170  148.9280 C   0  0  0  0  0  0  0  0  0  0  0  0
  161.4280  209.7560  153.4430 C   0  0  0  0  0  0  0  0  0  0  0  0
  160.0680  208.8400  155.2970 C   0  0  0  0  0  0  0  0  0  0  0  0
  158.2540  211.6610  156.5240 C   0  0  0  0  0  0  0  0  0  0  0  0
  161.2020  209.7400  154.9230 C   0  0  2  0  0  3  0  0  0  0  0  0
  158.9470  209.4570  155.9010 N   0  0  0  0  0  2  0  0  0  0  0  0
  159.1840  210.8440  156.0510 C   0  0  0  0  0  0  0  0  0  0  0  0
  160.0990  207.5980  155.0910 O   0  0  0  0  0  0  0  0  0  0  0  0
  157.7570  213.0440  156.9280 C   0  0  0  0  0  2  0  0  0  0  0  0
  160.7910  211.4250  155.5300 S   0  0  0  0  0  0  0  0  0  0  0  0
  156.8640  211.9420  157.0820 C   0  0  0  0  0  2  0  0  0  0  0  0
  160.9360  212.8510  145.6820 O   0  0  0  0  0  0  0  0  0  0  0  0
  160.7150  212.4990  146.8720 C   0  0  0  0  0  0  0  0  0  0  0  0
  161.7380  211.7910  147.5770 N   0  0  0  0  0  2  0  0  0  0  0  0
  159.4930  212.7940  147.4910 O   0  0  0  0  0  0  0  0  0  0  0  0
  158.2380  212.7100  146.8750 C   0  0  0  0  0  0  0  0  0  0  0  0
  157.0910  213.1890  147.5660 N   0  0  0  0  0  1  0  0  0  0  0  0
  158.1040  212.2130  145.7260 O   0  0  0  0  0  0  0  0  0  0  0  0
  162.4400  207.3590  150.6590 C   0  0  0  0  0  2  0  0  0  0  0  0
  162.0220  206.1480  151.4720 C   0  0  0  0  0  2  0  0  0  0  0  0
  160.8250  205.5220  150.8520 C   0  0  0  0  0  3  0  0  0  0  0  0
  160.8290  204.2500  150.5730 C   0  0  0  0  0  0  0  0  0  0  0  0
  160.8370  202.9780  150.2910 C   0  0  0  0  0  3  0  0  0  0  0  0
  160.1930  202.5050  149.1130 N   0  0  0  0  0  2  0  0  0  0  0  0
  160.9060  202.4350  147.8490 C   0  0  2  0  0  3  0  0  0  0  0  0
  161.1170  200.3780  146.5610 N   0  0  0  0  0  1  0  0  0  0  0  0
  161.5890  201.0830  147.7400 C   0  0  0  0  0  2  0  0  0  0  0  0
  161.9480  203.5480  147.7790 C   0  0  0  0  0  2  0  0  0  0  0  0
  163.1710  204.6780  146.0730 O   0  0  0  0  0  1  0  0  0  0  0  0
  161.8760  204.3320  146.4670 C   0  0  0  0  0  0  0  0  0  0  0  0
  161.2880  203.5450  145.4720 O   0  0  0  0  0  1  0  0  0  0  0  0
  160.4590  206.1360  145.3800 C   0  0  0  0  0  1  0  0  0  0  0  0
  161.0520  205.6130  146.6800 C   0  0  0  0  0  3  0  0  0  0  0  0
  161.8810  206.7130  147.3240 C   0  0  0  0  0  1  0  0  0  0  0  0
  1  4  2  0  0  0  0
  1  2  1  0  0  0  0
  2  7  2  0  0  0  0
  3  4  1  0  0  0  0
  4  5  1  0  0  0  0
  5  9  2  0  0  0  0
  6  1  1  0  0  0  0
  7  9  1  0  0  0  0
  8  6  2  0  0  0  0
  8  3  1  0  0  0  0
 10 13  1  0  0  0  0
 11 16  1  0  0  0  0
 11 18  1  0  0  0  0
 12  9  1  6  0  0  0
 12 10  1  0  0  0  0
 12 17  1  0  0  0  0
 13 14  1  0  0  0  0
 14 11  2  0  0  0  0
 15 10  2  0  0  0  0
 16 18  1  0  0  0  0
 17 14  1  0  0  0  0
 19 20  2  0  0  0  0
 20 22  1  0  0  0  0
 20 21  1  0  0  0  0
 21  8  1  0  0  0  0
 23 22  1  0  0  0  0
 23 24  1  0  0  0  0
 25 23  2  0  0  0  0
 26  2  1  0  0  0  0
 26 27  1  0  0  0  0
 28 27  1  0  0  0  0
 29 28  2  0  0  0  0
 30 29  2  0  0  0  0
 31 30  1  0  0  0  0
 32 34  1  1  0  0  0
 32 31  1  0  0  0  0
 33 34  1  0  0  0  0
 35 32  1  0  0  0  0
 36 37  1  0  0  0  0
 37 40  1  0  0  0  0
 37 35  1  0  0  0  0
 38 37  1  0  0  0  0
 39 40  1  0  0  0  0
 40 41  1  0  0  0  0
M  END
>  <MODEL>
6

>  <REMARK>
 VINA RESULT:      -7.1      2.150      7.513
  Name = 
  13 active torsions:
  status: ('A' for Active; 'I' for Inactive)
    1  A    between atoms: C_2  and  C_4
    2  A    between atoms: C_2  and  C_33
    3  A    between atoms: O_8  and  C_13
    4  A    between atoms: O_8  and  C_34
    5  A    between atoms: C_9  and  C_32
    6  A    between atoms: C_11  and  C_33
    7  A    between atoms: C_14  and  C_40
    8  A    between atoms: N_15  and  C_37
    9  A    between atoms: N_19  and  C_32
   10  A    between atoms: N_19  and  C_39
   11  A    between atoms: C_20  and  C_29
   12  A    between atoms: C_20  and  C_32
   13  A    between atoms: C_26  and  C_29
                            x       y       z     vdW  Elec       q    Type
                         _______ _______ _______ _____ _____    ______ ____

>  <TORSDO>
F 13

$$$$
=
 OpenBabel11052412163D

 41 44  0  0  1  0  0  0  0  0999 V2000
  160.6080  211.6560  151.8580 C   0  0  0  0  0  0  0  0  0  0  0  0
  161.3590  211.3430  150.7160 C   0  0  0  0  0  0  0  0  0  0  0  0
  158.9540  212.8600  153.3180 S   0  0  0  0  0  0  0  0  0  0  0  0
  159.7030  212.7080  151.8270 C   0  0  0  0  0  0  0  0  0  0  0  0
  159.5070  213.4870  150.6910 C   0  0  0  0  0  3  0  0  0  0  0  0
  160.6680  210.9970  153.0940 C   0  0  0  0  0  3  0  0  0  0  0  0
  161.1780  212.1200  149.5590 C   0  0  0  0  0  3  0  0  0  0  0  0
  159.7920  211.5630  154.0160 C   0  0  0  0  0  0  0  0  0  0  0  0
  160.2540  213.1870  149.5410 C   0  0  0  0  0  0  0  0  0  0  0  0
  159.2510  213.3080  147.2820 C   0  0  0  0  0  0  0  0  0  0  0  0
  162.0620  213.3330  145.0790 C   0  0  0  0  0  0  0  0  0  0  0  0
  160.0620  214.0240  148.3140 C   0  0  2  0  0  3  0  0  0  0  0  0
  159.9010  213.0220  146.0580 N   0  0  0  0  0  2  0  0  0  0  0  0
  161.2190  213.5350  146.0810 C   0  0  0  0  0  0  0  0  0  0  0  0
  158.0530  212.9740  147.4810 O   0  0  0  0  0  0  0  0  0  0  0  0
  163.4240  213.4910  144.4130 C   0  0  0  0  0  2  0  0  0  0  0  0
  161.6840  214.4340  147.5540 S   0  0  0  0  0  0  0  0  0  0  0  0
  162.4170  212.7640  143.7100 C   0  0  0  0  0  2  0  0  0  0  0  0
  160.0340  209.6200  157.1130 O   0  0  0  0  0  0  0  0  0  0  0  0
  160.2590  209.9090  155.9070 C   0  0  0  0  0  0  0  0  0  0  0  0
  159.6480  211.0800  155.3580 N   0  0  0  0  0  2  0  0  0  0  0  0
  161.0920  209.1020  155.1200 O   0  0  0  0  0  0  0  0  0  0  0  0
  160.7870  207.8010  154.7020 C   0  0  0  0  0  0  0  0  0  0  0  0
  159.9820  206.9740  155.5330 N   0  0  0  0  0  1  0  0  0  0  0  0
  161.2160  207.3460  153.6080 O   0  0  0  0  0  0  0  0  0  0  0  0
  162.3630  210.2380  150.7160 C   0  0  0  0  0  2  0  0  0  0  0  0
  161.9730  209.1840  149.6950 C   0  0  0  0  0  2  0  0  0  0  0  0
  161.2020  208.1050  150.3640 C   0  0  0  0  0  3  0  0  0  0  0  0
  161.7530  206.9420  150.5660 C   0  0  0  0  0  0  0  0  0  0  0  0
  162.3060  205.7790  150.7650 C   0  0  0  0  0  3  0  0  0  0  0  0
  161.5320  204.5910  150.6400 N   0  0  0  0  0  2  0  0  0  0  0  0
  160.8930  204.2430  149.3830 C   0  0  2  0  0  3  0  0  0  0  0  0
  161.1480  202.0300  148.3980 N   0  0  0  0  0  1  0  0  0  0  0  0
  160.4640  202.7880  149.4310 C   0  0  0  0  0  2  0  0  0  0  0  0
  161.8710  204.4550  148.2290 C   0  0  0  0  0  2  0  0  0  0  0  0
  160.1810  206.0550  147.7070 O   0  0  0  0  0  1  0  0  0  0  0  0
  161.3840  205.5170  147.2410 C   0  0  0  0  0  0  0  0  0  0  0  0
  162.3320  206.5400  147.1340 O   0  0  0  0  0  1  0  0  0  0  0  0
  162.4410  204.3400  145.2560 C   0  0  0  0  0  1  0  0  0  0  0  0
  161.1510  204.8700  145.8660 C   0  0  0  0  0  3  0  0  0  0  0  0
  160.5050  205.8420  144.8910 C   0  0  0  0  0  1  0  0  0  0  0  0
  1  6  1  0  0  0  0
  2 26  1  0  0  0  0
  2  1  2  0  0  0  0
  3  8  1  0  0  0  0
  4  1  1  0  0  0  0
  4  3  1  0  0  0  0
  5  4  2  0  0  0  0
  6  8  2  0  0  0  0
  7  2  1  0  0  0  0
  8 21  1  0  0  0  0
  9  7  2  0  0  0  0
  9  5  1  0  0  0  0
 10 15  2  0  0  0  0
 10 12  1  0  0  0  0
 11 14  2  0  0  0  0
 12  9  1  1  0  0  0
 13 14  1  0  0  0  0
 13 10  1  0  0  0  0
 14 17  1  0  0  0  0
 16 11  1  0  0  0  0
 17 12  1  0  0  0  0
 18 16  1  0  0  0  0
 18 11  1  0  0  0  0
 20 19  2  0  0  0  0
 21 20  1  0  0  0  0
 22 20  1  0  0  0  0
 23 22  1  0  0  0  0
 23 24  1  0  0  0  0
 25 23  2  0  0  0  0
 27 28  1  0  0  0  0
 27 26  1  0  0  0  0
 28 29  2  0  0  0  0
 29 30  2  0  0  0  0
 31 30  1  0  0  0  0
 32 35  1  6  0  0  0
 32 34  1  0  0  0  0
 32 31  1  0  0  0  0
 33 34  1  0  0  0  0
 37 36  1  0  0  0  0
 37 35  1  0  0  0  0
 38 37  1  0  0  0  0
 39 40  1  0  0  0  0
 40 37  1  0  0  0  0
 41 40  1  0  0  0  0
M  END
>  <MODEL>
7

>  <REMARK>
 VINA RESULT:      -6.9      2.582      8.877
  Name = 
  13 active torsions:
  status: ('A' for Active; 'I' for Inactive)
    1  A    between atoms: C_2  and  C_4
    2  A    between atoms: C_2  and  C_33
    3  A    between atoms: O_8  and  C_13
    4  A    between atoms: O_8  and  C_34
    5  A    between atoms: C_9  and  C_32
    6  A    between atoms: C_11  and  C_33
    7  A    between atoms: C_14  and  C_40
    8  A    between atoms: N_15  and  C_37
    9  A    between atoms: N_19  and  C_32
   10  A    between atoms: N_19  and  C_39
   11  A    between atoms: C_20  and  C_29
   12  A    between atoms: C_20  and  C_32
   13  A    between atoms: C_26  and  C_29
                            x       y       z     vdW  Elec       q    Type
                         _______ _______ _______ _____ _____    ______ ____

>  <TORSDO>
F 13

$$$$
=
 OpenBabel11052412163D

 41 44  0  0  1  0  0  0  0  0999 V2000
  160.3820  212.3530  150.7300 C   0  0  0  0  0  0  0  0  0  0  0  0
  161.1270  211.9420  149.6150 C   0  0  0  0  0  0  0  0  0  0  0  0
  158.6100  213.5460  152.0550 S   0  0  0  0  0  0  0  0  0  0  0  0
  159.3120  213.2220  150.5680 C   0  0  0  0  0  0  0  0  0  0  0  0
  158.9410  213.7200  149.3230 C   0  0  0  0  0  3  0  0  0  0  0  0
  160.6030  211.9690  152.0610 C   0  0  0  0  0  3  0  0  0  0  0  0
  160.7700  212.4360  148.3490 C   0  0  0  0  0  3  0  0  0  0  0  0
  159.6830  212.5620  152.9210 C   0  0  0  0  0  0  0  0  0  0  0  0
  159.6790  213.3200  148.1990 C   0  0  0  0  0  0  0  0  0  0  0  0
  158.4780  212.8730  146.0810 C   0  0  0  0  0  0  0  0  0  0  0  0
  161.0710  212.6540  143.6360 C   0  0  0  0  0  0  0  0  0  0  0  0
  159.2980  213.8560  146.8530 C   0  0  2  0  0  3  0  0  0  0  0  0
  159.0450  212.3860  144.8800 N   0  0  0  0  0  2  0  0  0  0  0  0
  160.3020  212.9960  144.6590 C   0  0  0  0  0  0  0  0  0  0  0  0
  157.3420  212.4940  146.4700 O   0  0  0  0  0  0  0  0  0  0  0  0
  162.3470  212.7760  142.8110 C   0  0  0  0  0  2  0  0  0  0  0  0
  160.7980  214.2250  145.8580 S   0  0  0  0  0  0  0  0  0  0  0  0
  161.3630  211.8360  142.3830 C   0  0  0  0  0  2  0  0  0  0  0  0
  158.8240  211.5190  156.3270 O   0  0  0  0  0  0  0  0  0  0  0  0
  158.6790  211.6330  155.0800 C   0  0  0  0  0  0  0  0  0  0  0  0
  159.6780  212.3370  154.3370 N   0  0  0  0  0  2  0  0  0  0  0  0
  157.5630  211.0830  154.4340 O   0  0  0  0  0  0  0  0  0  0  0  0
  156.2430  211.5170  154.6030 C   0  0  0  0  0  0  0  0  0  0  0  0
  156.0000  212.8050  155.1530 N   0  0  0  0  0  1  0  0  0  0  0  0
  155.2670  210.7880  154.2830 O   0  0  0  0  0  0  0  0  0  0  0  0
  162.3020  211.0310  149.7500 C   0  0  0  0  0  2  0  0  0  0  0  0
  161.9500  209.8620  150.6510 C   0  0  0  0  0  2  0  0  0  0  0  0
  161.6830  208.6580  149.8230 C   0  0  0  0  0  3  0  0  0  0  0  0
  161.3720  207.5300  150.3980 C   0  0  0  0  0  0  0  0  0  0  0  0
  161.0650  206.4040  150.9750 C   0  0  0  0  0  3  0  0  0  0  0  0
  161.5430  205.1750  150.4390 N   0  0  0  0  0  2  0  0  0  0  0  0
  160.8440  204.5100  149.3530 C   0  0  2  0  0  3  0  0  0  0  0  0
  160.8870  202.1220  148.8780 N   0  0  0  0  0  1  0  0  0  0  0  0
  160.4150  203.1280  149.8120 C   0  0  0  0  0  2  0  0  0  0  0  0
  161.7640  204.3890  148.1410 C   0  0  0  0  0  2  0  0  0  0  0  0
  160.4010  206.2050  147.4130 O   0  0  0  0  0  1  0  0  0  0  0  0
  161.6270  205.5760  147.1840 C   0  0  0  0  0  0  0  0  0  0  0  0
  162.6610  206.4910  147.4090 O   0  0  0  0  0  1  0  0  0  0  0  0
  160.5940  205.7080  144.8690 C   0  0  0  0  0  1  0  0  0  0  0  0
  161.6760  205.0730  145.7330 C   0  0  0  0  0  3  0  0  0  0  0  0
  161.5430  203.5600  145.6580 C   0  0  0  0  0  1  0  0  0  0  0  0
  1  6  1  0  0  0  0
  2 26  1  0  0  0  0
  2  1  2  0  0  0  0
  3  8  1  0  0  0  0
  4  1  1  0  0  0  0
  4  3  1  0  0  0  0
  5  4  2  0  0  0  0
  6  8  2  0  0  0  0
  7  2  1  0  0  0  0
  8 21  1  0  0  0  0
  9  7  2  0  0  0  0
  9  5  1  0  0  0  0
 10 15  2  0  0  0  0
 10 12  1  0  0  0  0
 11 14  2  0  0  0  0
 12  9  1  1  0  0  0
 13 10  1  0  0  0  0
 14 13  1  0  0  0  0
 14 17  1  0  0  0  0
 16 11  1  0  0  0  0
 17 12  1  0  0  0  0
 18 16  1  0  0  0  0
 18 11  1  0  0  0  0
 20 19  2  0  0  0  0
 21 20  1  0  0  0  0
 22 23  1  0  0  0  0
 22 20  1  0  0  0  0
 23 24  1  0  0  0  0
 25 23  2  0  0  0  0
 26 27  1  0  0  0  0
 28 29  2  0  0  0  0
 28 27  1  0  0  0  0
 29 30  2  0  0  0  0
 31 30  1  0  0  0  0
 32 35  1  6  0  0  0
 32 34  1  0  0  0  0
 32 31  1  0  0  0  0
 33 34  1  0  0  0  0
 37 38  1  0  0  0  0
 37 36  1  0  0  0  0
 37 35  1  0  0  0  0
 39 40  1  0  0  0  0
 40 37  1  0  0  0  0
 41 40  1  0  0  0  0
M  END
>  <MODEL>
8

>  <REMARK>
 VINA RESULT:      -6.8      3.079      9.660
  Name = 
  13 active torsions:
  status: ('A' for Active; 'I' for Inactive)
    1  A    between atoms: C_2  and  C_4
    2  A    between atoms: C_2  and  C_33
    3  A    between atoms: O_8  and  C_13
    4  A    between atoms: O_8  and  C_34
    5  A    between atoms: C_9  and  C_32
    6  A    between atoms: C_11  and  C_33
    7  A    between atoms: C_14  and  C_40
    8  A    between atoms: N_15  and  C_37
    9  A    between atoms: N_19  and  C_32
   10  A    between atoms: N_19  and  C_39
   11  A    between atoms: C_20  and  C_29
   12  A    between atoms: C_20  and  C_32
   13  A    between atoms: C_26  and  C_29
                            x       y       z     vdW  Elec       q    Type
                         _______ _______ _______ _____ _____    ______ ____

>  <TORSDO>
F 13

$$$$
=
 OpenBabel11052412163D

 41 44  0  0  1  0  0  0  0  0999 V2000
  161.7670  207.1830  150.5720 C   0  0  0  0  0  0  0  0  0  0  0  0
  162.1340  208.0780  149.5570 C   0  0  0  0  0  0  0  0  0  0  0  0
  161.1340  205.0090  151.6640 S   0  0  0  0  0  0  0  0  0  0  0  0
  161.5650  205.8420  150.2750 C   0  0  0  0  0  0  0  0  0  0  0  0
  161.7070  205.3360  148.9870 C   0  0  0  0  0  3  0  0  0  0  0  0
  161.5680  207.5000  151.9230 C   0  0  0  0  0  3  0  0  0  0  0  0
  162.2800  207.5880  148.2490 C   0  0  0  0  0  3  0  0  0  0  0  0
  161.2070  206.3760  152.6620 C   0  0  0  0  0  0  0  0  0  0  0  0
  162.0720  206.2220  147.9610 C   0  0  0  0  0  0  0  0  0  0  0  0
  160.9510  205.8430  145.7860 C   0  0  0  0  0  0  0  0  0  0  0  0
  160.7040  202.2890  145.5400 C   0  0  0  0  0  0  0  0  0  0  0  0
  162.2180  205.6940  146.5660 C   0  0  2  0  0  3  0  0  0  0  0  0
  160.3310  204.6460  145.3580 N   0  0  0  0  0  2  0  0  0  0  0  0
  161.1080  203.5320  145.7560 C   0  0  0  0  0  0  0  0  0  0  0  0
  160.4560  206.9690  145.5180 O   0  0  0  0  0  0  0  0  0  0  0  0
  160.8850  200.7780  145.6360 C   0  0  0  0  0  2  0  0  0  0  0  0
  162.6400  203.9060  146.5950 S   0  0  0  0  0  0  0  0  0  0  0  0
  159.7040  201.2710  145.0050 C   0  0  0  0  0  2  0  0  0  0  0  0
  160.2690  207.4050  156.0510 O   0  0  0  0  0  0  0  0  0  0  0  0
  160.4450  207.5330  154.8090 C   0  0  0  0  0  0  0  0  0  0  0  0
  160.9490  206.4160  154.0710 N   0  0  0  0  0  2  0  0  0  0  0  0
  160.1530  208.7430  154.1640 O   0  0  0  0  0  0  0  0  0  0  0  0
  160.6130  210.0010  154.5710 C   0  0  0  0  0  0  0  0  0  0  0  0
  161.9660  210.3610  154.3180 N   0  0  0  0  0  1  0  0  0  0  0  0
  159.8570  210.8170  155.1620 O   0  0  0  0  0  0  0  0  0  0  0  0
  162.3330  209.5320  149.8290 C   0  0  0  0  0  2  0  0  0  0  0  0
  161.5400  210.3590  148.8330 C   0  0  0  0  0  2  0  0  0  0  0  0
  162.4080  211.4210  148.2630 C   0  0  0  0  0  3  0  0  0  0  0  0
  161.8720  212.4620  147.6930 C   0  0  0  0  0  0  0  0  0  0  0  0
  161.3330  213.5020  147.1220 C   0  0  0  0  0  3  0  0  0  0  0  0
  161.9420  214.0780  145.9710 N   0  0  0  0  0  2  0  0  0  0  0  0
  161.3050  213.9970  144.6680 C   0  0  2  0  0  3  0  0  0  0  0  0
  159.6350  212.2260  144.5610 N   0  0  0  0  0  1  0  0  0  0  0  0
  159.8420  213.6330  144.8550 C   0  0  0  0  0  2  0  0  0  0  0  0
  161.9960  212.9340  143.8180 C   0  0  0  0  0  2  0  0  0  0  0  0
  161.2170  214.2490  141.9880 O   0  0  0  0  0  1  0  0  0  0  0  0
  162.2630  213.4140  142.3890 C   0  0  0  0  0  0  0  0  0  0  0  0
  163.4640  214.1290  142.3430 O   0  0  0  0  0  1  0  0  0  0  0  0
  162.8020  212.5890  140.0500 C   0  0  0  0  0  1  0  0  0  0  0  0
  162.3350  212.2020  141.4460 C   0  0  0  0  0  3  0  0  0  0  0  0
  160.9930  211.4930  141.3400 C   0  0  0  0  0  1  0  0  0  0  0  0
  1  6  1  0  0  0  0
  2 26  1  0  0  0  0
  2  1  2  0  0  0  0
  3  8  1  0  0  0  0
  4  1  1  0  0  0  0
  4  3  1  0  0  0  0
  5  4  2  0  0  0  0
  6  8  2  0  0  0  0
  7  2  1  0  0  0  0
  8 21  1  0  0  0  0
  9  7  2  0  0  0  0
  9  5  1  0  0  0  0
 10 12  1  0  0  0  0
 11 16  1  0  0  0  0
 11 14  2  0  0  0  0
 12 17  1  0  0  0  0
 12  9  1  1  0  0  0
 13 14  1  0  0  0  0
 13 10  1  0  0  0  0
 14 17  1  0  0  0  0
 15 10  2  0  0  0  0
 18 11  1  0  0  0  0
 18 16  1  0  0  0  0
 20 19  2  0  0  0  0
 21 20  1  0  0  0  0
 22 23  1  0  0  0  0
 22 20  1  0  0  0  0
 23 25  2  0  0  0  0
 24 23  1  0  0  0  0
 27 26  1  0  0  0  0
 28 27  1  0  0  0  0
 29 28  2  0  0  0  0
 30 29  2  0  0  0  0
 31 30  1  0  0  0  0
 32 35  1  6  0  0  0
 32 34  1  0  0  0  0
 32 31  1  0  0  0  0
 33 34  1  0  0  0  0
 36 37  1  0  0  0  0
 37 35  1  0  0  0  0
 38 37  1  0  0  0  0
 39 40  1  0  0  0  0
 40 37  1  0  0  0  0
 41 40  1  0  0  0  0
M  END
>  <MODEL>
9

>  <REMARK>
 VINA RESULT:      -6.8      2.708      7.496
  Name = 
  13 active torsions:
  status: ('A' for Active; 'I' for Inactive)
    1  A    between atoms: C_2  and  C_4
    2  A    between atoms: C_2  and  C_33
    3  A    between atoms: O_8  and  C_13
    4  A    between atoms: O_8  and  C_34
    5  A    between atoms: C_9  and  C_32
    6  A    between atoms: C_11  and  C_33
    7  A    between atoms: C_14  and  C_40
    8  A    between atoms: N_15  and  C_37
    9  A    between atoms: N_19  and  C_32
   10  A    between atoms: N_19  and  C_39
   11  A    between atoms: C_20  and  C_29
   12  A    between atoms: C_20  and  C_32
   13  A    between atoms: C_26  and  C_29
                            x       y       z     vdW  Elec       q    Type
                         _______ _______ _______ _____ _____    ______ ____

>  <TORSDO>
F 13

$$$$
