=
 OpenBabel11052410513D

 28 29  0  0  1  0  0  0  0  0999 V2000
  161.3680  205.4820  151.2650 C   0  0  2  0  0  3  0  0  0  0  0  0
  161.3360  205.0640  152.7280 C   0  0  0  0  0  1  0  0  0  0  0  0
  160.9360  206.8270  151.0600 O   0  0  0  0  0  0  0  0  0  0  0  0
  161.3780  207.9400  151.7860 C   0  0  0  0  0  0  0  0  0  0  0  0
  162.4440  208.5140  151.4370 O   0  0  0  0  0  0  0  0  0  0  0  0
  160.6580  208.4120  152.9270 N   0  0  0  0  0  2  0  0  0  0  0  0
  159.7680  210.3180  155.5950 N   0  0  0  0  0  2  0  0  0  0  0  0
  160.6970  209.2420  155.2410 C   0  0  1  0  0  3  0  0  0  0  0  0
  159.6650  211.1700  154.4760 C   0  0  0  0  0  0  0  0  0  0  0  0
  158.8990  212.3280  154.3810 C   0  0  0  0  0  3  0  0  0  0  0  0
  159.7540  212.5770  152.1170 C   0  0  0  0  0  3  0  0  0  0  0  0
  158.9450  213.0430  153.1720 C   0  0  0  0  0  3  0  0  0  0  0  0
  160.4880  211.4340  152.2650 N   0  0  0  0  0  0  0  0  0  0  0  0
  161.1440  209.4910  153.7770 C   0  0  2  0  0  3  0  0  0  0  0  0
  161.9020  209.2850  156.1600 C   0  0  0  0  0  1  0  0  0  0  0  0
  160.4320  210.7470  153.4350 C   0  0  0  0  0  0  0  0  0  0  0  0
  160.7130  204.4920  150.2870 C   0  0  1  0  0  3  0  0  0  0  0  0
  160.4760  206.0420  147.8830 O   0  0  0  0  0  0  0  0  0  0  0  0
  162.2290  204.9470  146.8000 N   0  0  0  0  0  2  0  0  0  0  0  0
  161.3600  205.1420  147.9160 C   0  0  0  0  0  0  0  0  0  0  0  0
  161.5030  204.3100  149.0670 N   0  0  0  0  0  2  0  0  0  0  0  0
  162.1790  205.7990  145.6230 C   0  0  0  0  0  2  0  0  0  0  0  0
  160.7880  203.9070  144.7590 O   0  0  0  0  0  1  0  0  0  0  0  0
  161.4090  205.6250  143.3780 O   0  0  0  0  0  0  0  0  0  0  0  0
  161.4170  205.1280  144.5310 C   0  0  0  0  0  0  0  0  0  0  0  0
  160.3050  203.2680  150.8690 O   0  0  0  0  0  0  0  0  0  0  0  0
  159.8230  201.4480  149.4070 C   0  0  0  0  0  1  0  0  0  0  0  0
  160.8910  202.1950  150.1780 C   0  0  0  0  0  2  0  0  0  0  0  0
  1  2  1  1  0  0  0
  3  1  1  0  0  0  0
  3  4  1  0  0  0  0
  4  6  1  0  0  0  0
  5  4  2  0  0  0  0
  8  7  1  0  0  0  0
  8 15  1  1  0  0  0
  9  7  1  0  0  0  0
 10  9  1  0  0  0  0
 11 13  2  0  0  0  0
 11 12  1  0  0  0  0
 12 10  2  0  0  0  0
 13 16  1  0  0  0  0
 14  6  1  6  0  0  0
 14  8  1  0  0  0  0
 16 14  1  0  0  0  0
 16  9  2  0  0  0  0
 17 21  1  6  0  0  0
 17 26  1  0  0  0  0
 17  1  1  0  0  0  0
 18 20  2  0  0  0  0
 19 20  1  0  0  0  0
 20 21  1  0  0  0  0
 22 19  1  0  0  0  0
 24 25  2  0  0  0  0
 25 23  1  0  0  0  0
 25 22  1  0  0  0  0
 27 28  1  0  0  0  0
 28 26  1  0  0  0  0
M  END
>  <MODEL>
1

>  <REMARK>
 VINA RESULT:      -7.0      0.000      0.000
  Name = 
  9 active torsions:
  status: ('A' for Active; 'I' for Inactive)
    1  A    between atoms: C_1  and  O_6
    2  A    between atoms: C_1  and  C_12
    3  A    between atoms: C_2  and  O_6
    4  A    between atoms: N_7  and  C_28
    5  A    between atoms: N_8  and  C_22
    6  A    between atoms: C_12  and  N_19
    7  A    between atoms: C_12  and  O_24
    8  A    between atoms: C_14  and  C_28
    9  A    between atoms: C_23  and  O_24
                            x       y       z     vdW  Elec       q    Type
                         _______ _______ _______ _____ _____    ______ ____

>  <TORSDO>
F 9

$$$$
=
 OpenBabel11052410513D

 28 29  0  0  1  0  0  0  0  0999 V2000
  161.2950  207.1960  150.1310 C   0  0  2  0  0  3  0  0  0  0  0  0
  161.2810  207.7450  148.7120 C   0  0  0  0  0  1  0  0  0  0  0  0
  162.3000  207.7950  150.9500 O   0  0  0  0  0  0  0  0  0  0  0  0
  162.1600  208.9950  151.6580 C   0  0  0  0  0  0  0  0  0  0  0  0
  162.5310  210.0700  151.1190 O   0  0  0  0  0  0  0  0  0  0  0  0
  161.6320  209.0110  152.9870 N   0  0  0  0  0  2  0  0  0  0  0  0
  160.3880  210.2080  155.9140 N   0  0  0  0  0  2  0  0  0  0  0  0
  161.6670  209.8410  155.3010 C   0  0  1  0  0  3  0  0  0  0  0  0
  159.5890  210.7830  154.9050 C   0  0  0  0  0  0  0  0  0  0  0  0
  158.2980  211.2840  155.0520 C   0  0  0  0  0  3  0  0  0  0  0  0
  158.3660  211.8520  152.6880 C   0  0  0  0  0  3  0  0  0  0  0  0
  157.6760  211.8270  153.9150 C   0  0  0  0  0  3  0  0  0  0  0  0
  159.6340  211.3480  152.6000 N   0  0  0  0  0  0  0  0  0  0  0  0
  161.5780  210.2190  153.7990 C   0  0  2  0  0  3  0  0  0  0  0  0
  162.7910  210.6180  155.9600 C   0  0  0  0  0  1  0  0  0  0  0  0
  160.2240  210.8190  153.7020 C   0  0  0  0  0  0  0  0  0  0  0  0
  161.2760  205.6620  150.2410 C   0  0  1  0  0  3  0  0  0  0  0  0
  160.4510  203.0290  149.4520 O   0  0  0  0  0  0  0  0  0  0  0  0
  161.4060  203.1800  147.3280 N   0  0  0  0  0  2  0  0  0  0  0  0
  161.1180  203.7070  148.6230 C   0  0  0  0  0  0  0  0  0  0  0  0
  161.5930  205.0090  148.9690 N   0  0  0  0  0  2  0  0  0  0  0  0
  160.9000  201.8890  146.8890 C   0  0  0  0  0  2  0  0  0  0  0  0
  160.4950  203.1690  144.7780 O   0  0  0  0  0  0  0  0  0  0  0  0
  160.0750  200.9200  144.8790 O   0  0  0  0  0  1  0  0  0  0  0  0
  160.4950  201.9540  145.4550 C   0  0  0  0  0  0  0  0  0  0  0  0
  162.0120  205.1380  151.3300 O   0  0  0  0  0  0  0  0  0  0  0  0
  161.2770  205.6410  153.5420 C   0  0  0  0  0  1  0  0  0  0  0  0
  161.1300  204.7260  152.3440 C   0  0  0  0  0  2  0  0  0  0  0  0
  1  2  1  6  0  0  0
  1 17  1  0  0  0  0
  1  3  1  0  0  0  0
  3  4  1  0  0  0  0
  4  6  1  0  0  0  0
  5  4  2  0  0  0  0
  8  7  1  0  0  0  0
  8 15  1  1  0  0  0
  9 10  1  0  0  0  0
  9  7  1  0  0  0  0
 11 12  1  0  0  0  0
 12 10  2  0  0  0  0
 13 11  2  0  0  0  0
 13 16  1  0  0  0  0
 14  6  1  6  0  0  0
 14  8  1  0  0  0  0
 16 14  1  0  0  0  0
 16  9  2  0  0  0  0
 17 21  1  6  0  0  0
 17 26  1  0  0  0  0
 19 20  1  0  0  0  0
 20 21  1  0  0  0  0
 20 18  2  0  0  0  0
 22 19  1  0  0  0  0
 23 25  2  0  0  0  0
 24 25  1  0  0  0  0
 25 22  1  0  0  0  0
 26 28  1  0  0  0  0
 28 27  1  0  0  0  0
M  END
>  <MODEL>
2

>  <REMARK>
 VINA RESULT:      -6.9      1.790      2.555
  Name = 
  9 active torsions:
  status: ('A' for Active; 'I' for Inactive)
    1  A    between atoms: C_1  and  O_6
    2  A    between atoms: C_1  and  C_12
    3  A    between atoms: C_2  and  O_6
    4  A    between atoms: N_7  and  C_28
    5  A    between atoms: N_8  and  C_22
    6  A    between atoms: C_12  and  N_19
    7  A    between atoms: C_12  and  O_24
    8  A    between atoms: C_14  and  C_28
    9  A    between atoms: C_23  and  O_24
                            x       y       z     vdW  Elec       q    Type
                         _______ _______ _______ _____ _____    ______ ____

>  <TORSDO>
F 9

$$$$
=
 OpenBabel11052410513D

 28 29  0  0  1  0  0  0  0  0999 V2000
  161.5160  205.6710  151.2060 C   0  0  2  0  0  3  0  0  0  0  0  0
  161.4370  204.3110  151.8850 C   0  0  0  0  0  1  0  0  0  0  0  0
  160.8020  206.6880  151.9090 O   0  0  0  0  0  0  0  0  0  0  0  0
  161.3260  207.9280  152.2930 C   0  0  0  0  0  0  0  0  0  0  0  0
  162.2630  208.4320  151.6180 O   0  0  0  0  0  0  0  0  0  0  0  0
  160.8370  208.6100  153.4500 N   0  0  0  0  0  2  0  0  0  0  0  0
  160.3430  211.0820  155.7290 N   0  0  0  0  0  2  0  0  0  0  0  0
  161.2230  209.9370  155.4840 C   0  0  1  0  0  3  0  0  0  0  0  0
  160.0530  211.6640  154.4770 C   0  0  0  0  0  0  0  0  0  0  0  0
  159.2620  212.7860  154.2460 C   0  0  0  0  0  3  0  0  0  0  0  0
  159.7490  212.5060  151.8790 C   0  0  0  0  0  3  0  0  0  0  0  0
  159.1070  213.2110  152.9160 C   0  0  0  0  0  3  0  0  0  0  0  0
  160.5160  211.4110  152.1630 N   0  0  0  0  0  0  0  0  0  0  0  0
  161.4320  209.8430  153.9500 C   0  0  2  0  0  3  0  0  0  0  0  0
  162.5560  210.1610  156.1710 C   0  0  0  0  0  1  0  0  0  0  0  0
  160.6550  211.0040  153.4510 C   0  0  0  0  0  0  0  0  0  0  0  0
  161.2140  205.6680  149.6970 C   0  0  1  0  0  3  0  0  0  0  0  0
  162.1930  204.0350  147.5500 O   0  0  0  0  0  0  0  0  0  0  0  0
  160.6060  202.3540  147.8770 N   0  0  0  0  0  2  0  0  0  0  0  0
  161.1920  203.6180  148.1950 C   0  0  0  0  0  0  0  0  0  0  0  0
  160.6310  204.4020  149.2480 N   0  0  0  0  0  2  0  0  0  0  0  0
  161.1650  201.4780  146.8590 C   0  0  0  0  0  2  0  0  0  0  0  0
  160.7080  203.0670  144.9810 O   0  0  0  0  0  1  0  0  0  0  0  0
  159.8840  200.9310  144.9300 O   0  0  0  0  0  0  0  0  0  0  0  0
  160.5740  201.7940  145.5260 C   0  0  0  0  0  0  0  0  0  0  0  0
  160.5000  206.8000  149.2350 O   0  0  0  0  0  0  0  0  0  0  0  0
  162.6200  207.4020  148.3250 C   0  0  0  0  0  1  0  0  0  0  0  0
  161.1260  207.3190  148.0900 C   0  0  0  0  0  2  0  0  0  0  0  0
  1  2  1  1  0  0  0
  1  3  1  0  0  0  0
  3  4  1  0  0  0  0
  4  6  1  0  0  0  0
  5  4  2  0  0  0  0
  8  7  1  0  0  0  0
  8 15  1  1  0  0  0
  9  7  1  0  0  0  0
 10  9  1  0  0  0  0
 11 13  2  0  0  0  0
 11 12  1  0  0  0  0
 12 10  2  0  0  0  0
 13 16  1  0  0  0  0
 14  6  1  6  0  0  0
 14  8  1  0  0  0  0
 16 14  1  0  0  0  0
 16  9  2  0  0  0  0
 17 26  1  1  0  0  0
 17  1  1  0  0  0  0
 18 20  2  0  0  0  0
 19 20  1  0  0  0  0
 20 21  1  0  0  0  0
 21 17  1  0  0  0  0
 22 19  1  0  0  0  0
 23 25  1  0  0  0  0
 24 25  2  0  0  0  0
 25 22  1  0  0  0  0
 28 27  1  0  0  0  0
 28 26  1  0  0  0  0
M  END
>  <MODEL>
3

>  <REMARK>
 VINA RESULT:      -6.9      1.725      2.548
  Name = 
  9 active torsions:
  status: ('A' for Active; 'I' for Inactive)
    1  A    between atoms: C_1  and  O_6
    2  A    between atoms: C_1  and  C_12
    3  A    between atoms: C_2  and  O_6
    4  A    between atoms: N_7  and  C_28
    5  A    between atoms: N_8  and  C_22
    6  A    between atoms: C_12  and  N_19
    7  A    between atoms: C_12  and  O_24
    8  A    between atoms: C_14  and  C_28
    9  A    between atoms: C_23  and  O_24
                            x       y       z     vdW  Elec       q    Type
                         _______ _______ _______ _____ _____    ______ ____

>  <TORSDO>
F 9

$$$$
=
 OpenBabel11052410513D

 28 29  0  0  1  0  0  0  0  0999 V2000
  162.2510  208.5400  151.5600 C   0  0  2  0  0  3  0  0  0  0  0  0
  161.8630  209.2110  150.2500 C   0  0  0  0  0  1  0  0  0  0  0  0
  162.4540  207.1330  151.4280 O   0  0  0  0  0  0  0  0  0  0  0  0
  161.5690  206.2420  150.8080 C   0  0  0  0  0  0  0  0  0  0  0  0
  160.7430  205.6080  151.5170 O   0  0  0  0  0  0  0  0  0  0  0  0
  161.6120  206.0210  149.3970 N   0  0  0  0  0  2  0  0  0  0  0  0
  161.8390  203.1500  147.5940 N   0  0  0  0  0  2  0  0  0  0  0  0
  161.4240  203.6170  148.9190 C   0  0  1  0  0  3  0  0  0  0  0  0
  161.4760  204.1470  146.6650 C   0  0  0  0  0  0  0  0  0  0  0  0
  161.6720  204.1100  145.2870 C   0  0  0  0  0  3  0  0  0  0  0  0
  160.6010  206.2920  145.1860 C   0  0  0  0  0  3  0  0  0  0  0  0
  161.2250  205.2090  144.5350 C   0  0  0  0  0  3  0  0  0  0  0  0
  160.4330  206.2760  146.5420 N   0  0  0  0  0  0  0  0  0  0  0  0
  160.7900  205.0200  148.7300 C   0  0  2  0  0  3  0  0  0  0  0  0
  160.3970  202.6630  149.4980 C   0  0  0  0  0  1  0  0  0  0  0  0
  160.8730  205.2110  147.2600 C   0  0  0  0  0  0  0  0  0  0  0  0
  161.3680  208.9020  152.7670 C   0  0  1  0  0  3  0  0  0  0  0  0
  160.7850  211.5390  153.7370 O   0  0  0  0  0  0  0  0  0  0  0  0
  158.8930  211.8000  152.3940 N   0  0  0  0  0  2  0  0  0  0  0  0
  160.0020  211.0430  152.8810 C   0  0  0  0  0  0  0  0  0  0  0  0
  160.2140  209.7190  152.3880 N   0  0  0  0  0  2  0  0  0  0  0  0
  158.6560  213.1750  152.8060 C   0  0  0  0  0  2  0  0  0  0  0  0
  157.8900  214.2100  154.9510 O   0  0  0  0  0  1  0  0  0  0  0  0
  156.9240  212.2840  154.1730 O   0  0  0  0  0  0  0  0  0  0  0  0
  157.7550  213.2090  153.9930 C   0  0  0  0  0  0  0  0  0  0  0  0
  161.0220  207.8070  153.5960 O   0  0  0  0  0  0  0  0  0  0  0  0
  160.1730  207.2730  155.7590 C   0  0  0  0  0  1  0  0  0  0  0  0
  161.0420  208.2070  154.9430 C   0  0  0  0  0  2  0  0  0  0  0  0
  1  2  1  6  0  0  0
  1 17  1  0  0  0  0
  3  1  1  0  0  0  0
  4  3  1  0  0  0  0
  4  5  2  0  0  0  0
  6  4  1  0  0  0  0
  7  8  1  0  0  0  0
  8 15  1  6  0  0  0
  9 16  1  0  0  0  0
  9  7  1  0  0  0  0
 10  9  2  0  0  0  0
 11 13  1  0  0  0  0
 12 11  2  0  0  0  0
 12 10  1  0  0  0  0
 13 16  2  0  0  0  0
 14  8  1  0  0  0  0
 14  6  1  1  0  0  0
 16 14  1  0  0  0  0
 17 21  1  6  0  0  0
 17 26  1  0  0  0  0
 19 22  1  0  0  0  0
 19 20  1  0  0  0  0
 20 18  2  0  0  0  0
 21 20  1  0  0  0  0
 22 25  1  0  0  0  0
 25 24  2  0  0  0  0
 25 23  1  0  0  0  0
 26 28  1  0  0  0  0
 28 27  1  0  0  0  0
M  END
>  <MODEL>
4

>  <REMARK>
 VINA RESULT:      -6.6      2.612      8.781
  Name = 
  9 active torsions:
  status: ('A' for Active; 'I' for Inactive)
    1  A    between atoms: C_1  and  O_6
    2  A    between atoms: C_1  and  C_12
    3  A    between atoms: C_2  and  O_6
    4  A    between atoms: N_7  and  C_28
    5  A    between atoms: N_8  and  C_22
    6  A    between atoms: C_12  and  N_19
    7  A    between atoms: C_12  and  O_24
    8  A    between atoms: C_14  and  C_28
    9  A    between atoms: C_23  and  O_24
                            x       y       z     vdW  Elec       q    Type
                         _______ _______ _______ _____ _____    ______ ____

>  <TORSDO>
F 9

$$$$
=
 OpenBabel11052410513D

 28 29  0  0  1  0  0  0  0  0999 V2000
  161.3610  207.3780  152.4830 C   0  0  2  0  0  3  0  0  0  0  0  0
  160.8480  207.0540  153.8790 C   0  0  0  0  0  1  0  0  0  0  0  0
  160.7860  208.5660  151.9390 O   0  0  0  0  0  0  0  0  0  0  0  0
  160.8400  209.8360  152.5270 C   0  0  0  0  0  0  0  0  0  0  0  0
  161.9470  210.2710  152.9420 O   0  0  0  0  0  0  0  0  0  0  0  0
  159.6600  210.6250  152.6900 N   0  0  0  0  0  2  0  0  0  0  0  0
  157.9550  212.3470  155.0720 N   0  0  0  0  0  2  0  0  0  0  0  0
  159.2380  211.6680  154.8760 C   0  0  1  0  0  3  0  0  0  0  0  0
  157.6140  212.9630  153.8500 C   0  0  0  0  0  0  0  0  0  0  0  0
  156.4790  213.7270  153.5920 C   0  0  0  0  0  3  0  0  0  0  0  0
  157.3240  214.0200  151.3300 C   0  0  0  0  0  3  0  0  0  0  0  0
  156.3340  214.2630  152.3010 C   0  0  0  0  0  3  0  0  0  0  0  0
  158.4200  213.2640  151.6370 N   0  0  0  0  0  0  0  0  0  0  0  0
  159.6540  211.8980  153.3990 C   0  0  2  0  0  3  0  0  0  0  0  0
  160.2790  212.2670  155.8020 C   0  0  0  0  0  1  0  0  0  0  0  0
  158.5490  212.7450  152.8860 C   0  0  0  0  0  0  0  0  0  0  0  0
  161.3460  206.2030  151.4910 C   0  0  1  0  0  3  0  0  0  0  0  0
  160.4900  205.0960  148.9850 O   0  0  0  0  0  0  0  0  0  0  0  0
  161.8400  206.5070  147.7050 N   0  0  0  0  0  2  0  0  0  0  0  0
  161.3510  206.0180  148.9550 C   0  0  0  0  0  0  0  0  0  0  0  0
  161.8490  206.5830  150.1690 N   0  0  0  0  0  2  0  0  0  0  0  0
  161.3300  206.0200  146.4330 C   0  0  0  0  0  2  0  0  0  0  0  0
  163.4580  204.7840  145.9770 O   0  0  0  0  0  1  0  0  0  0  0  0
  161.4270  203.7830  145.6290 O   0  0  0  0  0  0  0  0  0  0  0  0
  162.0670  204.7910  146.0190 C   0  0  0  0  0  0  0  0  0  0  0  0
  161.9260  205.0070  151.9800 O   0  0  0  0  0  0  0  0  0  0  0  0
  161.3300  202.7470  151.5120 C   0  0  0  0  0  1  0  0  0  0  0  0
  160.9250  204.0430  152.1830 C   0  0  0  0  0  2  0  0  0  0  0  0
  1  2  1  1  0  0  0
  3  1  1  0  0  0  0
  3  4  1  0  0  0  0
  4  6  1  0  0  0  0
  4  5  2  0  0  0  0
  8  7  1  0  0  0  0
  8 15  1  1  0  0  0
  9  7  1  0  0  0  0
 10  9  1  0  0  0  0
 11 13  2  0  0  0  0
 11 12  1  0  0  0  0
 12 10  2  0  0  0  0
 13 16  1  0  0  0  0
 14  6  1  6  0  0  0
 14  8  1  0  0  0  0
 16 14  1  0  0  0  0
 16  9  2  0  0  0  0
 17 21  1  6  0  0  0
 17 26  1  0  0  0  0
 17  1  1  0  0  0  0
 19 20  1  0  0  0  0
 20 18  2  0  0  0  0
 20 21  1  0  0  0  0
 22 19  1  0  0  0  0
 23 25  1  0  0  0  0
 24 25  2  0  0  0  0
 25 22  1  0  0  0  0
 26 28  1  0  0  0  0
 27 28  1  0  0  0  0
M  END
>  <MODEL>
5

>  <REMARK>
 VINA RESULT:      -6.5      1.902      2.530
  Name = 
  9 active torsions:
  status: ('A' for Active; 'I' for Inactive)
    1  A    between atoms: C_1  and  O_6
    2  A    between atoms: C_1  and  C_12
    3  A    between atoms: C_2  and  O_6
    4  A    between atoms: N_7  and  C_28
    5  A    between atoms: N_8  and  C_22
    6  A    between atoms: C_12  and  N_19
    7  A    between atoms: C_12  and  O_24
    8  A    between atoms: C_14  and  C_28
    9  A    between atoms: C_23  and  O_24
                            x       y       z     vdW  Elec       q    Type
                         _______ _______ _______ _____ _____    ______ ____

>  <TORSDO>
F 9

$$$$
=
 OpenBabel11052410513D

 28 29  0  0  1  0  0  0  0  0999 V2000
  161.7300  207.2460  151.7730 C   0  0  2  0  0  3  0  0  0  0  0  0
  161.9410  206.1500  152.8080 C   0  0  0  0  0  1  0  0  0  0  0  0
  160.7140  208.1770  152.1460 O   0  0  0  0  0  0  0  0  0  0  0  0
  160.9200  209.5350  152.4220 C   0  0  0  0  0  0  0  0  0  0  0  0
  162.0940  209.9920  152.3990 O   0  0  0  0  0  0  0  0  0  0  0  0
  159.8280  210.3940  152.7560 N   0  0  0  0  0  2  0  0  0  0  0  0
  158.0900  213.1400  153.7490 N   0  0  0  0  0  2  0  0  0  0  0  0
  159.0050  212.1320  154.2890 C   0  0  1  0  0  3  0  0  0  0  0  0
  158.5000  213.4140  152.4280 C   0  0  0  0  0  0  0  0  0  0  0  0
  157.9170  214.3230  151.5480 C   0  0  0  0  0  3  0  0  0  0  0  0
  159.6150  213.6790  149.9300 C   0  0  0  0  0  3  0  0  0  0  0  0
  158.4890  214.4530  150.2720 C   0  0  0  0  0  3  0  0  0  0  0  0
  160.1480  212.8030  150.8330 N   0  0  0  0  0  0  0  0  0  0  0  0
  160.0130  211.7810  153.1630 C   0  0  2  0  0  3  0  0  0  0  0  0
  159.7470  212.7020  155.4830 C   0  0  0  0  0  1  0  0  0  0  0  0
  159.5850  212.6800  152.0620 C   0  0  0  0  0  0  0  0  0  0  0  0
  161.5840  206.7570  150.3230 C   0  0  1  0  0  3  0  0  0  0  0  0
  161.7340  205.0060  148.0530 O   0  0  0  0  0  0  0  0  0  0  0  0
  160.6680  203.2330  149.1340 N   0  0  0  0  0  2  0  0  0  0  0  0
  161.1710  204.5690  149.0940 C   0  0  0  0  0  0  0  0  0  0  0  0
  161.0270  205.4040  150.2440 N   0  0  0  0  0  2  0  0  0  0  0  0
  160.8360  202.3110  148.0220 C   0  0  0  0  0  2  0  0  0  0  0  0
  161.2030  200.6910  149.8940 O   0  0  0  0  0  1  0  0  0  0  0  0
  161.5750  200.0690  147.7210 O   0  0  0  0  0  0  0  0  0  0  0  0
  161.1970  200.9550  148.5270 C   0  0  0  0  0  0  0  0  0  0  0  0
  160.9420  207.6700  149.4520 O   0  0  0  0  0  0  0  0  0  0  0  0
  161.9590  209.7640  148.9370 C   0  0  0  0  0  1  0  0  0  0  0  0
  161.8950  208.2840  148.6220 C   0  0  0  0  0  2  0  0  0  0  0  0
  1  3  1  0  0  0  0
  1  2  1  1  0  0  0
  3  4  1  0  0  0  0
  4  6  1  0  0  0  0
  5  4  2  0  0  0  0
  7  8  1  0  0  0  0
  8 15  1  1  0  0  0
  9  7  1  0  0  0  0
 10  9  2  0  0  0  0
 11 12  2  0  0  0  0
 11 13  1  0  0  0  0
 12 10  1  0  0  0  0
 13 16  2  0  0  0  0
 14  6  1  6  0  0  0
 14  8  1  0  0  0  0
 16  9  1  0  0  0  0
 16 14  1  0  0  0  0
 17 26  1  6  0  0  0
 17  1  1  0  0  0  0
 18 20  2  0  0  0  0
 20 19  1  0  0  0  0
 20 21  1  0  0  0  0
 21 17  1  0  0  0  0
 22 25  1  0  0  0  0
 22 19  1  0  0  0  0
 24 25  2  0  0  0  0
 25 23  1  0  0  0  0
 28 27  1  0  0  0  0
 28 26  1  0  0  0  0
M  END
>  <MODEL>
6

>  <REMARK>
 VINA RESULT:      -6.5      2.382      3.872
  Name = 
  9 active torsions:
  status: ('A' for Active; 'I' for Inactive)
    1  A    between atoms: C_1  and  O_6
    2  A    between atoms: C_1  and  C_12
    3  A    between atoms: C_2  and  O_6
    4  A    between atoms: N_7  and  C_28
    5  A    between atoms: N_8  and  C_22
    6  A    between atoms: C_12  and  N_19
    7  A    between atoms: C_12  and  O_24
    8  A    between atoms: C_14  and  C_28
    9  A    between atoms: C_23  and  O_24
                            x       y       z     vdW  Elec       q    Type
                         _______ _______ _______ _____ _____    ______ ____

>  <TORSDO>
F 9

$$$$
=
 OpenBabel11052410513D

 28 29  0  0  1  0  0  0  0  0999 V2000
  160.1660  209.9420  153.7700 C   0  0  2  0  0  3  0  0  0  0  0  0
  161.0200  208.9860  154.5920 C   0  0  0  0  0  1  0  0  0  0  0  0
  160.1110  209.5910  152.3870 O   0  0  0  0  0  0  0  0  0  0  0  0
  161.0780  208.8460  151.7010 C   0  0  0  0  0  0  0  0  0  0  0  0
  162.1790  209.3880  151.4150 O   0  0  0  0  0  0  0  0  0  0  0  0
  160.8230  207.4980  151.2980 N   0  0  0  0  0  2  0  0  0  0  0  0
  160.9940  205.6820  148.4310 N   0  0  0  0  0  2  0  0  0  0  0  0
  161.4470  206.9620  148.9810 C   0  0  1  0  0  3  0  0  0  0  0  0
  161.0390  204.7360  149.4760 C   0  0  0  0  0  0  0  0  0  0  0  0
  160.7050  203.3880  149.3910 C   0  0  0  0  0  3  0  0  0  0  0  0
  161.2870  203.2080  151.7470 C   0  0  0  0  0  3  0  0  0  0  0  0
  160.8310  202.6110  150.5550 C   0  0  0  0  0  3  0  0  0  0  0  0
  161.6030  204.5370  151.7730 N   0  0  0  0  0  0  0  0  0  0  0  0
  161.7540  206.7290  150.4830 C   0  0  2  0  0  3  0  0  0  0  0  0
  162.7060  207.4090  148.2630 C   0  0  0  0  0  1  0  0  0  0  0  0
  161.4730  205.2810  150.6450 C   0  0  0  0  0  0  0  0  0  0  0  0
  160.4570  211.4360  153.9930 C   0  0  1  0  0  3  0  0  0  0  0  0
  160.3110  212.7400  151.4400 O   0  0  0  0  0  0  0  0  0  0  0  0
  158.1900  213.6340  151.8250 N   0  0  0  0  0  2  0  0  0  0  0  0
  159.3350  212.8810  152.2270 C   0  0  0  0  0  0  0  0  0  0  0  0
  159.3630  212.2910  153.5280 N   0  0  0  0  0  2  0  0  0  0  0  0
  158.0700  214.2070  150.4940 C   0  0  0  0  0  2  0  0  0  0  0  0
  155.5780  214.0550  150.3200 O   0  0  0  0  0  1  0  0  0  0  0  0
  156.9230  212.9040  148.8660 O   0  0  0  0  0  0  0  0  0  0  0  0
  156.8330  213.7080  149.8270 C   0  0  0  0  0  0  0  0  0  0  0  0
  160.8990  211.7640  155.2970 O   0  0  0  0  0  0  0  0  0  0  0  0
  159.3860  211.4710  157.1150 C   0  0  0  0  0  1  0  0  0  0  0  0
  159.8600  212.3880  156.0070 C   0  0  0  0  0  2  0  0  0  0  0  0
  1 17  1  0  0  0  0
  1  2  1  1  0  0  0
  3  1  1  0  0  0  0
  4  3  1  0  0  0  0
  5  4  2  0  0  0  0
  6  4  1  0  0  0  0
  7  8  1  0  0  0  0
  7  9  1  0  0  0  0
  8 15  1  6  0  0  0
  8 14  1  0  0  0  0
  9 16  1  0  0  0  0
 10  9  2  0  0  0  0
 10 12  1  0  0  0  0
 11 13  1  0  0  0  0
 12 11  2  0  0  0  0
 14 16  1  0  0  0  0
 14  6  1  1  0  0  0
 16 13  2  0  0  0  0
 17 21  1  1  0  0  0
 17 26  1  0  0  0  0
 18 20  2  0  0  0  0
 19 20  1  0  0  0  0
 20 21  1  0  0  0  0
 22 19  1  0  0  0  0
 24 25  2  0  0  0  0
 25 23  1  0  0  0  0
 25 22  1  0  0  0  0
 26 28  1  0  0  0  0
 28 27  1  0  0  0  0
M  END
>  <MODEL>
7

>  <REMARK>
 VINA RESULT:      -6.4      3.330      8.529
  Name = 
  9 active torsions:
  status: ('A' for Active; 'I' for Inactive)
    1  A    between atoms: C_1  and  O_6
    2  A    between atoms: C_1  and  C_12
    3  A    between atoms: C_2  and  O_6
    4  A    between atoms: N_7  and  C_28
    5  A    between atoms: N_8  and  C_22
    6  A    between atoms: C_12  and  N_19
    7  A    between atoms: C_12  and  O_24
    8  A    between atoms: C_14  and  C_28
    9  A    between atoms: C_23  and  O_24
                            x       y       z     vdW  Elec       q    Type
                         _______ _______ _______ _____ _____    ______ ____

>  <TORSDO>
F 9

$$$$
=
 OpenBabel11052410513D

 28 29  0  0  1  0  0  0  0  0999 V2000
  161.1000  207.0710  153.1540 C   0  0  2  0  0  3  0  0  0  0  0  0
  161.4420  207.0310  154.6370 C   0  0  0  0  0  1  0  0  0  0  0  0
  161.7080  206.0130  152.4130 O   0  0  0  0  0  0  0  0  0  0  0  0
  161.0440  205.1670  151.5160 C   0  0  0  0  0  0  0  0  0  0  0  0
  160.4070  204.1770  151.9660 O   0  0  0  0  0  0  0  0  0  0  0  0
  161.1040  205.3920  150.1060 N   0  0  0  0  0  2  0  0  0  0  0  0
  161.9520  202.9160  147.9400 N   0  0  0  0  0  2  0  0  0  0  0  0
  161.2560  203.1060  149.2140 C   0  0  1  0  0  3  0  0  0  0  0  0
  161.6650  204.0360  147.1330 C   0  0  0  0  0  0  0  0  0  0  0  0
  162.1130  204.2610  145.8340 C   0  0  0  0  0  3  0  0  0  0  0  0
  160.8600  206.3460  145.8800 C   0  0  0  0  0  3  0  0  0  0  0  0
  161.7010  205.4450  145.1990 C   0  0  0  0  0  3  0  0  0  0  0  0
  160.4480  206.0740  147.1550 N   0  0  0  0  0  0  0  0  0  0  0  0
  160.5260  204.4730  149.1350 C   0  0  2  0  0  3  0  0  0  0  0  0
  160.2430  201.9940  149.4140 C   0  0  0  0  0  1  0  0  0  0  0  0
  160.8570  204.9310  147.7630 C   0  0  0  0  0  0  0  0  0  0  0  0
  161.2730  208.4430  152.4800 C   0  0  1  0  0  3  0  0  0  0  0  0
  159.3910  210.5970  152.7170 O   0  0  0  0  0  0  0  0  0  0  0  0
  160.4450  211.5420  154.5720 N   0  0  0  0  0  2  0  0  0  0  0  0
  160.3460  210.5600  153.5400 C   0  0  0  0  0  0  0  0  0  0  0  0
  161.3390  209.5370  153.4520 N   0  0  0  0  0  2  0  0  0  0  0  0
  159.4350  212.5720  154.7580 C   0  0  0  0  0  2  0  0  0  0  0  0
  157.5390  213.0830  156.3070 O   0  0  0  0  0  0  0  0  0  0  0  0
  158.6300  211.0730  156.4210 O   0  0  0  0  0  1  0  0  0  0  0  0
  158.4990  212.1850  155.8520 C   0  0  0  0  0  0  0  0  0  0  0  0
  162.3040  208.5010  151.5120 O   0  0  0  0  0  0  0  0  0  0  0  0
  161.9600  208.7200  149.1630 C   0  0  0  0  0  1  0  0  0  0  0  0
  161.9590  209.4190  150.5060 C   0  0  0  0  0  2  0  0  0  0  0  0
  1  2  1  1  0  0  0
  3  1  1  0  0  0  0
  4  5  2  0  0  0  0
  4  3  1  0  0  0  0
  6  4  1  0  0  0  0
  7  8  1  0  0  0  0
  8 15  1  6  0  0  0
  9 16  1  0  0  0  0
  9  7  1  0  0  0  0
 10  9  2  0  0  0  0
 11 13  1  0  0  0  0
 12 10  1  0  0  0  0
 12 11  2  0  0  0  0
 13 16  2  0  0  0  0
 14  8  1  0  0  0  0
 14  6  1  1  0  0  0
 16 14  1  0  0  0  0
 17 26  1  1  0  0  0
 17  1  1  0  0  0  0
 17 21  1  0  0  0  0
 18 20  2  0  0  0  0
 19 22  1  0  0  0  0
 20 19  1  0  0  0  0
 21 20  1  0  0  0  0
 22 25  1  0  0  0  0
 25 23  2  0  0  0  0
 25 24  1  0  0  0  0
 27 28  1  0  0  0  0
 28 26  1  0  0  0  0
M  END
>  <MODEL>
8

>  <REMARK>
 VINA RESULT:      -6.3      2.691      8.815
  Name = 
  9 active torsions:
  status: ('A' for Active; 'I' for Inactive)
    1  A    between atoms: C_1  and  O_6
    2  A    between atoms: C_1  and  C_12
    3  A    between atoms: C_2  and  O_6
    4  A    between atoms: N_7  and  C_28
    5  A    between atoms: N_8  and  C_22
    6  A    between atoms: C_12  and  N_19
    7  A    between atoms: C_12  and  O_24
    8  A    between atoms: C_14  and  C_28
    9  A    between atoms: C_23  and  O_24
                            x       y       z     vdW  Elec       q    Type
                         _______ _______ _______ _____ _____    ______ ____

>  <TORSDO>
F 9

$$$$
=
 OpenBabel11052410513D

 28 29  0  0  1  0  0  0  0  0999 V2000
  161.3210  205.1200  151.4420 C   0  0  2  0  0  3  0  0  0  0  0  0
  160.7530  203.7150  151.2950 C   0  0  0  0  0  1  0  0  0  0  0  0
  160.6050  205.9150  152.3870 O   0  0  0  0  0  0  0  0  0  0  0  0
  161.1830  206.8100  153.2960 C   0  0  0  0  0  0  0  0  0  0  0  0
  162.2300  206.4700  153.9080 O   0  0  0  0  0  0  0  0  0  0  0  0
  160.5880  208.0830  153.5580 N   0  0  0  0  0  2  0  0  0  0  0  0
  159.6930  209.5900  156.4690 N   0  0  0  0  0  2  0  0  0  0  0  0
  160.5870  208.5410  155.9740 C   0  0  1  0  0  3  0  0  0  0  0  0
  159.6610  210.6090  155.4950 C   0  0  0  0  0  0  0  0  0  0  0  0
  158.9450  211.8020  155.5640 C   0  0  0  0  0  3  0  0  0  0  0  0
  159.8820  212.3610  153.3890 C   0  0  0  0  0  3  0  0  0  0  0  0
  159.0590  212.6930  154.4830 C   0  0  0  0  0  3  0  0  0  0  0  0
  160.5640  211.1770  153.3740 N   0  0  0  0  0  0  0  0  0  0  0  0
  161.0910  208.9940  154.5780 C   0  0  2  0  0  3  0  0  0  0  0  0
  161.7640  208.3850  156.9180 C   0  0  0  0  0  1  0  0  0  0  0  0
  160.4420  210.3190  154.4200 C   0  0  0  0  0  0  0  0  0  0  0  0
  161.5830  205.8610  150.1200 C   0  0  1  0  0  3  0  0  0  0  0  0
  162.6100  206.0700  147.4480 O   0  0  0  0  0  0  0  0  0  0  0  0
  161.2130  204.4040  146.5980 N   0  0  0  0  0  2  0  0  0  0  0  0
  161.6870  205.2350  147.6580 C   0  0  0  0  0  0  0  0  0  0  0  0
  161.1050  205.1110  148.9560 N   0  0  0  0  0  2  0  0  0  0  0  0
  161.8030  204.4350  145.2690 C   0  0  0  0  0  2  0  0  0  0  0  0
  161.5130  205.6560  143.1050 O   0  0  0  0  0  0  0  0  0  0  0  0
  160.2430  206.1990  144.9310 O   0  0  0  0  0  1  0  0  0  0  0  0
  161.1210  205.4570  144.4250 C   0  0  0  0  0  0  0  0  0  0  0  0
  161.1730  207.2160  150.1110 O   0  0  0  0  0  0  0  0  0  0  0  0
  161.9250  209.4280  150.5890 C   0  0  0  0  0  1  0  0  0  0  0  0
  162.3010  208.0530  150.0770 C   0  0  0  0  0  2  0  0  0  0  0  0
  1  2  1  6  0  0  0
  1  3  1  0  0  0  0
  3  4  1  0  0  0  0
  4  6  1  0  0  0  0
  4  5  2  0  0  0  0
  8  7  1  0  0  0  0
  8 15  1  1  0  0  0
  9 10  1  0  0  0  0
  9  7  1  0  0  0  0
 11 12  1  0  0  0  0
 12 10  2  0  0  0  0
 13 11  2  0  0  0  0
 13 16  1  0  0  0  0
 14  6  1  6  0  0  0
 14  8  1  0  0  0  0
 16 14  1  0  0  0  0
 16  9  2  0  0  0  0
 17 21  1  6  0  0  0
 17  1  1  0  0  0  0
 18 20  2  0  0  0  0
 19 20  1  0  0  0  0
 20 21  1  0  0  0  0
 22 19  1  0  0  0  0
 23 25  2  0  0  0  0
 25 24  1  0  0  0  0
 25 22  1  0  0  0  0
 26 17  1  0  0  0  0
 28 26  1  0  0  0  0
 28 27  1  0  0  0  0
M  END
>  <MODEL>
9

>  <REMARK>
 VINA RESULT:      -6.2      1.496      2.538
  Name = 
  9 active torsions:
  status: ('A' for Active; 'I' for Inactive)
    1  A    between atoms: C_1  and  O_6
    2  A    between atoms: C_1  and  C_12
    3  A    between atoms: C_2  and  O_6
    4  A    between atoms: N_7  and  C_28
    5  A    between atoms: N_8  and  C_22
    6  A    between atoms: C_12  and  N_19
    7  A    between atoms: C_12  and  O_24
    8  A    between atoms: C_14  and  C_28
    9  A    between atoms: C_23  and  O_24
                            x       y       z     vdW  Elec       q    Type
                         _______ _______ _______ _____ _____    ______ ____

>  <TORSDO>
F 9

$$$$
