=
 OpenBabel11042422123D

 50 54  0  0  1  0  0  0  0  0999 V2000
  161.2340  204.5100  147.8770 C   0  0  0  0  0  0  0  0  0  0  0  0
  160.8310  202.6350  148.9640 N   0  0  0  0  0  0  0  0  0  0  0  0
  160.9840  203.1630  147.7380 C   0  0  0  0  0  0  0  0  0  0  0  0
  160.9950  203.6420  149.8090 N   0  0  0  0  0  0  0  0  0  0  0  0
  161.2270  204.7960  149.1910 N   0  0  0  0  0  0  0  0  0  0  0  0
  160.8050  201.8220  145.5230 N   0  0  0  0  0  0  0  0  0  0  0  0
  160.8850  202.4180  146.5110 C   0  0  0  0  0  0  0  0  0  0  0  0
  160.8280  203.4990  151.2530 C   0  0  1  0  0  3  0  0  0  0  0  0
  162.6400  201.9060  151.9190 C   0  0  0  0  0  1  0  0  0  0  0  0
  161.1450  202.0860  151.7360 C   0  0  0  0  0  2  0  0  0  0  0  0
  161.6150  204.5720  152.0030 C   0  0  0  0  0  2  0  0  0  0  0  0
  160.8090  205.2290  153.1130 C   0  0  0  0  0  2  0  0  0  0  0  0
  161.2810  208.0500  155.7480 N   0  0  0  0  0  0  0  0  0  0  0  0
  161.1390  206.9850  154.8770 C   0  0  0  0  0  0  0  0  0  0  0  0
  160.2400  207.1570  155.8610 N   0  0  0  0  0  0  0  0  0  0  0  0
  161.6280  206.2330  153.7700 N   0  0  0  0  0  2  0  0  0  0  0  0
  161.9650  209.1940  156.1810 N   0  0  0  0  0  2  0  0  0  0  0  0
  161.0450  210.3180  156.0790 C   0  0  0  0  0  2  0  0  0  0  0  0
  157.3810  212.3160  154.1420 N   0  0  0  0  0  2  0  0  0  0  0  0
  160.6450  211.3100  153.8240 C   0  0  0  0  0  2  0  0  0  0  0  0
  159.3690  211.8040  153.3770 N   0  0  2  0  0  0  0  0  0  0  0  0
  159.2090  213.1270  152.8410 C   0  0  0  0  0  2  0  0  0  0  0  0
  160.2130  210.2120  154.8090 C   0  0  2  0  0  3  0  0  0  0  0  0
  158.7400  210.5580  155.0870 C   0  0  0  0  0  2  0  0  0  0  0  0
  158.6480  211.8970  154.5540 N   0  0  2  0  0  0  0  0  0  0  0  0
  157.7310  213.3660  153.1710 C   0  0  0  0  0  2  0  0  0  0  0  0
  161.4390  205.5150  146.7990 C   0  0  0  0  0  2  0  0  0  0  0  0
  162.3210  206.5700  147.2650 N   0  0  0  0  0  2  0  0  0  0  0  0
  161.4760  207.5590  147.9170 C   0  0  0  0  0  2  0  0  0  0  0  0
  162.2820  208.4320  148.8770 C   0  0  1  0  0  3  0  0  0  0  0  0
  161.5900  209.7520  149.1770 C   0  0  1  0  0  3  0  0  0  0  0  0
  161.9370  210.0650  150.6130 C   0  0  0  0  0  2  0  0  0  0  0  0
  162.0860  208.7200  151.2880 C   0  0  0  0  0  2  0  0  0  0  0  0
  162.5170  207.7390  150.2120 C   0  0  0  0  0  2  0  0  0  0  0  0
  162.0910  210.8580  148.2630 C   0  0  0  0  0  2  0  0  0  0  0  0
  162.2700  212.0790  149.0300 N   0  0  0  0  0  2  0  0  0  0  0  0
  161.8670  213.1880  148.1780 C   0  0  0  0  0  2  0  0  0  0  0  0
  160.3420  213.3220  148.1440 C   0  0  1  0  0  3  0  0  0  0  0  0
  159.9490  214.4100  148.9240 O   0  0  0  0  0  0  0  0  0  0  0  0
  158.7300  214.0250  149.4830 C   0  0  0  0  0  1  0  0  0  0  0  0
  159.7570  213.4530  146.7240 C   0  0  2  0  0  3  0  0  0  0  0  0
  158.9270  212.2360  146.3450 C   0  0  0  0  0  2  0  0  0  0  0  0
  157.4550  212.5940  146.3010 C   0  0  0  0  0  1  0  0  0  0  0  0
  160.8210  213.7050  145.6620 C   0  0  0  0  0  2  0  0  0  0  0  0
  160.5510  212.9010  144.4820 N   0  0  0  0  0  2  0  0  0  0  0  0
  160.0520  213.6070  142.2150 C   0  0  0  0  0  1  0  0  0  0  0  0
  161.0720  213.6280  143.3350 C   0  0  2  0  0  3  0  0  0  0  0  0
  162.3390  212.0940  141.8280 O   0  0  0  0  0  0  0  0  0  0  0  0
  162.3540  213.0150  142.8700 C   0  0  0  0  0  0  0  0  0  0  0  0
  163.4420  213.2960  143.4390 O   0  0  0  0  0  1  0  0  0  0  0  0
  1  5  2  0  0  0  0
  2  4  1  0  0  0  0
  3  1  1  0  0  0  0
  3  2  2  0  0  0  0
  4  8  1  0  0  0  0
  5  4  1  0  0  0  0
  6  7  3  0  0  0  0
  7  3  1  0  0  0  0
  8 10  1  1  0  0  0
  8 11  1  0  0  0  0
 10  9  1  0  0  0  0
 11 12  1  0  0  0  0
 12 16  1  0  0  0  0
 13 15  1  0  0  0  0
 13 17  1  0  0  0  0
 14 13  1  0  0  0  0
 14 15  2  0  0  0  0
 16 14  1  0  0  0  0
 18 17  1  0  0  0  0
 19 25  1  0  0  0  0
 20 23  1  0  0  0  0
 21 22  1  1  0  0  0
 21 20  1  0  0  0  0
 21 25  1  0  0  0  0
 22 26  1  0  0  0  0
 23 24  1  0  0  0  0
 23 18  1  1  0  0  0
 25 24  1  6  0  0  0
 26 19  1  0  0  0  0
 27 28  1  0  0  0  0
 27  1  1  0  0  0  0
 28 29  1  0  0  0  0
 30 29  1  6  0  0  0
 30 31  1  0  0  0  0
 30 34  1  0  0  0  0
 31 35  1  6  0  0  0
 31 32  1  0  0  0  0
 32 33  1  0  0  0  0
 34 33  1  0  0  0  0
 35 36  1  0  0  0  0
 37 36  1  0  0  0  0
 38 37  1  6  0  0  0
 38 39  1  0  0  0  0
 39 40  1  0  0  0  0
 41 44  1  6  0  0  0
 41 38  1  0  0  0  0
 42 41  1  0  0  0  0
 43 42  1  0  0  0  0
 45 44  1  0  0  0  0
 47 46  1  6  0  0  0
 47 45  1  0  0  0  0
 48 49  2  0  0  0  0
 49 47  1  0  0  0  0
 49 50  1  0  0  0  0
M  END
>  <MODEL>
1

>  <REMARK>
 VINA RESULT:      -5.6      0.000      0.000
  Name = 
  24 active torsions:
  status: ('A' for Active; 'I' for Inactive)
    1  A    between atoms: O_2  and  C_16
    2  A    between atoms: N_5  and  CA_17
    3  A    between atoms: N_5  and  C_46
    4  A    between atoms: N_6  and  C_23
    5  A    between atoms: N_6  and  C_31
    6  A    between atoms: N_7  and  N_45
    7  A    between atoms: C_9  and  C_49
    8  A    between atoms: C_14  and  CA_17
    9  A    between atoms: C_16  and  C_23
   10  A    between atoms: C_16  and  C_47
   11  A    between atoms: C_19  and  C_22
   12  A    between atoms: N_20  and  C_22
   13  A    between atoms: N_20  and  C_49
   14  A    between atoms: C_24  and  C_47
   15  A    between atoms: C_25  and  C_34
   16  A    between atoms: C_25  and  N_41
   17  A    between atoms: C_28  and  C_32
   18  A    between atoms: C_29  and  C_38
   19  A    between atoms: C_30  and  C_31
   20  A    between atoms: C_32  and  N_45
   21  A    between atoms: C_33  and  C_35
   22  A    between atoms: C_34  and  C_35
   23  A    between atoms: C_35  and  N_48
   24  A    between atoms: C_46  and  C_47
                            x       y       z     vdW  Elec       q    Type
                         _______ _______ _______ _____ _____    ______ ____

>  <TORSDO>
F 24

$$$$
=
 OpenBabel11042422123D

 50 54  0  0  1  0  0  0  0  0999 V2000
  160.1760  212.6620  151.1630 C   0  0  0  0  0  0  0  0  0  0  0  0
  158.6580  212.1900  152.6910 N   0  0  0  0  0  0  0  0  0  0  0  0
  158.8340  212.7230  151.4690 C   0  0  0  0  0  0  0  0  0  0  0  0
  159.8640  211.8150  153.0930 N   0  0  0  0  0  0  0  0  0  0  0  0
  160.8110  212.0960  152.2040 N   0  0  0  0  0  0  0  0  0  0  0  0
  156.9320  213.7030  150.0010 N   0  0  0  0  0  0  0  0  0  0  0  0
  157.7790  213.2640  150.6560 C   0  0  0  0  0  0  0  0  0  0  0  0
  160.1160  211.2550  154.4180 C   0  0  1  0  0  3  0  0  0  0  0  0
  158.3080  212.1480  155.8990 C   0  0  0  0  0  1  0  0  0  0  0  0
  158.8270  210.9270  155.1650 C   0  0  0  0  0  2  0  0  0  0  0  0
  161.0720  210.0660  154.3350 C   0  0  0  0  0  2  0  0  0  0  0  0
  160.4700  208.7830  154.8870 C   0  0  0  0  0  2  0  0  0  0  0  0
  161.5730  207.3510  151.4430 N   0  0  0  0  0  0  0  0  0  0  0  0
  161.2720  207.8740  152.6890 C   0  0  0  0  0  0  0  0  0  0  0  0
  161.7100  208.6930  151.7180 N   0  0  0  0  0  0  0  0  0  0  0  0
  160.8490  207.6690  154.0340 N   0  0  0  0  0  2  0  0  0  0  0  0
  161.6580  206.2680  150.5600 N   0  0  0  0  0  2  0  0  0  0  0  0
  161.3630  206.7690  149.2240 C   0  0  0  0  0  2  0  0  0  0  0  0
  160.4020  205.9940  144.7920 N   0  0  0  0  0  2  0  0  0  0  0  0
  162.0210  204.9610  147.6350 C   0  0  0  0  0  2  0  0  0  0  0  0
  161.5190  204.8510  146.2890 N   0  0  2  0  0  0  0  0  0  0  0  0
  162.3950  204.7350  145.1570 C   0  0  0  0  0  2  0  0  0  0  0  0
  160.8400  205.6470  148.3390 C   0  0  2  0  0  3  0  0  0  0  0  0
  160.0180  206.2110  147.1670 C   0  0  0  0  0  2  0  0  0  0  0  0
  160.9530  206.0940  146.0720 N   0  0  2  0  0  0  0  0  0  0  0  0
  161.4890  205.3190  144.0660 C   0  0  0  0  0  2  0  0  0  0  0  0
  160.8530  213.1590  149.9340 C   0  0  0  0  0  2  0  0  0  0  0  0
  161.2050  212.0420  149.0760 N   0  0  0  0  0  2  0  0  0  0  0  0
  160.3030  212.0970  147.9340 C   0  0  0  0  0  2  0  0  0  0  0  0
  161.0610  212.3940  146.6410 C   0  0  1  0  0  3  0  0  0  0  0  0
  160.2290  213.1990  145.6560 C   0  0  1  0  0  3  0  0  0  0  0  0
  161.2120  214.0970  144.9450 C   0  0  0  0  0  2  0  0  0  0  0  0
  162.2960  214.3810  145.9610 C   0  0  0  0  0  2  0  0  0  0  0  0
  162.3340  213.1890  146.9010 C   0  0  0  0  0  2  0  0  0  0  0  0
  159.5290  212.2920  144.6560 C   0  0  0  0  0  2  0  0  0  0  0  0
  159.7450  212.7950  143.3100 N   0  0  0  0  0  2  0  0  0  0  0  0
  160.3940  211.7350  142.5520 C   0  0  0  0  0  2  0  0  0  0  0  0
  160.1740  211.9270  141.0490 C   0  0  1  0  0  3  0  0  0  0  0  0
  159.2670  212.9670  140.8370 O   0  0  0  0  0  0  0  0  0  0  0  0
  158.2020  212.3770  140.1570 C   0  0  0  0  0  1  0  0  0  0  0  0
  161.4690  212.1880  140.2550 C   0  0  2  0  0  3  0  0  0  0  0  0
  161.6770  213.6710  139.9920 C   0  0  0  0  0  2  0  0  0  0  0  0
  162.7860  214.2140  140.8720 C   0  0  0  0  0  1  0  0  0  0  0  0
  161.5290  211.4150  138.9430 C   0  0  0  0  0  2  0  0  0  0  0  0
  162.1310  210.1090  139.1580 N   0  0  0  0  0  2  0  0  0  0  0  0
  159.8730  209.4270  138.5880 C   0  0  0  0  0  1  0  0  0  0  0  0
  161.3500  209.1440  138.4010 C   0  0  2  0  0  3  0  0  0  0  0  0
  162.3600  206.8950  138.0080 O   0  0  0  0  0  0  0  0  0  0  0  0
  161.6650  207.7540  138.8530 C   0  0  0  0  0  0  0  0  0  0  0  0
  161.2720  207.3410  139.9760 O   0  0  0  0  0  1  0  0  0  0  0  0
  1  3  1  0  0  0  0
  1  5  2  0  0  0  0
  2  4  1  0  0  0  0
  3  2  2  0  0  0  0
  4  8  1  0  0  0  0
  5  4  1  0  0  0  0
  6  7  3  0  0  0  0
  7  3  1  0  0  0  0
  8 11  1  6  0  0  0
  8 10  1  0  0  0  0
 10  9  1  0  0  0  0
 11 12  1  0  0  0  0
 13 15  1  0  0  0  0
 13 14  1  0  0  0  0
 14 16  1  0  0  0  0
 15 14  2  0  0  0  0
 16 12  1  0  0  0  0
 17 13  1  0  0  0  0
 18 17  1  0  0  0  0
 19 25  1  0  0  0  0
 20 23  1  0  0  0  0
 21 22  1  6  0  0  0
 21 20  1  0  0  0  0
 23 18  1  1  0  0  0
 24 23  1  0  0  0  0
 25 21  1  0  0  0  0
 25 24  1  1  0  0  0
 26 19  1  0  0  0  0
 26 22  1  0  0  0  0
 27  1  1  0  0  0  0
 28 27  1  0  0  0  0
 29 28  1  0  0  0  0
 30 34  1  0  0  0  0
 30 29  1  1  0  0  0
 31 35  1  6  0  0  0
 31 30  1  0  0  0  0
 32 31  1  0  0  0  0
 32 33  1  0  0  0  0
 33 34  1  0  0  0  0
 36 35  1  0  0  0  0
 37 36  1  0  0  0  0
 38 37  1  1  0  0  0
 39 38  1  0  0  0  0
 40 39  1  0  0  0  0
 41 44  1  6  0  0  0
 41 38  1  0  0  0  0
 42 41  1  0  0  0  0
 42 43  1  0  0  0  0
 44 45  1  0  0  0  0
 47 46  1  1  0  0  0
 47 49  1  0  0  0  0
 47 45  1  0  0  0  0
 48 49  2  0  0  0  0
 49 50  1  0  0  0  0
M  END
>  <MODEL>
2

>  <REMARK>
 VINA RESULT:      -4.7      2.866      8.045
  Name = 
  24 active torsions:
  status: ('A' for Active; 'I' for Inactive)
    1  A    between atoms: O_2  and  C_16
    2  A    between atoms: N_5  and  CA_17
    3  A    between atoms: N_5  and  C_46
    4  A    between atoms: N_6  and  C_23
    5  A    between atoms: N_6  and  C_31
    6  A    between atoms: N_7  and  N_45
    7  A    between atoms: C_9  and  C_49
    8  A    between atoms: C_14  and  CA_17
    9  A    between atoms: C_16  and  C_23
   10  A    between atoms: C_16  and  C_47
   11  A    between atoms: C_19  and  C_22
   12  A    between atoms: N_20  and  C_22
   13  A    between atoms: N_20  and  C_49
   14  A    between atoms: C_24  and  C_47
   15  A    between atoms: C_25  and  C_34
   16  A    between atoms: C_25  and  N_41
   17  A    between atoms: C_28  and  C_32
   18  A    between atoms: C_29  and  C_38
   19  A    between atoms: C_30  and  C_31
   20  A    between atoms: C_32  and  N_45
   21  A    between atoms: C_33  and  C_35
   22  A    between atoms: C_34  and  C_35
   23  A    between atoms: C_35  and  N_48
   24  A    between atoms: C_46  and  C_47
                            x       y       z     vdW  Elec       q    Type
                         _______ _______ _______ _____ _____    ______ ____

>  <TORSDO>
F 24

$$$$
=
 OpenBabel11042422123D

 50 54  0  0  1  0  0  0  0  0999 V2000
  160.5570  212.2360  147.3910 C   0  0  0  0  0  0  0  0  0  0  0  0
  159.9730  214.1190  146.4020 N   0  0  0  0  0  0  0  0  0  0  0  0
  160.9580  213.2080  146.5000 C   0  0  0  0  0  0  0  0  0  0  0  0
  159.0110  213.6920  147.2070 N   0  0  0  0  0  0  0  0  0  0  0  0
  159.3310  212.5640  147.8340 N   0  0  0  0  0  0  0  0  0  0  0  0
  163.2130  213.3340  145.2220 N   0  0  0  0  0  0  0  0  0  0  0  0
  162.2060  213.2770  145.7910 C   0  0  0  0  0  0  0  0  0  0  0  0
  157.7850  214.4500  147.4450 C   0  0  1  0  0  3  0  0  0  0  0  0
  156.8980  212.6780  145.9180 C   0  0  0  0  0  1  0  0  0  0  0  0
  156.6710  214.0700  146.4740 C   0  0  0  0  0  2  0  0  0  0  0  0
  157.3580  214.3500  148.9080 C   0  0  0  0  0  2  0  0  0  0  0  0
  155.8480  214.2820  149.0800 C   0  0  0  0  0  2  0  0  0  0  0  0
  156.8050  214.1270  152.8460 N   0  0  0  0  0  0  0  0  0  0  0  0
  156.4960  214.2710  151.5050 C   0  0  0  0  0  0  0  0  0  0  0  0
  157.7830  214.1680  151.8780 N   0  0  0  0  0  0  0  0  0  0  0  0
  155.5170  214.4480  150.4850 N   0  0  0  0  0  2  0  0  0  0  0  0
  156.4120  214.0100  154.1850 N   0  0  0  0  0  2  0  0  0  0  0  0
  156.5700  212.6130  154.5670 C   0  0  0  0  0  2  0  0  0  0  0  0
  159.7450  209.5510  155.8750 N   0  0  0  0  0  2  0  0  0  0  0  0
  159.0260  212.7820  154.9710 C   0  0  0  0  0  2  0  0  0  0  0  0
  159.8330  211.7050  155.4830 N   0  0  2  0  0  0  0  0  0  0  0  0
  161.0250  211.2630  154.8160 C   0  0  0  0  0  2  0  0  0  0  0  0
  157.6660  212.4670  155.6130 C   0  0  2  0  0  3  0  0  0  0  0  0
  157.8190  210.9990  156.0450 C   0  0  0  0  0  2  0  0  0  0  0  0
  159.0080  210.6050  155.3280 N   0  0  2  0  0  0  0  0  0  0  0  0
  161.0780  209.8110  155.3090 C   0  0  0  0  0  2  0  0  0  0  0  0
  161.3250  211.0440  147.8440 C   0  0  0  0  0  2  0  0  0  0  0  0
  162.5690  211.4630  148.4630 N   0  0  0  0  0  2  0  0  0  0  0  0
  162.4860  211.0750  149.8640 C   0  0  0  0  0  2  0  0  0  0  0  0
  161.6010  209.8430  150.0470 C   0  0  1  0  0  3  0  0  0  0  0  0
  162.3600  208.5470  149.8100 C   0  0  1  0  0  3  0  0  0  0  0  0
  161.7600  207.5530  150.7750 C   0  0  0  0  0  2  0  0  0  0  0  0
  161.3250  208.3730  151.9700 C   0  0  0  0  0  2  0  0  0  0  0  0
  161.0190  209.7670  151.4520 C   0  0  0  0  0  2  0  0  0  0  0  0
  162.1860  208.0600  148.3800 C   0  0  0  0  0  2  0  0  0  0  0  0
  162.2010  206.6080  148.3570 N   0  0  0  0  0  2  0  0  0  0  0  0
  162.2250  206.1980  146.9600 C   0  0  0  0  0  2  0  0  0  0  0  0
  161.0690  205.2420  146.6530 C   0  0  1  0  0  3  0  0  0  0  0  0
  160.3510  205.7110  145.5530 O   0  0  0  0  0  0  0  0  0  0  0  0
  161.2960  205.8240  144.5320 C   0  0  0  0  0  1  0  0  0  0  0  0
  161.5100  203.7850  146.4120 C   0  0  2  0  0  3  0  0  0  0  0  0
  160.8460  203.1950  145.1770 C   0  0  0  0  0  2  0  0  0  0  0  0
  160.4870  201.7420  145.4140 C   0  0  0  0  0  1  0  0  0  0  0  0
  161.2660  202.8810  147.6140 C   0  0  0  0  0  2  0  0  0  0  0  0
  161.2360  203.6680  148.8350 N   0  0  0  0  0  2  0  0  0  0  0  0
  160.2990  201.5740  149.6250 C   0  0  0  0  0  1  0  0  0  0  0  0
  161.2170  202.7350  149.9510 C   0  0  2  0  0  3  0  0  0  0  0  0
  160.3490  204.7530  151.1370 O   0  0  0  0  0  0  0  0  0  0  0  0
  160.7500  203.4230  151.1940 C   0  0  0  0  0  0  0  0  0  0  0  0
  160.7540  202.8190  152.2990 O   0  0  0  0  0  1  0  0  0  0  0  0
  1  5  2  0  0  0  0
  1 27  1  0  0  0  0
  2  3  2  0  0  0  0
  2  4  1  0  0  0  0
  3  1  1  0  0  0  0
  4  8  1  0  0  0  0
  4  5  1  0  0  0  0
  6  7  3  0  0  0  0
  7  3  1  0  0  0  0
  8 10  1  6  0  0  0
  8 11  1  0  0  0  0
  9 10  1  0  0  0  0
 11 12  1  0  0  0  0
 12 16  1  0  0  0  0
 13 17  1  0  0  0  0
 14 15  2  0  0  0  0
 14 13  1  0  0  0  0
 15 13  1  0  0  0  0
 16 14  1  0  0  0  0
 17 18  1  0  0  0  0
 20 21  1  0  0  0  0
 20 23  1  0  0  0  0
 21 22  1  6  0  0  0
 22 26  1  0  0  0  0
 23 18  1  6  0  0  0
 23 24  1  0  0  0  0
 25 21  1  0  0  0  0
 25 19  1  0  0  0  0
 25 24  1  1  0  0  0
 26 19  1  0  0  0  0
 27 28  1  0  0  0  0
 28 29  1  0  0  0  0
 30 29  1  1  0  0  0
 30 34  1  0  0  0  0
 31 35  1  6  0  0  0
 31 30  1  0  0  0  0
 31 32  1  0  0  0  0
 32 33  1  0  0  0  0
 34 33  1  0  0  0  0
 36 35  1  0  0  0  0
 37 36  1  0  0  0  0
 38 37  1  6  0  0  0
 39 38  1  0  0  0  0
 40 39  1  0  0  0  0
 41 42  1  6  0  0  0
 41 38  1  0  0  0  0
 41 44  1  0  0  0  0
 42 43  1  0  0  0  0
 44 45  1  0  0  0  0
 45 47  1  0  0  0  0
 47 46  1  6  0  0  0
 47 49  1  0  0  0  0
 48 49  2  0  0  0  0
 49 50  1  0  0  0  0
M  END
>  <MODEL>
3

>  <REMARK>
 VINA RESULT:      -4.6      3.048      8.777
  Name = 
  24 active torsions:
  status: ('A' for Active; 'I' for Inactive)
    1  A    between atoms: O_2  and  C_16
    2  A    between atoms: N_5  and  CA_17
    3  A    between atoms: N_5  and  C_46
    4  A    between atoms: N_6  and  C_23
    5  A    between atoms: N_6  and  C_31
    6  A    between atoms: N_7  and  N_45
    7  A    between atoms: C_9  and  C_49
    8  A    between atoms: C_14  and  CA_17
    9  A    between atoms: C_16  and  C_23
   10  A    between atoms: C_16  and  C_47
   11  A    between atoms: C_19  and  C_22
   12  A    between atoms: N_20  and  C_22
   13  A    between atoms: N_20  and  C_49
   14  A    between atoms: C_24  and  C_47
   15  A    between atoms: C_25  and  C_34
   16  A    between atoms: C_25  and  N_41
   17  A    between atoms: C_28  and  C_32
   18  A    between atoms: C_29  and  C_38
   19  A    between atoms: C_30  and  C_31
   20  A    between atoms: C_32  and  N_45
   21  A    between atoms: C_33  and  C_35
   22  A    between atoms: C_34  and  C_35
   23  A    between atoms: C_35  and  N_48
   24  A    between atoms: C_46  and  C_47
                            x       y       z     vdW  Elec       q    Type
                         _______ _______ _______ _____ _____    ______ ____

>  <TORSDO>
F 24

$$$$
=
 OpenBabel11042422123D

 50 54  0  0  1  0  0  0  0  0999 V2000
  161.9460  211.2810  149.5590 C   0  0  0  0  0  0  0  0  0  0  0  0
  161.4260  210.9750  147.4380 N   0  0  0  0  0  0  0  0  0  0  0  0
  161.8660  210.3510  148.5450 C   0  0  0  0  0  0  0  0  0  0  0  0
  161.2430  212.2390  147.7900 N   0  0  0  0  0  0  0  0  0  0  0  0
  161.5590  212.4680  149.0610 N   0  0  0  0  0  0  0  0  0  0  0  0
  162.4580  207.8280  148.6730 N   0  0  0  0  0  0  0  0  0  0  0  0
  162.1960  208.9540  148.6170 C   0  0  0  0  0  0  0  0  0  0  0  0
  160.8390  213.2740  146.8410 C   0  0  1  0  0  3  0  0  0  0  0  0
  158.6590  214.2220  147.6220 C   0  0  0  0  0  1  0  0  0  0  0  0
  160.1550  214.4530  147.5260 C   0  0  0  0  0  2  0  0  0  0  0  0
  162.0140  213.6980  145.9630 C   0  0  0  0  0  2  0  0  0  0  0  0
  161.6190  213.9130  144.5100 C   0  0  0  0  0  2  0  0  0  0  0  0
  162.1740  211.9460  141.2010 N   0  0  0  0  0  0  0  0  0  0  0  0
  162.0170  212.7200  142.3370 C   0  0  0  0  0  0  0  0  0  0  0  0
  161.2420  212.9570  141.2640 N   0  0  0  0  0  0  0  0  0  0  0  0
  162.4230  213.0490  143.6620 N   0  0  0  0  0  2  0  0  0  0  0  0
  162.8010  210.9010  140.5110 N   0  0  0  0  0  2  0  0  0  0  0  0
  163.2810  211.4400  139.2450 C   0  0  0  0  0  2  0  0  0  0  0  0
  159.2850  209.2890  138.4850 N   0  0  0  0  0  2  0  0  0  0  0  0
  161.4100  211.8490  137.6470 C   0  0  0  0  0  2  0  0  0  0  0  0
  160.2710  210.9800  137.5010 N   0  0  2  0  0  0  0  0  0  0  0  0
  158.9240  211.4700  137.5870 C   0  0  0  0  0  2  0  0  0  0  0  0
  162.4930  210.8520  138.0840 C   0  0  2  0  0  3  0  0  0  0  0  0
  161.6760  209.6300  138.5370 C   0  0  0  0  0  2  0  0  0  0  0  0
  160.3470  210.1860  138.6310 N   0  0  2  0  0  0  0  0  0  0  0  0
  158.2100  210.1910  138.0430 C   0  0  0  0  0  2  0  0  0  0  0  0
  162.4120  211.0660  150.9570 C   0  0  0  0  0  2  0  0  0  0  0  0
  162.2170  209.6790  151.3360 N   0  0  0  0  0  2  0  0  0  0  0  0
  161.1400  209.6660  152.3170 C   0  0  0  0  0  2  0  0  0  0  0  0
  160.7470  208.2380  152.6910 C   0  0  1  0  0  3  0  0  0  0  0  0
  161.9450  207.3030  152.7400 C   0  0  1  0  0  3  0  0  0  0  0  0
  161.6410  206.3250  153.8480 C   0  0  0  0  0  2  0  0  0  0  0  0
  160.8070  207.0990  154.8440 C   0  0  0  0  0  2  0  0  0  0  0  0
  160.0770  208.1730  154.0570 C   0  0  0  0  0  2  0  0  0  0  0  0
  162.1230  206.5650  151.4230 C   0  0  0  0  0  2  0  0  0  0  0  0
  161.3700  205.3230  151.4560 N   0  0  0  0  0  2  0  0  0  0  0  0
  161.9920  204.4150  150.5030 C   0  0  0  0  0  2  0  0  0  0  0  0
  161.1210  203.1750  150.2850 C   0  0  1  0  0  3  0  0  0  0  0  0
  159.9190  203.3170  150.9790 O   0  0  0  0  0  0  0  0  0  0  0  0
  160.1640  202.7580  152.2340 C   0  0  0  0  0  1  0  0  0  0  0  0
  160.8380  202.8630  148.8020 C   0  0  2  0  0  3  0  0  0  0  0  0
  161.1360  201.4090  148.4680 C   0  0  0  0  0  2  0  0  0  0  0  0
  160.9450  200.5360  149.6920 C   0  0  0  0  0  1  0  0  0  0  0  0
  161.5930  203.7790  147.8450 C   0  0  0  0  0  2  0  0  0  0  0  0
  161.2060  203.4980  146.4730 N   0  0  0  0  0  2  0  0  0  0  0  0
  163.1540  204.9440  146.4330 C   0  0  0  0  0  1  0  0  0  0  0  0
  162.0510  204.3080  145.6110 C   0  0  2  0  0  3  0  0  0  0  0  0
  160.6640  206.3830  145.6960 O   0  0  0  0  0  1  0  0  0  0  0  0
  161.2400  205.3690  144.9370 C   0  0  0  0  0  0  0  0  0  0  0  0
  161.0410  205.3310  143.6940 O   0  0  0  0  0  0  0  0  0  0  0  0
  1 27  1  0  0  0  0
  2  4  1  0  0  0  0
  2  3  2  0  0  0  0
  3  7  1  0  0  0  0
  3  1  1  0  0  0  0
  4  5  1  0  0  0  0
  5  1  2  0  0  0  0
  7  6  3  0  0  0  0
  8 11  1  1  0  0  0
  8 10  1  0  0  0  0
  8  4  1  0  0  0  0
 10  9  1  0  0  0  0
 12 11  1  0  0  0  0
 13 15  1  0  0  0  0
 13 14  1  0  0  0  0
 14 16  1  0  0  0  0
 15 14  2  0  0  0  0
 16 12  1  0  0  0  0
 17 13  1  0  0  0  0
 18 17  1  0  0  0  0
 19 25  1  0  0  0  0
 20 23  1  0  0  0  0
 21 22  1  1  0  0  0
 21 20  1  0  0  0  0
 21 25  1  0  0  0  0
 22 26  1  0  0  0  0
 23 24  1  0  0  0  0
 23 18  1  1  0  0  0
 25 24  1  6  0  0  0
 26 19  1  0  0  0  0
 27 28  1  0  0  0  0
 28 29  1  0  0  0  0
 30 29  1  1  0  0  0
 30 31  1  0  0  0  0
 30 34  1  0  0  0  0
 31 35  1  6  0  0  0
 31 32  1  0  0  0  0
 32 33  1  0  0  0  0
 34 33  1  0  0  0  0
 35 36  1  0  0  0  0
 37 36  1  0  0  0  0
 38 37  1  6  0  0  0
 38 39  1  0  0  0  0
 39 40  1  0  0  0  0
 41 44  1  6  0  0  0
 41 38  1  0  0  0  0
 42 41  1  0  0  0  0
 42 43  1  0  0  0  0
 45 44  1  0  0  0  0
 47 46  1  1  0  0  0
 47 45  1  0  0  0  0
 49 47  1  0  0  0  0
 49 48  1  0  0  0  0
 50 49  2  0  0  0  0
M  END
>  <MODEL>
4

>  <REMARK>
 VINA RESULT:      -4.5      3.686     11.229
  Name = 
  24 active torsions:
  status: ('A' for Active; 'I' for Inactive)
    1  A    between atoms: O_2  and  C_16
    2  A    between atoms: N_5  and  CA_17
    3  A    between atoms: N_5  and  C_46
    4  A    between atoms: N_6  and  C_23
    5  A    between atoms: N_6  and  C_31
    6  A    between atoms: N_7  and  N_45
    7  A    between atoms: C_9  and  C_49
    8  A    between atoms: C_14  and  CA_17
    9  A    between atoms: C_16  and  C_23
   10  A    between atoms: C_16  and  C_47
   11  A    between atoms: C_19  and  C_22
   12  A    between atoms: N_20  and  C_22
   13  A    between atoms: N_20  and  C_49
   14  A    between atoms: C_24  and  C_47
   15  A    between atoms: C_25  and  C_34
   16  A    between atoms: C_25  and  N_41
   17  A    between atoms: C_28  and  C_32
   18  A    between atoms: C_29  and  C_38
   19  A    between atoms: C_30  and  C_31
   20  A    between atoms: C_32  and  N_45
   21  A    between atoms: C_33  and  C_35
   22  A    between atoms: C_34  and  C_35
   23  A    between atoms: C_35  and  N_48
   24  A    between atoms: C_46  and  C_47
                            x       y       z     vdW  Elec       q    Type
                         _______ _______ _______ _____ _____    ______ ____

>  <TORSDO>
F 24

$$$$
=
 OpenBabel11042422123D

 50 54  0  0  1  0  0  0  0  0999 V2000
  160.4780  212.0830  151.7820 C   0  0  0  0  0  0  0  0  0  0  0  0
  158.8180  211.7750  153.2010 N   0  0  0  0  0  0  0  0  0  0  0  0
  159.1300  212.2730  151.9920 C   0  0  0  0  0  0  0  0  0  0  0  0
  159.9520  211.2940  153.6910 N   0  0  0  0  0  0  0  0  0  0  0  0
  160.9820  211.4740  152.8700 N   0  0  0  0  0  0  0  0  0  0  0  0
  157.4350  213.4080  150.3870 N   0  0  0  0  0  0  0  0  0  0  0  0
  158.1900  212.9000  151.1020 C   0  0  0  0  0  0  0  0  0  0  0  0
  160.0560  210.7300  155.0340 C   0  0  1  0  0  3  0  0  0  0  0  0
  158.0940  211.5210  156.3700 C   0  0  0  0  0  1  0  0  0  0  0  0
  158.6950  210.3530  155.6120 C   0  0  0  0  0  2  0  0  0  0  0  0
  161.0540  209.5740  155.0650 C   0  0  0  0  0  2  0  0  0  0  0  0
  160.3800  208.2110  155.1170 C   0  0  0  0  0  2  0  0  0  0  0  0
  161.5720  206.8140  151.6880 N   0  0  0  0  0  0  0  0  0  0  0  0
  161.2220  207.3700  152.9060 C   0  0  0  0  0  0  0  0  0  0  0  0
  161.0480  208.0830  151.7810 N   0  0  0  0  0  0  0  0  0  0  0  0
  161.1490  207.2660  154.3250 N   0  0  0  0  0  2  0  0  0  0  0  0
  162.0710  205.7480  150.9290 N   0  0  0  0  0  2  0  0  0  0  0  0
  161.6690  205.9700  149.5470 C   0  0  0  0  0  2  0  0  0  0  0  0
  161.3690  201.8640  147.4920 N   0  0  0  0  0  2  0  0  0  0  0  0
  160.5410  203.8340  150.1750 C   0  0  0  0  0  2  0  0  0  0  0  0
  160.4850  202.6730  149.3260 N   0  0  2  0  0  0  0  0  0  0  0  0
  160.9020  201.3760  149.7800 C   0  0  0  0  0  2  0  0  0  0  0  0
  160.6040  204.9630  149.1350 C   0  0  2  0  0  3  0  0  0  0  0  0
  161.0140  204.2260  147.8490 C   0  0  0  0  0  2  0  0  0  0  0  0
  161.4450  202.9490  148.3680 N   0  0  2  0  0  0  0  0  0  0  0  0
  161.2850  200.7400  148.4380 C   0  0  0  0  0  2  0  0  0  0  0  0
  161.2840  212.4990  150.6020 C   0  0  0  0  0  2  0  0  0  0  0  0
  161.5580  211.3490  149.7590 N   0  0  0  0  0  2  0  0  0  0  0  0
  160.7800  211.5340  148.5420 C   0  0  0  0  0  2  0  0  0  0  0  0
  161.6030  212.2260  147.4570 C   0  0  1  0  0  3  0  0  0  0  0  0
  161.0210  213.5730  147.0620 C   0  0  1  0  0  3  0  0  0  0  0  0
  162.2120  214.4430  146.7410 C   0  0  0  0  0  2  0  0  0  0  0  0
  163.3220  213.9420  147.6380 C   0  0  0  0  0  2  0  0  0  0  0  0
  163.0360  212.4750  147.9050 C   0  0  0  0  0  2  0  0  0  0  0  0
  160.1190  213.4490  145.8450 C   0  0  0  0  0  2  0  0  0  0  0  0
  160.9130  213.0770  144.6870 N   0  0  0  0  0  2  0  0  0  0  0  0
  160.1340  212.1170  143.9180 C   0  0  0  0  0  2  0  0  0  0  0  0
  160.2130  212.4260  142.4210 C   0  0  1  0  0  3  0  0  0  0  0  0
  159.6410  213.6740  142.1680 O   0  0  0  0  0  0  0  0  0  0  0  0
  158.5830  213.4100  141.2970 C   0  0  0  0  0  1  0  0  0  0  0  0
  161.6420  212.3760  141.8470 C   0  0  2  0  0  3  0  0  0  0  0  0
  162.2510  213.7650  141.7350 C   0  0  0  0  0  2  0  0  0  0  0  0
  162.9850  213.9170  140.4180 C   0  0  0  0  0  1  0  0  0  0  0  0
  161.7200  211.6660  140.5010 C   0  0  0  0  0  2  0  0  0  0  0  0
  160.5900  210.7660  140.3430 N   0  0  0  0  0  2  0  0  0  0  0  0
  162.2440  210.1710  138.6700 C   0  0  0  0  0  1  0  0  0  0  0  0
  160.9870  209.7360  139.3960 C   0  0  2  0  0  3  0  0  0  0  0  0
  159.8310  208.2690  137.7390 O   0  0  0  0  0  0  0  0  0  0  0  0
  159.8890  209.4850  138.4120 C   0  0  0  0  0  0  0  0  0  0  0  0
  159.0390  210.3790  138.1590 O   0  0  0  0  0  1  0  0  0  0  0  0
  1  3  1  0  0  0  0
  1  5  2  0  0  0  0
  2  4  1  0  0  0  0
  3  2  2  0  0  0  0
  4  8  1  0  0  0  0
  5  4  1  0  0  0  0
  6  7  3  0  0  0  0
  7  3  1  0  0  0  0
  8 11  1  6  0  0  0
  8 10  1  0  0  0  0
 10  9  1  0  0  0  0
 11 12  1  0  0  0  0
 13 15  1  0  0  0  0
 13 14  1  0  0  0  0
 14 16  1  0  0  0  0
 15 14  2  0  0  0  0
 16 12  1  0  0  0  0
 17 13  1  0  0  0  0
 18 17  1  0  0  0  0
 19 25  1  0  0  0  0
 19 26  1  0  0  0  0
 21 22  1  1  0  0  0
 21 20  1  0  0  0  0
 23 18  1  1  0  0  0
 23 20  1  0  0  0  0
 24 23  1  0  0  0  0
 25 24  1  6  0  0  0
 25 21  1  0  0  0  0
 26 22  1  0  0  0  0
 27  1  1  0  0  0  0
 28 27  1  0  0  0  0
 29 28  1  0  0  0  0
 30 34  1  0  0  0  0
 30 29  1  1  0  0  0
 31 35  1  6  0  0  0
 31 30  1  0  0  0  0
 32 31  1  0  0  0  0
 32 33  1  0  0  0  0
 33 34  1  0  0  0  0
 36 35  1  0  0  0  0
 37 36  1  0  0  0  0
 38 37  1  1  0  0  0
 39 38  1  0  0  0  0
 40 39  1  0  0  0  0
 41 44  1  6  0  0  0
 41 38  1  0  0  0  0
 42 41  1  0  0  0  0
 43 42  1  0  0  0  0
 45 44  1  0  0  0  0
 47 46  1  6  0  0  0
 47 45  1  0  0  0  0
 48 49  2  0  0  0  0
 49 47  1  0  0  0  0
 50 49  1  0  0  0  0
M  END
>  <MODEL>
5

>  <REMARK>
 VINA RESULT:      -4.4      2.484      7.753
  Name = 
  24 active torsions:
  status: ('A' for Active; 'I' for Inactive)
    1  A    between atoms: O_2  and  C_16
    2  A    between atoms: N_5  and  CA_17
    3  A    between atoms: N_5  and  C_46
    4  A    between atoms: N_6  and  C_23
    5  A    between atoms: N_6  and  C_31
    6  A    between atoms: N_7  and  N_45
    7  A    between atoms: C_9  and  C_49
    8  A    between atoms: C_14  and  CA_17
    9  A    between atoms: C_16  and  C_23
   10  A    between atoms: C_16  and  C_47
   11  A    between atoms: C_19  and  C_22
   12  A    between atoms: N_20  and  C_22
   13  A    between atoms: N_20  and  C_49
   14  A    between atoms: C_24  and  C_47
   15  A    between atoms: C_25  and  C_34
   16  A    between atoms: C_25  and  N_41
   17  A    between atoms: C_28  and  C_32
   18  A    between atoms: C_29  and  C_38
   19  A    between atoms: C_30  and  C_31
   20  A    between atoms: C_32  and  N_45
   21  A    between atoms: C_33  and  C_35
   22  A    between atoms: C_34  and  C_35
   23  A    between atoms: C_35  and  N_48
   24  A    between atoms: C_46  and  C_47
                            x       y       z     vdW  Elec       q    Type
                         _______ _______ _______ _____ _____    ______ ____

>  <TORSDO>
F 24

$$$$
=
 OpenBabel11042422123D

 50 54  0  0  1  0  0  0  0  0999 V2000
  161.2990  205.4720  147.7190 C   0  0  0  0  0  0  0  0  0  0  0  0
  161.2510  207.5840  147.0880 N   0  0  0  0  0  0  0  0  0  0  0  0
  161.1640  206.3190  146.6410 C   0  0  0  0  0  0  0  0  0  0  0  0
  161.4240  207.4880  148.3980 N   0  0  0  0  0  0  0  0  0  0  0  0
  161.4740  206.2270  148.8170 N   0  0  0  0  0  0  0  0  0  0  0  0
  160.8230  205.6580  144.1550 N   0  0  0  0  0  0  0  0  0  0  0  0
  160.9730  205.9520  145.2640 C   0  0  0  0  0  0  0  0  0  0  0  0
  161.6430  208.6520  149.2540 C   0  0  1  0  0  3  0  0  0  0  0  0
  162.2570  209.4620  151.5400 C   0  0  0  0  0  1  0  0  0  0  0  0
  162.2650  208.2760  150.5950 C   0  0  0  0  0  2  0  0  0  0  0  0
  162.4330  209.7310  148.5160 C   0  0  0  0  0  2  0  0  0  0  0  0
  161.9480  211.1380  148.8310 C   0  0  0  0  0  2  0  0  0  0  0  0
  160.8380  213.2090  145.7310 N   0  0  0  0  0  0  0  0  0  0  0  0
  161.2170  212.5490  146.8870 C   0  0  0  0  0  0  0  0  0  0  0  0
  159.9180  212.8280  146.6820 N   0  0  0  0  0  0  0  0  0  0  0  0
  162.2490  212.0110  147.7080 N   0  0  0  0  0  2  0  0  0  0  0  0
  161.1540  213.8050  144.5040 N   0  0  0  0  0  2  0  0  0  0  0  0
  159.9940  213.6600  143.6360 C   0  0  0  0  0  2  0  0  0  0  0  0
  162.3620  211.1070  140.6280 N   0  0  0  0  0  2  0  0  0  0  0  0
  159.4710  212.8080  141.3490 C   0  0  0  0  0  2  0  0  0  0  0  0
  160.4100  212.0950  140.5220 N   0  0  2  0  0  0  0  0  0  0  0  0
  160.0960  210.8220  139.9380 C   0  0  0  0  0  2  0  0  0  0  0  0
  160.4140  213.6980  142.1740 C   0  0  2  0  0  3  0  0  0  0  0  0
  161.7840  213.0240  141.9790 C   0  0  0  0  0  2  0  0  0  0  0  0
  161.4050  211.7480  141.4180 N   0  0  2  0  0  0  0  0  0  0  0  0
  161.5110  210.2460  139.7930 C   0  0  0  0  0  2  0  0  0  0  0  0
  161.3030  203.9830  147.7130 C   0  0  0  0  0  2  0  0  0  0  0  0
  161.1210  203.4820  149.0630 N   0  0  0  0  0  2  0  0  0  0  0  0
  161.9380  204.3200  149.9290 C   0  0  0  0  0  2  0  0  0  0  0  0
  161.8030  203.9030  151.3930 C   0  0  1  0  0  3  0  0  0  0  0  0
  160.8990  204.8390  152.1790 C   0  0  1  0  0  3  0  0  0  0  0  0
  160.1930  203.9600  153.1820 C   0  0  0  0  0  2  0  0  0  0  0  0
  160.0640  202.6120  152.5090 C   0  0  0  0  0  2  0  0  0  0  0  0
  161.2210  202.5030  151.5320 C   0  0  0  0  0  2  0  0  0  0  0  0
  161.7040  205.9110  152.8950 C   0  0  0  0  0  2  0  0  0  0  0  0
  160.8080  206.9410  153.3920 N   0  0  0  0  0  2  0  0  0  0  0  0
  161.2640  207.3040  154.7260 C   0  0  0  0  0  2  0  0  0  0  0  0
  160.5490  208.5630  155.2220 C   0  0  1  0  0  3  0  0  0  0  0  0
  160.0420  208.3420  156.5040 O   0  0  0  0  0  0  0  0  0  0  0  0
  160.1790  206.9680  156.7080 C   0  0  0  0  0  1  0  0  0  0  0  0
  161.4300  209.8270  155.2160 C   0  0  2  0  0  3  0  0  0  0  0  0
  162.0230  210.1050  156.5880 C   0  0  0  0  0  2  0  0  0  0  0  0
  161.5200  211.4320  157.1230 C   0  0  0  0  0  1  0  0  0  0  0  0
  160.6970  211.0630  154.7080 C   0  0  0  0  0  2  0  0  0  0  0  0
  159.2890  210.7640  154.5110 N   0  0  0  0  0  2  0  0  0  0  0  0
  160.0210  212.2340  152.7250 C   0  0  0  0  0  1  0  0  0  0  0  0
  158.8350  211.5470  153.3720 C   0  0  2  0  0  3  0  0  0  0  0  0
  157.1730  212.4070  155.0240 O   0  0  0  0  0  1  0  0  0  0  0  0
  157.8300  212.5650  153.8090 C   0  0  0  0  0  0  0  0  0  0  0  0
  157.5460  213.5430  153.0680 O   0  0  0  0  0  0  0  0  0  0  0  0
  1  5  2  0  0  0  0
  2  4  1  0  0  0  0
  3  2  2  0  0  0  0
  3  1  1  0  0  0  0
  4  5  1  0  0  0  0
  4  8  1  0  0  0  0
  6  7  3  0  0  0  0
  7  3  1  0  0  0  0
  8 11  1  6  0  0  0
  8 10  1  0  0  0  0
 10  9  1  0  0  0  0
 11 12  1  0  0  0  0
 13 15  1  0  0  0  0
 13 14  1  0  0  0  0
 14 16  1  0  0  0  0
 15 14  2  0  0  0  0
 16 12  1  0  0  0  0
 17 13  1  0  0  0  0
 18 17  1  0  0  0  0
 19 25  1  0  0  0  0
 20 23  1  0  0  0  0
 21 22  1  1  0  0  0
 21 20  1  0  0  0  0
 21 25  1  0  0  0  0
 23 18  1  1  0  0  0
 24 23  1  0  0  0  0
 25 24  1  6  0  0  0
 26 22  1  0  0  0  0
 26 19  1  0  0  0  0
 27  1  1  0  0  0  0
 27 28  1  0  0  0  0
 28 29  1  0  0  0  0
 30 29  1  6  0  0  0
 30 34  1  0  0  0  0
 30 31  1  0  0  0  0
 31 35  1  1  0  0  0
 31 32  1  0  0  0  0
 33 32  1  0  0  0  0
 34 33  1  0  0  0  0
 35 36  1  0  0  0  0
 36 37  1  0  0  0  0
 38 37  1  1  0  0  0
 38 39  1  0  0  0  0
 39 40  1  0  0  0  0
 41 44  1  1  0  0  0
 41 38  1  0  0  0  0
 41 42  1  0  0  0  0
 42 43  1  0  0  0  0
 45 44  1  0  0  0  0
 47 46  1  1  0  0  0
 47 49  1  0  0  0  0
 47 45  1  0  0  0  0
 49 48  1  0  0  0  0
 50 49  2  0  0  0  0
M  END
>  <MODEL>
6

>  <REMARK>
 VINA RESULT:      -4.1      2.972      9.362
  Name = 
  24 active torsions:
  status: ('A' for Active; 'I' for Inactive)
    1  A    between atoms: O_2  and  C_16
    2  A    between atoms: N_5  and  CA_17
    3  A    between atoms: N_5  and  C_46
    4  A    between atoms: N_6  and  C_23
    5  A    between atoms: N_6  and  C_31
    6  A    between atoms: N_7  and  N_45
    7  A    between atoms: C_9  and  C_49
    8  A    between atoms: C_14  and  CA_17
    9  A    between atoms: C_16  and  C_23
   10  A    between atoms: C_16  and  C_47
   11  A    between atoms: C_19  and  C_22
   12  A    between atoms: N_20  and  C_22
   13  A    between atoms: N_20  and  C_49
   14  A    between atoms: C_24  and  C_47
   15  A    between atoms: C_25  and  C_34
   16  A    between atoms: C_25  and  N_41
   17  A    between atoms: C_28  and  C_32
   18  A    between atoms: C_29  and  C_38
   19  A    between atoms: C_30  and  C_31
   20  A    between atoms: C_32  and  N_45
   21  A    between atoms: C_33  and  C_35
   22  A    between atoms: C_34  and  C_35
   23  A    between atoms: C_35  and  N_48
   24  A    between atoms: C_46  and  C_47
                            x       y       z     vdW  Elec       q    Type
                         _______ _______ _______ _____ _____    ______ ____

>  <TORSDO>
F 24

$$$$
=
 OpenBabel11042422123D

 50 54  0  0  1  0  0  0  0  0999 V2000
  162.0420  211.2830  149.6240 C   0  0  0  0  0  0  0  0  0  0  0  0
  161.2580  211.0250  147.5790 N   0  0  0  0  0  0  0  0  0  0  0  0
  161.9290  210.4070  148.5670 C   0  0  0  0  0  0  0  0  0  0  0  0
  160.9730  212.2330  148.0440 N   0  0  0  0  0  0  0  0  0  0  0  0
  161.4420  212.4330  149.2720 N   0  0  0  0  0  0  0  0  0  0  0  0
  162.8490  207.9840  148.4310 N   0  0  0  0  0  0  0  0  0  0  0  0
  162.4370  209.0640  148.4910 C   0  0  0  0  0  0  0  0  0  0  0  0
  160.3090  213.2540  147.2370 C   0  0  1  0  0  3  0  0  0  0  0  0
  158.0810  213.7640  148.2550 C   0  0  0  0  0  1  0  0  0  0  0  0
  159.5120  214.2380  148.0880 C   0  0  0  0  0  2  0  0  0  0  0  0
  161.3030  213.9450  146.3050 C   0  0  0  0  0  2  0  0  0  0  0  0
  160.7570  214.1390  144.8980 C   0  0  0  0  0  2  0  0  0  0  0  0
  162.2150  213.7580  141.3130 N   0  0  0  0  0  0  0  0  0  0  0  0
  161.6750  213.9830  142.5670 C   0  0  0  0  0  0  0  0  0  0  0  0
  160.8580  213.8790  141.5050 N   0  0  0  0  0  0  0  0  0  0  0  0
  161.8660  214.2070  143.9600 N   0  0  0  0  0  2  0  0  0  0  0  0
  163.3190  213.5470  140.4770 N   0  0  0  0  0  2  0  0  0  0  0  0
  162.8620  213.7010  139.1020 C   0  0  0  0  0  2  0  0  0  0  0  0
  162.1650  209.2100  139.8160 N   0  0  0  0  0  2  0  0  0  0  0  0
  161.5970  211.9580  137.8430 C   0  0  0  0  0  2  0  0  0  0  0  0
  161.5870  210.5610  138.1920 N   0  0  2  0  0  0  0  0  0  0  0  0
  160.3650  209.8310  138.3790 C   0  0  0  0  0  2  0  0  0  0  0  0
  162.9830  212.3830  138.3500 C   0  0  2  0  0  3  0  0  0  0  0  0
  163.3680  211.2400  139.3050 C   0  0  0  0  0  2  0  0  0  0  0  0
  162.1040  210.5630  139.4750 N   0  0  2  0  0  0  0  0  0  0  0  0
  160.8580  208.7350  139.3330 C   0  0  0  0  0  2  0  0  0  0  0  0
  162.7310  211.0580  150.9240 C   0  0  0  0  0  2  0  0  0  0  0  0
  162.1650  209.9000  151.5910 N   0  0  0  0  0  2  0  0  0  0  0  0
  161.5720  210.3840  152.8300 C   0  0  0  0  0  2  0  0  0  0  0  0
  160.6520  209.3340  153.4520 C   0  0  1  0  0  3  0  0  0  0  0  0
  161.2700  207.9450  153.4390 C   0  0  1  0  0  3  0  0  0  0  0  0
  160.7830  207.2820  154.7050 C   0  0  0  0  0  2  0  0  0  0  0  0
  160.6180  208.4060  155.7040 C   0  0  0  0  0  2  0  0  0  0  0  0
  160.3200  209.6600  154.9010 C   0  0  0  0  0  2  0  0  0  0  0  0
  160.8180  207.1520  152.2240 C   0  0  0  0  0  2  0  0  0  0  0  0
  161.0670  205.7380  152.4460 N   0  0  0  0  0  2  0  0  0  0  0  0
  162.1490  205.3430  151.5550 C   0  0  0  0  0  2  0  0  0  0  0  0
  161.7390  204.1400  150.7020 C   0  0  1  0  0  3  0  0  0  0  0  0
  160.5090  203.6500  151.1410 O   0  0  0  0  0  0  0  0  0  0  0  0
  160.7670  202.3340  151.5280 C   0  0  0  0  0  1  0  0  0  0  0  0
  161.6790  204.4370  149.1910 C   0  0  2  0  0  3  0  0  0  0  0  0
  160.4650  205.2810  148.8320 C   0  0  0  0  0  2  0  0  0  0  0  0
  160.6300  205.8840  147.4520 C   0  0  0  0  0  1  0  0  0  0  0  0
  161.7050  203.1760  148.3340 C   0  0  0  0  0  2  0  0  0  0  0  0
  160.3700  202.8780  147.8420 N   0  0  0  0  0  2  0  0  0  0  0  0
  161.4560  200.7570  148.3000 C   0  0  0  0  0  1  0  0  0  0  0  0
  160.3150  201.4480  147.5820 C   0  0  2  0  0  3  0  0  0  0  0  0
  159.5020  201.7990  145.2480 O   0  0  0  0  0  0  0  0  0  0  0  0
  160.4010  201.1840  146.1130 C   0  0  0  0  0  0  0  0  0  0  0  0
  161.2560  200.3800  145.6550 O   0  0  0  0  0  1  0  0  0  0  0  0
  1 27  1  0  0  0  0
  2  4  1  0  0  0  0
  2  3  2  0  0  0  0
  3  1  1  0  0  0  0
  4  5  1  0  0  0  0
  5  1  2  0  0  0  0
  6  7  3  0  0  0  0
  7  3  1  0  0  0  0
  8 11  1  1  0  0  0
  8  4  1  0  0  0  0
  8 10  1  0  0  0  0
 10  9  1  0  0  0  0
 12 11  1  0  0  0  0
 13 15  1  0  0  0  0
 13 14  1  0  0  0  0
 14 16  1  0  0  0  0
 15 14  2  0  0  0  0
 16 12  1  0  0  0  0
 17 13  1  0  0  0  0
 18 17  1  0  0  0  0
 20 23  1  0  0  0  0
 21 20  1  1  0  0  0
 21 22  1  0  0  0  0
 21 25  1  0  0  0  0
 22 26  1  0  0  0  0
 23 18  1  1  0  0  0
 23 24  1  0  0  0  0
 25 24  1  6  0  0  0
 25 19  1  0  0  0  0
 26 19  1  0  0  0  0
 27 28  1  0  0  0  0
 28 29  1  0  0  0  0
 30 29  1  1  0  0  0
 30 34  1  0  0  0  0
 31 35  1  6  0  0  0
 31 30  1  0  0  0  0
 31 32  1  0  0  0  0
 32 33  1  0  0  0  0
 34 33  1  0  0  0  0
 35 36  1  0  0  0  0
 37 36  1  0  0  0  0
 38 39  1  0  0  0  0
 38 37  1  1  0  0  0
 39 40  1  0  0  0  0
 41 44  1  6  0  0  0
 41 38  1  0  0  0  0
 42 41  1  0  0  0  0
 43 42  1  0  0  0  0
 45 44  1  0  0  0  0
 47 45  1  0  0  0  0
 47 46  1  1  0  0  0
 48 49  2  0  0  0  0
 49 47  1  0  0  0  0
 50 49  1  0  0  0  0
M  END
>  <MODEL>
7

>  <REMARK>
 VINA RESULT:      -3.8      3.953     11.436
  Name = 
  24 active torsions:
  status: ('A' for Active; 'I' for Inactive)
    1  A    between atoms: O_2  and  C_16
    2  A    between atoms: N_5  and  CA_17
    3  A    between atoms: N_5  and  C_46
    4  A    between atoms: N_6  and  C_23
    5  A    between atoms: N_6  and  C_31
    6  A    between atoms: N_7  and  N_45
    7  A    between atoms: C_9  and  C_49
    8  A    between atoms: C_14  and  CA_17
    9  A    between atoms: C_16  and  C_23
   10  A    between atoms: C_16  and  C_47
   11  A    between atoms: C_19  and  C_22
   12  A    between atoms: N_20  and  C_22
   13  A    between atoms: N_20  and  C_49
   14  A    between atoms: C_24  and  C_47
   15  A    between atoms: C_25  and  C_34
   16  A    between atoms: C_25  and  N_41
   17  A    between atoms: C_28  and  C_32
   18  A    between atoms: C_29  and  C_38
   19  A    between atoms: C_30  and  C_31
   20  A    between atoms: C_32  and  N_45
   21  A    between atoms: C_33  and  C_35
   22  A    between atoms: C_34  and  C_35
   23  A    between atoms: C_35  and  N_48
   24  A    between atoms: C_46  and  C_47
                            x       y       z     vdW  Elec       q    Type
                         _______ _______ _______ _____ _____    ______ ____

>  <TORSDO>
F 24

$$$$
=
 OpenBabel11042422123D

 50 54  0  0  1  0  0  0  0  0999 V2000
  160.6440  202.4120  146.7570 C   0  0  0  0  0  0  0  0  0  0  0  0
  161.1190  201.2690  148.5820 N   0  0  0  0  0  0  0  0  0  0  0  0
  161.0190  201.1790  147.2450 C   0  0  0  0  0  0  0  0  0  0  0  0
  160.8200  202.5250  148.8780 N   0  0  0  0  0  0  0  0  0  0  0  0
  160.5130  203.2450  147.8030 N   0  0  0  0  0  0  0  0  0  0  0  0
  161.4510  199.0130  145.8820 N   0  0  0  0  0  0  0  0  0  0  0  0
  161.2590  199.9800  146.4880 C   0  0  0  0  0  0  0  0  0  0  0  0
  160.7380  203.0160  150.2510 C   0  0  1  0  0  3  0  0  0  0  0  0
  162.3130  202.0450  151.9350 C   0  0  0  0  0  1  0  0  0  0  0  0
  160.9530  201.9080  151.2770 C   0  0  0  0  0  2  0  0  0  0  0  0
  161.6690  204.2090  150.4610 C   0  0  0  0  0  2  0  0  0  0  0  0
  160.9300  205.4690  150.8860 C   0  0  0  0  0  2  0  0  0  0  0  0
  160.9000  207.3070  154.3140 N   0  0  0  0  0  0  0  0  0  0  0  0
  160.8190  206.6730  153.0860 C   0  0  0  0  0  0  0  0  0  0  0  0
  160.7740  208.0160  153.1400 N   0  0  0  0  0  0  0  0  0  0  0  0
  160.7710  205.4670  152.3310 N   0  0  0  0  0  2  0  0  0  0  0  0
  161.0300  207.2600  155.7070 N   0  0  0  0  0  2  0  0  0  0  0  0
  161.9470  208.3220  156.0970 C   0  0  0  0  0  2  0  0  0  0  0  0
  159.8720  212.1630  154.6450 N   0  0  0  0  0  2  0  0  0  0  0  0
  159.6730  209.2730  156.4820 C   0  0  0  0  0  2  0  0  0  0  0  0
  159.2490  210.5640  156.0070 N   0  0  2  0  0  0  0  0  0  0  0  0
  158.0530  210.7350  155.2310 C   0  0  0  0  0  2  0  0  0  0  0  0
  161.1800  209.5040  156.6720 C   0  0  2  0  0  3  0  0  0  0  0  0
  161.4400  210.7790  155.8520 C   0  0  0  0  0  2  0  0  0  0  0  0
  160.2250  210.8830  155.0790 N   0  0  2  0  0  0  0  0  0  0  0  0
  158.4190  212.0120  154.4630 C   0  0  0  0  0  2  0  0  0  0  0  0
  160.3780  202.7890  145.3420 C   0  0  0  0  0  2  0  0  0  0  0  0
  161.3950  203.7140  144.8760 N   0  0  0  0  0  2  0  0  0  0  0  0
  160.9190  205.0510  145.2020 C   0  0  0  0  0  2  0  0  0  0  0  0
  162.0200  205.8890  145.8510 C   0  0  1  0  0  3  0  0  0  0  0  0
  161.7370  206.1790  147.3160 C   0  0  1  0  0  3  0  0  0  0  0  0
  163.0890  206.1880  147.9880 C   0  0  0  0  0  2  0  0  0  0  0  0
  163.9300  205.2070  147.2010 C   0  0  0  0  0  2  0  0  0  0  0  0
  163.3730  205.1930  145.7890 C   0  0  0  0  0  2  0  0  0  0  0  0
  161.0560  207.5270  147.4900 C   0  0  0  0  0  2  0  0  0  0  0  0
  161.5890  208.1920  148.6660 N   0  0  0  0  0  2  0  0  0  0  0  0
  161.9510  209.5460  148.2710 C   0  0  0  0  0  2  0  0  0  0  0  0
  161.5790  210.5500  149.3640 C   0  0  1  0  0  3  0  0  0  0  0  0
  162.3920  210.3500  150.4810 O   0  0  0  0  0  0  0  0  0  0  0  0
  161.5300  210.4640  151.5730 C   0  0  0  0  0  1  0  0  0  0  0  0
  161.6560  212.0220  148.9140 C   0  0  2  0  0  3  0  0  0  0  0  0
  160.4220  212.8040  149.3370 C   0  0  0  0  0  2  0  0  0  0  0  0
  160.8200  214.0260  150.1400 C   0  0  0  0  0  1  0  0  0  0  0  0
  161.8780  212.1760  147.4140 C   0  0  0  0  0  2  0  0  0  0  0  0
  160.6020  212.2980  146.7290 N   0  0  0  0  0  2  0  0  0  0  0  0
  161.7160  213.7560  145.1410 C   0  0  0  0  0  1  0  0  0  0  0  0
  160.8870  212.5000  145.3170 C   0  0  2  0  0  3  0  0  0  0  0  0
  158.4380  212.9670  145.1960 O   0  0  0  0  0  1  0  0  0  0  0  0
  159.6140  212.6150  144.5420 C   0  0  0  0  0  0  0  0  0  0  0  0
  159.5890  212.3590  143.3090 O   0  0  0  0  0  0  0  0  0  0  0  0
  1  3  1  0  0  0  0
  1  5  2  0  0  0  0
  2  4  1  0  0  0  0
  3  2  2  0  0  0  0
  4  8  1  0  0  0  0
  5  4  1  0  0  0  0
  6  7  3  0  0  0  0
  7  3  1  0  0  0  0
  8 11  1  6  0  0  0
  8 10  1  0  0  0  0
 10  9  1  0  0  0  0
 11 12  1  0  0  0  0
 12 16  1  0  0  0  0
 13 17  1  0  0  0  0
 14 15  2  0  0  0  0
 14 13  1  0  0  0  0
 15 13  1  0  0  0  0
 16 14  1  0  0  0  0
 17 18  1  0  0  0  0
 19 25  1  0  0  0  0
 20 23  1  0  0  0  0
 21 22  1  6  0  0  0
 21 20  1  0  0  0  0
 23 18  1  6  0  0  0
 24 23  1  0  0  0  0
 25 24  1  1  0  0  0
 25 21  1  0  0  0  0
 26 19  1  0  0  0  0
 26 22  1  0  0  0  0
 27  1  1  0  0  0  0
 28 29  1  0  0  0  0
 28 27  1  0  0  0  0
 30 29  1  1  0  0  0
 30 31  1  0  0  0  0
 31 35  1  6  0  0  0
 31 32  1  0  0  0  0
 33 32  1  0  0  0  0
 34 30  1  0  0  0  0
 34 33  1  0  0  0  0
 35 36  1  0  0  0  0
 37 36  1  0  0  0  0
 38 37  1  6  0  0  0
 38 39  1  0  0  0  0
 39 40  1  0  0  0  0
 41 44  1  6  0  0  0
 41 42  1  0  0  0  0
 41 38  1  0  0  0  0
 42 43  1  0  0  0  0
 45 44  1  0  0  0  0
 47 46  1  1  0  0  0
 47 45  1  0  0  0  0
 49 48  1  0  0  0  0
 49 47  1  0  0  0  0
 50 49  2  0  0  0  0
M  END
>  <MODEL>
8

>  <REMARK>
 VINA RESULT:      -3.3      1.909      3.223
  Name = 
  24 active torsions:
  status: ('A' for Active; 'I' for Inactive)
    1  A    between atoms: O_2  and  C_16
    2  A    between atoms: N_5  and  CA_17
    3  A    between atoms: N_5  and  C_46
    4  A    between atoms: N_6  and  C_23
    5  A    between atoms: N_6  and  C_31
    6  A    between atoms: N_7  and  N_45
    7  A    between atoms: C_9  and  C_49
    8  A    between atoms: C_14  and  CA_17
    9  A    between atoms: C_16  and  C_23
   10  A    between atoms: C_16  and  C_47
   11  A    between atoms: C_19  and  C_22
   12  A    between atoms: N_20  and  C_22
   13  A    between atoms: N_20  and  C_49
   14  A    between atoms: C_24  and  C_47
   15  A    between atoms: C_25  and  C_34
   16  A    between atoms: C_25  and  N_41
   17  A    between atoms: C_28  and  C_32
   18  A    between atoms: C_29  and  C_38
   19  A    between atoms: C_30  and  C_31
   20  A    between atoms: C_32  and  N_45
   21  A    between atoms: C_33  and  C_35
   22  A    between atoms: C_34  and  C_35
   23  A    between atoms: C_35  and  N_48
   24  A    between atoms: C_46  and  C_47
                            x       y       z     vdW  Elec       q    Type
                         _______ _______ _______ _____ _____    ______ ____

>  <TORSDO>
F 24

$$$$
=
 OpenBabel11042422123D

 50 54  0  0  1  0  0  0  0  0999 V2000
  161.7700  211.1790  149.8150 C   0  0  0  0  0  0  0  0  0  0  0  0
  161.9470  209.7350  148.1580 N   0  0  0  0  0  0  0  0  0  0  0  0
  161.6870  211.0220  148.4480 C   0  0  0  0  0  0  0  0  0  0  0  0
  162.1860  209.1480  149.3210 N   0  0  0  0  0  0  0  0  0  0  0  0
  162.0740  209.9840  150.3490 N   0  0  0  0  0  0  0  0  0  0  0  0
  161.1180  212.8420  146.6890 N   0  0  0  0  0  0  0  0  0  0  0  0
  161.3700  212.0300  147.4730 C   0  0  0  0  0  0  0  0  0  0  0  0
  162.4360  207.7150  149.4470 C   0  0  1  0  0  3  0  0  0  0  0  0
  160.7830  207.4010  151.2980 C   0  0  0  0  0  1  0  0  0  0  0  0
  161.2010  206.9490  149.9130 C   0  0  0  0  0  2  0  0  0  0  0  0
  163.0340  207.1500  148.1600 C   0  0  0  0  0  2  0  0  0  0  0  0
  161.9790  206.6260  147.1970 C   0  0  0  0  0  2  0  0  0  0  0  0
  160.9620  203.2270  145.6030 N   0  0  0  0  0  0  0  0  0  0  0  0
  161.3890  204.4450  146.1030 C   0  0  0  0  0  0  0  0  0  0  0  0
  160.6860  204.4120  144.9580 N   0  0  0  0  0  0  0  0  0  0  0  0
  162.1010  205.1810  147.0920 N   0  0  0  0  0  2  0  0  0  0  0  0
  160.8680  201.8330  145.6950 N   0  0  0  0  0  2  0  0  0  0  0  0
  161.5600  201.4270  146.9100 C   0  0  0  0  0  2  0  0  0  0  0  0
  161.5800  201.7110  151.5020 N   0  0  0  0  0  2  0  0  0  0  0  0
  160.2060  202.7500  148.5350 C   0  0  0  0  0  2  0  0  0  0  0  0
  160.3070  202.6150  149.9660 N   0  0  2  0  0  0  0  0  0  0  0  0
  160.5320  203.7440  150.8240 C   0  0  0  0  0  2  0  0  0  0  0  0
  160.5830  201.3350  148.0740 C   0  0  2  0  0  3  0  0  0  0  0  0
  161.2640  200.7350  149.3160 C   0  0  0  0  0  2  0  0  0  0  0  0
  161.4880  201.9120  150.1230 N   0  0  2  0  0  0  0  0  0  0  0  0
  161.2060  203.0410  152.0090 C   0  0  0  0  0  2  0  0  0  0  0  0
  161.5300  212.4180  150.6050 C   0  0  0  0  0  2  0  0  0  0  0  0
  160.7640  213.3670  149.8170 N   0  0  0  0  0  2  0  0  0  0  0  0
  160.0020  214.1690  150.7640 C   0  0  0  0  0  2  0  0  0  0  0  0
  158.6790  213.4950  151.1230 C   0  0  1  0  0  3  0  0  0  0  0  0
  158.5460  213.2450  152.6170 C   0  0  1  0  0  3  0  0  0  0  0  0
  157.0780  213.4230  152.9200 C   0  0  0  0  0  2  0  0  0  0  0  0
  156.5890  214.4530  151.9270 C   0  0  0  0  0  2  0  0  0  0  0  0
  157.4810  214.3360  150.7050 C   0  0  0  0  0  2  0  0  0  0  0  0
  158.9910  211.8390  152.9840 C   0  0  0  0  0  2  0  0  0  0  0  0
  160.2450  211.9010  153.7130 N   0  0  0  0  0  2  0  0  0  0  0  0
  160.7980  210.5540  153.7400 C   0  0  0  0  0  2  0  0  0  0  0  0
  161.4170  210.2470  155.1050 C   0  0  1  0  0  3  0  0  0  0  0  0
  161.7320  211.4390  155.7580 O   0  0  0  0  0  0  0  0  0  0  0  0
  162.7810  211.1100  156.6160 C   0  0  0  0  0  1  0  0  0  0  0  0
  160.5310  209.3690  156.0110 C   0  0  2  0  0  3  0  0  0  0  0  0
  159.8340  208.2720  155.2200 C   0  0  0  0  0  2  0  0  0  0  0  0
  160.7540  207.0810  155.0430 C   0  0  0  0  0  1  0  0  0  0  0  0
  159.5040  210.1730  156.7990 C   0  0  0  0  0  2  0  0  0  0  0  0
  158.1990  210.0740  156.1680 N   0  0  0  0  0  2  0  0  0  0  0  0
  158.2710  212.3500  157.0050 C   0  0  0  0  0  1  0  0  0  0  0  0
  157.7300  211.4300  155.9300 C   0  0  2  0  0  3  0  0  0  0  0  0
  155.5430  211.3500  154.7280 O   0  0  0  0  0  0  0  0  0  0  0  0
  156.2350  211.4690  155.9280 C   0  0  0  0  0  0  0  0  0  0  0  0
  155.5980  211.6470  157.0000 O   0  0  0  0  0  1  0  0  0  0  0  0
  1  5  2  0  0  0  0
  1 27  1  0  0  0  0
  2  3  2  0  0  0  0
  2  4  1  0  0  0  0
  3  1  1  0  0  0  0
  4  8  1  0  0  0  0
  4  5  1  0  0  0  0
  6  7  3  0  0  0  0
  7  3  1  0  0  0  0
  8 11  1  6  0  0  0
  8 10  1  0  0  0  0
 10  9  1  0  0  0  0
 12 11  1  0  0  0  0
 13 17  1  0  0  0  0
 13 14  1  0  0  0  0
 14 16  1  0  0  0  0
 15 13  1  0  0  0  0
 15 14  2  0  0  0  0
 16 12  1  0  0  0  0
 17 18  1  0  0  0  0
 19 26  1  0  0  0  0
 21 20  1  6  0  0  0
 21 25  1  0  0  0  0
 21 22  1  0  0  0  0
 22 26  1  0  0  0  0
 23 18  1  6  0  0  0
 23 20  1  0  0  0  0
 23 24  1  0  0  0  0
 25 24  1  6  0  0  0
 25 19  1  0  0  0  0
 28 27  1  0  0  0  0
 28 29  1  0  0  0  0
 30 29  1  1  0  0  0
 30 31  1  0  0  0  0
 31 32  1  0  0  0  0
 31 35  1  6  0  0  0
 33 32  1  0  0  0  0
 34 30  1  0  0  0  0
 34 33  1  0  0  0  0
 35 36  1  0  0  0  0
 36 37  1  0  0  0  0
 38 37  1  6  0  0  0
 38 39  1  0  0  0  0
 38 41  1  0  0  0  0
 39 40  1  0  0  0  0
 41 42  1  6  0  0  0
 41 44  1  0  0  0  0
 43 42  1  0  0  0  0
 45 44  1  0  0  0  0
 47 45  1  0  0  0  0
 47 46  1  1  0  0  0
 48 49  2  0  0  0  0
 49 47  1  0  0  0  0
 49 50  1  0  0  0  0
M  END
>  <MODEL>
9

>  <REMARK>
 VINA RESULT:      -3.3      3.658      9.615
  Name = 
  24 active torsions:
  status: ('A' for Active; 'I' for Inactive)
    1  A    between atoms: O_2  and  C_16
    2  A    between atoms: N_5  and  CA_17
    3  A    between atoms: N_5  and  C_46
    4  A    between atoms: N_6  and  C_23
    5  A    between atoms: N_6  and  C_31
    6  A    between atoms: N_7  and  N_45
    7  A    between atoms: C_9  and  C_49
    8  A    between atoms: C_14  and  CA_17
    9  A    between atoms: C_16  and  C_23
   10  A    between atoms: C_16  and  C_47
   11  A    between atoms: C_19  and  C_22
   12  A    between atoms: N_20  and  C_22
   13  A    between atoms: N_20  and  C_49
   14  A    between atoms: C_24  and  C_47
   15  A    between atoms: C_25  and  C_34
   16  A    between atoms: C_25  and  N_41
   17  A    between atoms: C_28  and  C_32
   18  A    between atoms: C_29  and  C_38
   19  A    between atoms: C_30  and  C_31
   20  A    between atoms: C_32  and  N_45
   21  A    between atoms: C_33  and  C_35
   22  A    between atoms: C_34  and  C_35
   23  A    between atoms: C_35  and  N_48
   24  A    between atoms: C_46  and  C_47
                            x       y       z     vdW  Elec       q    Type
                         _______ _______ _______ _____ _____    ______ ____

>  <TORSDO>
F 24

$$$$
