=
 OpenBabel11052410523D

 28 31  0  0  1  0  0  0  0  0999 V2000
  161.8810  209.7060  151.8690 C   0  0  0  0  0  3  0  0  0  0  0  0
  161.9560  209.9490  149.3800 C   0  0  0  0  0  0  0  0  0  0  0  0
  161.7120  208.5090  149.2080 C   0  0  0  0  0  3  0  0  0  0  0  0
  161.2040  205.4960  148.9440 C   0  0  0  0  0  0  0  0  0  0  0  0
  160.9650  204.1130  149.3250 C   0  0  0  0  0  0  0  0  0  0  0  0
  162.0340  210.4970  150.5960 C   0  0  0  0  0  3  0  0  0  0  0  0
  160.9270  204.0110  150.8290 C   0  0  0  0  0  2  0  0  0  0  0  0
  161.2920  205.9270  147.7640 O   0  0  0  0  0  0  0  0  0  0  0  0
  161.1650  205.4430  151.2210 C   0  0  0  0  0  0  0  0  0  0  0  0
  161.0650  205.0670  153.5530 O   0  0  0  0  0  1  0  0  0  0  0  0
  161.3250  206.3000  150.1030 N   0  0  0  0  0  0  0  0  0  0  0  0
  161.2290  205.9230  152.4680 C   0  0  0  0  0  0  0  0  0  0  0  0
  161.6320  208.2310  151.6440 C   0  0  0  0  0  0  0  0  0  0  0  0
  161.5600  207.7020  150.2590 C   0  0  1  0  0  3  0  0  0  0  0  0
  161.4730  207.3800  152.6890 C   0  0  0  0  0  0  0  0  0  0  0  0
  160.8120  203.1450  148.4680 N   0  0  0  0  0  0  0  0  0  0  0  0
  162.1130  210.7720  148.2310 N   0  0  0  0  0  1  0  0  0  0  0  0
  160.5730  201.7570  148.7470 C   0  0  0  0  0  0  0  0  0  0  0  0
  159.5490  201.4380  149.4040 O   0  0  0  0  0  0  0  0  0  0  0  0
  161.4870  200.6710  148.2890 C   0  0  0  0  0  1  0  0  0  0  0  0
  161.5600  207.8750  154.1010 C   0  0  0  0  0  2  0  0  0  0  0  0
  160.0490  209.1480  155.7500 C   0  0  2  0  0  3  0  0  0  0  0  0
  160.1630  208.1250  154.6620 C   0  0  1  0  0  3  0  0  0  0  0  0
  159.7780  209.4540  154.4010 O   0  0  0  0  0  0  0  0  0  0  0  0
  161.2470  211.0770  157.2610 O   0  0  0  0  0  1  0  0  0  0  0  0
  162.3680  210.6820  154.9350 O   0  0  0  0  0  0  0  0  0  0  0  0
  161.5910  209.9890  156.2690 P   0  0  0  0  0  0  0  0  0  0  0  0
  162.6260  208.8730  157.0070 O   0  0  0  0  0  1  0  0  0  0  0  0
  2  6  1  0  0  0  0
  3  2  2  0  0  0  0
  4  5  1  0  0  0  0
  4 11  1  0  0  0  0
  5  7  1  0  0  0  0
  6  1  2  0  0  0  0
  7  9  1  0  0  0  0
  8  4  2  0  0  0  0
  9 12  2  0  0  0  0
 11 14  1  0  0  0  0
 11  9  1  0  0  0  0
 12 15  1  0  0  0  0
 12 10  1  0  0  0  0
 13  1  1  0  0  0  0
 13 15  2  0  0  0  0
 14  3  1  1  0  0  0
 14 13  1  0  0  0  0
 15 21  1  0  0  0  0
 16 18  1  0  0  0  0
 16  5  2  0  0  0  0
 17  2  1  0  0  0  0
 18 19  2  0  0  0  0
 20 18  1  0  0  0  0
 22 27  1  6  0  0  0
 23 21  1  6  0  0  0
 23 22  1  0  0  0  0
 24 23  1  0  0  0  0
 24 22  1  0  0  0  0
 26 27  2  0  0  0  0
 27 28  1  0  0  0  0
 27 25  1  0  0  0  0
M  END
>  <MODEL>
1

>  <REMARK>
 VINA RESULT:      -8.3      0.000      0.000
  Name = 
  4 active torsions:
  status: ('A' for Active; 'I' for Inactive)
    1  A    between atoms: C_3  and  P_13
    2  A    between atoms: C_8  and  N_26
    3  A    between atoms: C_9  and  C_27
    4  A    between atoms: C_22  and  C_27
                            x       y       z     vdW  Elec       q    Type
                         _______ _______ _______ _____ _____    ______ ____

>  <TORSDO>
F 4

$$$$
=
 OpenBabel11052410523D

 28 31  0  0  1  0  0  0  0  0999 V2000
  161.1010  203.8650  148.6100 C   0  0  0  0  0  2  0  0  0  0  0  0
  160.8570  202.7790  150.8510 C   0  0  0  0  0  0  0  0  0  0  0  0
  160.9350  204.0870  151.5190 C   0  0  0  0  0  3  0  0  0  0  0  0
  161.1100  206.8560  152.8290 C   0  0  0  0  0  0  0  0  0  0  0  0
  161.2370  208.2980  152.9590 C   0  0  0  0  0  0  0  0  0  0  0  0
  160.9330  202.6770  149.5200 C   0  0  0  0  0  3  0  0  0  0  0  0
  161.3810  208.9110  151.5900 C   0  0  0  0  0  2  0  0  0  0  0  0
  160.9730  206.0410  153.7790 O   0  0  0  0  0  0  0  0  0  0  0  0
  161.3220  207.6870  150.7180 C   0  0  0  0  0  0  0  0  0  0  0  0
  161.5560  208.8460  148.6710 O   0  0  0  0  0  1  0  0  0  0  0  0
  161.1630  206.4900  151.4610 N   0  0  0  0  0  0  0  0  0  0  0  0
  161.4040  207.6600  149.3840 C   0  0  0  0  0  0  0  0  0  0  0  0
  161.1760  205.1870  149.3390 C   0  0  0  0  0  0  0  0  0  0  0  0
  161.0830  205.2140  150.8210 C   0  0  0  0  0  0  0  0  0  0  0  0
  161.3270  206.3540  148.6630 C   0  0  0  0  0  0  0  0  0  0  0  0
  161.2230  208.9220  154.1020 N   0  0  0  0  0  0  0  0  0  0  0  0
  160.6990  201.6040  151.6350 N   0  0  0  0  0  1  0  0  0  0  0  0
  161.3410  210.3350  154.3310 C   0  0  0  0  0  0  0  0  0  0  0  0
  162.3950  210.7790  154.8540 O   0  0  0  0  0  0  0  0  0  0  0  0
  160.2650  211.3050  153.9750 C   0  0  0  0  0  1  0  0  0  0  0  0
  161.4450  206.3630  147.1690 C   0  0  0  0  0  2  0  0  0  0  0  0
  162.4540  204.7710  145.4170 C   0  0  2  0  0  3  0  0  0  0  0  0
  162.6110  205.4830  146.7250 C   0  0  1  0  0  3  0  0  0  0  0  0
  163.1570  205.9870  145.5290 O   0  0  0  0  0  0  0  0  0  0  0  0
  161.2260  205.5240  143.1010 O   0  0  0  0  0  0  0  0  0  0  0  0
  159.9490  206.2190  145.2710 O   0  0  0  0  0  1  0  0  0  0  0  0
  160.8950  205.0480  144.4970 P   0  0  0  0  0  0  0  0  0  0  0  0
  160.0290  203.5990  144.3980 O   0  0  0  0  0  1  0  0  0  0  0  0
  1 13  1  0  0  0  0
  1  6  1  0  0  0  0
  2  3  1  0  0  0  0
  2 17  1  0  0  0  0
  4  5  1  0  0  0  0
  4  8  2  0  0  0  0
  5 16  2  0  0  0  0
  6  2  2  0  0  0  0
  7  5  1  0  0  0  0
  9 11  1  0  0  0  0
  9  7  1  0  0  0  0
 10 12  1  0  0  0  0
 11  4  1  0  0  0  0
 12  9  2  0  0  0  0
 13 14  1  0  0  0  0
 14 11  1  0  0  0  0
 14  3  2  0  0  0  0
 15 13  2  0  0  0  0
 15 12  1  0  0  0  0
 16 18  1  0  0  0  0
 18 19  2  0  0  0  0
 20 18  1  0  0  0  0
 21 15  1  0  0  0  0
 22 27  1  6  0  0  0
 22 24  1  0  0  0  0
 22 23  1  0  0  0  0
 23 21  1  6  0  0  0
 24 23  1  0  0  0  0
 25 27  2  0  0  0  0
 27 26  1  0  0  0  0
 28 27  1  0  0  0  0
M  END
>  <MODEL>
2

>  <REMARK>
 VINA RESULT:      -7.8      3.353      8.458
  Name = 
  4 active torsions:
  status: ('A' for Active; 'I' for Inactive)
    1  A    between atoms: C_3  and  P_13
    2  A    between atoms: C_8  and  N_26
    3  A    between atoms: C_9  and  C_27
    4  A    between atoms: C_22  and  C_27
                            x       y       z     vdW  Elec       q    Type
                         _______ _______ _______ _____ _____    ______ ____

>  <TORSDO>
F 4

$$$$
=
 OpenBabel11052410523D

 28 31  0  0  1  0  0  0  0  0999 V2000
  160.8810  204.8230  151.9680 C   0  0  0  0  0  3  0  0  0  0  0  0
  161.2360  206.4840  153.8050 C   0  0  0  0  0  0  0  0  0  0  0  0
  161.4550  207.5580  152.8240 C   0  0  0  0  0  3  0  0  0  0  0  0
  161.9040  209.7330  150.7090 C   0  0  0  0  0  0  0  0  0  0  0  0
  162.0320  210.3630  149.4050 C   0  0  0  0  0  0  0  0  0  0  0  0
  160.9730  205.2330  153.4140 C   0  0  0  0  0  3  0  0  0  0  0  0
  161.8120  209.3310  148.3290 C   0  0  0  0  0  2  0  0  0  0  0  0
  162.0280  210.3130  151.8200 O   0  0  0  0  0  0  0  0  0  0  0  0
  161.5570  208.1010  149.1570 C   0  0  0  0  0  0  0  0  0  0  0  0
  161.2410  206.6450  147.3220 O   0  0  0  0  0  1  0  0  0  0  0  0
  161.6150  208.3560  150.5510 N   0  0  0  0  0  0  0  0  0  0  0  0
  161.2970  206.8740  148.6940 C   0  0  0  0  0  0  0  0  0  0  0  0
  161.1140  205.9580  150.9950 C   0  0  0  0  0  0  0  0  0  0  0  0
  161.4000  207.3200  151.5130 C   0  0  1  0  0  3  0  0  0  0  0  0
  161.0650  205.7540  149.6550 C   0  0  0  0  0  0  0  0  0  0  0  0
  162.2970  211.6270  149.2370 N   0  0  0  0  0  0  0  0  0  0  0  0
  161.3040  206.7830  155.1930 N   0  0  0  0  0  1  0  0  0  0  0  0
  162.4410  212.3370  147.9970 C   0  0  0  0  0  0  0  0  0  0  0  0
  163.5980  212.5310  147.5420 O   0  0  0  0  0  0  0  0  0  0  0  0
  161.2780  212.8560  147.2220 C   0  0  0  0  0  1  0  0  0  0  0  0
  160.8000  204.3880  149.0970 C   0  0  0  0  0  2  0  0  0  0  0  0
  161.9610  202.6530  147.5930 C   0  0  2  0  0  3  0  0  0  0  0  0
  161.7520  204.0950  147.9410 C   0  0  1  0  0  3  0  0  0  0  0  0
  161.0490  203.4690  146.8950 O   0  0  0  0  0  0  0  0  0  0  0  0
  161.3730  200.0320  148.0660 O   0  0  0  0  0  0  0  0  0  0  0  0
  159.3740  201.6690  148.4500 O   0  0  0  0  0  1  0  0  0  0  0  0
  161.0420  201.4140  148.5800 P   0  0  0  0  0  0  0  0  0  0  0  0
  161.5040  201.5270  150.2040 O   0  0  0  0  0  1  0  0  0  0  0  0
  1  6  2  0  0  0  0
  2 17  1  0  0  0  0
  3  2  2  0  0  0  0
  4  8  2  0  0  0  0
  5  4  1  0  0  0  0
  6  2  1  0  0  0  0
  7  9  1  0  0  0  0
  7  5  1  0  0  0  0
  9 11  1  0  0  0  0
 10 12  1  0  0  0  0
 11  4  1  0  0  0  0
 11 14  1  0  0  0  0
 12  9  2  0  0  0  0
 12 15  1  0  0  0  0
 13 14  1  0  0  0  0
 13  1  1  0  0  0  0
 14  3  1  6  0  0  0
 15 13  2  0  0  0  0
 16  5  2  0  0  0  0
 18 16  1  0  0  0  0
 19 18  2  0  0  0  0
 20 18  1  0  0  0  0
 21 15  1  0  0  0  0
 22 23  1  0  0  0  0
 22 27  1  1  0  0  0
 23 21  1  1  0  0  0
 24 22  1  0  0  0  0
 24 23  1  0  0  0  0
 25 27  2  0  0  0  0
 26 27  1  0  0  0  0
 27 28  1  0  0  0  0
M  END
>  <MODEL>
3

>  <REMARK>
 VINA RESULT:      -7.5      3.359      7.934
  Name = 
  4 active torsions:
  status: ('A' for Active; 'I' for Inactive)
    1  A    between atoms: C_3  and  P_13
    2  A    between atoms: C_8  and  N_26
    3  A    between atoms: C_9  and  C_27
    4  A    between atoms: C_22  and  C_27
                            x       y       z     vdW  Elec       q    Type
                         _______ _______ _______ _____ _____    ______ ____

>  <TORSDO>
F 4

$$$$
=
 OpenBabel11052410523D

 28 31  0  0  1  0  0  0  0  0999 V2000
  161.3880  209.9220  151.6380 C   0  0  0  0  0  3  0  0  0  0  0  0
  162.1100  210.3110  149.2740 C   0  0  0  0  0  0  0  0  0  0  0  0
  161.9540  208.8810  148.9670 C   0  0  0  0  0  3  0  0  0  0  0  0
  161.6070  205.8830  148.4160 C   0  0  0  0  0  0  0  0  0  0  0  0
  161.3090  204.4790  148.6460 C   0  0  0  0  0  0  0  0  0  0  0  0
  161.8510  210.7880  150.4950 C   0  0  0  0  0  3  0  0  0  0  0  0
  160.8790  204.2890  150.0780 C   0  0  0  0  0  2  0  0  0  0  0  0
  161.9920  206.3840  147.3270 O   0  0  0  0  0  0  0  0  0  0  0  0
  160.9710  205.6980  150.5960 C   0  0  0  0  0  0  0  0  0  0  0  0
  160.2700  205.1860  152.7950 O   0  0  0  0  0  1  0  0  0  0  0  0
  161.3990  206.6200  149.6080 N   0  0  0  0  0  0  0  0  0  0  0  0
  160.6930  206.1050  151.8390 C   0  0  0  0  0  0  0  0  0  0  0  0
  161.2430  208.4610  151.2770 C   0  0  0  0  0  0  0  0  0  0  0  0
  161.5500  208.0120  149.8950 C   0  0  1  0  0  3  0  0  0  0  0  0
  160.8340  207.5490  152.1950 C   0  0  0  0  0  0  0  0  0  0  0  0
  161.4110  203.5610  147.7290 N   0  0  0  0  0  0  0  0  0  0  0  0
  162.5430  211.2000  148.2530 N   0  0  0  0  0  1  0  0  0  0  0  0
  161.1400  202.1560  147.8590 C   0  0  0  0  0  0  0  0  0  0  0  0
  160.8420  201.4990  146.8290 O   0  0  0  0  0  0  0  0  0  0  0  0
  161.1980  201.4390  149.1650 C   0  0  0  0  0  1  0  0  0  0  0  0
  160.5350  207.9620  153.6050 C   0  0  0  0  0  2  0  0  0  0  0  0
  161.9500  208.3260  155.7230 C   0  0  2  0  0  3  0  0  0  0  0  0
  161.6260  207.4580  154.5460 C   0  0  1  0  0  3  0  0  0  0  0  0
  161.0790  207.2230  155.8220 O   0  0  0  0  0  0  0  0  0  0  0  0
  161.2900  210.4820  157.2570 O   0  0  0  0  0  1  0  0  0  0  0  0
  159.3340  209.5700  155.7860 O   0  0  0  0  0  1  0  0  0  0  0  0
  160.9940  209.8780  155.9040 P   0  0  0  0  0  0  0  0  0  0  0  0
  161.4520  210.9710  154.6970 O   0  0  0  0  0  0  0  0  0  0  0  0
  2  6  1  0  0  0  0
  3  2  2  0  0  0  0
  4  5  1  0  0  0  0
  4 11  1  0  0  0  0
  5  7  1  0  0  0  0
  6  1  2  0  0  0  0
  7  9  1  0  0  0  0
  8  4  2  0  0  0  0
  9 12  2  0  0  0  0
 11 14  1  0  0  0  0
 11  9  1  0  0  0  0
 12 15  1  0  0  0  0
 12 10  1  0  0  0  0
 13  1  1  0  0  0  0
 13 15  2  0  0  0  0
 14  3  1  1  0  0  0
 14 13  1  0  0  0  0
 15 21  1  0  0  0  0
 16 18  1  0  0  0  0
 16  5  2  0  0  0  0
 17  2  1  0  0  0  0
 18 20  1  0  0  0  0
 19 18  2  0  0  0  0
 22 24  1  0  0  0  0
 22 27  1  6  0  0  0
 23 21  1  6  0  0  0
 23 22  1  0  0  0  0
 23 24  1  0  0  0  0
 26 27  1  0  0  0  0
 27 25  1  0  0  0  0
 28 27  2  0  0  0  0
M  END
>  <MODEL>
4

>  <REMARK>
 VINA RESULT:      -6.7      1.111      1.467
  Name = 
  4 active torsions:
  status: ('A' for Active; 'I' for Inactive)
    1  A    between atoms: C_3  and  P_13
    2  A    between atoms: C_8  and  N_26
    3  A    between atoms: C_9  and  C_27
    4  A    between atoms: C_22  and  C_27
                            x       y       z     vdW  Elec       q    Type
                         _______ _______ _______ _____ _____    ______ ____

>  <TORSDO>
F 4

$$$$
=
 OpenBabel11052410523D

 28 31  0  0  1  0  0  0  0  0999 V2000
  161.4570  210.6910  151.9510 C   0  0  0  0  0  3  0  0  0  0  0  0
  161.9660  210.5450  149.5060 C   0  0  0  0  0  0  0  0  0  0  0  0
  161.7900  209.0850  149.5320 C   0  0  0  0  0  3  0  0  0  0  0  0
  161.4080  206.0450  149.6790 C   0  0  0  0  0  0  0  0  0  0  0  0
  161.1380  204.7290  150.2350 C   0  0  0  0  0  0  0  0  0  0  0  0
  161.8140  211.2800  150.6110 C   0  0  0  0  0  3  0  0  0  0  0  0
  160.8370  204.8610  151.7060 C   0  0  0  0  0  2  0  0  0  0  0  0
  161.6940  206.2910  148.4780 O   0  0  0  0  0  0  0  0  0  0  0  0
  160.9670  206.3480  151.8950 C   0  0  0  0  0  0  0  0  0  0  0  0
  160.4650  206.3360  154.2040 O   0  0  0  0  0  1  0  0  0  0  0  0
  161.3030  207.0260  150.6960 N   0  0  0  0  0  0  0  0  0  0  0  0
  160.7980  207.0190  153.0380 C   0  0  0  0  0  0  0  0  0  0  0  0
  161.2870  209.1880  151.9310 C   0  0  0  0  0  0  0  0  0  0  0  0
  161.4730  208.4450  150.6590 C   0  0  1  0  0  3  0  0  0  0  0  0
  160.9640  208.5040  153.0570 C   0  0  0  0  0  0  0  0  0  0  0  0
  161.1620  203.6320  149.5340 N   0  0  0  0  0  0  0  0  0  0  0  0
  162.3040  211.1850  148.2820 N   0  0  0  0  0  1  0  0  0  0  0  0
  160.9110  202.2940  149.9900 C   0  0  0  0  0  0  0  0  0  0  0  0
  161.5690  201.8520  150.9660 O   0  0  0  0  0  0  0  0  0  0  0  0
  159.8990  201.4000  149.3570 C   0  0  0  0  0  1  0  0  0  0  0  0
  160.7890  209.2180  154.3640 C   0  0  0  0  0  2  0  0  0  0  0  0
  162.2060  210.6920  155.9250 C   0  0  2  0  0  3  0  0  0  0  0  0
  162.1490  209.5300  154.9830 C   0  0  1  0  0  3  0  0  0  0  0  0
  162.0820  209.3640  156.3790 O   0  0  0  0  0  0  0  0  0  0  0  0
  160.8940  212.6750  157.2610 O   0  0  0  0  0  1  0  0  0  0  0  0
  159.4560  210.5390  156.8240 O   0  0  0  0  0  1  0  0  0  0  0  0
  160.6420  211.5940  156.2360 P   0  0  0  0  0  0  0  0  0  0  0  0
  160.1020  212.3050  154.7990 O   0  0  0  0  0  0  0  0  0  0  0  0
  2  3  2  0  0  0  0
  2  6  1  0  0  0  0
  4  5  1  0  0  0  0
  4 11  1  0  0  0  0
  5  7  1  0  0  0  0
  6  1  2  0  0  0  0
  7  9  1  0  0  0  0
  8  4  2  0  0  0  0
  9 12  2  0  0  0  0
 11  9  1  0  0  0  0
 12 15  1  0  0  0  0
 12 10  1  0  0  0  0
 13  1  1  0  0  0  0
 13 15  2  0  0  0  0
 14  3  1  1  0  0  0
 14 11  1  0  0  0  0
 14 13  1  0  0  0  0
 15 21  1  0  0  0  0
 16 18  1  0  0  0  0
 16  5  2  0  0  0  0
 17  2  1  0  0  0  0
 18 19  2  0  0  0  0
 20 18  1  0  0  0  0
 22 27  1  6  0  0  0
 22 24  1  0  0  0  0
 23 21  1  6  0  0  0
 23 22  1  0  0  0  0
 23 24  1  0  0  0  0
 27 26  1  0  0  0  0
 27 25  1  0  0  0  0
 28 27  2  0  0  0  0
M  END
>  <MODEL>
5

>  <REMARK>
 VINA RESULT:      -6.7      1.413      1.865
  Name = 
  4 active torsions:
  status: ('A' for Active; 'I' for Inactive)
    1  A    between atoms: C_3  and  P_13
    2  A    between atoms: C_8  and  N_26
    3  A    between atoms: C_9  and  C_27
    4  A    between atoms: C_22  and  C_27
                            x       y       z     vdW  Elec       q    Type
                         _______ _______ _______ _____ _____    ______ ____

>  <TORSDO>
F 4

$$$$
=
 OpenBabel11052410523D

 28 31  0  0  1  0  0  0  0  0999 V2000
  161.4680  209.9580  152.9510 C   0  0  0  0  0  3  0  0  0  0  0  0
  160.9740  208.1670  154.6260 C   0  0  0  0  0  0  0  0  0  0  0  0
  161.0020  207.1410  153.5730 C   0  0  0  0  0  3  0  0  0  0  0  0
  161.0740  205.0690  151.3120 C   0  0  0  0  0  0  0  0  0  0  0  0
  161.2040  204.5120  149.9760 C   0  0  0  0  0  0  0  0  0  0  0  0
  161.1870  209.4560  154.3430 C   0  0  0  0  0  3  0  0  0  0  0  0
  161.4990  205.6210  148.9990 C   0  0  0  0  0  2  0  0  0  0  0  0
  160.8280  204.4160  152.3600 O   0  0  0  0  0  0  0  0  0  0  0  0
  161.5170  206.8140  149.9150 C   0  0  0  0  0  0  0  0  0  0  0  0
  161.9890  208.3990  148.2260 O   0  0  0  0  0  1  0  0  0  0  0  0
  161.2660  206.4720  151.2680 N   0  0  0  0  0  0  0  0  0  0  0  0
  161.7400  208.0830  149.5590 C   0  0  0  0  0  0  0  0  0  0  0  0
  161.4860  208.8700  151.9010 C   0  0  0  0  0  0  0  0  0  0  0  0
  161.2400  207.4610  152.3000 C   0  0  1  0  0  3  0  0  0  0  0  0
  161.7240  209.1580  150.5960 C   0  0  0  0  0  0  0  0  0  0  0  0
  161.0770  203.2440  149.7080 N   0  0  0  0  0  0  0  0  0  0  0  0
  160.7170  207.7800  155.9700 N   0  0  0  0  0  1  0  0  0  0  0  0
  161.1870  202.6010  148.4290 C   0  0  0  0  0  0  0  0  0  0  0  0
  161.2720  203.3160  147.3970 O   0  0  0  0  0  0  0  0  0  0  0  0
  161.2060  201.1190  148.2660 C   0  0  0  0  0  1  0  0  0  0  0  0
  161.9560  210.5710  150.1540 C   0  0  0  0  0  2  0  0  0  0  0  0
  161.5180  211.8280  147.9520 C   0  0  2  0  0  3  0  0  0  0  0  0
  162.1050  210.6320  148.6360 C   0  0  1  0  0  3  0  0  0  0  0  0
  162.8850  211.7490  148.2810 O   0  0  0  0  0  0  0  0  0  0  0  0
  161.5850  214.3080  149.0850 O   0  0  0  0  0  1  0  0  0  0  0  0
  160.4710  212.4750  150.5750 O   0  0  0  0  0  1  0  0  0  0  0  0
  160.7050  213.0820  149.0120 P   0  0  0  0  0  0  0  0  0  0  0  0
  159.2110  213.5080  148.3430 O   0  0  0  0  0  0  0  0  0  0  0  0
  1  6  2  0  0  0  0
  2 17  1  0  0  0  0
  3  2  2  0  0  0  0
  4  8  2  0  0  0  0
  5  4  1  0  0  0  0
  6  2  1  0  0  0  0
  7  9  1  0  0  0  0
  7  5  1  0  0  0  0
  9 11  1  0  0  0  0
 10 12  1  0  0  0  0
 11  4  1  0  0  0  0
 11 14  1  0  0  0  0
 12  9  2  0  0  0  0
 12 15  1  0  0  0  0
 13 14  1  0  0  0  0
 13  1  1  0  0  0  0
 14  3  1  6  0  0  0
 15 13  2  0  0  0  0
 16  5  2  0  0  0  0
 18 16  1  0  0  0  0
 19 18  2  0  0  0  0
 20 18  1  0  0  0  0
 21 15  1  0  0  0  0
 22 24  1  0  0  0  0
 22 23  1  0  0  0  0
 22 27  1  1  0  0  0
 23 21  1  1  0  0  0
 24 23  1  0  0  0  0
 27 25  1  0  0  0  0
 27 26  1  0  0  0  0
 28 27  2  0  0  0  0
M  END
>  <MODEL>
6

>  <REMARK>
 VINA RESULT:      -6.5      3.274      5.101
  Name = 
  4 active torsions:
  status: ('A' for Active; 'I' for Inactive)
    1  A    between atoms: C_3  and  P_13
    2  A    between atoms: C_8  and  N_26
    3  A    between atoms: C_9  and  C_27
    4  A    between atoms: C_22  and  C_27
                            x       y       z     vdW  Elec       q    Type
                         _______ _______ _______ _____ _____    ______ ____

>  <TORSDO>
F 4

$$$$
=
 OpenBabel11052410523D

 28 31  0  0  1  0  0  0  0  0999 V2000
  162.0960  209.7750  148.0730 C   0  0  0  0  0  2  0  0  0  0  0  0
  161.7100  211.9820  149.1860 C   0  0  0  0  0  0  0  0  0  0  0  0
  161.5400  211.3220  150.4890 C   0  0  0  0  0  3  0  0  0  0  0  0
  161.1970  209.8620  153.1650 C   0  0  0  0  0  0  0  0  0  0  0  0
  161.1210  208.7730  154.1250 C   0  0  0  0  0  0  0  0  0  0  0  0
  161.9640  211.2760  148.0810 C   0  0  0  0  0  3  0  0  0  0  0  0
  161.3580  207.4650  153.4160 C   0  0  0  0  0  2  0  0  0  0  0  0
  161.0460  211.0840  153.4260 O   0  0  0  0  0  0  0  0  0  0  0  0
  161.5660  207.9370  152.0030 C   0  0  0  0  0  0  0  0  0  0  0  0
  161.9160  205.7860  151.0860 O   0  0  0  0  0  1  0  0  0  0  0  0
  161.4670  209.3450  151.8740 N   0  0  0  0  0  0  0  0  0  0  0  0
  161.8190  207.1670  150.9390 C   0  0  0  0  0  0  0  0  0  0  0  0
  161.9130  209.1400  149.4330 C   0  0  0  0  0  0  0  0  0  0  0  0
  161.6340  209.9970  150.6120 C   0  0  0  0  0  0  0  0  0  0  0  0
  162.0020  207.7950  149.5960 C   0  0  0  0  0  0  0  0  0  0  0  0
  160.8830  208.9460  155.3940 N   0  0  0  0  0  0  0  0  0  0  0  0
  161.6020  213.3980  149.1020 N   0  0  0  0  0  1  0  0  0  0  0  0
  160.7910  207.9400  156.4150 C   0  0  0  0  0  0  0  0  0  0  0  0
  161.7170  207.8480  157.2610 O   0  0  0  0  0  0  0  0  0  0  0  0
  159.6410  206.9960  156.5180 C   0  0  0  0  0  1  0  0  0  0  0  0
  162.2620  206.8970  148.4250 C   0  0  0  0  0  2  0  0  0  0  0  0
  160.9120  205.9240  146.4630 C   0  0  2  0  0  3  0  0  0  0  0  0
  161.1850  207.0910  147.3600 C   0  0  1  0  0  3  0  0  0  0  0  0
  160.1210  206.2000  147.5950 O   0  0  0  0  0  0  0  0  0  0  0  0
  161.4060  203.3230  145.8080 O   0  0  0  0  0  0  0  0  0  0  0  0
  161.6900  203.8650  148.3470 O   0  0  0  0  0  1  0  0  0  0  0  0
  161.8860  204.4000  146.7530 P   0  0  0  0  0  0  0  0  0  0  0  0
  163.5230  204.7080  146.4590 O   0  0  0  0  0  1  0  0  0  0  0  0
  1  6  1  0  0  0  0
  1 13  1  0  0  0  0
  2  3  1  0  0  0  0
  3 14  2  0  0  0  0
  4  8  2  0  0  0  0
  4  5  1  0  0  0  0
  5 16  2  0  0  0  0
  6  2  2  0  0  0  0
  7  5  1  0  0  0  0
  9  7  1  0  0  0  0
 11  9  1  0  0  0  0
 11  4  1  0  0  0  0
 12 10  1  0  0  0  0
 12  9  2  0  0  0  0
 13 15  2  0  0  0  0
 13 14  1  0  0  0  0
 14 11  1  0  0  0  0
 15 12  1  0  0  0  0
 16 18  1  0  0  0  0
 17  2  1  0  0  0  0
 18 20  1  0  0  0  0
 18 19  2  0  0  0  0
 21 15  1  0  0  0  0
 22 27  1  1  0  0  0
 22 23  1  0  0  0  0
 22 24  1  0  0  0  0
 23 24  1  0  0  0  0
 23 21  1  1  0  0  0
 25 27  2  0  0  0  0
 27 26  1  0  0  0  0
 28 27  1  0  0  0  0
M  END
>  <MODEL>
7

>  <REMARK>
 VINA RESULT:      -6.4      3.431      7.142
  Name = 
  4 active torsions:
  status: ('A' for Active; 'I' for Inactive)
    1  A    between atoms: C_3  and  P_13
    2  A    between atoms: C_8  and  N_26
    3  A    between atoms: C_9  and  C_27
    4  A    between atoms: C_22  and  C_27
                            x       y       z     vdW  Elec       q    Type
                         _______ _______ _______ _____ _____    ______ ____

>  <TORSDO>
F 4

$$$$
=
 OpenBabel11052410523D

 28 31  0  0  1  0  0  0  0  0999 V2000
  161.5620  205.8850  148.0800 C   0  0  0  0  0  2  0  0  0  0  0  0
  161.5800  208.3830  148.2220 C   0  0  0  0  0  0  0  0  0  0  0  0
  161.4780  208.3240  149.6880 C   0  0  0  0  0  3  0  0  0  0  0  0
  161.2590  208.1060  152.7400 C   0  0  0  0  0  0  0  0  0  0  0  0
  161.1590  207.5090  154.0620 C   0  0  0  0  0  0  0  0  0  0  0  0
  161.6190  207.2680  147.4860 C   0  0  0  0  0  3  0  0  0  0  0  0
  161.1510  206.0070  153.9310 C   0  0  0  0  0  2  0  0  0  0  0  0
  161.2910  209.3400  152.4920 O   0  0  0  0  0  0  0  0  0  0  0  0
  161.2550  205.8470  152.4400 C   0  0  0  0  0  0  0  0  0  0  0  0
  161.2310  203.4830  152.4550 O   0  0  0  0  0  1  0  0  0  0  0  0
  161.3170  207.0880  151.7560 N   0  0  0  0  0  0  0  0  0  0  0  0
  161.2900  204.6920  151.7670 C   0  0  0  0  0  0  0  0  0  0  0  0
  161.4570  205.8720  149.5880 C   0  0  0  0  0  0  0  0  0  0  0  0
  161.4200  207.1570  150.3320 C   0  0  0  0  0  0  0  0  0  0  0  0
  161.3960  204.7050  150.2770 C   0  0  0  0  0  0  0  0  0  0  0  0
  161.0880  208.2020  155.1620 N   0  0  0  0  0  0  0  0  0  0  0  0
  161.6390  209.6490  147.5780 N   0  0  0  0  0  1  0  0  0  0  0  0
  160.9870  207.7060  156.5060 C   0  0  0  0  0  0  0  0  0  0  0  0
  161.9900  207.7910  157.2610 O   0  0  0  0  0  0  0  0  0  0  0  0
  159.7420  207.0920  157.0510 C   0  0  0  0  0  1  0  0  0  0  0  0
  161.4100  203.3900  149.5580 C   0  0  0  0  0  2  0  0  0  0  0  0
  159.6750  201.7040  148.6830 C   0  0  2  0  0  3  0  0  0  0  0  0
  160.0810  202.6640  149.7570 C   0  0  1  0  0  3  0  0  0  0  0  0
  160.3090  201.2800  149.8670 O   0  0  0  0  0  0  0  0  0  0  0  0
  161.8020  200.3960  147.5860 O   0  0  0  0  0  1  0  0  0  0  0  0
  161.6710  202.9330  146.9800 O   0  0  0  0  0  1  0  0  0  0  0  0
  160.8190  201.4990  147.2670 P   0  0  0  0  0  0  0  0  0  0  0  0
  159.9420  201.0780  145.8840 O   0  0  0  0  0  0  0  0  0  0  0  0
  1 13  1  0  0  0  0
  2  3  1  0  0  0  0
  3 14  2  0  0  0  0
  4  5  1  0  0  0  0
  5 16  2  0  0  0  0
  6  1  1  0  0  0  0
  6  2  2  0  0  0  0
  7  5  1  0  0  0  0
  8  4  2  0  0  0  0
  9  7  1  0  0  0  0
 11  9  1  0  0  0  0
 11  4  1  0  0  0  0
 12  9  2  0  0  0  0
 12 10  1  0  0  0  0
 13 15  2  0  0  0  0
 13 14  1  0  0  0  0
 14 11  1  0  0  0  0
 15 12  1  0  0  0  0
 16 18  1  0  0  0  0
 17  2  1  0  0  0  0
 18 20  1  0  0  0  0
 18 19  2  0  0  0  0
 21 15  1  0  0  0  0
 22 27  1  6  0  0  0
 22 23  1  0  0  0  0
 22 24  1  0  0  0  0
 23 21  1  6  0  0  0
 23 24  1  0  0  0  0
 26 27  1  0  0  0  0
 27 25  1  0  0  0  0
 28 27  2  0  0  0  0
M  END
>  <MODEL>
8

>  <REMARK>
 VINA RESULT:      -5.7      3.037      7.447
  Name = 
  4 active torsions:
  status: ('A' for Active; 'I' for Inactive)
    1  A    between atoms: C_3  and  P_13
    2  A    between atoms: C_8  and  N_26
    3  A    between atoms: C_9  and  C_27
    4  A    between atoms: C_22  and  C_27
                            x       y       z     vdW  Elec       q    Type
                         _______ _______ _______ _____ _____    ______ ____

>  <TORSDO>
F 4

$$$$
=
 OpenBabel11052410523D

 28 31  0  0  1  0  0  0  0  0999 V2000
  160.7860  209.6680  155.0800 C   0  0  0  0  0  3  0  0  0  0  0  0
  160.5390  207.3990  156.1050 C   0  0  0  0  0  0  0  0  0  0  0  0
  160.7030  206.7620  154.7900 C   0  0  0  0  0  3  0  0  0  0  0  0
  161.0500  205.5170  152.0070 C   0  0  0  0  0  0  0  0  0  0  0  0
  161.2530  205.4220  150.5710 C   0  0  0  0  0  0  0  0  0  0  0  0
  160.5770  208.7280  156.2390 C   0  0  0  0  0  3  0  0  0  0  0  0
  161.3970  206.8070  149.9940 C   0  0  0  0  0  2  0  0  0  0  0  0
  160.8950  204.5460  152.7940 O   0  0  0  0  0  0  0  0  0  0  0  0
  161.2550  207.6500  151.2320 C   0  0  0  0  0  0  0  0  0  0  0  0
  161.5090  209.7260  150.1310 O   0  0  0  0  0  1  0  0  0  0  0  0
  161.0520  206.8770  152.4030 N   0  0  0  0  0  0  0  0  0  0  0  0
  161.3050  208.9850  151.2910 C   0  0  0  0  0  0  0  0  0  0  0  0
  160.9490  208.9700  153.7490 C   0  0  0  0  0  0  0  0  0  0  0  0
  160.8950  207.4870  153.6870 C   0  0  1  0  0  3  0  0  0  0  0  0
  161.1460  209.6750  152.6070 C   0  0  0  0  0  0  0  0  0  0  0  0
  161.2970  204.2930  149.9230 N   0  0  0  0  0  0  0  0  0  0  0  0
  160.3360  206.5860  157.2540 N   0  0  0  0  0  1  0  0  0  0  0  0
  161.4910  204.0980  148.5140 C   0  0  0  0  0  0  0  0  0  0  0  0
  161.9390  205.0500  147.8250 O   0  0  0  0  0  0  0  0  0  0  0  0
  161.1860  202.8100  147.8250 C   0  0  0  0  0  1  0  0  0  0  0  0
  161.1860  211.1730  152.6280 C   0  0  0  0  0  2  0  0  0  0  0  0
  159.1190  212.4400  151.7670 C   0  0  2  0  0  3  0  0  0  0  0  0
  160.4040  211.7400  151.4470 C   0  0  1  0  0  3  0  0  0  0  0  0
  160.3240  213.1410  151.5600 O   0  0  0  0  0  0  0  0  0  0  0  0
  157.6200  213.6460  153.7000 O   0  0  0  0  0  0  0  0  0  0  0  0
  159.9940  212.8990  154.4900 O   0  0  0  0  0  1  0  0  0  0  0  0
  158.6440  212.5480  153.5330 P   0  0  0  0  0  0  0  0  0  0  0  0
  157.9680  211.0790  154.0290 O   0  0  0  0  0  1  0  0  0  0  0  0
  1  6  2  0  0  0  0
  2  6  1  0  0  0  0
  2 17  1  0  0  0  0
  3  2  2  0  0  0  0
  4 11  1  0  0  0  0
  4  8  2  0  0  0  0
  5  4  1  0  0  0  0
  7  5  1  0  0  0  0
  7  9  1  0  0  0  0
  9 12  2  0  0  0  0
  9 11  1  0  0  0  0
 10 12  1  0  0  0  0
 11 14  1  0  0  0  0
 12 15  1  0  0  0  0
 13  1  1  0  0  0  0
 14 13  1  0  0  0  0
 14  3  1  6  0  0  0
 15 21  1  0  0  0  0
 15 13  2  0  0  0  0
 16  5  2  0  0  0  0
 18 16  1  0  0  0  0
 19 18  2  0  0  0  0
 20 18  1  0  0  0  0
 22 27  1  1  0  0  0
 23 24  1  0  0  0  0
 23 22  1  0  0  0  0
 23 21  1  1  0  0  0
 24 22  1  0  0  0  0
 27 25  2  0  0  0  0
 27 28  1  0  0  0  0
 27 26  1  0  0  0  0
M  END
>  <MODEL>
9

>  <REMARK>
 VINA RESULT:      -5.6      2.714      4.591
  Name = 
  4 active torsions:
  status: ('A' for Active; 'I' for Inactive)
    1  A    between atoms: C_3  and  P_13
    2  A    between atoms: C_8  and  N_26
    3  A    between atoms: C_9  and  C_27
    4  A    between atoms: C_22  and  C_27
                            x       y       z     vdW  Elec       q    Type
                         _______ _______ _______ _____ _____    ______ ____

>  <TORSDO>
F 4

$$$$
