=
 OpenBabel11052409443D

 31 34  0  0  1  0  0  0  0  0999 V2000
  161.3030  206.4770  151.6090 C   0  0  0  0  0  0  0  0  0  0  0  0
  160.8500  206.9350  153.9240 N   0  0  0  0  0  0  0  0  0  0  0  0
  162.1530  204.1080  151.1850 C   0  0  0  0  0  2  0  0  0  0  0  0
  160.9720  206.0440  152.9120 C   0  0  0  0  0  0  0  0  0  0  0  0
  159.6390  204.1440  149.9020 O   0  0  0  0  0  1  0  0  0  0  0  0
  162.2920  207.0180  148.1360 N   0  0  0  0  0  2  0  0  0  0  0  0
  161.0850  208.2610  153.7580 C   0  0  0  0  0  0  0  0  0  0  0  0
  161.3480  207.6980  148.9120 N   0  0  0  0  0  2  0  0  0  0  0  0
  161.4290  208.7570  152.4870 C   0  0  0  0  0  0  0  0  0  0  0  0
  162.0110  210.6300  151.0600 C   0  0  0  0  0  3  0  0  0  0  0  0
  161.9570  205.7410  147.5770 C   0  0  0  0  0  3  0  0  0  0  0  0
  161.9910  209.8010  149.9380 C   0  0  0  0  0  0  0  0  0  0  0  0
  161.6990  208.4340  150.0800 C   0  0  0  0  0  0  0  0  0  0  0  0
  161.1140  204.8950  148.1880 C   0  0  0  0  0  3  0  0  0  0  0  0
  160.8400  204.6080  153.2100 C   0  0  0  0  0  3  0  0  0  0  0  0
  160.5000  205.1790  149.5320 C   0  0  2  0  0  3  0  0  0  0  0  0
  161.3510  203.6930  152.3860 C   0  0  0  0  0  3  0  0  0  0  0  0
  161.7160  210.1170  152.3170 C   0  0  0  0  0  3  0  0  0  0  0  0
  161.4770  207.8750  151.3730 C   0  0  0  0  0  0  0  0  0  0  0  0
  161.6100  205.4080  150.5700 C   0  0  1  0  0  3  0  0  0  0  0  0
  161.9310  208.9180  155.8970 O   0  0  0  0  0  1  0  0  0  0  0  0
  160.9460  209.1800  154.9420 C   0  0  2  0  0  3  0  0  0  0  0  0
  159.5460  209.1250  155.5600 C   0  0  0  0  0  2  0  0  0  0  0  0
  158.8960  210.4980  155.7170 C   0  0  0  0  0  2  0  0  0  0  0  0
  158.3620  211.5650  153.7110 C   0  0  0  0  0  1  0  0  0  0  0  0
  159.4020  211.4190  154.7130 N   0  0  0  0  0  0  0  0  0  0  0  0
  159.5380  212.7100  155.3610 C   0  0  0  0  0  1  0  0  0  0  0  0
  162.2140  210.3500  148.6360 N   0  0  0  0  0  2  0  0  0  0  0  0
  161.8960  211.6810  148.3320 N   0  0  0  0  0  2  0  0  0  0  0  0
  163.0640  212.3080  148.0610 O   0  0  0  0  0  0  0  0  0  0  0  0
  162.7060  213.6420  147.8720 C   0  0  0  0  0  1  0  0  0  0  0  0
  1  4  1  0  0  0  0
  3 17  1  0  0  0  0
  4 15  1  0  0  0  0
  4  2  2  0  0  0  0
  6  8  1  0  0  0  0
  7  2  1  0  0  0  0
  7 22  1  0  0  0  0
  8 13  1  0  0  0  0
  9  7  2  0  0  0  0
 10 18  2  0  0  0  0
 11  6  1  0  0  0  0
 11 14  2  0  0  0  0
 12 13  2  0  0  0  0
 12 10  1  0  0  0  0
 13 19  1  0  0  0  0
 14 16  1  0  0  0  0
 16  5  1  1  0  0  0
 16 20  1  0  0  0  0
 17 15  2  0  0  0  0
 18  9  1  0  0  0  0
 19  1  2  0  0  0  0
 19  9  1  0  0  0  0
 20  3  1  1  0  0  0
 20  1  1  0  0  0  0
 22 23  1  0  0  0  0
 22 21  1  1  0  0  0
 23 24  1  0  0  0  0
 25 26  1  0  0  0  0
 26 27  1  0  0  0  0
 26 24  1  0  0  0  0
 28 12  1  0  0  0  0
 29 28  1  0  0  0  0
 30 29  1  0  0  0  0
 31 30  1  0  0  0  0
M  END
>  <MODEL>
1

>  <REMARK>
 VINA RESULT:      -6.8      0.000      0.000
  Name = 
  7 active torsions:
  status: ('A' for Active; 'I' for Inactive)
    1  A    between atoms: C_7  and  C_10
    2  A    between atoms: C_7  and  C_11
    3  A    between atoms: N_9  and  N_15
    4  A    between atoms: N_9  and  O_25
    5  A    between atoms: C_11  and  C_13
    6  A    between atoms: C_13  and  N_18
    7  A    between atoms: N_15  and  C_20
                            x       y       z     vdW  Elec       q    Type
                         _______ _______ _______ _____ _____    ______ ____

>  <TORSDO>
F 7

$$$$
=
 OpenBabel11052409443D

 31 34  0  0  1  0  0  0  0  0999 V2000
  161.3360  207.3450  151.4130 C   0  0  0  0  0  0  0  0  0  0  0  0
  161.1570  205.3960  152.8070 N   0  0  0  0  0  0  0  0  0  0  0  0
  160.2710  209.4290  152.4310 C   0  0  0  0  0  2  0  0  0  0  0  0
  161.1930  206.7440  152.6830 C   0  0  0  0  0  0  0  0  0  0  0  0
  163.0220  210.0600  152.3660 O   0  0  0  0  0  1  0  0  0  0  0  0
  161.5170  209.4030  148.4020 N   0  0  0  0  0  2  0  0  0  0  0  0
  161.2020  204.5650  151.7350 C   0  0  0  0  0  0  0  0  0  0  0  0
  162.2890  208.2980  148.7760 N   0  0  0  0  0  2  0  0  0  0  0  0
  161.3350  205.1000  150.4400 C   0  0  0  0  0  0  0  0  0  0  0  0
  161.5150  204.7600  148.0460 C   0  0  0  0  0  3  0  0  0  0  0  0
  161.7870  210.6830  148.9870 C   0  0  0  0  0  3  0  0  0  0  0  0
  161.7270  206.1260  147.8520 C   0  0  0  0  0  0  0  0  0  0  0  0
  161.7360  206.9980  148.9540 C   0  0  0  0  0  0  0  0  0  0  0  0
  162.2620  210.8090  150.2360 C   0  0  0  0  0  3  0  0  0  0  0  0
  160.9940  207.5730  153.8830 C   0  0  0  0  0  3  0  0  0  0  0  0
  162.4910  209.6340  151.1480 C   0  0  2  0  0  3  0  0  0  0  0  0
  160.6040  208.8430  153.7740 C   0  0  0  0  0  3  0  0  0  0  0  0
  161.3380  204.2510  149.3260 C   0  0  0  0  0  3  0  0  0  0  0  0
  161.4720  206.5040  150.2650 C   0  0  0  0  0  0  0  0  0  0  0  0
  161.1770  208.8560  151.3290 C   0  0  1  0  0  3  0  0  0  0  0  0
  162.4130  202.5410  152.1360 O   0  0  0  0  0  1  0  0  0  0  0  0
  161.1360  203.0780  151.9610 C   0  0  2  0  0  3  0  0  0  0  0  0
  160.3770  202.3530  150.8470 C   0  0  0  0  0  2  0  0  0  0  0  0
  161.1170  201.1350  150.3000 C   0  0  0  0  0  2  0  0  0  0  0  0
  159.3240  201.5010  148.8510 C   0  0  0  0  0  1  0  0  0  0  0  0
  160.4510  200.6250  149.1130 N   0  0  0  0  0  0  0  0  0  0  0  0
  161.3770  200.7980  148.0080 C   0  0  0  0  0  1  0  0  0  0  0  0
  161.9910  206.6330  146.5410 N   0  0  0  0  0  2  0  0  0  0  0  0
  162.3010  205.7830  145.4700 N   0  0  0  0  0  2  0  0  0  0  0  0
  161.2550  205.8390  144.6140 O   0  0  0  0  0  0  0  0  0  0  0  0
  160.7980  204.5250  144.5360 C   0  0  0  0  0  1  0  0  0  0  0  0
  1  4  1  0  0  0  0
  3 17  1  0  0  0  0
  4  2  2  0  0  0  0
  4 15  1  0  0  0  0
  6  8  1  0  0  0  0
  6 11  1  0  0  0  0
  7 22  1  0  0  0  0
  7  2  1  0  0  0  0
  8 13  1  0  0  0  0
  9  7  2  0  0  0  0
 10 18  2  0  0  0  0
 11 14  2  0  0  0  0
 12 10  1  0  0  0  0
 12 13  2  0  0  0  0
 13 19  1  0  0  0  0
 14 16  1  0  0  0  0
 16 20  1  0  0  0  0
 16  5  1  1  0  0  0
 17 15  2  0  0  0  0
 18  9  1  0  0  0  0
 19  9  1  0  0  0  0
 19  1  2  0  0  0  0
 20  1  1  0  0  0  0
 20  3  1  1  0  0  0
 22 21  1  6  0  0  0
 23 22  1  0  0  0  0
 24 23  1  0  0  0  0
 25 26  1  0  0  0  0
 26 24  1  0  0  0  0
 27 26  1  0  0  0  0
 28 12  1  0  0  0  0
 29 28  1  0  0  0  0
 30 29  1  0  0  0  0
 31 30  1  0  0  0  0
M  END
>  <MODEL>
2

>  <REMARK>
 VINA RESULT:      -6.5      2.565      6.653
  Name = 
  7 active torsions:
  status: ('A' for Active; 'I' for Inactive)
    1  A    between atoms: C_7  and  C_10
    2  A    between atoms: C_7  and  C_11
    3  A    between atoms: N_9  and  N_15
    4  A    between atoms: N_9  and  O_25
    5  A    between atoms: C_11  and  C_13
    6  A    between atoms: C_13  and  N_18
    7  A    between atoms: N_15  and  C_20
                            x       y       z     vdW  Elec       q    Type
                         _______ _______ _______ _____ _____    ______ ____

>  <TORSDO>
F 7

$$$$
=
 OpenBabel11052409443D

 31 34  0  0  1  0  0  0  0  0999 V2000
  161.0890  204.1330  150.0690 C   0  0  0  0  0  0  0  0  0  0  0  0
  160.9290  205.5960  151.9680 N   0  0  0  0  0  0  0  0  0  0  0  0
  161.8680  201.7750  150.6610 C   0  0  0  0  0  2  0  0  0  0  0  0
  160.9190  204.3430  151.4550 C   0  0  0  0  0  0  0  0  0  0  0  0
  159.2140  201.3900  149.7790 O   0  0  0  0  0  1  0  0  0  0  0  0
  161.6430  203.0160  146.6370 N   0  0  0  0  0  2  0  0  0  0  0  0
  161.1490  206.6950  151.2010 C   0  0  0  0  0  0  0  0  0  0  0  0
  160.8050  204.0260  147.1230 N   0  0  0  0  0  2  0  0  0  0  0  0
  161.3340  206.5540  149.8140 C   0  0  0  0  0  0  0  0  0  0  0  0
  161.7450  207.5600  147.6460 C   0  0  0  0  0  3  0  0  0  0  0  0
  161.2340  201.6470  146.7480 C   0  0  0  0  0  3  0  0  0  0  0  0
  161.5820  206.3220  147.0230 C   0  0  0  0  0  0  0  0  0  0  0  0
  161.3020  205.1800  147.7930 C   0  0  0  0  0  0  0  0  0  0  0  0
  160.4690  201.2120  147.7610 C   0  0  0  0  0  3  0  0  0  0  0  0
  160.8180  203.2000  152.3770 C   0  0  0  0  0  3  0  0  0  0  0  0
  160.0280  202.0990  148.8940 C   0  0  2  0  0  3  0  0  0  0  0  0
  161.2190  201.9850  152.0000 C   0  0  0  0  0  3  0  0  0  0  0  0
  161.6060  207.6770  149.0230 C   0  0  0  0  0  3  0  0  0  0  0  0
  161.2400  205.2680  149.2140 C   0  0  0  0  0  0  0  0  0  0  0  0
  161.2600  202.6970  149.5920 C   0  0  1  0  0  3  0  0  0  0  0  0
  162.3860  208.6900  151.6550 O   0  0  0  0  0  1  0  0  0  0  0  0
  161.1620  208.0500  151.8560 C   0  0  2  0  0  3  0  0  0  0  0  0
  160.8100  207.9810  153.3440 C   0  0  0  0  0  2  0  0  0  0  0  0
  160.7680  209.3480  154.0240 C   0  0  0  0  0  2  0  0  0  0  0  0
  160.2360  207.8030  155.6900 C   0  0  0  0  0  1  0  0  0  0  0  0
  160.5500  209.2000  155.4530 N   0  0  0  0  0  0  0  0  0  0  0  0
  161.8250  209.4540  156.0980 C   0  0  0  0  0  1  0  0  0  0  0  0
  161.6450  206.2220  145.5970 N   0  0  0  0  0  2  0  0  0  0  0  0
  160.4980  206.0010  144.8220 N   0  0  0  0  0  2  0  0  0  0  0  0
  160.8250  205.0650  143.9010 O   0  0  0  0  0  0  0  0  0  0  0  0
  161.5730  205.7590  142.9520 C   0  0  0  0  0  1  0  0  0  0  0  0
  1  4  1  0  0  0  0
  3 17  1  0  0  0  0
  4  2  2  0  0  0  0
  4 15  1  0  0  0  0
  6 11  1  0  0  0  0
  6  8  1  0  0  0  0
  7 22  1  0  0  0  0
  7  2  1  0  0  0  0
  8 13  1  0  0  0  0
  9  7  2  0  0  0  0
 10 18  2  0  0  0  0
 11 14  2  0  0  0  0
 12 10  1  0  0  0  0
 12 13  2  0  0  0  0
 13 19  1  0  0  0  0
 14 16  1  0  0  0  0
 16 20  1  0  0  0  0
 16  5  1  1  0  0  0
 17 15  2  0  0  0  0
 18  9  1  0  0  0  0
 19  9  1  0  0  0  0
 19  1  2  0  0  0  0
 20  1  1  0  0  0  0
 20  3  1  1  0  0  0
 22 21  1  1  0  0  0
 22 23  1  0  0  0  0
 23 24  1  0  0  0  0
 24 26  1  0  0  0  0
 26 25  1  0  0  0  0
 26 27  1  0  0  0  0
 28 12  1  0  0  0  0
 29 28  1  0  0  0  0
 30 29  1  0  0  0  0
 31 30  1  0  0  0  0
M  END
>  <MODEL>
3

>  <REMARK>
 VINA RESULT:      -6.3      2.880      4.236
  Name = 
  7 active torsions:
  status: ('A' for Active; 'I' for Inactive)
    1  A    between atoms: C_7  and  C_10
    2  A    between atoms: C_7  and  C_11
    3  A    between atoms: N_9  and  N_15
    4  A    between atoms: N_9  and  O_25
    5  A    between atoms: C_11  and  C_13
    6  A    between atoms: C_13  and  N_18
    7  A    between atoms: N_15  and  C_20
                            x       y       z     vdW  Elec       q    Type
                         _______ _______ _______ _____ _____    ______ ____

>  <TORSDO>
F 7

$$$$
=
 OpenBabel11052409443D

 31 34  0  0  1  0  0  0  0  0999 V2000
  160.8040  208.0940  154.0400 C   0  0  0  0  0  0  0  0  0  0  0  0
  161.0580  205.7050  154.0050 N   0  0  0  0  0  0  0  0  0  0  0  0
  159.2110  208.9230  155.8540 C   0  0  0  0  0  2  0  0  0  0  0  0
  160.7630  206.8380  154.6850 C   0  0  0  0  0  0  0  0  0  0  0  0
  161.7180  209.9380  156.6650 O   0  0  0  0  0  1  0  0  0  0  0  0
  160.5910  211.5380  152.8470 N   0  0  0  0  0  2  0  0  0  0  0  0
  161.3540  205.7070  152.6800 C   0  0  0  0  0  0  0  0  0  0  0  0
  161.5980  210.5870  152.6530 N   0  0  0  0  0  2  0  0  0  0  0  0
  161.4020  206.9250  151.9760 C   0  0  0  0  0  0  0  0  0  0  0  0
  161.7610  208.1270  149.9010 C   0  0  0  0  0  3  0  0  0  0  0  0
  160.5090  212.2340  154.0970 C   0  0  0  0  0  3  0  0  0  0  0  0
  161.6340  209.3460  150.5680 C   0  0  0  0  0  0  0  0  0  0  0  0
  161.3790  209.3680  151.9500 C   0  0  0  0  0  0  0  0  0  0  0  0
  160.8850  211.6670  155.2530 C   0  0  0  0  0  3  0  0  0  0  0  0
  160.3130  206.7300  156.0820 C   0  0  0  0  0  3  0  0  0  0  0  0
  161.3610  210.2420  155.3500 C   0  0  2  0  0  3  0  0  0  0  0  0
  159.6240  207.7190  156.6520 C   0  0  0  0  0  3  0  0  0  0  0  0
  161.6630  206.9310  150.6000 C   0  0  0  0  0  3  0  0  0  0  0  0
  161.1920  208.1500  152.6660 C   0  0  0  0  0  0  0  0  0  0  0  0
  160.2760  209.2960  154.8100 C   0  0  1  0  0  3  0  0  0  0  0  0
  162.9820  204.3430  151.5790 O   0  0  0  0  0  1  0  0  0  0  0  0
  161.6500  204.3990  151.9970 C   0  0  2  0  0  3  0  0  0  0  0  0
  160.6930  204.1180  150.8360 C   0  0  0  0  0  2  0  0  0  0  0  0
  160.7200  202.6670  150.3620 C   0  0  0  0  0  2  0  0  0  0  0  0
  161.3020  203.6600  148.3310 C   0  0  0  0  0  1  0  0  0  0  0  0
  160.5130  202.5960  148.9250 N   0  0  0  0  0  0  0  0  0  0  0  0
  161.1000  201.3460  148.4800 C   0  0  0  0  0  1  0  0  0  0  0  0
  161.8170  210.5750  149.8590 N   0  0  0  0  0  2  0  0  0  0  0  0
  162.1330  210.5990  148.4930 N   0  0  0  0  0  2  0  0  0  0  0  0
  161.5660  211.7150  147.9810 O   0  0  0  0  0  0  0  0  0  0  0  0
  161.4280  212.5670  149.0760 C   0  0  0  0  0  1  0  0  0  0  0  0
  1  4  1  0  0  0  0
  1 20  1  0  0  0  0
  2  4  2  0  0  0  0
  3 17  1  0  0  0  0
  4 15  1  0  0  0  0
  6 11  1  0  0  0  0
  7  2  1  0  0  0  0
  8  6  1  0  0  0  0
  9 19  1  0  0  0  0
  9  7  2  0  0  0  0
 10 12  1  0  0  0  0
 10 18  2  0  0  0  0
 11 14  2  0  0  0  0
 12 13  2  0  0  0  0
 13  8  1  0  0  0  0
 13 19  1  0  0  0  0
 14 16  1  0  0  0  0
 15 17  2  0  0  0  0
 16  5  1  1  0  0  0
 18  9  1  0  0  0  0
 19  1  2  0  0  0  0
 20 16  1  0  0  0  0
 20  3  1  1  0  0  0
 22 21  1  6  0  0  0
 22  7  1  0  0  0  0
 23 22  1  0  0  0  0
 24 23  1  0  0  0  0
 25 26  1  0  0  0  0
 26 24  1  0  0  0  0
 27 26  1  0  0  0  0
 28 12  1  0  0  0  0
 29 28  1  0  0  0  0
 30 29  1  0  0  0  0
 30 31  1  0  0  0  0
M  END
>  <MODEL>
4

>  <REMARK>
 VINA RESULT:      -5.8      1.890      6.229
  Name = 
  7 active torsions:
  status: ('A' for Active; 'I' for Inactive)
    1  A    between atoms: C_7  and  C_10
    2  A    between atoms: C_7  and  C_11
    3  A    between atoms: N_9  and  N_15
    4  A    between atoms: N_9  and  O_25
    5  A    between atoms: C_11  and  C_13
    6  A    between atoms: C_13  and  N_18
    7  A    between atoms: N_15  and  C_20
                            x       y       z     vdW  Elec       q    Type
                         _______ _______ _______ _____ _____    ______ ____

>  <TORSDO>
F 7

$$$$
=
 OpenBabel11052409443D

 31 34  0  0  1  0  0  0  0  0999 V2000
  161.4980  208.5820  150.7530 C   0  0  0  0  0  0  0  0  0  0  0  0
  161.9990  209.9840  148.8670 N   0  0  0  0  0  0  0  0  0  0  0  0
  160.8980  206.1860  150.1100 C   0  0  0  0  0  2  0  0  0  0  0  0
  161.9320  208.7500  149.4190 C   0  0  0  0  0  0  0  0  0  0  0  0
  163.3340  205.9020  151.5080 O   0  0  0  0  0  1  0  0  0  0  0  0
  160.3050  207.5660  154.0510 N   0  0  0  0  0  2  0  0  0  0  0  0
  161.6110  211.1020  149.5340 C   0  0  0  0  0  0  0  0  0  0  0  0
  161.2010  208.5810  153.6990 N   0  0  0  0  0  2  0  0  0  0  0  0
  161.1600  211.0020  150.8620 C   0  0  0  0  0  0  0  0  0  0  0  0
  160.3120  212.0700  152.8680 C   0  0  0  0  0  3  0  0  0  0  0  0
  160.7540  206.2060  154.0740 C   0  0  0  0  0  3  0  0  0  0  0  0
  160.3740  210.8580  153.5580 C   0  0  0  0  0  0  0  0  0  0  0  0
  160.8220  209.6990  152.9020 C   0  0  0  0  0  0  0  0  0  0  0  0
  161.7120  205.7580  153.2480 C   0  0  0  0  0  3  0  0  0  0  0  0
  162.2350  207.5790  148.5790 C   0  0  0  0  0  3  0  0  0  0  0  0
  162.3490  206.6180  152.1900 C   0  0  2  0  0  3  0  0  0  0  0  0
  161.7920  206.3680  148.9170 C   0  0  0  0  0  3  0  0  0  0  0  0
  160.7170  212.1440  151.5410 C   0  0  0  0  0  3  0  0  0  0  0  0
  161.1600  209.7400  151.5170 C   0  0  0  0  0  0  0  0  0  0  0  0
  161.2660  207.1590  151.2410 C   0  0  1  0  0  3  0  0  0  0  0  0
  160.4430  212.8510  148.3950 O   0  0  0  0  0  1  0  0  0  0  0  0
  161.6990  212.4330  148.8370 C   0  0  2  0  0  3  0  0  0  0  0  0
  162.7150  212.4250  147.6920 C   0  0  0  0  0  2  0  0  0  0  0  0
  162.5220  213.5690  146.6990 C   0  0  0  0  0  2  0  0  0  0  0  0
  160.8950  213.8430  145.0480 C   0  0  0  0  0  1  0  0  0  0  0  0
  162.0580  213.0580  145.4190 N   0  0  0  0  0  0  0  0  0  0  0  0
  163.0930  213.3640  144.4480 C   0  0  0  0  0  1  0  0  0  0  0  0
  160.0350  210.8050  154.9460 N   0  0  0  0  0  2  0  0  0  0  0  0
  160.8600  211.3690  155.9290 N   0  0  0  0  0  2  0  0  0  0  0  0
  161.5160  210.3450  156.5220 O   0  0  0  0  0  0  0  0  0  0  0  0
  162.8650  210.6360  156.3230 C   0  0  0  0  0  1  0  0  0  0  0  0
  1 20  1  0  0  0  0
  1 19  1  0  0  0  0
  2  4  1  0  0  0  0
  2  7  2  0  0  0  0
  4  1  2  0  0  0  0
  6 11  1  0  0  0  0
  7  9  1  0  0  0  0
  8  6  1  0  0  0  0
  9 19  2  0  0  0  0
  9 18  1  0  0  0  0
 10 12  1  0  0  0  0
 12 28  1  0  0  0  0
 13 12  2  0  0  0  0
 13  8  1  0  0  0  0
 14 11  2  0  0  0  0
 15 17  2  0  0  0  0
 15  4  1  0  0  0  0
 16  5  1  6  0  0  0
 16 14  1  0  0  0  0
 17  3  1  0  0  0  0
 18 10  2  0  0  0  0
 19 13  1  0  0  0  0
 20  3  1  6  0  0  0
 20 16  1  0  0  0  0
 22 21  1  6  0  0  0
 22  7  1  0  0  0  0
 23 22  1  0  0  0  0
 24 23  1  0  0  0  0
 25 26  1  0  0  0  0
 26 24  1  0  0  0  0
 27 26  1  0  0  0  0
 28 29  1  0  0  0  0
 29 30  1  0  0  0  0
 31 30  1  0  0  0  0
M  END
>  <MODEL>
5

>  <REMARK>
 VINA RESULT:      -5.6      1.930      6.361
  Name = 
  7 active torsions:
  status: ('A' for Active; 'I' for Inactive)
    1  A    between atoms: C_7  and  C_10
    2  A    between atoms: C_7  and  C_11
    3  A    between atoms: N_9  and  N_15
    4  A    between atoms: N_9  and  O_25
    5  A    between atoms: C_11  and  C_13
    6  A    between atoms: C_13  and  N_18
    7  A    between atoms: N_15  and  C_20
                            x       y       z     vdW  Elec       q    Type
                         _______ _______ _______ _____ _____    ______ ____

>  <TORSDO>
F 7

$$$$
=
 OpenBabel11052409443D

 31 34  0  0  1  0  0  0  0  0999 V2000
  161.3250  205.2180  148.3850 C   0  0  0  0  0  0  0  0  0  0  0  0
  161.6870  206.1110  150.5860 N   0  0  0  0  0  0  0  0  0  0  0  0
  160.4590  206.9410  146.7140 C   0  0  0  0  0  2  0  0  0  0  0  0
  161.5950  206.3020  149.2490 C   0  0  0  0  0  0  0  0  0  0  0  0
  163.0250  206.3000  145.7280 O   0  0  0  0  0  1  0  0  0  0  0  0
  160.4920  202.8370  145.7450 N   0  0  0  0  0  2  0  0  0  0  0  0
  161.4780  204.9010  151.1650 C   0  0  0  0  0  0  0  0  0  0  0  0
  161.4120  202.7230  146.7920 N   0  0  0  0  0  2  0  0  0  0  0  0
  161.1960  203.7810  150.3610 C   0  0  0  0  0  0  0  0  0  0  0  0
  160.7020  201.4140  150.1730 C   0  0  0  0  0  3  0  0  0  0  0  0
  160.8310  203.6130  144.5890 C   0  0  0  0  0  3  0  0  0  0  0  0
  160.7570  201.4980  148.7820 C   0  0  0  0  0  0  0  0  0  0  0  0
  161.0230  202.7310  148.1620 C   0  0  0  0  0  0  0  0  0  0  0  0
  161.6350  204.6850  144.6620 C   0  0  0  0  0  3  0  0  0  0  0  0
  161.6930  207.6720  148.7190 C   0  0  0  0  0  3  0  0  0  0  0  0
  162.1960  205.2010  145.9600 C   0  0  2  0  0  3  0  0  0  0  0  0
  161.2030  207.9710  147.5150 C   0  0  0  0  0  3  0  0  0  0  0  0
  160.9360  202.5390  150.9540 C   0  0  0  0  0  3  0  0  0  0  0  0
  161.1820  203.9110  148.9460 C   0  0  0  0  0  0  0  0  0  0  0  0
  161.0460  205.5360  146.9230 C   0  0  1  0  0  3  0  0  0  0  0  0
  160.3880  204.3030  153.2080 O   0  0  0  0  0  1  0  0  0  0  0  0
  161.5810  204.7820  152.6620 C   0  0  2  0  0  3  0  0  0  0  0  0
  162.0050  206.0960  153.3230 C   0  0  0  0  0  2  0  0  0  0  0  0
  160.8370  206.8920  153.9000 C   0  0  0  0  0  2  0  0  0  0  0  0
  160.7490  208.9730  152.8470 C   0  0  0  0  0  1  0  0  0  0  0  0
  161.1980  208.2920  154.0480 N   0  0  0  0  0  0  0  0  0  0  0  0
  160.4030  208.8150  155.1430 C   0  0  0  0  0  1  0  0  0  0  0  0
  160.5970  200.3210  147.9850 N   0  0  0  0  0  2  0  0  0  0  0  0
  161.6430  199.8140  147.1990 N   0  0  0  0  0  2  0  0  0  0  0  0
  161.1330  199.6010  145.9640 O   0  0  0  0  0  0  0  0  0  0  0  0
  161.5790  198.3260  145.6200 C   0  0  0  0  0  1  0  0  0  0  0  0
  1 19  2  0  0  0  0
  1  4  1  0  0  0  0
  2  7  1  0  0  0  0
  3 17  1  0  0  0  0
  4  2  2  0  0  0  0
  6  8  1  0  0  0  0
  7 22  1  0  0  0  0
  8 13  1  0  0  0  0
  9 18  1  0  0  0  0
  9  7  2  0  0  0  0
 10 18  2  0  0  0  0
 11 14  2  0  0  0  0
 11  6  1  0  0  0  0
 12 10  1  0  0  0  0
 13 12  2  0  0  0  0
 13 19  1  0  0  0  0
 14 16  1  0  0  0  0
 15  4  1  0  0  0  0
 16  5  1  6  0  0  0
 16 20  1  0  0  0  0
 17 15  2  0  0  0  0
 19  9  1  0  0  0  0
 20  3  1  1  0  0  0
 20  1  1  0  0  0  0
 22 21  1  1  0  0  0
 22 23  1  0  0  0  0
 23 24  1  0  0  0  0
 24 26  1  0  0  0  0
 25 26  1  0  0  0  0
 26 27  1  0  0  0  0
 28 12  1  0  0  0  0
 29 28  1  0  0  0  0
 30 29  1  0  0  0  0
 31 30  1  0  0  0  0
M  END
>  <MODEL>
6

>  <REMARK>
 VINA RESULT:      -5.5      3.466      6.738
  Name = 
  7 active torsions:
  status: ('A' for Active; 'I' for Inactive)
    1  A    between atoms: C_7  and  C_10
    2  A    between atoms: C_7  and  C_11
    3  A    between atoms: N_9  and  N_15
    4  A    between atoms: N_9  and  O_25
    5  A    between atoms: C_11  and  C_13
    6  A    between atoms: C_13  and  N_18
    7  A    between atoms: N_15  and  C_20
                            x       y       z     vdW  Elec       q    Type
                         _______ _______ _______ _____ _____    ______ ____

>  <TORSDO>
F 7

$$$$
=
 OpenBabel11052409443D

 31 34  0  0  1  0  0  0  0  0999 V2000
  161.1920  205.3230  150.7080 C   0  0  0  0  0  0  0  0  0  0  0  0
  161.0890  207.2340  152.1600 N   0  0  0  0  0  0  0  0  0  0  0  0
  161.8540  203.1680  151.9050 C   0  0  0  0  0  2  0  0  0  0  0  0
  161.0230  205.8930  151.9890 C   0  0  0  0  0  0  0  0  0  0  0  0
  159.1900  202.6840  151.1020 O   0  0  0  0  0  1  0  0  0  0  0  0
  161.7130  203.3310  147.6920 N   0  0  0  0  0  2  0  0  0  0  0  0
  161.3660  208.0860  151.1400 C   0  0  0  0  0  0  0  0  0  0  0  0
  160.9220  204.4680  147.8860 N   0  0  0  0  0  2  0  0  0  0  0  0
  161.5540  207.5810  149.8400 C   0  0  0  0  0  0  0  0  0  0  0  0
  162.0260  207.9730  147.4930 C   0  0  0  0  0  3  0  0  0  0  0  0
  161.2390  202.0570  148.1470 C   0  0  0  0  0  3  0  0  0  0  0  0
  161.8080  206.6240  147.2090 C   0  0  0  0  0  0  0  0  0  0  0  0
  161.4690  205.7340  148.2430 C   0  0  0  0  0  0  0  0  0  0  0  0
  160.4480  201.9340  149.2230 C   0  0  0  0  0  3  0  0  0  0  0  0
  160.8620  205.0340  153.1740 C   0  0  0  0  0  3  0  0  0  0  0  0
  160.0420  203.1030  150.0790 C   0  0  2  0  0  3  0  0  0  0  0  0
  161.2060  203.7460  153.1310 C   0  0  0  0  0  3  0  0  0  0  0  0
  161.8830  208.4490  148.7910 C   0  0  0  0  0  3  0  0  0  0  0  0
  161.4020  206.1900  149.5920 C   0  0  0  0  0  0  0  0  0  0  0  0
  161.2970  203.8070  150.6220 C   0  0  1  0  0  3  0  0  0  0  0  0
  162.7060  209.9200  151.8880 O   0  0  0  0  0  1  0  0  0  0  0  0
  161.4400  209.5620  151.4220 C   0  0  2  0  0  3  0  0  0  0  0  0
  160.3440  210.0270  152.3840 C   0  0  0  0  0  2  0  0  0  0  0  0
  160.8020  211.1190  153.3470 C   0  0  0  0  0  2  0  0  0  0  0  0
  159.6990  212.8610  152.2530 C   0  0  0  0  0  1  0  0  0  0  0  0
  159.7680  212.1280  153.5030 N   0  0  0  0  0  0  0  0  0  0  0  0
  158.5090  211.4180  153.6370 C   0  0  0  0  0  1  0  0  0  0  0  0
  161.8750  206.1550  145.8590 N   0  0  0  0  0  2  0  0  0  0  0  0
  160.8780  206.4590  144.9220 N   0  0  0  0  0  2  0  0  0  0  0  0
  160.0350  205.4020  144.8920 O   0  0  0  0  0  0  0  0  0  0  0  0
  160.8380  204.3280  144.5110 C   0  0  0  0  0  1  0  0  0  0  0  0
  1  4  1  0  0  0  0
  3 17  1  0  0  0  0
  4  2  2  0  0  0  0
  4 15  1  0  0  0  0
  6  8  1  0  0  0  0
  6 11  1  0  0  0  0
  7 22  1  0  0  0  0
  7  2  1  0  0  0  0
  8 13  1  0  0  0  0
  9  7  2  0  0  0  0
 10 18  2  0  0  0  0
 11 14  2  0  0  0  0
 12 10  1  0  0  0  0
 12 13  2  0  0  0  0
 13 19  1  0  0  0  0
 14 16  1  0  0  0  0
 16 20  1  0  0  0  0
 16  5  1  1  0  0  0
 17 15  2  0  0  0  0
 18  9  1  0  0  0  0
 19  9  1  0  0  0  0
 19  1  2  0  0  0  0
 20  1  1  0  0  0  0
 20  3  1  1  0  0  0
 22 21  1  1  0  0  0
 22 23  1  0  0  0  0
 23 24  1  0  0  0  0
 24 26  1  0  0  0  0
 25 26  1  0  0  0  0
 26 27  1  0  0  0  0
 28 12  1  0  0  0  0
 29 28  1  0  0  0  0
 30 29  1  0  0  0  0
 31 30  1  0  0  0  0
M  END
>  <MODEL>
7

>  <REMARK>
 VINA RESULT:      -5.4      2.511      3.826
  Name = 
  7 active torsions:
  status: ('A' for Active; 'I' for Inactive)
    1  A    between atoms: C_7  and  C_10
    2  A    between atoms: C_7  and  C_11
    3  A    between atoms: N_9  and  N_15
    4  A    between atoms: N_9  and  O_25
    5  A    between atoms: C_11  and  C_13
    6  A    between atoms: C_13  and  N_18
    7  A    between atoms: N_15  and  C_20
                            x       y       z     vdW  Elec       q    Type
                         _______ _______ _______ _____ _____    ______ ____

>  <TORSDO>
F 7

$$$$
=
 OpenBabel11052409443D

 31 34  0  0  1  0  0  0  0  0999 V2000
  161.3560  206.7730  148.9670 C   0  0  0  0  0  0  0  0  0  0  0  0
  161.9550  208.9560  148.1620 N   0  0  0  0  0  0  0  0  0  0  0  0
  160.0810  205.3700  147.2570 C   0  0  0  0  0  2  0  0  0  0  0  0
  161.6440  207.6630  147.9090 C   0  0  0  0  0  0  0  0  0  0  0  0
  162.5210  203.9820  147.5620 O   0  0  0  0  0  1  0  0  0  0  0  0
  160.3730  204.1180  151.2740 N   0  0  0  0  0  2  0  0  0  0  0  0
  161.9560  209.4720  149.4180 C   0  0  0  0  0  0  0  0  0  0  0  0
  161.4470  205.0110  151.3460 N   0  0  0  0  0  2  0  0  0  0  0  0
  161.6680  208.6410  150.5160 C   0  0  0  0  0  0  0  0  0  0  0  0
  161.3870  208.3590  152.9080 C   0  0  0  0  0  3  0  0  0  0  0  0
  160.4560  202.9840  150.4030 C   0  0  0  0  0  3  0  0  0  0  0  0
  161.2230  206.9830  152.7420 C   0  0  0  0  0  0  0  0  0  0  0  0
  161.2700  206.4200  151.4560 C   0  0  0  0  0  0  0  0  0  0  0  0
  161.1520  203.0150  149.2560 C   0  0  0  0  0  3  0  0  0  0  0  0
  161.5260  207.2230  146.5090 C   0  0  0  0  0  3  0  0  0  0  0  0
  161.8480  204.2520  148.7550 C   0  0  2  0  0  3  0  0  0  0  0  0
  160.8330  206.1260  146.1980 C   0  0  0  0  0  3  0  0  0  0  0  0
  161.6240  209.1760  151.8100 C   0  0  0  0  0  3  0  0  0  0  0  0
  161.4270  207.2550  150.3100 C   0  0  0  0  0  0  0  0  0  0  0  0
  160.8290  205.3930  148.6000 C   0  0  1  0  0  3  0  0  0  0  0  0
  161.2970  211.5810  150.3340 O   0  0  0  0  0  1  0  0  0  0  0  0
  162.2940  210.9260  149.6080 C   0  0  2  0  0  3  0  0  0  0  0  0
  162.5710  211.6380  148.2810 C   0  0  0  0  0  2  0  0  0  0  0  0
  162.1480  213.1050  148.2780 C   0  0  0  0  0  2  0  0  0  0  0  0
  162.3670  213.1150  145.9540 C   0  0  0  0  0  1  0  0  0  0  0  0
  161.4590  213.4330  147.0410 N   0  0  0  0  0  0  0  0  0  0  0  0
  160.3400  212.5150  146.9300 C   0  0  0  0  0  1  0  0  0  0  0  0
  161.0620  206.1360  153.8840 N   0  0  0  0  0  2  0  0  0  0  0  0
  161.1600  206.6340  155.1910 N   0  0  0  0  0  2  0  0  0  0  0  0
  159.9050  206.9540  155.5810 O   0  0  0  0  0  0  0  0  0  0  0  0
  160.0820  207.9520  156.5370 C   0  0  0  0  0  1  0  0  0  0  0  0
  1 19  1  0  0  0  0
  2  7  2  0  0  0  0
  4  2  1  0  0  0  0
  4  1  2  0  0  0  0
  6  8  1  0  0  0  0
  7 22  1  0  0  0  0
  7  9  1  0  0  0  0
  8 13  1  0  0  0  0
  9 18  1  0  0  0  0
 11  6  1  0  0  0  0
 12 10  1  0  0  0  0
 12 28  1  0  0  0  0
 13 12  2  0  0  0  0
 14 11  2  0  0  0  0
 15  4  1  0  0  0  0
 16  5  1  6  0  0  0
 16 14  1  0  0  0  0
 17 15  2  0  0  0  0
 17  3  1  0  0  0  0
 18 10  2  0  0  0  0
 19  9  2  0  0  0  0
 19 13  1  0  0  0  0
 20  3  1  6  0  0  0
 20 16  1  0  0  0  0
 20  1  1  0  0  0  0
 22 21  1  6  0  0  0
 23 22  1  0  0  0  0
 24 23  1  0  0  0  0
 25 26  1  0  0  0  0
 26 24  1  0  0  0  0
 27 26  1  0  0  0  0
 28 29  1  0  0  0  0
 29 30  1  0  0  0  0
 30 31  1  0  0  0  0
M  END
>  <MODEL>
8

>  <REMARK>
 VINA RESULT:      -5.1      2.283      5.929
  Name = 
  7 active torsions:
  status: ('A' for Active; 'I' for Inactive)
    1  A    between atoms: C_7  and  C_10
    2  A    between atoms: C_7  and  C_11
    3  A    between atoms: N_9  and  N_15
    4  A    between atoms: N_9  and  O_25
    5  A    between atoms: C_11  and  C_13
    6  A    between atoms: C_13  and  N_18
    7  A    between atoms: N_15  and  C_20
                            x       y       z     vdW  Elec       q    Type
                         _______ _______ _______ _____ _____    ______ ____

>  <TORSDO>
F 7

$$$$
=
 OpenBabel11052409443D

 31 34  0  0  1  0  0  0  0  0999 V2000
  161.6610  206.0970  149.4950 C   0  0  0  0  0  0  0  0  0  0  0  0
  161.1440  203.8510  148.8180 N   0  0  0  0  0  0  0  0  0  0  0  0
  163.2450  207.3050  147.9000 C   0  0  0  0  0  2  0  0  0  0  0  0
  161.5300  205.1080  148.4960 C   0  0  0  0  0  0  0  0  0  0  0  0
  160.8300  208.7450  147.6450 O   0  0  0  0  0  1  0  0  0  0  0  0
  162.3140  208.9610  151.6650 N   0  0  0  0  0  2  0  0  0  0  0  0
  160.9150  203.4650  150.0990 C   0  0  0  0  0  0  0  0  0  0  0  0
  161.2180  208.0920  151.6390 N   0  0  0  0  0  2  0  0  0  0  0  0
  161.0370  204.4000  151.1430 C   0  0  0  0  0  0  0  0  0  0  0  0
  160.9170  204.9190  153.5090 C   0  0  0  0  0  3  0  0  0  0  0  0
  162.4120  210.0020  150.6860 C   0  0  0  0  0  3  0  0  0  0  0  0
  161.1460  206.2690  153.2400 C   0  0  0  0  0  0  0  0  0  0  0  0
  161.3330  206.6990  151.9150 C   0  0  0  0  0  0  0  0  0  0  0  0
  161.9190  209.8620  149.4460 C   0  0  0  0  0  3  0  0  0  0  0  0
  161.8960  205.4030  147.1010 C   0  0  0  0  0  3  0  0  0  0  0  0
  161.2830  208.5890  148.9560 C   0  0  2  0  0  3  0  0  0  0  0  0
  162.6630  206.4540  146.8070 C   0  0  0  0  0  3  0  0  0  0  0  0
  160.8460  203.9980  152.4710 C   0  0  0  0  0  3  0  0  0  0  0  0
  161.3490  205.7550  150.8470 C   0  0  0  0  0  0  0  0  0  0  0  0
  162.2800  207.4270  149.0900 C   0  0  1  0  0  3  0  0  0  0  0  0
  161.5440  201.3330  150.9820 O   0  0  0  0  0  1  0  0  0  0  0  0
  160.5090  202.0410  150.3700 C   0  0  2  0  0  3  0  0  0  0  0  0
  160.0180  201.3260  149.1080 C   0  0  0  0  0  2  0  0  0  0  0  0
  161.1490  200.7820  148.2380 C   0  0  0  0  0  2  0  0  0  0  0  0
  160.8260  201.7200  146.1250 C   0  0  0  0  0  1  0  0  0  0  0  0
  160.6680  200.5010  146.8960 N   0  0  0  0  0  0  0  0  0  0  0  0
  161.5780  199.5260  146.3220 C   0  0  0  0  0  1  0  0  0  0  0  0
  161.1350  207.2250  154.3040 N   0  0  0  0  0  2  0  0  0  0  0  0
  160.4320  206.9960  155.4940 N   0  0  0  0  0  2  0  0  0  0  0  0
  160.0110  208.2040  155.9360 O   0  0  0  0  0  0  0  0  0  0  0  0
  160.8850  209.1140  155.3450 C   0  0  0  0  0  1  0  0  0  0  0  0
  1 19  1  0  0  0  0
  2  7  2  0  0  0  0
  4  2  1  0  0  0  0
  4  1  2  0  0  0  0
  7 22  1  0  0  0  0
  7  9  1  0  0  0  0
  8  6  1  0  0  0  0
  8 13  1  0  0  0  0
  9 18  1  0  0  0  0
 11  6  1  0  0  0  0
 12 10  1  0  0  0  0
 12 28  1  0  0  0  0
 13 12  2  0  0  0  0
 14 11  2  0  0  0  0
 15  4  1  0  0  0  0
 16  5  1  6  0  0  0
 16 20  1  0  0  0  0
 16 14  1  0  0  0  0
 17 15  2  0  0  0  0
 17  3  1  0  0  0  0
 18 10  2  0  0  0  0
 19  9  2  0  0  0  0
 19 13  1  0  0  0  0
 20  3  1  6  0  0  0
 20  1  1  0  0  0  0
 22 21  1  6  0  0  0
 23 22  1  0  0  0  0
 24 23  1  0  0  0  0
 25 26  1  0  0  0  0
 26 24  1  0  0  0  0
 27 26  1  0  0  0  0
 28 29  1  0  0  0  0
 29 30  1  0  0  0  0
 31 30  1  0  0  0  0
M  END
>  <MODEL>
9

>  <REMARK>
 VINA RESULT:      -5.0      2.650      7.534
  Name = 
  7 active torsions:
  status: ('A' for Active; 'I' for Inactive)
    1  A    between atoms: C_7  and  C_10
    2  A    between atoms: C_7  and  C_11
    3  A    between atoms: N_9  and  N_15
    4  A    between atoms: N_9  and  O_25
    5  A    between atoms: C_11  and  C_13
    6  A    between atoms: C_13  and  N_18
    7  A    between atoms: N_15  and  C_20
                            x       y       z     vdW  Elec       q    Type
                         _______ _______ _______ _____ _____    ______ ____

>  <TORSDO>
F 7

$$$$
