=
 OpenBabel11042420443D

 27 32  0  0  1  0  0  0  0  0999 V2000
  161.5580  207.2550  147.9020 C   0  0  0  0  0  2  0  0  0  0  0  0
  161.7090  208.3100  149.0200 C   0  0  0  0  0  2  0  0  0  0  0  0
  161.2520  207.7230  150.3390 C   0  0  1  0  0  3  0  0  0  0  0  0
  162.1390  206.5750  150.5750 N   0  0  2  0  0  0  0  0  0  0  0  0
  161.1320  205.5130  150.5610 C   0  0  1  0  0  3  0  0  0  0  0  0
  160.8610  205.0880  149.0960 C   0  0  0  0  0  2  0  0  0  0  0  0
  160.4300  206.2310  148.1530 C   0  0  0  0  0  2  0  0  0  0  0  0
  162.1140  207.7510  151.4980 C   0  0  2  0  0  3  0  0  0  0  0  0
  160.4270  208.4220  153.3250 C   0  0  0  0  0  0  0  0  0  0  0  0
  160.3070  207.0930  155.3690 C   0  0  0  0  0  3  0  0  0  0  0  0
  161.2420  206.2010  154.8530 C   0  0  0  0  0  3  0  0  0  0  0  0
  159.9240  208.2050  154.6200 C   0  0  0  0  0  3  0  0  0  0  0  0
  161.3720  207.5000  152.7930 C   0  0  0  0  0  0  0  0  0  0  0  0
  161.7850  206.4200  153.5880 C   0  0  0  0  0  3  0  0  0  0  0  0
  160.1070  209.7440  152.6560 C   0  0  1  0  0  3  0  0  0  0  0  0
  160.7120  212.1830  152.5480 N   0  0  0  0  0  2  0  0  0  0  0  0
  159.4770  212.2460  153.2120 N   0  0  2  0  0  0  0  0  0  0  0  0
  159.5680  210.8080  153.6130 C   0  0  1  0  0  0  0  0  0  0  0  0
  161.0000  210.8670  153.0750 C   0  0  1  0  0  0  0  0  0  0  0  0
  161.9020  210.8430  154.3050 C   0  0  0  0  0  1  0  0  0  0  0  0
  158.5350  211.2920  152.6810 C   0  0  0  0  0  2  0  0  0  0  0  0
  161.6010  204.2940  151.3630 C   0  0  0  0  0  2  0  0  0  0  0  0
  160.6800  203.0860  151.2290 C   0  0  0  0  0  2  0  0  0  0  0  0
  160.7720  201.3570  149.4080 C   0  0  0  0  0  0  0  0  0  0  0  0
  161.3930  200.4270  148.8290 O   0  0  0  0  0  0  0  0  0  0  0  0
  159.5180  201.7400  148.9470 O   0  0  0  0  0  1  0  0  0  0  0  0
  161.3610  202.0070  150.5310 N   0  0  0  0  0  2  0  0  0  0  0  0
  1  7  1  0  0  0  0
  1  2  1  0  0  0  0
  3  2  1  6  0  0  0
  3  4  1  0  0  0  0
  3  8  1  0  0  0  0
  4  8  1  0  0  0  0
  5  4  1  0  0  0  0
  5 22  1  0  0  0  0
  6  5  1  0  0  0  0
  7  6  1  0  0  0  0
  8 13  1  0  0  0  0
  9 12  1  0  0  0  0
 11 10  1  0  0  0  0
 12 10  2  0  0  0  0
 13  9  2  0  0  0  0
 13 14  1  0  0  0  0
 14 11  2  0  0  0  0
 15 19  1  0  0  0  0
 15  9  1  0  0  0  0
 15 18  1  0  0  0  0
 16 19  1  0  0  0  0
 16 17  1  0  0  0  0
 17 18  1  0  0  0  0
 19 18  1  0  0  0  0
 19 20  1  0  0  0  0
 21 17  1  0  0  0  0
 21 18  1  0  0  0  0
 23 22  1  0  0  0  0
 24 27  1  0  0  0  0
 25 24  2  0  0  0  0
 26 24  1  0  0  0  0
 27 23  1  0  0  0  0
M  END
>  <MODEL>
1

>  <REMARK>
 VINA RESULT:      -7.2      0.000      0.000
  Name = 
  5 active torsions:
  status: ('A' for Active; 'I' for Inactive)
    1  A    between atoms: C_1  and  C_6
    2  A    between atoms: C_2  and  C_14
    3  A    between atoms: C_2  and  N_20
    4  A    between atoms: C_14  and  C_19
    5  A    between atoms: C_17  and  C_27
                            x       y       z     vdW  Elec       q    Type
                         _______ _______ _______ _____ _____    ______ ____

>  <TORSDO>
F 5

$$$$
=
 OpenBabel11042420443D

 27 32  0  0  1  0  0  0  0  0999 V2000
  161.0240  202.2870  150.7730 C   0  0  0  0  0  2  0  0  0  0  0  0
  161.2540  203.2000  151.9970 C   0  0  0  0  0  2  0  0  0  0  0  0
  161.5420  204.6120  151.5310 C   0  0  1  0  0  3  0  0  0  0  0  0
  160.3410  205.0210  150.7870 N   0  0  2  0  0  0  0  0  0  0  0  0
  160.9540  205.2170  149.4720 C   0  0  1  0  0  3  0  0  0  0  0  0
  161.0270  203.8560  148.7370 C   0  0  0  0  0  2  0  0  0  0  0  0
  161.7710  202.7390  149.5010 C   0  0  0  0  0  2  0  0  0  0  0  0
  160.7720  205.7260  152.0330 C   0  0  2  0  0  3  0  0  0  0  0  0
  161.2340  208.1870  152.6340 C   0  0  0  0  0  0  0  0  0  0  0  0
  162.4440  209.5870  151.0420 C   0  0  0  0  0  3  0  0  0  0  0  0
  162.6260  208.4900  150.2060 C   0  0  0  0  0  3  0  0  0  0  0  0
  161.7330  209.4390  152.2320 C   0  0  0  0  0  3  0  0  0  0  0  0
  161.4350  207.0630  151.7850 C   0  0  0  0  0  0  0  0  0  0  0  0
  162.1040  207.2490  150.5650 C   0  0  0  0  0  3  0  0  0  0  0  0
  160.3160  208.1480  153.8410 C   0  0  1  0  0  3  0  0  0  0  0  0
  159.7710  209.2510  156.0340 N   0  0  0  0  0  2  0  0  0  0  0  0
  160.3660  208.0590  156.4780 N   0  0  2  0  0  0  0  0  0  0  0  0
  161.0340  207.8480  155.1570 C   0  0  1  0  0  0  0  0  0  0  0  0
  160.5470  209.2590  154.8140 C   0  0  1  0  0  0  0  0  0  0  0  0
  161.7910  210.1410  154.8420 C   0  0  0  0  0  1  0  0  0  0  0  0
  159.9910  206.9360  155.6550 C   0  0  0  0  0  2  0  0  0  0  0  0
  160.1450  206.2060  148.6260 C   0  0  0  0  0  2  0  0  0  0  0  0
  160.9350  206.8020  147.4660 C   0  0  0  0  0  2  0  0  0  0  0  0
  161.4330  205.4830  145.3860 C   0  0  0  0  0  0  0  0  0  0  0  0
  161.0350  204.9760  144.3060 O   0  0  0  0  0  0  0  0  0  0  0  0
  162.7620  205.3390  145.7660 O   0  0  0  0  0  1  0  0  0  0  0  0
  160.5180  206.2010  146.2090 N   0  0  0  0  0  2  0  0  0  0  0  0
  1  2  1  0  0  0  0
  3  2  1  1  0  0  0
  3  8  1  0  0  0  0
  4  3  1  0  0  0  0
  4  8  1  0  0  0  0
  5  4  1  0  0  0  0
  6  5  1  0  0  0  0
  6  7  1  0  0  0  0
  7  1  1  0  0  0  0
  9 15  1  0  0  0  0
 10 12  2  0  0  0  0
 11 14  2  0  0  0  0
 11 10  1  0  0  0  0
 12  9  1  0  0  0  0
 13  8  1  0  0  0  0
 13  9  2  0  0  0  0
 14 13  1  0  0  0  0
 15 19  1  0  0  0  0
 15 18  1  0  0  0  0
 16 17  1  0  0  0  0
 18 21  1  0  0  0  0
 18 17  1  0  0  0  0
 19 20  1  0  0  0  0
 19 18  1  0  0  0  0
 19 16  1  0  0  0  0
 21 17  1  0  0  0  0
 22  5  1  0  0  0  0
 23 22  1  0  0  0  0
 24 26  1  0  0  0  0
 24 27  1  0  0  0  0
 25 24  2  0  0  0  0
 27 23  1  0  0  0  0
M  END
>  <MODEL>
2

>  <REMARK>
 VINA RESULT:      -6.4      2.556      4.228
  Name = 
  5 active torsions:
  status: ('A' for Active; 'I' for Inactive)
    1  A    between atoms: C_1  and  C_6
    2  A    between atoms: C_2  and  C_14
    3  A    between atoms: C_2  and  N_20
    4  A    between atoms: C_14  and  C_19
    5  A    between atoms: C_17  and  C_27
                            x       y       z     vdW  Elec       q    Type
                         _______ _______ _______ _____ _____    ______ ____

>  <TORSDO>
F 5

$$$$
=
 OpenBabel11042420443D

 27 32  0  0  1  0  0  0  0  0999 V2000
  161.8270  209.3700  149.5290 C   0  0  0  0  0  2  0  0  0  0  0  0
  161.4690  208.3670  148.4110 C   0  0  0  0  0  2  0  0  0  0  0  0
  161.5670  206.9540  148.9450 C   0  0  1  0  0  3  0  0  0  0  0  0
  160.5890  206.8900  150.0410 N   0  0  2  0  0  0  0  0  0  0  0  0
  161.5130  206.6160  151.1440 C   0  0  1  0  0  3  0  0  0  0  0  0
  162.1030  207.9540  151.6570 C   0  0  0  0  0  2  0  0  0  0  0  0
  162.8070  208.8120  150.5840 C   0  0  0  0  0  2  0  0  0  0  0  0
  160.4550  206.0390  148.8200 C   0  0  2  0  0  3  0  0  0  0  0  0
  161.0610  203.6910  147.9510 C   0  0  0  0  0  0  0  0  0  0  0  0
  161.2530  201.8530  149.5460 C   0  0  0  0  0  3  0  0  0  0  0  0
  161.0340  202.7350  150.6000 C   0  0  0  0  0  3  0  0  0  0  0  0
  161.2420  202.3260  148.2340 C   0  0  0  0  0  3  0  0  0  0  0  0
  160.8520  204.5940  149.0320 C   0  0  0  0  0  0  0  0  0  0  0  0
  160.8110  204.0860  150.3390 C   0  0  0  0  0  3  0  0  0  0  0  0
  160.8740  204.0920  146.5010 C   0  0  1  0  0  3  0  0  0  0  0  0
  162.0690  204.7700  144.3950 N   0  0  0  0  0  2  0  0  0  0  0  0
  161.5010  205.9940  144.7810 N   0  0  2  0  0  0  0  0  0  0  0  0
  161.3270  205.5190  146.1890 C   0  0  1  0  0  0  0  0  0  0  0  0
  162.1550  204.3040  145.7610 C   0  0  1  0  0  0  0  0  0  0  0  0
  163.5180  204.4840  146.4230 C   0  0  0  0  0  1  0  0  0  0  0  0
  160.1750  205.8210  145.3220 C   0  0  0  0  0  2  0  0  0  0  0  0
  160.8030  205.9010  152.2970 C   0  0  0  0  0  2  0  0  0  0  0  0
  161.4510  206.1460  153.6560 C   0  0  0  0  0  2  0  0  0  0  0  0
  160.5080  207.8170  155.2780 C   0  0  0  0  0  0  0  0  0  0  0  0
  159.6210  208.1330  156.1130 O   0  0  0  0  0  1  0  0  0  0  0  0
  161.5390  208.7060  154.9990 O   0  0  0  0  0  0  0  0  0  0  0  0
  160.4470  206.5510  154.6270 N   0  0  0  0  0  2  0  0  0  0  0  0
  1  7  1  0  0  0  0
  2  1  1  0  0  0  0
  3  2  1  6  0  0  0
  3  4  1  0  0  0  0
  4  5  1  0  0  0  0
  5  6  1  0  0  0  0
  5 22  1  0  0  0  0
  7  6  1  0  0  0  0
  8  3  1  0  0  0  0
  8 13  1  0  0  0  0
  8  4  1  0  0  0  0
  9 12  2  0  0  0  0
  9 13  1  0  0  0  0
 10 11  2  0  0  0  0
 12 10  1  0  0  0  0
 13 14  2  0  0  0  0
 14 11  1  0  0  0  0
 15  9  1  0  0  0  0
 16 17  1  0  0  0  0
 16 19  1  0  0  0  0
 17 21  1  0  0  0  0
 17 18  1  0  0  0  0
 18 15  1  0  0  0  0
 19 18  1  0  0  0  0
 19 20  1  0  0  0  0
 19 15  1  0  0  0  0
 21 18  1  0  0  0  0
 22 23  1  0  0  0  0
 23 27  1  0  0  0  0
 24 25  1  0  0  0  0
 26 24  2  0  0  0  0
 27 24  1  0  0  0  0
M  END
>  <MODEL>
3

>  <REMARK>
 VINA RESULT:      -6.1      3.744      7.061
  Name = 
  5 active torsions:
  status: ('A' for Active; 'I' for Inactive)
    1  A    between atoms: C_1  and  C_6
    2  A    between atoms: C_2  and  C_14
    3  A    between atoms: C_2  and  N_20
    4  A    between atoms: C_14  and  C_19
    5  A    between atoms: C_17  and  C_27
                            x       y       z     vdW  Elec       q    Type
                         _______ _______ _______ _____ _____    ______ ____

>  <TORSDO>
F 5

$$$$
=
 OpenBabel11042420443D

 27 32  0  0  1  0  0  0  0  0999 V2000
  161.2020  206.9570  154.0710 C   0  0  0  0  0  2  0  0  0  0  0  0
  161.2050  205.6670  153.2230 C   0  0  0  0  0  2  0  0  0  0  0  0
  161.0670  206.0200  151.7580 C   0  0  1  0  0  3  0  0  0  0  0  0
  162.2390  206.8530  151.4520 N   0  0  2  0  0  0  0  0  0  0  0  0
  161.5420  208.0880  151.0890 C   0  0  1  0  0  3  0  0  0  0  0  0
  161.2240  208.8900  152.3760 C   0  0  0  0  0  2  0  0  0  0  0  0
  160.4100  208.1220  153.4400 C   0  0  0  0  0  2  0  0  0  0  0  0
  162.0200  205.5320  150.7880 C   0  0  2  0  0  3  0  0  0  0  0  0
  161.3220  204.4960  148.5350 C   0  0  0  0  0  0  0  0  0  0  0  0
  160.9140  205.9680  146.6320 C   0  0  0  0  0  3  0  0  0  0  0  0
  161.1220  207.0820  147.4400 C   0  0  0  0  0  3  0  0  0  0  0  0
  161.0380  204.6890  147.1720 C   0  0  0  0  0  3  0  0  0  0  0  0
  161.5200  205.6370  149.3630 C   0  0  0  0  0  0  0  0  0  0  0  0
  161.4460  206.9130  148.7850 C   0  0  0  0  0  3  0  0  0  0  0  0
  161.6250  203.0840  149.0000 C   0  0  1  0  0  3  0  0  0  0  0  0
  161.4880  200.6520  148.3780 N   0  0  0  0  0  2  0  0  0  0  0  0
  160.4820  200.7320  149.3540 N   0  0  2  0  0  0  0  0  0  0  0  0
  160.3810  202.2150  149.1920 C   0  0  1  0  0  0  0  0  0  0  0  0
  161.3080  202.0320  147.9870 C   0  0  1  0  0  0  0  0  0  0  0  0
  160.4310  202.2490  146.7580 C   0  0  0  0  0  1  0  0  0  0  0  0
  160.8610  201.6000  150.4420 C   0  0  0  0  0  2  0  0  0  0  0  0
  162.3960  208.9500  150.1530 C   0  0  0  0  0  2  0  0  0  0  0  0
  161.9580  210.4100  150.1030 C   0  0  0  0  0  2  0  0  0  0  0  0
  161.6220  212.2250  148.3980 C   0  0  0  0  0  0  0  0  0  0  0  0
  161.7820  212.6500  147.2240 O   0  0  0  0  0  0  0  0  0  0  0  0
  160.9600  213.0130  149.3320 O   0  0  0  0  0  1  0  0  0  0  0  0
  162.1200  210.9400  148.7580 N   0  0  0  0  0  2  0  0  0  0  0  0
  2  1  1  0  0  0  0
  3  2  1  1  0  0  0
  4  3  1  0  0  0  0
  5  4  1  0  0  0  0
  5  6  1  0  0  0  0
  6  7  1  0  0  0  0
  7  1  1  0  0  0  0
  8  4  1  0  0  0  0
  8  3  1  0  0  0  0
  9 15  1  0  0  0  0
  9 13  1  0  0  0  0
 10 12  1  0  0  0  0
 10 11  2  0  0  0  0
 11 14  1  0  0  0  0
 12  9  2  0  0  0  0
 13  8  1  0  0  0  0
 14 13  2  0  0  0  0
 15 18  1  0  0  0  0
 16 17  1  0  0  0  0
 17 21  1  0  0  0  0
 18 17  1  0  0  0  0
 18 21  1  0  0  0  0
 19 16  1  0  0  0  0
 19 15  1  0  0  0  0
 19 18  1  0  0  0  0
 20 19  1  0  0  0  0
 22  5  1  0  0  0  0
 23 22  1  0  0  0  0
 24 27  1  0  0  0  0
 24 26  1  0  0  0  0
 25 24  2  0  0  0  0
 27 23  1  0  0  0  0
M  END
>  <MODEL>
4

>  <REMARK>
 VINA RESULT:      -5.9      3.786      8.117
  Name = 
  5 active torsions:
  status: ('A' for Active; 'I' for Inactive)
    1  A    between atoms: C_1  and  C_6
    2  A    between atoms: C_2  and  C_14
    3  A    between atoms: C_2  and  N_20
    4  A    between atoms: C_14  and  C_19
    5  A    between atoms: C_17  and  C_27
                            x       y       z     vdW  Elec       q    Type
                         _______ _______ _______ _____ _____    ______ ____

>  <TORSDO>
F 5

$$$$
=
 OpenBabel11042420443D

 27 32  0  0  1  0  0  0  0  0999 V2000
  160.9070  203.2750  152.3450 C   0  0  0  0  0  2  0  0  0  0  0  0
  160.8830  204.6550  153.0370 C   0  0  0  0  0  2  0  0  0  0  0  0
  161.3450  205.7200  152.0650 C   0  0  1  0  0  3  0  0  0  0  0  0
  160.3800  205.6710  150.9570 N   0  0  2  0  0  0  0  0  0  0  0  0
  161.2990  205.2920  149.8820 C   0  0  1  0  0  3  0  0  0  0  0  0
  161.4780  203.7530  149.8850 C   0  0  0  0  0  2  0  0  0  0  0  0
  161.9600  203.1530  151.2220 C   0  0  0  0  0  2  0  0  0  0  0  0
  160.5340  206.8880  151.8100 C   0  0  2  0  0  3  0  0  0  0  0  0
  161.7630  209.1500  151.8640 C   0  0  0  0  0  0  0  0  0  0  0  0
  162.4250  210.1870  149.7560 C   0  0  0  0  0  3  0  0  0  0  0  0
  161.9620  209.0780  149.0560 C   0  0  0  0  0  3  0  0  0  0  0  0
  162.3030  210.2310  151.1440 C   0  0  0  0  0  3  0  0  0  0  0  0
  161.3040  208.0100  151.1480 C   0  0  0  0  0  0  0  0  0  0  0  0
  161.3850  208.0130  149.7470 C   0  0  0  0  0  3  0  0  0  0  0  0
  161.4940  209.3520  153.3430 C   0  0  1  0  0  3  0  0  0  0  0  0
  159.9250  210.3820  155.0160 N   0  0  0  0  0  2  0  0  0  0  0  0
  161.0290  211.2440  155.1230 N   0  0  2  0  0  0  0  0  0  0  0  0
  161.5510  210.8140  153.7900 C   0  0  1  0  0  0  0  0  0  0  0  0
  160.2190  210.0740  153.6340 C   0  0  1  0  0  0  0  0  0  0  0  0
  159.4230  210.8740  152.6070 C   0  0  0  0  0  1  0  0  0  0  0  0
  162.2770  210.5260  155.0390 C   0  0  0  0  0  2  0  0  0  0  0  0
  160.7680  205.7380  148.5160 C   0  0  0  0  0  2  0  0  0  0  0  0
  161.2900  204.8960  147.3560 C   0  0  0  0  0  2  0  0  0  0  0  0
  161.1120  205.1590  144.8640 C   0  0  0  0  0  0  0  0  0  0  0  0
  161.2070  205.8900  143.8430 O   0  0  0  0  0  0  0  0  0  0  0  0
  160.7390  203.8280  144.7250 O   0  0  0  0  0  1  0  0  0  0  0  0
  161.3880  205.7040  146.1510 N   0  0  0  0  0  2  0  0  0  0  0  0
  1  2  1  0  0  0  0
  3  2  1  1  0  0  0
  4  8  1  0  0  0  0
  4  3  1  0  0  0  0
  5  6  1  0  0  0  0
  5  4  1  0  0  0  0
  6  7  1  0  0  0  0
  7  1  1  0  0  0  0
  8  3  1  0  0  0  0
  9 15  1  0  0  0  0
 10 12  1  0  0  0  0
 11 14  1  0  0  0  0
 11 10  2  0  0  0  0
 12  9  2  0  0  0  0
 13  8  1  0  0  0  0
 13  9  1  0  0  0  0
 14 13  2  0  0  0  0
 15 19  1  0  0  0  0
 15 18  1  0  0  0  0
 16 17  1  0  0  0  0
 18 21  1  0  0  0  0
 18 17  1  0  0  0  0
 19 18  1  0  0  0  0
 19 16  1  0  0  0  0
 20 19  1  0  0  0  0
 21 17  1  0  0  0  0
 22  5  1  0  0  0  0
 23 22  1  0  0  0  0
 24 27  1  0  0  0  0
 25 24  2  0  0  0  0
 26 24  1  0  0  0  0
 27 23  1  0  0  0  0
M  END
>  <MODEL>
5

>  <REMARK>
 VINA RESULT:      -5.9      2.420      4.173
  Name = 
  5 active torsions:
  status: ('A' for Active; 'I' for Inactive)
    1  A    between atoms: C_1  and  C_6
    2  A    between atoms: C_2  and  C_14
    3  A    between atoms: C_2  and  N_20
    4  A    between atoms: C_14  and  C_19
    5  A    between atoms: C_17  and  C_27
                            x       y       z     vdW  Elec       q    Type
                         _______ _______ _______ _____ _____    ______ ____

>  <TORSDO>
F 5

$$$$
=
 OpenBabel11042420443D

 27 32  0  0  1  0  0  0  0  0999 V2000
  162.0160  210.1760  150.2050 C   0  0  0  0  0  2  0  0  0  0  0  0
  161.7200  209.0900  149.1490 C   0  0  0  0  0  2  0  0  0  0  0  0
  161.7170  207.7270  149.8070 C   0  0  1  0  0  3  0  0  0  0  0  0
  160.6460  207.7890  150.8130 N   0  0  2  0  0  0  0  0  0  0  0  0
  161.4590  207.5860  152.0130 C   0  0  1  0  0  3  0  0  0  0  0  0
  162.0520  208.9450  152.4620 C   0  0  0  0  0  2  0  0  0  0  0  0
  162.8780  209.6840  151.3880 C   0  0  0  0  0  2  0  0  0  0  0  0
  160.5870  206.8380  149.6610 C   0  0  2  0  0  3  0  0  0  0  0  0
  161.2440  204.4220  149.0570 C   0  0  0  0  0  0  0  0  0  0  0  0
  161.1560  202.7040  150.7900 C   0  0  0  0  0  3  0  0  0  0  0  0
  160.8140  203.6660  151.7360 C   0  0  0  0  0  3  0  0  0  0  0  0
  161.3450  203.0790  149.4600 C   0  0  0  0  0  3  0  0  0  0  0  0
  160.9090  205.4060  150.0300 C   0  0  0  0  0  0  0  0  0  0  0  0
  160.6690  204.9970  151.3500 C   0  0  0  0  0  3  0  0  0  0  0  0
  161.2770  204.7170  147.5710 C   0  0  1  0  0  3  0  0  0  0  0  0
  161.1740  203.6920  145.2770 N   0  0  0  0  0  2  0  0  0  0  0  0
  162.5330  204.0360  145.3520 N   0  0  2  0  0  0  0  0  0  0  0  0
  162.4780  204.1100  146.8440 C   0  0  1  0  0  0  0  0  0  0  0  0
  161.0750  203.5130  146.7080 C   0  0  1  0  0  0  0  0  0  0  0  0
  161.1940  202.0720  147.1930 C   0  0  0  0  0  1  0  0  0  0  0  0
  162.7280  205.3020  146.0150 C   0  0  0  0  0  2  0  0  0  0  0  0
  160.6240  206.9960  153.1540 C   0  0  0  0  0  2  0  0  0  0  0  0
  161.3190  207.0560  154.5110 C   0  0  0  0  0  2  0  0  0  0  0  0
  160.8110  208.8020  156.2440 C   0  0  0  0  0  0  0  0  0  0  0  0
  160.0190  209.2820  157.0960 O   0  0  0  0  0  1  0  0  0  0  0  0
  162.0440  209.4070  156.0310 O   0  0  0  0  0  0  0  0  0  0  0  0
  160.4360  207.6430  155.5050 N   0  0  0  0  0  2  0  0  0  0  0  0
  1  7  1  0  0  0  0
  2  1  1  0  0  0  0
  3  2  1  6  0  0  0
  3  4  1  0  0  0  0
  4  5  1  0  0  0  0
  5  6  1  0  0  0  0
  5 22  1  0  0  0  0
  7  6  1  0  0  0  0
  8  3  1  0  0  0  0
  8 13  1  0  0  0  0
  8  4  1  0  0  0  0
  9 12  2  0  0  0  0
  9 13  1  0  0  0  0
 10 11  2  0  0  0  0
 12 10  1  0  0  0  0
 13 14  2  0  0  0  0
 14 11  1  0  0  0  0
 15  9  1  0  0  0  0
 16 17  1  0  0  0  0
 16 19  1  0  0  0  0
 17 21  1  0  0  0  0
 17 18  1  0  0  0  0
 18 15  1  0  0  0  0
 19 18  1  0  0  0  0
 19 20  1  0  0  0  0
 19 15  1  0  0  0  0
 21 18  1  0  0  0  0
 22 23  1  0  0  0  0
 23 27  1  0  0  0  0
 24 25  1  0  0  0  0
 26 24  2  0  0  0  0
 27 24  1  0  0  0  0
M  END
>  <MODEL>
6

>  <REMARK>
 VINA RESULT:      -5.9      3.858      7.337
  Name = 
  5 active torsions:
  status: ('A' for Active; 'I' for Inactive)
    1  A    between atoms: C_1  and  C_6
    2  A    between atoms: C_2  and  C_14
    3  A    between atoms: C_2  and  N_20
    4  A    between atoms: C_14  and  C_19
    5  A    between atoms: C_17  and  C_27
                            x       y       z     vdW  Elec       q    Type
                         _______ _______ _______ _____ _____    ______ ____

>  <TORSDO>
F 5

$$$$
=
 OpenBabel11042420443D

 27 32  0  0  1  0  0  0  0  0999 V2000
  159.9340  210.1160  155.7960 C   0  0  0  0  0  2  0  0  0  0  0  0
  161.0130  209.2530  155.1070 C   0  0  0  0  0  2  0  0  0  0  0  0
  160.9360  209.4440  153.6070 C   0  0  1  0  0  3  0  0  0  0  0  0
  161.1900  210.8760  153.3900 N   0  0  2  0  0  0  0  0  0  0  0  0
  159.9040  211.2380  152.7920 C   0  0  1  0  0  3  0  0  0  0  0  0
  158.8810  211.5220  153.9200 C   0  0  0  0  0  2  0  0  0  0  0  0
  158.6830  210.3700  154.9280 C   0  0  0  0  0  2  0  0  0  0  0  0
  162.1060  209.8250  152.8500 C   0  0  2  0  0  3  0  0  0  0  0  0
  162.0150  208.2810  150.7910 C   0  0  0  0  0  0  0  0  0  0  0  0
  162.0010  209.2790  148.5640 C   0  0  0  0  0  3  0  0  0  0  0  0
  161.9570  210.5510  149.1260 C   0  0  0  0  0  3  0  0  0  0  0  0
  162.0540  208.1580  149.3910 C   0  0  0  0  0  3  0  0  0  0  0  0
  161.9550  209.5820  151.3640 C   0  0  0  0  0  0  0  0  0  0  0  0
  161.9600  210.6970  150.5120 C   0  0  0  0  0  3  0  0  0  0  0  0
  162.2650  207.0330  151.6160 C   0  0  1  0  0  3  0  0  0  0  0  0
  161.8640  204.5550  151.7520 N   0  0  0  0  0  2  0  0  0  0  0  0
  161.0010  205.0170  152.7580 N   0  0  2  0  0  0  0  0  0  0  0  0
  160.9940  206.3960  152.1790 C   0  0  1  0  0  0  0  0  0  0  0  0
  161.7420  205.7790  150.9940 C   0  0  1  0  0  0  0  0  0  0  0  0
  160.7330  205.7370  149.8500 C   0  0  0  0  0  1  0  0  0  0  0  0
  161.5810  206.1100  153.4990 C   0  0  0  0  0  2  0  0  0  0  0  0
  160.0370  212.4810  151.9050 C   0  0  0  0  0  2  0  0  0  0  0  0
  158.7000  213.0170  151.4040 C   0  0  0  0  0  2  0  0  0  0  0  0
  158.0200  213.7130  149.0880 C   0  0  0  0  0  0  0  0  0  0  0  0
  158.2200  214.4260  148.0700 O   0  0  0  0  0  0  0  0  0  0  0  0
  156.9480  212.8290  149.1100 O   0  0  0  0  0  1  0  0  0  0  0  0
  158.8940  213.8200  150.2080 N   0  0  0  0  0  2  0  0  0  0  0  0
  2  1  1  0  0  0  0
  3  2  1  1  0  0  0
  4  3  1  0  0  0  0
  5  4  1  0  0  0  0
  5  6  1  0  0  0  0
  6  7  1  0  0  0  0
  7  1  1  0  0  0  0
  8  4  1  0  0  0  0
  8  3  1  0  0  0  0
  9 13  1  0  0  0  0
  9 15  1  0  0  0  0
 10 11  2  0  0  0  0
 10 12  1  0  0  0  0
 11 14  1  0  0  0  0
 12  9  2  0  0  0  0
 13  8  1  0  0  0  0
 14 13  2  0  0  0  0
 15 18  1  0  0  0  0
 16 17  1  0  0  0  0
 17 21  1  0  0  0  0
 18 17  1  0  0  0  0
 18 21  1  0  0  0  0
 19 15  1  0  0  0  0
 19 16  1  0  0  0  0
 19 18  1  0  0  0  0
 20 19  1  0  0  0  0
 22  5  1  0  0  0  0
 23 22  1  0  0  0  0
 24 26  1  0  0  0  0
 24 27  1  0  0  0  0
 25 24  2  0  0  0  0
 27 23  1  0  0  0  0
M  END
>  <MODEL>
7

>  <REMARK>
 VINA RESULT:      -5.8      3.787      7.687
  Name = 
  5 active torsions:
  status: ('A' for Active; 'I' for Inactive)
    1  A    between atoms: C_1  and  C_6
    2  A    between atoms: C_2  and  C_14
    3  A    between atoms: C_2  and  N_20
    4  A    between atoms: C_14  and  C_19
    5  A    between atoms: C_17  and  C_27
                            x       y       z     vdW  Elec       q    Type
                         _______ _______ _______ _____ _____    ______ ____

>  <TORSDO>
F 5

$$$$
=
 OpenBabel11042420443D

 27 32  0  0  1  0  0  0  0  0999 V2000
  161.1450  205.2620  144.3730 C   0  0  0  0  0  2  0  0  0  0  0  0
  161.2930  206.2350  145.5640 C   0  0  0  0  0  2  0  0  0  0  0  0
  161.0530  205.4930  146.8610 C   0  0  1  0  0  3  0  0  0  0  0  0
  162.0880  204.4490  146.9030 N   0  0  2  0  0  0  0  0  0  0  0  0
  161.2150  203.2740  146.8890 C   0  0  1  0  0  3  0  0  0  0  0  0
  160.8390  202.9360  145.4250 C   0  0  0  0  0  2  0  0  0  0  0  0
  160.1780  204.0880  144.6380 C   0  0  0  0  0  2  0  0  0  0  0  0
  162.0260  205.5350  147.9280 C   0  0  2  0  0  3  0  0  0  0  0  0
  161.5660  205.8860  150.4370 C   0  0  0  0  0  0  0  0  0  0  0  0
  160.6860  204.0250  151.7490 C   0  0  0  0  0  3  0  0  0  0  0  0
  160.6000  203.2460  150.6000 C   0  0  0  0  0  3  0  0  0  0  0  0
  161.1870  205.3240  151.6690 C   0  0  0  0  0  3  0  0  0  0  0  0
  161.4640  205.0920  149.2600 C   0  0  0  0  0  0  0  0  0  0  0  0
  161.0100  203.7690  149.3740 C   0  0  0  0  0  3  0  0  0  0  0  0
  162.2730  207.2270  150.4610 C   0  0  1  0  0  3  0  0  0  0  0  0
  162.5070  209.3950  151.7140 N   0  0  0  0  0  2  0  0  0  0  0  0
  161.7910  209.8190  150.5830 N   0  0  2  0  0  0  0  0  0  0  0  0
  161.3370  208.4240  150.2920 C   0  0  1  0  0  0  0  0  0  0  0  0
  161.9400  208.0660  151.6530 C   0  0  1  0  0  0  0  0  0  0  0  0
  160.7520  207.8240  152.5780 C   0  0  0  0  0  1  0  0  0  0  0  0
  162.2410  209.1530  149.3850 C   0  0  0  0  0  2  0  0  0  0  0  0
  161.9070  202.0640  147.5260 C   0  0  0  0  0  2  0  0  0  0  0  0
  160.9950  200.8500  147.6750 C   0  0  0  0  0  2  0  0  0  0  0  0
  161.1870  199.2600  145.7390 C   0  0  0  0  0  0  0  0  0  0  0  0
  161.7290  198.2500  145.2190 O   0  0  0  0  0  1  0  0  0  0  0  0
  160.2000  199.9470  145.0440 O   0  0  0  0  0  0  0  0  0  0  0  0
  161.5930  199.6890  147.0360 N   0  0  0  0  0  2  0  0  0  0  0  0
  1  7  1  0  0  0  0
  1  2  1  0  0  0  0
  3  2  1  6  0  0  0
  3  4  1  0  0  0  0
  3  8  1  0  0  0  0
  4  8  1  0  0  0  0
  5  4  1  0  0  0  0
  5 22  1  0  0  0  0
  6  5  1  0  0  0  0
  7  6  1  0  0  0  0
  8 13  1  0  0  0  0
  9 15  1  0  0  0  0
  9 12  1  0  0  0  0
 11 10  1  0  0  0  0
 12 10  2  0  0  0  0
 13 14  1  0  0  0  0
 13  9  2  0  0  0  0
 14 11  2  0  0  0  0
 15 19  1  0  0  0  0
 17 16  1  0  0  0  0
 18 15  1  0  0  0  0
 18 17  1  0  0  0  0
 18 19  1  0  0  0  0
 19 16  1  0  0  0  0
 19 20  1  0  0  0  0
 21 18  1  0  0  0  0
 21 17  1  0  0  0  0
 22 23  1  0  0  0  0
 24 27  1  0  0  0  0
 25 24  1  0  0  0  0
 26 24  2  0  0  0  0
 27 23  1  0  0  0  0
M  END
>  <MODEL>
8

>  <REMARK>
 VINA RESULT:      -5.7      2.697      4.288
  Name = 
  5 active torsions:
  status: ('A' for Active; 'I' for Inactive)
    1  A    between atoms: C_1  and  C_6
    2  A    between atoms: C_2  and  C_14
    3  A    between atoms: C_2  and  N_20
    4  A    between atoms: C_14  and  C_19
    5  A    between atoms: C_17  and  C_27
                            x       y       z     vdW  Elec       q    Type
                         _______ _______ _______ _____ _____    ______ ____

>  <TORSDO>
F 5

$$$$
=
 OpenBabel11042420443D

 27 32  0  0  1  0  0  0  0  0999 V2000
  160.0770  207.2410  155.8270 C   0  0  0  0  0  2  0  0  0  0  0  0
  160.8140  206.5480  154.6600 C   0  0  0  0  0  2  0  0  0  0  0  0
  160.8580  207.4730  153.4630 C   0  0  1  0  0  3  0  0  0  0  0  0
  161.5970  208.6590  153.9220 N   0  0  2  0  0  0  0  0  0  0  0  0
  160.5350  209.6540  153.7640 C   0  0  1  0  0  3  0  0  0  0  0  0
  159.6350  209.6430  155.0250 C   0  0  0  0  0  2  0  0  0  0  0  0
  159.0190  208.2720  155.3770 C   0  0  0  0  0  2  0  0  0  0  0  0
  162.1120  207.7900  152.8200 C   0  0  2  0  0  3  0  0  0  0  0  0
  161.8200  207.5770  150.2700 C   0  0  0  0  0  0  0  0  0  0  0  0
  161.9520  209.5870  148.8920 C   0  0  0  0  0  3  0  0  0  0  0  0
  162.0790  210.3710  150.0350 C   0  0  0  0  0  3  0  0  0  0  0  0
  161.8470  208.2010  149.0110 C   0  0  0  0  0  3  0  0  0  0  0  0
  161.9350  208.3810  151.4380 C   0  0  0  0  0  0  0  0  0  0  0  0
  162.0960  209.7680  151.2910 C   0  0  0  0  0  3  0  0  0  0  0  0
  161.8940  206.0630  150.3080 C   0  0  1  0  0  3  0  0  0  0  0  0
  161.2970  203.9530  149.0770 N   0  0  0  0  0  2  0  0  0  0  0  0
  160.3760  203.9100  150.1370 N   0  0  2  0  0  0  0  0  0  0  0  0
  160.5290  205.3770  150.3870 C   0  0  1  0  0  0  0  0  0  0  0  0
  161.3410  205.3980  149.0890 C   0  0  1  0  0  0  0  0  0  0  0  0
  160.4490  206.0830  148.0590 C   0  0  0  0  0  1  0  0  0  0  0  0
  160.9610  204.3700  151.3720 C   0  0  0  0  0  2  0  0  0  0  0  0
  161.1170  211.0580  153.5690 C   0  0  0  0  0  2  0  0  0  0  0  0
  160.0820  212.1700  153.7100 C   0  0  0  0  0  2  0  0  0  0  0  0
  158.3670  213.0920  152.1220 C   0  0  0  0  0  0  0  0  0  0  0  0
  158.0750  213.5220  150.9750 O   0  0  0  0  0  0  0  0  0  0  0  0
  157.3880  213.0300  153.1050 O   0  0  0  0  0  1  0  0  0  0  0  0
  159.7010  212.6730  152.4000 N   0  0  0  0  0  2  0  0  0  0  0  0
  2  1  1  0  0  0  0
  3  4  1  0  0  0  0
  3  2  1  1  0  0  0
  5  4  1  0  0  0  0
  5  6  1  0  0  0  0
  6  7  1  0  0  0  0
  7  1  1  0  0  0  0
  8  3  1  0  0  0  0
  8  4  1  0  0  0  0
  9 15  1  0  0  0  0
  9 13  1  0  0  0  0
 10 12  1  0  0  0  0
 10 11  2  0  0  0  0
 11 14  1  0  0  0  0
 12  9  2  0  0  0  0
 13  8  1  0  0  0  0
 14 13  2  0  0  0  0
 15 18  1  0  0  0  0
 16 19  1  0  0  0  0
 16 17  1  0  0  0  0
 17 18  1  0  0  0  0
 17 21  1  0  0  0  0
 18 21  1  0  0  0  0
 19 15  1  0  0  0  0
 19 18  1  0  0  0  0
 20 19  1  0  0  0  0
 22 23  1  0  0  0  0
 22  5  1  0  0  0  0
 24 27  1  0  0  0  0
 24 26  1  0  0  0  0
 25 24  2  0  0  0  0
 27 23  1  0  0  0  0
M  END
>  <MODEL>
9

>  <REMARK>
 VINA RESULT:      -5.2      3.762      7.616
  Name = 
  5 active torsions:
  status: ('A' for Active; 'I' for Inactive)
    1  A    between atoms: C_1  and  C_6
    2  A    between atoms: C_2  and  C_14
    3  A    between atoms: C_2  and  N_20
    4  A    between atoms: C_14  and  C_19
    5  A    between atoms: C_17  and  C_27
                            x       y       z     vdW  Elec       q    Type
                         _______ _______ _______ _____ _____    ______ ____

>  <TORSDO>
F 5

$$$$
