=
 OpenBabel11042422253D

 34 37  0  0  1  0  0  0  0  0999 V2000
  157.8580  211.9770  154.9780 C   0  0  0  0  0  0  0  0  0  0  0  0
  159.1750  211.1200  156.9650 C   0  0  1  0  0  3  0  0  0  0  0  0
  161.1620  210.2790  154.1210 C   0  0  0  0  0  0  0  0  0  0  0  0
  160.7720  209.3430  151.8000 C   0  0  2  0  0  3  0  0  0  0  0  0
  158.9420  211.4510  154.0510 C   0  0  1  0  0  3  0  0  0  0  0  0
  161.7560  207.9330  153.6580 C   0  0  0  0  0  1  0  0  0  0  0  0
  160.3890  211.8640  151.6780 C   0  0  2  0  0  3  0  0  0  0  0  0
  159.7250  210.2330  154.5830 C   0  0  2  0  0  3  0  0  0  0  0  0
  161.6580  209.3300  153.0630 C   0  0  2  0  0  3  0  0  0  0  0  0
  154.7110  214.3350  152.4640 O   0  0  0  0  0  0  0  0  0  0  0  0
  161.0740  208.2520  150.9820 O   0  0  0  0  0  1  0  0  0  0  0  0
  161.9310  211.1040  154.5890 O   0  0  0  0  0  0  0  0  0  0  0  0
  158.4490  211.0980  152.6440 C   0  0  0  0  0  2  0  0  0  0  0  0
  160.9390  210.6200  150.9740 C   0  0  0  0  0  2  0  0  0  0  0  0
  155.8500  213.2730  155.3880 C   0  0  0  0  0  0  0  0  0  0  0  0
  156.7690  212.7450  154.5270 C   0  0  0  0  0  0  0  0  0  0  0  0
  157.9930  211.8300  156.3840 C   0  0  0  0  0  0  0  0  0  0  0  0
  155.3300  213.8220  153.4320 C   0  0  0  0  0  0  0  0  0  0  0  0
  154.9170  213.9640  154.7150 N   0  0  0  0  0  2  0  0  0  0  0  0
  158.9800  211.9430  151.6470 O   0  0  0  0  0  0  0  0  0  0  0  0
  157.0350  212.3850  157.2610 C   0  0  0  0  0  3  0  0  0  0  0  0
  156.4570  213.0890  153.2670 N   0  0  0  0  0  2  0  0  0  0  0  0
  159.5220  209.9200  156.0820 C   0  0  1  0  0  3  0  0  0  0  0  0
  155.9420  213.1130  156.7660 C   0  0  0  0  0  3  0  0  0  0  0  0
  161.5240  209.3240  157.2590 O   0  0  0  0  0  0  0  0  0  0  0  0
  159.0280  206.9850  155.9620 C   0  0  0  0  0  1  0  0  0  0  0  0
  160.2090  207.5240  156.6170 N   0  0  0  0  0  2  0  0  0  0  0  0
  160.4720  208.9260  156.6920 C   0  0  0  0  0  0  0  0  0  0  0  0
  160.3040  212.0510  157.1160 C   0  0  0  0  0  0  0  0  0  0  0  0
  161.1910  212.7840  157.2340 N   0  0  0  0  0  0  0  0  0  0  0  0
  161.0130  213.1370  151.1090 C   0  0  0  0  0  2  0  0  0  0  0  0
  160.0630  213.9040  150.1960 C   0  0  0  0  0  2  0  0  0  0  0  0
  161.7270  213.2190  148.6430 O   0  0  0  0  0  1  0  0  0  0  0  0
  160.4040  213.6480  148.7400 C   0  0  0  0  0  2  0  0  0  0  0  0
  1 17  1  0  0  0  0
  2 29  1  6  0  0  0
  3 12  2  0  0  0  0
  4 11  1  6  0  0  0
  4  9  1  0  0  0  0
  5 13  1  6  0  0  0
  5  8  1  0  0  0  0
  5  1  1  0  0  0  0
  7 31  1  6  0  0  0
  8  3  1  1  0  0  0
  8 23  1  0  0  0  0
  9  6  1  1  0  0  0
  9  3  1  0  0  0  0
 10 18  2  0  0  0  0
 14  7  1  0  0  0  0
 14  4  1  0  0  0  0
 15 24  2  0  0  0  0
 16  1  2  0  0  0  0
 16 15  1  0  0  0  0
 17  2  1  0  0  0  0
 17 21  2  0  0  0  0
 18 19  1  0  0  0  0
 19 15  1  0  0  0  0
 20  7  1  0  0  0  0
 20 13  1  0  0  0  0
 22 18  1  0  0  0  0
 22 16  1  0  0  0  0
 23 28  1  1  0  0  0
 23  2  1  0  0  0  0
 24 21  1  0  0  0  0
 26 27  1  0  0  0  0
 27 28  1  0  0  0  0
 28 25  2  0  0  0  0
 29 30  3  0  0  0  0
 32 31  1  0  0  0  0
 33 34  1  0  0  0  0
 34 32  1  0  0  0  0
M  END
>  <MODEL>
1

>  <REMARK>
 VINA RESULT:      -2.7      0.000      0.000
  Name = 
  5 active torsions:
  status: ('A' for Active; 'I' for Inactive)
    1  A    between atoms: C_2  and  C_8
    2  A    between atoms: C_9  and  C_11
    3  A    between atoms: C_9  and  C_29
    4  A    between atoms: C_16  and  C_32
    5  A    between atoms: C_29  and  C_33
                            x       y       z     vdW  Elec       q    Type
                         _______ _______ _______ _____ _____    ______ ____

>  <TORSDO>
F 5

$$$$
=
 OpenBabel11042422253D

 34 37  0  0  1  0  0  0  0  0999 V2000
  160.9090  211.5270  151.5560 C   0  0  0  0  0  0  0  0  0  0  0  0
  161.7980  209.5700  152.8960 C   0  0  1  0  0  3  0  0  0  0  0  0
  159.4790  211.1920  155.0740 C   0  0  0  0  0  0  0  0  0  0  0  0
  158.8900  213.5710  155.7120 C   0  0  2  0  0  3  0  0  0  0  0  0
  160.0460  211.9280  152.7410 C   0  0  1  0  0  3  0  0  0  0  0  0
  160.2130  212.0650  157.2580 C   0  0  0  0  0  1  0  0  0  0  0  0
  157.5940  213.0100  153.5860 C   0  0  2  0  0  3  0  0  0  0  0  0
  160.6030  211.5280  154.1230 C   0  0  2  0  0  3  0  0  0  0  0  0
  159.1220  212.1250  156.1990 C   0  0  2  0  0  3  0  0  0  0  0  0
  159.9060  214.2910  147.9310 O   0  0  0  0  0  0  0  0  0  0  0  0
  158.8660  214.4520  156.7960 O   0  0  0  0  0  1  0  0  0  0  0  0
  158.8360  210.1640  154.9250 O   0  0  0  0  0  0  0  0  0  0  0  0
  159.7130  213.4230  152.7980 C   0  0  0  0  0  2  0  0  0  0  0  0
  157.5800  213.7290  154.9370 C   0  0  0  0  0  2  0  0  0  0  0  0
  161.5610  211.7320  149.2290 C   0  0  0  0  0  0  0  0  0  0  0  0
  160.8330  212.1600  150.3020 C   0  0  0  0  0  0  0  0  0  0  0  0
  161.7340  210.3730  151.6360 C   0  0  0  0  0  0  0  0  0  0  0  0
  160.4070  213.3810  148.6410 C   0  0  0  0  0  0  0  0  0  0  0  0
  161.3100  212.4940  148.1540 N   0  0  0  0  0  2  0  0  0  0  0  0
  158.3420  213.6890  152.6010 O   0  0  0  0  0  0  0  0  0  0  0  0
  162.4780  209.9410  150.5160 C   0  0  0  0  0  3  0  0  0  0  0  0
  160.0820  213.2150  149.9460 N   0  0  0  0  0  2  0  0  0  0  0  0
  161.7720  210.5180  154.0970 C   0  0  1  0  0  3  0  0  0  0  0  0
  162.4020  210.6260  149.2930 C   0  0  0  0  0  3  0  0  0  0  0  0
  161.4410  208.9830  155.9080 O   0  0  0  0  0  0  0  0  0  0  0  0
  164.1550  211.4200  155.6400 C   0  0  0  0  0  1  0  0  0  0  0  0
  163.2980  210.3540  156.1320 N   0  0  0  0  0  2  0  0  0  0  0  0
  162.1500  209.8990  155.4140 C   0  0  0  0  0  0  0  0  0  0  0  0
  160.7010  208.5900  152.9320 C   0  0  0  0  0  0  0  0  0  0  0  0
  159.8380  207.8200  152.9590 N   0  0  0  0  0  0  0  0  0  0  0  0
  156.1730  212.7420  153.0930 C   0  0  0  0  0  2  0  0  0  0  0  0
  155.2900  213.9840  153.1280 C   0  0  0  0  0  2  0  0  0  0  0  0
  155.8690  214.1060  150.8260 O   0  0  0  0  0  1  0  0  0  0  0  0
  154.8350  214.3510  151.7290 C   0  0  0  0  0  2  0  0  0  0  0  0
  1 17  1  0  0  0  0
  1  5  1  0  0  0  0
  2 29  1  1  0  0  0
  2 23  1  0  0  0  0
  3  9  1  0  0  0  0
  4  9  1  0  0  0  0
  4 11  1  1  0  0  0
  5 13  1  1  0  0  0
  5  8  1  0  0  0  0
  7 31  1  6  0  0  0
  7 14  1  0  0  0  0
  8  3  1  1  0  0  0
  9  6  1  1  0  0  0
 10 18  2  0  0  0  0
 12  3  2  0  0  0  0
 14  4  1  0  0  0  0
 15 24  2  0  0  0  0
 15 16  1  0  0  0  0
 16  1  2  0  0  0  0
 17  2  1  0  0  0  0
 18 22  1  0  0  0  0
 19 18  1  0  0  0  0
 19 15  1  0  0  0  0
 20 13  1  0  0  0  0
 20  7  1  0  0  0  0
 21 17  2  0  0  0  0
 22 16  1  0  0  0  0
 23  8  1  0  0  0  0
 23 28  1  1  0  0  0
 24 21  1  0  0  0  0
 26 27  1  0  0  0  0
 28 25  2  0  0  0  0
 28 27  1  0  0  0  0
 29 30  3  0  0  0  0
 31 32  1  0  0  0  0
 33 34  1  0  0  0  0
 34 32  1  0  0  0  0
M  END
>  <MODEL>
2

>  <REMARK>
 VINA RESULT:      -0.6      2.471      5.768
  Name = 
  5 active torsions:
  status: ('A' for Active; 'I' for Inactive)
    1  A    between atoms: C_2  and  C_8
    2  A    between atoms: C_9  and  C_11
    3  A    between atoms: C_9  and  C_29
    4  A    between atoms: C_16  and  C_32
    5  A    between atoms: C_29  and  C_33
                            x       y       z     vdW  Elec       q    Type
                         _______ _______ _______ _____ _____    ______ ____

>  <TORSDO>
F 5

$$$$
