=
 OpenBabel11042422553D

 54 61  0  0  1  0  0  0  0  0999 V2000
  162.5180  210.4190  153.2070 C   0  0  0  0  0  2  0  0  0  0  0  0
  161.7210  211.0850  154.3320 C   0  0  0  0  0  2  0  0  0  0  0  0
  161.3900  205.8830  151.9000 C   0  0  0  0  0  0  0  0  0  0  0  0
  161.4260  209.0090  155.4230 C   0  0  0  0  0  2  0  0  0  0  0  0
  160.8410  207.7560  154.8400 C   0  0  0  0  0  0  0  0  0  0  0  0
  162.7540  207.3310  150.5420 O   0  0  0  0  0  0  0  0  0  0  0  0
  162.0400  207.1410  151.5610 C   0  0  0  0  0  0  0  0  0  0  0  0
  160.8140  206.0000  153.0850 C   0  0  0  0  0  3  0  0  0  0  0  0
  160.7300  210.1820  154.9170 N   0  0  0  0  0  2  0  0  0  0  0  0
  161.6080  209.5590  152.3450 C   0  0  2  0  0  3  0  0  0  0  0  0
  161.0950  207.3630  153.5720 C   0  0  0  0  0  0  0  0  0  0  0  0
  161.8180  208.1190  152.5780 N   0  0  0  0  0  0  0  0  0  0  0  0
  160.0650  206.8770  155.7340 C   0  0  0  0  0  3  0  0  0  0  0  0
  160.0620  207.0480  157.0170 N   0  0  0  0  0  2  0  0  0  0  0  0
  161.5000  210.0060  150.8780 C   0  0  0  0  0  2  0  0  0  0  0  0
  160.0150  211.8590  151.2160 O   0  0  0  0  0  1  0  0  0  0  0  0
  161.2510  211.5010  150.6760 C   0  0  2  0  0  3  0  0  0  0  0  0
  161.2390  211.8260  149.1910 C   0  0  0  0  0  2  0  0  0  0  0  0
  162.8770  213.3350  148.1910 N   0  0  0  0  0  2  0  0  0  0  0  0
  161.6240  213.7170  147.5210 C   0  0  2  0  0  3  0  0  0  0  0  0
  161.6080  213.2860  148.9360 C   0  0  1  0  0  3  0  0  0  0  0  0
  161.2210  212.6470  146.5040 C   0  0  0  0  0  2  0  0  0  0  0  0
  161.9020  214.4530  145.1030 O   0  0  0  0  0  1  0  0  0  0  0  0
  161.4270  213.1390  145.0740 C   0  0  2  0  0  3  0  0  0  0  0  0
  160.1140  213.0700  144.2800 C   0  0  2  0  0  3  0  0  0  0  0  0
  159.3880  211.9320  144.6360 O   0  0  0  0  0  1  0  0  0  0  0  0
  161.0390  214.3330  142.2850 C   0  0  0  0  0  2  0  0  0  0  0  0
  162.1840  213.9730  141.3450 C   0  0  0  0  0  2  0  0  0  0  0  0
  160.3120  213.0820  142.7590 C   0  0  2  0  0  3  0  0  0  0  0  0
  162.2400  211.1990  141.3600 O   0  0  0  0  0  1  0  0  0  0  0  0
  160.0740  211.2040  140.2710 C   0  0  2  0  0  3  0  0  0  0  0  0
  159.2040  213.2520  139.4080 C   0  0  1  0  0  3  0  0  0  0  0  0
  160.5590  213.9870  139.3860 C   0  0  0  0  0  2  0  0  0  0  0  0
  159.7150  210.9320  138.8160 C   0  0  0  0  0  2  0  0  0  0  0  0
  159.2020  212.2640  138.2480 C   0  0  0  0  0  2  0  0  0  0  0  0
  159.0960  212.3150  140.5930 C   0  0  2  0  0  3  0  0  0  0  0  0
  161.7240  213.2400  140.0800 C   0  0  2  0  0  3  0  0  0  0  0  0
  161.5320  211.7050  140.2650 C   0  0  1  0  0  3  0  0  0  0  0  0
  158.9930  212.8920  142.0150 C   0  0  0  0  0  2  0  0  0  0  0  0
  161.3600  204.7100  151.1430 O   0  0  0  0  0  0  0  0  0  0  0  0
  160.5180  203.6140  151.4670 C   0  0  0  0  0  2  0  0  0  0  0  0
  161.2020  202.3140  151.0920 C   0  0  0  0  0  2  0  0  0  0  0  0
  160.5030  201.6870  149.9810 N   0  0  0  0  0  2  0  0  0  0  0  0
  161.1070  201.3670  148.7190 C   0  0  0  0  0  0  0  0  0  0  0  0
  161.6340  200.1550  148.5790 C   0  0  0  0  0  2  0  0  0  0  0  0
  160.7750  201.9790  146.2970 C   0  0  0  0  0  3  0  0  0  0  0  0
  162.1420  206.1210  145.3050 C   0  0  0  0  0  3  0  0  0  0  0  0
  161.7490  203.6300  147.8140 C   0  0  0  0  0  3  0  0  0  0  0  0
  161.8350  204.4950  146.7260 C   0  0  0  0  0  0  0  0  0  0  0  0
  161.4160  204.1330  145.4810 C   0  0  0  0  0  0  0  0  0  0  0  0
  161.6050  205.1120  144.6390 O   0  0  0  0  0  0  0  0  0  0  0  0
  161.2000  202.3450  147.6030 C   0  0  0  0  0  0  0  0  0  0  0  0
  160.8770  202.8770  145.2200 C   0  0  0  0  0  3  0  0  0  0  0  0
  162.3140  205.7840  146.6500 C   0  0  0  0  0  3  0  0  0  0  0  0
  1  2  1  0  0  0  0
  2  9  1  0  0  0  0
  3  8  2  0  0  0  0
  5  4  1  0  0  0  0
  5 13  1  0  0  0  0
  6  7  2  0  0  0  0
  7  3  1  0  0  0  0
  7 12  1  0  0  0  0
  8 11  1  0  0  0  0
  9  4  1  0  0  0  0
 10 15  1  6  0  0  0
 10 12  1  0  0  0  0
 10  1  1  0  0  0  0
 11  5  2  0  0  0  0
 12 11  1  0  0  0  0
 13 14  2  0  0  0  0
 17 15  1  0  0  0  0
 17 16  1  6  0  0  0
 18 17  1  0  0  0  0
 19 21  1  0  0  0  0
 20 22  1  6  0  0  0
 20 19  1  0  0  0  0
 20 21  1  0  0  0  0
 21 18  1  6  0  0  0
 24 23  1  1  0  0  0
 24 22  1  0  0  0  0
 25 26  1  6  0  0  0
 25 24  1  0  0  0  0
 27 29  1  0  0  0  0
 28 27  1  0  0  0  0
 29 25  1  1  0  0  0
 31 34  1  6  0  0  0
 31 36  1  0  0  0  0
 32 35  1  6  0  0  0
 32 36  1  0  0  0  0
 33 32  1  0  0  0  0
 35 34  1  0  0  0  0
 36 39  1  1  0  0  0
 37 33  1  1  0  0  0
 37 38  1  0  0  0  0
 37 28  1  0  0  0  0
 38 31  1  0  0  0  0
 38 30  1  1  0  0  0
 39 29  1  0  0  0  0
 40 41  1  0  0  0  0
 40  3  1  0  0  0  0
 42 41  1  0  0  0  0
 43 42  1  0  0  0  0
 44 43  1  0  0  0  0
 45 44  2  0  0  0  0
 46 52  1  0  0  0  0
 47 54  2  0  0  0  0
 49 48  1  0  0  0  0
 50 49  2  0  0  0  0
 51 47  1  0  0  0  0
 51 50  1  0  0  0  0
 52 48  2  0  0  0  0
 52 44  1  0  0  0  0
 53 50  1  0  0  0  0
 53 46  2  0  0  0  0
 54 49  1  0  0  0  0
M  END
>  <MODEL>
1

>  <REMARK>
 VINA RESULT:      -7.6      0.000      0.000
  Name = 
  15 active torsions:
  status: ('A' for Active; 'I' for Inactive)
    1  A    between atoms: C_1  and  C_23
    2  A    between atoms: C_2  and  C_22
    3  A    between atoms: C_2  and  C_46
    4  A    between atoms: C_5  and  C_20
    5  A    between atoms: C_5  and  C_24
    6  A    between atoms: C_11  and  C_33
    7  A    between atoms: C_11  and  N_42
    8  A    between atoms: C_13  and  C_14
    9  A    between atoms: C_13  and  C_46
   10  A    between atoms: C_15  and  O_51
   11  A    between atoms: C_17  and  N_42
   12  A    between atoms: C_17  and  C_45
   13  A    between atoms: C_24  and  C_32
   14  A    between atoms: C_32  and  C_43
   15  A    between atoms: C_33  and  O_51
                            x       y       z     vdW  Elec       q    Type
                         _______ _______ _______ _____ _____    ______ ____

>  <TORSDO>
F 15

$$$$
=
 OpenBabel11042422553D

 54 61  0  0  1  0  0  0  0  0999 V2000
  158.8100  210.3840  155.3960 C   0  0  0  0  0  2  0  0  0  0  0  0
  158.5110  210.7180  156.8600 C   0  0  0  0  0  2  0  0  0  0  0  0
  158.0190  213.7710  152.0100 C   0  0  0  0  0  0  0  0  0  0  0  0
  156.7200  212.1250  156.2280 C   0  0  0  0  0  2  0  0  0  0  0  0
  156.7740  213.2840  155.2760 C   0  0  0  0  0  0  0  0  0  0  0  0
  159.3480  211.8040  151.6020 O   0  0  0  0  0  0  0  0  0  0  0  0
  158.6850  212.5310  152.3860 C   0  0  0  0  0  0  0  0  0  0  0  0
  157.3270  214.2200  153.0440 C   0  0  0  0  0  3  0  0  0  0  0  0
  157.9400  212.0550  157.0170 N   0  0  0  0  0  2  0  0  0  0  0  0
  159.3920  211.5940  154.6810 C   0  0  2  0  0  3  0  0  0  0  0  0
  157.5090  213.2540  154.1410 C   0  0  0  0  0  0  0  0  0  0  0  0
  158.4270  212.2100  153.7540 N   0  0  0  0  0  0  0  0  0  0  0  0
  155.8940  214.4370  155.5430 C   0  0  0  0  0  3  0  0  0  0  0  0
  154.6620  214.4530  155.1480 N   0  0  0  0  0  2  0  0  0  0  0  0
  160.8220  211.4030  154.1530 C   0  0  0  0  0  2  0  0  0  0  0  0
  162.4300  210.3270  155.5700 O   0  0  0  0  0  1  0  0  0  0  0  0
  161.4920  210.0910  154.5650 C   0  0  2  0  0  3  0  0  0  0  0  0
  162.2080  209.4810  153.3720 C   0  0  0  0  0  2  0  0  0  0  0  0
  162.4210  209.7080  150.9500 N   0  0  0  0  0  2  0  0  0  0  0  0
  161.4040  208.6540  151.0950 C   0  0  2  0  0  3  0  0  0  0  0  0
  161.4650  209.7670  152.0680 C   0  0  1  0  0  3  0  0  0  0  0  0
  162.0580  207.3470  151.5480 C   0  0  0  0  0  2  0  0  0  0  0  0
  161.1880  206.0870  153.3770 O   0  0  0  0  0  1  0  0  0  0  0  0
  161.0120  206.3390  152.0140 C   0  0  2  0  0  3  0  0  0  0  0  0
  161.1250  205.0300  151.2170 C   0  0  2  0  0  3  0  0  0  0  0  0
  162.2610  204.3190  151.6070 O   0  0  0  0  0  1  0  0  0  0  0  0
  159.9540  206.0180  149.1960 C   0  0  0  0  0  2  0  0  0  0  0  0
  160.3870  207.1500  148.2720 C   0  0  0  0  0  2  0  0  0  0  0  0
  161.1600  205.2350  149.6970 C   0  0  2  0  0  3  0  0  0  0  0  0
  163.1590  207.0850  148.3560 O   0  0  0  0  0  1  0  0  0  0  0  0
  163.0870  204.9250  147.2550 C   0  0  2  0  0  3  0  0  0  0  0  0
  161.0250  204.1500  146.3370 C   0  0  1  0  0  3  0  0  0  0  0  0
  160.3510  205.5360  146.3040 C   0  0  0  0  0  2  0  0  0  0  0  0
  163.3790  204.5610  145.8060 C   0  0  0  0  0  2  0  0  0  0  0  0
  162.0410  204.1100  145.2020 C   0  0  0  0  0  2  0  0  0  0  0  0
  161.9260  203.9960  147.5450 C   0  0  2  0  0  3  0  0  0  0  0  0
  161.1300  206.6640  147.0230 C   0  0  2  0  0  3  0  0  0  0  0  0
  162.6500  206.4040  147.2440 C   0  0  1  0  0  3  0  0  0  0  0  0
  161.3110  203.9130  148.9520 C   0  0  0  0  0  2  0  0  0  0  0  0
  158.0610  214.4170  150.7730 O   0  0  0  0  0  0  0  0  0  0  0  0
  159.2150  214.4080  149.9460 C   0  0  0  0  0  2  0  0  0  0  0  0
  158.8490  213.9080  148.5620 C   0  0  0  0  0  2  0  0  0  0  0  0
  159.8960  213.0320  148.0590 N   0  0  0  0  0  2  0  0  0  0  0  0
  161.1230  213.4890  147.4700 C   0  0  0  0  0  0  0  0  0  0  0  0
  161.9240  214.2400  148.2200 C   0  0  0  0  0  2  0  0  0  0  0  0
  162.7840  213.5480  145.5750 C   0  0  0  0  0  3  0  0  0  0  0  0
  161.1890  211.8480  141.7570 C   0  0  0  0  0  3  0  0  0  0  0  0
  160.5670  212.5970  145.1790 C   0  0  0  0  0  3  0  0  0  0  0  0
  160.9630  212.3670  143.8640 C   0  0  0  0  0  0  0  0  0  0  0  0
  162.2040  212.7060  143.4140 C   0  0  0  0  0  0  0  0  0  0  0  0
  162.3280  212.3920  142.1540 O   0  0  0  0  0  0  0  0  0  0  0  0
  161.4960  213.1930  146.0610 C   0  0  0  0  0  0  0  0  0  0  0  0
  163.1510  213.3030  144.2400 C   0  0  0  0  0  3  0  0  0  0  0  0
  160.2740  211.8060  142.8130 C   0  0  0  0  0  3  0  0  0  0  0  0
  1  2  1  0  0  0  0
  2  9  1  0  0  0  0
  3  7  1  0  0  0  0
  3  8  2  0  0  0  0
  4  9  1  0  0  0  0
  5 13  1  0  0  0  0
  5  4  1  0  0  0  0
  6  7  2  0  0  0  0
  7 12  1  0  0  0  0
  8 11  1  0  0  0  0
 10 15  1  6  0  0  0
 10  1  1  0  0  0  0
 11  5  2  0  0  0  0
 12 11  1  0  0  0  0
 12 10  1  0  0  0  0
 14 13  2  0  0  0  0
 15 17  1  0  0  0  0
 17 16  1  1  0  0  0
 18 17  1  0  0  0  0
 19 20  1  0  0  0  0
 19 21  1  0  0  0  0
 20 22  1  1  0  0  0
 20 21  1  0  0  0  0
 21 18  1  1  0  0  0
 22 24  1  0  0  0  0
 24 23  1  1  0  0  0
 25 26  1  1  0  0  0
 25 24  1  0  0  0  0
 27 29  1  0  0  0  0
 28 27  1  0  0  0  0
 29 25  1  1  0  0  0
 31 34  1  6  0  0  0
 31 36  1  0  0  0  0
 32 35  1  6  0  0  0
 32 36  1  0  0  0  0
 33 32  1  0  0  0  0
 35 34  1  0  0  0  0
 36 39  1  1  0  0  0
 37 33  1  1  0  0  0
 37 38  1  0  0  0  0
 37 28  1  0  0  0  0
 38 31  1  0  0  0  0
 38 30  1  1  0  0  0
 39 29  1  0  0  0  0
 40  3  1  0  0  0  0
 41 40  1  0  0  0  0
 42 41  1  0  0  0  0
 43 42  1  0  0  0  0
 44 43  1  0  0  0  0
 44 45  2  0  0  0  0
 46 52  1  0  0  0  0
 47 51  1  0  0  0  0
 47 54  2  0  0  0  0
 48 52  2  0  0  0  0
 49 48  1  0  0  0  0
 50 49  2  0  0  0  0
 50 53  1  0  0  0  0
 51 50  1  0  0  0  0
 52 44  1  0  0  0  0
 53 46  2  0  0  0  0
 54 49  1  0  0  0  0
M  END
>  <MODEL>
2

>  <REMARK>
 VINA RESULT:      -7.1      2.858      8.939
  Name = 
  15 active torsions:
  status: ('A' for Active; 'I' for Inactive)
    1  A    between atoms: C_1  and  C_23
    2  A    between atoms: C_2  and  C_22
    3  A    between atoms: C_2  and  C_46
    4  A    between atoms: C_5  and  C_20
    5  A    between atoms: C_5  and  C_24
    6  A    between atoms: C_11  and  C_33
    7  A    between atoms: C_11  and  N_42
    8  A    between atoms: C_13  and  C_14
    9  A    between atoms: C_13  and  C_46
   10  A    between atoms: C_15  and  O_51
   11  A    between atoms: C_17  and  N_42
   12  A    between atoms: C_17  and  C_45
   13  A    between atoms: C_24  and  C_32
   14  A    between atoms: C_32  and  C_43
   15  A    between atoms: C_33  and  O_51
                            x       y       z     vdW  Elec       q    Type
                         _______ _______ _______ _____ _____    ______ ____

>  <TORSDO>
F 15

$$$$
=
 OpenBabel11042422553D

 54 61  0  0  1  0  0  0  0  0999 V2000
  161.6160  203.5440  150.4010 C   0  0  0  0  0  2  0  0  0  0  0  0
  160.8080  202.2930  150.7560 C   0  0  0  0  0  2  0  0  0  0  0  0
  161.7850  204.9900  145.7710 C   0  0  0  0  0  0  0  0  0  0  0  0
  161.3180  201.3080  148.6700 C   0  0  0  0  0  2  0  0  0  0  0  0
  161.0780  201.8940  147.3100 C   0  0  0  0  0  0  0  0  0  0  0  0
  162.4400  206.4080  147.6050 O   0  0  0  0  0  0  0  0  0  0  0  0
  161.9620  205.3250  147.1770 C   0  0  0  0  0  0  0  0  0  0  0  0
  161.3630  203.7410  145.6740 C   0  0  0  0  0  3  0  0  0  0  0  0
  160.2330  201.6530  149.5740 N   0  0  0  0  0  2  0  0  0  0  0  0
  160.9110  204.3450  149.3170 C   0  0  2  0  0  3  0  0  0  0  0  0
  161.2700  203.2060  147.0440 C   0  0  0  0  0  0  0  0  0  0  0  0
  161.5850  204.2290  148.0120 N   0  0  0  0  0  0  0  0  0  0  0  0
  160.7370  200.9720  146.2100 C   0  0  0  0  0  3  0  0  0  0  0  0
  161.2290  199.7760  146.1540 N   0  0  0  0  0  2  0  0  0  0  0  0
  160.4760  205.7570  149.7410 C   0  0  0  0  0  2  0  0  0  0  0  0
  161.0880  205.7710  152.0590 O   0  0  0  0  0  1  0  0  0  0  0  0
  161.3330  206.3940  150.8360 C   0  0  2  0  0  3  0  0  0  0  0  0
  160.9870  207.8680  150.9680 C   0  0  0  0  0  2  0  0  0  0  0  0
  161.8610  210.1350  150.7210 N   0  0  0  0  0  2  0  0  0  0  0  0
  162.3250  209.7460  152.0620 C   0  0  2  0  0  3  0  0  0  0  0  0
  162.2430  208.7370  150.9830 C   0  0  1  0  0  3  0  0  0  0  0  0
  161.1560  209.7500  153.0490 C   0  0  0  0  0  2  0  0  0  0  0  0
  162.7280  210.5740  154.6420 O   0  0  0  0  0  1  0  0  0  0  0  0
  161.4100  210.7170  154.2020 C   0  0  2  0  0  3  0  0  0  0  0  0
  160.4350  210.4500  155.3590 C   0  0  2  0  0  3  0  0  0  0  0  0
  159.7210  209.2720  155.1340 O   0  0  0  0  0  1  0  0  0  0  0  0
  159.9260  212.5410  156.6990 C   0  0  0  0  0  2  0  0  0  0  0  0
  159.8220  213.9930  156.2450 C   0  0  0  0  0  2  0  0  0  0  0  0
  159.4450  211.5950  155.6080 C   0  0  2  0  0  3  0  0  0  0  0  0
  159.0090  213.8280  153.5980 O   0  0  0  0  0  1  0  0  0  0  0  0
  156.8980  212.9100  154.3600 C   0  0  2  0  0  3  0  0  0  0  0  0
  156.3720  212.9660  156.6880 C   0  0  1  0  0  3  0  0  0  0  0  0
  157.4060  214.0530  157.0430 C   0  0  0  0  0  2  0  0  0  0  0  0
  155.5310  213.5720  154.4700 C   0  0  0  0  0  2  0  0  0  0  0  0
  155.2160  213.6530  155.9700 C   0  0  0  0  0  2  0  0  0  0  0  0
  156.8850  212.0420  155.6020 C   0  0  2  0  0  3  0  0  0  0  0  0
  158.3900  214.4220  155.9070 C   0  0  2  0  0  3  0  0  0  0  0  0
  157.9340  214.0470  154.4650 C   0  0  1  0  0  3  0  0  0  0  0  0
  158.0420  211.0750  155.9050 C   0  0  0  0  0  2  0  0  0  0  0  0
  162.0180  205.8110  144.6660 O   0  0  0  0  0  0  0  0  0  0  0  0
  161.4230  205.5730  143.3990 C   0  0  0  0  0  2  0  0  0  0  0  0
  162.2370  206.2510  142.3150 C   0  0  0  0  0  2  0  0  0  0  0  0
  161.3970  206.5170  141.1560 N   0  0  0  0  0  2  0  0  0  0  0  0
  161.8580  207.1310  139.9440 C   0  0  0  0  0  0  0  0  0  0  0  0
  162.5770  206.3860  139.1100 C   0  0  0  0  0  2  0  0  0  0  0  0
  160.5790  208.9090  138.6970 C   0  0  0  0  0  3  0  0  0  0  0  0
  162.0220  213.0590  139.5350 C   0  0  0  0  0  3  0  0  0  0  0  0
  162.3910  209.5820  140.1930 C   0  0  0  0  0  3  0  0  0  0  0  0
  162.1220  210.9000  139.8330 C   0  0  0  0  0  0  0  0  0  0  0  0
  161.1330  211.2200  138.9510 C   0  0  0  0  0  0  0  0  0  0  0  0
  161.0830  212.5130  138.7800 O   0  0  0  0  0  0  0  0  0  0  0  0
  161.6010  208.5600  139.6210 C   0  0  0  0  0  0  0  0  0  0  0  0
  160.3340  210.2510  138.3550 C   0  0  0  0  0  3  0  0  0  0  0  0
  162.7220  212.0720  140.2350 C   0  0  0  0  0  3  0  0  0  0  0  0
  1  2  1  0  0  0  0
  3  7  1  0  0  0  0
  4  9  1  0  0  0  0
  5  4  1  0  0  0  0
  7  6  2  0  0  0  0
  7 12  1  0  0  0  0
  8  3  2  0  0  0  0
  8 11  1  0  0  0  0
  9  2  1  0  0  0  0
 10 15  1  1  0  0  0
 10  1  1  0  0  0  0
 11  5  2  0  0  0  0
 11 12  1  0  0  0  0
 12 10  1  0  0  0  0
 13  5  1  0  0  0  0
 14 13  2  0  0  0  0
 15 17  1  0  0  0  0
 17 18  1  0  0  0  0
 17 16  1  1  0  0  0
 19 21  1  0  0  0  0
 19 20  1  0  0  0  0
 20 22  1  1  0  0  0
 21 18  1  1  0  0  0
 21 20  1  0  0  0  0
 22 24  1  0  0  0  0
 24 23  1  1  0  0  0
 24 25  1  0  0  0  0
 25 26  1  6  0  0  0
 28 27  1  0  0  0  0
 29 25  1  1  0  0  0
 29 39  1  0  0  0  0
 29 27  1  0  0  0  0
 31 38  1  0  0  0  0
 31 34  1  1  0  0  0
 31 36  1  0  0  0  0
 32 35  1  6  0  0  0
 32 33  1  0  0  0  0
 34 35  1  0  0  0  0
 36 39  1  1  0  0  0
 36 32  1  0  0  0  0
 37 28  1  1  0  0  0
 37 33  1  0  0  0  0
 38 30  1  6  0  0  0
 38 37  1  0  0  0  0
 40  3  1  0  0  0  0
 41 40  1  0  0  0  0
 42 41  1  0  0  0  0
 43 42  1  0  0  0  0
 44 43  1  0  0  0  0
 45 44  2  0  0  0  0
 46 52  1  0  0  0  0
 47 54  2  0  0  0  0
 49 48  1  0  0  0  0
 49 54  1  0  0  0  0
 50 49  2  0  0  0  0
 51 50  1  0  0  0  0
 51 47  1  0  0  0  0
 52 44  1  0  0  0  0
 52 48  2  0  0  0  0
 53 46  2  0  0  0  0
 53 50  1  0  0  0  0
M  END
>  <MODEL>
3

>  <REMARK>
 VINA RESULT:      -7.0      3.455     10.713
  Name = 
  15 active torsions:
  status: ('A' for Active; 'I' for Inactive)
    1  A    between atoms: C_1  and  C_23
    2  A    between atoms: C_2  and  C_22
    3  A    between atoms: C_2  and  C_46
    4  A    between atoms: C_5  and  C_20
    5  A    between atoms: C_5  and  C_24
    6  A    between atoms: C_11  and  C_33
    7  A    between atoms: C_11  and  N_42
    8  A    between atoms: C_13  and  C_14
    9  A    between atoms: C_13  and  C_46
   10  A    between atoms: C_15  and  O_51
   11  A    between atoms: C_17  and  N_42
   12  A    between atoms: C_17  and  C_45
   13  A    between atoms: C_24  and  C_32
   14  A    between atoms: C_32  and  C_43
   15  A    between atoms: C_33  and  O_51
                            x       y       z     vdW  Elec       q    Type
                         _______ _______ _______ _____ _____    ______ ____

>  <TORSDO>
F 15

$$$$
=
 OpenBabel11042422553D

 54 61  0  0  1  0  0  0  0  0999 V2000
  162.6750  210.3000  151.4640 C   0  0  0  0  0  2  0  0  0  0  0  0
  161.9150  210.3780  152.7910 C   0  0  0  0  0  2  0  0  0  0  0  0
  161.7620  206.6060  148.4520 C   0  0  0  0  0  0  0  0  0  0  0  0
  161.8350  208.0210  152.9430 C   0  0  0  0  0  2  0  0  0  0  0  0
  161.2960  207.0660  151.9190 C   0  0  0  0  0  0  0  0  0  0  0  0
  162.9290  208.5960  147.7590 O   0  0  0  0  0  0  0  0  0  0  0  0
  162.3020  207.9450  148.6350 C   0  0  0  0  0  0  0  0  0  0  0  0
  161.2620  206.1800  149.6000 C   0  0  0  0  0  3  0  0  0  0  0  0
  161.0300  209.2310  152.9890 N   0  0  0  0  0  2  0  0  0  0  0  0
  161.7660  209.7870  150.3580 C   0  0  2  0  0  3  0  0  0  0  0  0
  161.4860  207.2460  150.5930 C   0  0  0  0  0  0  0  0  0  0  0  0
  162.0860  208.4020  149.9720 N   0  0  0  0  0  0  0  0  0  0  0  0
  160.6430  205.8340  152.4010 C   0  0  0  0  0  3  0  0  0  0  0  0
  161.1070  205.1740  153.4120 N   0  0  0  0  0  2  0  0  0  0  0  0
  161.5270  210.7800  149.2090 C   0  0  0  0  0  2  0  0  0  0  0  0
  160.3860  212.3490  150.6180 O   0  0  0  0  0  1  0  0  0  0  0  0
  161.3730  212.2390  149.6400 C   0  0  2  0  0  3  0  0  0  0  0  0
  160.9660  213.0880  148.4470 C   0  0  0  0  0  2  0  0  0  0  0  0
  163.2260  213.2010  147.5320 N   0  0  0  0  0  2  0  0  0  0  0  0
  162.4410  213.9920  146.5700 C   0  0  2  0  0  3  0  0  0  0  0  0
  162.0970  214.0160  148.0090 C   0  0  1  0  0  3  0  0  0  0  0  0
  161.5810  213.0690  145.7040 C   0  0  0  0  0  2  0  0  0  0  0  0
  163.4210  213.3990  144.2220 O   0  0  0  0  0  1  0  0  0  0  0  0
  162.0650  213.0600  144.2580 C   0  0  2  0  0  3  0  0  0  0  0  0
  161.2530  214.0470  143.4060 C   0  0  2  0  0  3  0  0  0  0  0  0
  160.0010  214.2710  143.9810 O   0  0  0  0  0  1  0  0  0  0  0  0
  162.1510  214.1370  141.0360 C   0  0  0  0  0  2  0  0  0  0  0  0
  162.7310  213.0260  140.1680 C   0  0  0  0  0  2  0  0  0  0  0  0
  161.0610  213.5960  141.9530 C   0  0  2  0  0  3  0  0  0  0  0  0
  161.4880  210.7190  141.0780 O   0  0  0  0  0  1  0  0  0  0  0  0
  159.3840  211.5880  140.2400 C   0  0  2  0  0  3  0  0  0  0  0  0
  159.3940  213.5200  138.8380 C   0  0  1  0  0  3  0  0  0  0  0  0
  160.8850  213.4170  138.4600 C   0  0  0  0  0  2  0  0  0  0  0  0
  158.6030  211.2080  138.9900 C   0  0  0  0  0  2  0  0  0  0  0  0
  158.6520  212.4340  138.0670 C   0  0  0  0  0  2  0  0  0  0  0  0
  159.1490  213.0850  140.2680 C   0  0  2  0  0  3  0  0  0  0  0  0
  161.6940  212.3630  139.2550 C   0  0  2  0  0  3  0  0  0  0  0  0
  160.8580  211.2440  139.9440 C   0  0  1  0  0  3  0  0  0  0  0  0
  159.6720  213.9470  141.4290 C   0  0  0  0  0  2  0  0  0  0  0  0
  161.7560  205.8440  147.2810 O   0  0  0  0  0  0  0  0  0  0  0  0
  161.3010  206.3580  146.0390 C   0  0  0  0  0  2  0  0  0  0  0  0
  160.4420  205.3230  145.3390 C   0  0  0  0  0  2  0  0  0  0  0  0
  161.1920  204.0870  145.1720 N   0  0  0  0  0  2  0  0  0  0  0  0
  160.7140  202.7910  145.5590 C   0  0  0  0  0  0  0  0  0  0  0  0
  160.0240  202.0940  144.6610 C   0  0  0  0  0  2  0  0  0  0  0  0
  161.2840  200.8680  147.0850 C   0  0  0  0  0  3  0  0  0  0  0  0
  161.0930  201.9240  151.4270 C   0  0  0  0  0  3  0  0  0  0  0  0
  160.7240  203.0350  148.0680 C   0  0  0  0  0  3  0  0  0  0  0  0
  160.9080  202.4510  149.3190 C   0  0  0  0  0  0  0  0  0  0  0  0
  161.2630  201.1430  149.4600 C   0  0  0  0  0  0  0  0  0  0  0  0
  161.3700  200.8390  150.7240 O   0  0  0  0  0  0  0  0  0  0  0  0
  160.9220  202.2320  146.9220 C   0  0  0  0  0  0  0  0  0  0  0  0
  161.4610  200.3090  148.3640 C   0  0  0  0  0  3  0  0  0  0  0  0
  160.7890  202.9920  150.5790 C   0  0  0  0  0  3  0  0  0  0  0  0
  1  2  1  0  0  0  0
  2  9  1  0  0  0  0
  3  7  1  0  0  0  0
  3  8  2  0  0  0  0
  4  9  1  0  0  0  0
  5 13  1  0  0  0  0
  5  4  1  0  0  0  0
  6  7  2  0  0  0  0
  7 12  1  0  0  0  0
  8 11  1  0  0  0  0
 10 15  1  6  0  0  0
 10  1  1  0  0  0  0
 11  5  2  0  0  0  0
 12 10  1  0  0  0  0
 12 11  1  0  0  0  0
 13 14  2  0  0  0  0
 15 17  1  0  0  0  0
 17 16  1  1  0  0  0
 18 17  1  0  0  0  0
 19 21  1  0  0  0  0
 20 22  1  6  0  0  0
 20 19  1  0  0  0  0
 20 21  1  0  0  0  0
 21 18  1  6  0  0  0
 24 23  1  1  0  0  0
 24 22  1  0  0  0  0
 25 26  1  1  0  0  0
 25 24  1  0  0  0  0
 27 29  1  0  0  0  0
 28 27  1  0  0  0  0
 29 25  1  1  0  0  0
 31 34  1  6  0  0  0
 31 36  1  0  0  0  0
 32 35  1  6  0  0  0
 32 36  1  0  0  0  0
 33 32  1  0  0  0  0
 35 34  1  0  0  0  0
 36 39  1  1  0  0  0
 37 33  1  1  0  0  0
 37 38  1  0  0  0  0
 37 28  1  0  0  0  0
 38 31  1  0  0  0  0
 38 30  1  1  0  0  0
 39 29  1  0  0  0  0
 40  3  1  0  0  0  0
 41 40  1  0  0  0  0
 42 41  1  0  0  0  0
 43 42  1  0  0  0  0
 43 44  1  0  0  0  0
 44 52  1  0  0  0  0
 45 44  2  0  0  0  0
 46 53  1  0  0  0  0
 48 49  2  0  0  0  0
 49 50  1  0  0  0  0
 49 54  1  0  0  0  0
 50 51  1  0  0  0  0
 51 47  1  0  0  0  0
 52 46  2  0  0  0  0
 52 48  1  0  0  0  0
 53 50  2  0  0  0  0
 54 47  2  0  0  0  0
M  END
>  <MODEL>
4

>  <REMARK>
 VINA RESULT:      -6.9      1.714      3.102
  Name = 
  15 active torsions:
  status: ('A' for Active; 'I' for Inactive)
    1  A    between atoms: C_1  and  C_23
    2  A    between atoms: C_2  and  C_22
    3  A    between atoms: C_2  and  C_46
    4  A    between atoms: C_5  and  C_20
    5  A    between atoms: C_5  and  C_24
    6  A    between atoms: C_11  and  C_33
    7  A    between atoms: C_11  and  N_42
    8  A    between atoms: C_13  and  C_14
    9  A    between atoms: C_13  and  C_46
   10  A    between atoms: C_15  and  O_51
   11  A    between atoms: C_17  and  N_42
   12  A    between atoms: C_17  and  C_45
   13  A    between atoms: C_24  and  C_32
   14  A    between atoms: C_32  and  C_43
   15  A    between atoms: C_33  and  O_51
                            x       y       z     vdW  Elec       q    Type
                         _______ _______ _______ _____ _____    ______ ____

>  <TORSDO>
F 15

$$$$
=
 OpenBabel11042422553D

 54 61  0  0  1  0  0  0  0  0999 V2000
  161.9420  212.4950  149.5190 C   0  0  0  0  0  2  0  0  0  0  0  0
  162.0600  211.8070  148.1570 C   0  0  0  0  0  2  0  0  0  0  0  0
  157.5730  213.9860  151.0190 C   0  0  0  0  0  0  0  0  0  0  0  0
  160.3040  213.1220  147.2800 C   0  0  0  0  0  2  0  0  0  0  0  0
  158.9180  213.2670  147.8370 C   0  0  0  0  0  0  0  0  0  0  0  0
  159.4600  213.7770  152.5010 O   0  0  0  0  0  0  0  0  0  0  0  0
  158.9430  213.6330  151.3630 C   0  0  0  0  0  0  0  0  0  0  0  0
  157.3940  213.8080  149.7210 C   0  0  0  0  0  3  0  0  0  0  0  0
  160.7820  211.7590  147.4480 N   0  0  0  0  0  2  0  0  0  0  0  0
  160.6530  212.0830  150.2140 C   0  0  2  0  0  3  0  0  0  0  0  0
  158.6770  213.3430  149.1650 C   0  0  0  0  0  0  0  0  0  0  0  0
  159.6510  213.1630  150.2140 N   0  0  0  0  0  0  0  0  0  0  0  0
  157.8070  213.4520  146.8840 C   0  0  0  0  0  3  0  0  0  0  0  0
  157.4720  212.5230  146.0470 N   0  0  0  0  0  2  0  0  0  0  0  0
  160.8490  211.3300  151.5400 C   0  0  0  0  0  2  0  0  0  0  0  0
  162.1210  209.6330  150.4210 O   0  0  0  0  0  1  0  0  0  0  0  0
  162.0650  210.4040  151.5820 C   0  0  2  0  0  3  0  0  0  0  0  0
  161.9600  209.4700  152.7760 C   0  0  0  0  0  2  0  0  0  0  0  0
  160.5370  207.9000  151.5640 N   0  0  0  0  0  2  0  0  0  0  0  0
  160.7120  207.2460  152.8710 C   0  0  2  0  0  3  0  0  0  0  0  0
  160.6290  208.7200  152.7830 C   0  0  1  0  0  3  0  0  0  0  0  0
  162.1250  206.6720  152.9910 C   0  0  0  0  0  2  0  0  0  0  0  0
  163.0850  206.7960  150.8110 O   0  0  0  0  0  1  0  0  0  0  0  0
  162.5200  205.9080  151.7310 C   0  0  2  0  0  3  0  0  0  0  0  0
  161.2980  205.2140  151.1110 C   0  0  2  0  0  3  0  0  0  0  0  0
  161.2530  203.8720  151.4930 O   0  0  0  0  0  1  0  0  0  0  0  0
  159.9940  206.0000  149.0830 C   0  0  0  0  0  2  0  0  0  0  0  0
  160.3400  207.0690  148.0520 C   0  0  0  0  0  2  0  0  0  0  0  0
  161.2510  205.2990  149.5800 C   0  0  2  0  0  3  0  0  0  0  0  0
  163.1130  207.1020  147.9980 O   0  0  0  0  0  1  0  0  0  0  0  0
  163.0670  204.8610  147.0730 C   0  0  2  0  0  3  0  0  0  0  0  0
  160.9920  203.9480  146.3250 C   0  0  1  0  0  3  0  0  0  0  0  0
  160.2670  205.3040  146.2200 C   0  0  0  0  0  2  0  0  0  0  0  0
  163.3010  204.3930  145.6430 C   0  0  0  0  0  2  0  0  0  0  0  0
  161.9530  203.8510  145.1450 C   0  0  0  0  0  2  0  0  0  0  0  0
  161.9570  203.9190  147.4930 C   0  0  2  0  0  3  0  0  0  0  0  0
  161.0390  206.5100  146.8080 C   0  0  2  0  0  3  0  0  0  0  0  0
  162.5760  206.3190  146.9700 C   0  0  1  0  0  3  0  0  0  0  0  0
  161.4140  203.9270  148.9320 C   0  0  0  0  0  2  0  0  0  0  0  0
  156.5750  214.4530  151.8760 O   0  0  0  0  0  0  0  0  0  0  0  0
  155.7460  213.5800  152.6290 C   0  0  0  0  0  2  0  0  0  0  0  0
  156.1230  213.6540  154.0960 C   0  0  0  0  0  2  0  0  0  0  0  0
  156.8350  212.4460  154.4870 N   0  0  0  0  0  2  0  0  0  0  0  0
  157.4650  212.2530  155.7610 C   0  0  0  0  0  0  0  0  0  0  0  0
  156.8970  212.8190  156.8220 C   0  0  0  0  0  2  0  0  0  0  0  0
  159.9830  212.1650  155.8180 C   0  0  0  0  0  3  0  0  0  0  0  0
  161.6050  208.0510  156.4920 C   0  0  0  0  0  3  0  0  0  0  0  0
  158.7170  210.0990  156.1390 C   0  0  0  0  0  3  0  0  0  0  0  0
  159.9370  209.4370  156.2570 C   0  0  0  0  0  0  0  0  0  0  0  0
  161.1270  210.0940  156.1620 C   0  0  0  0  0  0  0  0  0  0  0  0
  162.1170  209.2560  156.3040 O   0  0  0  0  0  0  0  0  0  0  0  0
  158.7340  211.4950  155.9230 C   0  0  0  0  0  0  0  0  0  0  0  0
  161.1970  211.4660  155.9410 C   0  0  0  0  0  3  0  0  0  0  0  0
  160.2080  208.1040  156.4720 C   0  0  0  0  0  3  0  0  0  0  0  0
  1 10  1  0  0  0  0
  2  1  1  0  0  0  0
  3  7  1  0  0  0  0
  3 40  1  0  0  0  0
  4  9  1  0  0  0  0
  4  5  1  0  0  0  0
  5 11  2  0  0  0  0
  7  6  2  0  0  0  0
  8  3  2  0  0  0  0
  9  2  1  0  0  0  0
 10 12  1  0  0  0  0
 10 15  1  1  0  0  0
 11  8  1  0  0  0  0
 11 12  1  0  0  0  0
 12  7  1  0  0  0  0
 13  5  1  0  0  0  0
 14 13  2  0  0  0  0
 15 17  1  0  0  0  0
 17 16  1  6  0  0  0
 17 18  1  0  0  0  0
 19 21  1  0  0  0  0
 19 20  1  0  0  0  0
 20 22  1  6  0  0  0
 21 18  1  6  0  0  0
 21 20  1  0  0  0  0
 24 23  1  6  0  0  0
 24 22  1  0  0  0  0
 25 26  1  6  0  0  0
 25 24  1  0  0  0  0
 27 29  1  0  0  0  0
 28 27  1  0  0  0  0
 29 25  1  1  0  0  0
 31 34  1  6  0  0  0
 31 36  1  0  0  0  0
 32 35  1  6  0  0  0
 32 36  1  0  0  0  0
 33 32  1  0  0  0  0
 35 34  1  0  0  0  0
 36 39  1  1  0  0  0
 37 33  1  1  0  0  0
 37 38  1  0  0  0  0
 37 28  1  0  0  0  0
 38 31  1  0  0  0  0
 38 30  1  1  0  0  0
 39 29  1  0  0  0  0
 40 41  1  0  0  0  0
 41 42  1  0  0  0  0
 42 43  1  0  0  0  0
 43 44  1  0  0  0  0
 44 52  1  0  0  0  0
 44 45  2  0  0  0  0
 46 52  2  0  0  0  0
 46 53  1  0  0  0  0
 48 49  2  0  0  0  0
 49 54  1  0  0  0  0
 50 49  1  0  0  0  0
 50 51  1  0  0  0  0
 51 47  1  0  0  0  0
 52 48  1  0  0  0  0
 53 50  2  0  0  0  0
 54 47  2  0  0  0  0
M  END
>  <MODEL>
5

>  <REMARK>
 VINA RESULT:      -5.6      4.208      9.936
  Name = 
  15 active torsions:
  status: ('A' for Active; 'I' for Inactive)
    1  A    between atoms: C_1  and  C_23
    2  A    between atoms: C_2  and  C_22
    3  A    between atoms: C_2  and  C_46
    4  A    between atoms: C_5  and  C_20
    5  A    between atoms: C_5  and  C_24
    6  A    between atoms: C_11  and  C_33
    7  A    between atoms: C_11  and  N_42
    8  A    between atoms: C_13  and  C_14
    9  A    between atoms: C_13  and  C_46
   10  A    between atoms: C_15  and  O_51
   11  A    between atoms: C_17  and  N_42
   12  A    between atoms: C_17  and  C_45
   13  A    between atoms: C_24  and  C_32
   14  A    between atoms: C_32  and  C_43
   15  A    between atoms: C_33  and  O_51
                            x       y       z     vdW  Elec       q    Type
                         _______ _______ _______ _____ _____    ______ ____

>  <TORSDO>
F 15

$$$$
=
 OpenBabel11042422553D

 54 61  0  0  1  0  0  0  0  0999 V2000
  162.3150  209.8010  152.4910 C   0  0  0  0  0  2  0  0  0  0  0  0
  161.6000  210.7040  153.4990 C   0  0  0  0  0  2  0  0  0  0  0  0
  161.2420  205.0670  152.4100 C   0  0  0  0  0  0  0  0  0  0  0  0
  161.4840  208.9450  155.0730 C   0  0  0  0  0  2  0  0  0  0  0  0
  160.8960  207.5810  154.8630 C   0  0  0  0  0  0  0  0  0  0  0  0
  162.4200  206.1690  150.6210 O   0  0  0  0  0  0  0  0  0  0  0  0
  161.8110  206.2170  151.7210 C   0  0  0  0  0  0  0  0  0  0  0  0
  160.7730  205.4560  153.5840 C   0  0  0  0  0  3  0  0  0  0  0  0
  160.7020  209.9520  154.3750 N   0  0  0  0  0  2  0  0  0  0  0  0
  161.3620  208.7460  151.9490 C   0  0  2  0  0  3  0  0  0  0  0  0
  161.0470  206.8990  153.7050 C   0  0  0  0  0  0  0  0  0  0  0  0
  161.6460  207.4070  152.4950 N   0  0  0  0  0  0  0  0  0  0  0  0
  160.2380  206.9290  156.0110 C   0  0  0  0  0  3  0  0  0  0  0  0
  160.1050  207.5340  157.1480 N   0  0  0  0  0  2  0  0  0  0  0  0
  161.1040  208.8280  150.4370 C   0  0  0  0  0  2  0  0  0  0  0  0
  162.8620  210.4540  150.5570 O   0  0  0  0  0  1  0  0  0  0  0  0
  162.0620  209.7380  149.6670 C   0  0  2  0  0  3  0  0  0  0  0  0
  161.2710  210.7270  148.8270 C   0  0  0  0  0  2  0  0  0  0  0  0
  161.4500  212.7980  147.5480 N   0  0  0  0  0  2  0  0  0  0  0  0
  161.1940  213.2770  148.9160 C   0  0  2  0  0  3  0  0  0  0  0  0
  162.0050  212.0590  148.6940 C   0  0  1  0  0  3  0  0  0  0  0  0
  159.7330  213.0320  149.2980 C   0  0  0  0  0  2  0  0  0  0  0  0
  160.3710  212.8080  151.5850 O   0  0  0  0  0  1  0  0  0  0  0  0
  159.4610  213.4490  150.7400 C   0  0  2  0  0  3  0  0  0  0  0  0
  158.0230  213.0930  151.1470 C   0  0  2  0  0  3  0  0  0  0  0  0
  157.1090  213.8800  150.4430 O   0  0  0  0  0  1  0  0  0  0  0  0
  156.6620  214.2590  152.9410 C   0  0  0  0  0  2  0  0  0  0  0  0
  155.6310  213.6920  153.9100 C   0  0  0  0  0  2  0  0  0  0  0  0
  157.7540  213.2380  152.6500 C   0  0  2  0  0  3  0  0  0  0  0  0
  156.4090  211.0540  154.2740 O   0  0  0  0  0  1  0  0  0  0  0  0
  158.4160  211.8540  155.3740 C   0  0  2  0  0  3  0  0  0  0  0  0
  158.5870  214.1630  155.9570 C   0  0  1  0  0  3  0  0  0  0  0  0
  157.0750  214.4480  155.8650 C   0  0  0  0  0  2  0  0  0  0  0  0
  158.7660  211.8930  156.8560 C   0  0  0  0  0  2  0  0  0  0  0  0
  158.8260  213.3780  157.2410 C   0  0  0  0  0  2  0  0  0  0  0  0
  159.0310  213.1600  154.9120 C   0  0  2  0  0  3  0  0  0  0  0  0
  156.2250  213.3000  155.2680 C   0  0  2  0  0  3  0  0  0  0  0  0
  156.8770  211.8860  155.2970 C   0  0  1  0  0  3  0  0  0  0  0  0
  159.0290  213.5540  153.4260 C   0  0  0  0  0  2  0  0  0  0  0  0
  161.1860  203.7470  151.9580 O   0  0  0  0  0  0  0  0  0  0  0  0
  160.5970  203.3900  150.7170 C   0  0  0  0  0  2  0  0  0  0  0  0
  160.4900  201.8810  150.6160 C   0  0  0  0  0  2  0  0  0  0  0  0
  161.5790  201.3600  149.8030 N   0  0  0  0  0  2  0  0  0  0  0  0
  161.4830  201.0880  148.3970 C   0  0  0  0  0  0  0  0  0  0  0  0
  161.5810  199.8210  148.0070 C   0  0  0  0  0  2  0  0  0  0  0  0
  160.5730  201.9220  146.2000 C   0  0  0  0  0  3  0  0  0  0  0  0
  161.7950  206.1170  145.2440 C   0  0  0  0  0  3  0  0  0  0  0  0
  161.9580  203.4150  147.5520 C   0  0  0  0  0  3  0  0  0  0  0  0
  161.7980  204.3730  146.5550 C   0  0  0  0  0  0  0  0  0  0  0  0
  161.0650  204.1310  145.4320 C   0  0  0  0  0  0  0  0  0  0  0  0
  161.0710  205.1800  144.6550 O   0  0  0  0  0  0  0  0  0  0  0  0
  161.3280  202.1620  147.3800 C   0  0  0  0  0  0  0  0  0  0  0  0
  160.4330  202.9120  145.2110 C   0  0  0  0  0  3  0  0  0  0  0  0
  162.2890  205.6570  146.4680 C   0  0  0  0  0  3  0  0  0  0  0  0
  1  2  1  0  0  0  0
  2  9  1  0  0  0  0
  3  8  2  0  0  0  0
  5  4  1  0  0  0  0
  5 13  1  0  0  0  0
  6  7  2  0  0  0  0
  7  3  1  0  0  0  0
  7 12  1  0  0  0  0
  8 11  1  0  0  0  0
  9  4  1  0  0  0  0
 10 15  1  6  0  0  0
 10  1  1  0  0  0  0
 10 12  1  0  0  0  0
 11  5  2  0  0  0  0
 12 11  1  0  0  0  0
 13 14  2  0  0  0  0
 17 15  1  0  0  0  0
 17 16  1  1  0  0  0
 18 17  1  0  0  0  0
 19 21  1  0  0  0  0
 19 20  1  0  0  0  0
 20 22  1  1  0  0  0
 21 18  1  1  0  0  0
 21 20  1  0  0  0  0
 22 24  1  0  0  0  0
 24 25  1  0  0  0  0
 24 23  1  1  0  0  0
 25 26  1  6  0  0  0
 27 28  1  0  0  0  0
 29 25  1  6  0  0  0
 29 27  1  0  0  0  0
 29 39  1  0  0  0  0
 31 34  1  1  0  0  0
 32 33  1  6  0  0  0
 32 35  1  0  0  0  0
 34 35  1  0  0  0  0
 36 39  1  6  0  0  0
 36 31  1  0  0  0  0
 36 32  1  0  0  0  0
 37 28  1  6  0  0  0
 37 38  1  0  0  0  0
 37 33  1  0  0  0  0
 38 30  1  6  0  0  0
 38 31  1  0  0  0  0
 40  3  1  0  0  0  0
 41 40  1  0  0  0  0
 42 41  1  0  0  0  0
 43 42  1  0  0  0  0
 44 43  1  0  0  0  0
 45 44  2  0  0  0  0
 46 52  1  0  0  0  0
 47 54  2  0  0  0  0
 49 48  1  0  0  0  0
 50 49  2  0  0  0  0
 51 47  1  0  0  0  0
 51 50  1  0  0  0  0
 52 48  2  0  0  0  0
 52 44  1  0  0  0  0
 53 50  1  0  0  0  0
 53 46  2  0  0  0  0
 54 49  1  0  0  0  0
M  END
>  <MODEL>
6

>  <REMARK>
 VINA RESULT:      -5.3      4.304      7.687
  Name = 
  15 active torsions:
  status: ('A' for Active; 'I' for Inactive)
    1  A    between atoms: C_1  and  C_23
    2  A    between atoms: C_2  and  C_22
    3  A    between atoms: C_2  and  C_46
    4  A    between atoms: C_5  and  C_20
    5  A    between atoms: C_5  and  C_24
    6  A    between atoms: C_11  and  C_33
    7  A    between atoms: C_11  and  N_42
    8  A    between atoms: C_13  and  C_14
    9  A    between atoms: C_13  and  C_46
   10  A    between atoms: C_15  and  O_51
   11  A    between atoms: C_17  and  N_42
   12  A    between atoms: C_17  and  C_45
   13  A    between atoms: C_24  and  C_32
   14  A    between atoms: C_32  and  C_43
   15  A    between atoms: C_33  and  O_51
                            x       y       z     vdW  Elec       q    Type
                         _______ _______ _______ _____ _____    ______ ____

>  <TORSDO>
F 15

$$$$
=
 OpenBabel11042422553D

 54 61  0  0  1  0  0  0  0  0999 V2000
  161.9730  202.5830  148.7620 C   0  0  0  0  0  2  0  0  0  0  0  0
  160.9730  201.8220  147.8880 C   0  0  0  0  0  2  0  0  0  0  0  0
  162.3230  207.4000  148.2740 C   0  0  0  0  0  0  0  0  0  0  0  0
  161.2880  203.3470  146.1090 C   0  0  0  0  0  2  0  0  0  0  0  0
  161.1320  204.8380  146.1590 C   0  0  0  0  0  0  0  0  0  0  0  0
  163.2260  206.2110  150.1650 O   0  0  0  0  0  0  0  0  0  0  0  0
  162.5700  206.2200  149.0910 C   0  0  0  0  0  0  0  0  0  0  0  0
  161.6990  207.0360  147.1660 C   0  0  0  0  0  3  0  0  0  0  0  0
  160.2860  202.7000  146.9410 N   0  0  0  0  0  2  0  0  0  0  0  0
  161.3970  203.9260  149.1860 C   0  0  2  0  0  3  0  0  0  0  0  0
  161.5360  205.5720  147.2200 C   0  0  0  0  0  0  0  0  0  0  0  0
  162.0270  205.0510  148.4730 N   0  0  0  0  0  0  0  0  0  0  0  0
  160.6310  205.5200  144.9510 C   0  0  0  0  0  3  0  0  0  0  0  0
  160.9570  205.1200  143.7640 N   0  0  0  0  0  2  0  0  0  0  0  0
  161.2070  204.0960  150.7020 C   0  0  0  0  0  2  0  0  0  0  0  0
  159.8500  205.9760  150.0890 O   0  0  0  0  0  1  0  0  0  0  0  0
  160.0860  205.0530  151.1080 C   0  0  2  0  0  3  0  0  0  0  0  0
  160.4870  205.8130  152.3620 C   0  0  0  0  0  2  0  0  0  0  0  0
  160.4570  208.2540  152.3350 N   0  0  0  0  0  2  0  0  0  0  0  0
  161.6360  207.9470  153.1610 C   0  0  2  0  0  3  0  0  0  0  0  0
  161.2800  207.0740  152.0220 C   0  0  1  0  0  3  0  0  0  0  0  0
  161.2000  207.4420  154.5380 C   0  0  0  0  0  2  0  0  0  0  0  0
  162.1350  208.1480  156.6160 O   0  0  0  0  0  1  0  0  0  0  0  0
  161.2830  208.5500  155.5840 C   0  0  2  0  0  3  0  0  0  0  0  0
  159.8890  208.8720  156.1460 C   0  0  2  0  0  3  0  0  0  0  0  0
  158.9600  207.9210  155.7200 O   0  0  0  0  0  1  0  0  0  0  0  0
  160.5020  211.3000  155.7480 C   0  0  0  0  0  2  0  0  0  0  0  0
  160.4570  212.1220  154.4640 C   0  0  0  0  0  2  0  0  0  0  0  0
  159.3810  210.2700  155.7720 C   0  0  2  0  0  3  0  0  0  0  0  0
  158.4330  210.9540  152.9690 O   0  0  0  0  0  1  0  0  0  0  0  0
  156.8420  211.7020  154.6400 C   0  0  2  0  0  3  0  0  0  0  0  0
  157.5500  213.2420  156.3210 C   0  0  1  0  0  3  0  0  0  0  0  0
  158.8050  213.7170  155.5620 C   0  0  0  0  0  2  0  0  0  0  0  0
  155.8560  212.8610  154.5960 C   0  0  0  0  0  2  0  0  0  0  0  0
  156.3410  213.8740  155.6420 C   0  0  0  0  0  2  0  0  0  0  0  0
  157.2820  211.7690  156.0890 C   0  0  2  0  0  3  0  0  0  0  0  0
  159.1510  212.9060  154.2900 C   0  0  2  0  0  3  0  0  0  0  0  0
  157.9850  212.0760  153.6750 C   0  0  1  0  0  3  0  0  0  0  0  0
  158.2370  210.7170  156.6760 C   0  0  0  0  0  2  0  0  0  0  0  0
  162.6760  208.7200  148.5600 O   0  0  0  0  0  0  0  0  0  0  0  0
  161.7340  209.7820  148.5440 C   0  0  0  0  0  2  0  0  0  0  0  0
  162.2730  210.9570  149.3370 C   0  0  0  0  0  2  0  0  0  0  0  0
  162.6700  212.0260  148.4330 N   0  0  0  0  0  2  0  0  0  0  0  0
  161.9340  213.2430  148.2440 C   0  0  0  0  0  0  0  0  0  0  0  0
  162.5040  214.2010  147.5190 C   0  0  0  0  0  2  0  0  0  0  0  0
  160.5060  213.8540  150.2290 C   0  0  0  0  0  3  0  0  0  0  0  0
  156.1180  213.7340  149.3680 C   0  0  0  0  0  3  0  0  0  0  0  0
  159.4180  213.2970  148.1120 C   0  0  0  0  0  3  0  0  0  0  0  0
  158.1980  213.5070  148.7490 C   0  0  0  0  0  0  0  0  0  0  0  0
  158.1210  213.8740  150.0600 C   0  0  0  0  0  0  0  0  0  0  0  0
  156.8740  214.0050  150.4190 O   0  0  0  0  0  0  0  0  0  0  0  0
  160.6020  213.4800  148.8610 C   0  0  0  0  0  0  0  0  0  0  0  0
  159.2570  214.0580  150.8420 C   0  0  0  0  0  3  0  0  0  0  0  0
  156.9130  213.4070  148.2650 C   0  0  0  0  0  3  0  0  0  0  0  0
  1 10  1  0  0  0  0
  2  1  1  0  0  0  0
  3 40  1  0  0  0  0
  3  7  1  0  0  0  0
  4  5  1  0  0  0  0
  4  9  1  0  0  0  0
  5 11  2  0  0  0  0
  7  6  2  0  0  0  0
  8 11  1  0  0  0  0
  8  3  2  0  0  0  0
  9  2  1  0  0  0  0
 10 15  1  1  0  0  0
 11 12  1  0  0  0  0
 12  7  1  0  0  0  0
 12 10  1  0  0  0  0
 13  5  1  0  0  0  0
 14 13  2  0  0  0  0
 15 17  1  0  0  0  0
 17 16  1  6  0  0  0
 17 18  1  0  0  0  0
 19 20  1  0  0  0  0
 20 22  1  1  0  0  0
 21 19  1  0  0  0  0
 21 18  1  1  0  0  0
 21 20  1  0  0  0  0
 22 24  1  0  0  0  0
 24 25  1  0  0  0  0
 24 23  1  1  0  0  0
 25 26  1  6  0  0  0
 27 29  1  0  0  0  0
 28 27  1  0  0  0  0
 29 25  1  1  0  0  0
 29 39  1  0  0  0  0
 31 34  1  1  0  0  0
 31 36  1  0  0  0  0
 32 33  1  6  0  0  0
 34 35  1  0  0  0  0
 35 32  1  0  0  0  0
 36 32  1  0  0  0  0
 36 39  1  6  0  0  0
 37 28  1  1  0  0  0
 37 33  1  0  0  0  0
 38 30  1  1  0  0  0
 38 37  1  0  0  0  0
 38 31  1  0  0  0  0
 41 40  1  0  0  0  0
 41 42  1  0  0  0  0
 43 42  1  0  0  0  0
 44 43  1  0  0  0  0
 44 52  1  0  0  0  0
 45 44  2  0  0  0  0
 46 53  1  0  0  0  0
 47 51  1  0  0  0  0
 48 49  2  0  0  0  0
 48 52  1  0  0  0  0
 49 50  1  0  0  0  0
 50 51  1  0  0  0  0
 50 53  2  0  0  0  0
 52 46  2  0  0  0  0
 54 49  1  0  0  0  0
 54 47  2  0  0  0  0
M  END
>  <MODEL>
7

>  <REMARK>
 VINA RESULT:      -4.7      4.255     11.091
  Name = 
  15 active torsions:
  status: ('A' for Active; 'I' for Inactive)
    1  A    between atoms: C_1  and  C_23
    2  A    between atoms: C_2  and  C_22
    3  A    between atoms: C_2  and  C_46
    4  A    between atoms: C_5  and  C_20
    5  A    between atoms: C_5  and  C_24
    6  A    between atoms: C_11  and  C_33
    7  A    between atoms: C_11  and  N_42
    8  A    between atoms: C_13  and  C_14
    9  A    between atoms: C_13  and  C_46
   10  A    between atoms: C_15  and  O_51
   11  A    between atoms: C_17  and  N_42
   12  A    between atoms: C_17  and  C_45
   13  A    between atoms: C_24  and  C_32
   14  A    between atoms: C_32  and  C_43
   15  A    between atoms: C_33  and  O_51
                            x       y       z     vdW  Elec       q    Type
                         _______ _______ _______ _____ _____    ______ ____

>  <TORSDO>
F 15

$$$$
