=
 OpenBabel11052411003D

 37 43  0  0  1  0  0  0  0  0999 V2000
  161.9020  205.4850  145.5910 O   0  0  0  0  0  0  0  0  0  0  0  0
  160.5480  205.3680  150.7560 O   0  0  0  0  0  0  0  0  0  0  0  0
  161.7090  206.0700  151.1060 C   0  0  1  0  0  3  0  0  0  0  0  0
  161.6130  206.1780  153.6240 C   0  0  0  0  0  3  0  0  0  0  0  0
  161.2240  209.5970  152.3790 N   0  0  0  0  0  0  0  0  0  0  0  0
  161.2820  208.2300  152.3590 C   0  0  0  0  0  0  0  0  0  0  0  0
  161.9850  212.5910  149.2460 N   0  0  0  0  0  0  0  0  0  0  0  0
  161.4440  207.5530  151.1280 C   0  0  0  0  0  0  0  0  0  0  0  0
  162.2960  205.5690  152.4340 C   0  0  0  0  0  2  0  0  0  0  0  0
  161.4740  209.7020  150.0200 C   0  0  0  0  0  0  0  0  0  0  0  0
  161.7050  207.9630  148.5720 C   0  0  0  0  0  0  0  0  0  0  0  0
  161.1890  207.4490  153.6210 C   0  0  0  0  0  0  0  0  0  0  0  0
  161.1320  211.6780  151.3690 C   0  0  0  0  0  2  0  0  0  0  0  0
  160.8340  205.4460  147.9240 C   0  0  1  0  0  3  0  0  0  0  0  0
  161.5100  205.7590  146.7550 C   0  0  0  0  0  0  0  0  0  0  0  0
  161.6440  204.4720  148.7520 C   0  0  0  0  0  2  0  0  0  0  0  0
  161.4310  206.7060  147.9560 N   0  0  0  0  0  0  0  0  0  0  0  0
  161.8390  210.1900  148.8290 C   0  0  0  0  0  0  0  0  0  0  0  0
  161.3090  210.3590  151.2530 C   0  0  0  0  0  0  0  0  0  0  0  0
  161.4450  208.3270  149.9600 C   0  0  1  0  0  3  0  0  0  0  0  0
  163.4070  211.7310  147.5230 C   0  0  0  0  0  1  0  0  0  0  0  0
  161.9550  209.0680  147.8820 C   0  0  0  0  0  3  0  0  0  0  0  0
  162.3600  211.5500  148.5660 C   0  0  0  0  0  0  0  0  0  0  0  0
  160.9000  212.6060  150.2180 C   0  0  0  0  0  2  0  0  0  0  0  0
  160.9600  204.1930  150.0940 C   0  0  0  0  0  2  0  0  0  0  0  0
  160.2370  209.2920  154.9860 C   0  0  0  0  0  3  0  0  0  0  0  0
  160.3280  207.3400  155.9580 C   0  0  0  0  0  3  0  0  0  0  0  0
  159.7860  208.2060  156.8900 C   0  0  0  0  0  3  0  0  0  0  0  0
  159.7120  209.4310  156.2500 C   0  0  0  0  0  0  0  0  0  0  0  0
  160.5910  208.0020  154.8120 N   0  0  0  0  0  0  0  0  0  0  0  0
  159.3040  210.7200  156.8340 C   0  0  0  0  0  3  0  0  0  0  0  0
  158.2740  211.5020  156.4660 C   0  0  0  0  0  0  0  0  0  0  0  0
  156.3470  210.7040  155.3490 O   0  0  0  0  0  1  0  0  0  0  0  0
  157.8830  211.7430  154.0140 O   0  0  0  0  0  0  0  0  0  0  0  0
  157.4680  211.2690  155.2540 C   0  0  0  0  0  0  0  0  0  0  0  0
  157.4450  213.6770  156.7630 O   0  0  0  0  0  1  0  0  0  0  0  0
  157.9550  212.6510  157.2600 N   0  0  0  0  0  2  0  0  0  0  0  0
  1 15  2  0  0  0  0
  2  3  1  0  0  0  0
  3  8  1  0  0  0  0
  3  9  1  1  0  0  0
  6  5  1  0  0  0  0
  6 12  1  0  0  0  0
  7 24  1  0  0  0  0
  8  6  2  0  0  0  0
  9  4  1  0  0  0  0
 10 19  1  0  0  0  0
 12  4  2  0  0  0  0
 12 30  1  0  0  0  0
 14 17  1  0  0  0  0
 14 16  1  1  0  0  0
 15 14  1  0  0  0  0
 15 17  1  0  0  0  0
 16 25  1  0  0  0  0
 17 11  1  0  0  0  0
 18 10  2  0  0  0  0
 19 13  1  0  0  0  0
 19  5  2  0  0  0  0
 20 11  1  6  0  0  0
 20 10  1  0  0  0  0
 20  8  1  0  0  0  0
 21 23  1  0  0  0  0
 22 11  2  0  0  0  0
 22 18  1  0  0  0  0
 23 18  1  0  0  0  0
 23  7  2  0  0  0  0
 24 13  1  0  0  0  0
 25  2  1  0  0  0  0
 26 29  2  0  0  0  0
 27 28  2  0  0  0  0
 29 31  1  0  0  0  0
 29 28  1  0  0  0  0
 30 26  1  0  0  0  0
 30 27  1  0  0  0  0
 32 31  2  0  0  0  0
 32 37  1  0  0  0  0
 34 35  2  0  0  0  0
 35 33  1  0  0  0  0
 35 32  1  0  0  0  0
 36 37  1  0  0  0  0
M  END
>  <MODEL>
1

>  <REMARK>
 VINA RESULT:      -6.5      0.000      0.000
  Name = 
  4 active torsions:
  status: ('A' for Active; 'I' for Inactive)
    1  A    between atoms: C_5  and  C_33
    2  A    between atoms: C_17  and  N_35
    3  A    between atoms: C_19  and  N_22
    4  A    between atoms: C_19  and  C_31
                            x       y       z     vdW  Elec       q    Type
                         _______ _______ _______ _____ _____    ______ ____

>  <TORSDO>
F 4

$$$$
=
 OpenBabel11052411003D

 37 43  0  0  1  0  0  0  0  0999 V2000
  160.7960  202.2340  152.7460 O   0  0  0  0  0  0  0  0  0  0  0  0
  160.7670  207.5490  152.2210 O   0  0  0  0  0  0  0  0  0  0  0  0
  161.9140  207.5040  151.4160 C   0  0  1  0  0  3  0  0  0  0  0  0
  162.4300  209.9320  150.9680 C   0  0  0  0  0  3  0  0  0  0  0  0
  161.4550  208.4250  147.7780 N   0  0  0  0  0  0  0  0  0  0  0  0
  161.6230  208.5550  149.1300 C   0  0  0  0  0  0  0  0  0  0  0  0
  161.1620  204.8650  145.2100 N   0  0  0  0  0  0  0  0  0  0  0  0
  161.5360  207.4140  149.9600 C   0  0  0  0  0  0  0  0  0  0  0  0
  162.8500  208.6890  151.6980 C   0  0  0  0  0  2  0  0  0  0  0  0
  161.1080  206.0860  147.9870 C   0  0  0  0  0  0  0  0  0  0  0  0
  161.1240  204.8460  149.8940 C   0  0  0  0  0  0  0  0  0  0  0  0
  161.9100  209.8840  149.7330 C   0  0  0  0  0  0  0  0  0  0  0  0
  160.9390  207.2290  145.8650 C   0  0  0  0  0  2  0  0  0  0  0  0
  160.3410  204.7490  152.5190 C   0  0  1  0  0  3  0  0  0  0  0  0
  160.6800  203.4170  152.3350 C   0  0  0  0  0  0  0  0  0  0  0  0
  161.4100  205.4540  153.3250 C   0  0  0  0  0  2  0  0  0  0  0  0
  160.8170  204.4760  151.2370 N   0  0  0  0  0  0  0  0  0  0  0  0
  161.1250  204.7910  147.6490 C   0  0  0  0  0  0  0  0  0  0  0  0
  161.1940  207.2310  147.1760 C   0  0  0  0  0  0  0  0  0  0  0  0
  161.1830  206.2000  149.3570 C   0  0  1  0  0  3  0  0  0  0  0  0
  162.1850  202.9530  146.2220 C   0  0  0  0  0  1  0  0  0  0  0  0
  161.1010  203.9880  148.8840 C   0  0  0  0  0  3  0  0  0  0  0  0
  161.4470  204.2430  146.3130 C   0  0  0  0  0  0  0  0  0  0  0  0
  160.3520  206.0720  145.1180 C   0  0  0  0  0  2  0  0  0  0  0  0
  161.1030  206.9500  153.4520 C   0  0  0  0  0  2  0  0  0  0  0  0
  161.9740  211.4530  147.8100 C   0  0  0  0  0  3  0  0  0  0  0  0
  160.8600  212.1380  149.5580 C   0  0  0  0  0  3  0  0  0  0  0  0
  160.7760  213.1580  148.6280 C   0  0  0  0  0  3  0  0  0  0  0  0
  161.4660  212.6980  147.5190 C   0  0  0  0  0  0  0  0  0  0  0  0
  161.5780  211.1130  149.0530 N   0  0  0  0  0  0  0  0  0  0  0  0
  161.7670  213.4420  146.2840 C   0  0  0  0  0  3  0  0  0  0  0  0
  161.0510  213.4750  145.1460 C   0  0  0  0  0  0  0  0  0  0  0  0
  159.9590  211.7490  143.9520 O   0  0  0  0  0  0  0  0  0  0  0  0
  158.7780  212.6140  145.7060 O   0  0  0  0  0  1  0  0  0  0  0  0
  159.8990  212.5930  144.8850 C   0  0  0  0  0  0  0  0  0  0  0  0
  162.4940  214.2240  143.4550 O   0  0  0  0  0  1  0  0  0  0  0  0
  161.4400  214.3790  144.1070 N   0  0  0  0  0  2  0  0  0  0  0  0
  2 25  1  0  0  0  0
  3  9  1  6  0  0  0
  3  2  1  0  0  0  0
  4  9  1  0  0  0  0
  5  6  1  0  0  0  0
  6 12  1  0  0  0  0
  6  8  2  0  0  0  0
  7 23  2  0  0  0  0
  8  3  1  0  0  0  0
 11 17  1  0  0  0  0
 12  4  2  0  0  0  0
 13 19  1  0  0  0  0
 14 16  1  1  0  0  0
 15 14  1  0  0  0  0
 15  1  2  0  0  0  0
 16 25  1  0  0  0  0
 17 15  1  0  0  0  0
 17 14  1  0  0  0  0
 18 10  2  0  0  0  0
 18 22  1  0  0  0  0
 19  5  2  0  0  0  0
 19 10  1  0  0  0  0
 20 10  1  6  0  0  0
 20 11  1  0  0  0  0
 20  8  1  0  0  0  0
 21 23  1  0  0  0  0
 22 11  2  0  0  0  0
 23 18  1  0  0  0  0
 24  7  1  0  0  0  0
 24 13  1  0  0  0  0
 26 30  1  0  0  0  0
 28 27  2  0  0  0  0
 29 26  2  0  0  0  0
 29 28  1  0  0  0  0
 30 27  1  0  0  0  0
 30 12  1  0  0  0  0
 31 29  1  0  0  0  0
 32 31  2  0  0  0  0
 33 35  2  0  0  0  0
 35 32  1  0  0  0  0
 35 34  1  0  0  0  0
 36 37  1  0  0  0  0
 37 32  1  0  0  0  0
M  END
>  <MODEL>
2

>  <REMARK>
 VINA RESULT:      -5.3      3.636      7.475
  Name = 
  4 active torsions:
  status: ('A' for Active; 'I' for Inactive)
    1  A    between atoms: C_5  and  C_33
    2  A    between atoms: C_17  and  N_35
    3  A    between atoms: C_19  and  N_22
    4  A    between atoms: C_19  and  C_31
                            x       y       z     vdW  Elec       q    Type
                         _______ _______ _______ _____ _____    ______ ____

>  <TORSDO>
F 4

$$$$
=
 OpenBabel11052411003D

 37 43  0  0  1  0  0  0  0  0999 V2000
  161.8300  212.1710  156.9270 O   0  0  0  0  0  0  0  0  0  0  0  0
  161.9160  207.1100  155.2250 O   0  0  0  0  0  0  0  0  0  0  0  0
  160.7690  207.3220  154.4480 C   0  0  1  0  0  3  0  0  0  0  0  0
  160.2780  205.0500  153.4660 C   0  0  0  0  0  3  0  0  0  0  0  0
  161.2380  207.2430  150.6980 N   0  0  0  0  0  0  0  0  0  0  0  0
  161.0710  206.8120  151.9850 C   0  0  0  0  0  0  0  0  0  0  0  0
  161.4930  211.2910  148.9920 N   0  0  0  0  0  0  0  0  0  0  0  0
  161.1460  207.7390  153.0500 C   0  0  0  0  0  0  0  0  0  0  0  0
  159.8460  206.0940  154.4550 C   0  0  0  0  0  2  0  0  0  0  0  0
  161.5600  209.4800  151.4250 C   0  0  0  0  0  0  0  0  0  0  0  0
  161.5300  210.2610  153.5620 C   0  0  0  0  0  0  0  0  0  0  0  0
  160.7980  205.3790  152.2750 C   0  0  0  0  0  0  0  0  0  0  0  0
  161.7420  208.8430  149.1020 C   0  0  0  0  0  2  0  0  0  0  0  0
  162.3130  209.7760  156.1440 C   0  0  1  0  0  3  0  0  0  0  0  0
  161.9590  211.1120  156.2620 C   0  0  0  0  0  0  0  0  0  0  0  0
  161.2510  208.8970  156.7690 C   0  0  0  0  0  2  0  0  0  0  0  0
  161.8340  210.3240  154.9540 N   0  0  0  0  0  0  0  0  0  0  0  0
  161.5300  210.8170  151.3860 C   0  0  0  0  0  0  0  0  0  0  0  0
  161.4860  208.5450  150.3780 C   0  0  0  0  0  0  0  0  0  0  0  0
  161.4860  209.0610  152.7350 C   0  0  1  0  0  3  0  0  0  0  0  0
  160.4490  212.9170  150.4040 C   0  0  0  0  0  1  0  0  0  0  0  0
  161.5450  211.3240  152.7690 C   0  0  0  0  0  3  0  0  0  0  0  0
  161.2020  211.6470  150.2060 C   0  0  0  0  0  0  0  0  0  0  0  0
  162.3160  210.1440  148.6340 C   0  0  0  0  0  2  0  0  0  0  0  0
  161.5740  207.4140  156.5590 C   0  0  0  0  0  2  0  0  0  0  0  0
  160.8340  204.3280  150.0260 C   0  0  0  0  0  3  0  0  0  0  0  0
  161.7890  203.1870  151.6220 C   0  0  0  0  0  3  0  0  0  0  0  0
  161.9120  202.4200  150.4780 C   0  0  0  0  0  3  0  0  0  0  0  0
  161.3240  203.1670  149.4730 C   0  0  0  0  0  0  0  0  0  0  0  0
  161.1440  204.3370  151.3380 N   0  0  0  0  0  0  0  0  0  0  0  0
  161.0960  202.7620  148.0750 C   0  0  0  0  0  3  0  0  0  0  0  0
  161.3900  203.4500  146.9590 C   0  0  0  0  0  0  0  0  0  0  0  0
  163.0640  205.1170  146.8250 O   0  0  0  0  0  0  0  0  0  0  0  0
  160.9270  205.9000  147.0270 O   0  0  0  0  0  1  0  0  0  0  0  0
  161.8400  204.8540  146.9630 C   0  0  0  0  0  0  0  0  0  0  0  0
  160.5310  201.7830  145.5490 O   0  0  0  0  0  1  0  0  0  0  0  0
  161.2220  202.8140  145.6860 N   0  0  0  0  0  2  0  0  0  0  0  0
  2 25  1  0  0  0  0
  3  9  1  6  0  0  0
  3  2  1  0  0  0  0
  4  9  1  0  0  0  0
  5  6  1  0  0  0  0
  6 12  1  0  0  0  0
  6  8  2  0  0  0  0
  7 23  2  0  0  0  0
  8  3  1  0  0  0  0
 11 17  1  0  0  0  0
 12  4  2  0  0  0  0
 13 19  1  0  0  0  0
 14 15  1  0  0  0  0
 14 16  1  1  0  0  0
 15  1  2  0  0  0  0
 17 14  1  0  0  0  0
 17 15  1  0  0  0  0
 18 10  2  0  0  0  0
 18 22  1  0  0  0  0
 19  5  2  0  0  0  0
 19 10  1  0  0  0  0
 20 10  1  6  0  0  0
 20  8  1  0  0  0  0
 20 11  1  0  0  0  0
 22 11  2  0  0  0  0
 23 21  1  0  0  0  0
 23 18  1  0  0  0  0
 24  7  1  0  0  0  0
 24 13  1  0  0  0  0
 25 16  1  0  0  0  0
 26 30  1  0  0  0  0
 28 27  2  0  0  0  0
 29 26  2  0  0  0  0
 29 28  1  0  0  0  0
 30 27  1  0  0  0  0
 30 12  1  0  0  0  0
 31 29  1  0  0  0  0
 32 35  1  0  0  0  0
 32 31  2  0  0  0  0
 33 35  2  0  0  0  0
 35 34  1  0  0  0  0
 36 37  1  0  0  0  0
 37 32  1  0  0  0  0
M  END
>  <MODEL>
3

>  <REMARK>
 VINA RESULT:      -4.7      2.488      7.813
  Name = 
  4 active torsions:
  status: ('A' for Active; 'I' for Inactive)
    1  A    between atoms: C_5  and  C_33
    2  A    between atoms: C_17  and  N_35
    3  A    between atoms: C_19  and  N_22
    4  A    between atoms: C_19  and  C_31
                            x       y       z     vdW  Elec       q    Type
                         _______ _______ _______ _____ _____    ______ ____

>  <TORSDO>
F 4

$$$$
=
 OpenBabel11052411003D

 37 43  0  0  1  0  0  0  0  0999 V2000
  161.2980  210.6850  156.7450 O   0  0  0  0  0  0  0  0  0  0  0  0
  161.9870  206.6210  153.3490 O   0  0  0  0  0  0  0  0  0  0  0  0
  160.8430  206.9910  152.6290 C   0  0  1  0  0  3  0  0  0  0  0  0
  160.6310  205.1970  150.8690 C   0  0  0  0  0  3  0  0  0  0  0  0
  161.4070  208.3260  149.1370 N   0  0  0  0  0  0  0  0  0  0  0  0
  161.2580  207.4430  150.1710 C   0  0  0  0  0  0  0  0  0  0  0  0
  161.2500  212.7220  149.0180 N   0  0  0  0  0  0  0  0  0  0  0  0
  161.2040  207.9220  151.5010 C   0  0  0  0  0  0  0  0  0  0  0  0
  160.0620  205.7630  152.1370 C   0  0  0  0  0  2  0  0  0  0  0  0
  161.4600  210.1650  150.6380 C   0  0  0  0  0  0  0  0  0  0  0  0
  161.2920  210.1100  152.9060 C   0  0  0  0  0  0  0  0  0  0  0  0
  161.1390  205.9830  149.9100 C   0  0  0  0  0  0  0  0  0  0  0  0
  161.7670  210.4370  148.2570 C   0  0  0  0  0  2  0  0  0  0  0  0
  162.0620  208.7960  155.1850 C   0  0  1  0  0  3  0  0  0  0  0  0
  161.5600  209.9570  155.7520 C   0  0  0  0  0  0  0  0  0  0  0  0
  161.0900  207.6530  155.3860 C   0  0  0  0  0  2  0  0  0  0  0  0
  161.5540  209.6910  154.2440 N   0  0  0  0  0  0  0  0  0  0  0  0
  161.2820  211.4160  151.0800 C   0  0  0  0  0  0  0  0  0  0  0  0
  161.5150  209.6720  149.3230 C   0  0  0  0  0  0  0  0  0  0  0  0
  161.4020  209.2940  151.7020 C   0  0  1  0  0  3  0  0  0  0  0  0
  159.9980  213.6160  150.8510 C   0  0  0  0  0  1  0  0  0  0  0  0
  161.2070  211.3840  152.5510 C   0  0  0  0  0  3  0  0  0  0  0  0
  160.8920  212.5830  150.2580 C   0  0  0  0  0  0  0  0  0  0  0  0
  162.2040  211.8670  148.3240 C   0  0  0  0  0  2  0  0  0  0  0  0
  161.5810  206.3860  154.6780 C   0  0  0  0  0  2  0  0  0  0  0  0
  161.0450  204.3610  148.0320 C   0  0  0  0  0  3  0  0  0  0  0  0
  162.7410  205.7360  148.0160 C   0  0  0  0  0  3  0  0  0  0  0  0
  162.8940  204.9260  146.9060 C   0  0  0  0  0  3  0  0  0  0  0  0
  161.8010  204.0780  146.9180 C   0  0  0  0  0  0  0  0  0  0  0  0
  161.6210  205.3910  148.6850 N   0  0  0  0  0  0  0  0  0  0  0  0
  161.5350  202.9500  146.0090 C   0  0  0  0  0  3  0  0  0  0  0  0
  161.0280  201.7440  146.3180 C   0  0  0  0  0  0  0  0  0  0  0  0
  161.6900  200.5610  148.2570 O   0  0  0  0  0  0  0  0  0  0  0  0
  159.7170  201.6970  148.4400 O   0  0  0  0  0  1  0  0  0  0  0  0
  160.8190  201.2800  147.7020 C   0  0  0  0  0  0  0  0  0  0  0  0
  159.7060  200.9910  144.5320 O   0  0  0  0  0  1  0  0  0  0  0  0
  160.7080  200.8320  145.2610 N   0  0  0  0  0  2  0  0  0  0  0  0
  2 25  1  0  0  0  0
  3  9  1  6  0  0  0
  3  2  1  0  0  0  0
  4  9  1  0  0  0  0
  5 19  2  0  0  0  0
  5  6  1  0  0  0  0
  6  8  2  0  0  0  0
  7 23  2  0  0  0  0
  8 20  1  0  0  0  0
  8  3  1  0  0  0  0
 10 18  2  0  0  0  0
 11 17  1  0  0  0  0
 12  6  1  0  0  0  0
 12  4  2  0  0  0  0
 13 24  1  0  0  0  0
 13 19  1  0  0  0  0
 14 16  1  1  0  0  0
 14 15  1  0  0  0  0
 15  1  2  0  0  0  0
 17 14  1  0  0  0  0
 17 15  1  0  0  0  0
 18 22  1  0  0  0  0
 19 10  1  0  0  0  0
 20 10  1  6  0  0  0
 20 11  1  0  0  0  0
 22 11  2  0  0  0  0
 23 21  1  0  0  0  0
 23 18  1  0  0  0  0
 24  7  1  0  0  0  0
 25 16  1  0  0  0  0
 26 30  1  0  0  0  0
 27 30  1  0  0  0  0
 28 29  1  0  0  0  0
 28 27  2  0  0  0  0
 29 26  2  0  0  0  0
 30 12  1  0  0  0  0
 31 32  2  0  0  0  0
 31 29  1  0  0  0  0
 32 35  1  0  0  0  0
 35 33  2  0  0  0  0
 35 34  1  0  0  0  0
 36 37  1  0  0  0  0
 37 32  1  0  0  0  0
M  END
>  <MODEL>
4

>  <REMARK>
 VINA RESULT:      -4.6      2.501      8.279
  Name = 
  4 active torsions:
  status: ('A' for Active; 'I' for Inactive)
    1  A    between atoms: C_5  and  C_33
    2  A    between atoms: C_17  and  N_35
    3  A    between atoms: C_19  and  N_22
    4  A    between atoms: C_19  and  C_31
                            x       y       z     vdW  Elec       q    Type
                         _______ _______ _______ _____ _____    ______ ____

>  <TORSDO>
F 4

$$$$
=
 OpenBabel11052411003D

 37 43  0  0  1  0  0  0  0  0999 V2000
  161.0350  199.7110  149.6880 O   0  0  0  0  0  0  0  0  0  0  0  0
  160.4970  204.3940  152.1980 O   0  0  0  0  0  0  0  0  0  0  0  0
  161.6810  204.8720  151.6200 C   0  0  1  0  0  3  0  0  0  0  0  0
  161.9730  207.1590  152.6460 C   0  0  0  0  0  3  0  0  0  0  0  0
  161.3120  207.6490  149.0800 N   0  0  0  0  0  0  0  0  0  0  0  0
  161.4000  207.0070  150.2850 C   0  0  0  0  0  0  0  0  0  0  0  0
  161.5070  206.1320  144.9540 N   0  0  0  0  0  0  0  0  0  0  0  0
  161.3870  205.5940  150.3310 C   0  0  0  0  0  0  0  0  0  0  0  0
  162.4780  205.7460  152.6010 C   0  0  0  0  0  2  0  0  0  0  0  0
  161.1930  205.5800  147.9210 C   0  0  0  0  0  0  0  0  0  0  0  0
  161.2400  203.4870  148.8110 C   0  0  0  0  0  0  0  0  0  0  0  0
  161.5220  207.7830  151.5490 C   0  0  0  0  0  0  0  0  0  0  0  0
  161.0150  207.7050  146.7850 C   0  0  0  0  0  2  0  0  0  0  0  0
  160.3410  201.8910  150.8510 C   0  0  1  0  0  3  0  0  0  0  0  0
  160.8210  200.9130  149.9930 C   0  0  0  0  0  0  0  0  0  0  0  0
  161.2930  202.0800  152.0120 C   0  0  0  0  0  2  0  0  0  0  0  0
  160.9050  202.4110  149.6860 N   0  0  0  0  0  0  0  0  0  0  0  0
  161.3570  204.7010  146.9250 C   0  0  0  0  0  0  0  0  0  0  0  0
  161.2040  206.9860  147.8940 C   0  0  0  0  0  0  0  0  0  0  0  0
  161.1880  204.9100  149.1240 C   0  0  1  0  0  3  0  0  0  0  0  0
  162.6660  204.0420  144.8300 C   0  0  0  0  0  1  0  0  0  0  0  0
  161.3520  203.3430  147.4980 C   0  0  0  0  0  3  0  0  0  0  0  0
  161.7980  205.0150  145.5490 C   0  0  0  0  0  0  0  0  0  0  0  0
  160.5850  207.1360  145.4690 C   0  0  0  0  0  2  0  0  0  0  0  0
  160.8310  203.2280  152.9170 C   0  0  0  0  0  2  0  0  0  0  0  0
  160.0810  209.6230  152.3860 C   0  0  0  0  0  3  0  0  0  0  0  0
  161.6240  210.2010  150.9550 C   0  0  0  0  0  3  0  0  0  0  0  0
  160.9430  211.3620  151.2720 C   0  0  0  0  0  3  0  0  0  0  0  0
  159.9850  210.9830  152.1960 C   0  0  0  0  0  0  0  0  0  0  0  0
  161.1020  209.1600  151.6360 N   0  0  0  0  0  0  0  0  0  0  0  0
  158.9250  211.8220  152.7790 C   0  0  0  0  0  3  0  0  0  0  0  0
  158.7090  212.0940  154.0780 C   0  0  0  0  0  0  0  0  0  0  0  0
  158.9090  210.4100  155.7280 O   0  0  0  0  0  1  0  0  0  0  0  0
  160.6930  211.8280  155.5660 O   0  0  0  0  0  0  0  0  0  0  0  0
  159.4210  211.4210  155.1790 C   0  0  0  0  0  0  0  0  0  0  0  0
  156.5290  212.7230  154.6780 O   0  0  0  0  0  1  0  0  0  0  0  0
  157.7080  213.0560  154.4290 N   0  0  0  0  0  2  0  0  0  0  0  0
  1 15  2  0  0  0  0
  2 25  1  0  0  0  0
  3  2  1  0  0  0  0
  3  9  1  1  0  0  0
  5  6  1  0  0  0  0
  6  8  2  0  0  0  0
  6 12  1  0  0  0  0
  7 24  1  0  0  0  0
  7 23  2  0  0  0  0
  8  3  1  0  0  0  0
  9  4  1  0  0  0  0
 11 20  1  0  0  0  0
 11 17  1  0  0  0  0
 12 30  1  0  0  0  0
 12  4  2  0  0  0  0
 13 19  1  0  0  0  0
 14 16  1  1  0  0  0
 15 14  1  0  0  0  0
 16 25  1  0  0  0  0
 17 15  1  0  0  0  0
 17 14  1  0  0  0  0
 18 22  1  0  0  0  0
 18 10  2  0  0  0  0
 19 10  1  0  0  0  0
 19  5  2  0  0  0  0
 20 10  1  6  0  0  0
 20  8  1  0  0  0  0
 21 23  1  0  0  0  0
 22 11  2  0  0  0  0
 23 18  1  0  0  0  0
 24 13  1  0  0  0  0
 27 28  2  0  0  0  0
 27 30  1  0  0  0  0
 28 29  1  0  0  0  0
 29 26  2  0  0  0  0
 29 31  1  0  0  0  0
 30 26  1  0  0  0  0
 31 32  2  0  0  0  0
 32 37  1  0  0  0  0
 32 35  1  0  0  0  0
 35 34  2  0  0  0  0
 35 33  1  0  0  0  0
 37 36  1  0  0  0  0
M  END
>  <MODEL>
5

>  <REMARK>
 VINA RESULT:      -3.9      2.342      4.585
  Name = 
  4 active torsions:
  status: ('A' for Active; 'I' for Inactive)
    1  A    between atoms: C_5  and  C_33
    2  A    between atoms: C_17  and  N_35
    3  A    between atoms: C_19  and  N_22
    4  A    between atoms: C_19  and  C_31
                            x       y       z     vdW  Elec       q    Type
                         _______ _______ _______ _____ _____    ______ ____

>  <TORSDO>
F 4

$$$$
=
 OpenBabel11052411003D

 37 43  0  0  1  0  0  0  0  0999 V2000
  161.3430  210.5750  156.8850 O   0  0  0  0  0  0  0  0  0  0  0  0
  161.9690  206.3900  153.6260 O   0  0  0  0  0  0  0  0  0  0  0  0
  160.8300  206.7530  152.8950 C   0  0  1  0  0  3  0  0  0  0  0  0
  160.5900  204.9040  151.1960 C   0  0  0  0  0  3  0  0  0  0  0  0
  161.4110  207.9620  149.3610 N   0  0  0  0  0  0  0  0  0  0  0  0
  161.2500  207.1160  150.4240 C   0  0  0  0  0  0  0  0  0  0  0  0
  161.3190  212.3530  149.0940 N   0  0  0  0  0  0  0  0  0  0  0  0
  161.2040  207.6400  151.7360 C   0  0  0  0  0  0  0  0  0  0  0  0
  160.0300  205.5210  152.4440 C   0  0  0  0  0  2  0  0  0  0  0  0
  161.4930  209.8490  150.7990 C   0  0  0  0  0  0  0  0  0  0  0  0
  161.3260  209.8720  153.0680 C   0  0  0  0  0  0  0  0  0  0  0  0
  161.1090  205.6510  150.2110 C   0  0  0  0  0  0  0  0  0  0  0  0
  161.8010  210.0370  148.4100 C   0  0  0  0  0  2  0  0  0  0  0  0
  162.0780  208.6230  155.3890 C   0  0  1  0  0  3  0  0  0  0  0  0
  161.5930  209.8110  155.9180 C   0  0  0  0  0  0  0  0  0  0  0  0
  161.0890  207.5030  155.6290 C   0  0  0  0  0  2  0  0  0  0  0  0
  161.5820  209.4940  154.4190 N   0  0  0  0  0  0  0  0  0  0  0  0
  161.3330  211.1170  151.1990 C   0  0  0  0  0  0  0  0  0  0  0  0
  161.5400  209.3120  149.5010 C   0  0  0  0  0  0  0  0  0  0  0  0
  161.4230  209.0150  151.8920 C   0  0  1  0  0  3  0  0  0  0  0  0
  160.0820  213.3270  150.8970 C   0  0  0  0  0  1  0  0  0  0  0  0
  161.2600  211.1350  152.6700 C   0  0  0  0  0  3  0  0  0  0  0  0
  160.9600  212.2610  150.3390 C   0  0  0  0  0  0  0  0  0  0  0  0
  162.2600  211.4620  148.4290 C   0  0  0  0  0  2  0  0  0  0  0  0
  161.5610  206.2060  154.9630 C   0  0  0  0  0  2  0  0  0  0  0  0
  161.9050  205.6410  147.8590 C   0  0  0  0  0  3  0  0  0  0  0  0
  161.7340  203.6850  148.8120 C   0  0  0  0  0  3  0  0  0  0  0  0
  162.1740  203.4450  147.5230 C   0  0  0  0  0  3  0  0  0  0  0  0
  162.2990  204.6950  146.9420 C   0  0  0  0  0  0  0  0  0  0  0  0
  161.5810  205.0110  149.0060 N   0  0  0  0  0  0  0  0  0  0  0  0
  162.6370  204.9980  145.5400 C   0  0  0  0  0  3  0  0  0  0  0  0
  161.7920  205.1870  144.5110 C   0  0  0  0  0  0  0  0  0  0  0  0
  159.8800  203.8340  144.1820 O   0  0  0  0  0  0  0  0  0  0  0  0
  159.4850  205.8450  145.1940 O   0  0  0  0  0  1  0  0  0  0  0  0
  160.3430  204.9310  144.5910 C   0  0  0  0  0  0  0  0  0  0  0  0
  161.5810  206.0590  142.3430 O   0  0  0  0  0  1  0  0  0  0  0  0
  162.3180  205.6200  143.2510 N   0  0  0  0  0  2  0  0  0  0  0  0
  2 25  1  0  0  0  0
  3  9  1  6  0  0  0
  3  2  1  0  0  0  0
  4  9  1  0  0  0  0
  5 19  2  0  0  0  0
  5  6  1  0  0  0  0
  6  8  2  0  0  0  0
  7 23  2  0  0  0  0
  8 20  1  0  0  0  0
  8  3  1  0  0  0  0
 10 18  2  0  0  0  0
 11 17  1  0  0  0  0
 12  6  1  0  0  0  0
 12  4  2  0  0  0  0
 13 24  1  0  0  0  0
 13 19  1  0  0  0  0
 14 16  1  1  0  0  0
 14 15  1  0  0  0  0
 15  1  2  0  0  0  0
 17 14  1  0  0  0  0
 17 15  1  0  0  0  0
 18 22  1  0  0  0  0
 19 10  1  0  0  0  0
 20 10  1  6  0  0  0
 20 11  1  0  0  0  0
 22 11  2  0  0  0  0
 23 21  1  0  0  0  0
 23 18  1  0  0  0  0
 24  7  1  0  0  0  0
 25 16  1  0  0  0  0
 26 30  1  0  0  0  0
 27 30  1  0  0  0  0
 28 27  2  0  0  0  0
 29 28  1  0  0  0  0
 29 26  2  0  0  0  0
 30 12  1  0  0  0  0
 31 29  1  0  0  0  0
 32 35  1  0  0  0  0
 32 31  2  0  0  0  0
 33 35  2  0  0  0  0
 35 34  1  0  0  0  0
 36 37  1  0  0  0  0
 37 32  1  0  0  0  0
M  END
>  <MODEL>
6

>  <REMARK>
 VINA RESULT:      -3.8      2.377      8.086
  Name = 
  4 active torsions:
  status: ('A' for Active; 'I' for Inactive)
    1  A    between atoms: C_5  and  C_33
    2  A    between atoms: C_17  and  N_35
    3  A    between atoms: C_19  and  N_22
    4  A    between atoms: C_19  and  C_31
                            x       y       z     vdW  Elec       q    Type
                         _______ _______ _______ _____ _____    ______ ____

>  <TORSDO>
F 4

$$$$
