=
 OpenBabel11042422283D

 34 37  0  0  1  0  0  0  0  0999 V2000
  161.0110  213.0830  146.1050 C   0  0  0  0  0  0  0  0  0  0  0  0
  158.9650  214.4510  150.6890 C   0  0  0  0  0  2  0  0  0  0  0  0
  162.3460  209.2520  150.6600 C   0  0  0  0  0  2  0  0  0  0  0  0
  158.2930  211.7560  152.4770 N   0  0  0  0  0  0  0  0  0  0  0  0
  160.4630  209.4940  152.9670 C   0  0  0  0  0  2  0  0  0  0  0  0
  160.0830  214.0360  146.5360 C   0  0  0  0  0  3  0  0  0  0  0  0
  159.5600  211.1940  154.5280 C   0  0  1  0  0  3  0  0  0  0  0  0
  160.9450  207.2120  153.4600 O   0  0  0  0  0  1  0  0  0  0  0  0
  158.8320  213.1660  155.3550 C   0  0  0  0  0  3  0  0  0  0  0  0
  157.7540  213.5590  150.9200 C   0  0  0  0  0  2  0  0  0  0  0  0
  159.8360  212.1100  155.4460 C   0  0  0  0  0  3  0  0  0  0  0  0
  159.8200  214.1950  147.8970 C   0  0  0  0  0  3  0  0  0  0  0  0
  161.0710  210.0420  149.6400 S   0  0  0  0  0  0  0  0  0  0  0  0
  161.6610  212.2850  147.0470 C   0  0  0  0  0  3  0  0  0  0  0  0
  160.1600  213.6400  150.2920 C   0  0  0  0  0  0  0  0  0  0  0  0
  160.4770  213.4090  148.8580 C   0  0  0  0  0  0  0  0  0  0  0  0
  161.7520  208.0420  151.3670 C   0  0  2  0  0  3  0  0  0  0  0  0
  162.1090  211.5030  149.3480 C   0  0  0  0  0  2  0  0  0  0  0  0
  157.9210  212.7850  154.4720 C   0  0  2  0  0  3  0  0  0  0  0  0
  160.3230  209.9160  154.4180 C   0  0  0  0  0  2  0  0  0  0  0  0
  158.2330  211.4600  153.9010 C   0  0  1  0  0  3  0  0  0  0  0  0
  157.8070  212.9420  152.2760 C   0  0  0  0  0  0  0  0  0  0  0  0
  161.4590  208.3510  152.8350 C   0  0  1  0  0  3  0  0  0  0  0  0
  161.4120  212.4380  148.4160 C   0  0  0  0  0  0  0  0  0  0  0  0
  160.8870  213.1610  151.2030 O   0  0  0  0  0  0  0  0  0  0  0  0
  157.4930  213.6770  153.4580 N   0  0  0  0  0  2  0  0  0  0  0  0
  162.6880  206.9320  151.2760 N   0  0  0  0  0  2  0  0  0  0  0  0
  160.9870  205.9650  149.8480 C   0  0  0  0  0  1  0  0  0  0  0  0
  161.9060  205.7330  151.0280 C   0  0  0  0  0  2  0  0  0  0  0  0
  161.2910  212.8910  144.7150 N   0  0  0  0  0  2  0  0  0  0  0  0
  162.5760  213.2020  144.1030 C   0  0  0  0  0  2  0  0  0  0  0  0
  162.4000  213.5040  142.6250 C   0  0  2  0  0  3  0  0  0  0  0  0
  161.2470  214.2640  142.4230 O   0  0  0  0  0  1  0  0  0  0  0  0
  162.2810  212.2030  141.8590 C   0  0  0  0  0  1  0  0  0  0  0  0
  1  6  2  0  0  0  0
  1 14  1  0  0  0  0
  2 10  1  0  0  0  0
  3 17  1  0  0  0  0
  5 20  1  0  0  0  0
  6 12  1  0  0  0  0
  7 20  1  1  0  0  0
  7 11  1  0  0  0  0
  9 11  2  0  0  0  0
 10 22  1  0  0  0  0
 12 16  2  0  0  0  0
 13  3  1  0  0  0  0
 14 24  2  0  0  0  0
 15  2  1  0  0  0  0
 15 25  2  0  0  0  0
 16 15  1  0  0  0  0
 17 27  1  1  0  0  0
 17 23  1  0  0  0  0
 18 13  1  0  0  0  0
 19  9  1  6  0  0  0
 21  4  1  6  0  0  0
 21 19  1  0  0  0  0
 21  7  1  0  0  0  0
 22  4  2  0  0  0  0
 22 26  1  0  0  0  0
 23  5  1  0  0  0  0
 23  8  1  6  0  0  0
 24 16  1  0  0  0  0
 24 18  1  0  0  0  0
 26 19  1  0  0  0  0
 28 29  1  0  0  0  0
 29 27  1  0  0  0  0
 30  1  1  0  0  0  0
 31 30  1  0  0  0  0
 32 34  1  6  0  0  0
 32 31  1  0  0  0  0
 33 32  1  0  0  0  0
M  END
>  <MODEL>
1

>  <REMARK>
 VINA RESULT:      -4.5      0.000      0.000
  Name = 
  5 active torsions:
  status: ('A' for Active; 'I' for Inactive)
    1  A    between atoms: C_1  and  N_33
    2  A    between atoms: C_9  and  C_31
    3  A    between atoms: N_10  and  C_22
    4  A    between atoms: N_10  and  C_30
    5  A    between atoms: C_31  and  N_33
                            x       y       z     vdW  Elec       q    Type
                         _______ _______ _______ _____ _____    ______ ____

>  <TORSDO>
F 5

$$$$
=
 OpenBabel11042422283D

 34 37  0  0  1  0  0  0  0  0999 V2000
  161.0350  212.2710  148.2410 C   0  0  0  0  0  0  0  0  0  0  0  0
  160.4400  212.1760  153.4090 C   0  0  0  0  0  2  0  0  0  0  0  0
  162.1390  206.8300  150.7660 C   0  0  0  0  0  2  0  0  0  0  0  0
  159.4160  209.1890  154.3750 N   0  0  0  0  0  0  0  0  0  0  0  0
  160.9130  206.5400  153.4750 C   0  0  0  0  0  2  0  0  0  0  0  0
  160.5220  213.1500  149.2000 C   0  0  0  0  0  3  0  0  0  0  0  0
  160.8650  207.6660  155.6830 C   0  0  1  0  0  3  0  0  0  0  0  0
  160.8220  204.1930  153.0650 O   0  0  0  0  0  1  0  0  0  0  0  0
  160.9070  209.2820  157.2610 C   0  0  0  0  0  3  0  0  0  0  0  0
  159.1010  211.5120  153.6900 C   0  0  0  0  0  2  0  0  0  0  0  0
  161.5680  208.0990  156.7190 C   0  0  0  0  0  3  0  0  0  0  0  0
  160.5990  212.8330  150.5560 C   0  0  0  0  0  3  0  0  0  0  0  0
  160.9570  208.1730  150.4640 S   0  0  0  0  0  0  0  0  0  0  0  0
  161.6130  211.0690  148.6520 C   0  0  0  0  0  3  0  0  0  0  0  0
  161.2500  211.3630  152.4480 C   0  0  0  0  0  0  0  0  0  0  0  0
  161.1890  211.6330  150.9870 C   0  0  0  0  0  0  0  0  0  0  0  0
  161.3850  205.5800  151.1990 C   0  0  2  0  0  3  0  0  0  0  0  0
  162.2820  209.4100  150.3560 C   0  0  0  0  0  2  0  0  0  0  0  0
  159.7650  209.4420  156.6090 C   0  0  2  0  0  3  0  0  0  0  0  0
  161.1970  206.4040  154.9600 C   0  0  0  0  0  2  0  0  0  0  0  0
  159.5680  208.3960  155.5860 C   0  0  1  0  0  3  0  0  0  0  0  0
  159.2540  210.4320  154.7070 C   0  0  0  0  0  0  0  0  0  0  0  0
  161.4970  205.3630  152.7080 C   0  0  1  0  0  3  0  0  0  0  0  0
  161.7020  210.7410  150.0100 C   0  0  0  0  0  0  0  0  0  0  0  0
  161.9830  210.4480  152.9090 O   0  0  0  0  0  0  0  0  0  0  0  0
  159.4080  210.7140  156.0970 N   0  0  0  0  0  2  0  0  0  0  0  0
  161.9310  204.4290  150.4960 N   0  0  0  0  0  2  0  0  0  0  0  0
  160.7200  202.5710  149.5220 C   0  0  0  0  0  1  0  0  0  0  0  0
  160.9720  204.0620  149.4680 C   0  0  0  0  0  2  0  0  0  0  0  0
  160.9600  212.5670  146.8430 N   0  0  0  0  0  2  0  0  0  0  0  0
  159.8910  213.3540  146.2430 C   0  0  0  0  0  2  0  0  0  0  0  0
  158.9200  212.4520  145.5020 C   0  0  2  0  0  3  0  0  0  0  0  0
  158.8560  212.8150  144.1570 O   0  0  0  0  0  1  0  0  0  0  0  0
  157.5440  212.5820  146.1200 C   0  0  0  0  0  1  0  0  0  0  0  0
  1 14  2  0  0  0  0
  1  6  1  0  0  0  0
  2 10  1  0  0  0  0
  3 17  1  0  0  0  0
  4 22  2  0  0  0  0
  5 20  1  0  0  0  0
  6 12  2  0  0  0  0
  7 20  1  1  0  0  0
  7 11  1  0  0  0  0
 10 22  1  0  0  0  0
 11  9  2  0  0  0  0
 12 16  1  0  0  0  0
 13  3  1  0  0  0  0
 14 24  1  0  0  0  0
 15 25  2  0  0  0  0
 15  2  1  0  0  0  0
 16 15  1  0  0  0  0
 17 27  1  6  0  0  0
 17 23  1  0  0  0  0
 18 13  1  0  0  0  0
 19  9  1  6  0  0  0
 21  4  1  6  0  0  0
 21  7  1  0  0  0  0
 21 19  1  0  0  0  0
 22 26  1  0  0  0  0
 23  8  1  1  0  0  0
 23  5  1  0  0  0  0
 24 18  1  0  0  0  0
 24 16  2  0  0  0  0
 26 19  1  0  0  0  0
 29 28  1  0  0  0  0
 29 27  1  0  0  0  0
 30  1  1  0  0  0  0
 31 30  1  0  0  0  0
 32 34  1  1  0  0  0
 32 31  1  0  0  0  0
 33 32  1  0  0  0  0
M  END
>  <MODEL>
2

>  <REMARK>
 VINA RESULT:      -4.5      2.380      3.458
  Name = 
  5 active torsions:
  status: ('A' for Active; 'I' for Inactive)
    1  A    between atoms: C_1  and  N_33
    2  A    between atoms: C_9  and  C_31
    3  A    between atoms: N_10  and  C_22
    4  A    between atoms: N_10  and  C_30
    5  A    between atoms: C_31  and  N_33
                            x       y       z     vdW  Elec       q    Type
                         _______ _______ _______ _____ _____    ______ ____

>  <TORSDO>
F 5

$$$$
=
 OpenBabel11042422283D

 34 37  0  0  1  0  0  0  0  0999 V2000
  161.0220  212.2350  148.1610 C   0  0  0  0  0  0  0  0  0  0  0  0
  160.4840  212.1750  153.3360 C   0  0  0  0  0  2  0  0  0  0  0  0
  162.1050  206.7980  150.7060 C   0  0  0  0  0  2  0  0  0  0  0  0
  159.4450  209.2020  154.3310 N   0  0  0  0  0  0  0  0  0  0  0  0
  160.9070  206.5340  153.4300 C   0  0  0  0  0  2  0  0  0  0  0  0
  160.5270  213.1240  149.1210 C   0  0  0  0  0  3  0  0  0  0  0  0
  160.8940  207.6740  155.6310 C   0  0  1  0  0  3  0  0  0  0  0  0
  160.7910  204.1870  153.0340 O   0  0  0  0  0  1  0  0  0  0  0  0
  160.9680  209.2980  157.1990 C   0  0  0  0  0  3  0  0  0  0  0  0
  159.1420  211.5240  153.6370 C   0  0  0  0  0  2  0  0  0  0  0  0
  161.6130  208.1060  156.6570 C   0  0  0  0  0  3  0  0  0  0  0  0
  160.6170  212.8130  150.4780 C   0  0  0  0  0  3  0  0  0  0  0  0
  160.9320  208.1500  150.4090 S   0  0  0  0  0  0  0  0  0  0  0  0
  161.5930  211.0300  148.5730 C   0  0  0  0  0  3  0  0  0  0  0  0
  161.2760  211.3490  152.3710 C   0  0  0  0  0  0  0  0  0  0  0  0
  161.2000  211.6110  150.9090 C   0  0  0  0  0  0  0  0  0  0  0  0
  161.3450  205.5570  151.1540 C   0  0  2  0  0  3  0  0  0  0  0  0
  162.2670  209.3740  150.2790 C   0  0  0  0  0  2  0  0  0  0  0  0
  159.8200  209.4650  156.5590 C   0  0  2  0  0  3  0  0  0  0  0  0
  161.2070  206.4050  154.9120 C   0  0  0  0  0  2  0  0  0  0  0  0
  159.6030  208.4150  155.5450 C   0  0  1  0  0  3  0  0  0  0  0  0
  159.2970  210.4490  154.6580 C   0  0  0  0  0  0  0  0  0  0  0  0
  161.4730  205.3480  152.6620 C   0  0  1  0  0  3  0  0  0  0  0  0
  161.6950  210.7090  149.9320 C   0  0  0  0  0  0  0  0  0  0  0  0
  162.0060  210.4300  152.8290 O   0  0  0  0  0  0  0  0  0  0  0  0
  159.4690  210.7370  156.0440 N   0  0  0  0  0  2  0  0  0  0  0  0
  161.8730  204.3980  150.4510 N   0  0  0  0  0  2  0  0  0  0  0  0
  161.4750  203.7200  148.1600 C   0  0  0  0  0  1  0  0  0  0  0  0
  160.8490  203.9620  149.5170 C   0  0  0  0  0  2  0  0  0  0  0  0
  160.9330  212.5230  146.7630 N   0  0  0  0  0  2  0  0  0  0  0  0
  161.9600  213.2450  146.0240 C   0  0  0  0  0  2  0  0  0  0  0  0
  161.5800  213.3530  144.5570 C   0  0  2  0  0  3  0  0  0  0  0  0
  160.5800  212.4300  144.2490 O   0  0  0  0  0  1  0  0  0  0  0  0
  162.7980  213.0730  143.7020 C   0  0  0  0  0  1  0  0  0  0  0  0
  1 14  2  0  0  0  0
  1  6  1  0  0  0  0
  2 10  1  0  0  0  0
  3 17  1  0  0  0  0
  4 22  2  0  0  0  0
  5 20  1  0  0  0  0
  6 12  2  0  0  0  0
  7 20  1  1  0  0  0
  7 11  1  0  0  0  0
 10 22  1  0  0  0  0
 11  9  2  0  0  0  0
 12 16  1  0  0  0  0
 13  3  1  0  0  0  0
 14 24  1  0  0  0  0
 15 25  2  0  0  0  0
 15  2  1  0  0  0  0
 16 15  1  0  0  0  0
 17 27  1  6  0  0  0
 17 23  1  0  0  0  0
 18 13  1  0  0  0  0
 19  9  1  6  0  0  0
 21  4  1  6  0  0  0
 21  7  1  0  0  0  0
 21 19  1  0  0  0  0
 22 26  1  0  0  0  0
 23  8  1  1  0  0  0
 23  5  1  0  0  0  0
 24 18  1  0  0  0  0
 24 16  2  0  0  0  0
 26 19  1  0  0  0  0
 28 29  1  0  0  0  0
 29 27  1  0  0  0  0
 30  1  1  0  0  0  0
 31 30  1  0  0  0  0
 32 34  1  6  0  0  0
 32 31  1  0  0  0  0
 33 32  1  0  0  0  0
M  END
>  <MODEL>
3

>  <REMARK>
 VINA RESULT:      -4.5      2.120      3.142
  Name = 
  5 active torsions:
  status: ('A' for Active; 'I' for Inactive)
    1  A    between atoms: C_1  and  N_33
    2  A    between atoms: C_9  and  C_31
    3  A    between atoms: N_10  and  C_22
    4  A    between atoms: N_10  and  C_30
    5  A    between atoms: C_31  and  N_33
                            x       y       z     vdW  Elec       q    Type
                         _______ _______ _______ _____ _____    ______ ____

>  <TORSDO>
F 5

$$$$
=
 OpenBabel11042422283D

 34 37  0  0  1  0  0  0  0  0999 V2000
  161.9550  210.9310  149.4400 C   0  0  0  0  0  0  0  0  0  0  0  0
  161.8830  206.5900  152.3080 C   0  0  0  0  0  2  0  0  0  0  0  0
  161.9810  205.7900  146.1590 C   0  0  0  0  0  2  0  0  0  0  0  0
  160.2800  204.1960  150.6940 N   0  0  0  0  0  0  0  0  0  0  0  0
  161.0030  203.4260  147.7020 C   0  0  0  0  0  2  0  0  0  0  0  0
  161.7670  210.6360  150.7940 C   0  0  0  0  0  3  0  0  0  0  0  0
  161.4490  202.2010  149.8100 C   0  0  1  0  0  3  0  0  0  0  0  0
  160.3140  202.4880  145.6210 O   0  0  0  0  0  1  0  0  0  0  0  0
  162.0350  201.7660  151.9480 C   0  0  0  0  0  3  0  0  0  0  0  0
  160.4590  206.0550  152.2680 C   0  0  0  0  0  2  0  0  0  0  0  0
  162.3370  201.5390  150.5380 C   0  0  0  0  0  3  0  0  0  0  0  0
  161.9030  209.3250  151.2530 C   0  0  0  0  0  3  0  0  0  0  0  0
  161.1290  206.8340  147.3740 S   0  0  0  0  0  0  0  0  0  0  0  0
  162.2680  209.9020  148.5510 C   0  0  0  0  0  3  0  0  0  0  0  0
  162.3740  206.9100  150.9300 C   0  0  0  0  0  0  0  0  0  0  0  0
  162.2300  208.2810  150.3720 C   0  0  0  0  0  0  0  0  0  0  0  0
  160.9990  204.7800  145.5820 C   0  0  2  0  0  3  0  0  0  0  0  0
  162.6920  207.5390  147.9700 C   0  0  0  0  0  2  0  0  0  0  0  0
  160.9040  202.4520  152.0150 C   0  0  2  0  0  3  0  0  0  0  0  0
  161.3960  202.0980  148.3220 C   0  0  0  0  0  2  0  0  0  0  0  0
  160.3600  202.7430  150.6740 C   0  0  1  0  0  3  0  0  0  0  0  0
  160.4530  204.6070  151.9120 C   0  0  0  0  0  0  0  0  0  0  0  0
  161.2090  203.3950  146.1940 C   0  0  1  0  0  3  0  0  0  0  0  0
  162.4150  208.5840  148.9990 C   0  0  0  0  0  0  0  0  0  0  0  0
  162.9100  205.9890  150.2580 O   0  0  0  0  0  0  0  0  0  0  0  0
  160.8100  203.5930  152.8500 N   0  0  0  0  0  2  0  0  0  0  0  0
  161.1800  204.7110  144.1400 N   0  0  0  0  0  2  0  0  0  0  0  0
  161.5830  206.0810  142.1840 C   0  0  0  0  0  1  0  0  0  0  0  0
  161.5810  206.0350  143.6960 C   0  0  0  0  0  2  0  0  0  0  0  0
  161.8110  212.2650  148.9420 N   0  0  0  0  0  2  0  0  0  0  0  0
  162.5780  212.7920  147.8210 C   0  0  0  0  0  2  0  0  0  0  0  0
  161.6460  213.2560  146.7140 C   0  0  2  0  0  3  0  0  0  0  0  0
  160.5820  212.3650  146.5750 O   0  0  0  0  0  1  0  0  0  0  0  0
  162.4130  213.3260  145.4100 C   0  0  0  0  0  1  0  0  0  0  0  0
  1  6  1  0  0  0  0
  3 13  1  0  0  0  0
  4 22  2  0  0  0  0
  5 20  1  0  0  0  0
  6 12  2  0  0  0  0
  7 20  1  6  0  0  0
  7 11  1  0  0  0  0
  7 21  1  0  0  0  0
 10  2  1  0  0  0  0
 11  9  2  0  0  0  0
 13 18  1  0  0  0  0
 14 24  1  0  0  0  0
 14  1  2  0  0  0  0
 15  2  1  0  0  0  0
 16 15  1  0  0  0  0
 16 12  1  0  0  0  0
 17 27  1  6  0  0  0
 17  3  1  0  0  0  0
 17 23  1  0  0  0  0
 18 24  1  0  0  0  0
 19  9  1  6  0  0  0
 19 26  1  0  0  0  0
 21  4  1  1  0  0  0
 21 19  1  0  0  0  0
 22 10  1  0  0  0  0
 22 26  1  0  0  0  0
 23  8  1  6  0  0  0
 23  5  1  0  0  0  0
 24 16  2  0  0  0  0
 25 15  2  0  0  0  0
 28 29  1  0  0  0  0
 29 27  1  0  0  0  0
 30  1  1  0  0  0  0
 31 30  1  0  0  0  0
 32 34  1  6  0  0  0
 32 31  1  0  0  0  0
 33 32  1  0  0  0  0
M  END
>  <MODEL>
4

>  <REMARK>
 VINA RESULT:      -4.0      3.879      7.556
  Name = 
  5 active torsions:
  status: ('A' for Active; 'I' for Inactive)
    1  A    between atoms: C_1  and  N_33
    2  A    between atoms: C_9  and  C_31
    3  A    between atoms: N_10  and  C_22
    4  A    between atoms: N_10  and  C_30
    5  A    between atoms: C_31  and  N_33
                            x       y       z     vdW  Elec       q    Type
                         _______ _______ _______ _____ _____    ______ ____

>  <TORSDO>
F 5

$$$$
=
 OpenBabel11042422283D

 34 37  0  0  1  0  0  0  0  0999 V2000
  161.9650  210.9560  149.4360 C   0  0  0  0  0  0  0  0  0  0  0  0
  161.8800  206.6170  152.3050 C   0  0  0  0  0  2  0  0  0  0  0  0
  161.9990  205.8130  146.1570 C   0  0  0  0  0  2  0  0  0  0  0  0
  160.2810  204.2230  150.6870 N   0  0  0  0  0  0  0  0  0  0  0  0
  161.0150  203.4500  147.6980 C   0  0  0  0  0  2  0  0  0  0  0  0
  161.7710  210.6620  150.7890 C   0  0  0  0  0  3  0  0  0  0  0  0
  161.4530  202.2260  149.8080 C   0  0  1  0  0  3  0  0  0  0  0  0
  160.3330  202.5120  145.6150 O   0  0  0  0  0  1  0  0  0  0  0  0
  162.0310  201.7920  151.9480 C   0  0  0  0  0  3  0  0  0  0  0  0
  160.4560  206.0820  152.2600 C   0  0  0  0  0  2  0  0  0  0  0  0
  162.3380  201.5640  150.5400 C   0  0  0  0  0  3  0  0  0  0  0  0
  161.9050  209.3510  151.2490 C   0  0  0  0  0  3  0  0  0  0  0  0
  161.1430  206.8580  147.3690 S   0  0  0  0  0  0  0  0  0  0  0  0
  162.2800  209.9270  148.5490 C   0  0  0  0  0  3  0  0  0  0  0  0
  162.3760  206.9350  150.9290 C   0  0  0  0  0  0  0  0  0  0  0  0
  162.2350  208.3060  150.3700 C   0  0  0  0  0  0  0  0  0  0  0  0
  161.0190  204.8030  145.5770 C   0  0  2  0  0  3  0  0  0  0  0  0
  162.7050  207.5630  147.9700 C   0  0  0  0  0  2  0  0  0  0  0  0
  160.9000  202.4790  152.0110 C   0  0  2  0  0  3  0  0  0  0  0  0
  161.4050  202.1220  148.3200 C   0  0  0  0  0  2  0  0  0  0  0  0
  160.3610  202.7690  150.6680 C   0  0  1  0  0  3  0  0  0  0  0  0
  160.4510  204.6340  151.9060 C   0  0  0  0  0  0  0  0  0  0  0  0
  161.2260  203.4190  146.1910 C   0  0  1  0  0  3  0  0  0  0  0  0
  162.4240  208.6090  148.9970 C   0  0  0  0  0  0  0  0  0  0  0  0
  162.9140  206.0140  150.2600 O   0  0  0  0  0  0  0  0  0  0  0  0
  160.8030  203.6200  152.8450 N   0  0  0  0  0  2  0  0  0  0  0  0
  161.2060  204.7340  144.1360 N   0  0  0  0  0  2  0  0  0  0  0  0
  161.6940  206.1140  142.2070 C   0  0  0  0  0  1  0  0  0  0  0  0
  161.2060  206.0990  143.6390 C   0  0  0  0  0  2  0  0  0  0  0  0
  161.8230  212.2890  148.9360 N   0  0  0  0  0  2  0  0  0  0  0  0
  160.6990  212.7280  148.1200 C   0  0  0  0  0  2  0  0  0  0  0  0
  159.9680  213.8750  148.7970 C   0  0  2  0  0  3  0  0  0  0  0  0
  160.2550  213.8900  150.1620 O   0  0  0  0  0  1  0  0  0  0  0  0
  158.4760  213.7020  148.6030 C   0  0  0  0  0  1  0  0  0  0  0  0
  1  6  1  0  0  0  0
  3 13  1  0  0  0  0
  4 22  2  0  0  0  0
  5 20  1  0  0  0  0
  6 12  2  0  0  0  0
  7 20  1  6  0  0  0
  7 11  1  0  0  0  0
  7 21  1  0  0  0  0
 10  2  1  0  0  0  0
 11  9  2  0  0  0  0
 13 18  1  0  0  0  0
 14 24  1  0  0  0  0
 14  1  2  0  0  0  0
 15  2  1  0  0  0  0
 16 15  1  0  0  0  0
 16 12  1  0  0  0  0
 17 27  1  6  0  0  0
 17  3  1  0  0  0  0
 17 23  1  0  0  0  0
 18 24  1  0  0  0  0
 19  9  1  6  0  0  0
 19 26  1  0  0  0  0
 21  4  1  1  0  0  0
 21 19  1  0  0  0  0
 22 10  1  0  0  0  0
 22 26  1  0  0  0  0
 23  8  1  6  0  0  0
 23  5  1  0  0  0  0
 24 16  2  0  0  0  0
 25 15  2  0  0  0  0
 28 29  1  0  0  0  0
 29 27  1  0  0  0  0
 30  1  1  0  0  0  0
 31 32  1  0  0  0  0
 31 30  1  0  0  0  0
 32 34  1  1  0  0  0
 32 33  1  0  0  0  0
M  END
>  <MODEL>
5

>  <REMARK>
 VINA RESULT:      -3.7      3.803      7.773
  Name = 
  5 active torsions:
  status: ('A' for Active; 'I' for Inactive)
    1  A    between atoms: C_1  and  N_33
    2  A    between atoms: C_9  and  C_31
    3  A    between atoms: N_10  and  C_22
    4  A    between atoms: N_10  and  C_30
    5  A    between atoms: C_31  and  N_33
                            x       y       z     vdW  Elec       q    Type
                         _______ _______ _______ _____ _____    ______ ____

>  <TORSDO>
F 5

$$$$
=
 OpenBabel11042422283D

 34 37  0  0  1  0  0  0  0  0999 V2000
  160.4820  208.6370  156.1170 C   0  0  0  0  0  0  0  0  0  0  0  0
  161.1780  204.9790  152.4830 C   0  0  0  0  0  2  0  0  0  0  0  0
  162.0430  210.8390  150.6470 C   0  0  0  0  0  2  0  0  0  0  0  0
  160.3530  206.1640  149.5130 N   0  0  0  0  0  0  0  0  0  0  0  0
  161.5170  208.9090  148.4280 C   0  0  0  0  0  2  0  0  0  0  0  0
  160.2430  207.2620  156.0310 C   0  0  0  0  0  3  0  0  0  0  0  0
  162.0420  206.5830  147.7530 C   0  0  1  0  0  3  0  0  0  0  0  0
  161.2720  210.7950  146.9910 O   0  0  0  0  0  1  0  0  0  0  0  0
  162.5110  204.3760  147.8690 C   0  0  0  0  0  3  0  0  0  0  0  0
  159.9340  204.9800  151.6070 C   0  0  0  0  0  2  0  0  0  0  0  0
  162.9900  205.6980  147.4770 C   0  0  0  0  0  3  0  0  0  0  0  0
  160.6440  206.5490  154.9000 C   0  0  0  0  0  3  0  0  0  0  0  0
  160.8560  209.8940  151.6430 S   0  0  0  0  0  0  0  0  0  0  0  0
  161.1140  209.2910  155.0580 C   0  0  0  0  0  3  0  0  0  0  0  0
  161.7070  206.3680  152.6640 C   0  0  0  0  0  0  0  0  0  0  0  0
  161.2930  207.1900  153.8320 C   0  0  0  0  0  0  0  0  0  0  0  0
  161.3900  211.2520  149.3360 C   0  0  2  0  0  3  0  0  0  0  0  0
  162.1430  209.3760  152.8140 C   0  0  0  0  0  2  0  0  0  0  0  0
  161.2480  204.4980  148.2480 C   0  0  2  0  0  3  0  0  0  0  0  0
  162.1560  208.0220  147.3750 C   0  0  0  0  0  2  0  0  0  0  0  0
  160.7790  205.8950  148.1470 C   0  0  1  0  0  3  0  0  0  0  0  0
  160.3080  205.0430  150.1650 C   0  0  0  0  0  0  0  0  0  0  0  0
  161.8660  210.3700  148.1820 C   0  0  1  0  0  3  0  0  0  0  0  0
  161.5280  208.5870  153.9220 C   0  0  0  0  0  0  0  0  0  0  0  0
  162.5080  206.8200  151.8040 O   0  0  0  0  0  0  0  0  0  0  0  0
  160.8060  203.9090  149.4590 N   0  0  0  0  0  2  0  0  0  0  0  0
  161.7170  212.6420  149.0590 N   0  0  0  0  0  2  0  0  0  0  0  0
  159.8070  213.7660  148.0820 C   0  0  0  0  0  1  0  0  0  0  0  0
  160.5350  213.4290  149.3650 C   0  0  0  0  0  2  0  0  0  0  0  0
  160.0710  209.3940  157.2590 N   0  0  0  0  0  2  0  0  0  0  0  0
  159.9330  210.8440  157.2570 C   0  0  0  0  0  2  0  0  0  0  0  0
  158.8220  211.2690  156.3120 C   0  0  2  0  0  3  0  0  0  0  0  0
  159.2480  212.3300  155.5130 O   0  0  0  0  0  1  0  0  0  0  0  0
  157.6170  211.7050  157.1200 C   0  0  0  0  0  1  0  0  0  0  0  0
  1 30  1  0  0  0  0
  2 15  1  0  0  0  0
  3 13  1  0  0  0  0
  4 22  2  0  0  0  0
  6  1  1  0  0  0  0
  7 20  1  6  0  0  0
  7 21  1  0  0  0  0
 10  2  1  0  0  0  0
 11  7  1  0  0  0  0
 11  9  2  0  0  0  0
 12  6  2  0  0  0  0
 13 18  1  0  0  0  0
 14  1  2  0  0  0  0
 15 16  1  0  0  0  0
 16 24  2  0  0  0  0
 16 12  1  0  0  0  0
 17 27  1  6  0  0  0
 17  3  1  0  0  0  0
 18 24  1  0  0  0  0
 19  9  1  1  0  0  0
 19 26  1  0  0  0  0
 20  5  1  0  0  0  0
 21 19  1  0  0  0  0
 21  4  1  1  0  0  0
 22 10  1  0  0  0  0
 23  8  1  6  0  0  0
 23  5  1  0  0  0  0
 23 17  1  0  0  0  0
 24 14  1  0  0  0  0
 25 15  2  0  0  0  0
 26 22  1  0  0  0  0
 27 29  1  0  0  0  0
 28 29  1  0  0  0  0
 31 30  1  0  0  0  0
 32 34  1  1  0  0  0
 32 31  1  0  0  0  0
 33 32  1  0  0  0  0
M  END
>  <MODEL>
6

>  <REMARK>
 VINA RESULT:      -3.3      3.201      9.318
  Name = 
  5 active torsions:
  status: ('A' for Active; 'I' for Inactive)
    1  A    between atoms: C_1  and  N_33
    2  A    between atoms: C_9  and  C_31
    3  A    between atoms: N_10  and  C_22
    4  A    between atoms: N_10  and  C_30
    5  A    between atoms: C_31  and  N_33
                            x       y       z     vdW  Elec       q    Type
                         _______ _______ _______ _____ _____    ______ ____

>  <TORSDO>
F 5

$$$$
=
 OpenBabel11042422283D

 34 37  0  0  1  0  0  0  0  0999 V2000
  161.5030  209.4490  151.6250 C   0  0  0  0  0  0  0  0  0  0  0  0
  161.4810  204.2640  152.0630 C   0  0  0  0  0  2  0  0  0  0  0  0
  161.6130  206.5070  146.2830 C   0  0  0  0  0  2  0  0  0  0  0  0
  159.9180  202.9190  149.4840 N   0  0  0  0  0  0  0  0  0  0  0  0
  160.6630  203.6830  146.4960 C   0  0  0  0  0  2  0  0  0  0  0  0
  161.3140  208.5390  152.6700 C   0  0  0  0  0  3  0  0  0  0  0  0
  161.1180  201.6030  147.7640 C   0  0  1  0  0  3  0  0  0  0  0  0
  159.9950  203.8490  144.2130 O   0  0  0  0  0  1  0  0  0  0  0  0
  161.7020  200.2030  149.4380 C   0  0  0  0  0  3  0  0  0  0  0  0
  160.0650  203.7980  151.7570 C   0  0  0  0  0  2  0  0  0  0  0  0
  162.0130  200.6820  148.0950 C   0  0  0  0  0  3  0  0  0  0  0  0
  161.4670  207.1700  152.4460 C   0  0  0  0  0  3  0  0  0  0  0  0
  160.7420  206.8330  147.8410 S   0  0  0  0  0  0  0  0  0  0  0  0
  161.8340  208.9750  150.3550 C   0  0  0  0  0  3  0  0  0  0  0  0
  161.9730  205.2100  151.0110 C   0  0  0  0  0  0  0  0  0  0  0  0
  161.8120  206.6790  151.1770 C   0  0  0  0  0  0  0  0  0  0  0  0
  160.6480  205.8870  145.2830 C   0  0  2  0  0  3  0  0  0  0  0  0
  162.2930  207.1830  148.7170 C   0  0  0  0  0  2  0  0  0  0  0  0
  160.5610  200.7610  149.8150 C   0  0  2  0  0  3  0  0  0  0  0  0
  161.0720  202.2240  146.4080 C   0  0  0  0  0  2  0  0  0  0  0  0
  160.0190  201.6530  148.7710 C   0  0  1  0  0  3  0  0  0  0  0  0
  160.0810  202.6970  150.7520 C   0  0  0  0  0  0  0  0  0  0  0  0
  160.8750  204.3800  145.1600 C   0  0  1  0  0  3  0  0  0  0  0  0
  161.9970  207.6050  150.1180 C   0  0  0  0  0  0  0  0  0  0  0  0
  162.5240  204.7280  149.9860 O   0  0  0  0  0  0  0  0  0  0  0  0
  160.4480  201.3620  151.0930 N   0  0  0  0  0  2  0  0  0  0  0  0
  160.8360  206.5190  143.9860 N   0  0  0  0  0  2  0  0  0  0  0  0
  161.9560  206.2030  141.8620 C   0  0  0  0  0  1  0  0  0  0  0  0
  161.9290  205.8250  143.3270 C   0  0  0  0  0  2  0  0  0  0  0  0
  161.3430  210.8560  151.8250 N   0  0  0  0  0  2  0  0  0  0  0  0
  160.8310  211.4410  153.0570 C   0  0  0  0  0  2  0  0  0  0  0  0
  159.5690  212.2400  152.7800 C   0  0  2  0  0  3  0  0  0  0  0  0
  158.4610  211.3930  152.7450 O   0  0  0  0  0  1  0  0  0  0  0  0
  159.7030  212.9410  151.4450 C   0  0  0  0  0  1  0  0  0  0  0  0
  1 30  1  0  0  0  0
  1  6  1  0  0  0  0
  3 13  1  0  0  0  0
  4 22  2  0  0  0  0
  7 20  1  6  0  0  0
  7 11  1  0  0  0  0
  7 21  1  0  0  0  0
 10  2  1  0  0  0  0
 11  9  2  0  0  0  0
 12  6  2  0  0  0  0
 13 18  1  0  0  0  0
 14  1  2  0  0  0  0
 15 16  1  0  0  0  0
 15  2  1  0  0  0  0
 16 12  1  0  0  0  0
 17 27  1  6  0  0  0
 17  3  1  0  0  0  0
 18 24  1  0  0  0  0
 19  9  1  6  0  0  0
 19 26  1  0  0  0  0
 20  5  1  0  0  0  0
 21  4  1  1  0  0  0
 21 19  1  0  0  0  0
 22 26  1  0  0  0  0
 22 10  1  0  0  0  0
 23  8  1  6  0  0  0
 23 17  1  0  0  0  0
 23  5  1  0  0  0  0
 24 14  1  0  0  0  0
 24 16  2  0  0  0  0
 25 15  2  0  0  0  0
 28 29  1  0  0  0  0
 29 27  1  0  0  0  0
 30 31  1  0  0  0  0
 32 34  1  6  0  0  0
 32 31  1  0  0  0  0
 33 32  1  0  0  0  0
M  END
>  <MODEL>
7

>  <REMARK>
 VINA RESULT:      -2.8      4.268      9.377
  Name = 
  5 active torsions:
  status: ('A' for Active; 'I' for Inactive)
    1  A    between atoms: C_1  and  N_33
    2  A    between atoms: C_9  and  C_31
    3  A    between atoms: N_10  and  C_22
    4  A    between atoms: N_10  and  C_30
    5  A    between atoms: C_31  and  N_33
                            x       y       z     vdW  Elec       q    Type
                         _______ _______ _______ _____ _____    ______ ____

>  <TORSDO>
F 5

$$$$
=
 OpenBabel11042422283D

 34 37  0  0  1  0  0  0  0  0999 V2000
  161.7640  203.9910  147.4440 C   0  0  0  0  0  0  0  0  0  0  0  0
  160.7630  205.6560  152.2710 C   0  0  0  0  0  2  0  0  0  0  0  0
  161.2060  210.0470  147.9140 C   0  0  0  0  0  2  0  0  0  0  0  0
  162.0930  208.6430  152.7350 N   0  0  0  0  0  0  0  0  0  0  0  0
  161.5810  211.0310  150.7100 C   0  0  0  0  0  2  0  0  0  0  0  0
  161.7480  203.4070  148.7150 C   0  0  0  0  0  3  0  0  0  0  0  0
  160.6990  210.6720  152.9980 C   0  0  1  0  0  3  0  0  0  0  0  0
  162.3210  213.0930  149.7690 O   0  0  0  0  0  1  0  0  0  0  0  0
  159.8140  209.6630  154.8150 C   0  0  0  0  0  3  0  0  0  0  0  0
  162.0680  206.2030  152.8320 C   0  0  0  0  0  2  0  0  0  0  0  0
  159.6340  210.6840  153.7870 C   0  0  0  0  0  3  0  0  0  0  0  0
  161.3360  204.1490  149.8230 C   0  0  0  0  0  3  0  0  0  0  0  0
  162.0880  208.5410  148.4120 S   0  0  0  0  0  0  0  0  0  0  0  0
  161.3770  205.3230  147.2970 C   0  0  0  0  0  3  0  0  0  0  0  0
  160.4900  206.2140  150.9090 C   0  0  0  0  0  0  0  0  0  0  0  0
  160.9310  205.4870  149.6890 C   0  0  0  0  0  0  0  0  0  0  0  0
  162.0550  211.2650  148.2500 C   0  0  2  0  0  3  0  0  0  0  0  0
  160.6150  207.5100  148.1590 C   0  0  0  0  0  2  0  0  0  0  0  0
  161.0330  209.1620  154.6810 C   0  0  2  0  0  3  0  0  0  0  0  0
  160.8970  211.6690  151.9050 C   0  0  0  0  0  2  0  0  0  0  0  0
  161.7630  209.7940  153.5640 C   0  0  1  0  0  3  0  0  0  0  0  0
  161.8600  207.5610  153.4120 C   0  0  0  0  0  0  0  0  0  0  0  0
  161.5400  211.9650  149.5080 C   0  0  1  0  0  3  0  0  0  0  0  0
  160.9550  206.0760  148.3990 C   0  0  0  0  0  0  0  0  0  0  0  0
  159.8790  207.3130  150.8240 O   0  0  0  0  0  0  0  0  0  0  0  0
  161.2310  207.7590  154.6770 N   0  0  0  0  0  2  0  0  0  0  0  0
  162.0240  212.1900  147.1270 N   0  0  0  0  0  2  0  0  0  0  0  0
  160.3740  213.8510  146.5070 C   0  0  0  0  0  1  0  0  0  0  0  0
  160.6290  212.3830  146.7710 C   0  0  0  0  0  2  0  0  0  0  0  0
  162.1920  203.2570  146.2930 N   0  0  0  0  0  2  0  0  0  0  0  0
  161.2840  202.7770  145.2610 C   0  0  0  0  0  2  0  0  0  0  0  0
  160.4180  201.6510  145.7990 C   0  0  2  0  0  3  0  0  0  0  0  0
  161.2060  200.7150  146.4690 O   0  0  0  0  0  1  0  0  0  0  0  0
  159.7060  200.9720  144.6480 C   0  0  0  0  0  1  0  0  0  0  0  0
  1  6  1  0  0  0  0
  2 10  1  0  0  0  0
  3 17  1  0  0  0  0
  3 13  1  0  0  0  0
  4 22  2  0  0  0  0
  5 20  1  0  0  0  0
  6 12  2  0  0  0  0
  7 20  1  1  0  0  0
  7 21  1  0  0  0  0
  7 11  1  0  0  0  0
 10 22  1  0  0  0  0
 11  9  2  0  0  0  0
 14  1  2  0  0  0  0
 14 24  1  0  0  0  0
 15  2  1  0  0  0  0
 16 12  1  0  0  0  0
 16 15  1  0  0  0  0
 17 27  1  6  0  0  0
 17 23  1  0  0  0  0
 18 24  1  0  0  0  0
 18 13  1  0  0  0  0
 19  9  1  6  0  0  0
 21  4  1  6  0  0  0
 21 19  1  0  0  0  0
 22 26  1  0  0  0  0
 23  8  1  1  0  0  0
 23  5  1  0  0  0  0
 24 16  2  0  0  0  0
 25 15  2  0  0  0  0
 26 19  1  0  0  0  0
 28 29  1  0  0  0  0
 29 27  1  0  0  0  0
 30  1  1  0  0  0  0
 31 32  1  0  0  0  0
 31 30  1  0  0  0  0
 32 34  1  6  0  0  0
 32 33  1  0  0  0  0
M  END
>  <MODEL>
8

>  <REMARK>
 VINA RESULT:      -2.3      3.263      7.535
  Name = 
  5 active torsions:
  status: ('A' for Active; 'I' for Inactive)
    1  A    between atoms: C_1  and  N_33
    2  A    between atoms: C_9  and  C_31
    3  A    between atoms: N_10  and  C_22
    4  A    between atoms: N_10  and  C_30
    5  A    between atoms: C_31  and  N_33
                            x       y       z     vdW  Elec       q    Type
                         _______ _______ _______ _____ _____    ______ ____

>  <TORSDO>
F 5

$$$$
=
 OpenBabel11042422283D

 34 37  0  0  1  0  0  0  0  0999 V2000
  161.2660  205.4950  151.8670 C   0  0  0  0  0  0  0  0  0  0  0  0
  162.4010  209.1240  148.3160 C   0  0  0  0  0  2  0  0  0  0  0  0
  160.1070  211.1990  153.6900 C   0  0  0  0  0  2  0  0  0  0  0  0
  160.3410  211.6870  148.6200 N   0  0  0  0  0  0  0  0  0  0  0  0
  159.8530  213.1150  151.4120 C   0  0  0  0  0  2  0  0  0  0  0  0
  161.6270  205.4870  150.5160 C   0  0  0  0  0  3  0  0  0  0  0  0
  161.1100  213.8990  149.4240 C   0  0  1  0  0  3  0  0  0  0  0  0
  158.4250  214.4180  152.8060 O   0  0  0  0  0  1  0  0  0  0  0  0
  162.4920  213.9160  147.6380 C   0  0  0  0  0  3  0  0  0  0  0  0
  161.0850  209.5570  147.6860 C   0  0  0  0  0  2  0  0  0  0  0  0
  162.2250  214.4530  148.9680 C   0  0  0  0  0  3  0  0  0  0  0  0
  161.9560  206.6790  149.8700 C   0  0  0  0  0  3  0  0  0  0  0  0
  159.7770  209.8680  152.5020 S   0  0  0  0  0  0  0  0  0  0  0  0
  161.2270  206.7060  152.5590 C   0  0  0  0  0  3  0  0  0  0  0  0
  162.3090  209.1350  149.8100 C   0  0  0  0  0  0  0  0  0  0  0  0
  161.9340  207.9040  150.5560 C   0  0  0  0  0  0  0  0  0  0  0  0
  158.9970  212.2380  153.6080 C   0  0  2  0  0  3  0  0  0  0  0  0
  161.4350  209.1630  152.7240 C   0  0  0  0  0  2  0  0  0  0  0  0
  161.4640  213.1550  147.2930 C   0  0  2  0  0  3  0  0  0  0  0  0
  160.4830  214.3070  150.7150 C   0  0  0  0  0  2  0  0  0  0  0  0
  160.4350  213.1150  148.3500 C   0  0  1  0  0  3  0  0  0  0  0  0
  160.9690  211.0440  147.6850 C   0  0  0  0  0  0  0  0  0  0  0  0
  159.4560  213.4740  152.8360 C   0  0  1  0  0  3  0  0  0  0  0  0
  161.5610  207.9090  151.9250 C   0  0  0  0  0  0  0  0  0  0  0  0
  162.5580  210.2110  150.4160 O   0  0  0  0  0  0  0  0  0  0  0  0
  161.6820  211.8610  146.7590 N   0  0  0  0  0  2  0  0  0  0  0  0
  158.6020  212.6190  154.9560 N   0  0  0  0  0  2  0  0  0  0  0  0
  159.6890  214.1910  156.4440 C   0  0  0  0  0  1  0  0  0  0  0  0
  159.8220  212.8800  155.7000 C   0  0  0  0  0  2  0  0  0  0  0  0
  160.9140  204.2890  152.5520 N   0  0  0  0  0  2  0  0  0  0  0  0
  160.1010  203.2350  151.9590 C   0  0  0  0  0  2  0  0  0  0  0  0
  160.9850  202.1120  151.4440 C   0  0  2  0  0  3  0  0  0  0  0  0
  162.3270  202.4040  151.6870 O   0  0  0  0  0  1  0  0  0  0  0  0
  160.7710  201.9500  149.9530 C   0  0  0  0  0  1  0  0  0  0  0  0
  1 30  1  0  0  0  0
  1 14  1  0  0  0  0
  2 15  1  0  0  0  0
  5 23  1  0  0  0  0
  6  1  2  0  0  0  0
  7 11  1  6  0  0  0
  7 20  1  0  0  0  0
  9 11  2  0  0  0  0
 10  2  1  0  0  0  0
 12  6  1  0  0  0  0
 12 16  2  0  0  0  0
 13 18  1  0  0  0  0
 13  3  1  0  0  0  0
 15 25  2  0  0  0  0
 15 16  1  0  0  0  0
 16 24  1  0  0  0  0
 17  3  1  0  0  0  0
 17 27  1  1  0  0  0
 19  9  1  1  0  0  0
 19 21  1  0  0  0  0
 20  5  1  0  0  0  0
 21  4  1  1  0  0  0
 21  7  1  0  0  0  0
 22 10  1  0  0  0  0
 22  4  2  0  0  0  0
 23  8  1  6  0  0  0
 23 17  1  0  0  0  0
 24 14  2  0  0  0  0
 24 18  1  0  0  0  0
 26 19  1  0  0  0  0
 26 22  1  0  0  0  0
 27 29  1  0  0  0  0
 29 28  1  0  0  0  0
 31 30  1  0  0  0  0
 32 34  1  6  0  0  0
 32 33  1  0  0  0  0
 32 31  1  0  0  0  0
M  END
>  <MODEL>
9

>  <REMARK>
 VINA RESULT:      -1.7      2.737      8.155
  Name = 
  5 active torsions:
  status: ('A' for Active; 'I' for Inactive)
    1  A    between atoms: C_1  and  N_33
    2  A    between atoms: C_9  and  C_31
    3  A    between atoms: N_10  and  C_22
    4  A    between atoms: N_10  and  C_30
    5  A    between atoms: C_31  and  N_33
                            x       y       z     vdW  Elec       q    Type
                         _______ _______ _______ _____ _____    ______ ____

>  <TORSDO>
F 5

$$$$
