=
 OpenBabel11052409323D

 38 42  0  0  1  0  0  0  0  0999 V2000
  161.3210  209.5530  154.6400 C   0  0  0  0  0  0  0  0  0  0  0  0
  161.0200  206.6450  153.7140 C   0  0  0  0  0  3  0  0  0  0  0  0
  161.5310  208.6500  152.2740 C   0  0  0  0  0  0  0  0  0  0  0  0
  160.6530  207.1620  154.8830 C   0  0  0  0  0  3  0  0  0  0  0  0
  160.4250  208.5470  155.1240 N   0  0  0  0  0  0  0  0  0  0  0  0
  161.2290  207.3350  152.4310 C   0  0  0  0  0  0  0  0  0  0  0  0
  161.7740  209.5880  153.3900 C   0  0  0  0  0  3  0  0  0  0  0  0
  161.6910  210.6900  155.5300 C   0  0  0  0  0  1  0  0  0  0  0  0
  159.6090  208.8610  156.1590 O   0  0  0  0  0  1  0  0  0  0  0  0
  161.5430  210.6040  150.7020 C   0  0  0  0  0  3  0  0  0  0  0  0
  161.7290  211.1330  149.4240 C   0  0  0  0  0  0  0  0  0  0  0  0
  162.0930  210.2920  148.3710 C   0  0  0  0  0  3  0  0  0  0  0  0
  162.2720  208.9310  148.6190 C   0  0  0  0  0  3  0  0  0  0  0  0
  161.7420  209.2330  150.9210 C   0  0  0  0  0  0  0  0  0  0  0  0
  162.0910  208.4350  149.8720 N   0  0  0  0  0  0  0  0  0  0  0  0
  161.5090  212.5850  149.1790 C   0  0  0  0  0  2  0  0  0  0  0  0
  161.6500  212.8900  147.7000 C   0  0  0  0  0  2  0  0  0  0  0  0
  160.9370  214.1910  147.3830 C   0  0  0  0  0  2  0  0  0  0  0  0
  160.5860  212.7250  144.3680 C   0  0  0  0  0  0  0  0  0  0  0  0
  159.3440  212.6330  146.2320 C   0  0  1  0  0  3  0  0  0  0  0  0
  157.8370  212.7990  146.2010 C   0  0  0  0  0  1  0  0  0  0  0  0
  159.7890  211.9570  145.0230 N   0  0  0  0  0  0  0  0  0  0  0  0
  160.0180  214.0110  146.1870 C   0  0  2  0  0  3  0  0  0  0  0  0
  160.8090  213.9860  144.9690 N   0  0  0  0  0  2  0  0  0  0  0  0
  162.4970  212.7390  142.7950 O   0  0  0  0  0  1  0  0  0  0  0  0
  161.2070  212.3240  143.1020 C   0  0  0  0  0  0  0  0  0  0  0  0
  160.5740  211.6030  142.2880 O   0  0  0  0  0  0  0  0  0  0  0  0
  161.1890  205.7030  150.3430 C   0  0  0  0  0  0  0  0  0  0  0  0
  161.2030  206.4450  151.2940 C   0  0  0  0  0  0  0  0  0  0  0  0
  161.1800  204.8220  149.2050 C   0  0  0  0  0  0  0  0  0  0  0  0
  161.4030  203.0970  146.8690 C   0  0  0  0  0  3  0  0  0  0  0  0
  160.9280  201.2700  148.6170 C   0  0  0  0  0  3  0  0  0  0  0  0
  161.3140  205.3900  147.8500 C   0  0  0  0  0  3  0  0  0  0  0  0
  160.8730  202.7500  150.6040 C   0  0  0  0  0  3  0  0  0  0  0  0
  161.3930  204.6040  146.7680 C   0  0  0  0  0  3  0  0  0  0  0  0
  161.0150  202.6550  148.2070 N   0  0  0  0  0  0  0  0  0  0  0  0
  160.7080  201.3000  150.1370 C   0  0  0  0  0  3  0  0  0  0  0  0
  161.0300  203.5010  149.3380 C   0  0  0  0  0  0  0  0  0  0  0  0
  1  5  1  0  0  0  0
  1  8  1  0  0  0  0
  2  4  2  0  0  0  0
  3  6  2  0  0  0  0
  3  7  1  0  0  0  0
  4  5  1  0  0  0  0
  5  9  1  0  0  0  0
  6  2  1  0  0  0  0
  7  1  2  0  0  0  0
 10 14  1  0  0  0  0
 11 10  2  0  0  0  0
 12 13  2  0  0  0  0
 12 11  1  0  0  0  0
 13 15  1  0  0  0  0
 14  3  1  0  0  0  0
 15 14  2  0  0  0  0
 16 11  1  0  0  0  0
 17 16  1  0  0  0  0
 18 17  1  0  0  0  0
 19 24  1  0  0  0  0
 19 22  2  0  0  0  0
 20 21  1  6  0  0  0
 22 20  1  0  0  0  0
 23 20  1  0  0  0  0
 23 18  1  1  0  0  0
 24 23  1  0  0  0  0
 25 26  1  0  0  0  0
 26 19  1  0  0  0  0
 27 26  2  0  0  0  0
 28 29  3  0  0  0  0
 29  6  1  0  0  0  0
 30 38  1  0  0  0  0
 30 28  1  0  0  0  0
 31 36  1  0  0  0  0
 32 37  2  0  0  0  0
 33 30  2  0  0  0  0
 35 31  2  0  0  0  0
 35 33  1  0  0  0  0
 36 32  1  0  0  0  0
 36 38  1  0  0  0  0
 37 34  1  0  0  0  0
 38 34  2  0  0  0  0
M  END
>  <MODEL>
1

>  <REMARK>
 VINA RESULT:      -9.7      0.000      0.000
  Name = 
  8 active torsions:
  status: ('A' for Active; 'I' for Inactive)
    1  A    between atoms: C_2  and  C_22
    2  A    between atoms: C_3  and  C_5
    3  A    between atoms: C_8  and  C_14
    4  A    between atoms: C_8  and  C_16
    5  A    between atoms: C_9  and  C_26
    6  A    between atoms: C_16  and  C_19
    7  A    between atoms: C_19  and  C_28
    8  A    between atoms: C_24  and  C_31
                            x       y       z     vdW  Elec       q    Type
                         _______ _______ _______ _____ _____    ______ ____

>  <TORSDO>
F 8

$$$$
=
 OpenBabel11052409323D

 38 42  0  0  1  0  0  0  0  0999 V2000
  158.9920  212.0810  155.3600 C   0  0  0  0  0  0  0  0  0  0  0  0
  158.7730  213.8480  152.8630 C   0  0  0  0  0  3  0  0  0  0  0  0
  159.8480  211.5740  153.0220 C   0  0  0  0  0  0  0  0  0  0  0  0
  158.5750  214.2100  154.1270 C   0  0  0  0  0  3  0  0  0  0  0  0
  159.0730  213.5070  155.2610 N   0  0  0  0  0  0  0  0  0  0  0  0
  159.5560  212.7140  152.3440 C   0  0  0  0  0  0  0  0  0  0  0  0
  159.3530  211.2600  154.3790 C   0  0  0  0  0  3  0  0  0  0  0  0
  158.5920  211.4610  156.6540 C   0  0  0  0  0  1  0  0  0  0  0  0
  159.2240  214.2200  156.4030 O   0  0  0  0  0  1  0  0  0  0  0  0
  160.4850  209.1570  152.8180 C   0  0  0  0  0  3  0  0  0  0  0  0
  161.2400  208.1450  152.2200 C   0  0  0  0  0  0  0  0  0  0  0  0
  162.1470  208.4630  151.2080 C   0  0  0  0  0  3  0  0  0  0  0  0
  162.2780  209.7920  150.8050 C   0  0  0  0  0  3  0  0  0  0  0  0
  160.6320  210.4820  152.3830 C   0  0  0  0  0  0  0  0  0  0  0  0
  161.5300  210.7630  151.3960 N   0  0  0  0  0  0  0  0  0  0  0  0
  161.1000  206.7380  152.6840 C   0  0  0  0  0  2  0  0  0  0  0  0
  161.9270  205.8170  151.8070 C   0  0  0  0  0  2  0  0  0  0  0  0
  161.2860  204.4430  151.7730 C   0  0  0  0  0  2  0  0  0  0  0  0
  161.1440  205.1780  148.4860 C   0  0  0  0  0  0  0  0  0  0  0  0
  161.1610  203.2240  149.5850 C   0  0  1  0  0  3  0  0  0  0  0  0
  160.1790  202.1140  149.2640 C   0  0  0  0  0  1  0  0  0  0  0  0
  161.5000  203.9470  148.3690 N   0  0  0  0  0  0  0  0  0  0  0  0
  160.4900  204.2640  150.4920 C   0  0  2  0  0  3  0  0  0  0  0  0
  160.5300  205.4940  149.7210 N   0  0  0  0  0  2  0  0  0  0  0  0
  160.4930  206.2160  146.3360 O   0  0  0  0  0  0  0  0  0  0  0  0
  161.3550  206.1650  147.4250 C   0  0  0  0  0  0  0  0  0  0  0  0
  162.3180  206.9730  147.4950 O   0  0  0  0  0  1  0  0  0  0  0  0
  160.2100  212.9830  149.7910 C   0  0  0  0  0  0  0  0  0  0  0  0
  159.9120  212.8570  150.9530 C   0  0  0  0  0  0  0  0  0  0  0  0
  160.5590  213.1440  148.4030 C   0  0  0  0  0  0  0  0  0  0  0  0
  161.3930  213.2550  145.6150 C   0  0  0  0  0  3  0  0  0  0  0  0
  158.8670  212.9730  145.2200 C   0  0  0  0  0  3  0  0  0  0  0  0
  161.9540  213.4510  148.0390 C   0  0  0  0  0  3  0  0  0  0  0  0
  158.2050  212.7510  147.5980 C   0  0  0  0  0  3  0  0  0  0  0  0
  162.3410  213.5290  146.7580 C   0  0  0  0  0  3  0  0  0  0  0  0
  160.0070  213.2140  146.0770 N   0  0  0  0  0  0  0  0  0  0  0  0
  157.6670  212.7990  146.1630 C   0  0  0  0  0  3  0  0  0  0  0  0
  159.6460  213.0440  147.4320 C   0  0  0  0  0  0  0  0  0  0  0  0
  1  8  1  0  0  0  0
  2  4  2  0  0  0  0
  3  7  1  0  0  0  0
  4  5  1  0  0  0  0
  5  1  1  0  0  0  0
  5  9  1  0  0  0  0
  6  2  1  0  0  0  0
  6  3  2  0  0  0  0
  7  1  2  0  0  0  0
 11 16  1  0  0  0  0
 11 10  2  0  0  0  0
 12 11  1  0  0  0  0
 13 12  2  0  0  0  0
 13 15  1  0  0  0  0
 14 10  1  0  0  0  0
 14  3  1  0  0  0  0
 15 14  2  0  0  0  0
 17 16  1  0  0  0  0
 18 17  1  0  0  0  0
 19 24  1  0  0  0  0
 20 21  1  6  0  0  0
 20 23  1  0  0  0  0
 22 19  2  0  0  0  0
 22 20  1  0  0  0  0
 23 18  1  1  0  0  0
 24 23  1  0  0  0  0
 25 26  2  0  0  0  0
 26 27  1  0  0  0  0
 26 19  1  0  0  0  0
 28 29  3  0  0  0  0
 29  6  1  0  0  0  0
 30 28  1  0  0  0  0
 31 36  1  0  0  0  0
 31 35  2  0  0  0  0
 32 36  1  0  0  0  0
 32 37  2  0  0  0  0
 33 30  2  0  0  0  0
 35 33  1  0  0  0  0
 36 38  1  0  0  0  0
 37 34  1  0  0  0  0
 38 34  2  0  0  0  0
 38 30  1  0  0  0  0
M  END
>  <MODEL>
2

>  <REMARK>
 VINA RESULT:      -9.0      2.835      7.857
  Name = 
  8 active torsions:
  status: ('A' for Active; 'I' for Inactive)
    1  A    between atoms: C_2  and  C_22
    2  A    between atoms: C_3  and  C_5
    3  A    between atoms: C_8  and  C_14
    4  A    between atoms: C_8  and  C_16
    5  A    between atoms: C_9  and  C_26
    6  A    between atoms: C_16  and  C_19
    7  A    between atoms: C_19  and  C_28
    8  A    between atoms: C_24  and  C_31
                            x       y       z     vdW  Elec       q    Type
                         _______ _______ _______ _____ _____    ______ ____

>  <TORSDO>
F 8

$$$$
=
 OpenBabel11052409323D

 38 42  0  0  1  0  0  0  0  0999 V2000
  161.2520  208.5950  154.5400 C   0  0  0  0  0  0  0  0  0  0  0  0
  161.0780  205.6930  153.5650 C   0  0  0  0  0  3  0  0  0  0  0  0
  161.4340  207.7490  152.1510 C   0  0  0  0  0  0  0  0  0  0  0  0
  160.7220  206.1670  154.7550 C   0  0  0  0  0  3  0  0  0  0  0  0
  160.4280  207.5330  155.0310 N   0  0  0  0  0  0  0  0  0  0  0  0
  161.2080  206.4160  152.2900 C   0  0  0  0  0  0  0  0  0  0  0  0
  161.6620  208.6780  153.2780 C   0  0  0  0  0  3  0  0  0  0  0  0
  161.5890  209.7330  155.4410 C   0  0  0  0  0  1  0  0  0  0  0  0
  159.6300  207.7820  156.0970 O   0  0  0  0  0  1  0  0  0  0  0  0
  161.8560  209.7340  150.6790 C   0  0  0  0  0  3  0  0  0  0  0  0
  161.9630  210.3040  149.4080 C   0  0  0  0  0  0  0  0  0  0  0  0
  161.7680  209.5130  148.2750 C   0  0  0  0  0  3  0  0  0  0  0  0
  161.4740  208.1580  148.4330 C   0  0  0  0  0  3  0  0  0  0  0  0
  161.5700  208.3670  150.8040 C   0  0  0  0  0  0  0  0  0  0  0  0
  161.3780  207.6210  149.6790 N   0  0  0  0  0  0  0  0  0  0  0  0
  162.2550  211.7570  149.2650 C   0  0  0  0  0  2  0  0  0  0  0  0
  162.7710  212.0480  147.8690 C   0  0  0  0  0  2  0  0  0  0  0  0
  161.9540  213.1680  147.2530 C   0  0  0  0  0  2  0  0  0  0  0  0
  158.7470  213.5150  146.2740 C   0  0  0  0  0  0  0  0  0  0  0  0
  160.6670  213.4530  145.1190 C   0  0  1  0  0  3  0  0  0  0  0  0
  160.8320  212.5900  143.8840 C   0  0  0  0  0  1  0  0  0  0  0  0
  159.3000  213.9440  145.1950 N   0  0  0  0  0  0  0  0  0  0  0  0
  160.8510  212.5960  146.3780 C   0  0  2  0  0  3  0  0  0  0  0  0
  159.5800  212.6980  147.0740 N   0  0  0  0  0  2  0  0  0  0  0  0
  156.9710  213.8200  147.9710 O   0  0  0  0  0  1  0  0  0  0  0  0
  157.3660  213.8440  146.6390 C   0  0  0  0  0  0  0  0  0  0  0  0
  156.5320  214.1480  145.7470 O   0  0  0  0  0  0  0  0  0  0  0  0
  161.1800  204.8160  150.1780 C   0  0  0  0  0  0  0  0  0  0  0  0
  161.1940  205.5470  151.1370 C   0  0  0  0  0  0  0  0  0  0  0  0
  161.1680  203.9340  149.0410 C   0  0  0  0  0  0  0  0  0  0  0  0
  160.8950  202.1620  146.7460 C   0  0  0  0  0  3  0  0  0  0  0  0
  162.0440  204.1250  145.5450 C   0  0  0  0  0  3  0  0  0  0  0  0
  160.6780  202.5520  149.2010 C   0  0  0  0  0  3  0  0  0  0  0  0
  162.1450  205.6600  147.4880 C   0  0  0  0  0  3  0  0  0  0  0  0
  160.5730  201.7220  148.1540 C   0  0  0  0  0  3  0  0  0  0  0  0
  161.6000  203.4430  146.7400 N   0  0  0  0  0  0  0  0  0  0  0  0
  162.5210  205.5090  146.0100 C   0  0  0  0  0  3  0  0  0  0  0  0
  161.6110  204.3260  147.8420 C   0  0  0  0  0  0  0  0  0  0  0  0
  1  5  1  0  0  0  0
  1  8  1  0  0  0  0
  2  4  2  0  0  0  0
  3  6  2  0  0  0  0
  3  7  1  0  0  0  0
  4  5  1  0  0  0  0
  5  9  1  0  0  0  0
  6  2  1  0  0  0  0
  7  1  2  0  0  0  0
 10 14  1  0  0  0  0
 11 10  2  0  0  0  0
 12 13  2  0  0  0  0
 12 11  1  0  0  0  0
 13 15  1  0  0  0  0
 14  3  1  0  0  0  0
 15 14  2  0  0  0  0
 16 11  1  0  0  0  0
 17 16  1  0  0  0  0
 18 17  1  0  0  0  0
 19 26  1  0  0  0  0
 19 24  1  0  0  0  0
 20 21  1  6  0  0  0
 20 22  1  0  0  0  0
 20 23  1  0  0  0  0
 22 19  2  0  0  0  0
 23 24  1  0  0  0  0
 23 18  1  1  0  0  0
 26 25  1  0  0  0  0
 27 26  2  0  0  0  0
 28 29  3  0  0  0  0
 29  6  1  0  0  0  0
 30 33  2  0  0  0  0
 30 28  1  0  0  0  0
 31 35  2  0  0  0  0
 32 37  2  0  0  0  0
 32 36  1  0  0  0  0
 34 38  2  0  0  0  0
 35 33  1  0  0  0  0
 36 31  1  0  0  0  0
 36 38  1  0  0  0  0
 37 34  1  0  0  0  0
 38 30  1  0  0  0  0
M  END
>  <MODEL>
3

>  <REMARK>
 VINA RESULT:      -8.4      1.842      2.764
  Name = 
  8 active torsions:
  status: ('A' for Active; 'I' for Inactive)
    1  A    between atoms: C_2  and  C_22
    2  A    between atoms: C_3  and  C_5
    3  A    between atoms: C_8  and  C_14
    4  A    between atoms: C_8  and  C_16
    5  A    between atoms: C_9  and  C_26
    6  A    between atoms: C_16  and  C_19
    7  A    between atoms: C_19  and  C_28
    8  A    between atoms: C_24  and  C_31
                            x       y       z     vdW  Elec       q    Type
                         _______ _______ _______ _____ _____    ______ ____

>  <TORSDO>
F 8

$$$$
=
 OpenBabel11052409323D

 38 42  0  0  1  0  0  0  0  0999 V2000
  160.9180  210.6780  155.7320 C   0  0  0  0  0  0  0  0  0  0  0  0
  161.2300  207.9590  154.3490 C   0  0  0  0  0  3  0  0  0  0  0  0
  161.0230  210.2110  153.2360 C   0  0  0  0  0  0  0  0  0  0  0  0
  160.9080  208.1860  155.6180 C   0  0  0  0  0  3  0  0  0  0  0  0
  160.3770  209.4100  156.1160 N   0  0  0  0  0  0  0  0  0  0  0  0
  161.0840  208.8550  153.1890 C   0  0  0  0  0  0  0  0  0  0  0  0
  161.1730  211.0110  154.4690 C   0  0  0  0  0  3  0  0  0  0  0  0
  161.1090  211.7330  156.7660 C   0  0  0  0  0  1  0  0  0  0  0  0
  159.6560  209.3420  157.2610 O   0  0  0  0  0  1  0  0  0  0  0  0
  161.6740  210.7070  150.8650 C   0  0  0  0  0  3  0  0  0  0  0  0
  161.5560  211.4820  149.7090 C   0  0  0  0  0  0  0  0  0  0  0  0
  160.6780  212.5670  149.6890 C   0  0  0  0  0  3  0  0  0  0  0  0
  159.9260  212.8550  150.8280 C   0  0  0  0  0  3  0  0  0  0  0  0
  160.8960  211.0160  151.9900 C   0  0  0  0  0  0  0  0  0  0  0  0
  160.0520  212.0860  151.9430 N   0  0  0  0  0  0  0  0  0  0  0  0
  162.3860  211.1690  148.5140 C   0  0  0  0  0  2  0  0  0  0  0  0
  163.3260  212.3220  148.2180 C   0  0  0  0  0  2  0  0  0  0  0  0
  162.5740  213.4060  147.4700 C   0  0  0  0  0  2  0  0  0  0  0  0
  160.1290  213.4250  145.1490 C   0  0  0  0  0  0  0  0  0  0  0  0
  162.2850  214.0340  145.0590 C   0  0  1  0  0  3  0  0  0  0  0  0
  163.1970  213.5920  143.9320 C   0  0  0  0  0  1  0  0  0  0  0  0
  160.9360  214.2290  144.5510 N   0  0  0  0  0  0  0  0  0  0  0  0
  162.1600  212.9090  146.0950 C   0  0  2  0  0  3  0  0  0  0  0  0
  160.7440  212.5830  146.1050 N   0  0  0  0  0  2  0  0  0  0  0  0
  157.8690  212.4930  145.5330 O   0  0  0  0  0  1  0  0  0  0  0  0
  158.6940  213.3840  144.8570 C   0  0  0  0  0  0  0  0  0  0  0  0
  158.2020  214.1550  143.9920 O   0  0  0  0  0  0  0  0  0  0  0  0
  161.1630  207.5760  150.8700 C   0  0  0  0  0  0  0  0  0  0  0  0
  161.1270  208.1620  151.9240 C   0  0  0  0  0  0  0  0  0  0  0  0
  161.2100  206.8690  149.6170 C   0  0  0  0  0  0  0  0  0  0  0  0
  161.5460  205.5010  147.0680 C   0  0  0  0  0  3  0  0  0  0  0  0
  161.0540  203.4340  148.5190 C   0  0  0  0  0  3  0  0  0  0  0  0
  161.3760  207.6270  148.3640 C   0  0  0  0  0  3  0  0  0  0  0  0
  160.9020  204.6120  150.6940 C   0  0  0  0  0  3  0  0  0  0  0  0
  161.5070  207.0060  147.1830 C   0  0  0  0  0  3  0  0  0  0  0  0
  161.1240  204.8640  148.3150 N   0  0  0  0  0  0  0  0  0  0  0  0
  160.7840  203.2420  150.0180 C   0  0  0  0  0  3  0  0  0  0  0  0
  161.0840  205.5390  149.5540 C   0  0  0  0  0  0  0  0  0  0  0  0
  1  5  1  0  0  0  0
  1  8  1  0  0  0  0
  2  4  2  0  0  0  0
  3  7  1  0  0  0  0
  4  5  1  0  0  0  0
  5  9  1  0  0  0  0
  6  3  2  0  0  0  0
  6  2  1  0  0  0  0
  7  1  2  0  0  0  0
 10 14  1  0  0  0  0
 11 10  2  0  0  0  0
 12 11  1  0  0  0  0
 12 13  2  0  0  0  0
 13 15  1  0  0  0  0
 14  3  1  0  0  0  0
 15 14  2  0  0  0  0
 16 11  1  0  0  0  0
 17 16  1  0  0  0  0
 18 17  1  0  0  0  0
 19 24  1  0  0  0  0
 20 21  1  6  0  0  0
 20 23  1  0  0  0  0
 22 20  1  0  0  0  0
 22 19  2  0  0  0  0
 23 24  1  0  0  0  0
 23 18  1  1  0  0  0
 26 19  1  0  0  0  0
 26 25  1  0  0  0  0
 27 26  2  0  0  0  0
 28 29  3  0  0  0  0
 29  6  1  0  0  0  0
 30 28  1  0  0  0  0
 31 35  2  0  0  0  0
 31 36  1  0  0  0  0
 32 37  2  0  0  0  0
 33 30  2  0  0  0  0
 35 33  1  0  0  0  0
 36 32  1  0  0  0  0
 36 38  1  0  0  0  0
 37 34  1  0  0  0  0
 38 30  1  0  0  0  0
 38 34  2  0  0  0  0
M  END
>  <MODEL>
4

>  <REMARK>
 VINA RESULT:      -8.2      1.795      2.626
  Name = 
  8 active torsions:
  status: ('A' for Active; 'I' for Inactive)
    1  A    between atoms: C_2  and  C_22
    2  A    between atoms: C_3  and  C_5
    3  A    between atoms: C_8  and  C_14
    4  A    between atoms: C_8  and  C_16
    5  A    between atoms: C_9  and  C_26
    6  A    between atoms: C_16  and  C_19
    7  A    between atoms: C_19  and  C_28
    8  A    between atoms: C_24  and  C_31
                            x       y       z     vdW  Elec       q    Type
                         _______ _______ _______ _____ _____    ______ ____

>  <TORSDO>
F 8

$$$$
=
 OpenBabel11052409323D

 38 42  0  0  1  0  0  0  0  0999 V2000
  160.2730  211.2000  155.9900 C   0  0  0  0  0  0  0  0  0  0  0  0
  159.0660  213.2320  154.0360 C   0  0  0  0  0  3  0  0  0  0  0  0
  160.3400  211.1370  153.4510 C   0  0  0  0  0  0  0  0  0  0  0  0
  159.2690  213.3900  155.3400 C   0  0  0  0  0  3  0  0  0  0  0  0
  160.1810  212.6230  156.1190 N   0  0  0  0  0  0  0  0  0  0  0  0
  159.7320  212.3030  153.1080 C   0  0  0  0  0  0  0  0  0  0  0  0
  160.3600  210.5770  154.8180 C   0  0  0  0  0  3  0  0  0  0  0  0
  160.3890  210.3620  157.2170 C   0  0  0  0  0  1  0  0  0  0  0  0
  160.6390  213.1920  157.2600 O   0  0  0  0  0  1  0  0  0  0  0  0
  160.9180  208.8700  152.5480 C   0  0  0  0  0  3  0  0  0  0  0  0
  161.5230  208.0660  151.5800 C   0  0  0  0  0  0  0  0  0  0  0  0
  162.1820  208.6560  150.5010 C   0  0  0  0  0  3  0  0  0  0  0  0
  162.2190  210.0480  150.4050 C   0  0  0  0  0  3  0  0  0  0  0  0
  160.9630  210.2660  152.4180 C   0  0  0  0  0  0  0  0  0  0  0  0
  161.6200  210.8140  151.3560 N   0  0  0  0  0  0  0  0  0  0  0  0
  161.4900  206.5840  151.7160 C   0  0  0  0  0  2  0  0  0  0  0  0
  160.8590  205.9620  150.4850 C   0  0  0  0  0  2  0  0  0  0  0  0
  161.0400  204.4570  150.5300 C   0  0  0  0  0  2  0  0  0  0  0  0
  161.5490  203.9360  147.2390 C   0  0  0  0  0  0  0  0  0  0  0  0
  161.2280  202.5210  148.9480 C   0  0  1  0  0  3  0  0  0  0  0  0
  160.2440  201.3700  148.8630 C   0  0  0  0  0  1  0  0  0  0  0  0
  161.8320  202.7480  147.6440 N   0  0  0  0  0  0  0  0  0  0  0  0
  160.4790  203.8200  149.2700 C   0  0  2  0  0  3  0  0  0  0  0  0
  160.7450  204.6830  148.1320 N   0  0  0  0  0  2  0  0  0  0  0  0
  161.3100  204.2010  144.7900 O   0  0  0  0  0  0  0  0  0  0  0  0
  162.0180  204.4660  145.9560 C   0  0  0  0  0  0  0  0  0  0  0  0
  163.0640  205.1640  145.9050 O   0  0  0  0  0  1  0  0  0  0  0  0
  159.4590  212.9950  150.5650 C   0  0  0  0  0  0  0  0  0  0  0  0
  159.5870  212.6790  151.7220 C   0  0  0  0  0  0  0  0  0  0  0  0
  159.2950  213.3680  149.1850 C   0  0  0  0  0  0  0  0  0  0  0  0
  158.9060  214.3520  146.4710 C   0  0  0  0  0  3  0  0  0  0  0  0
  161.4270  213.8680  146.3160 C   0  0  0  0  0  3  0  0  0  0  0  0
  157.9460  213.6670  148.6710 C   0  0  0  0  0  3  0  0  0  0  0  0
  161.7520  213.1590  148.6680 C   0  0  0  0  0  3  0  0  0  0  0  0
  157.7550  214.0970  147.4160 C   0  0  0  0  0  3  0  0  0  0  0  0
  160.1510  213.7890  146.9910 N   0  0  0  0  0  0  0  0  0  0  0  0
  162.4630  213.3490  147.3240 C   0  0  0  0  0  3  0  0  0  0  0  0
  160.3330  213.4300  148.3440 C   0  0  0  0  0  0  0  0  0  0  0  0
  1  5  1  0  0  0  0
  1  8  1  0  0  0  0
  2  4  2  0  0  0  0
  3  7  1  0  0  0  0
  4  5  1  0  0  0  0
  5  9  1  0  0  0  0
  6  3  2  0  0  0  0
  6  2  1  0  0  0  0
  7  1  2  0  0  0  0
 11 16  1  0  0  0  0
 11 10  2  0  0  0  0
 12 11  1  0  0  0  0
 13 12  2  0  0  0  0
 13 15  1  0  0  0  0
 14 10  1  0  0  0  0
 14  3  1  0  0  0  0
 15 14  2  0  0  0  0
 17 18  1  0  0  0  0
 17 16  1  0  0  0  0
 19 22  2  0  0  0  0
 19 24  1  0  0  0  0
 20 21  1  6  0  0  0
 20 23  1  0  0  0  0
 22 20  1  0  0  0  0
 23 18  1  1  0  0  0
 24 23  1  0  0  0  0
 25 26  2  0  0  0  0
 26 19  1  0  0  0  0
 27 26  1  0  0  0  0
 28 29  3  0  0  0  0
 29  6  1  0  0  0  0
 30 28  1  0  0  0  0
 31 36  1  0  0  0  0
 31 35  2  0  0  0  0
 32 36  1  0  0  0  0
 32 37  2  0  0  0  0
 33 30  2  0  0  0  0
 35 33  1  0  0  0  0
 36 38  1  0  0  0  0
 37 34  1  0  0  0  0
 38 34  2  0  0  0  0
 38 30  1  0  0  0  0
M  END
>  <MODEL>
5

>  <REMARK>
 VINA RESULT:      -8.2      2.720      8.008
  Name = 
  8 active torsions:
  status: ('A' for Active; 'I' for Inactive)
    1  A    between atoms: C_2  and  C_22
    2  A    between atoms: C_3  and  C_5
    3  A    between atoms: C_8  and  C_14
    4  A    between atoms: C_8  and  C_16
    5  A    between atoms: C_9  and  C_26
    6  A    between atoms: C_16  and  C_19
    7  A    between atoms: C_19  and  C_28
    8  A    between atoms: C_24  and  C_31
                            x       y       z     vdW  Elec       q    Type
                         _______ _______ _______ _____ _____    ______ ____

>  <TORSDO>
F 8

$$$$
=
 OpenBabel11052409323D

 38 42  0  0  1  0  0  0  0  0999 V2000
  161.8810  212.9510  147.0100 C   0  0  0  0  0  0  0  0  0  0  0  0
  160.3280  213.9510  149.4590 C   0  0  0  0  0  3  0  0  0  0  0  0
  161.5060  211.7360  149.2100 C   0  0  0  0  0  0  0  0  0  0  0  0
  160.3040  214.4530  148.2280 C   0  0  0  0  0  3  0  0  0  0  0  0
  160.6910  213.7460  147.0540 N   0  0  0  0  0  0  0  0  0  0  0  0
  160.7000  212.5930  149.8900 C   0  0  0  0  0  0  0  0  0  0  0  0
  162.2050  212.0690  147.9510 C   0  0  0  0  0  3  0  0  0  0  0  0
  162.7590  213.0170  145.8090 C   0  0  0  0  0  1  0  0  0  0  0  0
  160.1650  214.1740  145.8810 O   0  0  0  0  0  1  0  0  0  0  0  0
  161.9790  209.2930  148.8990 C   0  0  0  0  0  3  0  0  0  0  0  0
  162.2660  208.0330  149.4290 C   0  0  0  0  0  0  0  0  0  0  0  0
  162.3840  207.8730  150.8100 C   0  0  0  0  0  3  0  0  0  0  0  0
  162.2180  208.9820  151.6400 C   0  0  0  0  0  3  0  0  0  0  0  0
  161.8300  210.3910  149.7590 C   0  0  0  0  0  0  0  0  0  0  0  0
  161.9440  210.2020  151.1050 N   0  0  0  0  0  0  0  0  0  0  0  0
  162.4150  206.8610  148.5250 C   0  0  0  0  0  2  0  0  0  0  0  0
  161.0500  206.3670  148.0840 C   0  0  0  0  0  2  0  0  0  0  0  0
  160.9110  204.8960  148.4240 C   0  0  0  0  0  2  0  0  0  0  0  0
  161.1930  202.2200  146.3930 C   0  0  0  0  0  0  0  0  0  0  0  0
  161.6860  204.3860  146.0940 C   0  0  1  0  0  3  0  0  0  0  0  0
  163.0080  204.8340  145.5010 C   0  0  0  0  0  1  0  0  0  0  0  0
  161.2770  203.1290  145.4870 N   0  0  0  0  0  0  0  0  0  0  0  0
  161.8680  204.0670  147.5830 C   0  0  2  0  0  3  0  0  0  0  0  0
  161.5190  202.6620  147.6970 N   0  0  0  0  0  2  0  0  0  0  0  0
  159.8500  200.5820  145.1140 O   0  0  0  0  0  0  0  0  0  0  0  0
  160.7990  200.8410  146.0950 C   0  0  0  0  0  0  0  0  0  0  0  0
  161.3190  199.8840  146.7260 O   0  0  0  0  0  1  0  0  0  0  0  0
  159.8070  211.9890  152.3100 C   0  0  0  0  0  0  0  0  0  0  0  0
  160.2150  212.2600  151.2080 C   0  0  0  0  0  0  0  0  0  0  0  0
  159.3190  211.6760  153.6280 C   0  0  0  0  0  0  0  0  0  0  0  0
  158.2060  210.8540  156.1900 C   0  0  0  0  0  3  0  0  0  0  0  0
  160.6800  210.3740  156.7060 C   0  0  0  0  0  3  0  0  0  0  0  0
  157.8930  211.8840  153.9390 C   0  0  0  0  0  3  0  0  0  0  0  0
  161.5810  210.9590  154.4730 C   0  0  0  0  0  3  0  0  0  0  0  0
  157.3770  211.5310  155.1250 C   0  0  0  0  0  3  0  0  0  0  0  0
  159.6320  210.9290  155.8780 N   0  0  0  0  0  0  0  0  0  0  0  0
  161.9700  210.4960  155.8810 C   0  0  0  0  0  3  0  0  0  0  0  0
  160.1290  211.2220  154.5890 C   0  0  0  0  0  0  0  0  0  0  0  0
  1  5  1  0  0  0  0
  1  7  2  0  0  0  0
  2  6  1  0  0  0  0
  3 14  1  0  0  0  0
  3  6  2  0  0  0  0
  4  2  2  0  0  0  0
  5  4  1  0  0  0  0
  6 29  1  0  0  0  0
  7  3  1  0  0  0  0
  8  1  1  0  0  0  0
  9  5  1  0  0  0  0
 10 11  2  0  0  0  0
 10 14  1  0  0  0  0
 11 12  1  0  0  0  0
 12 13  2  0  0  0  0
 14 15  2  0  0  0  0
 15 13  1  0  0  0  0
 16 11  1  0  0  0  0
 17 18  1  0  0  0  0
 17 16  1  0  0  0  0
 19 24  1  0  0  0  0
 20 21  1  6  0  0  0
 20 23  1  0  0  0  0
 22 20  1  0  0  0  0
 22 19  2  0  0  0  0
 23 24  1  0  0  0  0
 23 18  1  1  0  0  0
 25 26  2  0  0  0  0
 26 19  1  0  0  0  0
 26 27  1  0  0  0  0
 28 30  1  0  0  0  0
 29 28  3  0  0  0  0
 30 33  2  0  0  0  0
 30 38  1  0  0  0  0
 33 35  1  0  0  0  0
 34 38  2  0  0  0  0
 34 37  1  0  0  0  0
 35 31  2  0  0  0  0
 36 31  1  0  0  0  0
 36 32  1  0  0  0  0
 37 32  2  0  0  0  0
 38 36  1  0  0  0  0
M  END
>  <MODEL>
6

>  <REMARK>
 VINA RESULT:      -7.9      3.421      8.919
  Name = 
  8 active torsions:
  status: ('A' for Active; 'I' for Inactive)
    1  A    between atoms: C_2  and  C_22
    2  A    between atoms: C_3  and  C_5
    3  A    between atoms: C_8  and  C_14
    4  A    between atoms: C_8  and  C_16
    5  A    between atoms: C_9  and  C_26
    6  A    between atoms: C_16  and  C_19
    7  A    between atoms: C_19  and  C_28
    8  A    between atoms: C_24  and  C_31
                            x       y       z     vdW  Elec       q    Type
                         _______ _______ _______ _____ _____    ______ ____

>  <TORSDO>
F 8

$$$$
=
 OpenBabel11052409323D

 38 42  0  0  1  0  0  0  0  0999 V2000
  161.8730  213.0030  146.9820 C   0  0  0  0  0  0  0  0  0  0  0  0
  160.2430  213.9530  149.4000 C   0  0  0  0  0  3  0  0  0  0  0  0
  161.4960  211.7770  149.1760 C   0  0  0  0  0  0  0  0  0  0  0  0
  160.2260  214.4530  148.1680 C   0  0  0  0  0  3  0  0  0  0  0  0
  160.6580  213.7590  147.0020 N   0  0  0  0  0  0  0  0  0  0  0  0
  160.6500  212.6080  149.8390 C   0  0  0  0  0  0  0  0  0  0  0  0
  162.2070  212.1320  147.9310 C   0  0  0  0  0  3  0  0  0  0  0  0
  162.7720  213.0970  145.7980 C   0  0  0  0  0  1  0  0  0  0  0  0
  160.1400  214.1690  145.8200 O   0  0  0  0  0  1  0  0  0  0  0  0
  162.0200  209.3430  148.8790 C   0  0  0  0  0  3  0  0  0  0  0  0
  162.3370  208.0940  149.4160 C   0  0  0  0  0  0  0  0  0  0  0  0
  162.4680  207.9460  150.7980 C   0  0  0  0  0  3  0  0  0  0  0  0
  162.2830  209.0580  151.6210 C   0  0  0  0  0  3  0  0  0  0  0  0
  161.8520  210.4430  149.7320 C   0  0  0  0  0  0  0  0  0  0  0  0
  161.9790  210.2670  151.0790 N   0  0  0  0  0  0  0  0  0  0  0  0
  162.5060  206.9180  148.5200 C   0  0  0  0  0  2  0  0  0  0  0  0
  161.1930  206.5950  147.8340 C   0  0  0  0  0  2  0  0  0  0  0  0
  160.7960  205.1660  148.1510 C   0  0  0  0  0  2  0  0  0  0  0  0
  161.0630  202.5170  146.0820 C   0  0  0  0  0  0  0  0  0  0  0  0
  161.9750  204.5640  146.0200 C   0  0  1  0  0  3  0  0  0  0  0  0
  163.4530  204.7760  145.7560 C   0  0  0  0  0  1  0  0  0  0  0  0
  161.5030  203.4120  145.2690 N   0  0  0  0  0  0  0  0  0  0  0  0
  161.7600  204.1930  147.4930 C   0  0  2  0  0  3  0  0  0  0  0  0
  161.1580  202.8710  147.4490 N   0  0  0  0  0  2  0  0  0  0  0  0
  161.1390  200.0460  145.9760 O   0  0  0  0  0  1  0  0  0  0  0  0
  160.5140  201.2370  145.6270 C   0  0  0  0  0  0  0  0  0  0  0  0
  159.4750  201.2110  144.9180 O   0  0  0  0  0  0  0  0  0  0  0  0
  159.7380  211.9770  152.2460 C   0  0  0  0  0  0  0  0  0  0  0  0
  160.1510  212.2610  151.1490 C   0  0  0  0  0  0  0  0  0  0  0  0
  159.2540  211.6430  153.5600 C   0  0  0  0  0  0  0  0  0  0  0  0
  158.4940  211.0450  156.3070 C   0  0  0  0  0  3  0  0  0  0  0  0
  156.7800  212.9100  155.8610 C   0  0  0  0  0  3  0  0  0  0  0  0
  159.8500  210.5040  154.2820 C   0  0  0  0  0  3  0  0  0  0  0  0
  157.5350  213.4840  153.5720 C   0  0  0  0  0  3  0  0  0  0  0  0
  159.4880  210.2070  155.5380 C   0  0  0  0  0  3  0  0  0  0  0  0
  157.7930  211.9750  155.4240 N   0  0  0  0  0  0  0  0  0  0  0  0
  156.4990  213.8140  154.6510 C   0  0  0  0  0  3  0  0  0  0  0  0
  158.2600  212.3250  154.1380 C   0  0  0  0  0  0  0  0  0  0  0  0
  1  5  1  0  0  0  0
  1  7  2  0  0  0  0
  2  6  1  0  0  0  0
  3 14  1  0  0  0  0
  3  6  2  0  0  0  0
  4  2  2  0  0  0  0
  5  4  1  0  0  0  0
  6 29  1  0  0  0  0
  7  3  1  0  0  0  0
  8  1  1  0  0  0  0
  9  5  1  0  0  0  0
 10 11  2  0  0  0  0
 10 14  1  0  0  0  0
 11 12  1  0  0  0  0
 12 13  2  0  0  0  0
 14 15  2  0  0  0  0
 15 13  1  0  0  0  0
 16 11  1  0  0  0  0
 17 18  1  0  0  0  0
 17 16  1  0  0  0  0
 19 24  1  0  0  0  0
 20 21  1  1  0  0  0
 20 23  1  0  0  0  0
 22 20  1  0  0  0  0
 22 19  2  0  0  0  0
 23 18  1  6  0  0  0
 24 23  1  0  0  0  0
 26 25  1  0  0  0  0
 26 19  1  0  0  0  0
 27 26  2  0  0  0  0
 28 30  1  0  0  0  0
 29 28  3  0  0  0  0
 30 38  1  0  0  0  0
 30 33  2  0  0  0  0
 33 35  1  0  0  0  0
 34 38  2  0  0  0  0
 34 37  1  0  0  0  0
 35 31  2  0  0  0  0
 36 32  1  0  0  0  0
 36 31  1  0  0  0  0
 37 32  2  0  0  0  0
 38 36  1  0  0  0  0
M  END
>  <MODEL>
7

>  <REMARK>
 VINA RESULT:      -7.8      3.660      9.101
  Name = 
  8 active torsions:
  status: ('A' for Active; 'I' for Inactive)
    1  A    between atoms: C_2  and  C_22
    2  A    between atoms: C_3  and  C_5
    3  A    between atoms: C_8  and  C_14
    4  A    between atoms: C_8  and  C_16
    5  A    between atoms: C_9  and  C_26
    6  A    between atoms: C_16  and  C_19
    7  A    between atoms: C_19  and  C_28
    8  A    between atoms: C_24  and  C_31
                            x       y       z     vdW  Elec       q    Type
                         _______ _______ _______ _____ _____    ______ ____

>  <TORSDO>
F 8

$$$$
=
 OpenBabel11052409323D

 38 42  0  0  1  0  0  0  0  0999 V2000
  160.8410  202.4480  146.0810 C   0  0  0  0  0  0  0  0  0  0  0  0
  161.4870  205.4400  145.8990 C   0  0  0  0  0  3  0  0  0  0  0  0
  161.2030  204.0750  147.9990 C   0  0  0  0  0  0  0  0  0  0  0  0
  161.0370  204.6520  144.9280 C   0  0  0  0  0  3  0  0  0  0  0  0
  160.3700  203.4100  145.1330 N   0  0  0  0  0  0  0  0  0  0  0  0
  161.3740  205.2600  147.3560 C   0  0  0  0  0  0  0  0  0  0  0  0
  161.1800  202.7580  147.3300 C   0  0  0  0  0  3  0  0  0  0  0  0
  160.8580  201.0050  145.7110 C   0  0  0  0  0  1  0  0  0  0  0  0
  159.5590  202.9820  144.1360 O   0  0  0  0  0  1  0  0  0  0  0  0
  161.0030  205.1910  150.2360 C   0  0  0  0  0  3  0  0  0  0  0  0
  160.9470  205.1190  151.6290 C   0  0  0  0  0  0  0  0  0  0  0  0
  161.0280  203.8780  152.2630 C   0  0  0  0  0  3  0  0  0  0  0  0
  161.1580  202.7260  151.4880 C   0  0  0  0  0  3  0  0  0  0  0  0
  161.1230  204.0140  149.4840 C   0  0  0  0  0  0  0  0  0  0  0  0
  161.2070  202.8160  150.1320 N   0  0  0  0  0  0  0  0  0  0  0  0
  160.8310  206.3650  152.4360 C   0  0  0  0  0  2  0  0  0  0  0  0
  161.3020  206.1100  153.8550 C   0  0  0  0  0  2  0  0  0  0  0  0
  160.4800  206.9470  154.8170 C   0  0  0  0  0  2  0  0  0  0  0  0
  159.9160  210.2510  155.1760 C   0  0  0  0  0  0  0  0  0  0  0  0
  160.9680  208.7610  156.4790 C   0  0  1  0  0  3  0  0  0  0  0  0
  162.3310  209.0430  157.0810 C   0  0  0  0  0  1  0  0  0  0  0  0
  160.2000  209.9940  156.4040 N   0  0  0  0  0  0  0  0  0  0  0  0
  161.1290  208.3050  155.0230 C   0  0  2  0  0  3  0  0  0  0  0  0
  160.4150  209.3050  154.2490 N   0  0  0  0  0  2  0  0  0  0  0  0
  157.7850  211.3170  154.5040 O   0  0  0  0  0  0  0  0  0  0  0  0
  159.1440  211.4300  154.7740 C   0  0  0  0  0  0  0  0  0  0  0  0
  159.7080  212.5500  154.6720 O   0  0  0  0  0  1  0  0  0  0  0  0
  161.7550  207.4940  148.7280 C   0  0  0  0  0  0  0  0  0  0  0  0
  161.5820  206.4790  148.1000 C   0  0  0  0  0  0  0  0  0  0  0  0
  161.9550  208.7020  149.4860 C   0  0  0  0  0  0  0  0  0  0  0  0
  162.6020  211.0870  151.0250 C   0  0  0  0  0  3  0  0  0  0  0  0
  161.8230  212.2550  148.8700 C   0  0  0  0  0  3  0  0  0  0  0  0
  162.3310  208.6090  150.9090 C   0  0  0  0  0  3  0  0  0  0  0  0
  161.4050  210.2050  147.5410 C   0  0  0  0  0  3  0  0  0  0  0  0
  162.6060  209.7040  151.6310 C   0  0  0  0  0  3  0  0  0  0  0  0
  161.9780  211.0830  149.7030 N   0  0  0  0  0  0  0  0  0  0  0  0
  161.3310  211.7360  147.5110 C   0  0  0  0  0  3  0  0  0  0  0  0
  161.7870  209.9110  148.9410 C   0  0  0  0  0  0  0  0  0  0  0  0
  1  7  2  0  0  0  0
  2  6  1  0  0  0  0
  3 14  1  0  0  0  0
  4  5  1  0  0  0  0
  4  2  2  0  0  0  0
  5  1  1  0  0  0  0
  6  3  2  0  0  0  0
  6 29  1  0  0  0  0
  7  3  1  0  0  0  0
  8  1  1  0  0  0  0
  9  5  1  0  0  0  0
 10 11  1  0  0  0  0
 11 12  2  0  0  0  0
 11 16  1  0  0  0  0
 13 12  1  0  0  0  0
 14 15  1  0  0  0  0
 14 10  2  0  0  0  0
 15 13  2  0  0  0  0
 16 17  1  0  0  0  0
 17 18  1  0  0  0  0
 19 22  2  0  0  0  0
 20 21  1  6  0  0  0
 22 20  1  0  0  0  0
 23 18  1  1  0  0  0
 23 20  1  0  0  0  0
 24 23  1  0  0  0  0
 24 19  1  0  0  0  0
 25 26  2  0  0  0  0
 26 19  1  0  0  0  0
 27 26  1  0  0  0  0
 28 30  1  0  0  0  0
 29 28  3  0  0  0  0
 30 33  2  0  0  0  0
 31 35  2  0  0  0  0
 32 36  1  0  0  0  0
 33 35  1  0  0  0  0
 34 38  2  0  0  0  0
 36 31  1  0  0  0  0
 37 34  1  0  0  0  0
 37 32  2  0  0  0  0
 38 30  1  0  0  0  0
 38 36  1  0  0  0  0
M  END
>  <MODEL>
8

>  <REMARK>
 VINA RESULT:      -7.8      3.116      9.231
  Name = 
  8 active torsions:
  status: ('A' for Active; 'I' for Inactive)
    1  A    between atoms: C_2  and  C_22
    2  A    between atoms: C_3  and  C_5
    3  A    between atoms: C_8  and  C_14
    4  A    between atoms: C_8  and  C_16
    5  A    between atoms: C_9  and  C_26
    6  A    between atoms: C_16  and  C_19
    7  A    between atoms: C_19  and  C_28
    8  A    between atoms: C_24  and  C_31
                            x       y       z     vdW  Elec       q    Type
                         _______ _______ _______ _____ _____    ______ ____

>  <TORSDO>
F 8

$$$$
=
 OpenBabel11052409323D

 38 42  0  0  1  0  0  0  0  0999 V2000
  161.2140  208.2520  154.5070 C   0  0  0  0  0  0  0  0  0  0  0  0
  161.0660  205.3770  153.4510 C   0  0  0  0  0  3  0  0  0  0  0  0
  161.4180  207.4740  152.0960 C   0  0  0  0  0  0  0  0  0  0  0  0
  160.6980  205.8160  154.6500 C   0  0  0  0  0  3  0  0  0  0  0  0
  160.3940  207.1720  154.9620 N   0  0  0  0  0  0  0  0  0  0  0  0
  161.2000  206.1360  152.1970 C   0  0  0  0  0  0  0  0  0  0  0  0
  161.6320  208.3730  153.2500 C   0  0  0  0  0  3  0  0  0  0  0  0
  161.5380  209.3670  155.4410 C   0  0  0  0  0  1  0  0  0  0  0  0
  159.5860  207.3860  156.0290 O   0  0  0  0  0  1  0  0  0  0  0  0
  161.8950  209.4890  150.6820 C   0  0  0  0  0  3  0  0  0  0  0  0
  162.0070  210.0950  149.4290 C   0  0  0  0  0  0  0  0  0  0  0  0
  161.7670  209.3500  148.2740 C   0  0  0  0  0  3  0  0  0  0  0  0
  161.4240  208.0020  148.3930 C   0  0  0  0  0  3  0  0  0  0  0  0
  161.5590  208.1300  150.7680 C   0  0  0  0  0  0  0  0  0  0  0  0
  161.3240  207.4290  149.6220 N   0  0  0  0  0  0  0  0  0  0  0  0
  162.3520  211.5400  149.3280 C   0  0  0  0  0  2  0  0  0  0  0  0
  161.5490  212.1900  148.2180 C   0  0  0  0  0  2  0  0  0  0  0  0
  160.8100  213.3940  148.7680 C   0  0  0  0  0  2  0  0  0  0  0  0
  158.6340  213.7070  151.3230 C   0  0  0  0  0  0  0  0  0  0  0  0
  158.4370  214.1210  149.1290 C   0  0  1  0  0  3  0  0  0  0  0  0
  157.2480  213.6330  148.3240 C   0  0  0  0  0  1  0  0  0  0  0  0
  158.0120  214.4530  150.4800 N   0  0  0  0  0  0  0  0  0  0  0  0
  159.4490  212.9800  149.3010 C   0  0  2  0  0  3  0  0  0  0  0  0
  159.5310  212.7830  150.7370 N   0  0  0  0  0  2  0  0  0  0  0  0
  157.2230  214.2950  153.2700 O   0  0  0  0  0  0  0  0  0  0  0  0
  158.4240  213.8050  152.7700 C   0  0  0  0  0  0  0  0  0  0  0  0
  159.3300  213.4460  153.5660 O   0  0  0  0  0  1  0  0  0  0  0  0
  161.2010  204.5950  150.0410 C   0  0  0  0  0  0  0  0  0  0  0  0
  161.1990  205.3000  151.0200 C   0  0  0  0  0  0  0  0  0  0  0  0
  161.2100  203.7480  148.8780 C   0  0  0  0  0  0  0  0  0  0  0  0
  160.9820  202.0270  146.5400 C   0  0  0  0  0  3  0  0  0  0  0  0
  161.9360  204.1030  145.3600 C   0  0  0  0  0  3  0  0  0  0  0  0
  160.8310  202.3290  149.0120 C   0  0  0  0  0  3  0  0  0  0  0  0
  161.9970  205.5860  147.3450 C   0  0  0  0  0  3  0  0  0  0  0  0
  160.7470  201.5240  147.9440 C   0  0  0  0  0  3  0  0  0  0  0  0
  161.5890  203.3560  146.5490 N   0  0  0  0  0  0  0  0  0  0  0  0
  162.3270  205.5050  145.8510 C   0  0  0  0  0  3  0  0  0  0  0  0
  161.5770  204.2060  147.6760 C   0  0  0  0  0  0  0  0  0  0  0  0
  1  5  1  0  0  0  0
  1  8  1  0  0  0  0
  2  4  2  0  0  0  0
  3  6  2  0  0  0  0
  3  7  1  0  0  0  0
  4  5  1  0  0  0  0
  5  9  1  0  0  0  0
  6  2  1  0  0  0  0
  7  1  2  0  0  0  0
 10 14  1  0  0  0  0
 11 10  2  0  0  0  0
 12 13  2  0  0  0  0
 12 11  1  0  0  0  0
 13 15  1  0  0  0  0
 14  3  1  0  0  0  0
 15 14  2  0  0  0  0
 16 11  1  0  0  0  0
 17 18  1  0  0  0  0
 17 16  1  0  0  0  0
 19 26  1  0  0  0  0
 20 21  1  6  0  0  0
 20 23  1  0  0  0  0
 20 22  1  0  0  0  0
 22 19  2  0  0  0  0
 23 18  1  1  0  0  0
 23 24  1  0  0  0  0
 24 19  1  0  0  0  0
 26 25  2  0  0  0  0
 26 27  1  0  0  0  0
 28 29  3  0  0  0  0
 29  6  1  0  0  0  0
 30 33  2  0  0  0  0
 30 28  1  0  0  0  0
 31 36  1  0  0  0  0
 31 35  2  0  0  0  0
 32 37  2  0  0  0  0
 32 36  1  0  0  0  0
 34 38  2  0  0  0  0
 35 33  1  0  0  0  0
 36 38  1  0  0  0  0
 37 34  1  0  0  0  0
 38 30  1  0  0  0  0
M  END
>  <MODEL>
9

>  <REMARK>
 VINA RESULT:      -7.7      3.365      4.212
  Name = 
  8 active torsions:
  status: ('A' for Active; 'I' for Inactive)
    1  A    between atoms: C_2  and  C_22
    2  A    between atoms: C_3  and  C_5
    3  A    between atoms: C_8  and  C_14
    4  A    between atoms: C_8  and  C_16
    5  A    between atoms: C_9  and  C_26
    6  A    between atoms: C_16  and  C_19
    7  A    between atoms: C_19  and  C_28
    8  A    between atoms: C_24  and  C_31
                            x       y       z     vdW  Elec       q    Type
                         _______ _______ _______ _____ _____    ______ ____

>  <TORSDO>
F 8

$$$$
