=
 OpenBabel11042420413D

 45 50  0  0  1  0  0  0  0  0999 V2000
  160.8100  206.4050  153.7630 C   0  0  0  0  0  2  0  0  0  0  0  0
  161.0230  206.8060  151.3050 C   0  0  0  0  0  2  0  0  0  0  0  0
  161.4920  205.9410  152.4730 C   0  0  2  0  0  3  0  0  0  0  0  0
  161.9300  210.4250  150.8570 C   0  0  0  0  0  0  0  0  0  0  0  0
  161.8930  210.9600  152.1810 N   0  0  0  0  0  2  0  0  0  0  0  0
  161.2900  208.2500  151.6010 C   0  0  0  0  0  0  0  0  0  0  0  0
  161.0340  207.8720  154.0070 C   0  0  0  0  0  3  0  0  0  0  0  0
  161.6050  209.0500  150.6300 N   0  0  0  0  0  0  0  0  0  0  0  0
  162.2710  211.1560  149.8930 O   0  0  0  0  0  0  0  0  0  0  0  0
  161.3330  210.2100  153.3060 C   0  0  2  0  0  3  0  0  0  0  0  0
  161.2130  208.7380  153.0030 C   0  0  0  0  0  0  0  0  0  0  0  0
  161.1650  204.4850  152.1850 C   0  0  0  0  0  2  0  0  0  0  0  0
  161.6010  203.8310  147.9150 C   0  0  0  0  0  2  0  0  0  0  0  0
  160.8400  203.6510  146.6050 C   0  0  0  0  0  2  0  0  0  0  0  0
  161.3200  202.7020  148.7950 N   0  0  0  0  0  0  0  0  0  0  0  0
  161.2270  204.2210  150.7540 N   0  0  0  0  0  2  0  0  0  0  0  0
  161.2010  202.8970  150.2090 C   0  0  0  0  0  0  0  0  0  0  0  0
  160.9070  199.9900  146.3010 N   0  0  0  0  0  1  0  0  0  0  0  0
  160.4390  202.2770  144.8660 O   0  0  0  0  0  1  0  0  0  0  0  0
  161.0560  201.9040  150.9740 O   0  0  0  0  0  0  0  0  0  0  0  0
  160.6760  201.2940  146.9040 C   0  0  1  0  0  3  0  0  0  0  0  0
  161.4110  201.3540  148.2410 C   0  0  0  0  0  2  0  0  0  0  0  0
  161.1600  202.3530  146.0100 N   0  0  0  0  0  0  0  0  0  0  0  0
  159.9940  210.8060  153.7660 C   0  0  1  0  0  3  0  0  0  0  0  0
  159.8700  210.7280  155.1570 O   0  0  0  0  0  0  0  0  0  0  0  0
  158.5520  210.3210  155.3760 C   0  0  0  0  0  2  0  0  0  0  0  0
  157.8270  211.3430  156.2340 C   0  0  2  0  0  3  0  0  0  0  0  0
  156.4600  212.0850  155.3060 S   0  0  0  0  0  0  0  0  0  0  0  0
  157.9750  213.5220  156.9330 N   0  0  0  0  0  2  0  0  0  0  0  0
  158.7520  212.3990  156.6120 N   0  0  0  0  0  2  0  0  0  0  0  0
  157.0430  213.7120  155.8350 C   0  0  0  0  0  2  0  0  0  0  0  0
  159.7450  212.2320  153.2680 C   0  0  0  0  0  2  0  0  0  0  0  0
  159.5530  214.4530  149.6120 N   0  0  0  0  0  2  0  0  0  0  0  0
  158.2460  214.1140  149.0730 C   0  0  2  0  0  3  0  0  0  0  0  0
  158.6690  212.2660  152.2880 N   0  0  0  0  0  2  0  0  0  0  0  0
  157.6590  213.1360  150.0960 C   0  0  0  0  0  2  0  0  0  0  0  0
  159.7680  213.7910  150.8190 N   0  0  0  0  0  0  0  0  0  0  0  0
  158.7480  213.0620  151.1070 C   0  0  0  0  0  0  0  0  0  0  0  0
  158.4150  213.4280  147.7260 C   0  0  0  0  0  2  0  0  0  0  0  0
  161.8350  214.2630  145.7160 N   0  0  0  0  0  2  0  0  0  0  0  0
  159.6700  213.8290  147.1100 N   0  0  0  0  0  0  0  0  0  0  0  0
  161.8540  212.9460  146.3550 C   0  0  0  0  0  2  0  0  0  0  0  0
  160.5360  212.6480  147.0880 C   0  0  0  0  0  2  0  0  0  0  0  0
  159.3600  214.2120  145.7320 C   0  0  0  0  0  2  0  0  0  0  0  0
  160.6340  214.3770  144.8870 C   0  0  0  0  0  2  0  0  0  0  0  0
  1  7  1  0  0  0  0
  2  6  1  0  0  0  0
  2  3  1  0  0  0  0
  3 12  1  6  0  0  0
  3  1  1  0  0  0  0
  4  5  1  0  0  0  0
  5 10  1  0  0  0  0
  6 11  1  0  0  0  0
  8  4  1  0  0  0  0
  8  6  2  0  0  0  0
  9  4  2  0  0  0  0
 10 24  1  6  0  0  0
 11 10  1  0  0  0  0
 11  7  2  0  0  0  0
 13 15  1  0  0  0  0
 14 13  1  0  0  0  0
 15 17  1  0  0  0  0
 16 12  1  0  0  0  0
 17 16  1  0  0  0  0
 17 20  2  0  0  0  0
 19 23  1  0  0  0  0
 21 18  1  6  0  0  0
 21 22  1  0  0  0  0
 22 15  1  0  0  0  0
 23 14  1  0  0  0  0
 23 21  1  0  0  0  0
 24 32  1  1  0  0  0
 24 25  1  0  0  0  0
 25 26  1  0  0  0  0
 27 26  1  6  0  0  0
 27 30  1  0  0  0  0
 28 31  1  0  0  0  0
 28 27  1  0  0  0  0
 30 29  1  0  0  0  0
 31 29  1  0  0  0  0
 33 37  1  0  0  0  0
 34 39  1  6  0  0  0
 34 33  1  0  0  0  0
 34 36  1  0  0  0  0
 35 32  1  0  0  0  0
 36 38  1  0  0  0  0
 37 38  2  0  0  0  0
 38 35  1  0  0  0  0
 40 42  1  0  0  0  0
 41 39  1  0  0  0  0
 42 43  1  0  0  0  0
 43 41  1  0  0  0  0
 44 41  1  0  0  0  0
 45 40  1  0  0  0  0
 45 44  1  0  0  0  0
M  END
>  <MODEL>
1

>  <REMARK>
 VINA RESULT:      -7.3      0.000      0.000
  Name = 
  10 active torsions:
  status: ('A' for Active; 'I' for Inactive)
    1  A    between atoms: C_5  and  C_40
    2  A    between atoms: C_7  and  C_21
    3  A    between atoms: N_10  and  C_21
    4  A    between atoms: C_13  and  N_17
    5  A    between atoms: C_13  and  C_26
    6  A    between atoms: C_22  and  C_44
    7  A    between atoms: O_25  and  C_40
    8  A    between atoms: O_25  and  C_44
    9  A    between atoms: N_27  and  C_32
   10  A    between atoms: C_32  and  C_44
                            x       y       z     vdW  Elec       q    Type
                         _______ _______ _______ _____ _____    ______ ____

>  <TORSDO>
F 10

$$$$
=
 OpenBabel11042420413D

 45 50  0  0  1  0  0  0  0  0999 V2000
  160.9100  206.6180  153.1370 C   0  0  0  0  0  2  0  0  0  0  0  0
  161.2440  206.9070  150.6770 C   0  0  0  0  0  2  0  0  0  0  0  0
  161.6990  206.1380  151.9160 C   0  0  2  0  0  3  0  0  0  0  0  0
  161.9310  210.5530  150.0820 C   0  0  0  0  0  0  0  0  0  0  0  0
  161.7770  211.1510  151.3710 N   0  0  0  0  0  2  0  0  0  0  0  0
  161.3950  208.3790  150.9080 C   0  0  0  0  0  0  0  0  0  0  0  0
  161.0190  208.1080  153.3120 C   0  0  0  0  0  3  0  0  0  0  0  0
  161.7140  209.1500  149.9140 N   0  0  0  0  0  0  0  0  0  0  0  0
  162.2800  211.2570  149.1000 O   0  0  0  0  0  0  0  0  0  0  0  0
  161.2020  210.4220  152.5010 C   0  0  2  0  0  3  0  0  0  0  0  0
  161.2000  208.9320  152.2730 C   0  0  0  0  0  0  0  0  0  0  0  0
  161.4890  204.6500  151.6900 C   0  0  0  0  0  2  0  0  0  0  0  0
  161.6680  203.8610  147.4240 C   0  0  0  0  0  2  0  0  0  0  0  0
  160.8350  203.7130  146.1560 C   0  0  0  0  0  2  0  0  0  0  0  0
  161.3380  202.7800  148.3470 N   0  0  0  0  0  0  0  0  0  0  0  0
  161.4610  204.3480  150.2660 N   0  0  0  0  0  2  0  0  0  0  0  0
  161.3020  203.0190  149.7590 C   0  0  0  0  0  0  0  0  0  0  0  0
  160.5880  200.0540  145.9500 N   0  0  0  0  0  1  0  0  0  0  0  0
  160.2420  202.3370  144.4740 O   0  0  0  0  0  1  0  0  0  0  0  0
  161.1120  202.0590  150.5570 O   0  0  0  0  0  0  0  0  0  0  0  0
  160.4930  201.3870  146.5260 C   0  0  1  0  0  3  0  0  0  0  0  0
  161.2920  201.4170  147.8270 C   0  0  0  0  0  2  0  0  0  0  0  0
  161.0200  202.3800  145.5830 N   0  0  0  0  0  0  0  0  0  0  0  0
  159.8010  210.9450  152.8500 C   0  0  1  0  0  3  0  0  0  0  0  0
  159.4820  210.6550  154.1810 O   0  0  0  0  0  0  0  0  0  0  0  0
  160.3290  211.4690  154.9370 C   0  0  0  0  0  2  0  0  0  0  0  0
  160.6690  210.7860  156.2500 C   0  0  2  0  0  3  0  0  0  0  0  0
  162.4430  210.4260  156.3280 S   0  0  0  0  0  0  0  0  0  0  0  0
  160.6390  208.7280  157.2600 N   0  0  0  0  0  2  0  0  0  0  0  0
  159.9410  209.5320  156.3460 N   0  0  0  0  0  2  0  0  0  0  0  0
  162.0330  208.7460  156.8520 C   0  0  0  0  0  2  0  0  0  0  0  0
  159.5980  212.4320  152.5460 C   0  0  0  0  0  2  0  0  0  0  0  0
  159.7200  214.1110  148.6090 N   0  0  0  0  0  2  0  0  0  0  0  0
  158.3310  214.0790  148.1790 C   0  0  2  0  0  3  0  0  0  0  0  0
  158.4960  212.6330  151.6160 N   0  0  0  0  0  2  0  0  0  0  0  0
  157.5870  213.4480  149.3600 C   0  0  0  0  0  2  0  0  0  0  0  0
  159.8440  213.5820  149.8920 N   0  0  0  0  0  0  0  0  0  0  0  0
  158.6920  213.2100  150.3260 C   0  0  0  0  0  0  0  0  0  0  0  0
  158.2020  213.2000  146.9450 C   0  0  0  0  0  2  0  0  0  0  0  0
  160.9880  213.8110  144.0660 N   0  0  0  0  0  2  0  0  0  0  0  0
  159.2110  213.5590  145.9620 N   0  0  0  0  0  0  0  0  0  0  0  0
  161.4570  212.9300  145.1380 C   0  0  0  0  0  2  0  0  0  0  0  0
  160.3710  212.6970  146.2000 C   0  0  0  0  0  2  0  0  0  0  0  0
  158.6510  213.2410  144.6470 C   0  0  0  0  0  2  0  0  0  0  0  0
  159.7210  213.3000  143.5440 C   0  0  0  0  0  2  0  0  0  0  0  0
  1  7  1  0  0  0  0
  2  6  1  0  0  0  0
  2  3  1  0  0  0  0
  3 12  1  6  0  0  0
  3  1  1  0  0  0  0
  4  5  1  0  0  0  0
  5 10  1  0  0  0  0
  6 11  1  0  0  0  0
  8  4  1  0  0  0  0
  8  6  2  0  0  0  0
  9  4  2  0  0  0  0
 10 24  1  6  0  0  0
 11 10  1  0  0  0  0
 11  7  2  0  0  0  0
 13 15  1  0  0  0  0
 14 13  1  0  0  0  0
 15 17  1  0  0  0  0
 16 12  1  0  0  0  0
 17 16  1  0  0  0  0
 17 20  2  0  0  0  0
 19 23  1  0  0  0  0
 21 18  1  6  0  0  0
 21 22  1  0  0  0  0
 22 15  1  0  0  0  0
 23 14  1  0  0  0  0
 23 21  1  0  0  0  0
 24 32  1  1  0  0  0
 24 25  1  0  0  0  0
 25 26  1  0  0  0  0
 27 26  1  6  0  0  0
 27 28  1  0  0  0  0
 27 30  1  0  0  0  0
 28 31  1  0  0  0  0
 30 29  1  0  0  0  0
 31 29  1  0  0  0  0
 33 37  1  0  0  0  0
 34 39  1  6  0  0  0
 34 33  1  0  0  0  0
 34 36  1  0  0  0  0
 35 32  1  0  0  0  0
 36 38  1  0  0  0  0
 37 38  2  0  0  0  0
 38 35  1  0  0  0  0
 40 42  1  0  0  0  0
 41 43  1  0  0  0  0
 41 39  1  0  0  0  0
 42 43  1  0  0  0  0
 44 41  1  0  0  0  0
 45 40  1  0  0  0  0
 45 44  1  0  0  0  0
M  END
>  <MODEL>
2

>  <REMARK>
 VINA RESULT:      -7.3      1.690      1.968
  Name = 
  10 active torsions:
  status: ('A' for Active; 'I' for Inactive)
    1  A    between atoms: C_5  and  C_40
    2  A    between atoms: C_7  and  C_21
    3  A    between atoms: N_10  and  C_21
    4  A    between atoms: C_13  and  N_17
    5  A    between atoms: C_13  and  C_26
    6  A    between atoms: C_22  and  C_44
    7  A    between atoms: O_25  and  C_40
    8  A    between atoms: O_25  and  C_44
    9  A    between atoms: N_27  and  C_32
   10  A    between atoms: C_32  and  C_44
                            x       y       z     vdW  Elec       q    Type
                         _______ _______ _______ _____ _____    ______ ____

>  <TORSDO>
F 10

$$$$
=
 OpenBabel11042420413D

 45 50  0  0  1  0  0  0  0  0999 V2000
  163.5980  212.9210  145.6760 C   0  0  0  0  0  2  0  0  0  0  0  0
  161.1730  213.1230  145.1040 C   0  0  0  0  0  2  0  0  0  0  0  0
  162.5630  213.7110  144.8700 C   0  0  2  0  0  3  0  0  0  0  0  0
  159.2950  213.3620  148.3500 C   0  0  0  0  0  0  0  0  0  0  0  0
  160.3030  213.1920  149.3490 N   0  0  0  0  0  2  0  0  0  0  0  0
  160.8650  213.1120  146.5700 C   0  0  0  0  0  0  0  0  0  0  0  0
  163.2340  212.8650  147.1340 C   0  0  0  0  0  3  0  0  0  0  0  0
  159.6430  213.3000  146.9640 N   0  0  0  0  0  0  0  0  0  0  0  0
  158.1060  213.5880  148.6890 O   0  0  0  0  0  0  0  0  0  0  0  0
  161.6570  212.7490  149.0170 C   0  0  2  0  0  3  0  0  0  0  0  0
  161.9630  212.9090  147.5500 C   0  0  0  0  0  0  0  0  0  0  0  0
  162.8870  213.6640  143.3860 C   0  0  0  0  0  2  0  0  0  0  0  0
  159.2750  213.8800  140.9850 C   0  0  0  0  0  2  0  0  0  0  0  0
  157.8930  213.2740  140.7700 C   0  0  0  0  0  2  0  0  0  0  0  0
  160.2930  212.8820  140.6740 N   0  0  0  0  0  0  0  0  0  0  0  0
  161.6630  213.6430  142.5970 N   0  0  0  0  0  2  0  0  0  0  0  0
  161.5020  212.8170  141.4390 C   0  0  0  0  0  0  0  0  0  0  0  0
  158.5930  211.0080  137.9640 N   0  0  0  0  0  1  0  0  0  0  0  0
  156.5370  212.2120  139.3190 O   0  0  0  0  0  1  0  0  0  0  0  0
  162.4190  212.0170  141.1040 O   0  0  0  0  0  0  0  0  0  0  0  0
  158.7340  211.6220  139.2760 C   0  0  1  0  0  3  0  0  0  0  0  0
  160.1660  212.1290  139.4290 C   0  0  0  0  0  2  0  0  0  0  0  0
  157.7840  212.7320  139.4160 N   0  0  0  0  0  0  0  0  0  0  0  0
  161.9100  211.3120  149.4960 C   0  0  1  0  0  3  0  0  0  0  0  0
  161.3240  211.0970  150.7480 O   0  0  0  0  0  0  0  0  0  0  0  0
  162.0350  210.0270  151.2970 C   0  0  0  0  0  2  0  0  0  0  0  0
  161.0800  209.0640  151.9800 C   0  0  2  0  0  3  0  0  0  0  0  0
  160.7700  209.5920  153.6840 S   0  0  0  0  0  0  0  0  0  0  0  0
  161.0410  207.0360  153.0500 N   0  0  0  0  0  2  0  0  0  0  0  0
  161.6720  207.7370  152.0110 N   0  0  0  0  0  2  0  0  0  0  0  0
  161.0890  207.8960  154.2200 C   0  0  0  0  0  2  0  0  0  0  0  0
  161.4800  210.2370  148.4940 C   0  0  0  0  0  2  0  0  0  0  0  0
  160.5770  206.1640  147.5310 N   0  0  0  0  0  2  0  0  0  0  0  0
  161.8210  205.4620  147.8060 C   0  0  2  0  0  3  0  0  0  0  0  0
  162.3590  209.0790  148.5560 N   0  0  0  0  0  2  0  0  0  0  0  0
  162.7780  206.5640  148.2730 C   0  0  0  0  0  2  0  0  0  0  0  0
  160.7180  207.5250  147.7950 N   0  0  0  0  0  0  0  0  0  0  0  0
  161.9130  207.7710  148.2010 C   0  0  0  0  0  0  0  0  0  0  0  0
  162.3370  204.8240  146.5260 C   0  0  0  0  0  2  0  0  0  0  0  0
  161.0180  200.9910  146.4930 N   0  0  0  0  0  2  0  0  0  0  0  0
  162.0060  203.4080  146.5000 N   0  0  0  0  0  0  0  0  0  0  0  0
  160.8710  201.6350  147.8000 C   0  0  0  0  0  2  0  0  0  0  0  0
  161.3560  203.0940  147.7740 C   0  0  0  0  0  2  0  0  0  0  0  0
  161.0380  203.2210  145.4180 C   0  0  0  0  0  2  0  0  0  0  0  0
  160.3880  201.8280  145.4720 C   0  0  0  0  0  2  0  0  0  0  0  0
  1  7  1  0  0  0  0
  2  6  1  0  0  0  0
  3 12  1  6  0  0  0
  3  2  1  0  0  0  0
  3  1  1  0  0  0  0
  4  9  2  0  0  0  0
  4  5  1  0  0  0  0
  6  8  2  0  0  0  0
  6 11  1  0  0  0  0
  7 11  2  0  0  0  0
  8  4  1  0  0  0  0
 10  5  1  0  0  0  0
 10 24  1  6  0  0  0
 11 10  1  0  0  0  0
 14 13  1  0  0  0  0
 15 13  1  0  0  0  0
 15 17  1  0  0  0  0
 16 12  1  0  0  0  0
 17 16  1  0  0  0  0
 19 23  1  0  0  0  0
 20 17  2  0  0  0  0
 21 18  1  6  0  0  0
 21 23  1  0  0  0  0
 21 22  1  0  0  0  0
 22 15  1  0  0  0  0
 23 14  1  0  0  0  0
 24 32  1  6  0  0  0
 24 25  1  0  0  0  0
 25 26  1  0  0  0  0
 27 26  1  1  0  0  0
 27 30  1  0  0  0  0
 27 28  1  0  0  0  0
 28 31  1  0  0  0  0
 29 31  1  0  0  0  0
 30 29  1  0  0  0  0
 32 35  1  0  0  0  0
 33 37  1  0  0  0  0
 33 34  1  0  0  0  0
 34 39  1  6  0  0  0
 34 36  1  0  0  0  0
 37 38  2  0  0  0  0
 38 36  1  0  0  0  0
 38 35  1  0  0  0  0
 40 42  1  0  0  0  0
 41 39  1  0  0  0  0
 41 43  1  0  0  0  0
 43 42  1  0  0  0  0
 44 45  1  0  0  0  0
 44 41  1  0  0  0  0
 45 40  1  0  0  0  0
M  END
>  <MODEL>
3

>  <REMARK>
 VINA RESULT:      -5.7      3.973      9.691
  Name = 
  10 active torsions:
  status: ('A' for Active; 'I' for Inactive)
    1  A    between atoms: C_5  and  C_40
    2  A    between atoms: C_7  and  C_21
    3  A    between atoms: N_10  and  C_21
    4  A    between atoms: C_13  and  N_17
    5  A    between atoms: C_13  and  C_26
    6  A    between atoms: C_22  and  C_44
    7  A    between atoms: O_25  and  C_40
    8  A    between atoms: O_25  and  C_44
    9  A    between atoms: N_27  and  C_32
   10  A    between atoms: C_32  and  C_44
                            x       y       z     vdW  Elec       q    Type
                         _______ _______ _______ _____ _____    ______ ____

>  <TORSDO>
F 10

$$$$
=
 OpenBabel11042420413D

 45 50  0  0  1  0  0  0  0  0999 V2000
  161.7560  213.7760  148.8000 C   0  0  0  0  0  2  0  0  0  0  0  0
  159.7510  212.9030  147.5900 C   0  0  0  0  0  2  0  0  0  0  0  0
  161.0070  213.7620  147.4650 C   0  0  2  0  0  3  0  0  0  0  0  0
  156.7400  213.8440  149.6310 C   0  0  0  0  0  0  0  0  0  0  0  0
  157.2890  214.4530  150.8010 N   0  0  0  0  0  2  0  0  0  0  0  0
  158.8990  213.4060  148.7140 C   0  0  0  0  0  0  0  0  0  0  0  0
  160.8650  214.2200  149.9270 C   0  0  0  0  0  3  0  0  0  0  0  0
  157.6080  213.3260  148.6190 N   0  0  0  0  0  0  0  0  0  0  0  0
  155.4930  213.7830  149.4800 O   0  0  0  0  0  0  0  0  0  0  0  0
  158.7170  214.3890  151.1120 C   0  0  2  0  0  3  0  0  0  0  0  0
  159.5430  214.0100  149.9100 C   0  0  0  0  0  0  0  0  0  0  0  0
  161.8900  213.2080  146.3590 C   0  0  0  0  0  2  0  0  0  0  0  0
  159.7500  213.6700  142.6090 C   0  0  0  0  0  2  0  0  0  0  0  0
  159.0380  212.9200  141.4880 C   0  0  0  0  0  2  0  0  0  0  0  0
  161.1670  213.3240  142.5950 N   0  0  0  0  0  0  0  0  0  0  0  0
  161.2040  213.2770  145.0760 N   0  0  0  0  0  2  0  0  0  0  0  0
  161.8930  213.1950  143.8240 C   0  0  0  0  0  0  0  0  0  0  0  0
  161.7030  212.8170  138.9620 N   0  0  0  0  0  1  0  0  0  0  0  0
  159.0020  212.4780  139.2800 O   0  0  0  0  0  1  0  0  0  0  0  0
  163.1390  212.9920  143.8030 O   0  0  0  0  0  0  0  0  0  0  0  0
  161.0530  212.6400  140.2520 C   0  0  1  0  0  3  0  0  0  0  0  0
  161.8760  213.3580  141.3200 C   0  0  0  0  0  2  0  0  0  0  0  0
  159.6910  213.1860  140.2070 N   0  0  0  0  0  0  0  0  0  0  0  0
  158.9900  213.4600  152.3040 C   0  0  1  0  0  3  0  0  0  0  0  0
  158.0270  213.6400  153.3030 O   0  0  0  0  0  0  0  0  0  0  0  0
  158.6650  214.4080  154.2800 C   0  0  0  0  0  2  0  0  0  0  0  0
  158.6400  213.6790  155.6120 C   0  0  2  0  0  3  0  0  0  0  0  0
  160.0080  212.4960  155.7050 S   0  0  0  0  0  0  0  0  0  0  0  0
  157.6120  211.9270  156.6770 N   0  0  0  0  0  2  0  0  0  0  0  0
  157.3900  212.9480  155.7390 N   0  0  0  0  0  2  0  0  0  0  0  0
  158.8300  211.2480  156.2720 C   0  0  0  0  0  2  0  0  0  0  0  0
  159.1200  211.9820  151.9240 C   0  0  0  0  0  2  0  0  0  0  0  0
  160.5950  207.9910  152.4030 N   0  0  0  0  0  2  0  0  0  0  0  0
  162.0380  208.1620  152.4550 C   0  0  2  0  0  3  0  0  0  0  0  0
  160.5020  211.5360  152.0150 N   0  0  0  0  0  2  0  0  0  0  0  0
  162.2430  209.6720  152.2930 C   0  0  0  0  0  2  0  0  0  0  0  0
  159.9640  209.2230  152.2400 N   0  0  0  0  0  0  0  0  0  0  0  0
  160.8430  210.1590  152.1750 C   0  0  0  0  0  0  0  0  0  0  0  0
  162.6790  207.4160  151.2950 C   0  0  0  0  0  2  0  0  0  0  0  0
  160.1600  206.1050  148.4030 N   0  0  0  0  0  2  0  0  0  0  0  0
  161.6660  207.0140  150.3320 N   0  0  0  0  0  0  0  0  0  0  0  0
  161.0830  207.1400  147.9320 C   0  0  0  0  0  2  0  0  0  0  0  0
  162.0410  207.5980  149.0430 C   0  0  0  0  0  2  0  0  0  0  0  0
  161.7390  205.5550  150.2280 C   0  0  0  0  0  2  0  0  0  0  0  0
  160.9250  205.0300  149.0340 C   0  0  0  0  0  2  0  0  0  0  0  0
  1  7  1  0  0  0  0
  2  6  1  0  0  0  0
  3 12  1  6  0  0  0
  3  2  1  0  0  0  0
  3  1  1  0  0  0  0
  4  5  1  0  0  0  0
  5 10  1  0  0  0  0
  6 11  1  0  0  0  0
  8  6  2  0  0  0  0
  8  4  1  0  0  0  0
  9  4  2  0  0  0  0
 10 24  1  1  0  0  0
 11  7  2  0  0  0  0
 11 10  1  0  0  0  0
 14 13  1  0  0  0  0
 15 13  1  0  0  0  0
 15 17  1  0  0  0  0
 16 12  1  0  0  0  0
 17 16  1  0  0  0  0
 19 23  1  0  0  0  0
 20 17  2  0  0  0  0
 21 18  1  6  0  0  0
 21 22  1  0  0  0  0
 22 15  1  0  0  0  0
 23 21  1  0  0  0  0
 23 14  1  0  0  0  0
 24 32  1  6  0  0  0
 24 25  1  0  0  0  0
 25 26  1  0  0  0  0
 27 26  1  6  0  0  0
 27 28  1  0  0  0  0
 27 30  1  0  0  0  0
 28 31  1  0  0  0  0
 30 29  1  0  0  0  0
 31 29  1  0  0  0  0
 32 35  1  0  0  0  0
 33 34  1  0  0  0  0
 34 39  1  6  0  0  0
 35 38  1  0  0  0  0
 36 34  1  0  0  0  0
 37 33  1  0  0  0  0
 38 37  2  0  0  0  0
 38 36  1  0  0  0  0
 40 45  1  0  0  0  0
 41 39  1  0  0  0  0
 42 40  1  0  0  0  0
 42 43  1  0  0  0  0
 43 41  1  0  0  0  0
 44 41  1  0  0  0  0
 45 44  1  0  0  0  0
M  END
>  <MODEL>
4

>  <REMARK>
 VINA RESULT:      -5.6      3.548      8.330
  Name = 
  10 active torsions:
  status: ('A' for Active; 'I' for Inactive)
    1  A    between atoms: C_5  and  C_40
    2  A    between atoms: C_7  and  C_21
    3  A    between atoms: N_10  and  C_21
    4  A    between atoms: C_13  and  N_17
    5  A    between atoms: C_13  and  C_26
    6  A    between atoms: C_22  and  C_44
    7  A    between atoms: O_25  and  C_40
    8  A    between atoms: O_25  and  C_44
    9  A    between atoms: N_27  and  C_32
   10  A    between atoms: C_32  and  C_44
                            x       y       z     vdW  Elec       q    Type
                         _______ _______ _______ _____ _____    ______ ____

>  <TORSDO>
F 10

$$$$
=
 OpenBabel11042420413D

 45 50  0  0  1  0  0  0  0  0999 V2000
  161.0730  213.0480  145.1690 C   0  0  0  0  0  2  0  0  0  0  0  0
  158.7940  213.0130  146.1950 C   0  0  0  0  0  2  0  0  0  0  0  0
  159.6970  213.7190  145.1850 C   0  0  2  0  0  3  0  0  0  0  0  0
  159.2650  213.1650  149.9190 C   0  0  0  0  0  0  0  0  0  0  0  0
  160.6820  213.1140  150.0940 N   0  0  0  0  0  2  0  0  0  0  0  0
  159.4430  213.0120  147.5450 C   0  0  0  0  0  0  0  0  0  0  0  0
  161.6780  212.9980  146.5450 C   0  0  0  0  0  3  0  0  0  0  0  0
  158.7020  213.0990  148.6060 N   0  0  0  0  0  0  0  0  0  0  0  0
  158.5120  213.2910  150.9190 O   0  0  0  0  0  0  0  0  0  0  0  0
  161.5880  212.7880  148.9930 C   0  0  2  0  0  3  0  0  0  0  0  0
  160.9230  212.9370  147.6480 C   0  0  0  0  0  0  0  0  0  0  0  0
  159.0540  213.6630  143.8090 C   0  0  0  0  0  2  0  0  0  0  0  0
  161.7010  211.4500  141.1720 C   0  0  0  0  0  2  0  0  0  0  0  0
  162.7460  211.5840  140.0690 C   0  0  0  0  0  2  0  0  0  0  0  0
  160.4130  211.9230  140.6750 N   0  0  0  0  0  0  0  0  0  0  0  0
  159.9340  212.9920  142.8610 N   0  0  0  0  0  2  0  0  0  0  0  0
  159.5170  212.6290  141.5410 C   0  0  0  0  0  0  0  0  0  0  0  0
  160.6670  210.9450  137.1080 N   0  0  0  0  0  1  0  0  0  0  0  0
  163.2750  211.0690  137.9420 O   0  0  0  0  0  1  0  0  0  0  0  0
  158.3660  212.9490  141.1340 O   0  0  0  0  0  0  0  0  0  0  0  0
  161.0930  211.5610  138.3560 C   0  0  1  0  0  3  0  0  0  0  0  0
  159.9580  211.4480  139.3720 C   0  0  0  0  0  2  0  0  0  0  0  0
  162.2970  210.8910  138.8620 N   0  0  0  0  0  0  0  0  0  0  0  0
  162.2060  211.3940  149.1700 C   0  0  1  0  0  3  0  0  0  0  0  0
  162.5460  211.1690  150.5080 O   0  0  0  0  0  0  0  0  0  0  0  0
  161.5790  210.2770  150.9770 C   0  0  0  0  0  2  0  0  0  0  0  0
  162.0090  209.7000  152.3140 C   0  0  2  0  0  3  0  0  0  0  0  0
  161.2030  208.1020  152.5960 S   0  0  0  0  0  0  0  0  0  0  0  0
  161.5530  209.8450  154.5580 N   0  0  0  0  0  2  0  0  0  0  0  0
  161.6150  210.6070  153.3800 N   0  0  0  0  0  2  0  0  0  0  0  0
  160.7550  208.6710  154.2520 C   0  0  0  0  0  2  0  0  0  0  0  0
  161.3400  210.2550  148.6220 C   0  0  0  0  0  2  0  0  0  0  0  0
  160.6180  206.0640  149.1190 N   0  0  0  0  0  2  0  0  0  0  0  0
  161.7760  205.4400  148.4990 C   0  0  2  0  0  3  0  0  0  0  0  0
  162.1610  209.1390  148.1760 N   0  0  0  0  0  2  0  0  0  0  0  0
  162.6120  206.6200  147.9930 C   0  0  0  0  0  2  0  0  0  0  0  0
  160.7070  207.4520  149.0290 N   0  0  0  0  0  0  0  0  0  0  0  0
  161.7870  207.7830  148.4160 C   0  0  0  0  0  0  0  0  0  0  0  0
  161.3240  204.5770  147.3320 C   0  0  0  0  0  2  0  0  0  0  0  0
  161.5800  200.6040  148.0980 N   0  0  0  0  0  2  0  0  0  0  0  0
  161.5620  203.1720  147.6230 N   0  0  0  0  0  0  0  0  0  0  0  0
  160.9150  201.3520  149.1680 C   0  0  0  0  0  2  0  0  0  0  0  0
  160.8110  202.8490  148.8370 C   0  0  0  0  0  2  0  0  0  0  0  0
  161.0010  202.4090  146.5060 C   0  0  0  0  0  2  0  0  0  0  0  0
  160.9270  200.9070  146.8250 C   0  0  0  0  0  2  0  0  0  0  0  0
  1  3  1  0  0  0  0
  1  7  1  0  0  0  0
  2  6  1  0  0  0  0
  3 12  1  6  0  0  0
  3  2  1  0  0  0  0
  4  5  1  0  0  0  0
  4  9  2  0  0  0  0
  6 11  1  0  0  0  0
  6  8  2  0  0  0  0
  7 11  2  0  0  0  0
  8  4  1  0  0  0  0
 10 24  1  1  0  0  0
 10  5  1  0  0  0  0
 11 10  1  0  0  0  0
 14 13  1  0  0  0  0
 15 13  1  0  0  0  0
 15 17  1  0  0  0  0
 16 12  1  0  0  0  0
 17 16  1  0  0  0  0
 19 23  1  0  0  0  0
 20 17  2  0  0  0  0
 21 18  1  6  0  0  0
 21 23  1  0  0  0  0
 21 22  1  0  0  0  0
 22 15  1  0  0  0  0
 23 14  1  0  0  0  0
 24 32  1  1  0  0  0
 24 25  1  0  0  0  0
 25 26  1  0  0  0  0
 27 26  1  6  0  0  0
 27 28  1  0  0  0  0
 27 30  1  0  0  0  0
 28 31  1  0  0  0  0
 30 29  1  0  0  0  0
 31 29  1  0  0  0  0
 34 39  1  6  0  0  0
 34 33  1  0  0  0  0
 35 38  1  0  0  0  0
 35 32  1  0  0  0  0
 36 38  1  0  0  0  0
 36 34  1  0  0  0  0
 37 33  1  0  0  0  0
 38 37  2  0  0  0  0
 39 41  1  0  0  0  0
 40 42  1  0  0  0  0
 41 43  1  0  0  0  0
 43 42  1  0  0  0  0
 44 45  1  0  0  0  0
 44 41  1  0  0  0  0
 45 40  1  0  0  0  0
M  END
>  <MODEL>
5

>  <REMARK>
 VINA RESULT:      -5.6      4.070      9.519
  Name = 
  10 active torsions:
  status: ('A' for Active; 'I' for Inactive)
    1  A    between atoms: C_5  and  C_40
    2  A    between atoms: C_7  and  C_21
    3  A    between atoms: N_10  and  C_21
    4  A    between atoms: C_13  and  N_17
    5  A    between atoms: C_13  and  C_26
    6  A    between atoms: C_22  and  C_44
    7  A    between atoms: O_25  and  C_40
    8  A    between atoms: O_25  and  C_44
    9  A    between atoms: N_27  and  C_32
   10  A    between atoms: C_32  and  C_44
                            x       y       z     vdW  Elec       q    Type
                         _______ _______ _______ _____ _____    ______ ____

>  <TORSDO>
F 10

$$$$
=
 OpenBabel11042420413D

 45 50  0  0  1  0  0  0  0  0999 V2000
  160.8390  204.8870  153.1230 C   0  0  0  0  0  2  0  0  0  0  0  0
  161.0370  205.3380  150.6720 C   0  0  0  0  0  2  0  0  0  0  0  0
  161.4530  204.4040  151.8060 C   0  0  2  0  0  3  0  0  0  0  0  0
  162.2410  208.8780  150.3010 C   0  0  0  0  0  0  0  0  0  0  0  0
  162.2760  209.3770  151.6400 N   0  0  0  0  0  2  0  0  0  0  0  0
  161.4320  206.7450  151.0010 C   0  0  0  0  0  0  0  0  0  0  0  0
  161.1920  206.3230  153.4010 C   0  0  0  0  0  3  0  0  0  0  0  0
  161.7950  207.5440  150.0450 N   0  0  0  0  0  0  0  0  0  0  0  0
  162.6240  209.6050  149.3500 O   0  0  0  0  0  0  0  0  0  0  0  0
  161.6760  208.6450  152.7560 C   0  0  2  0  0  3  0  0  0  0  0  0
  161.4250  207.1990  152.4160 C   0  0  0  0  0  0  0  0  0  0  0  0
  160.9980  202.9890  151.4870 C   0  0  0  0  0  2  0  0  0  0  0  0
  160.8420  202.6460  147.1610 C   0  0  0  0  0  2  0  0  0  0  0  0
  159.9620  202.2480  145.9810 C   0  0  0  0  0  2  0  0  0  0  0  0
  161.1240  201.4650  147.9710 N   0  0  0  0  0  0  0  0  0  0  0  0
  160.8830  202.8030  150.0470 N   0  0  0  0  0  2  0  0  0  0  0  0
  161.2060  201.5690  149.3980 C   0  0  0  0  0  0  0  0  0  0  0  0
  161.2030  198.8480  145.3470 N   0  0  0  0  0  1  0  0  0  0  0  0
  159.7380  200.8690  144.2140 O   0  0  0  0  0  1  0  0  0  0  0  0
  161.5460  200.5660  150.0850 O   0  0  0  0  0  0  0  0  0  0  0  0
  160.6600  199.9740  146.0920 C   0  0  1  0  0  3  0  0  0  0  0  0
  161.5620  200.2490  147.2930 C   0  0  0  0  0  2  0  0  0  0  0  0
  160.5870  201.1590  145.2300 N   0  0  0  0  0  0  0  0  0  0  0  0
  160.4030  209.3390  153.2610 C   0  0  1  0  0  3  0  0  0  0  0  0
  160.4640  209.5420  154.6440 O   0  0  0  0  0  0  0  0  0  0  0  0
  161.7960  209.2940  154.9830 C   0  0  0  0  0  2  0  0  0  0  0  0
  162.1240  209.9450  156.3150 C   0  0  2  0  0  3  0  0  0  0  0  0
  160.6820  210.8400  156.9470 S   0  0  0  0  0  0  0  0  0  0  0  0
  163.1340  211.8040  157.2000 N   0  0  0  0  0  2  0  0  0  0  0  0
  163.2100  210.8940  156.1340 N   0  0  0  0  0  2  0  0  0  0  0  0
  161.7560  212.2580  157.2610 C   0  0  0  0  0  2  0  0  0  0  0  0
  160.0710  210.6420  152.5270 C   0  0  0  0  0  2  0  0  0  0  0  0
  157.1840  213.7310  151.8480 N   0  0  0  0  0  2  0  0  0  0  0  0
  157.1500  214.4530  153.1090 C   0  0  2  0  0  3  0  0  0  0  0  0
  159.6080  211.6640  153.4540 N   0  0  0  0  0  2  0  0  0  0  0  0
  158.1520  213.7060  153.9970 C   0  0  0  0  0  2  0  0  0  0  0  0
  158.0890  212.6740  151.9160 N   0  0  0  0  0  0  0  0  0  0  0  0
  158.6320  212.6360  153.0810 C   0  0  0  0  0  0  0  0  0  0  0  0
  155.7550  214.3690  153.7060 C   0  0  0  0  0  2  0  0  0  0  0  0
  155.4010  212.0140  156.9860 N   0  0  0  0  0  2  0  0  0  0  0  0
  155.7700  213.5560  154.9120 N   0  0  0  0  0  0  0  0  0  0  0  0
  154.6370  213.2590  157.0910 C   0  0  0  0  0  2  0  0  0  0  0  0
  154.7710  214.1180  155.8230 C   0  0  0  0  0  2  0  0  0  0  0  0
  155.3460  212.2110  154.5190 C   0  0  0  0  0  2  0  0  0  0  0  0
  155.0390  211.3320  155.7440 C   0  0  0  0  0  2  0  0  0  0  0  0
  1  7  1  0  0  0  0
  2  6  1  0  0  0  0
  2  3  1  0  0  0  0
  3 12  1  6  0  0  0
  3  1  1  0  0  0  0
  4  5  1  0  0  0  0
  5 10  1  0  0  0  0
  6 11  1  0  0  0  0
  8  4  1  0  0  0  0
  8  6  2  0  0  0  0
  9  4  2  0  0  0  0
 10 24  1  6  0  0  0
 11 10  1  0  0  0  0
 11  7  2  0  0  0  0
 13 15  1  0  0  0  0
 14 13  1  0  0  0  0
 15 17  1  0  0  0  0
 16 12  1  0  0  0  0
 17 16  1  0  0  0  0
 17 20  2  0  0  0  0
 19 23  1  0  0  0  0
 21 18  1  6  0  0  0
 21 22  1  0  0  0  0
 22 15  1  0  0  0  0
 23 14  1  0  0  0  0
 23 21  1  0  0  0  0
 24 32  1  6  0  0  0
 24 25  1  0  0  0  0
 25 26  1  0  0  0  0
 27 26  1  6  0  0  0
 27 28  1  0  0  0  0
 28 31  1  0  0  0  0
 29 31  1  0  0  0  0
 30 27  1  0  0  0  0
 30 29  1  0  0  0  0
 32 35  1  0  0  0  0
 33 37  1  0  0  0  0
 33 34  1  0  0  0  0
 34 39  1  1  0  0  0
 34 36  1  0  0  0  0
 37 38  2  0  0  0  0
 38 35  1  0  0  0  0
 38 36  1  0  0  0  0
 39 41  1  0  0  0  0
 40 42  1  0  0  0  0
 41 43  1  0  0  0  0
 43 42  1  0  0  0  0
 44 41  1  0  0  0  0
 44 45  1  0  0  0  0
 45 40  1  0  0  0  0
M  END
>  <MODEL>
6

>  <REMARK>
 VINA RESULT:      -5.3      3.159      4.913
  Name = 
  10 active torsions:
  status: ('A' for Active; 'I' for Inactive)
    1  A    between atoms: C_5  and  C_40
    2  A    between atoms: C_7  and  C_21
    3  A    between atoms: N_10  and  C_21
    4  A    between atoms: C_13  and  N_17
    5  A    between atoms: C_13  and  C_26
    6  A    between atoms: C_22  and  C_44
    7  A    between atoms: O_25  and  C_40
    8  A    between atoms: O_25  and  C_44
    9  A    between atoms: N_27  and  C_32
   10  A    between atoms: C_32  and  C_44
                            x       y       z     vdW  Elec       q    Type
                         _______ _______ _______ _____ _____    ______ ____

>  <TORSDO>
F 10

$$$$
