=
 OpenBabel11042420013D

 42 46  0  0  1  0  0  0  0  0999 V2000
  158.9310  210.9940  152.6670 N   0  0  0  0  0  2  0  0  0  0  0  0
  159.9740  211.9670  152.9380 C   0  0  2  0  0  3  0  0  0  0  0  0
  157.6810  211.6990  152.9660 C   0  0  2  0  0  3  0  0  0  0  0  0
  157.8630  213.5050  152.6190 S   0  0  0  0  0  0  0  0  0  0  0  0
  159.6220  213.2730  152.2360 C   0  0  2  0  0  3  0  0  0  0  0  0
  159.8060  213.2550  150.7350 C   0  0  0  0  0  0  0  0  0  0  0  0
  161.3180  213.6030  148.8390 C   0  0  2  0  0  3  0  0  0  0  0  0
  158.9260  213.2520  148.4940 N   0  0  0  0  0  0  0  0  0  0  0  0
  160.1180  213.3200  147.9640 C   0  0  0  0  0  0  0  0  0  0  0  0
  160.3110  213.2030  146.5140 C   0  0  0  0  0  3  0  0  0  0  0  0
  162.6920  212.8010  146.9430 C   0  0  0  0  0  3  0  0  0  0  0  0
  162.5730  213.0010  148.2600 C   0  0  0  0  0  3  0  0  0  0  0  0
  161.0740  213.1220  150.1620 O   0  0  0  0  0  0  0  0  0  0  0  0
  158.7390  213.3260  149.9190 C   0  0  0  0  0  3  0  0  0  0  0  0
  161.5470  213.0210  146.0230 C   0  0  0  0  0  0  0  0  0  0  0  0
  160.9260  212.3740  143.8180 O   0  0  0  0  0  0  0  0  0  0  0  0
  162.9610  213.4960  143.9970 N   0  0  0  0  0  1  0  0  0  0  0  0
  161.7700  212.9370  144.5640 C   0  0  0  0  0  0  0  0  0  0  0  0
  161.4150  211.4430  152.7500 C   0  0  2  0  0  3  0  0  0  0  0  0
  160.6770  208.5810  150.7390 O   0  0  0  0  0  0  0  0  0  0  0  0
  161.6460  210.5980  151.4800 C   0  0  0  0  0  2  0  0  0  0  0  0
  161.2290  209.1700  151.6620 C   0  0  0  0  0  0  0  0  0  0  0  0
  161.5920  208.4610  152.9430 C   0  0  1  0  0  3  0  0  0  0  0  0
  161.8780  210.7130  154.0110 C   0  0  0  0  0  2  0  0  0  0  0  0
  161.2230  209.3350  154.1340 C   0  0  0  0  0  2  0  0  0  0  0  0
  162.7240  205.9650  152.2140 O   0  0  0  0  0  0  0  0  0  0  0  0
  161.5180  205.9640  152.5940 C   0  0  0  0  0  0  0  0  0  0  0  0
  160.9120  207.1770  153.0440 N   0  0  0  0  0  2  0  0  0  0  0  0
  160.7170  204.6910  152.6060 C   0  0  0  0  0  2  0  0  0  0  0  0
  161.3870  203.5730  151.7960 C   0  0  0  0  0  2  0  0  0  0  0  0
  160.6700  201.9210  150.1290 N   0  0  0  0  0  1  0  0  0  0  0  0
  160.6320  203.3270  150.4920 C   0  0  2  0  0  3  0  0  0  0  0  0
  161.1510  204.2170  149.3640 C   0  0  0  0  0  2  0  0  0  0  0  0
  161.4100  203.4800  148.0560 C   0  0  0  0  0  2  0  0  0  0  0  0
  162.1610  204.2770  147.1930 O   0  0  0  0  0  1  0  0  0  0  0  0
  157.7920  212.2500  156.6010 C   0  0  0  0  0  3  0  0  0  0  0  0
  158.1770  211.3220  155.5020 C   0  0  0  0  0  2  0  0  0  0  0  0
  155.9190  211.0430  154.5110 C   0  0  0  0  0  3  0  0  0  0  0  0
  155.5570  211.2180  156.9450 C   0  0  0  0  0  3  0  0  0  0  0  0
  155.2850  210.7380  155.7590 N   0  0  0  0  0  0  0  0  0  0  0  0
  156.6390  212.1690  157.2610 C   0  0  0  0  0  3  0  0  0  0  0  0
  157.2080  211.3640  154.3530 C   0  0  0  0  0  0  0  0  0  0  0  0
  1  3  1  0  0  0  0
  2  1  1  6  0  0  0
  3 42  1  1  0  0  0
  4  3  1  0  0  0  0
  5  6  1  6  0  0  0
  5  4  1  0  0  0  0
  5  2  1  0  0  0  0
  7 12  1  6  0  0  0
  7 13  1  0  0  0  0
  8 14  1  0  0  0  0
  9  8  2  0  0  0  0
  9  7  1  0  0  0  0
 10  9  1  0  0  0  0
 11 12  2  0  0  0  0
 13  6  1  0  0  0  0
 14  6  2  0  0  0  0
 15 10  2  0  0  0  0
 15 11  1  0  0  0  0
 16 18  2  0  0  0  0
 17 18  1  0  0  0  0
 18 15  1  0  0  0  0
 19 21  1  6  0  0  0
 19  2  1  0  0  0  0
 19 24  1  0  0  0  0
 20 22  2  0  0  0  0
 21 22  1  0  0  0  0
 22 23  1  0  0  0  0
 23 28  1  1  0  0  0
 23 25  1  0  0  0  0
 24 25  1  0  0  0  0
 26 27  2  0  0  0  0
 27 29  1  0  0  0  0
 27 28  1  0  0  0  0
 30 29  1  0  0  0  0
 32 31  1  6  0  0  0
 32 30  1  0  0  0  0
 33 32  1  0  0  0  0
 34 33  1  0  0  0  0
 35 34  1  0  0  0  0
 36 41  2  0  0  0  0
 37 36  1  0  0  0  0
 38 40  1  0  0  0  0
 39 41  1  0  0  0  0
 40 39  2  0  0  0  0
 42 38  2  0  0  0  0
 42 37  1  0  0  0  0
M  END
>  <MODEL>
1

>  <REMARK>
 VINA RESULT:      -6.2      0.000      0.000
  Name = 
  10 active torsions:
  status: ('A' for Active; 'I' for Inactive)
    1  A    between atoms: C_1  and  C_24
    2  A    between atoms: C_6  and  C_11
    3  A    between atoms: C_9  and  C_21
    4  A    between atoms: C_13  and  C_28
    5  A    between atoms: C_18  and  C_38
    6  A    between atoms: C_20  and  N_34
    7  A    between atoms: C_21  and  C_35
    8  A    between atoms: C_27  and  C_42
    9  A    between atoms: C_28  and  C_33
   10  A    between atoms: C_33  and  C_35
                            x       y       z     vdW  Elec       q    Type
                         _______ _______ _______ _____ _____    ______ ____

>  <TORSDO>
F 10

$$$$
=
 OpenBabel11042420013D

 42 46  0  0  1  0  0  0  0  0999 V2000
  159.9410  209.4560  152.4300 N   0  0  0  0  0  2  0  0  0  0  0  0
  161.1980  209.2000  153.1110 C   0  0  2  0  0  3  0  0  0  0  0  0
  160.3150  210.2270  151.2400 C   0  0  2  0  0  3  0  0  0  0  0  0
  162.0020  209.7420  150.6640 S   0  0  0  0  0  0  0  0  0  0  0  0
  162.2010  208.6520  152.1010 C   0  0  2  0  0  3  0  0  0  0  0  0
  161.9540  207.2210  151.6780 C   0  0  0  0  0  0  0  0  0  0  0  0
  160.9550  205.6980  150.0400 C   0  0  2  0  0  3  0  0  0  0  0  0
  161.8650  204.8610  152.1460 N   0  0  0  0  0  0  0  0  0  0  0  0
  161.4130  204.5830  150.9530 C   0  0  0  0  0  0  0  0  0  0  0  0
  161.2660  203.1930  150.5020 C   0  0  0  0  0  3  0  0  0  0  0  0
  161.0900  204.0410  148.2070 C   0  0  0  0  0  3  0  0  0  0  0  0
  161.1190  205.3220  148.5900 C   0  0  0  0  0  3  0  0  0  0  0  0
  161.6680  206.8970  150.3490 O   0  0  0  0  0  0  0  0  0  0  0  0
  162.0480  206.2230  152.5750 C   0  0  0  0  0  3  0  0  0  0  0  0
  161.0460  202.9390  149.2020 C   0  0  0  0  0  0  0  0  0  0  0  0
  160.5520  200.6350  149.5390 O   0  0  0  0  0  0  0  0  0  0  0  0
  161.0340  201.2450  147.3420 N   0  0  0  0  0  1  0  0  0  0  0  0
  160.8590  201.5510  148.7310 C   0  0  0  0  0  0  0  0  0  0  0  0
  161.0690  208.4380  154.4470 C   0  0  2  0  0  3  0  0  0  0  0  0
  158.3530  210.2890  155.8520 O   0  0  0  0  0  0  0  0  0  0  0  0
  159.6720  208.4860  155.0990 C   0  0  0  0  0  2  0  0  0  0  0  0
  159.4510  209.7460  155.8810 C   0  0  0  0  0  0  0  0  0  0  0  0
  160.5590  210.2580  156.7690 C   0  0  1  0  0  3  0  0  0  0  0  0
  162.1640  208.8850  155.4160 C   0  0  0  0  0  2  0  0  0  0  0  0
  161.8700  210.2710  155.9950 C   0  0  0  0  0  2  0  0  0  0  0  0
  160.4990  212.5970  155.1670 O   0  0  0  0  0  0  0  0  0  0  0  0
  160.3170  212.7430  156.4100 C   0  0  0  0  0  0  0  0  0  0  0  0
  160.2620  211.5960  157.2600 N   0  0  0  0  0  2  0  0  0  0  0  0
  160.1270  214.1110  157.0030 C   0  0  0  0  0  2  0  0  0  0  0  0
  158.6470  214.4490  157.2280 C   0  0  0  0  0  2  0  0  0  0  0  0
  156.9410  214.4500  155.4640 N   0  0  0  0  0  1  0  0  0  0  0  0
  157.7570  213.6060  156.3180 C   0  0  2  0  0  3  0  0  0  0  0  0
  156.9070  212.6200  157.1180 C   0  0  0  0  0  2  0  0  0  0  0  0
  155.4490  212.5550  156.6820 C   0  0  0  0  0  2  0  0  0  0  0  0
  155.1830  211.3340  156.0630 O   0  0  0  0  0  1  0  0  0  0  0  0
  159.9370  213.6600  149.9730 C   0  0  0  0  0  3  0  0  0  0  0  0
  160.8620  212.7130  150.6570 C   0  0  0  0  0  2  0  0  0  0  0  0
  159.3430  212.0620  152.5090 C   0  0  0  0  0  3  0  0  0  0  0  0
  158.8810  214.4470  152.0800 C   0  0  0  0  0  3  0  0  0  0  0  0
  159.0180  213.4110  152.8660 N   0  0  0  0  0  0  0  0  0  0  0  0
  159.0870  214.4530  150.6200 C   0  0  0  0  0  3  0  0  0  0  0  0
  160.1270  211.6980  151.4880 C   0  0  0  0  0  0  0  0  0  0  0  0
  2  1  1  6  0  0  0
  2 19  1  0  0  0  0
  3 42  1  1  0  0  0
  3  1  1  0  0  0  0
  4  3  1  0  0  0  0
  4  5  1  0  0  0  0
  5  6  1  6  0  0  0
  5  2  1  0  0  0  0
  6 14  2  0  0  0  0
  7 12  1  6  0  0  0
  7 13  1  0  0  0  0
  7  9  1  0  0  0  0
  8 14  1  0  0  0  0
  9  8  2  0  0  0  0
 10  9  1  0  0  0  0
 11 12  2  0  0  0  0
 11 15  1  0  0  0  0
 13  6  1  0  0  0  0
 15 10  2  0  0  0  0
 17 18  1  0  0  0  0
 18 15  1  0  0  0  0
 18 16  2  0  0  0  0
 19 21  1  1  0  0  0
 19 24  1  0  0  0  0
 20 22  2  0  0  0  0
 21 22  1  0  0  0  0
 22 23  1  0  0  0  0
 23 28  1  6  0  0  0
 24 25  1  0  0  0  0
 25 23  1  0  0  0  0
 26 27  2  0  0  0  0
 27 29  1  0  0  0  0
 27 28  1  0  0  0  0
 29 30  1  0  0  0  0
 32 31  1  1  0  0  0
 32 33  1  0  0  0  0
 32 30  1  0  0  0  0
 34 33  1  0  0  0  0
 35 34  1  0  0  0  0
 36 41  2  0  0  0  0
 36 37  1  0  0  0  0
 37 42  1  0  0  0  0
 38 40  1  0  0  0  0
 39 40  2  0  0  0  0
 41 39  1  0  0  0  0
 42 38  2  0  0  0  0
M  END
>  <MODEL>
2

>  <REMARK>
 VINA RESULT:      -4.4      3.297      8.433
  Name = 
  10 active torsions:
  status: ('A' for Active; 'I' for Inactive)
    1  A    between atoms: C_1  and  C_24
    2  A    between atoms: C_6  and  C_11
    3  A    between atoms: C_9  and  C_21
    4  A    between atoms: C_13  and  C_28
    5  A    between atoms: C_18  and  C_38
    6  A    between atoms: C_20  and  N_34
    7  A    between atoms: C_21  and  C_35
    8  A    between atoms: C_27  and  C_42
    9  A    between atoms: C_28  and  C_33
   10  A    between atoms: C_33  and  C_35
                            x       y       z     vdW  Elec       q    Type
                         _______ _______ _______ _____ _____    ______ ____

>  <TORSDO>
F 10

$$$$
=
 OpenBabel11042420013D

 42 46  0  0  1  0  0  0  0  0999 V2000
  159.7160  211.2600  151.4490 N   0  0  0  0  0  2  0  0  0  0  0  0
  160.8470  212.1560  151.6120 C   0  0  2  0  0  3  0  0  0  0  0  0
  158.5610  212.0330  151.9170 C   0  0  2  0  0  3  0  0  0  0  0  0
  158.8190  213.8340  151.5930 S   0  0  0  0  0  0  0  0  0  0  0  0
  160.4990  213.5050  150.9910 C   0  0  2  0  0  3  0  0  0  0  0  0
  160.4970  213.5230  149.4780 C   0  0  0  0  0  0  0  0  0  0  0  0
  159.5020  212.6740  147.4060 C   0  0  2  0  0  3  0  0  0  0  0  0
  161.5440  214.0130  147.3660 N   0  0  0  0  0  0  0  0  0  0  0  0
  160.5620  213.4800  146.6900 C   0  0  0  0  0  0  0  0  0  0  0  0
  160.5050  213.5820  145.2260 C   0  0  0  0  0  3  0  0  0  0  0  0
  158.1450  212.9250  145.3520 C   0  0  0  0  0  3  0  0  0  0  0  0
  158.1860  212.7240  146.6740 C   0  0  0  0  0  3  0  0  0  0  0  0
  159.3660  213.1430  148.7490 O   0  0  0  0  0  0  0  0  0  0  0  0
  161.5800  213.9490  148.8030 C   0  0  0  0  0  3  0  0  0  0  0  0
  159.3720  213.2540  144.5840 C   0  0  0  0  0  0  0  0  0  0  0  0
  160.1930  212.7680  142.4030 O   0  0  0  0  0  0  0  0  0  0  0  0
  158.2180  214.0040  142.4780 N   0  0  0  0  0  1  0  0  0  0  0  0
  159.3040  213.3140  143.1090 C   0  0  0  0  0  0  0  0  0  0  0  0
  162.2160  211.5500  151.2340 C   0  0  2  0  0  3  0  0  0  0  0  0
  161.2080  209.7500  148.3150 O   0  0  0  0  0  0  0  0  0  0  0  0
  162.3920  211.2060  149.7400 C   0  0  0  0  0  2  0  0  0  0  0  0
  161.7890  209.8800  149.3860 C   0  0  0  0  0  0  0  0  0  0  0  0
  162.0030  208.7090  150.3120 C   0  0  1  0  0  3  0  0  0  0  0  0
  162.5270  210.3530  152.1330 C   0  0  0  0  0  2  0  0  0  0  0  0
  161.6970  209.1280  151.7440 C   0  0  0  0  0  2  0  0  0  0  0  0
  162.6420  206.8030  148.3130 O   0  0  0  0  0  0  0  0  0  0  0  0
  161.5130  206.6980  148.8720 C   0  0  0  0  0  0  0  0  0  0  0  0
  161.1620  207.5820  149.9370 N   0  0  0  0  0  2  0  0  0  0  0  0
  160.5430  205.6300  148.4480 C   0  0  0  0  0  2  0  0  0  0  0  0
  160.9890  204.2290  148.8870 C   0  0  0  0  0  2  0  0  0  0  0  0
  161.3210  201.9200  148.1270 N   0  0  0  0  0  1  0  0  0  0  0  0
  160.9960  203.2690  147.7010 C   0  0  2  0  0  3  0  0  0  0  0  0
  161.9300  203.7510  146.5920 C   0  0  0  0  0  2  0  0  0  0  0  0
  161.3000  203.7590  145.2050 C   0  0  0  0  0  2  0  0  0  0  0  0
  160.6650  204.9770  144.9680 O   0  0  0  0  0  1  0  0  0  0  0  0
  159.6530  211.1030  155.3040 C   0  0  0  0  0  3  0  0  0  0  0  0
  159.0060  210.6060  154.0580 C   0  0  0  0  0  2  0  0  0  0  0  0
  157.2130  212.3170  153.9230 C   0  0  0  0  0  3  0  0  0  0  0  0
  157.5240  211.8710  156.3290 C   0  0  0  0  0  3  0  0  0  0  0  0
  156.7910  212.1440  155.2810 N   0  0  0  0  0  0  0  0  0  0  0  0
  158.9790  211.6290  156.3230 C   0  0  0  0  0  3  0  0  0  0  0  0
  158.2400  211.6840  153.3430 C   0  0  0  0  0  0  0  0  0  0  0  0
  1  3  1  0  0  0  0
  2  1  1  6  0  0  0
  3 42  1  1  0  0  0
  4  3  1  0  0  0  0
  5  6  1  6  0  0  0
  5  4  1  0  0  0  0
  5  2  1  0  0  0  0
  7 12  1  6  0  0  0
  7 13  1  0  0  0  0
  8 14  1  0  0  0  0
  9  8  2  0  0  0  0
  9  7  1  0  0  0  0
 10  9  1  0  0  0  0
 11 12  2  0  0  0  0
 13  6  1  0  0  0  0
 14  6  2  0  0  0  0
 15 10  2  0  0  0  0
 15 11  1  0  0  0  0
 16 18  2  0  0  0  0
 17 18  1  0  0  0  0
 18 15  1  0  0  0  0
 19 21  1  6  0  0  0
 19  2  1  0  0  0  0
 19 24  1  0  0  0  0
 20 22  2  0  0  0  0
 22 21  1  0  0  0  0
 22 23  1  0  0  0  0
 23 28  1  6  0  0  0
 23 25  1  0  0  0  0
 25 24  1  0  0  0  0
 26 27  2  0  0  0  0
 27 28  1  0  0  0  0
 29 27  1  0  0  0  0
 29 30  1  0  0  0  0
 32 31  1  1  0  0  0
 32 30  1  0  0  0  0
 33 32  1  0  0  0  0
 34 33  1  0  0  0  0
 35 34  1  0  0  0  0
 36 41  2  0  0  0  0
 37 36  1  0  0  0  0
 38 40  1  0  0  0  0
 40 39  2  0  0  0  0
 41 39  1  0  0  0  0
 42 38  2  0  0  0  0
 42 37  1  0  0  0  0
M  END
>  <MODEL>
3

>  <REMARK>
 VINA RESULT:      -3.4      2.028      2.707
  Name = 
  10 active torsions:
  status: ('A' for Active; 'I' for Inactive)
    1  A    between atoms: C_1  and  C_24
    2  A    between atoms: C_6  and  C_11
    3  A    between atoms: C_9  and  C_21
    4  A    between atoms: C_13  and  C_28
    5  A    between atoms: C_18  and  C_38
    6  A    between atoms: C_20  and  N_34
    7  A    between atoms: C_21  and  C_35
    8  A    between atoms: C_27  and  C_42
    9  A    between atoms: C_28  and  C_33
   10  A    between atoms: C_33  and  C_35
                            x       y       z     vdW  Elec       q    Type
                         _______ _______ _______ _____ _____    ______ ____

>  <TORSDO>
F 10

$$$$
=
 OpenBabel11042420013D

 42 46  0  0  1  0  0  0  0  0999 V2000
  160.7570  208.6510  151.4990 N   0  0  0  0  0  2  0  0  0  0  0  0
  161.9040  208.9230  152.3470 C   0  0  2  0  0  3  0  0  0  0  0  0
  160.4540  207.2350  151.7300 C   0  0  2  0  0  3  0  0  0  0  0  0
  160.9070  206.7530  153.4550 S   0  0  0  0  0  0  0  0  0  0  0  0
  161.6130  208.3990  153.7490 C   0  0  2  0  0  3  0  0  0  0  0  0
  160.6270  209.2280  154.5430 C   0  0  0  0  0  0  0  0  0  0  0  0
  159.0170  211.0740  154.5450 C   0  0  2  0  0  3  0  0  0  0  0  0
  159.7220  210.0160  156.6300 N   0  0  0  0  0  0  0  0  0  0  0  0
  158.8870  210.8210  156.0290 C   0  0  0  0  0  0  0  0  0  0  0  0
  157.8620  211.5530  156.7850 C   0  0  0  0  0  3  0  0  0  0  0  0
  156.7210  211.9920  154.6580 C   0  0  0  0  0  3  0  0  0  0  0  0
  157.6860  211.4220  153.9280 C   0  0  0  0  0  3  0  0  0  0  0  0
  159.5990  209.9330  153.9110 O   0  0  0  0  0  0  0  0  0  0  0  0
  160.7000  209.2670  155.8850 C   0  0  0  0  0  3  0  0  0  0  0  0
  156.8660  212.1670  156.1260 C   0  0  0  0  0  0  0  0  0  0  0  0
  154.7850  212.3870  157.2610 O   0  0  0  0  0  0  0  0  0  0  0  0
  156.0610  214.3330  157.1210 N   0  0  0  0  0  1  0  0  0  0  0  0
  155.8450  212.9400  156.8630 C   0  0  0  0  0  0  0  0  0  0  0  0
  162.4630  210.3580  152.2440 C   0  0  2  0  0  3  0  0  0  0  0  0
  159.5180  211.9840  151.0340 O   0  0  0  0  0  0  0  0  0  0  0  0
  161.4100  211.4820  152.3470 C   0  0  0  0  0  2  0  0  0  0  0  0
  160.7180  211.7350  151.0420 C   0  0  0  0  0  0  0  0  0  0  0  0
  161.5390  211.7800  149.7760 C   0  0  1  0  0  3  0  0  0  0  0  0
  163.3230  210.4990  150.9880 C   0  0  0  0  0  2  0  0  0  0  0  0
  162.4640  210.5710  149.7240 C   0  0  0  0  0  2  0  0  0  0  0  0
  162.3090  212.7700  147.2340 O   0  0  0  0  0  0  0  0  0  0  0  0
  161.1140  212.3770  147.3630 C   0  0  0  0  0  0  0  0  0  0  0  0
  160.6850  211.8000  148.5970 N   0  0  0  0  0  2  0  0  0  0  0  0
  160.1430  212.4830  146.2200 C   0  0  0  0  0  2  0  0  0  0  0  0
  160.3230  213.7800  145.4200 C   0  0  0  0  0  2  0  0  0  0  0  0
  159.5140  212.4840  143.4990 N   0  0  0  0  0  1  0  0  0  0  0  0
  160.4800  213.4780  143.9320 C   0  0  2  0  0  3  0  0  0  0  0  0
  161.9100  213.0630  143.5890 C   0  0  0  0  0  2  0  0  0  0  0  0
  162.0230  212.1660  142.3630 C   0  0  0  0  0  2  0  0  0  0  0  0
  162.6270  212.8550  141.3130 O   0  0  0  0  0  1  0  0  0  0  0  0
  160.9630  203.9530  150.1490 C   0  0  0  0  0  3  0  0  0  0  0  0
  161.6050  205.0170  150.9690 C   0  0  0  0  0  2  0  0  0  0  0  0
  161.1730  206.9140  149.4270 C   0  0  0  0  0  3  0  0  0  0  0  0
  161.6150  204.9690  147.9770 C   0  0  0  0  0  3  0  0  0  0  0  0
  161.6890  206.2400  148.2730 N   0  0  0  0  0  0  0  0  0  0  0  0
  161.0070  203.9220  148.8190 C   0  0  0  0  0  3  0  0  0  0  0  0
  161.0660  206.3850  150.6520 C   0  0  0  0  0  0  0  0  0  0  0  0
  1  3  1  0  0  0  0
  2  1  1  6  0  0  0
  2  5  1  0  0  0  0
  3 42  1  6  0  0  0
  3  4  1  0  0  0  0
  4  5  1  0  0  0  0
  5  6  1  6  0  0  0
  6 14  2  0  0  0  0
  7 12  1  6  0  0  0
  7  9  1  0  0  0  0
  9  8  2  0  0  0  0
  9 10  1  0  0  0  0
 11 15  1  0  0  0  0
 12 11  2  0  0  0  0
 13  6  1  0  0  0  0
 13  7  1  0  0  0  0
 14  8  1  0  0  0  0
 15 10  2  0  0  0  0
 15 18  1  0  0  0  0
 18 17  1  0  0  0  0
 18 16  2  0  0  0  0
 19 24  1  6  0  0  0
 19 21  1  0  0  0  0
 19  2  1  0  0  0  0
 20 22  2  0  0  0  0
 22 21  1  0  0  0  0
 23 28  1  6  0  0  0
 23 22  1  0  0  0  0
 25 23  1  0  0  0  0
 25 24  1  0  0  0  0
 26 27  2  0  0  0  0
 27 28  1  0  0  0  0
 29 27  1  0  0  0  0
 30 29  1  0  0  0  0
 32 31  1  1  0  0  0
 32 30  1  0  0  0  0
 33 32  1  0  0  0  0
 34 33  1  0  0  0  0
 35 34  1  0  0  0  0
 36 37  1  0  0  0  0
 38 42  2  0  0  0  0
 39 40  2  0  0  0  0
 39 41  1  0  0  0  0
 40 38  1  0  0  0  0
 41 36  2  0  0  0  0
 42 37  1  0  0  0  0
M  END
>  <MODEL>
4

>  <REMARK>
 VINA RESULT:      -3.3      2.773      8.935
  Name = 
  10 active torsions:
  status: ('A' for Active; 'I' for Inactive)
    1  A    between atoms: C_1  and  C_24
    2  A    between atoms: C_6  and  C_11
    3  A    between atoms: C_9  and  C_21
    4  A    between atoms: C_13  and  C_28
    5  A    between atoms: C_18  and  C_38
    6  A    between atoms: C_20  and  N_34
    7  A    between atoms: C_21  and  C_35
    8  A    between atoms: C_27  and  C_42
    9  A    between atoms: C_28  and  C_33
   10  A    between atoms: C_33  and  C_35
                            x       y       z     vdW  Elec       q    Type
                         _______ _______ _______ _____ _____    ______ ____

>  <TORSDO>
F 10

$$$$
