=
 OpenBabel11052409573D

 29 32  0  0  1  0  0  0  0  0999 V2000
  161.6860  208.0960  148.5410 C   0  0  0  0  0  3  0  0  0  0  0  0
  161.4830  208.1150  152.2460 C   0  0  0  0  0  0  0  0  0  0  0  0
  160.7790  208.6040  154.5400 N   0  0  0  0  0  0  0  0  0  0  0  0
  161.5430  207.6320  149.8550 C   0  0  0  0  0  0  0  0  0  0  0  0
  161.2640  206.7530  152.5060 C   0  0  0  0  0  0  0  0  0  0  0  0
  161.3250  206.2660  150.1300 C   0  0  0  0  0  0  0  0  0  0  0  0
  161.1880  205.8390  151.4540 C   0  0  0  0  0  3  0  0  0  0  0  0
  160.5630  207.3480  154.8070 C   0  0  0  0  0  0  0  0  0  0  0  0
  161.8530  209.9110  150.6310 C   0  0  0  0  0  3  0  0  0  0  0  0
  161.6280  208.5600  150.9190 C   0  0  0  0  0  0  0  0  0  0  0  0
  161.6090  209.0520  153.4190 C   0  0  0  0  0  2  0  0  0  0  0  0
  161.1420  206.2700  153.9200 C   0  0  0  0  0  2  0  0  0  0  0  0
  161.9020  209.4160  148.2970 N   0  0  0  0  0  0  0  0  0  0  0  0
  161.9870  210.3310  149.3010 C   0  0  0  0  0  0  0  0  0  0  0  0
  162.7290  212.9180  147.2820 N   0  0  0  0  0  2  0  0  0  0  0  0
  163.2730  212.0770  148.2110 O   0  0  0  0  0  0  0  0  0  0  0  0
  161.6270  213.6200  147.9390 C   0  0  2  0  0  3  0  0  0  0  0  0
  162.2240  211.7100  148.9880 N   0  0  0  0  0  0  0  0  0  0  0  0
  161.1830  212.7010  149.0280 C   0  0  0  0  0  2  0  0  0  0  0  0
  160.1900  212.6000  146.2640 N   0  0  0  0  0  1  0  0  0  0  0  0
  160.4910  213.8390  146.9580 C   0  0  0  0  0  2  0  0  0  0  0  0
  159.7920  207.0200  155.9230 O   0  0  0  0  0  0  0  0  0  0  0  0
  160.2630  207.1960  157.2510 C   0  0  0  0  0  1  0  0  0  0  0  0
  161.2130  205.2510  149.0380 C   0  0  0  0  0  2  0  0  0  0  0  0
  160.9630  203.8730  149.6300 C   0  0  0  0  0  2  0  0  0  0  0  0
  160.9020  202.8250  148.5310 C   0  0  0  0  0  2  0  0  0  0  0  0
  160.5120  201.2440  150.2730 O   0  0  0  0  0  1  0  0  0  0  0  0
  160.9420  201.4510  149.1070 C   0  0  0  0  0  0  0  0  0  0  0  0
  161.4810  200.4040  148.3730 O   0  0  0  0  0  0  0  0  0  0  0  0
  1  4  1  0  0  0  0
  2  5  1  0  0  0  0
  2 11  1  0  0  0  0
  3  8  2  0  0  0  0
  4  6  2  0  0  0  0
  4 10  1  0  0  0  0
  5 12  1  0  0  0  0
  6  7  1  0  0  0  0
  7  5  2  0  0  0  0
  8 22  1  0  0  0  0
  9 10  1  0  0  0  0
 10  2  2  0  0  0  0
 11  3  1  0  0  0  0
 12  8  1  0  0  0  0
 13  1  2  0  0  0  0
 13 14  1  0  0  0  0
 14  9  2  0  0  0  0
 15 17  1  0  0  0  0
 15 16  1  0  0  0  0
 16 18  1  0  0  0  0
 17 21  1  6  0  0  0
 17 19  1  0  0  0  0
 18 19  1  0  0  0  0
 18 14  1  0  0  0  0
 20 21  1  0  0  0  0
 22 23  1  0  0  0  0
 24 25  1  0  0  0  0
 24  6  1  0  0  0  0
 26 28  1  0  0  0  0
 26 25  1  0  0  0  0
 28 27  1  0  0  0  0
 29 28  2  0  0  0  0
M  END
>  <MODEL>
1

>  <REMARK>
 VINA RESULT:      -8.9      0.000      0.000
  Name = 
  7 active torsions:
  status: ('A' for Active; 'I' for Inactive)
    1  A    between atoms: C_2  and  C_16
    2  A    between atoms: C_2  and  C_17
    3  A    between atoms: O_6  and  C_13
    4  A    between atoms: C_11  and  C_24
    5  A    between atoms: C_15  and  C_18
    6  A    between atoms: C_17  and  C_24
    7  A    between atoms: N_23  and  C_27
                            x       y       z     vdW  Elec       q    Type
                         _______ _______ _______ _____ _____    ______ ____

>  <TORSDO>
F 7

$$$$
=
 OpenBabel11052409573D

 29 32  0  0  1  0  0  0  0  0999 V2000
  162.0610  208.9380  151.5220 C   0  0  0  0  0  3  0  0  0  0  0  0
  161.1780  206.0820  149.3240 C   0  0  0  0  0  0  0  0  0  0  0  0
  161.2560  204.3900  147.5560 N   0  0  0  0  0  0  0  0  0  0  0  0
  161.7360  207.6360  151.1210 C   0  0  0  0  0  0  0  0  0  0  0  0
  161.0810  205.0440  150.2660 C   0  0  0  0  0  0  0  0  0  0  0  0
  161.6330  206.5850  152.0560 C   0  0  0  0  0  0  0  0  0  0  0  0
  161.3050  205.2990  151.6190 C   0  0  0  0  0  3  0  0  0  0  0  0
  161.1710  203.4070  148.4070 C   0  0  0  0  0  0  0  0  0  0  0  0
  161.5990  208.4390  148.8340 C   0  0  0  0  0  3  0  0  0  0  0  0
  161.5010  207.3840  149.7490 C   0  0  0  0  0  0  0  0  0  0  0  0
  160.8740  205.7660  147.8830 C   0  0  0  0  0  2  0  0  0  0  0  0
  160.7030  203.6630  149.8210 C   0  0  0  0  0  2  0  0  0  0  0  0
  162.1490  209.9390  150.6060 N   0  0  0  0  0  0  0  0  0  0  0  0
  161.9300  209.7250  149.2800 C   0  0  0  0  0  0  0  0  0  0  0  0
  160.7560  212.3140  147.4810 N   0  0  0  0  0  2  0  0  0  0  0  0
  161.0990  210.9950  147.3870 O   0  0  0  0  0  0  0  0  0  0  0  0
  161.9540  213.0330  147.9160 C   0  0  2  0  0  3  0  0  0  0  0  0
  162.0280  210.8180  148.3580 N   0  0  0  0  0  0  0  0  0  0  0  0
  162.7600  212.0180  148.6580 C   0  0  0  0  0  2  0  0  0  0  0  0
  160.4820  213.7480  149.7140 N   0  0  0  0  0  1  0  0  0  0  0  0
  161.5710  214.1660  148.8500 C   0  0  0  0  0  2  0  0  0  0  0  0
  161.5180  202.1220  147.9880 O   0  0  0  0  0  0  0  0  0  0  0  0
  161.1320  200.9590  148.7050 C   0  0  0  0  0  1  0  0  0  0  0  0
  161.8860  206.8000  153.5140 C   0  0  0  0  0  2  0  0  0  0  0  0
  160.5680  206.8850  154.2660 C   0  0  0  0  0  2  0  0  0  0  0  0
  160.7550  207.6170  155.5850 C   0  0  0  0  0  2  0  0  0  0  0  0
  162.0110  209.6320  155.8000 O   0  0  0  0  0  1  0  0  0  0  0  0
  160.9740  209.0730  155.3560 C   0  0  0  0  0  0  0  0  0  0  0  0
  160.0210  209.8220  154.6800 O   0  0  0  0  0  0  0  0  0  0  0  0
  2 10  2  0  0  0  0
  2  5  1  0  0  0  0
  3 11  1  0  0  0  0
  3  8  2  0  0  0  0
  4  1  1  0  0  0  0
  4  6  2  0  0  0  0
  5  7  2  0  0  0  0
  6 24  1  0  0  0  0
  7  6  1  0  0  0  0
  8 12  1  0  0  0  0
  9 14  2  0  0  0  0
  9 10  1  0  0  0  0
 10  4  1  0  0  0  0
 11  2  1  0  0  0  0
 12  5  1  0  0  0  0
 13  1  2  0  0  0  0
 14 13  1  0  0  0  0
 15 17  1  0  0  0  0
 16 15  1  0  0  0  0
 16 18  1  0  0  0  0
 17 19  1  0  0  0  0
 17 21  1  1  0  0  0
 18 19  1  0  0  0  0
 18 14  1  0  0  0  0
 21 20  1  0  0  0  0
 22  8  1  0  0  0  0
 22 23  1  0  0  0  0
 24 25  1  0  0  0  0
 25 26  1  0  0  0  0
 28 26  1  0  0  0  0
 28 27  1  0  0  0  0
 29 28  2  0  0  0  0
M  END
>  <MODEL>
2

>  <REMARK>
 VINA RESULT:      -8.5      1.780      5.674
  Name = 
  7 active torsions:
  status: ('A' for Active; 'I' for Inactive)
    1  A    between atoms: C_2  and  C_16
    2  A    between atoms: C_2  and  C_17
    3  A    between atoms: O_6  and  C_13
    4  A    between atoms: C_11  and  C_24
    5  A    between atoms: C_15  and  C_18
    6  A    between atoms: C_17  and  C_24
    7  A    between atoms: N_23  and  C_27
                            x       y       z     vdW  Elec       q    Type
                         _______ _______ _______ _____ _____    ______ ____

>  <TORSDO>
F 7

$$$$
=
 OpenBabel11052409573D

 29 32  0  0  1  0  0  0  0  0999 V2000
  162.1560  209.2190  151.7700 C   0  0  0  0  0  3  0  0  0  0  0  0
  161.3490  206.8890  148.9980 C   0  0  0  0  0  0  0  0  0  0  0  0
  161.4830  205.6080  146.9150 N   0  0  0  0  0  0  0  0  0  0  0  0
  161.8510  208.0300  151.0950 C   0  0  0  0  0  0  0  0  0  0  0  0
  161.2390  205.6750  149.6960 C   0  0  0  0  0  0  0  0  0  0  0  0
  161.7350  206.8050  151.7850 C   0  0  0  0  0  0  0  0  0  0  0  0
  161.4290  205.6390  151.0780 C   0  0  0  0  0  3  0  0  0  0  0  0
  161.3870  204.4680  147.5370 C   0  0  0  0  0  0  0  0  0  0  0  0
  161.7610  209.2970  149.0260 C   0  0  0  0  0  3  0  0  0  0  0  0
  161.6510  208.0720  149.6950 C   0  0  0  0  0  0  0  0  0  0  0  0
  161.0820  206.8830  147.5160 C   0  0  0  0  0  2  0  0  0  0  0  0
  160.8840  204.4170  148.9610 C   0  0  0  0  0  2  0  0  0  0  0  0
  162.2560  210.3910  151.0880 N   0  0  0  0  0  0  0  0  0  0  0  0
  162.0700  210.4610  149.7410 C   0  0  0  0  0  0  0  0  0  0  0  0
  162.2300  212.4940  147.0650 N   0  0  0  0  0  2  0  0  0  0  0  0
  163.0040  211.8790  148.0070 O   0  0  0  0  0  0  0  0  0  0  0  0
  161.2900  213.3540  147.7850 C   0  0  2  0  0  3  0  0  0  0  0  0
  162.1810  211.7240  149.0730 N   0  0  0  0  0  0  0  0  0  0  0  0
  161.1460  212.7210  149.1290 C   0  0  0  0  0  2  0  0  0  0  0  0
  159.8860  212.2790  146.1160 N   0  0  0  0  0  1  0  0  0  0  0  0
  159.9480  213.3650  147.0770 C   0  0  0  0  0  2  0  0  0  0  0  0
  161.7550  203.3010  146.8650 O   0  0  0  0  0  0  0  0  0  0  0  0
  161.2150  202.9500  145.6000 C   0  0  0  0  0  1  0  0  0  0  0  0
  161.9520  206.7090  153.2610 C   0  0  0  0  0  2  0  0  0  0  0  0
  160.6170  206.7350  153.9880 C   0  0  0  0  0  2  0  0  0  0  0  0
  160.7840  207.3090  155.3860 C   0  0  0  0  0  2  0  0  0  0  0  0
  160.2190  209.5030  154.6450 O   0  0  0  0  0  0  0  0  0  0  0  0
  160.9920  208.7840  155.3310 C   0  0  0  0  0  0  0  0  0  0  0  0
  162.0560  209.3620  156.0090 O   0  0  0  0  0  1  0  0  0  0  0  0
  2 10  2  0  0  0  0
  2  5  1  0  0  0  0
  3 11  1  0  0  0  0
  3  8  2  0  0  0  0
  4  1  1  0  0  0  0
  4  6  2  0  0  0  0
  5  7  2  0  0  0  0
  6 24  1  0  0  0  0
  7  6  1  0  0  0  0
  8 12  1  0  0  0  0
  9 10  1  0  0  0  0
  9 14  2  0  0  0  0
 10  4  1  0  0  0  0
 11  2  1  0  0  0  0
 12  5  1  0  0  0  0
 13  1  2  0  0  0  0
 14 13  1  0  0  0  0
 15 17  1  0  0  0  0
 15 16  1  0  0  0  0
 16 18  1  0  0  0  0
 17 21  1  6  0  0  0
 17 19  1  0  0  0  0
 18 19  1  0  0  0  0
 18 14  1  0  0  0  0
 20 21  1  0  0  0  0
 22  8  1  0  0  0  0
 23 22  1  0  0  0  0
 24 25  1  0  0  0  0
 25 26  1  0  0  0  0
 27 28  2  0  0  0  0
 28 26  1  0  0  0  0
 28 29  1  0  0  0  0
M  END
>  <MODEL>
3

>  <REMARK>
 VINA RESULT:      -8.3      1.741      5.691
  Name = 
  7 active torsions:
  status: ('A' for Active; 'I' for Inactive)
    1  A    between atoms: C_2  and  C_16
    2  A    between atoms: C_2  and  C_17
    3  A    between atoms: O_6  and  C_13
    4  A    between atoms: C_11  and  C_24
    5  A    between atoms: C_15  and  C_18
    6  A    between atoms: C_17  and  C_24
    7  A    between atoms: N_23  and  C_27
                            x       y       z     vdW  Elec       q    Type
                         _______ _______ _______ _____ _____    ______ ____

>  <TORSDO>
F 7

$$$$
=
 OpenBabel11052409573D

 29 32  0  0  1  0  0  0  0  0999 V2000
  161.1850  205.4760  153.1210 C   0  0  0  0  0  3  0  0  0  0  0  0
  161.2210  206.4540  149.5420 C   0  0  0  0  0  0  0  0  0  0  0  0
  161.9110  207.3970  147.3900 N   0  0  0  0  0  0  0  0  0  0  0  0
  161.1660  205.3650  151.7250 C   0  0  0  0  0  0  0  0  0  0  0  0
  161.1310  205.1970  148.9230 C   0  0  0  0  0  0  0  0  0  0  0  0
  161.0720  204.1090  151.0910 C   0  0  0  0  0  0  0  0  0  0  0  0
  161.0540  204.0370  149.6950 C   0  0  0  0  0  3  0  0  0  0  0  0
  161.8390  206.2420  146.7910 C   0  0  0  0  0  0  0  0  0  0  0  0
  161.3180  207.7840  151.5900 C   0  0  0  0  0  3  0  0  0  0  0  0
  161.2350  206.5440  150.9460 C   0  0  0  0  0  0  0  0  0  0  0  0
  161.2470  207.6780  148.6650 C   0  0  0  0  0  2  0  0  0  0  0  0
  161.0820  205.1000  147.4280 C   0  0  0  0  0  2  0  0  0  0  0  0
  161.2680  206.6970  153.7130 N   0  0  0  0  0  0  0  0  0  0  0  0
  161.3380  207.8470  152.9890 C   0  0  0  0  0  0  0  0  0  0  0  0
  160.6360  211.1020  153.4660 N   0  0  0  0  0  2  0  0  0  0  0  0
  161.5910  210.2600  152.9720 O   0  0  0  0  0  0  0  0  0  0  0  0
  160.4540  210.7560  154.8760 C   0  0  2  0  0  3  0  0  0  0  0  0
  161.4170  209.1090  153.6650 N   0  0  0  0  0  0  0  0  0  0  0  0
  160.8550  209.3220  154.9710 C   0  0  0  0  0  2  0  0  0  0  0  0
  158.2690  211.5880  154.2090 N   0  0  0  0  0  1  0  0  0  0  0  0
  158.9960  210.9080  155.2660 C   0  0  0  0  0  2  0  0  0  0  0  0
  162.4710  206.0830  145.5570 O   0  0  0  0  0  0  0  0  0  0  0  0
  161.8780  205.3630  144.4860 C   0  0  0  0  0  1  0  0  0  0  0  0
  161.0110  202.8350  151.8710 C   0  0  0  0  0  2  0  0  0  0  0  0
  161.4450  201.6670  150.9990 C   0  0  0  0  0  2  0  0  0  0  0  0
  160.3320  201.2770  150.0410 C   0  0  0  0  0  2  0  0  0  0  0  0
  161.8490  200.2300  148.5280 O   0  0  0  0  0  1  0  0  0  0  0  0
  160.8750  201.0140  148.6780 C   0  0  0  0  0  0  0  0  0  0  0  0
  160.3290  201.6570  147.5750 O   0  0  0  0  0  0  0  0  0  0  0  0
  1 13  1  0  0  0  0
  2 10  1  0  0  0  0
  3 11  1  0  0  0  0
  4  1  2  0  0  0  0
  5  2  2  0  0  0  0
  5  7  1  0  0  0  0
  6  4  1  0  0  0  0
  6 24  1  0  0  0  0
  7  6  2  0  0  0  0
  8  3  2  0  0  0  0
  8 12  1  0  0  0  0
  9 14  1  0  0  0  0
 10  9  2  0  0  0  0
 10  4  1  0  0  0  0
 11  2  1  0  0  0  0
 12  5  1  0  0  0  0
 14 18  1  0  0  0  0
 14 13  2  0  0  0  0
 15 17  1  0  0  0  0
 16 15  1  0  0  0  0
 16 18  1  0  0  0  0
 17 19  1  0  0  0  0
 17 21  1  6  0  0  0
 18 19  1  0  0  0  0
 20 21  1  0  0  0  0
 22  8  1  0  0  0  0
 23 22  1  0  0  0  0
 25 24  1  0  0  0  0
 26 25  1  0  0  0  0
 27 28  1  0  0  0  0
 28 26  1  0  0  0  0
 29 28  2  0  0  0  0
M  END
>  <MODEL>
4

>  <REMARK>
 VINA RESULT:      -8.2      3.162      5.893
  Name = 
  7 active torsions:
  status: ('A' for Active; 'I' for Inactive)
    1  A    between atoms: C_2  and  C_16
    2  A    between atoms: C_2  and  C_17
    3  A    between atoms: O_6  and  C_13
    4  A    between atoms: C_11  and  C_24
    5  A    between atoms: C_15  and  C_18
    6  A    between atoms: C_17  and  C_24
    7  A    between atoms: N_23  and  C_27
                            x       y       z     vdW  Elec       q    Type
                         _______ _______ _______ _____ _____    ______ ____

>  <TORSDO>
F 7

$$$$
=
 OpenBabel11052409573D

 29 32  0  0  1  0  0  0  0  0999 V2000
  161.0400  204.5340  151.2930 C   0  0  0  0  0  3  0  0  0  0  0  0
  161.9560  207.8690  149.9480 C   0  0  0  0  0  0  0  0  0  0  0  0
  161.9570  209.9280  148.6230 N   0  0  0  0  0  0  0  0  0  0  0  0
  161.3110  205.9080  151.2490 C   0  0  0  0  0  0  0  0  0  0  0  0
  161.8660  208.6550  151.1080 C   0  0  0  0  0  0  0  0  0  0  0  0
  161.2280  206.7090  152.4070 C   0  0  0  0  0  0  0  0  0  0  0  0
  161.5070  208.0760  152.3250 C   0  0  0  0  0  3  0  0  0  0  0  0
  161.8700  210.6820  149.6820 C   0  0  0  0  0  0  0  0  0  0  0  0
  161.7710  205.6800  148.8760 C   0  0  0  0  0  3  0  0  0  0  0  0
  161.6840  206.4900  150.0150 C   0  0  0  0  0  0  0  0  0  0  0  0
  162.4000  208.5320  148.6710 C   0  0  0  0  0  2  0  0  0  0  0  0
  162.1890  210.1180  151.0470 C   0  0  0  0  0  2  0  0  0  0  0  0
  161.1330  203.7780  150.1670 N   0  0  0  0  0  0  0  0  0  0  0  0
  161.4880  204.3120  148.9660 C   0  0  0  0  0  0  0  0  0  0  0  0
  160.2700  202.3870  146.4900 N   0  0  0  0  0  2  0  0  0  0  0  0
  160.8510  202.3260  147.7240 O   0  0  0  0  0  0  0  0  0  0  0  0
  161.2080  203.0900  145.6140 C   0  0  2  0  0  3  0  0  0  0  0  0
  161.5780  203.4670  147.8120 N   0  0  0  0  0  0  0  0  0  0  0  0
  162.0100  203.9540  146.5300 C   0  0  0  0  0  2  0  0  0  0  0  0
  160.7220  205.3590  144.8860 N   0  0  0  0  0  1  0  0  0  0  0  0
  160.4490  203.9570  144.6270 C   0  0  0  0  0  2  0  0  0  0  0  0
  161.4790  212.0130  149.5300 O   0  0  0  0  0  0  0  0  0  0  0  0
  161.5890  212.7020  148.2920 C   0  0  0  0  0  1  0  0  0  0  0  0
  160.8240  206.1410  153.7300 C   0  0  0  0  0  2  0  0  0  0  0  0
  161.2000  207.1020  154.8470 C   0  0  0  0  0  2  0  0  0  0  0  0
  159.9870  207.4220  155.7040 C   0  0  0  0  0  2  0  0  0  0  0  0
  160.1320  209.2240  157.2580 O   0  0  0  0  0  1  0  0  0  0  0  0
  159.9590  208.8680  156.0630 C   0  0  0  0  0  0  0  0  0  0  0  0
  159.7110  209.8230  155.0860 O   0  0  0  0  0  0  0  0  0  0  0  0
  2 10  2  0  0  0  0
  2  5  1  0  0  0  0
  3 11  1  0  0  0  0
  3  8  2  0  0  0  0
  4  1  1  0  0  0  0
  4  6  2  0  0  0  0
  5  7  2  0  0  0  0
  6 24  1  0  0  0  0
  7  6  1  0  0  0  0
  8 12  1  0  0  0  0
  9 14  2  0  0  0  0
  9 10  1  0  0  0  0
 10  4  1  0  0  0  0
 11  2  1  0  0  0  0
 12  5  1  0  0  0  0
 13  1  2  0  0  0  0
 14 13  1  0  0  0  0
 15 16  1  0  0  0  0
 16 18  1  0  0  0  0
 17 21  1  6  0  0  0
 17 15  1  0  0  0  0
 17 19  1  0  0  0  0
 18 14  1  0  0  0  0
 19 18  1  0  0  0  0
 21 20  1  0  0  0  0
 22  8  1  0  0  0  0
 23 22  1  0  0  0  0
 24 25  1  0  0  0  0
 25 26  1  0  0  0  0
 26 28  1  0  0  0  0
 28 27  1  0  0  0  0
 29 28  2  0  0  0  0
M  END
>  <MODEL>
5

>  <REMARK>
 VINA RESULT:      -8.1      2.788      7.397
  Name = 
  7 active torsions:
  status: ('A' for Active; 'I' for Inactive)
    1  A    between atoms: C_2  and  C_16
    2  A    between atoms: C_2  and  C_17
    3  A    between atoms: O_6  and  C_13
    4  A    between atoms: C_11  and  C_24
    5  A    between atoms: C_15  and  C_18
    6  A    between atoms: C_17  and  C_24
    7  A    between atoms: N_23  and  C_27
                            x       y       z     vdW  Elec       q    Type
                         _______ _______ _______ _____ _____    ______ ____

>  <TORSDO>
F 7

$$$$
=
 OpenBabel11052409573D

 29 32  0  0  1  0  0  0  0  0999 V2000
  160.7090  204.5330  152.4940 C   0  0  0  0  0  3  0  0  0  0  0  0
  161.7930  207.2270  150.1850 C   0  0  0  0  0  0  0  0  0  0  0  0
  161.8680  208.8000  148.3100 N   0  0  0  0  0  0  0  0  0  0  0  0
  161.0840  205.8020  152.0340 C   0  0  0  0  0  0  0  0  0  0  0  0
  161.8420  208.3230  151.0610 C   0  0  0  0  0  0  0  0  0  0  0  0
  161.1400  206.9100  152.9040 C   0  0  0  0  0  0  0  0  0  0  0  0
  161.5200  208.1610  152.4090 C   0  0  0  0  0  3  0  0  0  0  0  0
  161.9100  209.8360  149.0990 C   0  0  0  0  0  0  0  0  0  0  0  0
  161.3660  204.8490  149.8190 C   0  0  0  0  0  3  0  0  0  0  0  0
  161.4180  205.9610  150.6680 C   0  0  0  0  0  0  0  0  0  0  0  0
  162.2020  207.4440  148.7510 C   0  0  0  0  0  2  0  0  0  0  0  0
  162.2740  209.6670  150.5560 C   0  0  0  0  0  2  0  0  0  0  0  0
  160.6680  203.4760  151.6410 N   0  0  0  0  0  0  0  0  0  0  0  0
  160.9830  203.5990  150.3220 C   0  0  0  0  0  0  0  0  0  0  0  0
  159.5770  201.5330  148.0710 N   0  0  0  0  0  2  0  0  0  0  0  0
  159.8180  201.6770  149.4070 O   0  0  0  0  0  0  0  0  0  0  0  0
  160.8790  201.5330  147.4030 C   0  0  2  0  0  3  0  0  0  0  0  0
  160.9300  202.4500  149.4680 N   0  0  0  0  0  0  0  0  0  0  0  0
  161.7740  202.3060  148.3130 C   0  0  0  0  0  2  0  0  0  0  0  0
  161.4430  203.5260  146.1300 N   0  0  0  0  0  1  0  0  0  0  0  0
  160.7770  202.2380  146.0630 C   0  0  0  0  0  2  0  0  0  0  0  0
  161.6160  211.0950  148.5750 O   0  0  0  0  0  0  0  0  0  0  0  0
  162.6180  212.0710  148.3320 C   0  0  0  0  0  1  0  0  0  0  0  0
  160.7820  206.7950  154.3510 C   0  0  0  0  0  2  0  0  0  0  0  0
  161.1840  208.0600  155.0910 C   0  0  0  0  0  2  0  0  0  0  0  0
  160.0060  208.6140  155.8770 C   0  0  0  0  0  2  0  0  0  0  0  0
  158.4970  210.4400  155.6060 O   0  0  0  0  0  1  0  0  0  0  0  0
  159.6530  209.9830  155.4050 C   0  0  0  0  0  0  0  0  0  0  0  0
  160.5880  210.7450  154.7170 O   0  0  0  0  0  0  0  0  0  0  0  0
  2 10  2  0  0  0  0
  2  5  1  0  0  0  0
  3 11  1  0  0  0  0
  3  8  2  0  0  0  0
  4  1  1  0  0  0  0
  4  6  2  0  0  0  0
  5  7  2  0  0  0  0
  6 24  1  0  0  0  0
  7  6  1  0  0  0  0
  8 12  1  0  0  0  0
  9 14  2  0  0  0  0
  9 10  1  0  0  0  0
 10  4  1  0  0  0  0
 11  2  1  0  0  0  0
 12  5  1  0  0  0  0
 13  1  2  0  0  0  0
 14 13  1  0  0  0  0
 15 16  1  0  0  0  0
 16 18  1  0  0  0  0
 17 21  1  6  0  0  0
 17 15  1  0  0  0  0
 17 19  1  0  0  0  0
 18 14  1  0  0  0  0
 19 18  1  0  0  0  0
 21 20  1  0  0  0  0
 22  8  1  0  0  0  0
 23 22  1  0  0  0  0
 24 25  1  0  0  0  0
 25 26  1  0  0  0  0
 28 27  1  0  0  0  0
 28 26  1  0  0  0  0
 29 28  2  0  0  0  0
M  END
>  <MODEL>
6

>  <REMARK>
 VINA RESULT:      -7.8      3.000      8.038
  Name = 
  7 active torsions:
  status: ('A' for Active; 'I' for Inactive)
    1  A    between atoms: C_2  and  C_16
    2  A    between atoms: C_2  and  C_17
    3  A    between atoms: O_6  and  C_13
    4  A    between atoms: C_11  and  C_24
    5  A    between atoms: C_15  and  C_18
    6  A    between atoms: C_17  and  C_24
    7  A    between atoms: N_23  and  C_27
                            x       y       z     vdW  Elec       q    Type
                         _______ _______ _______ _____ _____    ______ ____

>  <TORSDO>
F 7

$$$$
=
 OpenBabel11052409573D

 29 32  0  0  1  0  0  0  0  0999 V2000
  161.9970  206.9490  147.6320 C   0  0  0  0  0  3  0  0  0  0  0  0
  161.1350  206.3890  151.1970 C   0  0  0  0  0  0  0  0  0  0  0  0
  161.1920  205.5940  153.5120 N   0  0  0  0  0  0  0  0  0  0  0  0
  161.7210  207.2190  148.9780 C   0  0  0  0  0  0  0  0  0  0  0  0
  161.1590  207.7050  151.6840 C   0  0  0  0  0  0  0  0  0  0  0  0
  161.7380  208.5360  149.4800 C   0  0  0  0  0  0  0  0  0  0  0  0
  161.4560  208.7670  150.8300 C   0  0  0  0  0  3  0  0  0  0  0  0
  161.2190  206.8040  153.9920 C   0  0  0  0  0  0  0  0  0  0  0  0
  161.3890  204.8390  149.3240 C   0  0  0  0  0  3  0  0  0  0  0  0
  161.4110  206.1400  149.8400 C   0  0  0  0  0  0  0  0  0  0  0  0
  160.7560  205.2840  152.1480 C   0  0  0  0  0  2  0  0  0  0  0  0
  160.8310  207.9770  153.1220 C   0  0  0  0  0  2  0  0  0  0  0  0
  161.9680  205.6720  147.1650 N   0  0  0  0  0  0  0  0  0  0  0  0
  161.6760  204.6160  147.9720 C   0  0  0  0  0  0  0  0  0  0  0  0
  160.3120  201.6120  147.3140 N   0  0  0  0  0  2  0  0  0  0  0  0
  161.1830  202.2470  148.1530 O   0  0  0  0  0  0  0  0  0  0  0  0
  160.8310  201.7820  145.9560 C   0  0  2  0  0  3  0  0  0  0  0  0
  161.6510  203.2910  147.4260 N   0  0  0  0  0  0  0  0  0  0  0  0
  161.6360  203.0380  146.0110 C   0  0  0  0  0  2  0  0  0  0  0  0
  159.6880  203.2980  144.4370 N   0  0  0  0  0  1  0  0  0  0  0  0
  159.6840  201.9500  144.9780 C   0  0  0  0  0  2  0  0  0  0  0  0
  161.6100  206.9940  155.3190 O   0  0  0  0  0  0  0  0  0  0  0  0
  161.4330  208.2300  155.9940 C   0  0  0  0  0  1  0  0  0  0  0  0
  162.0740  209.7060  148.6120 C   0  0  0  0  0  2  0  0  0  0  0  0
  161.9560  210.9970  149.4060 C   0  0  0  0  0  2  0  0  0  0  0  0
  162.1740  212.2000  148.5020 C   0  0  0  0  0  2  0  0  0  0  0  0
  160.5940  213.8720  149.1280 O   0  0  0  0  0  1  0  0  0  0  0  0
  160.9040  212.9600  148.3180 C   0  0  0  0  0  0  0  0  0  0  0  0
  160.0480  212.6410  147.2730 O   0  0  0  0  0  0  0  0  0  0  0  0
  1  4  1  0  0  0  0
  2  5  1  0  0  0  0
  2 11  1  0  0  0  0
  3  8  2  0  0  0  0
  4  6  2  0  0  0  0
  4 10  1  0  0  0  0
  5 12  1  0  0  0  0
  6  7  1  0  0  0  0
  7  5  2  0  0  0  0
  8 22  1  0  0  0  0
  9 10  1  0  0  0  0
 10  2  2  0  0  0  0
 11  3  1  0  0  0  0
 12  8  1  0  0  0  0
 13  1  2  0  0  0  0
 13 14  1  0  0  0  0
 14  9  2  0  0  0  0
 15 16  1  0  0  0  0
 17 21  1  6  0  0  0
 17 19  1  0  0  0  0
 17 15  1  0  0  0  0
 18 14  1  0  0  0  0
 18 16  1  0  0  0  0
 19 18  1  0  0  0  0
 20 21  1  0  0  0  0
 22 23  1  0  0  0  0
 24 25  1  0  0  0  0
 24  6  1  0  0  0  0
 26 25  1  0  0  0  0
 28 26  1  0  0  0  0
 28 27  1  0  0  0  0
 29 28  2  0  0  0  0
M  END
>  <MODEL>
7

>  <REMARK>
 VINA RESULT:      -7.5      3.003      7.308
  Name = 
  7 active torsions:
  status: ('A' for Active; 'I' for Inactive)
    1  A    between atoms: C_2  and  C_16
    2  A    between atoms: C_2  and  C_17
    3  A    between atoms: O_6  and  C_13
    4  A    between atoms: C_11  and  C_24
    5  A    between atoms: C_15  and  C_18
    6  A    between atoms: C_17  and  C_24
    7  A    between atoms: N_23  and  C_27
                            x       y       z     vdW  Elec       q    Type
                         _______ _______ _______ _____ _____    ______ ____

>  <TORSDO>
F 7

$$$$
=
 OpenBabel11052409573D

 29 32  0  0  1  0  0  0  0  0999 V2000
  161.0360  208.9400  151.7490 C   0  0  0  0  0  3  0  0  0  0  0  0
  161.2130  205.2570  151.3320 C   0  0  0  0  0  0  0  0  0  0  0  0
  160.6570  202.8740  151.4040 N   0  0  0  0  0  0  0  0  0  0  0  0
  161.1320  207.6880  151.1290 C   0  0  0  0  0  0  0  0  0  0  0  0
  161.3230  205.1550  149.9360 C   0  0  0  0  0  0  0  0  0  0  0  0
  161.2470  207.5700  149.7280 C   0  0  0  0  0  0  0  0  0  0  0  0
  161.3420  206.3040  149.1450 C   0  0  0  0  0  3  0  0  0  0  0  0
  160.7480  202.7500  150.1100 C   0  0  0  0  0  0  0  0  0  0  0  0
  161.0170  206.6580  153.3250 C   0  0  0  0  0  3  0  0  0  0  0  0
  161.1220  206.5250  151.9350 C   0  0  0  0  0  0  0  0  0  0  0  0
  161.2510  203.9900  152.1440 C   0  0  0  0  0  2  0  0  0  0  0  0
  161.4540  203.8070  149.2920 C   0  0  0  0  0  2  0  0  0  0  0  0
  160.9340  209.0320  153.1020 N   0  0  0  0  0  0  0  0  0  0  0  0
  160.9200  207.9310  153.9020 C   0  0  0  0  0  0  0  0  0  0  0  0
  161.9450  208.9440  156.9410 N   0  0  0  0  0  2  0  0  0  0  0  0
  161.8830  207.8490  156.1270 O   0  0  0  0  0  0  0  0  0  0  0  0
  160.5690  209.3970  157.1460 C   0  0  2  0  0  3  0  0  0  0  0  0
  160.8180  208.0860  155.3230 N   0  0  0  0  0  0  0  0  0  0  0  0
  159.8280  208.9270  155.9390 C   0  0  0  0  0  2  0  0  0  0  0  0
  160.8990  211.4790  155.9330 N   0  0  0  0  0  1  0  0  0  0  0  0
  160.5250  210.9120  157.2170 C   0  0  0  0  0  2  0  0  0  0  0  0
  160.1850  201.6290  149.4990 O   0  0  0  0  0  0  0  0  0  0  0  0
  160.8520  200.9050  148.4750 C   0  0  0  0  0  1  0  0  0  0  0  0
  161.2470  208.7690  148.8350 C   0  0  0  0  0  2  0  0  0  0  0  0
  162.4820  209.6160  149.0980 C   0  0  0  0  0  2  0  0  0  0  0  0
  162.0910  211.0640  149.3460 C   0  0  0  0  0  2  0  0  0  0  0  0
  161.1640  212.0670  147.3920 O   0  0  0  0  0  0  0  0  0  0  0  0
  162.1910  211.8610  148.0900 C   0  0  0  0  0  0  0  0  0  0  0  0
  163.4210  212.3510  147.6730 O   0  0  0  0  0  1  0  0  0  0  0  0
  1 13  1  0  0  0  0
  2 10  1  0  0  0  0
  2 11  1  0  0  0  0
  3 11  1  0  0  0  0
  4  1  2  0  0  0  0
  4 10  1  0  0  0  0
  5  2  2  0  0  0  0
  6  4  1  0  0  0  0
  7  6  2  0  0  0  0
  7  5  1  0  0  0  0
  8  3  2  0  0  0  0
  9 14  1  0  0  0  0
 10  9  2  0  0  0  0
 12  5  1  0  0  0  0
 12  8  1  0  0  0  0
 13 14  2  0  0  0  0
 14 18  1  0  0  0  0
 15 17  1  0  0  0  0
 16 15  1  0  0  0  0
 17 21  1  6  0  0  0
 18 19  1  0  0  0  0
 18 16  1  0  0  0  0
 19 17  1  0  0  0  0
 20 21  1  0  0  0  0
 22  8  1  0  0  0  0
 23 22  1  0  0  0  0
 24 25  1  0  0  0  0
 24  6  1  0  0  0  0
 25 26  1  0  0  0  0
 27 28  2  0  0  0  0
 28 26  1  0  0  0  0
 29 28  1  0  0  0  0
M  END
>  <MODEL>
8

>  <REMARK>
 VINA RESULT:      -7.1      2.681      7.356
  Name = 
  7 active torsions:
  status: ('A' for Active; 'I' for Inactive)
    1  A    between atoms: C_2  and  C_16
    2  A    between atoms: C_2  and  C_17
    3  A    between atoms: O_6  and  C_13
    4  A    between atoms: C_11  and  C_24
    5  A    between atoms: C_15  and  C_18
    6  A    between atoms: C_17  and  C_24
    7  A    between atoms: N_23  and  C_27
                            x       y       z     vdW  Elec       q    Type
                         _______ _______ _______ _____ _____    ______ ____

>  <TORSDO>
F 7

$$$$
=
 OpenBabel11052409573D

 29 32  0  0  1  0  0  0  0  0999 V2000
  161.7580  207.8350  148.5070 C   0  0  0  0  0  3  0  0  0  0  0  0
  161.1250  207.9690  152.1600 C   0  0  0  0  0  0  0  0  0  0  0  0
  161.2360  207.5130  154.5640 N   0  0  0  0  0  0  0  0  0  0  0  0
  161.6590  208.3420  149.8090 C   0  0  0  0  0  0  0  0  0  0  0  0
  161.4440  209.3090  152.4350 C   0  0  0  0  0  0  0  0  0  0  0  0
  161.9730  209.6860  150.0980 C   0  0  0  0  0  0  0  0  0  0  0  0
  161.8610  210.1580  151.4090 C   0  0  0  0  0  3  0  0  0  0  0  0
  161.5360  208.7490  154.8470 C   0  0  0  0  0  0  0  0  0  0  0  0
  160.9110  206.1510  150.5410 C   0  0  0  0  0  3  0  0  0  0  0  0
  161.2270  207.4810  150.8450 C   0  0  0  0  0  0  0  0  0  0  0  0
  160.6290  207.1090  153.2930 C   0  0  0  0  0  2  0  0  0  0  0  0
  161.3030  209.8410  153.8290 C   0  0  0  0  0  2  0  0  0  0  0  0
  161.4440  206.5370  148.2480 N   0  0  0  0  0  0  0  0  0  0  0  0
  161.0280  205.6860  149.2250 C   0  0  0  0  0  0  0  0  0  0  0  0
  161.7150  202.4850  148.4540 N   0  0  0  0  0  2  0  0  0  0  0  0
  161.3540  203.6800  147.9000 O   0  0  0  0  0  0  0  0  0  0  0  0
  160.6710  202.1310  149.4160 C   0  0  2  0  0  3  0  0  0  0  0  0
  160.7030  204.3300  148.8950 N   0  0  0  0  0  0  0  0  0  0  0  0
  160.0780  203.4360  149.8310 C   0  0  0  0  0  2  0  0  0  0  0  0
  161.5900  202.4180  151.6490 N   0  0  0  0  0  1  0  0  0  0  0  0
  161.2850  201.4410  150.6200 C   0  0  0  0  0  2  0  0  0  0  0  0
  162.0720  209.0410  156.1020 O   0  0  0  0  0  0  0  0  0  0  0  0
  162.5640  210.3300  156.4380 C   0  0  0  0  0  1  0  0  0  0  0  0
  162.4470  210.6300  149.0390 C   0  0  0  0  0  2  0  0  0  0  0  0
  161.6710  211.9340  149.1160 C   0  0  0  0  0  2  0  0  0  0  0  0
  162.2940  212.9790  148.2040 C   0  0  0  0  0  2  0  0  0  0  0  0
  162.4240  213.1930  145.8330 O   0  0  0  0  0  0  0  0  0  0  0  0
  161.7180  212.8920  146.8310 C   0  0  0  0  0  0  0  0  0  0  0  0
  160.3950  212.5110  146.6540 O   0  0  0  0  0  1  0  0  0  0  0  0
  1  4  1  0  0  0  0
  2  5  1  0  0  0  0
  2 11  1  0  0  0  0
  3  8  2  0  0  0  0
  4  6  2  0  0  0  0
  4 10  1  0  0  0  0
  5 12  1  0  0  0  0
  6  7  1  0  0  0  0
  7  5  2  0  0  0  0
  8 22  1  0  0  0  0
  9 10  1  0  0  0  0
 10  2  2  0  0  0  0
 11  3  1  0  0  0  0
 12  8  1  0  0  0  0
 13  1  2  0  0  0  0
 13 14  1  0  0  0  0
 14  9  2  0  0  0  0
 15 17  1  0  0  0  0
 16 15  1  0  0  0  0
 16 18  1  0  0  0  0
 17 19  1  0  0  0  0
 17 21  1  1  0  0  0
 18 14  1  0  0  0  0
 18 19  1  0  0  0  0
 21 20  1  0  0  0  0
 22 23  1  0  0  0  0
 24 25  1  0  0  0  0
 24  6  1  0  0  0  0
 26 25  1  0  0  0  0
 27 28  2  0  0  0  0
 28 26  1  0  0  0  0
 29 28  1  0  0  0  0
M  END
>  <MODEL>
9

>  <REMARK>
 VINA RESULT:      -6.9      2.627      7.323
  Name = 
  7 active torsions:
  status: ('A' for Active; 'I' for Inactive)
    1  A    between atoms: C_2  and  C_16
    2  A    between atoms: C_2  and  C_17
    3  A    between atoms: O_6  and  C_13
    4  A    between atoms: C_11  and  C_24
    5  A    between atoms: C_15  and  C_18
    6  A    between atoms: C_17  and  C_24
    7  A    between atoms: N_23  and  C_27
                            x       y       z     vdW  Elec       q    Type
                         _______ _______ _______ _____ _____    ______ ____

>  <TORSDO>
F 7

$$$$
