=
 OpenBabel11052410383D

 47 52  0  0  1  0  0  0  0  0999 V2000
  157.7790  213.3520  153.9820 C   0  0  0  0  0  0  0  0  0  0  0  0
  156.6710  213.5390  154.6900 C   0  0  0  0  0  0  0  0  0  0  0  0
  156.1750  214.2450  157.1540 C   0  0  0  0  0  1  0  0  0  0  0  0
  161.4360  209.7200  152.9050 C   0  0  1  0  0  3  0  0  0  0  0  0
  157.8560  213.0370  152.5850 N   0  0  0  0  0  0  0  0  0  0  0  0
  158.9720  213.6050  154.8430 C   0  0  2  0  0  3  0  0  0  0  0  0
  161.5740  208.3830  153.6280 C   0  0  1  0  0  3  0  0  0  0  0  0
  161.4610  210.7520  154.0130 C   0  0  2  0  0  3  0  0  0  0  0  0
  156.7230  212.9220  151.8500 O   0  0  0  0  0  1  0  0  0  0  0  0
  159.1280  212.9920  151.9220 C   0  0  0  0  0  0  0  0  0  0  0  0
  160.2970  212.4400  152.5450 N   0  0  0  0  0  2  0  0  0  0  0  0
  158.3310  214.2550  147.1730 C   0  0  0  0  0  2  0  0  0  0  0  0
  159.3040  213.6560  149.4040 C   0  0  0  0  0  0  0  0  0  0  0  0
  159.8080  212.3540  154.9400 C   0  0  0  0  0  0  0  0  0  0  0  0
  161.2300  209.9730  155.2120 N   0  0  0  0  0  0  0  0  0  0  0  0
  159.9770  211.6960  156.2610 C   0  0  0  0  0  3  0  0  0  0  0  0
  160.8300  212.6340  147.7160 C   0  0  0  0  0  3  0  0  0  0  0  0
  157.0880  213.9200  156.0240 C   0  0  0  0  0  0  0  0  0  0  0  0
  161.3100  208.5850  155.0520 N   0  0  0  0  0  2  0  0  0  0  0  0
  160.4220  211.8420  153.8450 C   0  0  0  0  0  0  0  0  0  0  0  0
  158.3750  213.9680  156.1300 N   0  0  0  0  0  0  0  0  0  0  0  0
  158.0710  214.0770  148.6640 C   0  0  0  0  0  2  0  0  0  0  0  0
  160.6360  210.5470  156.3740 C   0  0  0  0  0  3  0  0  0  0  0  0
  155.2620  213.4270  154.2150 C   0  0  0  0  0  1  0  0  0  0  0  0
  160.6510  213.7060  148.7560 C   0  0  0  0  0  2  0  0  0  0  0  0
  158.5770  212.8990  146.5230 C   0  0  0  0  0  2  0  0  0  0  0  0
  159.9570  212.3250  146.7400 C   0  0  0  0  0  3  0  0  0  0  0  0
  159.2120  213.3270  150.6620 C   0  0  0  0  0  0  0  0  0  0  0  0
  162.6270  209.9030  151.9770 C   0  0  0  0  0  2  0  0  0  0  0  0
  162.1590  210.1290  150.5520 C   0  0  0  0  0  2  0  0  0  0  0  0
  162.2080  208.8510  149.7950 C   0  0  0  0  0  0  0  0  0  0  0  0
  162.8390  207.8670  150.2600 O   0  0  0  0  0  1  0  0  0  0  0  0
  161.5830  208.7500  148.5600 O   0  0  0  0  0  0  0  0  0  0  0  0
  160.5910  207.3780  153.0460 C   0  0  0  0  0  2  0  0  0  0  0  0
  161.0770  205.9480  153.2460 C   0  0  0  0  0  2  0  0  0  0  0  0
  161.2210  203.0860  150.7640 C   0  0  0  0  0  3  0  0  0  0  0  0
  160.6780  205.1190  149.5730 C   0  0  0  0  0  3  0  0  0  0  0  0
  161.0380  205.1800  151.9660 C   0  0  0  0  0  0  0  0  0  0  0  0
  160.7340  205.8370  150.7700 C   0  0  0  0  0  3  0  0  0  0  0  0
  161.2790  203.8020  151.9620 C   0  0  0  0  0  3  0  0  0  0  0  0
  160.9260  203.7380  149.5620 C   0  0  0  0  0  0  0  0  0  0  0  0
  160.8590  202.9660  148.3560 N   0  0  0  0  0  2  0  0  0  0  0  0
  161.4450  203.3050  147.0930 C   0  0  0  0  0  0  0  0  0  0  0  0
  161.2070  202.5670  146.1010 O   0  0  0  0  0  0  0  0  0  0  0  0
  162.2850  204.4250  146.9760 O   0  0  0  0  0  0  0  0  0  0  0  0
  162.0550  205.5580  146.1810 C   0  0  0  0  0  3  0  0  0  0  0  0
  160.8540  206.0850  145.9730 C   0  0  0  0  0  2  0  0  0  0  0  0
  1  2  2  0  0  0  0
  2 18  1  0  0  0  0
  4 29  1  6  0  0  0
  4  7  1  0  0  0  0
  4  8  1  0  0  0  0
  5  1  1  0  0  0  0
  6  1  1  6  0  0  0
  6 14  1  0  0  0  0
  6 21  1  0  0  0  0
  7 34  1  6  0  0  0
  7 19  1  0  0  0  0
  8 20  1  6  0  0  0
  8 15  1  0  0  0  0
  9  5  1  0  0  0  0
 10 11  1  0  0  0  0
 10  5  1  0  0  0  0
 11 20  1  0  0  0  0
 12 22  1  0  0  0  0
 13 28  2  0  0  0  0
 14 16  1  0  0  0  0
 15 23  1  0  0  0  0
 16 23  2  0  0  0  0
 17 25  1  0  0  0  0
 18 21  2  0  0  0  0
 18  3  1  0  0  0  0
 19 15  1  0  0  0  0
 20 14  2  0  0  0  0
 22 13  1  0  0  0  0
 24  2  1  0  0  0  0
 25 13  1  0  0  0  0
 26 27  1  0  0  0  0
 26 12  1  0  0  0  0
 27 17  2  0  0  0  0
 28 10  2  0  0  0  0
 30 29  1  0  0  0  0
 31 32  1  0  0  0  0
 31 30  1  0  0  0  0
 33 31  2  0  0  0  0
 34 35  1  0  0  0  0
 36 40  1  0  0  0  0
 37 39  2  0  0  0  0
 38 35  1  0  0  0  0
 39 38  1  0  0  0  0
 40 38  2  0  0  0  0
 41 37  1  0  0  0  0
 41 36  2  0  0  0  0
 42 41  1  0  0  0  0
 43 42  1  0  0  0  0
 44 43  2  0  0  0  0
 45 43  1  0  0  0  0
 46 45  1  0  0  0  0
 47 46  2  0  0  0  0
M  END
>  <MODEL>
1

>  <REMARK>
 VINA RESULT:      -8.9      0.000      0.000
  Name = 
  9 active torsions:
  status: ('A' for Active; 'I' for Inactive)
    1  A    between atoms: C_2  and  O_47
    2  A    between atoms: C_4  and  C_46
    3  A    between atoms: C_6  and  C_18
    4  A    between atoms: N_9  and  C_40
    5  A    between atoms: C_10  and  O_47
    6  A    between atoms: C_12  and  C_45
    7  A    between atoms: C_18  and  C_46
    8  A    between atoms: C_29  and  C_31
    9  A    between atoms: C_29  and  C_45
                            x       y       z     vdW  Elec       q    Type
                         _______ _______ _______ _____ _____    ______ ____

>  <TORSDO>
F 9

$$$$
=
 OpenBabel11052410383D

 47 52  0  0  1  0  0  0  0  0999 V2000
  157.3310  213.5950  151.4590 C   0  0  0  0  0  0  0  0  0  0  0  0
  156.0180  213.7430  151.5940 C   0  0  0  0  0  0  0  0  0  0  0  0
  154.4540  214.4530  153.5600 C   0  0  0  0  0  1  0  0  0  0  0  0
  161.2010  210.1060  152.2230 C   0  0  1  0  0  3  0  0  0  0  0  0
  158.0330  213.2690  150.2510 N   0  0  0  0  0  0  0  0  0  0  0  0
  158.0070  213.9050  152.7540 C   0  0  2  0  0  3  0  0  0  0  0  0
  161.0440  208.7830  152.9680 C   0  0  1  0  0  3  0  0  0  0  0  0
  160.6950  211.1490  153.1970 C   0  0  2  0  0  3  0  0  0  0  0  0
  157.3500  213.1000  149.0920 O   0  0  0  0  0  1  0  0  0  0  0  0
  159.4690  213.2690  150.2250 C   0  0  0  0  0  0  0  0  0  0  0  0
  160.2540  212.7730  151.3180 N   0  0  0  0  0  2  0  0  0  0  0  0
  160.8310  214.4490  145.5850 C   0  0  0  0  0  2  0  0  0  0  0  0
  160.7260  213.9140  148.0320 C   0  0  0  0  0  0  0  0  0  0  0  0
  158.7520  212.6910  153.2470 C   0  0  0  0  0  0  0  0  0  0  0  0
  159.9790  210.3730  154.1880 N   0  0  0  0  0  0  0  0  0  0  0  0
  158.3350  212.0550  154.5220 C   0  0  0  0  0  3  0  0  0  0  0  0
  162.8770  212.9390  147.2270 C   0  0  0  0  0  3  0  0  0  0  0  0
  155.7850  214.1550  152.9640 C   0  0  0  0  0  0  0  0  0  0  0  0
  160.1670  208.9890  154.1190 N   0  0  0  0  0  2  0  0  0  0  0  0
  159.8060  212.1930  152.5540 C   0  0  0  0  0  0  0  0  0  0  0  0
  156.8870  214.2560  153.6290 N   0  0  0  0  0  0  0  0  0  0  0  0
  159.9390  214.2760  146.8090 C   0  0  0  0  0  2  0  0  0  0  0  0
  158.9120  210.9340  154.9490 C   0  0  0  0  0  3  0  0  0  0  0  0
  154.9730  213.5690  150.5450 C   0  0  0  0  0  1  0  0  0  0  0  0
  162.2180  214.0130  148.0490 C   0  0  0  0  0  2  0  0  0  0  0  0
  161.3850  213.0980  145.1500 C   0  0  0  0  0  2  0  0  0  0  0  0
  162.5410  212.5840  145.9740 C   0  0  0  0  0  3  0  0  0  0  0  0
  160.0940  213.5940  149.1250 C   0  0  0  0  0  0  0  0  0  0  0  0
  162.6730  210.3280  151.9170 C   0  0  0  0  0  2  0  0  0  0  0  0
  162.8510  210.8290  150.4950 C   0  0  0  0  0  2  0  0  0  0  0  0
  162.3450  209.8130  149.5350 C   0  0  0  0  0  0  0  0  0  0  0  0
  162.5210  208.5890  149.7630 O   0  0  0  0  0  1  0  0  0  0  0  0
  161.7050  210.2160  148.3710 O   0  0  0  0  0  0  0  0  0  0  0  0
  160.4570  207.7320  152.0370 C   0  0  0  0  0  2  0  0  0  0  0  0
  160.9600  206.3380  152.3880 C   0  0  0  0  0  2  0  0  0  0  0  0
  160.7290  203.2510  150.1990 C   0  0  0  0  0  3  0  0  0  0  0  0
  161.1700  205.1670  148.7940 C   0  0  0  0  0  3  0  0  0  0  0  0
  160.9680  205.4480  151.1900 C   0  0  0  0  0  0  0  0  0  0  0  0
  161.1800  205.9940  149.9200 C   0  0  0  0  0  3  0  0  0  0  0  0
  160.7400  204.0750  151.3280 C   0  0  0  0  0  3  0  0  0  0  0  0
  160.9480  203.7880  148.9270 C   0  0  0  0  0  0  0  0  0  0  0  0
  160.9120  202.9140  147.7920 N   0  0  0  0  0  2  0  0  0  0  0  0
  161.4550  203.1800  146.4930 C   0  0  0  0  0  0  0  0  0  0  0  0
  161.2500  202.3460  145.5720 O   0  0  0  0  0  0  0  0  0  0  0  0
  162.2190  204.3370  146.2640 O   0  0  0  0  0  0  0  0  0  0  0  0
  161.8280  205.4570  145.5160 C   0  0  0  0  0  3  0  0  0  0  0  0
  161.1180  205.3890  144.3960 C   0  0  0  0  0  2  0  0  0  0  0  0
  1  2  2  0  0  0  0
  2 18  1  0  0  0  0
  4 29  1  1  0  0  0
  4  7  1  0  0  0  0
  4  8  1  0  0  0  0
  5  1  1  0  0  0  0
  6  1  1  6  0  0  0
  6 14  1  0  0  0  0
  6 21  1  0  0  0  0
  7 34  1  6  0  0  0
  7 19  1  0  0  0  0
  8 20  1  6  0  0  0
  8 15  1  0  0  0  0
  9  5  1  0  0  0  0
 10  5  1  0  0  0  0
 10 11  1  0  0  0  0
 11 20  1  0  0  0  0
 12 22  1  0  0  0  0
 13 25  1  0  0  0  0
 13 28  2  0  0  0  0
 14 16  1  0  0  0  0
 15 23  1  0  0  0  0
 16 23  2  0  0  0  0
 17 25  1  0  0  0  0
 18  3  1  0  0  0  0
 18 21  2  0  0  0  0
 19 15  1  0  0  0  0
 20 14  2  0  0  0  0
 22 13  1  0  0  0  0
 24  2  1  0  0  0  0
 26 12  1  0  0  0  0
 26 27  1  0  0  0  0
 27 17  2  0  0  0  0
 28 10  2  0  0  0  0
 30 29  1  0  0  0  0
 31 32  1  0  0  0  0
 31 30  1  0  0  0  0
 33 31  2  0  0  0  0
 34 35  1  0  0  0  0
 36 40  1  0  0  0  0
 37 41  1  0  0  0  0
 37 39  2  0  0  0  0
 38 40  2  0  0  0  0
 38 35  1  0  0  0  0
 39 38  1  0  0  0  0
 41 36  2  0  0  0  0
 42 41  1  0  0  0  0
 43 42  1  0  0  0  0
 44 43  2  0  0  0  0
 45 43  1  0  0  0  0
 46 45  1  0  0  0  0
 47 46  2  0  0  0  0
M  END
>  <MODEL>
2

>  <REMARK>
 VINA RESULT:      -6.6      1.541      1.952
  Name = 
  9 active torsions:
  status: ('A' for Active; 'I' for Inactive)
    1  A    between atoms: C_2  and  O_47
    2  A    between atoms: C_4  and  C_46
    3  A    between atoms: C_6  and  C_18
    4  A    between atoms: N_9  and  C_40
    5  A    between atoms: C_10  and  O_47
    6  A    between atoms: C_12  and  C_45
    7  A    between atoms: C_18  and  C_46
    8  A    between atoms: C_29  and  C_31
    9  A    between atoms: C_29  and  C_45
                            x       y       z     vdW  Elec       q    Type
                         _______ _______ _______ _____ _____    ______ ____

>  <TORSDO>
F 9

$$$$
