=
 OpenBabel11052409283D

 35 39  0  0  1  0  0  0  0  0999 V2000
  161.7110  207.6000  150.3690 C   0  0  1  0  0  3  0  0  0  0  0  0
  161.1860  205.5190  153.8640 C   0  0  0  0  0  3  0  0  0  0  0  0
  161.2280  206.6410  149.5800 C   0  0  0  0  0  0  0  0  0  0  0  0
  161.2690  205.3780  150.3250 C   0  0  0  0  0  0  0  0  0  0  0  0
  161.4670  207.7240  152.7910 C   0  0  0  0  0  0  0  0  0  0  0  0
  161.4690  204.8410  152.7420 C   0  0  0  0  0  3  0  0  0  0  0  0
  161.8450  209.7260  151.4650 O   0  0  0  0  0  0  0  0  0  0  0  0
  160.4460  206.8890  148.3340 C   0  0  0  0  0  1  0  0  0  0  0  0
  161.0890  207.0120  153.8880 C   0  0  0  0  0  0  0  0  0  0  0  0
  161.1510  209.1940  152.5820 C   0  0  0  0  0  2  0  0  0  0  0  0
  161.4150  209.0750  150.2790 C   0  0  1  0  0  3  0  0  0  0  0  0
  162.1840  207.0350  151.6570 C   0  0  1  0  0  3  0  0  0  0  0  0
  161.7500  205.6200  151.5350 C   0  0  2  0  0  3  0  0  0  0  0  0
  160.5040  207.6360  155.1000 C   0  0  0  0  0  0  0  0  0  0  0  0
  159.3490  207.3040  155.4760 O   0  0  0  0  0  0  0  0  0  0  0  0
  161.2360  208.5770  155.8830 N   0  0  0  0  0  1  0  0  0  0  0  0
  160.5870  204.1680  149.9740 N   0  0  0  0  0  2  0  0  0  0  0  0
  161.2640  203.0310  149.5050 N   0  0  0  0  0  2  0  0  0  0  0  0
  162.0600  204.2050  144.9180 C   0  0  0  0  0  3  0  0  0  0  0  0
  162.4970  204.2960  147.2490 N   0  0  0  0  0  0  0  0  0  0  0  0
  160.8690  202.8250  148.1710 N   0  0  0  0  0  2  0  0  0  0  0  0
  161.5070  203.4950  147.0810 C   0  0  0  0  0  0  0  0  0  0  0  0
  162.9520  204.8350  145.9830 C   0  0  0  0  0  3  0  0  0  0  0  0
  161.0840  203.3180  145.6790 C   0  0  0  0  0  2  0  0  0  0  0  0
  162.1460  209.6760  149.0890 C   0  0  0  0  0  2  0  0  0  0  0  0
  162.1340  211.1920  149.1850 C   0  0  0  0  0  2  0  0  0  0  0  0
  162.0200  211.8030  147.7990 C   0  0  2  0  0  3  0  0  0  0  0  0
  162.7460  213.8970  147.8960 C   0  0  0  0  0  1  0  0  0  0  0  0
  163.1370  212.6030  147.5400 O   0  0  0  0  0  0  0  0  0  0  0  0
  160.7580  212.6510  147.7420 C   0  0  0  0  0  2  0  0  0  0  0  0
  157.8910  212.6360  145.8660 C   0  0  0  0  0  2  0  0  0  0  0  0
  158.5840  212.6220  147.0850 O   0  0  0  0  0  0  0  0  0  0  0  0
  158.9020  212.8580  144.7790 C   0  0  0  0  0  2  0  0  0  0  0  0
  160.1810  212.5410  145.4790 C   0  0  0  0  0  2  0  0  0  0  0  0
  159.8030  212.0780  146.8040 N   0  0  0  0  0  0  0  0  0  0  0  0
  1  3  1  1  0  0  0
  1 12  1  0  0  0  0
  2  9  1  0  0  0  0
  3  4  2  0  0  0  0
  4 13  1  0  0  0  0
  5  9  2  0  0  0  0
  6  2  2  0  0  0  0
  7 10  1  0  0  0  0
  8  3  1  0  0  0  0
  9 14  1  0  0  0  0
 10  5  1  0  0  0  0
 11 25  1  6  0  0  0
 11  1  1  0  0  0  0
 11  7  1  0  0  0  0
 12  5  1  1  0  0  0
 13 12  1  0  0  0  0
 13  6  1  1  0  0  0
 14 15  2  0  0  0  0
 14 16  1  0  0  0  0
 17  4  1  0  0  0  0
 18 17  1  0  0  0  0
 19 24  1  0  0  0  0
 19 23  2  0  0  0  0
 21 18  1  0  0  0  0
 22 20  2  0  0  0  0
 22 21  1  0  0  0  0
 23 20  1  0  0  0  0
 24 22  1  0  0  0  0
 25 26  1  0  0  0  0
 27 30  1  1  0  0  0
 27 26  1  0  0  0  0
 29 27  1  0  0  0  0
 29 28  1  0  0  0  0
 31 32  1  0  0  0  0
 33 34  1  0  0  0  0
 33 31  1  0  0  0  0
 34 35  1  0  0  0  0
 35 32  1  0  0  0  0
 35 30  1  0  0  0  0
M  END
>  <MODEL>
1

>  <REMARK>
 VINA RESULT:      -7.9      0.000      0.000
  Name = 
  10 active torsions:
  status: ('A' for Active; 'I' for Inactive)
    1  A    between atoms: C_1  and  C_26
    2  A    between atoms: C_5  and  C_25
    3  A    between atoms: C_5  and  C_29
    4  A    between atoms: N_6  and  C_11
    5  A    between atoms: N_6  and  N_19
    6  A    between atoms: C_9  and  C_29
    7  A    between atoms: C_9  and  N_30
    8  A    between atoms: O_16  and  C_29
    9  A    between atoms: N_18  and  N_19
   10  A    between atoms: C_25  and  C_31
                            x       y       z     vdW  Elec       q    Type
                         _______ _______ _______ _____ _____    ______ ____

>  <TORSDO>
F 10

$$$$
=
 OpenBabel11052409283D

 35 39  0  0  1  0  0  0  0  0999 V2000
  161.0150  207.6000  151.4180 C   0  0  1  0  0  3  0  0  0  0  0  0
  161.2240  210.4140  154.3960 C   0  0  0  0  0  3  0  0  0  0  0  0
  161.6350  208.3430  150.5030 C   0  0  0  0  0  0  0  0  0  0  0  0
  161.5680  209.7430  150.9330 C   0  0  0  0  0  0  0  0  0  0  0  0
  160.9630  208.0280  153.8180 C   0  0  0  0  0  0  0  0  0  0  0  0
  161.1100  210.8230  153.1240 C   0  0  0  0  0  3  0  0  0  0  0  0
  160.6460  205.7840  152.9380 O   0  0  0  0  0  0  0  0  0  0  0  0
  162.5450  207.8000  149.4530 C   0  0  0  0  0  1  0  0  0  0  0  0
  161.2430  208.9640  154.7660 C   0  0  0  0  0  0  0  0  0  0  0  0
  161.2280  206.5430  153.9850 C   0  0  0  0  0  2  0  0  0  0  0  0
  161.2440  206.1380  151.7000 C   0  0  1  0  0  3  0  0  0  0  0  0
  160.4200  208.4550  152.4770 C   0  0  1  0  0  3  0  0  0  0  0  0
  160.9360  209.7940  152.0960 C   0  0  2  0  0  3  0  0  0  0  0  0
  161.6480  208.6210  156.1510 C   0  0  0  0  0  0  0  0  0  0  0  0
  162.6200  209.2210  156.6830 O   0  0  0  0  0  0  0  0  0  0  0  0
  160.9360  207.6550  156.9200 N   0  0  0  0  0  1  0  0  0  0  0  0
  162.3460  210.8250  150.4090 N   0  0  0  0  0  2  0  0  0  0  0  0
  162.1960  211.2930  149.0940 N   0  0  0  0  0  2  0  0  0  0  0  0
  159.0740  214.0480  146.7020 C   0  0  0  0  0  3  0  0  0  0  0  0
  160.5000  212.1680  146.9560 N   0  0  0  0  0  0  0  0  0  0  0  0
  161.3920  212.4460  149.1450 N   0  0  0  0  0  2  0  0  0  0  0  0
  160.5760  212.8480  148.0430 C   0  0  0  0  0  0  0  0  0  0  0  0
  159.6030  212.7980  146.0070 C   0  0  0  0  0  3  0  0  0  0  0  0
  159.7530  214.0730  148.0650 C   0  0  0  0  0  2  0  0  0  0  0  0
  160.6310  205.2960  150.5930 C   0  0  0  0  0  2  0  0  0  0  0  0
  161.3540  203.9640  150.4920 C   0  0  0  0  0  2  0  0  0  0  0  0
  160.7430  203.1200  149.3860 C   0  0  2  0  0  3  0  0  0  0  0  0
  161.1570  201.0140  148.8250 C   0  0  0  0  0  1  0  0  0  0  0  0
  160.5870  201.8030  149.8290 O   0  0  0  0  0  0  0  0  0  0  0  0
  161.6710  203.1490  148.1810 C   0  0  0  0  0  2  0  0  0  0  0  0
  162.2130  205.7630  146.0330 C   0  0  0  0  0  2  0  0  0  0  0  0
  162.2130  205.1730  147.3050 O   0  0  0  0  0  0  0  0  0  0  0  0
  161.8850  204.6860  145.0400 C   0  0  0  0  0  2  0  0  0  0  0  0
  161.3160  203.6210  145.9190 C   0  0  0  0  0  2  0  0  0  0  0  0
  161.2640  204.1950  147.2530 N   0  0  0  0  0  0  0  0  0  0  0  0
  1  3  1  1  0  0  0
  1 11  1  0  0  0  0
  1 12  1  0  0  0  0
  2  9  1  0  0  0  0
  3  4  2  0  0  0  0
  4 13  1  0  0  0  0
  5 10  1  0  0  0  0
  5  9  2  0  0  0  0
  6  2  2  0  0  0  0
  7 10  1  0  0  0  0
  8  3  1  0  0  0  0
  9 14  1  0  0  0  0
 11 25  1  6  0  0  0
 11  7  1  0  0  0  0
 12  5  1  1  0  0  0
 13 12  1  0  0  0  0
 13  6  1  1  0  0  0
 14 15  2  0  0  0  0
 14 16  1  0  0  0  0
 17  4  1  0  0  0  0
 18 21  1  0  0  0  0
 18 17  1  0  0  0  0
 19 24  1  0  0  0  0
 20 22  2  0  0  0  0
 22 24  1  0  0  0  0
 22 21  1  0  0  0  0
 23 19  2  0  0  0  0
 23 20  1  0  0  0  0
 26 25  1  0  0  0  0
 27 30  1  6  0  0  0
 27 29  1  0  0  0  0
 27 26  1  0  0  0  0
 28 29  1  0  0  0  0
 31 32  1  0  0  0  0
 33 34  1  0  0  0  0
 33 31  1  0  0  0  0
 34 35  1  0  0  0  0
 35 32  1  0  0  0  0
 35 30  1  0  0  0  0
M  END
>  <MODEL>
2

>  <REMARK>
 VINA RESULT:      -7.8      2.534      7.086
  Name = 
  10 active torsions:
  status: ('A' for Active; 'I' for Inactive)
    1  A    between atoms: C_1  and  C_26
    2  A    between atoms: C_5  and  C_25
    3  A    between atoms: C_5  and  C_29
    4  A    between atoms: N_6  and  C_11
    5  A    between atoms: N_6  and  N_19
    6  A    between atoms: C_9  and  C_29
    7  A    between atoms: C_9  and  N_30
    8  A    between atoms: O_16  and  C_29
    9  A    between atoms: N_18  and  N_19
   10  A    between atoms: C_25  and  C_31
                            x       y       z     vdW  Elec       q    Type
                         _______ _______ _______ _____ _____    ______ ____

>  <TORSDO>
F 10

$$$$
=
 OpenBabel11052409283D

 35 39  0  0  1  0  0  0  0  0999 V2000
  161.7310  207.9490  150.2750 C   0  0  1  0  0  3  0  0  0  0  0  0
  161.1700  206.2210  153.9520 C   0  0  0  0  0  3  0  0  0  0  0  0
  161.2820  206.9060  149.5780 C   0  0  0  0  0  0  0  0  0  0  0  0
  161.3300  205.7260  150.4470 C   0  0  0  0  0  0  0  0  0  0  0  0
  161.4350  208.3120  152.6670 C   0  0  0  0  0  0  0  0  0  0  0  0
  161.4890  205.4390  152.9100 C   0  0  0  0  0  3  0  0  0  0  0  0
  161.8050  210.1770  151.1530 O   0  0  0  0  0  0  0  0  0  0  0  0
  160.5220  207.0120  148.2990 C   0  0  0  0  0  1  0  0  0  0  0  0
  161.0470  207.7070  153.8230 C   0  0  0  0  0  0  0  0  0  0  0  0
  161.0970  209.7460  152.3040 C   0  0  0  0  0  2  0  0  0  0  0  0
  161.4120  209.4010  150.0310 C   0  0  1  0  0  3  0  0  0  0  0  0
  162.1880  207.5270  151.6230 C   0  0  1  0  0  3  0  0  0  0  0  0
  161.7810  206.0980  151.6360 C   0  0  2  0  0  3  0  0  0  0  0  0
  160.4260  208.4380  154.9550 C   0  0  0  0  0  0  0  0  0  0  0  0
  159.5730  207.8590  155.6780 O   0  0  0  0  0  0  0  0  0  0  0  0
  160.8030  209.7760  155.2760 N   0  0  0  0  0  1  0  0  0  0  0  0
  160.6770  204.4740  150.2070 N   0  0  0  0  0  2  0  0  0  0  0  0
  161.3690  203.3370  149.7600 N   0  0  0  0  0  2  0  0  0  0  0  0
  162.0460  204.1440  145.0760 C   0  0  0  0  0  3  0  0  0  0  0  0
  162.5710  204.3820  147.3780 N   0  0  0  0  0  0  0  0  0  0  0  0
  160.9180  203.0530  148.4580 N   0  0  0  0  0  2  0  0  0  0  0  0
  161.5430  203.6150  147.3030 C   0  0  0  0  0  0  0  0  0  0  0  0
  163.0010  204.8090  146.0620 C   0  0  0  0  0  3  0  0  0  0  0  0
  161.0620  203.3580  145.9310 C   0  0  0  0  0  2  0  0  0  0  0  0
  162.1570  209.8940  148.8010 C   0  0  0  0  0  2  0  0  0  0  0  0
  162.4200  211.3850  148.9160 C   0  0  0  0  0  2  0  0  0  0  0  0
  161.2320  212.1690  148.3850 C   0  0  2  0  0  3  0  0  0  0  0  0
  162.1100  213.0670  146.5560 C   0  0  0  0  0  1  0  0  0  0  0  0
  161.2020  212.0950  146.9890 O   0  0  0  0  0  0  0  0  0  0  0  0
  161.3710  213.6200  148.8190 C   0  0  0  0  0  2  0  0  0  0  0  0
  158.0190  213.4520  149.5100 C   0  0  0  0  0  2  0  0  0  0  0  0
  159.1080  213.5730  148.6340 O   0  0  0  0  0  0  0  0  0  0  0  0
  158.5720  213.1500  150.8720 C   0  0  0  0  0  2  0  0  0  0  0  0
  160.0050  213.5370  150.7140 C   0  0  0  0  0  2  0  0  0  0  0  0
  160.1180  214.1040  149.3820 N   0  0  0  0  0  0  0  0  0  0  0  0
  1  3  1  1  0  0  0
  1 12  1  0  0  0  0
  3  4  2  0  0  0  0
  4 13  1  0  0  0  0
  5  9  2  0  0  0  0
  6  2  2  0  0  0  0
  7 10  1  0  0  0  0
  8  3  1  0  0  0  0
  9  2  1  0  0  0  0
  9 14  1  0  0  0  0
 10  5  1  0  0  0  0
 11 25  1  6  0  0  0
 11  1  1  0  0  0  0
 11  7  1  0  0  0  0
 12 13  1  0  0  0  0
 12  5  1  1  0  0  0
 13  6  1  1  0  0  0
 14 16  1  0  0  0  0
 14 15  2  0  0  0  0
 17  4  1  0  0  0  0
 18 17  1  0  0  0  0
 19 24  1  0  0  0  0
 19 23  2  0  0  0  0
 21 18  1  0  0  0  0
 22 20  2  0  0  0  0
 22 21  1  0  0  0  0
 23 20  1  0  0  0  0
 24 22  1  0  0  0  0
 25 26  1  0  0  0  0
 27 30  1  6  0  0  0
 27 26  1  0  0  0  0
 28 29  1  0  0  0  0
 29 27  1  0  0  0  0
 30 35  1  0  0  0  0
 31 33  1  0  0  0  0
 32 35  1  0  0  0  0
 32 31  1  0  0  0  0
 34 33  1  0  0  0  0
 35 34  1  0  0  0  0
M  END
>  <MODEL>
3

>  <REMARK>
 VINA RESULT:      -7.5      1.401      1.792
  Name = 
  10 active torsions:
  status: ('A' for Active; 'I' for Inactive)
    1  A    between atoms: C_1  and  C_26
    2  A    between atoms: C_5  and  C_25
    3  A    between atoms: C_5  and  C_29
    4  A    between atoms: N_6  and  C_11
    5  A    between atoms: N_6  and  N_19
    6  A    between atoms: C_9  and  C_29
    7  A    between atoms: C_9  and  N_30
    8  A    between atoms: O_16  and  C_29
    9  A    between atoms: N_18  and  N_19
   10  A    between atoms: C_25  and  C_31
                            x       y       z     vdW  Elec       q    Type
                         _______ _______ _______ _____ _____    ______ ____

>  <TORSDO>
F 10

$$$$
=
 OpenBabel11052409283D

 35 39  0  0  1  0  0  0  0  0999 V2000
  161.3100  207.9520  149.9060 C   0  0  1  0  0  3  0  0  0  0  0  0
  161.0280  203.8860  149.4420 C   0  0  0  0  0  3  0  0  0  0  0  0
  161.6690  207.9060  151.1870 C   0  0  0  0  0  0  0  0  0  0  0  0
  161.2930  206.5900  151.7160 C   0  0  0  0  0  0  0  0  0  0  0  0
  161.3160  206.0790  148.3450 C   0  0  0  0  0  0  0  0  0  0  0  0
  160.7330  204.4250  150.6340 C   0  0  0  0  0  3  0  0  0  0  0  0
  161.4950  208.3700  147.5530 O   0  0  0  0  0  0  0  0  0  0  0  0
  162.6110  208.8640  151.8330 C   0  0  0  0  0  1  0  0  0  0  0  0
  161.4230  204.7250  148.2660 C   0  0  0  0  0  0  0  0  0  0  0  0
  161.9440  207.0400  147.3530 C   0  0  0  0  0  2  0  0  0  0  0  0
  161.9060  208.8270  148.8330 C   0  0  1  0  0  3  0  0  0  0  0  0
  160.5980  206.7100  149.5110 C   0  0  1  0  0  3  0  0  0  0  0  0
  160.7460  205.8850  150.7370 C   0  0  2  0  0  3  0  0  0  0  0  0
  161.9910  204.0210  147.0900 C   0  0  0  0  0  0  0  0  0  0  0  0
  163.1200  204.3600  146.6460 O   0  0  0  0  0  0  0  0  0  0  0  0
  161.3090  202.9330  146.4700 N   0  0  0  0  0  1  0  0  0  0  0  0
  161.7480  206.0130  152.9450 N   0  0  0  0  0  2  0  0  0  0  0  0
  160.9920  206.0650  154.1280 N   0  0  0  0  0  2  0  0  0  0  0  0
  161.0050  210.1890  156.5860 C   0  0  0  0  0  3  0  0  0  0  0  0
  161.7410  207.9800  156.1220 N   0  0  0  0  0  0  0  0  0  0  0  0
  160.4480  207.3580  154.2240 N   0  0  0  0  0  2  0  0  0  0  0  0
  160.8440  208.2700  155.2500 C   0  0  0  0  0  0  0  0  0  0  0  0
  161.9500  209.0810  157.0420 C   0  0  0  0  0  3  0  0  0  0  0  0
  160.2590  209.6180  155.3880 C   0  0  0  0  0  2  0  0  0  0  0  0
  161.4420  210.2620  149.0210 C   0  0  0  0  0  2  0  0  0  0  0  0
  162.4390  211.2170  148.3870 C   0  0  0  0  0  2  0  0  0  0  0  0
  161.7080  212.3730  147.7250 C   0  0  2  0  0  3  0  0  0  0  0  0
  162.4430  213.2850  145.8410 C   0  0  0  0  0  1  0  0  0  0  0  0
  162.6340  213.2940  147.2260 O   0  0  0  0  0  0  0  0  0  0  0  0
  160.8220  213.0470  148.7620 C   0  0  0  0  0  2  0  0  0  0  0  0
  157.7930  212.7590  147.1850 C   0  0  0  0  0  2  0  0  0  0  0  0
  159.1870  212.6190  147.2440 O   0  0  0  0  0  0  0  0  0  0  0  0
  157.3280  213.1800  148.5480 C   0  0  0  0  0  2  0  0  0  0  0  0
  158.6000  213.6420  149.1780 C   0  0  0  0  0  2  0  0  0  0  0  0
  159.6100  213.5590  148.1380 N   0  0  0  0  0  0  0  0  0  0  0  0
  1  3  1  1  0  0  0
  2  6  2  0  0  0  0
  3  4  2  0  0  0  0
  3  8  1  0  0  0  0
  4 17  1  0  0  0  0
  7 11  1  0  0  0  0
  9  5  2  0  0  0  0
  9  2  1  0  0  0  0
 10  7  1  0  0  0  0
 10  5  1  0  0  0  0
 11 25  1  1  0  0  0
 11  1  1  0  0  0  0
 12  5  1  6  0  0  0
 12  1  1  0  0  0  0
 12 13  1  0  0  0  0
 13  6  1  6  0  0  0
 13  4  1  0  0  0  0
 14  9  1  0  0  0  0
 15 14  2  0  0  0  0
 16 14  1  0  0  0  0
 17 18  1  0  0  0  0
 18 21  1  0  0  0  0
 19 23  2  0  0  0  0
 20 23  1  0  0  0  0
 21 22  1  0  0  0  0
 22 24  1  0  0  0  0
 22 20  2  0  0  0  0
 24 19  1  0  0  0  0
 26 25  1  0  0  0  0
 27 26  1  1  0  0  0
 27 30  1  0  0  0  0
 28 29  1  0  0  0  0
 29 27  1  0  0  0  0
 31 32  1  0  0  0  0
 31 33  1  0  0  0  0
 32 35  1  0  0  0  0
 33 34  1  0  0  0  0
 35 30  1  0  0  0  0
 35 34  1  0  0  0  0
M  END
>  <MODEL>
4

>  <REMARK>
 VINA RESULT:      -7.2      2.266      6.001
  Name = 
  10 active torsions:
  status: ('A' for Active; 'I' for Inactive)
    1  A    between atoms: C_1  and  C_26
    2  A    between atoms: C_5  and  C_25
    3  A    between atoms: C_5  and  C_29
    4  A    between atoms: N_6  and  C_11
    5  A    between atoms: N_6  and  N_19
    6  A    between atoms: C_9  and  C_29
    7  A    between atoms: C_9  and  N_30
    8  A    between atoms: O_16  and  C_29
    9  A    between atoms: N_18  and  N_19
   10  A    between atoms: C_25  and  C_31
                            x       y       z     vdW  Elec       q    Type
                         _______ _______ _______ _____ _____    ______ ____

>  <TORSDO>
F 10

$$$$
=
 OpenBabel11052409283D

 35 39  0  0  1  0  0  0  0  0999 V2000
  161.3580  207.8850  149.9960 C   0  0  1  0  0  3  0  0  0  0  0  0
  160.9230  203.8330  149.5300 C   0  0  0  0  0  3  0  0  0  0  0  0
  161.7240  207.8240  151.2750 C   0  0  0  0  0  0  0  0  0  0  0  0
  161.3030  206.5230  151.8050 C   0  0  0  0  0  0  0  0  0  0  0  0
  161.2850  206.0160  148.4340 C   0  0  0  0  0  0  0  0  0  0  0  0
  160.6560  204.3810  150.7250 C   0  0  0  0  0  3  0  0  0  0  0  0
  161.5430  208.3000  147.6430 O   0  0  0  0  0  0  0  0  0  0  0  0
  162.7060  208.7460  151.9160 C   0  0  0  0  0  1  0  0  0  0  0  0
  161.3400  204.6580  148.3530 C   0  0  0  0  0  0  0  0  0  0  0  0
  161.9420  206.9540  147.4380 C   0  0  0  0  0  2  0  0  0  0  0  0
  161.9800  208.7390  148.9200 C   0  0  1  0  0  3  0  0  0  0  0  0
  160.5980  206.6720  149.6050 C   0  0  1  0  0  3  0  0  0  0  0  0
  160.7240  205.8400  150.8290 C   0  0  2  0  0  3  0  0  0  0  0  0
  161.8740  203.9350  147.1720 C   0  0  0  0  0  0  0  0  0  0  0  0
  162.9630  204.3030  146.6560 O   0  0  0  0  0  0  0  0  0  0  0  0
  161.2060  202.7990  146.6270 N   0  0  0  0  0  1  0  0  0  0  0  0
  161.7440  205.9280  153.0310 N   0  0  0  0  0  2  0  0  0  0  0  0
  161.0220  206.0470  154.2290 N   0  0  0  0  0  2  0  0  0  0  0  0
  160.9570  210.2960  156.4640 C   0  0  0  0  0  3  0  0  0  0  0  0
  161.7310  208.0780  156.1220 N   0  0  0  0  0  0  0  0  0  0  0  0
  160.4560  207.3340  154.2540 N   0  0  0  0  0  2  0  0  0  0  0  0
  160.8330  208.3070  155.2320 C   0  0  0  0  0  0  0  0  0  0  0  0
  161.9170  209.2300  156.9820 C   0  0  0  0  0  3  0  0  0  0  0  0
  160.2250  209.6500  155.2960 C   0  0  0  0  0  2  0  0  0  0  0  0
  161.5710  210.1910  149.1130 C   0  0  0  0  0  2  0  0  0  0  0  0
  162.4460  211.0930  148.2610 C   0  0  0  0  0  2  0  0  0  0  0  0
  161.7510  212.4240  148.0250 C   0  0  2  0  0  3  0  0  0  0  0  0
  160.9290  214.1690  149.1200 C   0  0  0  0  0  1  0  0  0  0  0  0
  161.0030  212.7730  149.1530 O   0  0  0  0  0  0  0  0  0  0  0  0
  160.8310  212.2870  146.8220 C   0  0  0  0  0  2  0  0  0  0  0  0
  162.9840  213.3290  144.3690 C   0  0  0  0  0  2  0  0  0  0  0  0
  162.6350  213.1000  145.7070 O   0  0  0  0  0  0  0  0  0  0  0  0
  161.8960  212.7440  143.5160 C   0  0  0  0  0  2  0  0  0  0  0  0
  160.7880  212.5800  144.5030 C   0  0  0  0  0  2  0  0  0  0  0  0
  161.2730  213.1600  145.7430 N   0  0  0  0  0  0  0  0  0  0  0  0
  1  3  1  1  0  0  0
  2  6  2  0  0  0  0
  3  4  2  0  0  0  0
  3  8  1  0  0  0  0
  4 17  1  0  0  0  0
  7 11  1  0  0  0  0
  9  5  2  0  0  0  0
  9  2  1  0  0  0  0
 10  7  1  0  0  0  0
 10  5  1  0  0  0  0
 11 25  1  1  0  0  0
 11  1  1  0  0  0  0
 12  5  1  6  0  0  0
 12  1  1  0  0  0  0
 12 13  1  0  0  0  0
 13  6  1  6  0  0  0
 13  4  1  0  0  0  0
 14  9  1  0  0  0  0
 15 14  2  0  0  0  0
 16 14  1  0  0  0  0
 17 18  1  0  0  0  0
 18 21  1  0  0  0  0
 19 23  2  0  0  0  0
 20 23  1  0  0  0  0
 21 22  1  0  0  0  0
 22 24  1  0  0  0  0
 22 20  2  0  0  0  0
 24 19  1  0  0  0  0
 26 25  1  0  0  0  0
 27 30  1  6  0  0  0
 27 26  1  0  0  0  0
 27 29  1  0  0  0  0
 28 29  1  0  0  0  0
 31 32  1  0  0  0  0
 32 35  1  0  0  0  0
 33 31  1  0  0  0  0
 33 34  1  0  0  0  0
 34 35  1  0  0  0  0
 35 30  1  0  0  0  0
M  END
>  <MODEL>
5

>  <REMARK>
 VINA RESULT:      -7.1      2.319      6.054
  Name = 
  10 active torsions:
  status: ('A' for Active; 'I' for Inactive)
    1  A    between atoms: C_1  and  C_26
    2  A    between atoms: C_5  and  C_25
    3  A    between atoms: C_5  and  C_29
    4  A    between atoms: N_6  and  C_11
    5  A    between atoms: N_6  and  N_19
    6  A    between atoms: C_9  and  C_29
    7  A    between atoms: C_9  and  N_30
    8  A    between atoms: O_16  and  C_29
    9  A    between atoms: N_18  and  N_19
   10  A    between atoms: C_25  and  C_31
                            x       y       z     vdW  Elec       q    Type
                         _______ _______ _______ _____ _____    ______ ____

>  <TORSDO>
F 10

$$$$
=
 OpenBabel11052409283D

 35 39  0  0  1  0  0  0  0  0999 V2000
  161.6790  206.6230  151.8620 C   0  0  1  0  0  3  0  0  0  0  0  0
  161.6450  204.5980  148.2950 C   0  0  0  0  0  3  0  0  0  0  0  0
  161.4330  207.8180  151.3280 C   0  0  0  0  0  0  0  0  0  0  0  0
  161.7650  207.7540  149.9010 C   0  0  0  0  0  0  0  0  0  0  0  0
  161.4090  204.4710  150.7490 C   0  0  0  0  0  0  0  0  0  0  0  0
  162.0800  205.8660  148.3160 C   0  0  0  0  0  3  0  0  0  0  0  0
  161.3150  204.6500  153.1720 O   0  0  0  0  0  0  0  0  0  0  0  0
  160.6180  208.8820  151.9830 C   0  0  0  0  0  1  0  0  0  0  0  0
  161.2050  203.8870  149.5370 C   0  0  0  0  0  0  0  0  0  0  0  0
  160.7610  204.0010  152.0390 C   0  0  0  0  0  2  0  0  0  0  0  0
  161.0500  206.0430  153.1030 C   0  0  1  0  0  3  0  0  0  0  0  0
  162.2690  205.7050  150.8550 C   0  0  1  0  0  3  0  0  0  0  0  0
  162.1740  206.5260  149.6200 C   0  0  2  0  0  3  0  0  0  0  0  0
  160.4890  202.5990  149.3650 C   0  0  0  0  0  0  0  0  0  0  0  0
  159.8660  202.3700  148.2950 O   0  0  0  0  0  0  0  0  0  0  0  0
  160.5230  201.5860  150.3690 N   0  0  0  0  0  1  0  0  0  0  0  0
  161.3830  208.7060  148.9020 N   0  0  0  0  0  2  0  0  0  0  0  0
  162.2360  209.7390  148.4790 N   0  0  0  0  0  2  0  0  0  0  0  0
  160.8700  214.3220  148.0550 C   0  0  0  0  0  3  0  0  0  0  0  0
  161.5000  212.1980  147.2050 N   0  0  0  0  0  0  0  0  0  0  0  0
  161.8620  210.9050  149.1710 N   0  0  0  0  0  2  0  0  0  0  0  0
  161.5200  212.1120  148.4870 C   0  0  0  0  0  0  0  0  0  0  0  0
  161.1210  213.5290  146.7770 C   0  0  0  0  0  3  0  0  0  0  0  0
  161.1590  213.3560  149.1960 C   0  0  0  0  0  2  0  0  0  0  0  0
  161.6240  206.7190  154.3370 C   0  0  0  0  0  2  0  0  0  0  0  0
  160.5160  207.4080  155.1140 C   0  0  0  0  0  2  0  0  0  0  0  0
  161.0490  208.6630  155.7850 C   0  0  2  0  0  3  0  0  0  0  0  0
  162.5410  209.4610  157.2190 C   0  0  0  0  0  1  0  0  0  0  0  0
  161.8050  208.3140  156.9080 O   0  0  0  0  0  0  0  0  0  0  0  0
  159.8710  209.5280  156.2080 C   0  0  0  0  0  2  0  0  0  0  0  0
  158.0520  212.0300  154.7330 C   0  0  0  0  0  2  0  0  0  0  0  0
  158.1720  210.8200  155.4320 O   0  0  0  0  0  0  0  0  0  0  0  0
  159.4280  212.6200  154.6220 C   0  0  0  0  0  2  0  0  0  0  0  0
  160.2930  211.4450  154.9380 C   0  0  0  0  0  2  0  0  0  0  0  0
  159.3900  210.3160  155.0820 N   0  0  0  0  0  0  0  0  0  0  0  0
  1  3  1  6  0  0  0
  1 11  1  0  0  0  0
  2  6  2  0  0  0  0
  2  9  1  0  0  0  0
  3  8  1  0  0  0  0
  4  3  2  0  0  0  0
  5 10  1  0  0  0  0
  9  5  2  0  0  0  0
 10  7  1  0  0  0  0
 11  7  1  0  0  0  0
 11 25  1  1  0  0  0
 12  5  1  6  0  0  0
 12  1  1  0  0  0  0
 13  6  1  6  0  0  0
 13  4  1  0  0  0  0
 13 12  1  0  0  0  0
 14  9  1  0  0  0  0
 14 16  1  0  0  0  0
 15 14  2  0  0  0  0
 17  4  1  0  0  0  0
 18 17  1  0  0  0  0
 18 21  1  0  0  0  0
 19 24  1  0  0  0  0
 20 22  2  0  0  0  0
 22 21  1  0  0  0  0
 22 24  1  0  0  0  0
 23 20  1  0  0  0  0
 23 19  2  0  0  0  0
 25 26  1  0  0  0  0
 27 26  1  1  0  0  0
 27 30  1  0  0  0  0
 27 29  1  0  0  0  0
 29 28  1  0  0  0  0
 31 32  1  0  0  0  0
 33 31  1  0  0  0  0
 33 34  1  0  0  0  0
 34 35  1  0  0  0  0
 35 32  1  0  0  0  0
 35 30  1  0  0  0  0
M  END
>  <MODEL>
6

>  <REMARK>
 VINA RESULT:      -6.9      3.079      7.323
  Name = 
  10 active torsions:
  status: ('A' for Active; 'I' for Inactive)
    1  A    between atoms: C_1  and  C_26
    2  A    between atoms: C_5  and  C_25
    3  A    between atoms: C_5  and  C_29
    4  A    between atoms: N_6  and  C_11
    5  A    between atoms: N_6  and  N_19
    6  A    between atoms: C_9  and  C_29
    7  A    between atoms: C_9  and  N_30
    8  A    between atoms: O_16  and  C_29
    9  A    between atoms: N_18  and  N_19
   10  A    between atoms: C_25  and  C_31
                            x       y       z     vdW  Elec       q    Type
                         _______ _______ _______ _____ _____    ______ ____

>  <TORSDO>
F 10

$$$$
=
 OpenBabel11052409283D

 35 39  0  0  1  0  0  0  0  0999 V2000
  161.0910  208.9390  151.6600 C   0  0  1  0  0  3  0  0  0  0  0  0
  159.7330  209.9120  155.4060 C   0  0  0  0  0  3  0  0  0  0  0  0
  161.2080  210.1970  151.2400 C   0  0  0  0  0  0  0  0  0  0  0  0
  160.3900  211.0450  152.1130 C   0  0  0  0  0  0  0  0  0  0  0  0
  160.8120  208.2180  153.9720 C   0  0  0  0  0  0  0  0  0  0  0  0
  159.4160  210.7080  154.3740 C   0  0  0  0  0  3  0  0  0  0  0  0
  161.7670  206.7310  152.3020 O   0  0  0  0  0  0  0  0  0  0  0  0
  162.2690  210.6790  150.3080 C   0  0  0  0  0  1  0  0  0  0  0  0
  160.5370  208.6620  155.2280 C   0  0  0  0  0  0  0  0  0  0  0  0
  161.8420  207.1490  153.6550 C   0  0  0  0  0  2  0  0  0  0  0  0
  162.0790  207.8210  151.4470 C   0  0  1  0  0  3  0  0  0  0  0  0
  160.1260  208.8450  152.7840 C   0  0  1  0  0  3  0  0  0  0  0  0
  159.8300  210.2780  153.0370 C   0  0  2  0  0  3  0  0  0  0  0  0
  161.0620  208.0120  156.4540 C   0  0  0  0  0  0  0  0  0  0  0  0
  162.1730  208.3740  156.9240 O   0  0  0  0  0  0  0  0  0  0  0  0
  160.3180  207.0110  157.1450 N   0  0  0  0  0  1  0  0  0  0  0  0
  160.4550  212.4730  152.2050 N   0  0  0  0  0  2  0  0  0  0  0  0
  159.4300  213.3060  151.7270 N   0  0  0  0  0  2  0  0  0  0  0  0
  157.0900  213.8430  147.5700 C   0  0  0  0  0  3  0  0  0  0  0  0
  157.2340  213.7300  149.9360 N   0  0  0  0  0  0  0  0  0  0  0  0
  159.5540  213.3660  150.3280 N   0  0  0  0  0  2  0  0  0  0  0  0
  158.4230  213.5630  149.4770 C   0  0  0  0  0  0  0  0  0  0  0  0
  156.2800  213.9090  148.8600 C   0  0  0  0  0  3  0  0  0  0  0  0
  158.5270  213.5940  148.0050 C   0  0  0  0  0  2  0  0  0  0  0  0
  162.0230  207.3500  150.0020 C   0  0  0  0  0  2  0  0  0  0  0  0
  160.8680  206.3830  149.8160 C   0  0  0  0  0  2  0  0  0  0  0  0
  161.1360  205.4700  148.6310 C   0  0  2  0  0  3  0  0  0  0  0  0
  160.6970  204.0680  150.2950 C   0  0  0  0  0  1  0  0  0  0  0  0
  161.3880  204.1710  149.0840 O   0  0  0  0  0  0  0  0  0  0  0  0
  162.3470  205.9930  147.8760 C   0  0  0  0  0  2  0  0  0  0  0  0
  161.1710  204.8210  144.8790 C   0  0  0  0  0  2  0  0  0  0  0  0
  162.0660  204.8090  145.9580 O   0  0  0  0  0  0  0  0  0  0  0  0
  160.0820  205.8000  145.2110 C   0  0  0  0  0  2  0  0  0  0  0  0
  160.6990  206.5790  146.3250 C   0  0  0  0  0  2  0  0  0  0  0  0
  162.0580  206.0810  146.4510 N   0  0  0  0  0  0  0  0  0  0  0  0
  1  3  1  1  0  0  0
  1 12  1  0  0  0  0
  3  4  2  0  0  0  0
  4 17  1  0  0  0  0
  4 13  1  0  0  0  0
  5  9  2  0  0  0  0
  6  2  2  0  0  0  0
  7 10  1  0  0  0  0
  8  3  1  0  0  0  0
  9  2  1  0  0  0  0
  9 14  1  0  0  0  0
 10  5  1  0  0  0  0
 11 25  1  6  0  0  0
 11  1  1  0  0  0  0
 11  7  1  0  0  0  0
 12 13  1  0  0  0  0
 12  5  1  1  0  0  0
 13  6  1  1  0  0  0
 14 15  2  0  0  0  0
 14 16  1  0  0  0  0
 18 17  1  0  0  0  0
 19 24  1  0  0  0  0
 19 23  2  0  0  0  0
 21 18  1  0  0  0  0
 22 20  2  0  0  0  0
 22 21  1  0  0  0  0
 23 20  1  0  0  0  0
 24 22  1  0  0  0  0
 26 25  1  0  0  0  0
 27 30  1  1  0  0  0
 27 29  1  0  0  0  0
 27 26  1  0  0  0  0
 29 28  1  0  0  0  0
 31 33  1  0  0  0  0
 31 32  1  0  0  0  0
 32 35  1  0  0  0  0
 33 34  1  0  0  0  0
 34 35  1  0  0  0  0
 35 30  1  0  0  0  0
M  END
>  <MODEL>
7

>  <REMARK>
 VINA RESULT:      -6.7      3.059      7.020
  Name = 
  10 active torsions:
  status: ('A' for Active; 'I' for Inactive)
    1  A    between atoms: C_1  and  C_26
    2  A    between atoms: C_5  and  C_25
    3  A    between atoms: C_5  and  C_29
    4  A    between atoms: N_6  and  C_11
    5  A    between atoms: N_6  and  N_19
    6  A    between atoms: C_9  and  C_29
    7  A    between atoms: C_9  and  N_30
    8  A    between atoms: O_16  and  C_29
    9  A    between atoms: N_18  and  N_19
   10  A    between atoms: C_25  and  C_31
                            x       y       z     vdW  Elec       q    Type
                         _______ _______ _______ _____ _____    ______ ____

>  <TORSDO>
F 10

$$$$
=
 OpenBabel11052409283D

 35 39  0  0  1  0  0  0  0  0999 V2000
  161.9250  208.4870  150.2750 C   0  0  1  0  0  3  0  0  0  0  0  0
  161.2090  206.9390  154.0060 C   0  0  0  0  0  3  0  0  0  0  0  0
  161.5270  207.4020  149.6130 C   0  0  0  0  0  0  0  0  0  0  0  0
  161.5500  206.2690  150.5430 C   0  0  0  0  0  0  0  0  0  0  0  0
  161.5040  208.9670  152.6280 C   0  0  0  0  0  0  0  0  0  0  0  0
  161.5910  206.1110  153.0230 C   0  0  0  0  0  3  0  0  0  0  0  0
  161.9210  210.7590  151.0390 O   0  0  0  0  0  0  0  0  0  0  0  0
  160.8310  207.4290  148.2940 C   0  0  0  0  0  1  0  0  0  0  0  0
  161.0690  208.4150  153.7930 C   0  0  0  0  0  0  0  0  0  0  0  0
  161.1630  210.3740  152.1750 C   0  0  0  0  0  2  0  0  0  0  0  0
  161.5960  209.9190  149.9410 C   0  0  1  0  0  3  0  0  0  0  0  0
  162.3210  208.1430  151.6640 C   0  0  1  0  0  3  0  0  0  0  0  0
  161.9360  206.7100  151.7320 C   0  0  2  0  0  3  0  0  0  0  0  0
  160.3810  209.1920  154.8540 C   0  0  0  0  0  0  0  0  0  0  0  0
  159.3880  209.9070  154.5570 O   0  0  0  0  0  0  0  0  0  0  0  0
  160.7890  209.1160  156.2180 N   0  0  0  0  0  1  0  0  0  0  0  0
  160.9290  204.9950  150.3370 N   0  0  0  0  0  2  0  0  0  0  0  0
  160.8450  204.3940  149.0710 N   0  0  0  0  0  2  0  0  0  0  0  0
  161.2050  200.1400  146.8730 C   0  0  0  0  0  3  0  0  0  0  0  0
  160.8110  202.4800  146.9390 N   0  0  0  0  0  0  0  0  0  0  0  0
  161.1380  203.0280  149.2320 N   0  0  0  0  0  2  0  0  0  0  0  0
  161.0890  202.1100  148.1370 C   0  0  0  0  0  0  0  0  0  0  0  0
  160.8320  201.3530  146.0270 C   0  0  0  0  0  3  0  0  0  0  0  0
  161.3580  200.6670  148.2930 C   0  0  0  0  0  2  0  0  0  0  0  0
  162.3940  210.3620  148.7250 C   0  0  0  0  0  2  0  0  0  0  0  0
  161.5760  211.3350  147.8940 C   0  0  0  0  0  2  0  0  0  0  0  0
  162.1510  212.7360  148.0130 C   0  0  2  0  0  3  0  0  0  0  0  0
  160.2250  213.4340  148.8650 C   0  0  0  0  0  1  0  0  0  0  0  0
  161.5980  213.3820  149.1240 O   0  0  0  0  0  0  0  0  0  0  0  0
  161.8130  213.5120  146.7490 C   0  0  0  0  0  2  0  0  0  0  0  0
  159.7980  212.5480  144.1520 C   0  0  0  0  0  2  0  0  0  0  0  0
  160.0330  212.8620  145.4980 O   0  0  0  0  0  0  0  0  0  0  0  0
  161.0500  212.8740  143.3910 C   0  0  0  0  0  2  0  0  0  0  0  0
  162.0580  212.9760  144.4870 C   0  0  0  0  0  2  0  0  0  0  0  0
  161.3570  212.6060  145.7050 N   0  0  0  0  0  0  0  0  0  0  0  0
  1  3  1  1  0  0  0
  1 12  1  0  0  0  0
  3  4  2  0  0  0  0
  4 13  1  0  0  0  0
  5  9  2  0  0  0  0
  6  2  2  0  0  0  0
  7 10  1  0  0  0  0
  8  3  1  0  0  0  0
  9  2  1  0  0  0  0
  9 14  1  0  0  0  0
 10  5  1  0  0  0  0
 11 25  1  6  0  0  0
 11  1  1  0  0  0  0
 11  7  1  0  0  0  0
 12 13  1  0  0  0  0
 12  5  1  1  0  0  0
 13  6  1  1  0  0  0
 14 16  1  0  0  0  0
 15 14  2  0  0  0  0
 17  4  1  0  0  0  0
 18 21  1  0  0  0  0
 18 17  1  0  0  0  0
 19 24  1  0  0  0  0
 20 22  2  0  0  0  0
 22 24  1  0  0  0  0
 22 21  1  0  0  0  0
 23 19  2  0  0  0  0
 23 20  1  0  0  0  0
 26 27  1  0  0  0  0
 26 25  1  0  0  0  0
 27 30  1  6  0  0  0
 27 29  1  0  0  0  0
 28 29  1  0  0  0  0
 31 32  1  0  0  0  0
 32 35  1  0  0  0  0
 33 31  1  0  0  0  0
 33 34  1  0  0  0  0
 34 35  1  0  0  0  0
 35 30  1  0  0  0  0
M  END
>  <MODEL>
8

>  <REMARK>
 VINA RESULT:      -6.6      1.627      1.988
  Name = 
  10 active torsions:
  status: ('A' for Active; 'I' for Inactive)
    1  A    between atoms: C_1  and  C_26
    2  A    between atoms: C_5  and  C_25
    3  A    between atoms: C_5  and  C_29
    4  A    between atoms: N_6  and  C_11
    5  A    between atoms: N_6  and  N_19
    6  A    between atoms: C_9  and  C_29
    7  A    between atoms: C_9  and  N_30
    8  A    between atoms: O_16  and  C_29
    9  A    between atoms: N_18  and  N_19
   10  A    between atoms: C_25  and  C_31
                            x       y       z     vdW  Elec       q    Type
                         _______ _______ _______ _____ _____    ______ ____

>  <TORSDO>
F 10

$$$$
=
 OpenBabel11052409283D

 35 39  0  0  1  0  0  0  0  0999 V2000
  161.3990  207.1920  151.8690 C   0  0  1  0  0  3  0  0  0  0  0  0
  160.6010  210.5100  154.1450 C   0  0  0  0  0  3  0  0  0  0  0  0
  162.0170  207.8560  150.8940 C   0  0  0  0  0  0  0  0  0  0  0  0
  161.6280  209.2670  150.9900 C   0  0  0  0  0  0  0  0  0  0  0  0
  160.8760  208.0570  154.0870 C   0  0  0  0  0  0  0  0  0  0  0  0
  160.6260  210.6300  152.8100 C   0  0  0  0  0  3  0  0  0  0  0  0
  161.1190  205.6690  153.6990 O   0  0  0  0  0  0  0  0  0  0  0  0
  163.1710  207.3250  150.1120 C   0  0  0  0  0  1  0  0  0  0  0  0
  160.8210  209.1960  154.8290 C   0  0  0  0  0  0  0  0  0  0  0  0
  161.3740  206.7230  154.6130 C   0  0  0  0  0  2  0  0  0  0  0  0
  161.8400  205.8940  152.4960 C   0  0  1  0  0  3  0  0  0  0  0  0
  160.4930  208.0890  152.6290 C   0  0  1  0  0  3  0  0  0  0  0  0
  160.8130  209.4080  152.0250 C   0  0  2  0  0  3  0  0  0  0  0  0
  161.0470  209.2230  156.2950 C   0  0  0  0  0  0  0  0  0  0  0  0
  160.0820  209.4530  157.0710 O   0  0  0  0  0  0  0  0  0  0  0  0
  162.3290  208.9510  156.8580 N   0  0  0  0  0  1  0  0  0  0  0  0
  162.2730  210.3670  150.3370 N   0  0  0  0  0  2  0  0  0  0  0  0
  161.5540  211.3810  149.6830 N   0  0  0  0  0  2  0  0  0  0  0  0
  161.6940  213.4260  145.3410 C   0  0  0  0  0  3  0  0  0  0  0  0
  160.5900  212.5140  147.2340 N   0  0  0  0  0  0  0  0  0  0  0  0
  162.3840  211.9020  148.6740 N   0  0  0  0  0  2  0  0  0  0  0  0
  161.8520  212.4410  147.4620 C   0  0  0  0  0  0  0  0  0  0  0  0
  160.3270  213.1010  145.9350 C   0  0  0  0  0  3  0  0  0  0  0  0
  162.7080  212.9600  146.3770 C   0  0  0  0  0  2  0  0  0  0  0  0
  161.5800  204.7430  151.5380 C   0  0  0  0  0  2  0  0  0  0  0  0
  160.6720  205.2010  150.4110 C   0  0  0  0  0  2  0  0  0  0  0  0
  161.0800  204.5350  149.1070 C   0  0  2  0  0  3  0  0  0  0  0  0
  161.4290  206.0470  147.5210 C   0  0  0  0  0  1  0  0  0  0  0  0
  160.4590  205.1790  148.0330 O   0  0  0  0  0  0  0  0  0  0  0  0
  160.6500  203.0770  149.1490 C   0  0  0  0  0  2  0  0  0  0  0  0
  161.5770  200.2000  147.5350 C   0  0  0  0  0  2  0  0  0  0  0  0
  161.4120  200.9880  148.6820 O   0  0  0  0  0  0  0  0  0  0  0  0
  160.9500  200.9400  146.3890 C   0  0  0  0  0  2  0  0  0  0  0  0
  160.8310  202.3200  146.9440 C   0  0  0  0  0  2  0  0  0  0  0  0
  161.4710  202.2800  148.2480 N   0  0  0  0  0  0  0  0  0  0  0  0
  1  3  1  1  0  0  0
  1 11  1  0  0  0  0
  1 12  1  0  0  0  0
  2  9  1  0  0  0  0
  3  4  2  0  0  0  0
  4 13  1  0  0  0  0
  5 10  1  0  0  0  0
  5  9  2  0  0  0  0
  6  2  2  0  0  0  0
  7 10  1  0  0  0  0
  8  3  1  0  0  0  0
  9 14  1  0  0  0  0
 11 25  1  6  0  0  0
 11  7  1  0  0  0  0
 12  5  1  1  0  0  0
 13 12  1  0  0  0  0
 13  6  1  1  0  0  0
 14 16  1  0  0  0  0
 14 15  2  0  0  0  0
 17  4  1  0  0  0  0
 18 17  1  0  0  0  0
 19 23  2  0  0  0  0
 19 24  1  0  0  0  0
 20 22  2  0  0  0  0
 21 18  1  0  0  0  0
 22 21  1  0  0  0  0
 23 20  1  0  0  0  0
 24 22  1  0  0  0  0
 26 25  1  0  0  0  0
 27 30  1  1  0  0  0
 27 26  1  0  0  0  0
 28 29  1  0  0  0  0
 29 27  1  0  0  0  0
 31 32  1  0  0  0  0
 33 34  1  0  0  0  0
 33 31  1  0  0  0  0
 34 35  1  0  0  0  0
 35 32  1  0  0  0  0
 35 30  1  0  0  0  0
M  END
>  <MODEL>
9

>  <REMARK>
 VINA RESULT:      -6.5      2.632      7.183
  Name = 
  10 active torsions:
  status: ('A' for Active; 'I' for Inactive)
    1  A    between atoms: C_1  and  C_26
    2  A    between atoms: C_5  and  C_25
    3  A    between atoms: C_5  and  C_29
    4  A    between atoms: N_6  and  C_11
    5  A    between atoms: N_6  and  N_19
    6  A    between atoms: C_9  and  C_29
    7  A    between atoms: C_9  and  N_30
    8  A    between atoms: O_16  and  C_29
    9  A    between atoms: N_18  and  N_19
   10  A    between atoms: C_25  and  C_31
                            x       y       z     vdW  Elec       q    Type
                         _______ _______ _______ _____ _____    ______ ____

>  <TORSDO>
F 10

$$$$
