=
 OpenBabel11052410443D

 35 39  0  0  1  0  0  0  0  0999 V2000
  159.0810  212.9620  153.2020 C   0  0  1  0  0  3  0  0  0  0  0  0
  157.6280  212.5060  153.1610 C   0  0  0  0  0  1  0  0  0  0  0  0
  163.0970  209.9580  151.4130 O   0  0  0  0  0  0  0  0  0  0  0  0
  160.7080  212.2520  150.2720 C   0  0  1  0  0  3  0  0  0  0  0  0
  160.8920  209.7380  152.1260 N   0  0  0  0  0  0  0  0  0  0  0  0
  161.8800  210.2120  151.2000 C   0  0  0  0  0  0  0  0  0  0  0  0
  159.5570  211.9950  151.0260 O   0  0  0  0  0  0  0  0  0  0  0  0
  160.0920  210.6470  152.9600 C   0  0  1  0  0  3  0  0  0  0  0  0
  162.6390  211.2070  149.0160 C   0  0  0  0  0  2  0  0  0  0  0  0
  161.4490  210.9400  149.9470 C   0  0  2  0  0  3  0  0  0  0  0  0
  160.3680  213.1600  157.2580 C   0  0  0  0  0  3  0  0  0  0  0  0
  161.5100  213.2340  148.1050 C   0  0  1  0  0  3  0  0  0  0  0  0
  160.2850  211.9330  155.1890 C   0  0  0  0  0  0  0  0  0  0  0  0
  159.5660  213.0070  154.6260 C   0  0  0  0  0  0  0  0  0  0  0  0
  161.2920  209.8030  154.8700 O   0  0  0  0  0  0  0  0  0  0  0  0
  160.2970  212.9720  148.9890 C   0  0  0  0  0  2  0  0  0  0  0  0
  160.6220  210.7470  154.3710 C   0  0  0  0  0  0  0  0  0  0  0  0
  162.1830  211.9160  147.7470 C   0  0  0  0  0  2  0  0  0  0  0  0
  160.6910  212.0230  156.5220 C   0  0  0  0  0  3  0  0  0  0  0  0
  159.6650  214.1630  156.6710 N   0  0  0  0  0  0  0  0  0  0  0  0
  159.2750  214.0880  155.3970 N   0  0  0  0  0  0  0  0  0  0  0  0
  159.9830  212.0560  152.3550 C   0  0  2  0  0  3  0  0  0  0  0  0
  160.7490  214.4530  145.9130 N   0  0  0  0  0  0  0  0  0  0  0  0
  161.0850  213.9150  146.8810 C   0  0  0  0  0  0  0  0  0  0  0  0
  160.7580  208.3030  152.3390 C   0  0  0  0  0  2  0  0  0  0  0  0
  160.8830  207.5660  151.0190 C   0  0  0  0  0  2  0  0  0  0  0  0
  162.1150  206.8000  151.0090 N   0  0  0  0  0  2  0  0  0  0  0  0
  161.9030  205.6590  151.8830 C   0  0  0  0  0  2  0  0  0  0  0  0
  161.2230  203.6040  147.6420 O   0  0  0  0  0  0  0  0  0  0  0  0
  160.7620  202.2420  149.5260 C   0  0  0  0  0  3  0  0  0  0  0  0
  161.4380  204.6390  149.7220 N   0  0  0  0  0  2  0  0  0  0  0  0
  161.4740  203.1930  151.7030 C   0  0  0  0  0  2  0  0  0  0  0  0
  161.1290  204.5800  151.1490 C   0  0  1  0  0  3  0  0  0  0  0  0
  161.1480  203.5100  148.8940 C   0  0  0  0  0  0  0  0  0  0  0  0
  160.8750  202.1050  150.8500 C   0  0  0  0  0  3  0  0  0  0  0  0
  1  2  1  1  0  0  0
  1 14  1  0  0  0  0
  4 16  1  6  0  0  0
  4  7  1  0  0  0  0
  5 25  1  0  0  0  0
  5  8  1  0  0  0  0
  6  3  2  0  0  0  0
  6  5  1  0  0  0  0
  8 17  1  1  0  0  0
 10  9  1  6  0  0  0
 10  4  1  0  0  0  0
 10  6  1  0  0  0  0
 12 24  1  6  0  0  0
 12 16  1  0  0  0  0
 13 19  1  0  0  0  0
 14 13  2  0  0  0  0
 14 21  1  0  0  0  0
 17 15  2  0  0  0  0
 17 13  1  0  0  0  0
 18 12  1  0  0  0  0
 18  9  1  0  0  0  0
 19 11  2  0  0  0  0
 20 11  1  0  0  0  0
 21 20  2  0  0  0  0
 22  7  1  6  0  0  0
 22  8  1  0  0  0  0
 22  1  1  0  0  0  0
 23 24  3  0  0  0  0
 26 25  1  0  0  0  0
 27 26  1  0  0  0  0
 27 28  1  0  0  0  0
 29 34  2  0  0  0  0
 30 35  2  0  0  0  0
 31 33  1  0  0  0  0
 33 32  1  0  0  0  0
 33 28  1  1  0  0  0
 34 30  1  0  0  0  0
 34 31  1  0  0  0  0
 35 32  1  0  0  0  0
M  END
>  <MODEL>
1

>  <REMARK>
 VINA RESULT:      -6.1      0.000      0.000
  Name = 
  6 active torsions:
  status: ('A' for Active; 'I' for Inactive)
    1  A    between atoms: C_8  and  N_31
    2  A    between atoms: C_8  and  C_33
    3  A    between atoms: N_9  and  C_33
    4  A    between atoms: C_17  and  C_32
    5  A    between atoms: C_18  and  C_23
    6  A    between atoms: C_18  and  N_31
                            x       y       z     vdW  Elec       q    Type
                         _______ _______ _______ _____ _____    ______ ____

>  <TORSDO>
F 6

$$$$
=
 OpenBabel11052410443D

 35 39  0  0  1  0  0  0  0  0999 V2000
  160.5530  208.7930  154.5390 C   0  0  1  0  0  3  0  0  0  0  0  0
  161.7980  209.0510  155.3770 C   0  0  0  0  0  1  0  0  0  0  0  0
  160.6350  208.6560  149.2160 O   0  0  0  0  0  0  0  0  0  0  0  0
  161.1820  206.5900  151.9920 C   0  0  1  0  0  3  0  0  0  0  0  0
  161.8990  209.4680  150.9950 N   0  0  0  0  0  0  0  0  0  0  0  0
  161.3460  208.3910  150.2240 C   0  0  0  0  0  0  0  0  0  0  0  0
  161.7740  207.4140  152.9570 O   0  0  0  0  0  0  0  0  0  0  0  0
  161.4850  209.7430  152.3780 C   0  0  1  0  0  3  0  0  0  0  0  0
  161.1320  205.9790  149.5380 C   0  0  0  0  0  2  0  0  0  0  0  0
  161.6800  206.9610  150.5810 C   0  0  2  0  0  3  0  0  0  0  0  0
  157.9030  212.1070  154.9160 C   0  0  0  0  0  3  0  0  0  0  0  0
  160.9410  204.1970  151.2700 C   0  0  1  0  0  3  0  0  0  0  0  0
  159.6060  210.9750  153.6470 C   0  0  0  0  0  0  0  0  0  0  0  0
  159.6170  209.9670  154.6320 C   0  0  0  0  0  0  0  0  0  0  0  0
  160.4540  211.7640  151.5700 O   0  0  0  0  0  0  0  0  0  0  0  0
  161.5220  205.1370  152.3200 C   0  0  0  0  0  2  0  0  0  0  0  0
  160.4900  210.8760  152.4640 C   0  0  0  0  0  0  0  0  0  0  0  0
  161.5010  204.5450  149.8980 C   0  0  0  0  0  2  0  0  0  0  0  0
  158.7300  212.0520  153.7980 C   0  0  0  0  0  3  0  0  0  0  0  0
  157.9580  211.1140  155.8410 N   0  0  0  0  0  0  0  0  0  0  0  0
  158.7900  210.0790  155.7050 N   0  0  0  0  0  0  0  0  0  0  0  0
  160.9050  208.5020  153.0750 C   0  0  2  0  0  3  0  0  0  0  0  0
  161.5670  201.7240  151.8710 N   0  0  0  0  0  0  0  0  0  0  0  0
  161.2900  202.8150  151.6050 C   0  0  0  0  0  0  0  0  0  0  0  0
  162.8160  210.3970  150.3480 C   0  0  0  0  0  2  0  0  0  0  0  0
  162.3360  210.7120  148.9440 C   0  0  0  0  0  2  0  0  0  0  0  0
  162.7260  212.0650  148.5920 N   0  0  0  0  0  2  0  0  0  0  0  0
  161.5010  212.8410  148.5020 C   0  0  0  0  0  2  0  0  0  0  0  0
  163.5200  213.2970  144.2140 O   0  0  0  0  0  0  0  0  0  0  0  0
  161.1770  212.9400  144.2100 C   0  0  0  0  0  3  0  0  0  0  0  0
  162.5050  213.1930  146.3120 N   0  0  0  0  0  2  0  0  0  0  0  0
  160.2080  212.3340  146.4110 C   0  0  0  0  0  2  0  0  0  0  0  0
  161.2520  213.2500  147.0620 C   0  0  1  0  0  3  0  0  0  0  0  0
  162.4650  213.1520  144.8830 C   0  0  0  0  0  0  0  0  0  0  0  0
  160.1070  212.5970  144.9310 C   0  0  0  0  0  3  0  0  0  0  0  0
  1 14  1  0  0  0  0
  1  2  1  1  0  0  0
  3  6  2  0  0  0  0
  4 16  1  1  0  0  0
  4  7  1  0  0  0  0
  5  8  1  0  0  0  0
  6 10  1  0  0  0  0
  6  5  1  0  0  0  0
  8 17  1  6  0  0  0
  8 22  1  0  0  0  0
  9 18  1  0  0  0  0
 10  9  1  6  0  0  0
 10  4  1  0  0  0  0
 11 20  1  0  0  0  0
 12 24  1  1  0  0  0
 12 16  1  0  0  0  0
 13 19  1  0  0  0  0
 13 14  2  0  0  0  0
 14 21  1  0  0  0  0
 15 17  2  0  0  0  0
 17 13  1  0  0  0  0
 18 12  1  0  0  0  0
 19 11  2  0  0  0  0
 21 20  2  0  0  0  0
 22  7  1  1  0  0  0
 22  1  1  0  0  0  0
 24 23  3  0  0  0  0
 25  5  1  0  0  0  0
 26 25  1  0  0  0  0
 27 26  1  0  0  0  0
 28 27  1  0  0  0  0
 29 34  2  0  0  0  0
 30 34  1  0  0  0  0
 30 35  2  0  0  0  0
 31 33  1  0  0  0  0
 32 33  1  0  0  0  0
 33 28  1  1  0  0  0
 34 31  1  0  0  0  0
 35 32  1  0  0  0  0
M  END
>  <MODEL>
2

>  <REMARK>
 VINA RESULT:      -5.6      2.441      7.142
  Name = 
  6 active torsions:
  status: ('A' for Active; 'I' for Inactive)
    1  A    between atoms: C_8  and  N_31
    2  A    between atoms: C_8  and  C_33
    3  A    between atoms: N_9  and  C_33
    4  A    between atoms: C_17  and  C_32
    5  A    between atoms: C_18  and  C_23
    6  A    between atoms: C_18  and  N_31
                            x       y       z     vdW  Elec       q    Type
                         _______ _______ _______ _____ _____    ______ ____

>  <TORSDO>
F 6

$$$$
=
 OpenBabel11052410443D

 35 39  0  0  1  0  0  0  0  0999 V2000
  160.4200  209.2970  154.1750 C   0  0  1  0  0  3  0  0  0  0  0  0
  161.6150  209.5940  155.0710 C   0  0  0  0  0  1  0  0  0  0  0  0
  160.8150  208.8960  148.8800 O   0  0  0  0  0  0  0  0  0  0  0  0
  161.1890  206.9690  151.7820 C   0  0  1  0  0  3  0  0  0  0  0  0
  161.9760  209.7930  150.6880 N   0  0  0  0  0  0  0  0  0  0  0  0
  161.4640  208.6800  149.9400 C   0  0  0  0  0  0  0  0  0  0  0  0
  161.7260  207.8390  152.7380 O   0  0  0  0  0  0  0  0  0  0  0  0
  161.4820  210.1370  152.0290 C   0  0  1  0  0  3  0  0  0  0  0  0
  161.2810  206.2380  149.3620 C   0  0  0  0  0  2  0  0  0  0  0  0
  161.7710  207.2690  150.3860 C   0  0  2  0  0  3  0  0  0  0  0  0
  157.7660  212.6280  154.2310 C   0  0  0  0  0  3  0  0  0  0  0  0
  160.9810  204.5440  151.1660 C   0  0  1  0  0  3  0  0  0  0  0  0
  159.5360  211.4330  153.1220 C   0  0  0  0  0  0  0  0  0  0  0  0
  159.4850  210.4750  154.1550 C   0  0  0  0  0  0  0  0  0  0  0  0
  160.5090  212.1170  151.0630 O   0  0  0  0  0  0  0  0  0  0  0  0
  161.5030  205.5340  152.2000 C   0  0  0  0  0  2  0  0  0  0  0  0
  160.4890  211.2740  152.0000 C   0  0  0  0  0  0  0  0  0  0  0  0
  161.6230  204.8230  149.8140 C   0  0  0  0  0  2  0  0  0  0  0  0
  158.6580  212.5170  153.1680 C   0  0  0  0  0  3  0  0  0  0  0  0
  157.7630  211.6820  155.2060 N   0  0  0  0  0  0  0  0  0  0  0  0
  158.5970  210.6410  155.1700 N   0  0  0  0  0  0  0  0  0  0  0  0
  160.8570  208.9330  152.7510 C   0  0  2  0  0  3  0  0  0  0  0  0
  161.5600  202.1020  151.9240 N   0  0  0  0  0  0  0  0  0  0  0  0
  161.3040  203.1800  151.5890 C   0  0  0  0  0  0  0  0  0  0  0  0
  162.9330  210.6880  150.0510 C   0  0  0  0  0  2  0  0  0  0  0  0
  162.4480  211.0730  148.6660 C   0  0  0  0  0  2  0  0  0  0  0  0
  163.0510  212.3330  148.2750 N   0  0  0  0  0  2  0  0  0  0  0  0
  161.9600  213.2700  148.0690 C   0  0  0  0  0  2  0  0  0  0  0  0
  157.2360  212.9980  147.5330 O   0  0  0  0  0  0  0  0  0  0  0  0
  158.5180  212.4710  145.6100 C   0  0  0  0  0  3  0  0  0  0  0  0
  159.5520  213.0120  147.8190 N   0  0  0  0  0  2  0  0  0  0  0  0
  160.9380  212.9770  145.7950 C   0  0  0  0  0  2  0  0  0  0  0  0
  160.8480  212.6050  147.2800 C   0  0  1  0  0  3  0  0  0  0  0  0
  158.3760  212.8380  147.0250 C   0  0  0  0  0  0  0  0  0  0  0  0
  159.7260  212.4950  145.0420 C   0  0  0  0  0  3  0  0  0  0  0  0
  1  2  1  1  0  0  0
  3  6  2  0  0  0  0
  4 16  1  1  0  0  0
  4  7  1  0  0  0  0
  5  8  1  0  0  0  0
  6 10  1  0  0  0  0
  6  5  1  0  0  0  0
  8 17  1  6  0  0  0
  8 22  1  0  0  0  0
  9 18  1  0  0  0  0
 10  9  1  6  0  0  0
 10  4  1  0  0  0  0
 11 20  1  0  0  0  0
 12 24  1  1  0  0  0
 12 16  1  0  0  0  0
 13 19  1  0  0  0  0
 13 14  2  0  0  0  0
 14  1  1  0  0  0  0
 14 21  1  0  0  0  0
 15 17  2  0  0  0  0
 17 13  1  0  0  0  0
 18 12  1  0  0  0  0
 19 11  2  0  0  0  0
 21 20  2  0  0  0  0
 22  7  1  1  0  0  0
 22  1  1  0  0  0  0
 24 23  3  0  0  0  0
 25  5  1  0  0  0  0
 26 25  1  0  0  0  0
 27 26  1  0  0  0  0
 28 27  1  0  0  0  0
 30 34  1  0  0  0  0
 32 33  1  0  0  0  0
 33 31  1  0  0  0  0
 33 28  1  1  0  0  0
 34 29  2  0  0  0  0
 34 31  1  0  0  0  0
 35 30  2  0  0  0  0
 35 32  1  0  0  0  0
M  END
>  <MODEL>
3

>  <REMARK>
 VINA RESULT:      -5.5      2.148      6.984
  Name = 
  6 active torsions:
  status: ('A' for Active; 'I' for Inactive)
    1  A    between atoms: C_8  and  N_31
    2  A    between atoms: C_8  and  C_33
    3  A    between atoms: N_9  and  C_33
    4  A    between atoms: C_17  and  C_32
    5  A    between atoms: C_18  and  C_23
    6  A    between atoms: C_18  and  N_31
                            x       y       z     vdW  Elec       q    Type
                         _______ _______ _______ _____ _____    ______ ____

>  <TORSDO>
F 6

$$$$
=
 OpenBabel11052410443D

 35 39  0  0  1  0  0  0  0  0999 V2000
  160.4620  210.0790  153.0360 C   0  0  1  0  0  3  0  0  0  0  0  0
  161.6460  210.2890  153.9710 C   0  0  0  0  0  1  0  0  0  0  0  0
  160.9710  209.8810  147.7380 O   0  0  0  0  0  0  0  0  0  0  0  0
  161.1950  207.8220  150.5640 C   0  0  1  0  0  3  0  0  0  0  0  0
  162.1220  210.6540  149.6090 N   0  0  0  0  0  0  0  0  0  0  0  0
  161.5850  209.5950  148.8030 C   0  0  0  0  0  0  0  0  0  0  0  0
  161.7430  208.6290  151.5690 O   0  0  0  0  0  0  0  0  0  0  0  0
  161.6100  210.9620  150.9520 C   0  0  1  0  0  3  0  0  0  0  0  0
  161.3170  207.1890  148.1180 C   0  0  0  0  0  2  0  0  0  0  0  0
  161.8230  208.1560  149.1960 C   0  0  2  0  0  3  0  0  0  0  0  0
  157.9450  213.5130  153.1720 C   0  0  0  0  0  3  0  0  0  0  0  0
  160.9040  205.4350  149.8410 C   0  0  1  0  0  3  0  0  0  0  0  0
  159.6920  212.2920  152.0540 C   0  0  0  0  0  0  0  0  0  0  0  0
  159.5770  211.2950  153.0430 C   0  0  0  0  0  0  0  0  0  0  0  0
  160.7420  213.0190  150.0480 O   0  0  0  0  0  0  0  0  0  0  0  0
  161.4400  206.3600  150.9280 C   0  0  0  0  0  2  0  0  0  0  0  0
  160.6640  212.1400  150.9480 C   0  0  0  0  0  0  0  0  0  0  0  0
  161.5900  205.7430  148.5170 C   0  0  0  0  0  2  0  0  0  0  0  0
  158.8570  213.4090  152.1250 C   0  0  0  0  0  3  0  0  0  0  0  0
  157.8800  212.5280  154.1050 N   0  0  0  0  0  0  0  0  0  0  0  0
  158.6710  211.4550  154.0450 N   0  0  0  0  0  0  0  0  0  0  0  0
  160.9190  209.7560  151.6070 C   0  0  2  0  0  3  0  0  0  0  0  0
  161.3620  202.9420  150.5070 N   0  0  0  0  0  0  0  0  0  0  0  0
  161.1610  204.0430  150.2130 C   0  0  0  0  0  0  0  0  0  0  0  0
  163.1310  211.5340  149.0330 C   0  0  0  0  0  2  0  0  0  0  0  0
  162.4640  212.6720  148.2830 C   0  0  0  0  0  2  0  0  0  0  0  0
  162.8290  212.6060  146.8800 N   0  0  0  0  0  2  0  0  0  0  0  0
  162.4130  213.8630  146.2830 C   0  0  0  0  0  2  0  0  0  0  0  0
  162.3760  212.0010  141.9000 O   0  0  0  0  0  0  0  0  0  0  0  0
  160.2880  212.0260  143.0210 C   0  0  0  0  0  3  0  0  0  0  0  0
  162.3610  213.0200  143.9990 N   0  0  0  0  0  2  0  0  0  0  0  0
  160.3950  212.6460  145.4200 C   0  0  0  0  0  2  0  0  0  0  0  0
  161.5460  213.5960  145.0670 C   0  0  1  0  0  3  0  0  0  0  0  0
  161.7200  212.3340  142.9200 C   0  0  0  0  0  0  0  0  0  0  0  0
  159.6540  212.2110  144.1820 C   0  0  0  0  0  3  0  0  0  0  0  0
  1 14  1  0  0  0  0
  1  2  1  1  0  0  0
  3  6  2  0  0  0  0
  4 16  1  1  0  0  0
  4  7  1  0  0  0  0
  5  8  1  0  0  0  0
  6 10  1  0  0  0  0
  6  5  1  0  0  0  0
  8 17  1  6  0  0  0
  8 22  1  0  0  0  0
  9 18  1  0  0  0  0
 10  9  1  6  0  0  0
 10  4  1  0  0  0  0
 11 20  1  0  0  0  0
 12 24  1  1  0  0  0
 12 16  1  0  0  0  0
 13 19  1  0  0  0  0
 13 14  2  0  0  0  0
 14 21  1  0  0  0  0
 15 17  2  0  0  0  0
 17 13  1  0  0  0  0
 18 12  1  0  0  0  0
 19 11  2  0  0  0  0
 21 20  2  0  0  0  0
 22  7  1  1  0  0  0
 22  1  1  0  0  0  0
 24 23  3  0  0  0  0
 25  5  1  0  0  0  0
 26 25  1  0  0  0  0
 27 26  1  0  0  0  0
 28 27  1  0  0  0  0
 29 34  2  0  0  0  0
 30 35  2  0  0  0  0
 31 33  1  0  0  0  0
 33 32  1  0  0  0  0
 33 28  1  1  0  0  0
 34 30  1  0  0  0  0
 34 31  1  0  0  0  0
 35 32  1  0  0  0  0
M  END
>  <MODEL>
4

>  <REMARK>
 VINA RESULT:      -4.8      2.706      7.089
  Name = 
  6 active torsions:
  status: ('A' for Active; 'I' for Inactive)
    1  A    between atoms: C_8  and  N_31
    2  A    between atoms: C_8  and  C_33
    3  A    between atoms: N_9  and  C_33
    4  A    between atoms: C_17  and  C_32
    5  A    between atoms: C_18  and  C_23
    6  A    between atoms: C_18  and  N_31
                            x       y       z     vdW  Elec       q    Type
                         _______ _______ _______ _____ _____    ______ ____

>  <TORSDO>
F 6

$$$$
=
 OpenBabel11052410443D

 35 39  0  0  1  0  0  0  0  0999 V2000
  160.4990  210.6570  153.6750 C   0  0  1  0  0  3  0  0  0  0  0  0
  158.9780  210.7040  153.7310 C   0  0  0  0  0  1  0  0  0  0  0  0
  163.1640  207.6210  150.2040 O   0  0  0  0  0  0  0  0  0  0  0  0
  161.6450  210.7690  150.4480 C   0  0  1  0  0  3  0  0  0  0  0  0
  161.0520  207.7830  151.1720 N   0  0  0  0  0  0  0  0  0  0  0  0
  162.0960  208.2840  150.3250 C   0  0  0  0  0  0  0  0  0  0  0  0
  160.5120  210.5740  151.2480 O   0  0  0  0  0  0  0  0  0  0  0  0
  160.6500  208.4600  152.4140 C   0  0  1  0  0  3  0  0  0  0  0  0
  163.0410  209.8160  148.5660 C   0  0  0  0  0  2  0  0  0  0  0  0
  161.8790  209.5510  149.5310 C   0  0  2  0  0  3  0  0  0  0  0  0
  161.9720  208.7920  157.2100 C   0  0  0  0  0  3  0  0  0  0  0  0
  162.6270  212.2710  148.6920 C   0  0  1  0  0  3  0  0  0  0  0  0
  161.3770  208.6030  154.8860 C   0  0  0  0  0  0  0  0  0  0  0  0
  161.0390  209.9710  154.9000 C   0  0  0  0  0  0  0  0  0  0  0  0
  161.5830  206.5990  153.6240 O   0  0  0  0  0  0  0  0  0  0  0  0
  161.4410  212.0360  149.6200 C   0  0  0  0  0  2  0  0  0  0  0  0
  161.2500  207.8150  153.6400 C   0  0  0  0  0  0  0  0  0  0  0  0
  162.7930  211.0820  147.7550 C   0  0  0  0  0  2  0  0  0  0  0  0
  161.8540  208.0170  156.0590 C   0  0  0  0  0  3  0  0  0  0  0  0
  161.6250  210.1040  157.1740 N   0  0  0  0  0  0  0  0  0  0  0  0
  161.1720  210.6750  156.0560 N   0  0  0  0  0  0  0  0  0  0  0  0
  160.9980  209.9570  152.4040 C   0  0  2  0  0  3  0  0  0  0  0  0
  162.2200  214.4460  147.2870 N   0  0  0  0  0  0  0  0  0  0  0  0
  162.4000  213.4850  147.9060 C   0  0  0  0  0  0  0  0  0  0  0  0
  160.4480  206.4940  150.8590 C   0  0  0  0  0  2  0  0  0  0  0  0
  160.4490  206.2690  149.3590 C   0  0  0  0  0  2  0  0  0  0  0  0
  161.2610  205.1080  149.0450 N   0  0  0  0  0  2  0  0  0  0  0  0
  160.8510  204.0540  149.9570 C   0  0  0  0  0  2  0  0  0  0  0  0
  160.8320  202.0970  145.6160 O   0  0  0  0  0  0  0  0  0  0  0  0
  161.1510  200.5910  147.4180 C   0  0  0  0  0  3  0  0  0  0  0  0
  160.7230  203.0290  147.7530 N   0  0  0  0  0  2  0  0  0  0  0  0
  161.5320  201.6620  149.6220 C   0  0  0  0  0  2  0  0  0  0  0  0
  160.5750  202.7780  149.1850 C   0  0  1  0  0  3  0  0  0  0  0  0
  160.8970  201.9250  146.8610 C   0  0  0  0  0  0  0  0  0  0  0  0
  161.4080  200.4600  148.7220 C   0  0  0  0  0  3  0  0  0  0  0  0
  1  2  1  1  0  0  0
  1 14  1  0  0  0  0
  3  6  2  0  0  0  0
  4 16  1  6  0  0  0
  4  7  1  0  0  0  0
  5  8  1  0  0  0  0
  6  5  1  0  0  0  0
  8 17  1  1  0  0  0
 10  9  1  1  0  0  0
 10  6  1  0  0  0  0
 10  4  1  0  0  0  0
 12 24  1  6  0  0  0
 12 16  1  0  0  0  0
 13 14  2  0  0  0  0
 13 19  1  0  0  0  0
 14 21  1  0  0  0  0
 15 17  2  0  0  0  0
 17 13  1  0  0  0  0
 18  9  1  0  0  0  0
 18 12  1  0  0  0  0
 19 11  2  0  0  0  0
 20 11  1  0  0  0  0
 21 20  2  0  0  0  0
 22  7  1  6  0  0  0
 22  8  1  0  0  0  0
 22  1  1  0  0  0  0
 23 24  3  0  0  0  0
 25  5  1  0  0  0  0
 26 25  1  0  0  0  0
 27 26  1  0  0  0  0
 27 28  1  0  0  0  0
 29 34  2  0  0  0  0
 30 35  2  0  0  0  0
 31 33  1  0  0  0  0
 33 32  1  0  0  0  0
 33 28  1  1  0  0  0
 34 30  1  0  0  0  0
 34 31  1  0  0  0  0
 35 32  1  0  0  0  0
M  END
>  <MODEL>
5

>  <REMARK>
 VINA RESULT:      -4.6      2.093      2.719
  Name = 
  6 active torsions:
  status: ('A' for Active; 'I' for Inactive)
    1  A    between atoms: C_8  and  N_31
    2  A    between atoms: C_8  and  C_33
    3  A    between atoms: N_9  and  C_33
    4  A    between atoms: C_17  and  C_32
    5  A    between atoms: C_18  and  C_23
    6  A    between atoms: C_18  and  N_31
                            x       y       z     vdW  Elec       q    Type
                         _______ _______ _______ _____ _____    ______ ____

>  <TORSDO>
F 6

$$$$
=
 OpenBabel11052410443D

 35 39  0  0  1  0  0  0  0  0999 V2000
  160.9850  207.2860  154.1990 C   0  0  1  0  0  3  0  0  0  0  0  0
  162.3300  207.3210  154.9120 C   0  0  0  0  0  1  0  0  0  0  0  0
  160.4900  207.9430  148.9380 O   0  0  0  0  0  0  0  0  0  0  0  0
  161.1370  205.4490  151.3110 C   0  0  1  0  0  3  0  0  0  0  0  0
  162.0040  208.3830  150.6510 N   0  0  0  0  0  0  0  0  0  0  0  0
  161.2760  207.4780  149.8080 C   0  0  0  0  0  0  0  0  0  0  0  0
  161.9000  206.0720  152.3060 O   0  0  0  0  0  0  0  0  0  0  0  0
  161.7650  208.4770  152.0990 C   0  0  1  0  0  3  0  0  0  0  0  0
  160.7720  205.2190  148.8180 C   0  0  0  0  0  2  0  0  0  0  0  0
  161.5150  205.9900  149.9170 C   0  0  2  0  0  3  0  0  0  0  0  0
  158.7020  210.6930  155.3500 C   0  0  0  0  0  3  0  0  0  0  0  0
  160.6040  203.2160  150.2930 C   0  0  1  0  0  3  0  0  0  0  0  0
  160.1510  209.6410  153.7410 C   0  0  0  0  0  0  0  0  0  0  0  0
  160.1750  208.4990  154.5660 C   0  0  0  0  0  0  0  0  0  0  0  0
  160.8430  210.6670  151.7110 O   0  0  0  0  0  0  0  0  0  0  0  0
  161.3770  203.9420  151.3880 C   0  0  0  0  0  2  0  0  0  0  0  0
  160.8920  209.6550  152.4600 C   0  0  0  0  0  0  0  0  0  0  0  0
  161.0460  203.7240  148.9270 C   0  0  0  0  0  2  0  0  0  0  0  0
  159.3980  210.7450  154.1450 C   0  0  0  0  0  3  0  0  0  0  0  0
  158.7650  209.5710  156.1130 N   0  0  0  0  0  0  0  0  0  0  0  0
  159.4790  208.5090  155.7350 N   0  0  0  0  0  0  0  0  0  0  0  0
  161.1520  207.1920  152.6770 C   0  0  2  0  0  3  0  0  0  0  0  0
  161.0630  200.6410  150.4600 N   0  0  0  0  0  0  0  0  0  0  0  0
  160.8600  201.7780  150.3870 C   0  0  0  0  0  0  0  0  0  0  0  0
  162.9280  209.3270  150.0380 C   0  0  0  0  0  2  0  0  0  0  0  0
  162.3070  209.9320  148.7930 C   0  0  0  0  0  2  0  0  0  0  0  0
  162.3010  211.3790  148.9100 N   0  0  0  0  0  2  0  0  0  0  0  0
  161.9230  211.9000  147.6080 C   0  0  0  0  0  2  0  0  0  0  0  0
  157.3850  213.1090  146.8170 O   0  0  0  0  0  0  0  0  0  0  0  0
  158.4410  214.2180  148.6260 C   0  0  0  0  0  3  0  0  0  0  0  0
  159.6430  212.6120  147.1360 N   0  0  0  0  0  2  0  0  0  0  0  0
  160.6620  213.3120  149.2560 C   0  0  0  0  0  2  0  0  0  0  0  0
  160.8980  213.0070  147.7710 C   0  0  1  0  0  3  0  0  0  0  0  0
  158.4350  213.2960  147.4830 C   0  0  0  0  0  0  0  0  0  0  0  0
  159.5030  214.2570  149.4350 C   0  0  0  0  0  3  0  0  0  0  0  0
  1 14  1  0  0  0  0
  1  2  1  1  0  0  0
  3  6  2  0  0  0  0
  4 16  1  6  0  0  0
  4  7  1  0  0  0  0
  5  8  1  0  0  0  0
  6 10  1  0  0  0  0
  6  5  1  0  0  0  0
  8 17  1  6  0  0  0
  8 22  1  0  0  0  0
  9 18  1  0  0  0  0
 10  9  1  6  0  0  0
 10  4  1  0  0  0  0
 11 20  1  0  0  0  0
 12 24  1  6  0  0  0
 12 16  1  0  0  0  0
 13 19  1  0  0  0  0
 13 14  2  0  0  0  0
 14 21  1  0  0  0  0
 15 17  2  0  0  0  0
 17 13  1  0  0  0  0
 18 12  1  0  0  0  0
 19 11  2  0  0  0  0
 21 20  2  0  0  0  0
 22  7  1  1  0  0  0
 22  1  1  0  0  0  0
 24 23  3  0  0  0  0
 25  5  1  0  0  0  0
 26 27  1  0  0  0  0
 26 25  1  0  0  0  0
 28 27  1  0  0  0  0
 29 34  2  0  0  0  0
 30 35  2  0  0  0  0
 31 34  1  0  0  0  0
 31 33  1  0  0  0  0
 32 35  1  0  0  0  0
 33 28  1  1  0  0  0
 33 32  1  0  0  0  0
 34 30  1  0  0  0  0
M  END
>  <MODEL>
6

>  <REMARK>
 VINA RESULT:      -4.5      2.402      7.456
  Name = 
  6 active torsions:
  status: ('A' for Active; 'I' for Inactive)
    1  A    between atoms: C_8  and  N_31
    2  A    between atoms: C_8  and  C_33
    3  A    between atoms: N_9  and  C_33
    4  A    between atoms: C_17  and  C_32
    5  A    between atoms: C_18  and  C_23
    6  A    between atoms: C_18  and  N_31
                            x       y       z     vdW  Elec       q    Type
                         _______ _______ _______ _____ _____    ______ ____

>  <TORSDO>
F 6

$$$$
=
 OpenBabel11052410443D

 35 39  0  0  1  0  0  0  0  0999 V2000
  162.1200  207.5880  148.7750 C   0  0  1  0  0  3  0  0  0  0  0  0
  163.6240  207.4040  148.6230 C   0  0  0  0  0  1  0  0  0  0  0  0
  159.9680  210.9570  152.2940 O   0  0  0  0  0  0  0  0  0  0  0  0
  161.2770  210.8980  149.0450 C   0  0  1  0  0  3  0  0  0  0  0  0
  161.9670  209.8290  151.9040 N   0  0  0  0  0  0  0  0  0  0  0  0
  160.9800  210.8100  151.5550 C   0  0  0  0  0  0  0  0  0  0  0  0
  162.3390  209.9860  149.0890 O   0  0  0  0  0  0  0  0  0  0  0  0
  162.2130  208.6310  151.0870 C   0  0  1  0  0  3  0  0  0  0  0  0
  160.1190  212.7900  150.2620 C   0  0  0  0  0  2  0  0  0  0  0  0
  161.1990  211.7050  150.3570 C   0  0  2  0  0  3  0  0  0  0  0  0
  160.4310  204.0260  150.3900 C   0  0  0  0  0  3  0  0  0  0  0  0
  160.3800  212.8750  147.7840 C   0  0  1  0  0  3  0  0  0  0  0  0
  161.2510  206.2590  150.7580 C   0  0  0  0  0  0  0  0  0  0  0  0
  161.5080  206.3520  149.3760 C   0  0  0  0  0  0  0  0  0  0  0  0
  161.2770  207.3270  152.8830 O   0  0  0  0  0  0  0  0  0  0  0  0
  161.4860  211.8280  147.8520 C   0  0  0  0  0  2  0  0  0  0  0  0
  161.5380  207.4040  151.6510 C   0  0  0  0  0  0  0  0  0  0  0  0
  160.3700  213.6990  149.0650 C   0  0  0  0  0  2  0  0  0  0  0  0
  160.7010  205.0790  151.2610 C   0  0  0  0  0  3  0  0  0  0  0  0
  160.7050  204.1640  149.0670 N   0  0  0  0  0  0  0  0  0  0  0  0
  161.2280  205.2890  148.5760 N   0  0  0  0  0  0  0  0  0  0  0  0
  161.7830  208.8210  149.6240 C   0  0  2  0  0  3  0  0  0  0  0  0
  160.7940  214.4510  145.7300 N   0  0  0  0  0  0  0  0  0  0  0  0
  160.6110  213.7560  146.6370 C   0  0  0  0  0  0  0  0  0  0  0  0
  162.6700  209.9580  153.1740 C   0  0  0  0  0  2  0  0  0  0  0  0
  161.7930  210.6710  154.1860 C   0  0  0  0  0  2  0  0  0  0  0  0
  161.5170  209.7810  155.2980 N   0  0  0  0  0  2  0  0  0  0  0  0
  160.8170  210.5700  156.2980 C   0  0  0  0  0  2  0  0  0  0  0  0
  156.1980  210.7760  155.1590 O   0  0  0  0  0  0  0  0  0  0  0  0
  157.2800  212.8670  155.4310 C   0  0  0  0  0  3  0  0  0  0  0  0
  158.4880  210.6860  155.5980 N   0  0  0  0  0  2  0  0  0  0  0  0
  159.5670  212.7450  156.3840 C   0  0  0  0  0  2  0  0  0  0  0  0
  159.7510  211.4200  155.6330 C   0  0  1  0  0  3  0  0  0  0  0  0
  157.2670  211.3990  155.3850 C   0  0  0  0  0  0  0  0  0  0  0  0
  158.3740  213.5020  155.8610 C   0  0  0  0  0  3  0  0  0  0  0  0
  1  2  1  1  0  0  0
  1 14  1  0  0  0  0
  1 22  1  0  0  0  0
  4 16  1  6  0  0  0
  4  7  1  0  0  0  0
  4 10  1  0  0  0  0
  5 25  1  0  0  0  0
  6  5  1  0  0  0  0
  6  3  2  0  0  0  0
  8 17  1  1  0  0  0
  8  5  1  0  0  0  0
 10  9  1  6  0  0  0
 10  6  1  0  0  0  0
 11 19  1  0  0  0  0
 12 24  1  6  0  0  0
 12 16  1  0  0  0  0
 12 18  1  0  0  0  0
 13 19  2  0  0  0  0
 13 17  1  0  0  0  0
 14 13  1  0  0  0  0
 17 15  2  0  0  0  0
 18  9  1  0  0  0  0
 20 11  2  0  0  0  0
 21 20  1  0  0  0  0
 21 14  2  0  0  0  0
 22  7  1  6  0  0  0
 22  8  1  0  0  0  0
 23 24  3  0  0  0  0
 25 26  1  0  0  0  0
 26 27  1  0  0  0  0
 27 28  1  0  0  0  0
 29 34  2  0  0  0  0
 30 35  2  0  0  0  0
 31 33  1  0  0  0  0
 33 28  1  1  0  0  0
 33 32  1  0  0  0  0
 34 30  1  0  0  0  0
 34 31  1  0  0  0  0
 35 32  1  0  0  0  0
M  END
>  <MODEL>
7

>  <REMARK>
 VINA RESULT:      -4.4      2.094      7.216
  Name = 
  6 active torsions:
  status: ('A' for Active; 'I' for Inactive)
    1  A    between atoms: C_8  and  N_31
    2  A    between atoms: C_8  and  C_33
    3  A    between atoms: N_9  and  C_33
    4  A    between atoms: C_17  and  C_32
    5  A    between atoms: C_18  and  C_23
    6  A    between atoms: C_18  and  N_31
                            x       y       z     vdW  Elec       q    Type
                         _______ _______ _______ _____ _____    ______ ____

>  <TORSDO>
F 6

$$$$
=
 OpenBabel11052410443D

 35 39  0  0  1  0  0  0  0  0999 V2000
  160.2570  211.3460  153.5220 C   0  0  1  0  0  3  0  0  0  0  0  0
  158.7360  211.2880  153.5730 C   0  0  0  0  0  1  0  0  0  0  0  0
  163.1660  208.1140  150.4490 O   0  0  0  0  0  0  0  0  0  0  0  0
  161.4190  211.1470  150.3060 C   0  0  1  0  0  3  0  0  0  0  0  0
  161.0410  208.2360  151.3910 N   0  0  0  0  0  0  0  0  0  0  0  0
  162.0520  208.7060  150.4880 C   0  0  0  0  0  0  0  0  0  0  0  0
  160.2970  210.9680  151.1240 O   0  0  0  0  0  0  0  0  0  0  0  0
  160.5790  209.0290  152.5400 C   0  0  1  0  0  3  0  0  0  0  0  0
  162.8970  210.0770  148.5540 C   0  0  0  0  0  2  0  0  0  0  0  0
  161.7490  209.8470  149.5450 C   0  0  2  0  0  3  0  0  0  0  0  0
  161.8320  210.0410  157.2590 C   0  0  0  0  0  3  0  0  0  0  0  0
  162.3030  212.4920  148.3780 C   0  0  1  0  0  3  0  0  0  0  0  0
  161.2720  209.5260  154.9750 C   0  0  0  0  0  0  0  0  0  0  0  0
  160.8350  210.8570  154.8220 C   0  0  0  0  0  0  0  0  0  0  0  0
  161.6360  207.4030  153.9680 O   0  0  0  0  0  0  0  0  0  0  0  0
  161.1290  212.2850  149.3290 C   0  0  0  0  0  2  0  0  0  0  0  0
  161.2140  208.5840  153.8350 C   0  0  0  0  0  0  0  0  0  0  0  0
  162.5640  211.2120  147.5950 C   0  0  0  0  0  2  0  0  0  0  0  0
  161.7800  209.1240  156.2120 C   0  0  0  0  0  3  0  0  0  0  0  0
  161.3900  211.3100  157.0620 N   0  0  0  0  0  0  0  0  0  0  0  0
  160.9050  211.7050  155.8830 N   0  0  0  0  0  0  0  0  0  0  0  0
  160.8160  210.5350  152.3470 C   0  0  2  0  0  3  0  0  0  0  0  0
  161.7500  214.4400  146.7150 N   0  0  0  0  0  0  0  0  0  0  0  0
  161.9940  213.5800  147.4500 C   0  0  0  0  0  0  0  0  0  0  0  0
  160.5350  206.8780  151.2370 C   0  0  0  0  0  2  0  0  0  0  0  0
  160.3250  206.5620  149.7690 C   0  0  0  0  0  2  0  0  0  0  0  0
  161.2120  205.4840  149.3740 N   0  0  0  0  0  2  0  0  0  0  0  0
  161.8030  205.8750  148.1060 C   0  0  0  0  0  2  0  0  0  0  0  0
  161.2230  205.8150  143.3800 O   0  0  0  0  0  0  0  0  0  0  0  0
  160.8360  203.7550  144.4870 C   0  0  0  0  0  3  0  0  0  0  0  0
  161.3870  205.8640  145.7070 N   0  0  0  0  0  2  0  0  0  0  0  0
  161.5020  203.7090  146.8750 C   0  0  0  0  0  2  0  0  0  0  0  0
  161.0850  205.1820  146.9640 C   0  0  1  0  0  3  0  0  0  0  0  0
  161.1550  205.1880  144.4690 C   0  0  0  0  0  0  0  0  0  0  0  0
  160.9580  203.0670  145.6250 C   0  0  0  0  0  3  0  0  0  0  0  0
  1  2  1  1  0  0  0
  1 14  1  0  0  0  0
  3  6  2  0  0  0  0
  4 16  1  6  0  0  0
  4  7  1  0  0  0  0
  5  8  1  0  0  0  0
  6  5  1  0  0  0  0
  8 17  1  1  0  0  0
 10  9  1  6  0  0  0
 10  4  1  0  0  0  0
 10  6  1  0  0  0  0
 12 24  1  6  0  0  0
 12 16  1  0  0  0  0
 13 19  1  0  0  0  0
 14 13  2  0  0  0  0
 14 21  1  0  0  0  0
 17 15  2  0  0  0  0
 17 13  1  0  0  0  0
 18 12  1  0  0  0  0
 18  9  1  0  0  0  0
 19 11  2  0  0  0  0
 20 11  1  0  0  0  0
 21 20  2  0  0  0  0
 22  7  1  6  0  0  0
 22  8  1  0  0  0  0
 22  1  1  0  0  0  0
 23 24  3  0  0  0  0
 25  5  1  0  0  0  0
 26 25  1  0  0  0  0
 27 26  1  0  0  0  0
 28 27  1  0  0  0  0
 29 34  2  0  0  0  0
 30 35  2  0  0  0  0
 31 33  1  0  0  0  0
 32 33  1  0  0  0  0
 33 28  1  1  0  0  0
 34 30  1  0  0  0  0
 34 31  1  0  0  0  0
 35 32  1  0  0  0  0
M  END
>  <MODEL>
8

>  <REMARK>
 VINA RESULT:      -4.2      2.295      2.869
  Name = 
  6 active torsions:
  status: ('A' for Active; 'I' for Inactive)
    1  A    between atoms: C_8  and  N_31
    2  A    between atoms: C_8  and  C_33
    3  A    between atoms: N_9  and  C_33
    4  A    between atoms: C_17  and  C_32
    5  A    between atoms: C_18  and  C_23
    6  A    between atoms: C_18  and  N_31
                            x       y       z     vdW  Elec       q    Type
                         _______ _______ _______ _____ _____    ______ ____

>  <TORSDO>
F 6

$$$$
=
 OpenBabel11052410443D

 35 39  0  0  1  0  0  0  0  0999 V2000
  162.0270  211.0450  148.3970 C   0  0  1  0  0  3  0  0  0  0  0  0
  163.3430  211.8100  148.4470 C   0  0  0  0  0  1  0  0  0  0  0  0
  157.4030  213.1570  149.9820 O   0  0  0  0  0  0  0  0  0  0  0  0
  159.4870  212.9900  147.1710 C   0  0  1  0  0  3  0  0  0  0  0  0
  159.6920  213.4800  150.2550 N   0  0  0  0  0  0  0  0  0  0  0  0
  158.5040  213.4700  149.4510 C   0  0  0  0  0  0  0  0  0  0  0  0
  160.7930  213.0080  147.6750 O   0  0  0  0  0  0  0  0  0  0  0  0
  160.7950  212.5290  150.0450 C   0  0  1  0  0  3  0  0  0  0  0  0
  157.1710  213.9860  147.3790 C   0  0  0  0  0  2  0  0  0  0  0  0
  158.5690  213.9060  148.0050 C   0  0  2  0  0  3  0  0  0  0  0  0
  162.1380  207.8800  151.2450 C   0  0  0  0  0  3  0  0  0  0  0  0
  158.1170  213.4920  145.1270 C   0  0  1  0  0  3  0  0  0  0  0  0
  161.4430  210.1160  150.6880 C   0  0  0  0  0  0  0  0  0  0  0  0
  162.0320  209.9420  149.4190 C   0  0  0  0  0  0  0  0  0  0  0  0
  160.2050  211.5220  152.1520 O   0  0  0  0  0  0  0  0  0  0  0  0
  159.5240  213.4460  145.7140 C   0  0  0  0  0  2  0  0  0  0  0  0
  160.7580  211.3830  151.0270 C   0  0  0  0  0  0  0  0  0  0  0  0
  157.2530  214.4530  145.9310 C   0  0  0  0  0  2  0  0  0  0  0  0
  161.4970  209.0630  151.6030 C   0  0  0  0  0  3  0  0  0  0  0  0
  162.6980  207.7670  150.0130 N   0  0  0  0  0  0  0  0  0  0  0  0
  162.6490  208.7650  149.1300 N   0  0  0  0  0  0  0  0  0  0  0  0
  160.8240  211.9730  148.6130 C   0  0  2  0  0  3  0  0  0  0  0  0
  158.2370  214.2940  142.6340 N   0  0  0  0  0  0  0  0  0  0  0  0
  158.1830  213.9400  143.7350 C   0  0  0  0  0  0  0  0  0  0  0  0
  159.7620  214.3820  151.3970 C   0  0  0  0  0  2  0  0  0  0  0  0
  158.4220  214.4340  152.1040 C   0  0  0  0  0  2  0  0  0  0  0  0
  158.6090  214.1580  153.5160 N   0  0  0  0  0  2  0  0  0  0  0  0
  157.7540  213.0280  153.8360 C   0  0  0  0  0  2  0  0  0  0  0  0
  159.5360  209.0730  155.8000 O   0  0  0  0  0  0  0  0  0  0  0  0
  159.9940  211.0890  156.9590 C   0  0  0  0  0  3  0  0  0  0  0  0
  158.5660  211.0000  154.9110 N   0  0  0  0  0  2  0  0  0  0  0  0
  159.3880  213.1600  155.7370 C   0  0  0  0  0  2  0  0  0  0  0  0
  158.1980  212.3950  155.1420 C   0  0  1  0  0  3  0  0  0  0  0  0
  159.3690  210.3170  155.8770 C   0  0  0  0  0  0  0  0  0  0  0  0
  159.9670  212.4240  156.9160 C   0  0  0  0  0  3  0  0  0  0  0  0
  1  2  1  1  0  0  0
  1 22  1  0  0  0  0
  1 14  1  0  0  0  0
  4 16  1  6  0  0  0
  4  7  1  0  0  0  0
  4 10  1  0  0  0  0
  5 25  1  0  0  0  0
  6  3  2  0  0  0  0
  6  5  1  0  0  0  0
  8  5  1  0  0  0  0
  8 17  1  1  0  0  0
 10  9  1  6  0  0  0
 10  6  1  0  0  0  0
 11 19  1  0  0  0  0
 12 24  1  6  0  0  0
 12 16  1  0  0  0  0
 12 18  1  0  0  0  0
 13 17  1  0  0  0  0
 13 19  2  0  0  0  0
 14 13  1  0  0  0  0
 17 15  2  0  0  0  0
 18  9  1  0  0  0  0
 20 11  2  0  0  0  0
 21 14  2  0  0  0  0
 21 20  1  0  0  0  0
 22  7  1  6  0  0  0
 22  8  1  0  0  0  0
 23 24  3  0  0  0  0
 25 26  1  0  0  0  0
 26 27  1  0  0  0  0
 27 28  1  0  0  0  0
 29 34  2  0  0  0  0
 31 33  1  0  0  0  0
 31 34  1  0  0  0  0
 32 35  1  0  0  0  0
 33 28  1  6  0  0  0
 33 32  1  0  0  0  0
 34 30  1  0  0  0  0
 35 30  2  0  0  0  0
M  END
>  <MODEL>
9

>  <REMARK>
 VINA RESULT:      -3.6      3.076      7.087
  Name = 
  6 active torsions:
  status: ('A' for Active; 'I' for Inactive)
    1  A    between atoms: C_8  and  N_31
    2  A    between atoms: C_8  and  C_33
    3  A    between atoms: N_9  and  C_33
    4  A    between atoms: C_17  and  C_32
    5  A    between atoms: C_18  and  C_23
    6  A    between atoms: C_18  and  N_31
                            x       y       z     vdW  Elec       q    Type
                         _______ _______ _______ _____ _____    ______ ____

>  <TORSDO>
F 6

$$$$
