=
 OpenBabel11052409583D

 39 42  0  0  1  0  0  0  0  0999 V2000
  161.1930  209.1520  151.8320 C   0  0  2  0  0  3  0  0  0  0  0  0
  161.1750  206.5670  151.4290 C   0  0  0  0  0  0  0  0  0  0  0  0
  161.5730  205.9300  153.5910 N   0  0  0  0  0  0  0  0  0  0  0  0
  160.8530  205.4030  149.2740 C   0  0  0  0  0  3  0  0  0  0  0  0
  161.2740  207.6970  152.2250 C   0  0  0  0  0  0  0  0  0  0  0  0
  160.9520  206.5340  150.0660 C   0  0  0  0  0  3  0  0  0  0  0  0
  161.3690  205.4640  152.3460 C   0  0  0  0  0  0  0  0  0  0  0  0
  161.5180  207.2780  153.5230 C   0  0  0  0  0  3  0  0  0  0  0  0
  161.3530  204.1430  152.0720 N   0  0  0  0  0  0  0  0  0  0  0  0
  160.7830  203.0850  148.5130 C   0  0  0  0  0  1  0  0  0  0  0  0
  160.9470  204.0570  149.6240 C   0  0  0  0  0  0  0  0  0  0  0  0
  161.1730  203.5090  150.8880 C   0  0  0  0  0  3  0  0  0  0  0  0
  161.5410  210.8470  149.9970 N   0  0  0  0  0  2  0  0  0  0  0  0
  161.8100  209.5480  150.5200 C   0  0  0  0  0  0  0  0  0  0  0  0
  162.5830  208.7670  149.9050 O   0  0  0  0  0  0  0  0  0  0  0  0
  162.0950  211.3010  148.7300 C   0  0  0  0  0  2  0  0  0  0  0  0
  159.4980  213.6870  148.8780 C   0  0  0  0  0  3  0  0  0  0  0  0
  162.7990  213.5590  148.3320 F   0  0  0  0  0  0  0  0  0  0  0  0
  160.8340  212.8330  147.2380 C   0  0  0  0  0  0  0  0  0  0  0  0
  161.6850  212.7440  148.4580 C   0  0  1  0  0  0  0  0  0  0  0  0
  159.5680  213.4350  147.5870 C   0  0  0  0  0  0  0  0  0  0  0  0
  160.7620  213.2700  149.5700 C   0  0  0  0  0  2  0  0  0  0  0  0
  158.5470  213.7180  146.6890 O   0  0  0  0  0  1  0  0  0  0  0  0
  161.2520  212.6280  145.9960 C   0  0  0  0  0  2  0  0  0  0  0  0
  161.4670  210.0830  152.9290 N   0  0  0  0  0  2  0  0  0  0  0  0
  159.2680  211.1220  152.7980 C   0  0  0  0  0  2  0  0  0  0  0  0
  160.5570  211.3130  154.8480 C   0  0  2  0  0  3  0  0  0  0  0  0
  159.5600  212.4730  154.7740 C   0  0  1  0  0  3  0  0  0  0  0  0
  160.2520  210.3780  153.6800 C   0  0  2  0  0  3  0  0  0  0  0  0
  158.5410  212.0850  153.7180 C   0  0  1  0  0  3  0  0  0  0  0  0
  158.9220  212.7180  155.9890 O   0  0  0  0  0  1  0  0  0  0  0  0
  158.0080  213.2770  152.9720 C   0  0  0  0  0  0  0  0  0  0  0  0
  158.7900  214.0310  152.3340 O   0  0  0  0  0  0  0  0  0  0  0  0
  156.6250  213.6100  153.0460 N   0  0  0  0  0  1  0  0  0  0  0  0
  160.5780  210.6220  156.1460 N   0  0  0  0  0  2  0  0  0  0  0  0
  159.8650  209.3470  156.0800 C   0  0  0  0  0  2  0  0  0  0  0  0
  160.3740  208.4390  157.0980 N   0  0  0  0  0  0  0  0  0  0  0  0
  161.8250  208.4300  156.9860 C   0  0  0  0  0  1  0  0  0  0  0  0
  159.9210  207.1110  156.7260 C   0  0  0  0  0  1  0  0  0  0  0  0
  1 14  1  6  0  0  0
  1  5  1  0  0  0  0
  1 25  1  0  0  0  0
  2  5  1  0  0  0  0
  2  7  1  0  0  0  0
  4 11  2  0  0  0  0
  4  6  1  0  0  0  0
  5  8  2  0  0  0  0
  6  2  2  0  0  0  0
  7  3  2  0  0  0  0
  8  3  1  0  0  0  0
  9  7  1  0  0  0  0
 10 11  1  0  0  0  0
 11 12  1  0  0  0  0
 12  9  2  0  0  0  0
 13 14  1  0  0  0  0
 15 14  2  0  0  0  0
 16 13  1  0  0  0  0
 17 22  1  0  0  0  0
 19 21  1  0  0  0  0
 19 20  1  0  0  0  0
 20 18  1  6  0  0  0
 20 16  1  0  0  0  0
 20 22  1  0  0  0  0
 21 17  2  0  0  0  0
 23 21  1  0  0  0  0
 24 19  2  0  0  0  0
 26 29  1  0  0  0  0
 26 30  1  0  0  0  0
 27 35  1  1  0  0  0
 28 27  1  0  0  0  0
 28 31  1  1  0  0  0
 29 25  1  6  0  0  0
 29 27  1  0  0  0  0
 30 32  1  6  0  0  0
 30 28  1  0  0  0  0
 32 34  1  0  0  0  0
 33 32  2  0  0  0  0
 36 35  1  0  0  0  0
 36 37  1  0  0  0  0
 38 37  1  0  0  0  0
 39 37  1  0  0  0  0
M  END
>  <MODEL>
1

>  <REMARK>
 VINA RESULT:      -8.0      0.000      0.000
  Name = 
  10 active torsions:
  status: ('A' for Active; 'I' for Inactive)
    1  A    between atoms: C_4  and  N_9
    2  A    between atoms: C_4  and  N_18
    3  A    between atoms: C_7  and  N_18
    4  A    between atoms: N_8  and  C_37
    5  A    between atoms: C_10  and  C_37
    6  A    between atoms: C_12  and  C_16
    7  A    between atoms: C_16  and  C_19
    8  A    between atoms: C_16  and  N_27
    9  A    between atoms: C_23  and  C_34
   10  A    between atoms: N_27  and  C_32
                            x       y       z     vdW  Elec       q    Type
                         _______ _______ _______ _____ _____    ______ ____

>  <TORSDO>
F 10

$$$$
=
 OpenBabel11052409583D

 39 42  0  0  1  0  0  0  0  0999 V2000
  161.7840  209.1190  151.1270 C   0  0  2  0  0  3  0  0  0  0  0  0
  160.5980  210.6800  152.8590 C   0  0  0  0  0  0  0  0  0  0  0  0
  162.3230  210.8200  154.3570 N   0  0  0  0  0  0  0  0  0  0  0  0
  158.2960  211.5660  152.7260 C   0  0  0  0  0  3  0  0  0  0  0  0
  161.6740  209.9450  152.3840 C   0  0  0  0  0  0  0  0  0  0  0  0
  159.3680  210.8320  152.2480 C   0  0  0  0  0  3  0  0  0  0  0  0
  161.0610  211.2220  154.1180 C   0  0  0  0  0  0  0  0  0  0  0  0
  162.6970  210.0480  153.3130 C   0  0  0  0  0  3  0  0  0  0  0  0
  160.3930  212.0220  154.9740 N   0  0  0  0  0  0  0  0  0  0  0  0
  156.8720  212.9960  154.0990 C   0  0  0  0  0  1  0  0  0  0  0  0
  158.1770  212.3150  153.8950 C   0  0  0  0  0  0  0  0  0  0  0  0
  159.1310  212.5090  154.8950 C   0  0  0  0  0  3  0  0  0  0  0  0
  161.9930  211.2810  149.8460 N   0  0  0  0  0  2  0  0  0  0  0  0
  161.9340  209.8560  149.8270 C   0  0  0  0  0  0  0  0  0  0  0  0
  162.0450  209.2340  148.7370 O   0  0  0  0  0  0  0  0  0  0  0  0
  162.1300  212.0660  148.6280 C   0  0  0  0  0  2  0  0  0  0  0  0
  159.0660  213.6130  149.4510 C   0  0  0  0  0  3  0  0  0  0  0  0
  162.2480  214.4530  148.8320 F   0  0  0  0  0  0  0  0  0  0  0  0
  160.4250  213.5630  147.6190 C   0  0  0  0  0  0  0  0  0  0  0  0
  161.3710  213.3820  148.7560 C   0  0  1  0  0  0  0  0  0  0  0  0
  159.0870  213.7220  148.1380 C   0  0  0  0  0  0  0  0  0  0  0  0
  160.4450  213.3620  149.9840 C   0  0  0  0  0  2  0  0  0  0  0  0
  157.9570  213.9610  147.3660 O   0  0  0  0  0  1  0  0  0  0  0  0
  160.7760  213.7900  146.3600 C   0  0  0  0  0  2  0  0  0  0  0  0
  160.8550  207.9880  151.0720 N   0  0  0  0  0  2  0  0  0  0  0  0
  161.6310  205.8920  150.1060 C   0  0  0  0  0  2  0  0  0  0  0  0
  160.7380  205.9050  152.3650 C   0  0  2  0  0  3  0  0  0  0  0  0
  160.5960  204.4970  151.7790 C   0  0  1  0  0  3  0  0  0  0  0  0
  161.5400  206.7340  151.3630 C   0  0  2  0  0  3  0  0  0  0  0  0
  161.5100  204.4510  150.5690 C   0  0  1  0  0  3  0  0  0  0  0  0
  160.9470  203.4960  152.6830 O   0  0  0  0  0  1  0  0  0  0  0  0
  160.9770  203.5580  149.4820 C   0  0  0  0  0  0  0  0  0  0  0  0
  160.9010  203.9740  148.2950 O   0  0  0  0  0  0  0  0  0  0  0  0
  160.4800  202.2610  149.7990 N   0  0  0  0  0  1  0  0  0  0  0  0
  161.3060  205.9360  153.7210 N   0  0  0  0  0  2  0  0  0  0  0  0
  160.9590  207.1770  154.4130 C   0  0  0  0  0  2  0  0  0  0  0  0
  160.8780  206.9390  155.8480 N   0  0  0  0  0  0  0  0  0  0  0  0
  159.4920  207.1360  156.2440 C   0  0  0  0  0  1  0  0  0  0  0  0
  161.6440  207.9960  156.4820 C   0  0  0  0  0  1  0  0  0  0  0  0
  1 14  1  6  0  0  0
  1  5  1  0  0  0  0
  2  7  1  0  0  0  0
  4 11  2  0  0  0  0
  5  2  1  0  0  0  0
  5  8  2  0  0  0  0
  6  4  1  0  0  0  0
  6  2  2  0  0  0  0
  7  3  2  0  0  0  0
  7  9  1  0  0  0  0
  8  3  1  0  0  0  0
 11 10  1  0  0  0  0
 11 12  1  0  0  0  0
 12  9  2  0  0  0  0
 14 13  1  0  0  0  0
 15 14  2  0  0  0  0
 16 20  1  0  0  0  0
 16 13  1  0  0  0  0
 17 22  1  0  0  0  0
 19 21  1  0  0  0  0
 19 20  1  0  0  0  0
 20 18  1  1  0  0  0
 20 22  1  0  0  0  0
 21 17  2  0  0  0  0
 23 21  1  0  0  0  0
 24 19  2  0  0  0  0
 25  1  1  0  0  0  0
 26 30  1  0  0  0  0
 26 29  1  0  0  0  0
 27 35  1  1  0  0  0
 28 27  1  0  0  0  0
 28 31  1  1  0  0  0
 29 25  1  6  0  0  0
 29 27  1  0  0  0  0
 30 32  1  6  0  0  0
 30 28  1  0  0  0  0
 32 34  1  0  0  0  0
 33 32  2  0  0  0  0
 35 36  1  0  0  0  0
 36 37  1  0  0  0  0
 37 38  1  0  0  0  0
 37 39  1  0  0  0  0
M  END
>  <MODEL>
2

>  <REMARK>
 VINA RESULT:      -7.2      2.069      5.989
  Name = 
  10 active torsions:
  status: ('A' for Active; 'I' for Inactive)
    1  A    between atoms: C_4  and  N_9
    2  A    between atoms: C_4  and  N_18
    3  A    between atoms: C_7  and  N_18
    4  A    between atoms: N_8  and  C_37
    5  A    between atoms: C_10  and  C_37
    6  A    between atoms: C_12  and  C_16
    7  A    between atoms: C_16  and  C_19
    8  A    between atoms: C_16  and  N_27
    9  A    between atoms: C_23  and  C_34
   10  A    between atoms: N_27  and  C_32
                            x       y       z     vdW  Elec       q    Type
                         _______ _______ _______ _____ _____    ______ ____

>  <TORSDO>
F 10

$$$$
=
 OpenBabel11052409583D

 39 42  0  0  1  0  0  0  0  0999 V2000
  161.3100  205.3480  151.1950 C   0  0  2  0  0  3  0  0  0  0  0  0
  161.1360  203.1530  149.7820 C   0  0  0  0  0  0  0  0  0  0  0  0
  161.1890  201.6740  151.5280 N   0  0  0  0  0  0  0  0  0  0  0  0
  161.0110  202.9790  147.3210 C   0  0  0  0  0  3  0  0  0  0  0  0
  161.2200  203.8580  150.9720 C   0  0  0  0  0  0  0  0  0  0  0  0
  161.0940  203.6860  148.5080 C   0  0  0  0  0  3  0  0  0  0  0  0
  161.1160  201.7640  150.1880 C   0  0  0  0  0  0  0  0  0  0  0  0
  161.2530  202.9360  152.0060 C   0  0  0  0  0  3  0  0  0  0  0  0
  161.0300  200.6710  149.4030 N   0  0  0  0  0  0  0  0  0  0  0  0
  160.8540  201.1750  145.6850 C   0  0  0  0  0  1  0  0  0  0  0  0
  160.9480  201.6040  147.1040 C   0  0  0  0  0  0  0  0  0  0  0  0
  160.9580  200.5800  148.0530 C   0  0  0  0  0  3  0  0  0  0  0  0
  160.8330  206.1810  153.5280 N   0  0  0  0  0  2  0  0  0  0  0  0
  161.7940  205.8170  152.5380 C   0  0  0  0  0  0  0  0  0  0  0  0
  163.0240  205.8540  152.8080 O   0  0  0  0  0  0  0  0  0  0  0  0
  161.2240  206.6510  154.8490 C   0  0  0  0  0  2  0  0  0  0  0  0
  161.5030  210.0770  154.0480 C   0  0  0  0  0  3  0  0  0  0  0  0
  159.4190  208.0070  155.6560 F   0  0  0  0  0  0  0  0  0  0  0  0
  161.6110  208.8370  155.9600 C   0  0  0  0  0  0  0  0  0  0  0  0
  160.6850  208.0560  155.0930 C   0  0  1  0  0  0  0  0  0  0  0  0
  162.0160  210.0340  155.2610 C   0  0  0  0  0  0  0  0  0  0  0  0
  160.6570  208.8660  153.7870 C   0  0  0  0  0  2  0  0  0  0  0  0
  162.8390  211.0220  155.7860 O   0  0  0  0  0  1  0  0  0  0  0  0
  161.8330  208.6060  157.2480 C   0  0  0  0  0  2  0  0  0  0  0  0
  160.1670  206.1010  150.6730 N   0  0  0  0  0  2  0  0  0  0  0  0
  160.2210  206.6200  148.2950 C   0  0  0  0  0  2  0  0  0  0  0  0
  162.1190  207.2150  149.6900 C   0  0  2  0  0  3  0  0  0  0  0  0
  162.5880  207.0780  148.2380 C   0  0  1  0  0  3  0  0  0  0  0  0
  160.5970  207.0860  149.6880 C   0  0  2  0  0  3  0  0  0  0  0  0
  161.3330  207.1110  147.3860 C   0  0  1  0  0  3  0  0  0  0  0  0
  163.4570  208.0980  147.8510 O   0  0  0  0  0  1  0  0  0  0  0  0
  161.4590  206.2640  146.1490 C   0  0  0  0  0  0  0  0  0  0  0  0
  162.5610  205.7280  145.8540 O   0  0  0  0  0  0  0  0  0  0  0  0
  160.3570  206.1260  145.2580 N   0  0  0  0  0  1  0  0  0  0  0  0
  162.5900  208.4370  150.3600 N   0  0  0  0  0  2  0  0  0  0  0  0
  161.5250  209.4350  150.4530 C   0  0  0  0  0  2  0  0  0  0  0  0
  162.0640  210.7620  150.1860 N   0  0  0  0  0  0  0  0  0  0  0  0
  161.1350  211.7300  150.7510 C   0  0  0  0  0  1  0  0  0  0  0  0
  162.0210  210.9390  148.7460 C   0  0  0  0  0  1  0  0  0  0  0  0
  1 25  1  1  0  0  0
  1 14  1  0  0  0  0
  2  7  1  0  0  0  0
  2  5  1  0  0  0  0
  3  8  1  0  0  0  0
  4  6  1  0  0  0  0
  5  1  1  0  0  0  0
  5  8  2  0  0  0  0
  6  2  2  0  0  0  0
  7  3  2  0  0  0  0
  9  7  1  0  0  0  0
 10 11  1  0  0  0  0
 11  4  2  0  0  0  0
 11 12  1  0  0  0  0
 12  9  2  0  0  0  0
 13 16  1  0  0  0  0
 14 15  2  0  0  0  0
 14 13  1  0  0  0  0
 16 20  1  0  0  0  0
 17 21  2  0  0  0  0
 19 24  2  0  0  0  0
 20 18  1  1  0  0  0
 20 19  1  0  0  0  0
 21 23  1  0  0  0  0
 21 19  1  0  0  0  0
 22 17  1  0  0  0  0
 22 20  1  0  0  0  0
 26 29  1  0  0  0  0
 27 35  1  6  0  0  0
 28 31  1  6  0  0  0
 28 27  1  0  0  0  0
 29 27  1  0  0  0  0
 29 25  1  1  0  0  0
 30 32  1  6  0  0  0
 30 28  1  0  0  0  0
 30 26  1  0  0  0  0
 33 32  2  0  0  0  0
 34 32  1  0  0  0  0
 35 36  1  0  0  0  0
 37 36  1  0  0  0  0
 37 38  1  0  0  0  0
 39 37  1  0  0  0  0
M  END
>  <MODEL>
3

>  <REMARK>
 VINA RESULT:      -6.8      3.377      7.179
  Name = 
  10 active torsions:
  status: ('A' for Active; 'I' for Inactive)
    1  A    between atoms: C_4  and  N_9
    2  A    between atoms: C_4  and  N_18
    3  A    between atoms: C_7  and  N_18
    4  A    between atoms: N_8  and  C_37
    5  A    between atoms: C_10  and  C_37
    6  A    between atoms: C_12  and  C_16
    7  A    between atoms: C_16  and  C_19
    8  A    between atoms: C_16  and  N_27
    9  A    between atoms: C_23  and  C_34
   10  A    between atoms: N_27  and  C_32
                            x       y       z     vdW  Elec       q    Type
                         _______ _______ _______ _____ _____    ______ ____

>  <TORSDO>
F 10

$$$$
=
 OpenBabel11052409583D

 39 42  0  0  1  0  0  0  0  0999 V2000
  161.6150  208.2280  151.4290 C   0  0  2  0  0  3  0  0  0  0  0  0
  161.4750  206.1550  149.8390 C   0  0  0  0  0  0  0  0  0  0  0  0
  162.2760  207.1780  147.9540 N   0  0  0  0  0  0  0  0  0  0  0  0
  160.6510  203.8980  150.4120 C   0  0  0  0  0  3  0  0  0  0  0  0
  161.7810  207.4750  150.1320 C   0  0  0  0  0  0  0  0  0  0  0  0
  160.9560  205.2160  150.7090 C   0  0  0  0  0  3  0  0  0  0  0  0
  161.8100  206.0120  148.4390 C   0  0  0  0  0  0  0  0  0  0  0  0
  162.2590  208.0640  148.9730 C   0  0  0  0  0  3  0  0  0  0  0  0
  161.7090  204.9090  147.6690 N   0  0  0  0  0  0  0  0  0  0  0  0
  160.3630  201.7750  149.2440 C   0  0  0  0  0  1  0  0  0  0  0  0
  160.7810  203.2000  149.2130 C   0  0  0  0  0  0  0  0  0  0  0  0
  161.2590  203.6710  147.9890 C   0  0  0  0  0  3  0  0  0  0  0  0
  160.8240  207.7020  153.7660 N   0  0  0  0  0  2  0  0  0  0  0  0
  161.7410  207.4440  152.7040 C   0  0  0  0  0  0  0  0  0  0  0  0
  162.6150  206.5450  152.8290 O   0  0  0  0  0  0  0  0  0  0  0  0
  160.8860  206.9880  155.0320 C   0  0  0  0  0  2  0  0  0  0  0  0
  159.2920  210.0220  155.8750 C   0  0  0  0  0  3  0  0  0  0  0  0
  160.0040  207.0590  157.2610 F   0  0  0  0  0  0  0  0  0  0  0  0
  161.2030  208.9540  156.5160 C   0  0  0  0  0  0  0  0  0  0  0  0
  160.2880  207.8360  156.1490 C   0  0  1  0  0  0  0  0  0  0  0  0
  160.5080  210.2080  156.3480 C   0  0  0  0  0  0  0  0  0  0  0  0
  159.0210  208.5620  155.6660 C   0  0  0  0  0  2  0  0  0  0  0  0
  161.0380  211.4580  156.6440 O   0  0  0  0  0  1  0  0  0  0  0  0
  162.3720  208.8170  157.1290 C   0  0  0  0  0  2  0  0  0  0  0  0
  160.5100  209.1910  151.4240 N   0  0  0  0  0  2  0  0  0  0  0  0
  160.2190  211.1210  152.8800 C   0  0  0  0  0  2  0  0  0  0  0  0
  160.7220  211.4650  150.5280 C   0  0  2  0  0  3  0  0  0  0  0  0
  160.0190  212.7110  151.0770 C   0  0  1  0  0  3  0  0  0  0  0  0
  160.9900  210.5370  151.7120 C   0  0  2  0  0  3  0  0  0  0  0  0
  160.0980  212.6050  152.5890 C   0  0  1  0  0  3  0  0  0  0  0  0
  160.6080  213.8990  150.6480 O   0  0  0  0  0  1  0  0  0  0  0  0
  158.9010  213.2120  153.2680 C   0  0  0  0  0  0  0  0  0  0  0  0
  157.8910  213.5520  152.5950 O   0  0  0  0  0  0  0  0  0  0  0  0
  158.9300  213.4830  154.6660 N   0  0  0  0  0  1  0  0  0  0  0  0
  161.9310  211.7570  149.7420 N   0  0  0  0  0  2  0  0  0  0  0  0
  161.7030  211.5320  148.3150 C   0  0  0  0  0  2  0  0  0  0  0  0
  161.3440  212.7860  147.6670 N   0  0  0  0  0  0  0  0  0  0  0  0
  160.0680  212.5790  146.9980 C   0  0  0  0  0  1  0  0  0  0  0  0
  162.3290  213.0030  146.6230 C   0  0  0  0  0  1  0  0  0  0  0  0
  1 25  1  6  0  0  0
  1 14  1  0  0  0  0
  2  5  1  0  0  0  0
  2  6  2  0  0  0  0
  3  7  2  0  0  0  0
  3  8  1  0  0  0  0
  4  6  1  0  0  0  0
  5  1  1  0  0  0  0
  7  2  1  0  0  0  0
  8  5  2  0  0  0  0
  9 12  2  0  0  0  0
  9  7  1  0  0  0  0
 11 10  1  0  0  0  0
 11  4  2  0  0  0  0
 12 11  1  0  0  0  0
 13 16  1  0  0  0  0
 14 15  2  0  0  0  0
 14 13  1  0  0  0  0
 16 20  1  0  0  0  0
 17 21  2  0  0  0  0
 19 24  2  0  0  0  0
 20 19  1  0  0  0  0
 20 18  1  1  0  0  0
 21 19  1  0  0  0  0
 21 23  1  0  0  0  0
 22 17  1  0  0  0  0
 22 20  1  0  0  0  0
 27 35  1  1  0  0  0
 27 28  1  0  0  0  0
 27 29  1  0  0  0  0
 28 31  1  6  0  0  0
 28 30  1  0  0  0  0
 29 25  1  6  0  0  0
 29 26  1  0  0  0  0
 30 26  1  0  0  0  0
 30 32  1  1  0  0  0
 32 34  1  0  0  0  0
 33 32  2  0  0  0  0
 36 35  1  0  0  0  0
 37 36  1  0  0  0  0
 38 37  1  0  0  0  0
 39 37  1  0  0  0  0
M  END
>  <MODEL>
4

>  <REMARK>
 VINA RESULT:      -6.8      2.630      6.358
  Name = 
  10 active torsions:
  status: ('A' for Active; 'I' for Inactive)
    1  A    between atoms: C_4  and  N_9
    2  A    between atoms: C_4  and  N_18
    3  A    between atoms: C_7  and  N_18
    4  A    between atoms: N_8  and  C_37
    5  A    between atoms: C_10  and  C_37
    6  A    between atoms: C_12  and  C_16
    7  A    between atoms: C_16  and  C_19
    8  A    between atoms: C_16  and  N_27
    9  A    between atoms: C_23  and  C_34
   10  A    between atoms: N_27  and  C_32
                            x       y       z     vdW  Elec       q    Type
                         _______ _______ _______ _____ _____    ______ ____

>  <TORSDO>
F 10

$$$$
=
 OpenBabel11052409583D

 39 42  0  0  1  0  0  0  0  0999 V2000
  161.1250  208.5480  150.0860 C   0  0  2  0  0  3  0  0  0  0  0  0
  161.2050  206.0660  149.2630 C   0  0  0  0  0  0  0  0  0  0  0  0
  161.9200  206.4870  147.1300 N   0  0  0  0  0  0  0  0  0  0  0  0
  160.6010  204.0530  150.5600 C   0  0  0  0  0  3  0  0  0  0  0  0
  161.3770  207.4320  149.1030 C   0  0  0  0  0  0  0  0  0  0  0  0
  160.7720  205.4170  150.4040 C   0  0  0  0  0  3  0  0  0  0  0  0
  161.5660  205.5050  147.9790 C   0  0  0  0  0  0  0  0  0  0  0  0
  161.8060  207.6520  147.8030 C   0  0  0  0  0  3  0  0  0  0  0  0
  161.5810  204.2060  147.6150 N   0  0  0  0  0  0  0  0  0  0  0  0
  160.5350  201.6460  150.1570 C   0  0  0  0  0  1  0  0  0  0  0  0
  160.8110  203.0160  149.6530 C   0  0  0  0  0  0  0  0  0  0  0  0
  161.2520  203.1040  148.3310 C   0  0  0  0  0  3  0  0  0  0  0  0
  161.8390  210.7030  148.9860 N   0  0  0  0  0  2  0  0  0  0  0  0
  162.0340  209.7430  150.0220 C   0  0  0  0  0  0  0  0  0  0  0  0
  162.9320  209.9220  150.8880 O   0  0  0  0  0  0  0  0  0  0  0  0
  162.6820  211.8820  148.8540 C   0  0  0  0  0  2  0  0  0  0  0  0
  159.5880  212.9300  147.5170 C   0  0  0  0  0  3  0  0  0  0  0  0
  162.4800  214.2530  148.5630 F   0  0  0  0  0  0  0  0  0  0  0  0
  161.7480  212.8830  146.7830 C   0  0  0  0  0  0  0  0  0  0  0  0
  161.8870  213.0390  148.2580 C   0  0  1  0  0  0  0  0  0  0  0  0
  160.3440  212.8600  146.4410 C   0  0  0  0  0  0  0  0  0  0  0  0
  160.4320  213.0160  148.7540 C   0  0  0  0  0  2  0  0  0  0  0  0
  159.8420  212.7770  145.1480 O   0  0  0  0  0  1  0  0  0  0  0  0
  162.7350  212.9960  145.9040 C   0  0  0  0  0  2  0  0  0  0  0  0
  160.8300  208.0910  151.4460 N   0  0  0  0  0  2  0  0  0  0  0  0
  161.7910  208.3460  153.6690 C   0  0  0  0  0  2  0  0  0  0  0  0
  160.1160  209.9310  152.9040 C   0  0  2  0  0  3  0  0  0  0  0  0
  160.1240  209.9110  154.4360 C   0  0  1  0  0  3  0  0  0  0  0  0
  161.2820  209.0630  152.4340 C   0  0  2  0  0  3  0  0  0  0  0  0
  161.4230  209.2380  154.8400 C   0  0  1  0  0  3  0  0  0  0  0  0
  160.0520  211.1860  154.9940 O   0  0  0  0  0  1  0  0  0  0  0  0
  161.2870  208.4550  156.1180 C   0  0  0  0  0  0  0  0  0  0  0  0
  162.2670  208.3420  156.9030 O   0  0  0  0  0  0  0  0  0  0  0  0
  160.0750  207.7670  156.4130 N   0  0  0  0  0  1  0  0  0  0  0  0
  160.1330  211.2810  152.3210 N   0  0  0  0  0  2  0  0  0  0  0  0
  158.7790  211.8140  152.1770 C   0  0  0  0  0  2  0  0  0  0  0  0
  158.8310  213.2550  151.9740 N   0  0  0  0  0  0  0  0  0  0  0  0
  158.6240  213.8840  153.2700 C   0  0  0  0  0  1  0  0  0  0  0  0
  157.6790  213.5950  151.1600 C   0  0  0  0  0  1  0  0  0  0  0  0
  1 14  1  1  0  0  0
  1 25  1  0  0  0  0
  2  6  2  0  0  0  0
  3  8  1  0  0  0  0
  3  7  2  0  0  0  0
  5  2  1  0  0  0  0
  5  1  1  0  0  0  0
  6  4  1  0  0  0  0
  7  2  1  0  0  0  0
  8  5  2  0  0  0  0
  9  7  1  0  0  0  0
  9 12  2  0  0  0  0
 11 10  1  0  0  0  0
 11  4  2  0  0  0  0
 12 11  1  0  0  0  0
 13 14  1  0  0  0  0
 14 15  2  0  0  0  0
 16 13  1  0  0  0  0
 17 22  1  0  0  0  0
 19 20  1  0  0  0  0
 20 18  1  1  0  0  0
 20 22  1  0  0  0  0
 20 16  1  0  0  0  0
 21 19  1  0  0  0  0
 21 17  2  0  0  0  0
 23 21  1  0  0  0  0
 24 19  2  0  0  0  0
 26 30  1  0  0  0  0
 27 35  1  1  0  0  0
 27 28  1  0  0  0  0
 28 30  1  0  0  0  0
 28 31  1  1  0  0  0
 29 25  1  6  0  0  0
 29 27  1  0  0  0  0
 29 26  1  0  0  0  0
 30 32  1  1  0  0  0
 32 34  1  0  0  0  0
 32 33  2  0  0  0  0
 36 35  1  0  0  0  0
 37 36  1  0  0  0  0
 37 38  1  0  0  0  0
 39 37  1  0  0  0  0
M  END
>  <MODEL>
5

>  <REMARK>
 VINA RESULT:      -6.6      1.967      3.981
  Name = 
  10 active torsions:
  status: ('A' for Active; 'I' for Inactive)
    1  A    between atoms: C_4  and  N_9
    2  A    between atoms: C_4  and  N_18
    3  A    between atoms: C_7  and  N_18
    4  A    between atoms: N_8  and  C_37
    5  A    between atoms: C_10  and  C_37
    6  A    between atoms: C_12  and  C_16
    7  A    between atoms: C_16  and  C_19
    8  A    between atoms: C_16  and  N_27
    9  A    between atoms: C_23  and  C_34
   10  A    between atoms: N_27  and  C_32
                            x       y       z     vdW  Elec       q    Type
                         _______ _______ _______ _____ _____    ______ ____

>  <TORSDO>
F 10

$$$$
=
 OpenBabel11052409583D

 39 42  0  0  1  0  0  0  0  0999 V2000
  160.8910  208.4100  151.1460 C   0  0  2  0  0  3  0  0  0  0  0  0
  161.1560  206.4490  149.4350 C   0  0  0  0  0  0  0  0  0  0  0  0
  161.4530  204.7680  150.9590 N   0  0  0  0  0  0  0  0  0  0  0  0
  161.1110  206.6140  146.9710 C   0  0  0  0  0  3  0  0  0  0  0  0
  161.0850  206.9770  150.7140 C   0  0  0  0  0  0  0  0  0  0  0  0
  161.0390  207.1450  148.2470 C   0  0  0  0  0  3  0  0  0  0  0  0
  161.3890  205.0360  149.6420 C   0  0  0  0  0  0  0  0  0  0  0  0
  161.2710  205.9370  151.6100 C   0  0  0  0  0  3  0  0  0  0  0  0
  161.5230  204.0710  148.7090 N   0  0  0  0  0  0  0  0  0  0  0  0
  161.3250  205.0680  145.0930 C   0  0  0  0  0  1  0  0  0  0  0  0
  161.3100  205.2970  146.5610 C   0  0  0  0  0  0  0  0  0  0  0  0
  161.4940  204.1650  147.3580 C   0  0  0  0  0  3  0  0  0  0  0  0
  161.5140  210.2820  149.5750 N   0  0  0  0  0  2  0  0  0  0  0  0
  161.8850  209.4210  150.6500 C   0  0  0  0  0  0  0  0  0  0  0  0
  163.0150  209.5410  151.1940 O   0  0  0  0  0  0  0  0  0  0  0  0
  162.4230  211.2820  149.0350 C   0  0  0  0  0  2  0  0  0  0  0  0
  160.8660  212.5280  146.1240 C   0  0  0  0  0  3  0  0  0  0  0  0
  161.0630  213.2240  149.3930 F   0  0  0  0  0  0  0  0  0  0  0  0
  162.5130  213.2520  147.5270 C   0  0  0  0  0  0  0  0  0  0  0  0
  161.6390  212.4320  148.4120 C   0  0  1  0  0  0  0  0  0  0  0  0
  161.9510  213.2720  146.1960 C   0  0  0  0  0  0  0  0  0  0  0  0
  160.5620  211.9020  147.4520 C   0  0  0  0  0  2  0  0  0  0  0  0
  162.4740  213.9800  145.1220 O   0  0  0  0  0  1  0  0  0  0  0  0
  163.5010  214.0360  147.9380 C   0  0  0  0  0  2  0  0  0  0  0  0
  160.5300  208.5650  152.5580 N   0  0  0  0  0  2  0  0  0  0  0  0
  162.0060  209.8260  154.0290 C   0  0  0  0  0  2  0  0  0  0  0  0
  159.6840  210.5020  153.8040 C   0  0  2  0  0  3  0  0  0  0  0  0
  160.2240  211.0070  155.1450 C   0  0  1  0  0  3  0  0  0  0  0  0
  160.8610  209.9020  153.0380 C   0  0  2  0  0  3  0  0  0  0  0  0
  161.7360  210.9160  155.0500 C   0  0  1  0  0  3  0  0  0  0  0  0
  159.8400  212.3170  155.4240 O   0  0  0  0  0  1  0  0  0  0  0  0
  162.3750  210.6100  156.3760 C   0  0  0  0  0  0  0  0  0  0  0  0
  161.7400  209.9700  157.2570 O   0  0  0  0  0  0  0  0  0  0  0  0
  163.6740  211.1100  156.6790 N   0  0  0  0  0  1  0  0  0  0  0  0
  158.9530  211.5180  153.0300 N   0  0  0  0  0  2  0  0  0  0  0  0
  159.8630  212.3090  152.2030 C   0  0  0  0  0  2  0  0  0  0  0  0
  159.2100  213.5430  151.7880 N   0  0  0  0  0  0  0  0  0  0  0  0
  158.6240  214.1460  152.9760 C   0  0  0  0  0  1  0  0  0  0  0  0
  158.1040  213.1540  150.9320 C   0  0  0  0  0  1  0  0  0  0  0  0
  1 14  1  1  0  0  0
  1 25  1  0  0  0  0
  2  7  1  0  0  0  0
  2  5  1  0  0  0  0
  3  8  1  0  0  0  0
  4  6  1  0  0  0  0
  5  1  1  0  0  0  0
  5  8  2  0  0  0  0
  6  2  2  0  0  0  0
  7  3  2  0  0  0  0
  9  7  1  0  0  0  0
 10 11  1  0  0  0  0
 11  4  2  0  0  0  0
 11 12  1  0  0  0  0
 12  9  2  0  0  0  0
 13 14  1  0  0  0  0
 14 15  2  0  0  0  0
 16 13  1  0  0  0  0
 17 21  2  0  0  0  0
 17 22  1  0  0  0  0
 19 24  2  0  0  0  0
 19 20  1  0  0  0  0
 20 16  1  0  0  0  0
 20 18  1  1  0  0  0
 21 19  1  0  0  0  0
 22 20  1  0  0  0  0
 23 21  1  0  0  0  0
 26 30  1  0  0  0  0
 27 35  1  6  0  0  0
 27 28  1  0  0  0  0
 28 31  1  6  0  0  0
 29 25  1  1  0  0  0
 29 27  1  0  0  0  0
 29 26  1  0  0  0  0
 30 28  1  0  0  0  0
 30 32  1  1  0  0  0
 32 34  1  0  0  0  0
 32 33  2  0  0  0  0
 36 35  1  0  0  0  0
 37 36  1  0  0  0  0
 37 38  1  0  0  0  0
 39 37  1  0  0  0  0
M  END
>  <MODEL>
6

>  <REMARK>
 VINA RESULT:      -6.5      2.023      3.828
  Name = 
  10 active torsions:
  status: ('A' for Active; 'I' for Inactive)
    1  A    between atoms: C_4  and  N_9
    2  A    between atoms: C_4  and  N_18
    3  A    between atoms: C_7  and  N_18
    4  A    between atoms: N_8  and  C_37
    5  A    between atoms: C_10  and  C_37
    6  A    between atoms: C_12  and  C_16
    7  A    between atoms: C_16  and  C_19
    8  A    between atoms: C_16  and  N_27
    9  A    between atoms: C_23  and  C_34
   10  A    between atoms: N_27  and  C_32
                            x       y       z     vdW  Elec       q    Type
                         _______ _______ _______ _____ _____    ______ ____

>  <TORSDO>
F 10

$$$$
=
 OpenBabel11052409583D

 39 42  0  0  1  0  0  0  0  0999 V2000
  162.3120  209.6090  150.8370 C   0  0  2  0  0  3  0  0  0  0  0  0
  161.7510  207.1240  150.2410 C   0  0  0  0  0  0  0  0  0  0  0  0
  161.4060  207.4310  147.9980 N   0  0  0  0  0  0  0  0  0  0  0  0
  161.6410  205.2120  151.8000 C   0  0  0  0  0  3  0  0  0  0  0  0
  161.9580  208.4590  149.9270 C   0  0  0  0  0  0  0  0  0  0  0  0
  161.8500  206.5450  151.4910 C   0  0  0  0  0  3  0  0  0  0  0  0
  161.4040  206.5080  148.9780 C   0  0  0  0  0  0  0  0  0  0  0  0
  161.7390  208.6110  148.5670 C   0  0  0  0  0  3  0  0  0  0  0  0
  161.1180  205.2120  148.7360 N   0  0  0  0  0  0  0  0  0  0  0  0
  161.1580  202.8250  151.6360 C   0  0  0  0  0  1  0  0  0  0  0  0
  161.2950  204.1470  150.9720 C   0  0  0  0  0  0  0  0  0  0  0  0
  161.0630  204.1660  149.5950 C   0  0  0  0  0  3  0  0  0  0  0  0
  162.0580  210.3280  153.2410 N   0  0  0  0  0  2  0  0  0  0  0  0
  161.4560  209.8150  152.0540 C   0  0  0  0  0  0  0  0  0  0  0  0
  160.2190  209.5780  152.0250 O   0  0  0  0  0  0  0  0  0  0  0  0
  161.2970  210.5490  154.4620 C   0  0  0  0  0  2  0  0  0  0  0  0
  160.9120  207.1080  155.1490 C   0  0  0  0  0  3  0  0  0  0  0  0
  162.5390  209.7720  156.3600 F   0  0  0  0  0  0  0  0  0  0  0  0
  160.2960  209.0520  156.1720 C   0  0  0  0  0  0  0  0  0  0  0  0
  161.5500  209.4200  155.4560 C   0  0  1  0  0  0  0  0  0  0  0  0
  160.0200  207.6520  155.9520 C   0  0  0  0  0  0  0  0  0  0  0  0
  161.9320  208.1230  154.7240 C   0  0  0  0  0  2  0  0  0  0  0  0
  158.9560  206.9530  156.5090 O   0  0  0  0  0  1  0  0  0  0  0  0
  159.6720  209.8120  157.0620 C   0  0  0  0  0  2  0  0  0  0  0  0
  162.6570  210.8450  150.1300 N   0  0  0  0  0  2  0  0  0  0  0  0
  161.9590  211.5860  147.9180 C   0  0  0  0  0  2  0  0  0  0  0  0
  161.0470  212.6800  149.8860 C   0  0  2  0  0  3  0  0  0  0  0  0
  160.9600  213.6390  148.6940 C   0  0  1  0  0  3  0  0  0  0  0  0
  161.5270  211.3330  149.3490 C   0  0  2  0  0  3  0  0  0  0  0  0
  161.1550  212.7870  147.4540 C   0  0  1  0  0  3  0  0  0  0  0  0
  159.7400  214.3100  148.6280 O   0  0  0  0  0  1  0  0  0  0  0  0
  161.8520  213.5340  146.3510 C   0  0  0  0  0  0  0  0  0  0  0  0
  162.7060  214.4200  146.6210 O   0  0  0  0  0  0  0  0  0  0  0  0
  161.4940  213.3040  144.9910 N   0  0  0  0  0  1  0  0  0  0  0  0
  159.8040  212.5780  150.6660 N   0  0  0  0  0  2  0  0  0  0  0  0
  159.9690  213.1480  152.0030 C   0  0  0  0  0  2  0  0  0  0  0  0
  158.6670  213.4750  152.5670 N   0  0  0  0  0  0  0  0  0  0  0  0
  158.2060  212.3080  153.3040 C   0  0  0  0  0  1  0  0  0  0  0  0
  157.7640  213.6390  151.4430 C   0  0  0  0  0  1  0  0  0  0  0  0
  1 25  1  6  0  0  0
  1 14  1  0  0  0  0
  2  6  2  0  0  0  0
  3  8  1  0  0  0  0
  3  7  2  0  0  0  0
  5  2  1  0  0  0  0
  5  1  1  0  0  0  0
  6  4  1  0  0  0  0
  7  2  1  0  0  0  0
  8  5  2  0  0  0  0
  9  7  1  0  0  0  0
  9 12  2  0  0  0  0
 11 10  1  0  0  0  0
 11  4  2  0  0  0  0
 12 11  1  0  0  0  0
 13 16  1  0  0  0  0
 14 13  1  0  0  0  0
 15 14  2  0  0  0  0
 16 20  1  0  0  0  0
 17 21  2  0  0  0  0
 19 24  2  0  0  0  0
 20 19  1  0  0  0  0
 20 18  1  1  0  0  0
 21 19  1  0  0  0  0
 21 23  1  0  0  0  0
 22 17  1  0  0  0  0
 22 20  1  0  0  0  0
 26 29  1  0  0  0  0
 27 35  1  6  0  0  0
 28 31  1  6  0  0  0
 28 27  1  0  0  0  0
 29 27  1  0  0  0  0
 29 25  1  1  0  0  0
 30 32  1  6  0  0  0
 30 26  1  0  0  0  0
 30 28  1  0  0  0  0
 32 33  2  0  0  0  0
 34 32  1  0  0  0  0
 35 36  1  0  0  0  0
 36 37  1  0  0  0  0
 37 38  1  0  0  0  0
 39 37  1  0  0  0  0
M  END
>  <MODEL>
7

>  <REMARK>
 VINA RESULT:      -6.5      2.554      6.383
  Name = 
  10 active torsions:
  status: ('A' for Active; 'I' for Inactive)
    1  A    between atoms: C_4  and  N_9
    2  A    between atoms: C_4  and  N_18
    3  A    between atoms: C_7  and  N_18
    4  A    between atoms: N_8  and  C_37
    5  A    between atoms: C_10  and  C_37
    6  A    between atoms: C_12  and  C_16
    7  A    between atoms: C_16  and  C_19
    8  A    between atoms: C_16  and  N_27
    9  A    between atoms: C_23  and  C_34
   10  A    between atoms: N_27  and  C_32
                            x       y       z     vdW  Elec       q    Type
                         _______ _______ _______ _____ _____    ______ ____

>  <TORSDO>
F 10

$$$$
=
 OpenBabel11052409583D

 39 42  0  0  1  0  0  0  0  0999 V2000
  161.5690  205.9640  151.8480 C   0  0  2  0  0  3  0  0  0  0  0  0
  161.0920  203.7860  150.4790 C   0  0  0  0  0  0  0  0  0  0  0  0
  160.5760  202.4320  152.2510 N   0  0  0  0  0  0  0  0  0  0  0  0
  161.2590  203.5060  148.0310 C   0  0  0  0  0  3  0  0  0  0  0  0
  161.1740  204.5210  151.6520 C   0  0  0  0  0  0  0  0  0  0  0  0
  161.3420  204.2430  149.1990 C   0  0  0  0  0  3  0  0  0  0  0  0
  160.7040  202.4610  150.9120 C   0  0  0  0  0  0  0  0  0  0  0  0
  160.8600  203.6740  152.7020 C   0  0  0  0  0  3  0  0  0  0  0  0
  160.4780  201.3710  150.1500 N   0  0  0  0  0  0  0  0  0  0  0  0
  160.9170  201.6920  146.4330 C   0  0  0  0  0  1  0  0  0  0  0  0
  160.9160  202.1690  147.8400 C   0  0  0  0  0  0  0  0  0  0  0  0
  160.5670  201.2230  148.8060 C   0  0  0  0  0  3  0  0  0  0  0  0
  160.4980  207.2460  153.7380 N   0  0  0  0  0  2  0  0  0  0  0  0
  161.6040  206.4840  153.2570 C   0  0  0  0  0  0  0  0  0  0  0  0
  162.5720  206.2250  154.0200 O   0  0  0  0  0  0  0  0  0  0  0  0
  160.4620  207.7890  155.0880 C   0  0  0  0  0  2  0  0  0  0  0  0
  161.5850  210.4620  157.1000 C   0  0  0  0  0  3  0  0  0  0  0  0
  161.6350  209.5040  153.8920 F   0  0  0  0  0  0  0  0  0  0  0  0
  160.0160  210.2020  155.4650 C   0  0  0  0  0  0  0  0  0  0  0  0
  161.0540  209.1940  155.1110 C   0  0  1  0  0  0  0  0  0  0  0  0
  160.4390  210.9240  156.6420 C   0  0  0  0  0  0  0  0  0  0  0  0
  162.0830  209.3350  156.2450 C   0  0  0  0  0  2  0  0  0  0  0  0
  159.7400  211.9730  157.2260 O   0  0  0  0  0  1  0  0  0  0  0  0
  158.9950  210.5530  154.6940 C   0  0  0  0  0  2  0  0  0  0  0  0
  160.9640  206.8860  150.8830 N   0  0  0  0  0  2  0  0  0  0  0  0
  161.6350  209.1910  151.2880 C   0  0  0  0  0  2  0  0  0  0  0  0
  161.7150  208.3050  149.0280 C   0  0  2  0  0  3  0  0  0  0  0  0
  161.5900  209.8310  148.9630 C   0  0  1  0  0  3  0  0  0  0  0  0
  161.9070  207.9280  150.4950 C   0  0  2  0  0  3  0  0  0  0  0  0
  161.9470  210.3400  150.3470 C   0  0  1  0  0  3  0  0  0  0  0  0
  162.4300  210.4030  148.0100 O   0  0  0  0  0  1  0  0  0  0  0  0
  161.1870  211.5850  150.7130 C   0  0  0  0  0  0  0  0  0  0  0  0
  160.6080  211.6740  151.8290 O   0  0  0  0  0  0  0  0  0  0  0  0
  161.0450  212.6430  149.7690 N   0  0  0  0  0  1  0  0  0  0  0  0
  162.7570  207.7510  148.1510 N   0  0  0  0  0  2  0  0  0  0  0  0
  162.3580  206.4550  147.6050 C   0  0  0  0  0  2  0  0  0  0  0  0
  161.9830  206.5990  146.2050 N   0  0  0  0  0  0  0  0  0  0  0  0
  160.5480  206.3740  146.1140 C   0  0  0  0  0  1  0  0  0  0  0  0
  162.6200  205.5040  145.4970 C   0  0  0  0  0  1  0  0  0  0  0  0
  1 25  1  6  0  0  0
  1 14  1  0  0  0  0
  2  7  1  0  0  0  0
  2  5  1  0  0  0  0
  3  8  1  0  0  0  0
  4  6  1  0  0  0  0
  5  1  1  0  0  0  0
  5  8  2  0  0  0  0
  6  2  2  0  0  0  0
  7  3  2  0  0  0  0
  9  7  1  0  0  0  0
 10 11  1  0  0  0  0
 11  4  2  0  0  0  0
 11 12  1  0  0  0  0
 12  9  2  0  0  0  0
 13 16  1  0  0  0  0
 14 13  1  0  0  0  0
 14 15  2  0  0  0  0
 16 20  1  0  0  0  0
 19 21  1  0  0  0  0
 20 18  1  6  0  0  0
 20 19  1  0  0  0  0
 20 22  1  0  0  0  0
 21 17  2  0  0  0  0
 21 23  1  0  0  0  0
 22 17  1  0  0  0  0
 24 19  2  0  0  0  0
 27 35  1  6  0  0  0
 27 29  1  0  0  0  0
 28 31  1  6  0  0  0
 28 27  1  0  0  0  0
 28 30  1  0  0  0  0
 29 25  1  1  0  0  0
 29 26  1  0  0  0  0
 30 32  1  1  0  0  0
 30 26  1  0  0  0  0
 32 33  2  0  0  0  0
 34 32  1  0  0  0  0
 36 35  1  0  0  0  0
 37 36  1  0  0  0  0
 38 37  1  0  0  0  0
 39 37  1  0  0  0  0
M  END
>  <MODEL>
8

>  <REMARK>
 VINA RESULT:      -6.4      2.726      6.609
  Name = 
  10 active torsions:
  status: ('A' for Active; 'I' for Inactive)
    1  A    between atoms: C_4  and  N_9
    2  A    between atoms: C_4  and  N_18
    3  A    between atoms: C_7  and  N_18
    4  A    between atoms: N_8  and  C_37
    5  A    between atoms: C_10  and  C_37
    6  A    between atoms: C_12  and  C_16
    7  A    between atoms: C_16  and  C_19
    8  A    between atoms: C_16  and  N_27
    9  A    between atoms: C_23  and  C_34
   10  A    between atoms: N_27  and  C_32
                            x       y       z     vdW  Elec       q    Type
                         _______ _______ _______ _____ _____    ______ ____

>  <TORSDO>
F 10

$$$$
=
 OpenBabel11052409583D

 39 42  0  0  1  0  0  0  0  0999 V2000
  161.3150  208.9660  151.8900 C   0  0  2  0  0  3  0  0  0  0  0  0
  160.7420  209.7180  154.3300 C   0  0  0  0  0  0  0  0  0  0  0  0
  160.8260  207.6470  155.3020 N   0  0  0  0  0  0  0  0  0  0  0  0
  160.2520  212.0130  155.0990 C   0  0  0  0  0  3  0  0  0  0  0  0
  161.0720  208.7760  153.3670 C   0  0  0  0  0  0  0  0  0  0  0  0
  160.5820  211.0760  154.1350 C   0  0  0  0  0  3  0  0  0  0  0  0
  160.5980  208.9500  155.5480 C   0  0  0  0  0  0  0  0  0  0  0  0
  161.1110  207.5370  153.9860 C   0  0  0  0  0  3  0  0  0  0  0  0
  160.2930  209.4000  156.7820 N   0  0  0  0  0  0  0  0  0  0  0  0
  159.6830  213.0810  157.2190 C   0  0  0  0  0  1  0  0  0  0  0  0
  160.0060  211.8450  156.4600 C   0  0  0  0  0  0  0  0  0  0  0  0
  160.0290  210.6620  157.2010 C   0  0  0  0  0  3  0  0  0  0  0  0
  161.2870  206.5540  151.1530 N   0  0  0  0  0  2  0  0  0  0  0  0
  161.9380  207.8230  151.1400 C   0  0  0  0  0  0  0  0  0  0  0  0
  162.9970  207.9830  150.4770 O   0  0  0  0  0  0  0  0  0  0  0  0
  161.8320  205.3980  150.4570 C   0  0  0  0  0  2  0  0  0  0  0  0
  161.2070  203.0500  147.8980 C   0  0  0  0  0  3  0  0  0  0  0  0
  159.7050  205.6490  149.3800 F   0  0  0  0  0  0  0  0  0  0  0  0
  161.5830  205.2980  147.9890 C   0  0  0  0  0  0  0  0  0  0  0  0
  160.9280  205.0040  149.2940 C   0  0  1  0  0  0  0  0  0  0  0  0
  161.6740  204.0790  147.2200 C   0  0  0  0  0  0  0  0  0  0  0  0
  160.7260  203.4800  149.2520 C   0  0  0  0  0  2  0  0  0  0  0  0
  162.1840  203.9870  145.9310 O   0  0  0  0  0  1  0  0  0  0  0  0
  161.8180  206.5110  147.5060 C   0  0  0  0  0  2  0  0  0  0  0  0
  161.8560  210.2810  151.5380 N   0  0  0  0  0  2  0  0  0  0  0  0
  161.9560  210.8580  149.1740 C   0  0  0  0  0  2  0  0  0  0  0  0
  160.8110  212.3440  150.7170 C   0  0  2  0  0  3  0  0  0  0  0  0
  161.2570  213.1450  149.4900 C   0  0  1  0  0  3  0  0  0  0  0  0
  161.1110  210.8740  150.4330 C   0  0  2  0  0  3  0  0  0  0  0  0
  161.5870  212.1220  148.4190 C   0  0  1  0  0  3  0  0  0  0  0  0
  160.2760  214.0220  149.0300 O   0  0  0  0  0  1  0  0  0  0  0  0
  162.7000  212.5790  147.5160 C   0  0  0  0  0  0  0  0  0  0  0  0
  162.4400  213.0900  146.3940 O   0  0  0  0  0  0  0  0  0  0  0  0
  164.0590  212.3630  147.8860 N   0  0  0  0  0  1  0  0  0  0  0  0
  159.4130  212.5790  151.1110 N   0  0  0  0  0  2  0  0  0  0  0  0
  159.3040  213.7090  152.0330 C   0  0  0  0  0  2  0  0  0  0  0  0
  157.9730  214.2930  151.9480 N   0  0  0  0  0  0  0  0  0  0  0  0
  157.2220  213.8340  153.1070 C   0  0  0  0  0  1  0  0  0  0  0  0
  157.3400  213.7010  150.7830 C   0  0  0  0  0  1  0  0  0  0  0  0
  1 14  1  1  0  0  0
  1  5  1  0  0  0  0
  2  7  1  0  0  0  0
  3  7  2  0  0  0  0
  4 11  2  0  0  0  0
  5  8  2  0  0  0  0
  5  2  1  0  0  0  0
  6  2  2  0  0  0  0
  6  4  1  0  0  0  0
  7  9  1  0  0  0  0
  8  3  1  0  0  0  0
  9 12  2  0  0  0  0
 11 12  1  0  0  0  0
 11 10  1  0  0  0  0
 14 13  1  0  0  0  0
 15 14  2  0  0  0  0
 16 13  1  0  0  0  0
 17 22  1  0  0  0  0
 19 20  1  0  0  0  0
 20 18  1  1  0  0  0
 20 16  1  0  0  0  0
 21 17  2  0  0  0  0
 21 19  1  0  0  0  0
 22 20  1  0  0  0  0
 23 21  1  0  0  0  0
 24 19  2  0  0  0  0
 25  1  1  0  0  0  0
 26 29  1  0  0  0  0
 27 35  1  6  0  0  0
 28 31  1  6  0  0  0
 28 27  1  0  0  0  0
 29 27  1  0  0  0  0
 29 25  1  1  0  0  0
 30 32  1  1  0  0  0
 30 26  1  0  0  0  0
 30 28  1  0  0  0  0
 32 34  1  0  0  0  0
 33 32  2  0  0  0  0
 35 36  1  0  0  0  0
 37 36  1  0  0  0  0
 37 38  1  0  0  0  0
 39 37  1  0  0  0  0
M  END
>  <MODEL>
9

>  <REMARK>
 VINA RESULT:      -6.4      2.423      7.061
  Name = 
  10 active torsions:
  status: ('A' for Active; 'I' for Inactive)
    1  A    between atoms: C_4  and  N_9
    2  A    between atoms: C_4  and  N_18
    3  A    between atoms: C_7  and  N_18
    4  A    between atoms: N_8  and  C_37
    5  A    between atoms: C_10  and  C_37
    6  A    between atoms: C_12  and  C_16
    7  A    between atoms: C_16  and  C_19
    8  A    between atoms: C_16  and  N_27
    9  A    between atoms: C_23  and  C_34
   10  A    between atoms: N_27  and  C_32
                            x       y       z     vdW  Elec       q    Type
                         _______ _______ _______ _____ _____    ______ ____

>  <TORSDO>
F 10

$$$$
