=
 OpenBabel11042422593D

 32 36  0  0  1  0  0  0  0  0999 V2000
  161.2630  208.0750  152.7840 C   0  0  1  0  0  3  0  0  0  0  0  0
  161.4220  210.4750  154.8140 C   0  0  0  0  0  2  0  0  0  0  0  0
  160.7420  209.1970  154.9220 N   0  0  0  0  0  0  0  0  0  0  0  0
  159.9720  210.0880  152.9490 C   0  0  0  0  0  2  0  0  0  0  0  0
  160.7820  211.1770  153.6280 C   0  0  1  0  0  3  0  0  0  0  0  0
  161.6240  208.2400  155.4550 N   0  0  0  0  0  1  0  0  0  0  0  0
  160.2900  208.8320  153.6220 N   0  0  0  0  0  0  0  0  0  0  0  0
  159.1590  212.9180  152.8030 C   0  0  0  0  0  2  0  0  0  0  0  0
  159.8950  212.3980  153.9530 C   0  0  1  0  0  3  0  0  0  0  0  0
  158.4680  212.0620  153.7870 N   0  0  0  0  0  0  0  0  0  0  0  0
  157.7150  212.9370  154.6770 C   0  0  2  0  0  3  0  0  0  0  0  0
  158.2480  212.8050  156.0960 C   0  0  0  0  0  1  0  0  0  0  0  0
  156.0600  211.2220  154.4660 F   0  0  0  0  0  0  0  0  0  0  0  0
  155.5860  213.2660  153.6100 F   0  0  0  0  0  0  0  0  0  0  0  0
  156.2280  212.5850  154.6310 C   0  0  0  0  0  3  0  0  0  0  0  0
  160.8290  206.6510  152.3500 C   0  0  2  0  0  3  0  0  0  0  0  0
  160.9690  205.7490  153.4230 O   0  0  0  0  0  0  0  0  0  0  0  0
  161.9250  205.6450  152.3890 C   0  0  1  0  0  3  0  0  0  0  0  0
  160.7350  201.9350  147.6440 C   0  0  0  0  0  3  0  0  0  0  0  0
  161.6010  204.4740  151.5210 C   0  0  0  0  0  0  0  0  0  0  0  0
  160.9140  202.3130  149.9240 C   0  0  0  0  0  0  0  0  0  0  0  0
  161.2520  203.5010  149.3450 C   0  0  2  0  0  3  0  0  0  0  0  0
  161.5910  204.6120  150.1180 C   0  0  0  0  0  3  0  0  0  0  0  0
  161.1740  203.4000  147.8670 C   0  0  0  0  0  3  0  0  0  0  0  0
  160.8920  202.1460  151.3100 C   0  0  0  0  0  3  0  0  0  0  0  0
  160.5840  201.3270  148.9680 N   0  0  0  0  0  0  0  0  0  0  0  0
  161.2370  203.2440  152.1110 C   0  0  0  0  0  3  0  0  0  0  0  0
  161.9500  208.9510  151.7300 C   0  0  0  0  0  2  0  0  0  0  0  0
  162.3170  208.1500  150.5190 C   0  0  0  0  0  3  0  0  0  0  0  0
  162.0240  208.5670  149.3430 N   0  0  0  0  0  0  0  0  0  0  0  0
  162.3930  207.7780  148.2020 C   0  0  0  0  0  2  0  0  0  0  0  0
  161.1750  207.0490  147.6680 C   0  0  0  0  0  1  0  0  0  0  0  0
  1 28  1  6  0  0  0
  1  7  1  0  0  0  0
  2  3  1  0  0  0  0
  3  6  1  0  0  0  0
  4  7  1  0  0  0  0
  5  4  1  1  0  0  0
  5  9  1  0  0  0  0
  5  2  1  0  0  0  0
  7  3  1  0  0  0  0
  8 10  1  0  0  0  0
  9  8  1  6  0  0  0
 10  9  1  0  0  0  0
 10 11  1  0  0  0  0
 11 12  1  1  0  0  0
 13 15  1  0  0  0  0
 14 15  1  0  0  0  0
 15 11  1  0  0  0  0
 16 18  1  0  0  0  0
 16  1  1  1  0  0  0
 16 17  1  0  0  0  0
 18 20  1  6  0  0  0
 18 17  1  0  0  0  0
 19 24  2  0  0  0  0
 19 26  1  0  0  0  0
 20 27  1  0  0  0  0
 21 25  1  0  0  0  0
 22 24  1  1  0  0  0
 22 21  1  0  0  0  0
 22 23  1  0  0  0  0
 23 20  2  0  0  0  0
 25 27  2  0  0  0  0
 26 21  2  0  0  0  0
 29 28  1  0  0  0  0
 30 29  2  0  0  0  0
 31 30  1  0  0  0  0
 32 31  1  0  0  0  0
M  END
>  <MODEL>
1

>  <REMARK>
 VINA RESULT:      -7.5      0.000      0.000
  Name = 
  9 active torsions:
  status: ('A' for Active; 'I' for Inactive)
    1  A    between atoms: C_2  and  C_22
    2  A    between atoms: C_3  and  C_11
    3  A    between atoms: C_6  and  C_15
    4  A    between atoms: N_8  and  C_24
    5  A    between atoms: C_13  and  C_20
    6  A    between atoms: C_15  and  C_22
    7  A    between atoms: C_15  and  N_32
    8  A    between atoms: C_19  and  C_28
    9  A    between atoms: C_19  and  N_29
                            x       y       z     vdW  Elec       q    Type
                         _______ _______ _______ _____ _____    ______ ____

>  <TORSDO>
F 9

$$$$
=
 OpenBabel11042422593D

 32 36  0  0  1  0  0  0  0  0999 V2000
  161.9150  208.4200  151.7310 C   0  0  1  0  0  3  0  0  0  0  0  0
  161.2310  208.5940  154.7990 C   0  0  0  0  0  2  0  0  0  0  0  0
  160.7010  207.7220  153.7670 N   0  0  0  0  0  0  0  0  0  0  0  0
  160.4030  209.8420  152.9320 C   0  0  0  0  0  2  0  0  0  0  0  0
  160.8640  210.0040  154.3680 C   0  0  1  0  0  3  0  0  0  0  0  0
  161.5080  206.5750  153.6610 N   0  0  0  0  0  1  0  0  0  0  0  0
  160.6680  208.4590  152.5480 N   0  0  0  0  0  0  0  0  0  0  0  0
  160.2840  211.8790  155.9470 C   0  0  0  0  0  2  0  0  0  0  0  0
  159.7860  210.7170  155.2120 C   0  0  1  0  0  3  0  0  0  0  0  0
  159.5320  212.0740  154.6910 N   0  0  0  0  0  0  0  0  0  0  0  0
  158.1630  212.4210  155.0490 C   0  0  2  0  0  3  0  0  0  0  0  0
  157.2550  211.2190  154.8280 C   0  0  0  0  0  1  0  0  0  0  0  0
  157.0660  213.1710  153.0590 F   0  0  0  0  0  0  0  0  0  0  0  0
  158.7360  214.4520  153.8980 F   0  0  0  0  0  0  0  0  0  0  0  0
  157.6830  213.6100  154.2170 C   0  0  0  0  0  3  0  0  0  0  0  0
  161.9500  207.3730  150.5870 C   0  0  2  0  0  3  0  0  0  0  0  0
  161.1530  207.8020  149.5070 O   0  0  0  0  0  0  0  0  0  0  0  0
  160.6290  206.7530  150.2930 C   0  0  1  0  0  3  0  0  0  0  0  0
  161.0970  200.8080  148.8340 C   0  0  0  0  0  3  0  0  0  0  0  0
  160.8010  205.4540  149.5780 C   0  0  0  0  0  0  0  0  0  0  0  0
  161.2070  203.0500  148.2560 C   0  0  1  0  0  3  0  0  0  0  0  0
  160.8490  203.0450  149.5720 C   0  0  0  0  0  0  0  0  0  0  0  0
  160.6470  204.2360  150.2710 C   0  0  0  0  0  3  0  0  0  0  0  0
  160.7440  201.6550  150.0770 C   0  0  0  0  0  3  0  0  0  0  0  0
  161.3890  204.2370  147.5440 C   0  0  0  0  0  3  0  0  0  0  0  0
  161.3820  201.7450  147.7440 N   0  0  0  0  0  0  0  0  0  0  0  0
  161.1860  205.4480  148.2190 C   0  0  0  0  0  3  0  0  0  0  0  0
  162.4690  209.8150  151.4230 C   0  0  0  0  0  2  0  0  0  0  0  0
  162.2930  210.1580  149.9770 C   0  0  0  0  0  3  0  0  0  0  0  0
  162.0120  211.3560  149.6160 N   0  0  0  0  0  0  0  0  0  0  0  0
  161.8530  211.6540  148.2210 C   0  0  0  0  0  2  0  0  0  0  0  0
  163.0080  212.5140  147.7450 C   0  0  0  0  0  1  0  0  0  0  0  0
  1 28  1  6  0  0  0
  1  7  1  0  0  0  0
  3  2  1  0  0  0  0
  5  4  1  6  0  0  0
  5  2  1  0  0  0  0
  5  9  1  0  0  0  0
  6  3  1  0  0  0  0
  7  4  1  0  0  0  0
  7  3  1  0  0  0  0
  9  8  1  1  0  0  0
 10 11  1  0  0  0  0
 10  9  1  0  0  0  0
 10  8  1  0  0  0  0
 11 12  1  6  0  0  0
 13 15  1  0  0  0  0
 14 15  1  0  0  0  0
 15 11  1  0  0  0  0
 16  1  1  1  0  0  0
 17 18  1  0  0  0  0
 17 16  1  0  0  0  0
 18 20  1  6  0  0  0
 18 16  1  0  0  0  0
 19 24  1  0  0  0  0
 20 23  2  0  0  0  0
 21 25  1  1  0  0  0
 21 22  1  0  0  0  0
 22 24  2  0  0  0  0
 22 23  1  0  0  0  0
 25 27  2  0  0  0  0
 26 21  1  0  0  0  0
 26 19  2  0  0  0  0
 27 20  1  0  0  0  0
 29 28  1  0  0  0  0
 30 29  2  0  0  0  0
 31 30  1  0  0  0  0
 32 31  1  0  0  0  0
M  END
>  <MODEL>
2

>  <REMARK>
 VINA RESULT:      -7.3      2.016      2.623
  Name = 
  9 active torsions:
  status: ('A' for Active; 'I' for Inactive)
    1  A    between atoms: C_2  and  C_22
    2  A    between atoms: C_3  and  C_11
    3  A    between atoms: C_6  and  C_15
    4  A    between atoms: N_8  and  C_24
    5  A    between atoms: C_13  and  C_20
    6  A    between atoms: C_15  and  C_22
    7  A    between atoms: C_15  and  N_32
    8  A    between atoms: C_19  and  C_28
    9  A    between atoms: C_19  and  N_29
                            x       y       z     vdW  Elec       q    Type
                         _______ _______ _______ _____ _____    ______ ____

>  <TORSDO>
F 9

$$$$
=
 OpenBabel11042422593D

 32 36  0  0  1  0  0  0  0  0999 V2000
  161.4660  208.5150  151.5900 C   0  0  1  0  0  3  0  0  0  0  0  0
  161.4580  209.5950  154.5460 C   0  0  0  0  0  2  0  0  0  0  0  0
  160.6810  208.5340  153.9330 N   0  0  0  0  0  0  0  0  0  0  0  0
  160.3100  210.3610  152.5910 C   0  0  0  0  0  2  0  0  0  0  0  0
  161.0720  210.8630  153.8030 C   0  0  1  0  0  3  0  0  0  0  0  0
  161.3940  207.3240  154.0130 N   0  0  0  0  0  1  0  0  0  0  0  0
  160.4240  208.9060  152.5830 N   0  0  0  0  0  0  0  0  0  0  0  0
  159.3480  212.6990  153.7570 C   0  0  0  0  0  2  0  0  0  0  0  0
  160.2320  211.8890  154.5930 C   0  0  1  0  0  3  0  0  0  0  0  0
  158.7970  211.5570  154.5130 N   0  0  0  0  0  0  0  0  0  0  0  0
  158.1660  212.0900  155.7140 C   0  0  2  0  0  3  0  0  0  0  0  0
  158.7960  211.4570  156.9470 C   0  0  0  0  0  1  0  0  0  0  0  0
  156.4180  210.4610  155.5890 F   0  0  0  0  0  0  0  0  0  0  0  0
  156.0550  212.4830  154.6320 F   0  0  0  0  0  0  0  0  0  0  0  0
  156.6620  211.8190  155.6860 C   0  0  0  0  0  3  0  0  0  0  0  0
  161.0220  207.5110  150.4940 C   0  0  2  0  0  3  0  0  0  0  0  0
  160.4940  206.3450  151.0820 O   0  0  0  0  0  0  0  0  0  0  0  0
  161.7770  206.2290  150.5050 C   0  0  1  0  0  3  0  0  0  0  0  0
  161.0310  202.1150  146.0090 C   0  0  0  0  0  3  0  0  0  0  0  0
  161.6730  205.5410  149.1840 C   0  0  0  0  0  0  0  0  0  0  0  0
  161.5680  204.2510  146.7310 C   0  0  1  0  0  3  0  0  0  0  0  0
  161.2460  203.5690  147.8680 C   0  0  0  0  0  0  0  0  0  0  0  0
  161.2990  204.1830  149.1200 C   0  0  0  0  0  3  0  0  0  0  0  0
  160.8820  202.1670  147.5470 C   0  0  0  0  0  3  0  0  0  0  0  0
  161.9640  205.5900  146.7600 C   0  0  0  0  0  3  0  0  0  0  0  0
  161.4710  203.4430  145.5760 N   0  0  0  0  0  0  0  0  0  0  0  0
  162.0180  206.2340  148.0040 C   0  0  0  0  0  3  0  0  0  0  0  0
  162.3420  209.6930  151.1500 C   0  0  0  0  0  2  0  0  0  0  0  0
  162.0610  210.0730  149.7300 C   0  0  0  0  0  3  0  0  0  0  0  0
  162.1040  211.2990  149.3580 N   0  0  0  0  0  0  0  0  0  0  0  0
  161.8340  211.6320  147.9890 C   0  0  0  0  0  2  0  0  0  0  0  0
  162.8110  212.6900  147.5150 C   0  0  0  0  0  1  0  0  0  0  0  0
  1 28  1  6  0  0  0
  1  7  1  0  0  0  0
  3  6  1  0  0  0  0
  3  2  1  0  0  0  0
  5  4  1  6  0  0  0
  5  2  1  0  0  0  0
  5  9  1  0  0  0  0
  7  4  1  0  0  0  0
  7  3  1  0  0  0  0
  8 10  1  0  0  0  0
  9  8  1  6  0  0  0
 10  9  1  0  0  0  0
 10 11  1  0  0  0  0
 11 12  1  1  0  0  0
 13 15  1  0  0  0  0
 14 15  1  0  0  0  0
 15 11  1  0  0  0  0
 16 18  1  0  0  0  0
 16 17  1  0  0  0  0
 16  1  1  1  0  0  0
 18 20  1  6  0  0  0
 18 17  1  0  0  0  0
 19 24  1  0  0  0  0
 21 25  1  1  0  0  0
 21 22  1  0  0  0  0
 22 23  1  0  0  0  0
 23 20  2  0  0  0  0
 24 22  2  0  0  0  0
 25 27  2  0  0  0  0
 26 19  2  0  0  0  0
 26 21  1  0  0  0  0
 27 20  1  0  0  0  0
 29 28  1  0  0  0  0
 30 29  2  0  0  0  0
 31 30  1  0  0  0  0
 32 31  1  0  0  0  0
M  END
>  <MODEL>
3

>  <REMARK>
 VINA RESULT:      -7.3      1.857      2.528
  Name = 
  9 active torsions:
  status: ('A' for Active; 'I' for Inactive)
    1  A    between atoms: C_2  and  C_22
    2  A    between atoms: C_3  and  C_11
    3  A    between atoms: C_6  and  C_15
    4  A    between atoms: N_8  and  C_24
    5  A    between atoms: C_13  and  C_20
    6  A    between atoms: C_15  and  C_22
    7  A    between atoms: C_15  and  N_32
    8  A    between atoms: C_19  and  C_28
    9  A    between atoms: C_19  and  N_29
                            x       y       z     vdW  Elec       q    Type
                         _______ _______ _______ _____ _____    ______ ____

>  <TORSDO>
F 9

$$$$
=
 OpenBabel11042422593D

 32 36  0  0  1  0  0  0  0  0999 V2000
  161.2470  208.7650  153.3690 C   0  0  1  0  0  3  0  0  0  0  0  0
  161.3090  210.8830  155.6960 C   0  0  0  0  0  2  0  0  0  0  0  0
  160.7070  209.5630  155.6450 N   0  0  0  0  0  0  0  0  0  0  0  0
  159.8430  210.6560  153.8180 C   0  0  0  0  0  2  0  0  0  0  0  0
  160.6020  211.6940  154.6230 C   0  0  1  0  0  3  0  0  0  0  0  0
  161.6560  208.6000  156.0330 N   0  0  0  0  0  1  0  0  0  0  0  0
  160.2490  209.3450  154.3140 N   0  0  0  0  0  0  0  0  0  0  0  0
  158.9110  213.4710  154.0520 C   0  0  0  0  0  2  0  0  0  0  0  0
  159.6520  212.8050  155.1200 C   0  0  1  0  0  3  0  0  0  0  0  0
  158.2460  212.4370  154.8680 N   0  0  0  0  0  0  0  0  0  0  0  0
  157.4380  213.1220  155.8690 C   0  0  2  0  0  3  0  0  0  0  0  0
  157.9660  212.8000  157.2600 C   0  0  0  0  0  1  0  0  0  0  0  0
  155.8420  211.6800  154.8200 F   0  0  0  0  0  0  0  0  0  0  0  0
  155.1760  213.7720  155.3810 F   0  0  0  0  0  0  0  0  0  0  0  0
  155.9740  212.7000  155.7450 C   0  0  0  0  0  3  0  0  0  0  0  0
  160.8210  207.4640  152.6400 C   0  0  2  0  0  3  0  0  0  0  0  0
  161.0650  206.3430  153.4580 O   0  0  0  0  0  0  0  0  0  0  0  0
  161.9450  206.5260  152.3700 C   0  0  1  0  0  3  0  0  0  0  0  0
  160.6650  201.5290  149.0400 C   0  0  0  0  0  3  0  0  0  0  0  0
  161.5920  205.5770  151.2730 C   0  0  0  0  0  0  0  0  0  0  0  0
  161.0190  203.8140  149.2100 C   0  0  1  0  0  3  0  0  0  0  0  0
  161.1460  203.3440  150.4850 C   0  0  0  0  0  0  0  0  0  0  0  0
  161.4450  204.2020  151.5440 C   0  0  0  0  0  3  0  0  0  0  0  0
  160.9450  201.8750  150.5200 C   0  0  0  0  0  3  0  0  0  0  0  0
  161.1790  205.1660  148.9010 C   0  0  0  0  0  3  0  0  0  0  0  0
  160.7390  202.7830  148.2860 N   0  0  0  0  0  0  0  0  0  0  0  0
  161.4720  206.0510  149.9480 C   0  0  0  0  0  3  0  0  0  0  0  0
  161.9690  209.8310  152.5380 C   0  0  0  0  0  2  0  0  0  0  0  0
  161.7090  209.6420  151.0760 C   0  0  0  0  0  3  0  0  0  0  0  0
  162.2290  210.4310  150.2100 N   0  0  0  0  0  0  0  0  0  0  0  0
  161.9640  210.2230  148.8140 C   0  0  0  0  0  2  0  0  0  0  0  0
  161.9000  211.5580  148.0990 C   0  0  0  0  0  1  0  0  0  0  0  0
  1 28  1  6  0  0  0
  1  7  1  0  0  0  0
  3  2  1  0  0  0  0
  3  6  1  0  0  0  0
  4  7  1  0  0  0  0
  5  4  1  1  0  0  0
  5  9  1  0  0  0  0
  5  2  1  0  0  0  0
  7  3  1  0  0  0  0
  8 10  1  0  0  0  0
  9  8  1  6  0  0  0
 10  9  1  0  0  0  0
 10 11  1  0  0  0  0
 11 12  1  1  0  0  0
 13 15  1  0  0  0  0
 14 15  1  0  0  0  0
 15 11  1  0  0  0  0
 16  1  1  1  0  0  0
 16 17  1  0  0  0  0
 18 20  1  6  0  0  0
 18 16  1  0  0  0  0
 18 17  1  0  0  0  0
 19 24  1  0  0  0  0
 20 23  2  0  0  0  0
 21 25  1  6  0  0  0
 21 22  1  0  0  0  0
 22 24  2  0  0  0  0
 22 23  1  0  0  0  0
 25 27  2  0  0  0  0
 26 19  2  0  0  0  0
 26 21  1  0  0  0  0
 27 20  1  0  0  0  0
 29 28  1  0  0  0  0
 30 29  2  0  0  0  0
 31 30  1  0  0  0  0
 32 31  1  0  0  0  0
M  END
>  <MODEL>
4

>  <REMARK>
 VINA RESULT:      -7.2      1.362      1.825
  Name = 
  9 active torsions:
  status: ('A' for Active; 'I' for Inactive)
    1  A    between atoms: C_2  and  C_22
    2  A    between atoms: C_3  and  C_11
    3  A    between atoms: C_6  and  C_15
    4  A    between atoms: N_8  and  C_24
    5  A    between atoms: C_13  and  C_20
    6  A    between atoms: C_15  and  C_22
    7  A    between atoms: C_15  and  N_32
    8  A    between atoms: C_19  and  C_28
    9  A    between atoms: C_19  and  N_29
                            x       y       z     vdW  Elec       q    Type
                         _______ _______ _______ _____ _____    ______ ____

>  <TORSDO>
F 9

$$$$
=
 OpenBabel11042422593D

 32 36  0  0  1  0  0  0  0  0999 V2000
  161.6560  207.8910  151.0730 C   0  0  1  0  0  3  0  0  0  0  0  0
  162.2170  206.6320  148.2430 C   0  0  0  0  0  2  0  0  0  0  0  0
  161.4100  207.7790  148.6160 N   0  0  0  0  0  0  0  0  0  0  0  0
  160.6090  206.0660  149.9230 C   0  0  0  0  0  2  0  0  0  0  0  0
  161.5780  205.4420  148.9370 C   0  0  1  0  0  3  0  0  0  0  0  0
  162.2150  208.9310  148.6440 N   0  0  0  0  0  1  0  0  0  0  0  0
  160.8320  207.5090  149.8900 N   0  0  0  0  0  0  0  0  0  0  0  0
  161.6170  204.0540  146.8360 C   0  0  0  0  0  2  0  0  0  0  0  0
  160.8560  204.4260  148.0260 C   0  0  1  0  0  3  0  0  0  0  0  0
  161.5850  203.1440  147.9980 N   0  0  0  0  0  0  0  0  0  0  0  0
  160.6080  202.1010  147.7110 C   0  0  2  0  0  3  0  0  0  0  0  0
  160.1260  201.4800  149.0140 C   0  0  0  0  0  1  0  0  0  0  0  0
  160.4520  200.8550  145.6740 F   0  0  0  0  0  0  0  0  0  0  0  0
  161.3580  199.8290  147.4800 F   0  0  0  0  0  0  0  0  0  0  0  0
  161.2240  201.0330  146.8080 C   0  0  0  0  0  3  0  0  0  0  0  0
  161.0550  208.9780  152.0010 C   0  0  2  0  0  3  0  0  0  0  0  0
  161.2240  210.2560  151.4330 O   0  0  0  0  0  0  0  0  0  0  0  0
  162.0560  209.9450  152.5290 C   0  0  1  0  0  3  0  0  0  0  0  0
  158.9730  213.4580  156.5090 C   0  0  0  0  0  3  0  0  0  0  0  0
  161.5440  210.6220  153.7570 C   0  0  0  0  0  0  0  0  0  0  0  0
  160.6560  211.9380  156.0310 C   0  0  0  0  0  0  0  0  0  0  0  0
  160.0290  212.1510  154.8390 C   0  0  2  0  0  3  0  0  0  0  0  0
  160.4560  211.5150  153.6730 C   0  0  0  0  0  3  0  0  0  0  0  0
  158.9180  213.1210  155.0020 C   0  0  0  0  0  3  0  0  0  0  0  0
  161.7500  211.0780  156.1480 C   0  0  0  0  0  3  0  0  0  0  0  0
  160.0850  212.6930  157.0790 N   0  0  0  0  0  0  0  0  0  0  0  0
  162.1950  210.4180  154.9930 C   0  0  0  0  0  3  0  0  0  0  0  0
  162.3300  206.6890  151.7430 C   0  0  0  0  0  2  0  0  0  0  0  0
  162.0280  206.6500  153.2090 C   0  0  0  0  0  3  0  0  0  0  0  0
  160.8320  206.4560  153.6280 N   0  0  0  0  0  0  0  0  0  0  0  0
  160.5750  206.4200  155.0390 C   0  0  0  0  0  2  0  0  0  0  0  0
  159.9590  207.7330  155.4820 C   0  0  0  0  0  1  0  0  0  0  0  0
  1 28  1  1  0  0  0
  2  3  1  0  0  0  0
  3  6  1  0  0  0  0
  3  7  1  0  0  0  0
  5  2  1  6  0  0  0
  5  4  1  0  0  0  0
  7  4  1  0  0  0  0
  7  1  1  0  0  0  0
  8 10  1  0  0  0  0
  9  8  1  6  0  0  0
  9  5  1  0  0  0  0
 10  9  1  0  0  0  0
 11 10  1  0  0  0  0
 11 12  1  1  0  0  0
 13 15  1  0  0  0  0
 15 14  1  0  0  0  0
 15 11  1  0  0  0  0
 16  1  1  6  0  0  0
 16 18  1  0  0  0  0
 17 16  1  0  0  0  0
 17 18  1  0  0  0  0
 18 20  1  1  0  0  0
 19 26  1  0  0  0  0
 20 27  1  0  0  0  0
 21 25  1  0  0  0  0
 21 26  2  0  0  0  0
 22 23  1  6  0  0  0
 22 24  1  0  0  0  0
 22 21  1  0  0  0  0
 23 20  2  0  0  0  0
 24 19  2  0  0  0  0
 27 25  2  0  0  0  0
 28 29  1  0  0  0  0
 29 30  2  0  0  0  0
 30 31  1  0  0  0  0
 31 32  1  0  0  0  0
M  END
>  <MODEL>
5

>  <REMARK>
 VINA RESULT:      -6.8      4.234      9.504
  Name = 
  9 active torsions:
  status: ('A' for Active; 'I' for Inactive)
    1  A    between atoms: C_2  and  C_22
    2  A    between atoms: C_3  and  C_11
    3  A    between atoms: C_6  and  C_15
    4  A    between atoms: N_8  and  C_24
    5  A    between atoms: C_13  and  C_20
    6  A    between atoms: C_15  and  C_22
    7  A    between atoms: C_15  and  N_32
    8  A    between atoms: C_19  and  C_28
    9  A    between atoms: C_19  and  N_29
                            x       y       z     vdW  Elec       q    Type
                         _______ _______ _______ _____ _____    ______ ____

>  <TORSDO>
F 9

$$$$
=
 OpenBabel11042422593D

 32 36  0  0  1  0  0  0  0  0999 V2000
  161.1170  205.4740  151.0600 C   0  0  1  0  0  3  0  0  0  0  0  0
  162.2560  207.0080  148.5590 C   0  0  0  0  0  2  0  0  0  0  0  0
  161.0090  207.1850  149.2800 N   0  0  0  0  0  0  0  0  0  0  0  0
  161.0350  204.9560  148.7210 C   0  0  0  0  0  2  0  0  0  0  0  0
  162.2060  205.5960  148.0000 C   0  0  1  0  0  3  0  0  0  0  0  0
  161.2060  208.0780  150.3480 N   0  0  0  0  0  1  0  0  0  0  0  0
  160.5840  205.9040  149.7350 N   0  0  0  0  0  0  0  0  0  0  0  0
  163.1050  204.7040  145.8220 C   0  0  0  0  0  2  0  0  0  0  0  0
  162.0430  205.4720  146.4700 C   0  0  1  0  0  3  0  0  0  0  0  0
  161.7980  204.0690  146.0860 N   0  0  0  0  0  0  0  0  0  0  0  0
  161.0410  204.0920  144.8410 C   0  0  2  0  0  3  0  0  0  0  0  0
  160.4600  205.4810  144.6200 C   0  0  0  0  0  1  0  0  0  0  0  0
  160.4560  201.7720  144.8890 F   0  0  0  0  0  0  0  0  0  0  0  0
  159.0650  203.1950  143.8050 F   0  0  0  0  0  0  0  0  0  0  0  0
  159.9240  203.0490  144.8820 C   0  0  0  0  0  3  0  0  0  0  0  0
  161.2970  206.5930  152.1190 C   0  0  2  0  0  3  0  0  0  0  0  0
  162.3750  206.2900  152.9730 O   0  0  0  0  0  0  0  0  0  0  0  0
  161.0820  206.1410  153.5200 C   0  0  1  0  0  3  0  0  0  0  0  0
  160.4340  211.7490  155.9360 C   0  0  0  0  0  3  0  0  0  0  0  0
  160.7770  207.3000  154.4110 C   0  0  0  0  0  0  0  0  0  0  0  0
  160.2880  209.4410  156.1050 C   0  0  0  0  0  0  0  0  0  0  0  0
  160.7230  209.6720  154.8330 C   0  0  2  0  0  3  0  0  0  0  0  0
  160.9900  208.6180  153.9570 C   0  0  0  0  0  3  0  0  0  0  0  0
  160.8660  211.1280  154.5880 C   0  0  0  0  0  3  0  0  0  0  0  0
  160.0880  208.1490  156.5940 C   0  0  0  0  0  3  0  0  0  0  0  0
  160.1000  210.6380  156.8310 N   0  0  0  0  0  0  0  0  0  0  0  0
  160.3400  207.0720  155.7340 C   0  0  0  0  0  3  0  0  0  0  0  0
  160.5250  204.1440  151.5380 C   0  0  0  0  0  2  0  0  0  0  0  0
  161.2060  202.9840  150.8830 C   0  0  0  0  0  3  0  0  0  0  0  0
  160.5250  202.0510  150.3270 N   0  0  0  0  0  0  0  0  0  0  0  0
  161.2080  200.9530  149.7040 C   0  0  0  0  0  2  0  0  0  0  0  0
  161.2080  201.1370  148.1980 C   0  0  0  0  0  1  0  0  0  0  0  0
  1 28  1  1  0  0  0
  2  3  1  0  0  0  0
  3  7  1  0  0  0  0
  3  6  1  0  0  0  0
  4  7  1  0  0  0  0
  5  2  1  6  0  0  0
  5  4  1  0  0  0  0
  7  1  1  0  0  0  0
  8 10  1  0  0  0  0
  9  8  1  6  0  0  0
  9  5  1  0  0  0  0
 10  9  1  0  0  0  0
 11 12  1  1  0  0  0
 11 15  1  0  0  0  0
 11 10  1  0  0  0  0
 14 15  1  0  0  0  0
 15 13  1  0  0  0  0
 16  1  1  6  0  0  0
 16 17  1  0  0  0  0
 16 18  1  0  0  0  0
 17 18  1  0  0  0  0
 18 20  1  1  0  0  0
 19 26  1  0  0  0  0
 20 27  1  0  0  0  0
 21 25  1  0  0  0  0
 21 26  2  0  0  0  0
 22 23  1  1  0  0  0
 22 21  1  0  0  0  0
 23 20  2  0  0  0  0
 24 22  1  0  0  0  0
 24 19  2  0  0  0  0
 27 25  2  0  0  0  0
 29 28  1  0  0  0  0
 30 29  2  0  0  0  0
 31 30  1  0  0  0  0
 32 31  1  0  0  0  0
M  END
>  <MODEL>
6

>  <REMARK>
 VINA RESULT:      -6.7      4.076      8.884
  Name = 
  9 active torsions:
  status: ('A' for Active; 'I' for Inactive)
    1  A    between atoms: C_2  and  C_22
    2  A    between atoms: C_3  and  C_11
    3  A    between atoms: C_6  and  C_15
    4  A    between atoms: N_8  and  C_24
    5  A    between atoms: C_13  and  C_20
    6  A    between atoms: C_15  and  C_22
    7  A    between atoms: C_15  and  N_32
    8  A    between atoms: C_19  and  C_28
    9  A    between atoms: C_19  and  N_29
                            x       y       z     vdW  Elec       q    Type
                         _______ _______ _______ _____ _____    ______ ____

>  <TORSDO>
F 9

$$$$
=
 OpenBabel11042422593D

 32 36  0  0  1  0  0  0  0  0999 V2000
  160.3930  209.7220  153.5720 C   0  0  1  0  0  3  0  0  0  0  0  0
  159.0740  212.5200  154.1510 C   0  0  0  0  0  2  0  0  0  0  0  0
  158.4640  211.2180  153.9520 N   0  0  0  0  0  0  0  0  0  0  0  0
  159.7910  211.5160  152.1000 C   0  0  0  0  0  2  0  0  0  0  0  0
  159.7950  212.8340  152.8500 C   0  0  1  0  0  3  0  0  0  0  0  0
  158.3880  210.5430  155.1830 N   0  0  0  0  0  1  0  0  0  0  0  0
  159.2570  210.5050  153.0080 N   0  0  0  0  0  0  0  0  0  0  0  0
  159.7500  214.0430  150.6410 C   0  0  0  0  0  2  0  0  0  0  0  0
  159.1860  213.9590  151.9860 C   0  0  1  0  0  3  0  0  0  0  0  0
  158.4410  213.3920  150.8460 N   0  0  0  0  0  0  0  0  0  0  0  0
  157.4110  214.3580  150.4840 C   0  0  2  0  0  3  0  0  0  0  0  0
  156.3830  214.4520  151.6030 C   0  0  0  0  0  1  0  0  0  0  0  0
  155.4410  214.4280  149.1280 F   0  0  0  0  0  0  0  0  0  0  0  0
  156.7330  212.5690  149.0280 F   0  0  0  0  0  0  0  0  0  0  0  0
  156.7360  213.9470  149.1750 C   0  0  0  0  0  3  0  0  0  0  0  0
  160.5050  208.2470  153.1040 C   0  0  2  0  0  3  0  0  0  0  0  0
  161.7720  207.7250  153.4300 O   0  0  0  0  0  0  0  0  0  0  0  0
  161.5480  208.0170  152.0680 C   0  0  1  0  0  3  0  0  0  0  0  0
  160.8490  202.1470  150.4110 C   0  0  0  0  0  3  0  0  0  0  0  0
  161.2820  206.7530  151.3190 C   0  0  0  0  0  0  0  0  0  0  0  0
  160.8710  204.4070  149.8970 C   0  0  1  0  0  3  0  0  0  0  0  0
  161.1310  204.3500  151.2350 C   0  0  0  0  0  0  0  0  0  0  0  0
  161.3540  205.5100  151.9790 C   0  0  0  0  0  3  0  0  0  0  0  0
  161.1510  202.9420  151.7010 C   0  0  0  0  0  3  0  0  0  0  0  0
  160.8140  205.6200  149.2070 C   0  0  0  0  0  3  0  0  0  0  0  0
  160.6990  203.1250  149.3310 N   0  0  0  0  0  0  0  0  0  0  0  0
  161.0270  206.8010  149.9310 C   0  0  0  0  0  3  0  0  0  0  0  0
  161.6910  210.5320  153.6560 C   0  0  0  0  0  2  0  0  0  0  0  0
  162.0580  210.8160  155.0790 C   0  0  0  0  0  3  0  0  0  0  0  0
  162.3950  209.8670  155.8720 N   0  0  0  0  0  0  0  0  0  0  0  0
  162.7450  210.1720  157.2310 C   0  0  0  0  0  2  0  0  0  0  0  0
  163.9070  211.1450  157.2540 C   0  0  0  0  0  1  0  0  0  0  0  0
  1 28  1  6  0  0  0
  3  2  1  0  0  0  0
  3  6  1  0  0  0  0
  4  7  1  0  0  0  0
  5  4  1  6  0  0  0
  5  2  1  0  0  0  0
  7  1  1  0  0  0  0
  7  3  1  0  0  0  0
  8 10  1  0  0  0  0
  9  8  1  6  0  0  0
  9  5  1  0  0  0  0
 10  9  1  0  0  0  0
 11 10  1  0  0  0  0
 11 12  1  1  0  0  0
 13 15  1  0  0  0  0
 14 15  1  0  0  0  0
 15 11  1  0  0  0  0
 16 17  1  0  0  0  0
 16  1  1  1  0  0  0
 18 20  1  6  0  0  0
 18 16  1  0  0  0  0
 18 17  1  0  0  0  0
 19 24  1  0  0  0  0
 20 23  2  0  0  0  0
 21 25  1  6  0  0  0
 21 22  1  0  0  0  0
 22 24  2  0  0  0  0
 22 23  1  0  0  0  0
 25 27  2  0  0  0  0
 26 21  1  0  0  0  0
 26 19  2  0  0  0  0
 27 20  1  0  0  0  0
 28 29  1  0  0  0  0
 29 30  2  0  0  0  0
 30 31  1  0  0  0  0
 31 32  1  0  0  0  0
M  END
>  <MODEL>
7

>  <REMARK>
 VINA RESULT:      -6.5      2.253      4.291
  Name = 
  9 active torsions:
  status: ('A' for Active; 'I' for Inactive)
    1  A    between atoms: C_2  and  C_22
    2  A    between atoms: C_3  and  C_11
    3  A    between atoms: C_6  and  C_15
    4  A    between atoms: N_8  and  C_24
    5  A    between atoms: C_13  and  C_20
    6  A    between atoms: C_15  and  C_22
    7  A    between atoms: C_15  and  N_32
    8  A    between atoms: C_19  and  C_28
    9  A    between atoms: C_19  and  N_29
                            x       y       z     vdW  Elec       q    Type
                         _______ _______ _______ _____ _____    ______ ____

>  <TORSDO>
F 9

$$$$
=
 OpenBabel11042422593D

 32 36  0  0  1  0  0  0  0  0999 V2000
  161.8350  208.3810  149.6860 C   0  0  1  0  0  3  0  0  0  0  0  0
  160.3040  206.1950  148.0180 C   0  0  0  0  0  2  0  0  0  0  0  0
  160.9780  206.0950  149.3000 N   0  0  0  0  0  0  0  0  0  0  0  0
  162.5620  206.9740  147.8860 C   0  0  0  0  0  2  0  0  0  0  0  0
  161.3830  206.5790  147.0190 C   0  0  1  0  0  3  0  0  0  0  0  0
  160.0810  206.4300  150.3290 N   0  0  0  0  0  1  0  0  0  0  0  0
  162.1000  206.9730  149.2710 N   0  0  0  0  0  0  0  0  0  0  0  0
  162.9450  204.6980  146.4140 C   0  0  0  0  0  2  0  0  0  0  0  0
  161.7890  205.4920  146.0020 C   0  0  1  0  0  3  0  0  0  0  0  0
  161.5850  204.1460  146.5700 N   0  0  0  0  0  0  0  0  0  0  0  0
  161.3490  203.2400  145.4530 C   0  0  2  0  0  3  0  0  0  0  0  0
  160.3200  203.8480  144.5100 C   0  0  0  0  0  1  0  0  0  0  0  0
  159.8260  201.4140  145.1820 F   0  0  0  0  0  0  0  0  0  0  0  0
  160.4590  201.9660  147.2870 F   0  0  0  0  0  0  0  0  0  0  0  0
  160.8650  201.8830  145.9650 C   0  0  0  0  0  3  0  0  0  0  0  0
  162.0640  208.7040  151.1860 C   0  0  2  0  0  3  0  0  0  0  0  0
  162.2960  207.5200  151.9130 O   0  0  0  0  0  0  0  0  0  0  0  0
  161.0360  208.1280  152.0940 C   0  0  1  0  0  3  0  0  0  0  0  0
  160.3940  212.3290  156.5250 C   0  0  0  0  0  3  0  0  0  0  0  0
  161.0120  208.8550  153.3980 C   0  0  0  0  0  0  0  0  0  0  0  0
  161.0520  210.2250  155.8090 C   0  0  0  0  0  0  0  0  0  0  0  0
  160.5420  210.8290  154.6970 C   0  0  2  0  0  3  0  0  0  0  0  0
  160.5160  210.1730  153.4660 C   0  0  0  0  0  3  0  0  0  0  0  0
  160.0810  212.2020  155.0170 C   0  0  0  0  0  3  0  0  0  0  0  0
  161.5710  208.9300  155.7740 C   0  0  0  0  0  3  0  0  0  0  0  0
  161.0050  211.0660  156.9430 N   0  0  0  0  0  0  0  0  0  0  0  0
  161.5500  208.2440  154.5510 C   0  0  0  0  0  3  0  0  0  0  0  0
  162.3310  209.4080  148.6630 C   0  0  0  0  0  2  0  0  0  0  0  0
  161.9490  210.7980  149.0650 C   0  0  0  0  0  3  0  0  0  0  0  0
  162.0290  211.7680  148.2320 N   0  0  0  0  0  0  0  0  0  0  0  0
  161.6520  213.0890  148.6460 C   0  0  0  0  0  2  0  0  0  0  0  0
  162.4550  214.1180  147.8750 C   0  0  0  0  0  1  0  0  0  0  0  0
  1 28  1  6  0  0  0
  2  3  1  0  0  0  0
  3  6  1  0  0  0  0
  4  7  1  0  0  0  0
  5  4  1  1  0  0  0
  5  2  1  0  0  0  0
  7  3  1  0  0  0  0
  7  1  1  0  0  0  0
  8 10  1  0  0  0  0
  9  8  1  1  0  0  0
  9 10  1  0  0  0  0
  9  5  1  0  0  0  0
 11 12  1  6  0  0  0
 11 15  1  0  0  0  0
 11 10  1  0  0  0  0
 13 15  1  0  0  0  0
 15 14  1  0  0  0  0
 16  1  1  6  0  0  0
 16 17  1  0  0  0  0
 16 18  1  0  0  0  0
 17 18  1  0  0  0  0
 18 20  1  1  0  0  0
 19 26  1  0  0  0  0
 20 23  2  0  0  0  0
 20 27  1  0  0  0  0
 21 26  2  0  0  0  0
 22 23  1  6  0  0  0
 22 24  1  0  0  0  0
 22 21  1  0  0  0  0
 24 19  2  0  0  0  0
 25 21  1  0  0  0  0
 27 25  2  0  0  0  0
 28 29  1  0  0  0  0
 30 31  1  0  0  0  0
 30 29  2  0  0  0  0
 32 31  1  0  0  0  0
M  END
>  <MODEL>
8

>  <REMARK>
 VINA RESULT:      -6.4      4.265      9.024
  Name = 
  9 active torsions:
  status: ('A' for Active; 'I' for Inactive)
    1  A    between atoms: C_2  and  C_22
    2  A    between atoms: C_3  and  C_11
    3  A    between atoms: C_6  and  C_15
    4  A    between atoms: N_8  and  C_24
    5  A    between atoms: C_13  and  C_20
    6  A    between atoms: C_15  and  C_22
    7  A    between atoms: C_15  and  N_32
    8  A    between atoms: C_19  and  C_28
    9  A    between atoms: C_19  and  N_29
                            x       y       z     vdW  Elec       q    Type
                         _______ _______ _______ _____ _____    ______ ____

>  <TORSDO>
F 9

$$$$
=
 OpenBabel11042422593D

 32 36  0  0  1  0  0  0  0  0999 V2000
  161.5800  207.9510  152.3140 C   0  0  1  0  0  3  0  0  0  0  0  0
  161.1540  205.2620  150.7350 C   0  0  0  0  0  2  0  0  0  0  0  0
  162.3780  205.9180  151.1580 N   0  0  0  0  0  0  0  0  0  0  0  0
  161.2430  207.5310  149.9780 C   0  0  0  0  0  2  0  0  0  0  0  0
  160.4790  206.2350  149.7820 C   0  0  1  0  0  3  0  0  0  0  0  0
  162.7080  205.5020  152.4600 N   0  0  0  0  0  1  0  0  0  0  0  0
  162.1630  207.3250  151.0920 N   0  0  0  0  0  0  0  0  0  0  0  0
  161.1040  206.7970  147.4080 C   0  0  0  0  0  2  0  0  0  0  0  0
  160.4580  205.8300  148.2930 C   0  0  1  0  0  3  0  0  0  0  0  0
  161.8270  205.5720  147.8060 N   0  0  0  0  0  0  0  0  0  0  0  0
  161.7190  204.6220  146.7060 C   0  0  2  0  0  3  0  0  0  0  0  0
  161.5550  203.2140  147.2600 C   0  0  0  0  0  1  0  0  0  0  0  0
  164.1070  204.7040  146.5830 F   0  0  0  0  0  0  0  0  0  0  0  0
  162.9240  205.8340  145.0150 F   0  0  0  0  0  0  0  0  0  0  0  0
  162.9570  204.7030  145.8140 C   0  0  0  0  0  3  0  0  0  0  0  0
  160.7470  209.2400  152.0890 C   0  0  2  0  0  3  0  0  0  0  0  0
  161.5830  210.2980  151.6790 O   0  0  0  0  0  0  0  0  0  0  0  0
  161.1020  210.3590  153.0050 C   0  0  1  0  0  3  0  0  0  0  0  0
  155.9050  213.3270  154.3750 C   0  0  0  0  0  3  0  0  0  0  0  0
  159.9880  211.3480  153.0910 C   0  0  0  0  0  0  0  0  0  0  0  0
  157.8820  213.1520  153.1780 C   0  0  1  0  0  3  0  0  0  0  0  0
  157.8700  212.0580  153.9930 C   0  0  0  0  0  0  0  0  0  0  0  0
  158.9070  211.1250  153.9670 C   0  0  0  0  0  3  0  0  0  0  0  0
  156.6400  212.0430  154.8230 C   0  0  0  0  0  3  0  0  0  0  0  0
  158.9260  213.3930  152.2820 C   0  0  0  0  0  3  0  0  0  0  0  0
  156.7330  213.9560  153.3430 N   0  0  0  0  0  0  0  0  0  0  0  0
  159.9850  212.4760  152.2410 C   0  0  0  0  0  3  0  0  0  0  0  0
  161.0270  206.9220  153.3050 C   0  0  0  0  0  2  0  0  0  0  0  0
  161.0480  207.4560  154.7040 C   0  0  0  0  0  3  0  0  0  0  0  0
  160.0340  207.3140  155.4750 N   0  0  0  0  0  0  0  0  0  0  0  0
  160.0860  207.8340  156.8130 C   0  0  0  0  0  2  0  0  0  0  0  0
  160.5780  209.2680  156.7870 C   0  0  0  0  0  1  0  0  0  0  0  0
  1 28  1  6  0  0  0
  2  3  1  0  0  0  0
  3  6  1  0  0  0  0
  4  7  1  0  0  0  0
  5  4  1  6  0  0  0
  5  2  1  0  0  0  0
  7  3  1  0  0  0  0
  7  1  1  0  0  0  0
  8 10  1  0  0  0  0
  9  8  1  6  0  0  0
  9  5  1  0  0  0  0
 10  9  1  0  0  0  0
 11 12  1  1  0  0  0
 11 10  1  0  0  0  0
 14 15  1  0  0  0  0
 15 13  1  0  0  0  0
 15 11  1  0  0  0  0
 16  1  1  1  0  0  0
 16 18  1  0  0  0  0
 17 16  1  0  0  0  0
 17 18  1  0  0  0  0
 18 20  1  6  0  0  0
 19 24  1  0  0  0  0
 20 23  2  0  0  0  0
 21 25  1  6  0  0  0
 21 26  1  0  0  0  0
 21 22  1  0  0  0  0
 22 24  2  0  0  0  0
 23 22  1  0  0  0  0
 26 19  2  0  0  0  0
 27 25  2  0  0  0  0
 27 20  1  0  0  0  0
 28 29  1  0  0  0  0
 29 30  2  0  0  0  0
 30 31  1  0  0  0  0
 32 31  1  0  0  0  0
M  END
>  <MODEL>
9

>  <REMARK>
 VINA RESULT:      -6.3      3.868      9.128
  Name = 
  9 active torsions:
  status: ('A' for Active; 'I' for Inactive)
    1  A    between atoms: C_2  and  C_22
    2  A    between atoms: C_3  and  C_11
    3  A    between atoms: C_6  and  C_15
    4  A    between atoms: N_8  and  C_24
    5  A    between atoms: C_13  and  C_20
    6  A    between atoms: C_15  and  C_22
    7  A    between atoms: C_15  and  N_32
    8  A    between atoms: C_19  and  C_28
    9  A    between atoms: C_19  and  N_29
                            x       y       z     vdW  Elec       q    Type
                         _______ _______ _______ _____ _____    ______ ____

>  <TORSDO>
F 9

$$$$
