=
 OpenBabel11052410433D

 35 40  0  0  1  0  0  0  0  0999 V2000
  161.6120  208.9440  150.1500 N   0  0  0  0  0  0  0  0  0  0  0  0
  161.2510  206.7570  153.0950 C   0  0  2  0  0  3  0  0  0  0  0  0
  162.7240  206.9930  151.1600 C   0  0  0  0  0  2  0  0  0  0  0  0
  162.0500  208.3300  151.4120 C   0  0  2  0  0  3  0  0  0  0  0  0
  161.0450  205.5170  152.2500 C   0  0  0  0  0  2  0  0  0  0  0  0
  160.8690  207.9970  152.3060 C   0  0  0  0  0  2  0  0  0  0  0  0
  162.4300  206.1230  152.3700 C   0  0  2  0  0  3  0  0  0  0  0  0
  162.0130  210.2930  150.1390 N   0  0  0  0  0  2  0  0  0  0  0  0
  162.1430  210.6830  148.7440 C   0  0  0  0  0  2  0  0  0  0  0  0
  162.0010  212.1920  148.6120 C   0  0  0  0  0  2  0  0  0  0  0  0
  161.4510  212.6220  146.1720 C   0  0  0  0  0  0  0  0  0  0  0  0
  162.3700  212.6210  147.2690 N   0  0  0  0  0  2  0  0  0  0  0  0
  160.2840  212.1690  146.3240 O   0  0  0  0  0  0  0  0  0  0  0  0
  160.9520  212.7880  143.3740 S   0  0  0  0  0  0  0  0  0  0  0  0
  163.3720  214.4260  143.0790 S   0  0  0  0  0  0  0  0  0  0  0  0
  162.5040  212.9650  142.4350 C   0  0  2  0  0  3  0  0  0  0  0  0
  162.9630  213.8890  144.7310 C   0  0  0  0  0  3  0  0  0  0  0  0
  161.8530  213.1760  144.8710 C   0  0  0  0  0  0  0  0  0  0  0  0
  162.1090  211.8590  138.7390 C   0  0  0  0  0  2  0  0  0  0  0  0
  162.2840  213.0540  140.9250 C   0  0  2  0  0  3  0  0  0  0  0  0
  162.3980  211.6930  140.2280 C   0  0  0  0  0  2  0  0  0  0  0  0
  162.8580  214.2280  138.9370 C   0  0  0  0  0  2  0  0  0  0  0  0
  163.0140  212.9330  138.1440 C   0  0  0  0  0  2  0  0  0  0  0  0
  163.2240  214.0080  140.3350 N   0  0  0  0  0  2  0  0  0  0  0  0
  162.2350  208.2740  148.9960 C   0  0  0  0  0  2  0  0  0  0  0  0
  161.3130  207.2750  148.2900 C   0  0  0  0  0  2  0  0  0  0  0  0
  161.1650  205.6000  146.4550 C   0  0  0  0  0  2  0  0  0  0  0  0
  161.8700  204.8590  147.5770 C   0  0  1  0  0  3  0  0  0  0  0  0
  162.1100  206.3590  147.3630 C   0  0  2  0  0  3  0  0  0  0  0  0
  160.8570  204.5200  148.6670 C   0  0  0  0  0  2  0  0  0  0  0  0
  160.9940  202.0440  148.0560 C   0  0  0  0  0  3  0  0  0  0  0  0
  161.0390  200.8900  148.7510 N   0  0  0  0  0  0  0  0  0  0  0  0
  160.9120  202.5590  150.1810 O   0  0  0  0  0  0  0  0  0  0  0  0
  160.9100  203.0640  148.9740 C   0  0  0  0  0  0  0  0  0  0  0  0
  160.9860  201.2540  150.0510 C   0  0  0  0  0  3  0  0  0  0  0  0
  2  5  1  6  0  0  0
  3  4  1  0  0  0  0
  4  1  1  6  0  0  0
  4  6  1  0  0  0  0
  5  7  1  0  0  0  0
  6  2  1  0  0  0  0
  7  3  1  6  0  0  0
  7  2  1  0  0  0  0
  8  1  1  0  0  0  0
  9  8  1  0  0  0  0
 10  9  1  0  0  0  0
 11 13  2  0  0  0  0
 11 12  1  0  0  0  0
 12 10  1  0  0  0  0
 14 18  1  0  0  0  0
 15 17  1  0  0  0  0
 16 15  1  1  0  0  0
 16 14  1  0  0  0  0
 17 18  2  0  0  0  0
 18 11  1  0  0  0  0
 19 21  1  0  0  0  0
 20 21  1  6  0  0  0
 20 16  1  0  0  0  0
 22 24  1  0  0  0  0
 23 19  1  0  0  0  0
 23 22  1  0  0  0  0
 24 20  1  0  0  0  0
 25  1  1  0  0  0  0
 26 25  1  0  0  0  0
 27 29  1  0  0  0  0
 27 28  1  0  0  0  0
 28 30  1  1  0  0  0
 29 28  1  0  0  0  0
 29 26  1  1  0  0  0
 30 34  1  0  0  0  0
 31 32  1  0  0  0  0
 31 34  2  0  0  0  0
 32 35  2  0  0  0  0
 34 33  1  0  0  0  0
 35 33  1  0  0  0  0
M  END
>  <MODEL>
1

>  <REMARK>
 VINA RESULT:      -7.9      0.000      0.000
  Name = 
  12 active torsions:
  status: ('A' for Active; 'I' for Inactive)
    1  A    between atoms: C_5  and  C_17
    2  A    between atoms: C_9  and  C_23
    3  A    between atoms: C_11  and  N_19
    4  A    between atoms: N_13  and  C_15
    5  A    between atoms: C_14  and  C_29
    6  A    between atoms: C_15  and  C_34
    7  A    between atoms: N_19  and  N_28
    8  A    between atoms: N_19  and  C_33
    9  A    between atoms: N_28  and  C_34
   10  A    between atoms: C_29  and  C_31
   11  A    between atoms: C_32  and  C_33
   12  A    between atoms: C_32  and  C_35
                            x       y       z     vdW  Elec       q    Type
                         _______ _______ _______ _____ _____    ______ ____

>  <TORSDO>
F 12

$$$$
=
 OpenBabel11052410433D

 35 40  0  0  1  0  0  0  0  0999 V2000
  161.8650  206.0810  148.3780 N   0  0  0  0  0  0  0  0  0  0  0  0
  162.0580  205.3050  144.7800 C   0  0  2  0  0  3  0  0  0  0  0  0
  160.5320  206.4110  146.3340 C   0  0  0  0  0  2  0  0  0  0  0  0
  161.9220  206.4130  146.9470 C   0  0  2  0  0  3  0  0  0  0  0  0
  160.7980  204.4630  144.8100 C   0  0  0  0  0  2  0  0  0  0  0  0
  162.6840  205.3600  146.1620 C   0  0  0  0  0  2  0  0  0  0  0  0
  160.6950  205.9740  144.8880 C   0  0  2  0  0  3  0  0  0  0  0  0
  161.5430  207.2430  149.1010 N   0  0  0  0  0  2  0  0  0  0  0  0
  161.0200  206.8090  150.3870 C   0  0  0  0  0  2  0  0  0  0  0  0
  162.0240  207.1190  151.4870 C   0  0  0  0  0  2  0  0  0  0  0  0
  161.5830  209.4400  152.4130 C   0  0  0  0  0  0  0  0  0  0  0  0
  161.4360  208.0180  152.4730 N   0  0  0  0  0  2  0  0  0  0  0  0
  162.3070  209.9650  151.5240 O   0  0  0  0  0  0  0  0  0  0  0  0
  159.2950  211.0430  152.9630 S   0  0  0  0  0  0  0  0  0  0  0  0
  160.4710  211.7630  155.5570 S   0  0  0  0  0  0  0  0  0  0  0  0
  159.7150  212.4440  154.0510 C   0  0  2  0  0  3  0  0  0  0  0  0
  161.4140  210.6490  154.5290 C   0  0  0  0  0  3  0  0  0  0  0  0
  160.8700  210.2980  153.3710 C   0  0  0  0  0  0  0  0  0  0  0  0
  156.9640  214.2570  156.0950 C   0  0  0  0  0  2  0  0  0  0  0  0
  158.5150  213.3360  154.3690 C   0  0  2  0  0  3  0  0  0  0  0  0
  158.1280  213.3010  155.8520 C   0  0  0  0  0  2  0  0  0  0  0  0
  156.3130  213.9480  153.7090 C   0  0  0  0  0  2  0  0  0  0  0  0
  155.8110  213.9340  155.1510 C   0  0  0  0  0  2  0  0  0  0  0  0
  157.3730  212.9560  153.5360 N   0  0  0  0  0  2  0  0  0  0  0  0
  160.8220  205.0750  148.6430 C   0  0  0  0  0  2  0  0  0  0  0  0
  161.3740  203.6910  148.9970 C   0  0  0  0  0  2  0  0  0  0  0  0
  160.9280  201.8690  150.6320 C   0  0  0  0  0  2  0  0  0  0  0  0
  160.3950  201.3260  149.3180 C   0  0  1  0  0  3  0  0  0  0  0  0
  160.2950  202.8230  149.6410 C   0  0  2  0  0  3  0  0  0  0  0  0
  161.5690  200.9390  148.4230 C   0  0  0  0  0  2  0  0  0  0  0  0
  161.2780  199.5380  146.3070 C   0  0  0  0  0  3  0  0  0  0  0  0
  160.6710  199.7200  145.1180 N   0  0  0  0  0  0  0  0  0  0  0  0
  160.3890  201.5380  146.3280 O   0  0  0  0  0  0  0  0  0  0  0  0
  161.0900  200.6890  147.0360 C   0  0  0  0  0  0  0  0  0  0  0  0
  160.1390  200.9600  145.1750 C   0  0  0  0  0  3  0  0  0  0  0  0
  1 25  1  0  0  0  0
  1  8  1  0  0  0  0
  2  5  1  1  0  0  0
  2  7  1  0  0  0  0
  2  6  1  0  0  0  0
  3  4  1  0  0  0  0
  4  1  1  1  0  0  0
  6  4  1  0  0  0  0
  7  5  1  1  0  0  0
  7  3  1  0  0  0  0
  8  9  1  0  0  0  0
  9 10  1  0  0  0  0
 10 12  1  0  0  0  0
 11 12  1  0  0  0  0
 11 18  1  0  0  0  0
 13 11  2  0  0  0  0
 14 18  1  0  0  0  0
 16 14  1  6  0  0  0
 16 20  1  0  0  0  0
 16 15  1  0  0  0  0
 17 15  1  0  0  0  0
 18 17  2  0  0  0  0
 20 21  1  1  0  0  0
 21 19  1  0  0  0  0
 22 23  1  0  0  0  0
 23 19  1  0  0  0  0
 24 22  1  0  0  0  0
 24 20  1  0  0  0  0
 25 26  1  0  0  0  0
 28 30  1  6  0  0  0
 28 29  1  0  0  0  0
 28 27  1  0  0  0  0
 29 26  1  6  0  0  0
 29 27  1  0  0  0  0
 31 34  2  0  0  0  0
 32 35  2  0  0  0  0
 32 31  1  0  0  0  0
 33 34  1  0  0  0  0
 34 30  1  0  0  0  0
 35 33  1  0  0  0  0
M  END
>  <MODEL>
2

>  <REMARK>
 VINA RESULT:      -7.4      5.725      9.085
  Name = 
  12 active torsions:
  status: ('A' for Active; 'I' for Inactive)
    1  A    between atoms: C_5  and  C_17
    2  A    between atoms: C_9  and  C_23
    3  A    between atoms: C_11  and  N_19
    4  A    between atoms: N_13  and  C_15
    5  A    between atoms: C_14  and  C_29
    6  A    between atoms: C_15  and  C_34
    7  A    between atoms: N_19  and  N_28
    8  A    between atoms: N_19  and  C_33
    9  A    between atoms: N_28  and  C_34
   10  A    between atoms: C_29  and  C_31
   11  A    between atoms: C_32  and  C_33
   12  A    between atoms: C_32  and  C_35
                            x       y       z     vdW  Elec       q    Type
                         _______ _______ _______ _____ _____    ______ ____

>  <TORSDO>
F 12

$$$$
=
 OpenBabel11052410433D

 35 40  0  0  1  0  0  0  0  0999 V2000
  161.0420  205.4800  151.9040 N   0  0  0  0  0  0  0  0  0  0  0  0
  161.0640  201.9740  150.7670 C   0  0  2  0  0  3  0  0  0  0  0  0
  161.2660  204.2100  149.8050 C   0  0  0  0  0  2  0  0  0  0  0  0
  161.6340  204.2890  151.2760 C   0  0  2  0  0  3  0  0  0  0  0  0
  159.8490  202.1680  149.8820 C   0  0  0  0  0  2  0  0  0  0  0  0
  161.0750  203.0110  151.8760 C   0  0  0  0  0  2  0  0  0  0  0  0
  161.1890  202.7350  149.4540 C   0  0  2  0  0  3  0  0  0  0  0  0
  161.0470  205.3070  153.2990 N   0  0  0  0  0  2  0  0  0  0  0  0
  161.3750  206.5970  153.8840 C   0  0  0  0  0  2  0  0  0  0  0  0
  160.7040  206.7370  155.2420 C   0  0  0  0  0  2  0  0  0  0  0  0
  160.7430  209.1420  156.0520 C   0  0  0  0  0  0  0  0  0  0  0  0
  160.1000  208.0570  155.3770 N   0  0  0  0  0  2  0  0  0  0  0  0
  161.8500  208.9610  156.6290 O   0  0  0  0  0  0  0  0  0  0  0  0
  158.4750  210.7470  155.4320 S   0  0  0  0  0  0  0  0  0  0  0  0
  159.9780  213.1260  156.2750 S   0  0  0  0  0  0  0  0  0  0  0  0
  158.9710  212.4280  154.9320 C   0  0  2  0  0  3  0  0  0  0  0  0
  160.8190  211.5580  156.4020 C   0  0  0  0  0  3  0  0  0  0  0  0
  160.1320  210.4790  156.0520 C   0  0  0  0  0  0  0  0  0  0  0  0
  155.4530  214.0490  155.1190 C   0  0  0  0  0  2  0  0  0  0  0  0
  157.7820  213.3250  154.5850 C   0  0  2  0  0  3  0  0  0  0  0  0
  156.5710  213.0790  155.4920 C   0  0  0  0  0  2  0  0  0  0  0  0
  156.4180  214.1570  152.8230 C   0  0  0  0  0  2  0  0  0  0  0  0
  155.1400  213.9440  153.6300 C   0  0  0  0  0  2  0  0  0  0  0  0
  157.4120  213.1460  153.1810 N   0  0  0  0  0  2  0  0  0  0  0  0
  161.8300  206.6840  151.5910 C   0  0  0  0  0  2  0  0  0  0  0  0
  161.3020  207.4720  150.3880 C   0  0  0  0  0  2  0  0  0  0  0  0
  161.9570  209.0660  148.5930 C   0  0  0  0  0  2  0  0  0  0  0  0
  162.2940  207.7020  148.0180 C   0  0  1  0  0  3  0  0  0  0  0  0
  162.4530  207.9760  149.5190 C   0  0  2  0  0  3  0  0  0  0  0  0
  161.0020  206.9900  147.6280 C   0  0  0  0  0  2  0  0  0  0  0  0
  162.2630  205.1690  146.3560 C   0  0  0  0  0  3  0  0  0  0  0  0
  162.1100  204.5560  145.1650 N   0  0  0  0  0  0  0  0  0  0  0  0
  160.4990  206.0380  145.3960 O   0  0  0  0  0  0  0  0  0  0  0  0
  161.2480  206.0910  146.4680 C   0  0  0  0  0  0  0  0  0  0  0  0
  161.0150  205.1200  144.6110 C   0  0  0  0  0  3  0  0  0  0  0  0
  1  8  1  0  0  0  0
  2  5  1  6  0  0  0
  2  6  1  0  0  0  0
  3  4  1  0  0  0  0
  4  6  1  0  0  0  0
  4  1  1  1  0  0  0
  7  3  1  1  0  0  0
  7  5  1  0  0  0  0
  7  2  1  0  0  0  0
  8  9  1  0  0  0  0
  9 10  1  0  0  0  0
 10 12  1  0  0  0  0
 11 13  2  0  0  0  0
 12 11  1  0  0  0  0
 14 18  1  0  0  0  0
 15 17  1  0  0  0  0
 16 14  1  1  0  0  0
 16 15  1  0  0  0  0
 18 11  1  0  0  0  0
 18 17  2  0  0  0  0
 19 21  1  0  0  0  0
 20 16  1  0  0  0  0
 20 21  1  1  0  0  0
 22 24  1  0  0  0  0
 22 23  1  0  0  0  0
 23 19  1  0  0  0  0
 24 20  1  0  0  0  0
 25  1  1  0  0  0  0
 26 25  1  0  0  0  0
 27 29  1  0  0  0  0
 28 30  1  1  0  0  0
 28 27  1  0  0  0  0
 28 29  1  0  0  0  0
 29 26  1  1  0  0  0
 31 34  2  0  0  0  0
 32 31  1  0  0  0  0
 33 34  1  0  0  0  0
 34 30  1  0  0  0  0
 35 32  2  0  0  0  0
 35 33  1  0  0  0  0
M  END
>  <MODEL>
3

>  <REMARK>
 VINA RESULT:      -7.3      6.052      9.452
  Name = 
  12 active torsions:
  status: ('A' for Active; 'I' for Inactive)
    1  A    between atoms: C_5  and  C_17
    2  A    between atoms: C_9  and  C_23
    3  A    between atoms: C_11  and  N_19
    4  A    between atoms: N_13  and  C_15
    5  A    between atoms: C_14  and  C_29
    6  A    between atoms: C_15  and  C_34
    7  A    between atoms: N_19  and  N_28
    8  A    between atoms: N_19  and  C_33
    9  A    between atoms: N_28  and  C_34
   10  A    between atoms: C_29  and  C_31
   11  A    between atoms: C_32  and  C_33
   12  A    between atoms: C_32  and  C_35
                            x       y       z     vdW  Elec       q    Type
                         _______ _______ _______ _____ _____    ______ ____

>  <TORSDO>
F 12

$$$$
=
 OpenBabel11052410433D

 35 40  0  0  1  0  0  0  0  0999 V2000
  161.4450  207.3360  153.6850 N   0  0  0  0  0  0  0  0  0  0  0  0
  161.0550  203.8530  152.5430 C   0  0  2  0  0  3  0  0  0  0  0  0
  162.2200  205.8850  151.8520 C   0  0  0  0  0  2  0  0  0  0  0  0
  161.9220  205.9890  153.3370 C   0  0  2  0  0  3  0  0  0  0  0  0
  160.4380  204.2690  151.2230 C   0  0  0  0  0  2  0  0  0  0  0  0
  160.8500  204.9410  153.5820 C   0  0  0  0  0  2  0  0  0  0  0  0
  161.9260  204.4510  151.4480 C   0  0  2  0  0  3  0  0  0  0  0  0
  160.7930  207.8880  152.5680 N   0  0  0  0  0  2  0  0  0  0  0  0
  161.2080  209.2800  152.4820 C   0  0  0  0  0  2  0  0  0  0  0  0
  161.7980  209.5620  151.1090 C   0  0  0  0  0  2  0  0  0  0  0  0
  161.7570  208.4720  148.8180 C   0  0  0  0  0  0  0  0  0  0  0  0
  161.6450  208.4000  150.2420 N   0  0  0  0  0  2  0  0  0  0  0  0
  161.9210  209.5870  148.2520 O   0  0  0  0  0  0  0  0  0  0  0  0
  160.4880  205.9720  148.3190 S   0  0  0  0  0  0  0  0  0  0  0  0
  162.4940  205.4130  146.2470 S   0  0  0  0  0  0  0  0  0  0  0  0
  161.6830  204.7310  147.7240 C   0  0  2  0  0  3  0  0  0  0  0  0
  162.6300  206.9770  147.0950 C   0  0  0  0  0  3  0  0  0  0  0  0
  161.7070  207.2460  148.0080 C   0  0  0  0  0  0  0  0  0  0  0  0
  160.7750  200.9830  148.1280 C   0  0  0  0  0  2  0  0  0  0  0  0
  161.0450  203.3700  147.4470 C   0  0  2  0  0  3  0  0  0  0  0  0
  161.4980  202.2910  148.4370 C   0  0  0  0  0  2  0  0  0  0  0  0
  160.5410  201.7600  145.7710 C   0  0  0  0  0  2  0  0  0  0  0  0
  160.9780  200.6020  146.6650 C   0  0  0  0  0  2  0  0  0  0  0  0
  161.3290  202.9530  146.0740 N   0  0  0  0  0  2  0  0  0  0  0  0
  160.4800  207.2810  154.7960 C   0  0  0  0  0  2  0  0  0  0  0  0
  161.0030  207.8900  156.0990 C   0  0  0  0  0  2  0  0  0  0  0  0
  162.0990  209.8790  157.1160 C   0  0  0  0  0  2  0  0  0  0  0  0
  161.1170  210.4680  156.1200 C   0  0  1  0  0  3  0  0  0  0  0  0
  161.8310  209.1430  155.8210 C   0  0  2  0  0  3  0  0  0  0  0  0
  159.7000  210.3230  156.6700 C   0  0  0  0  0  2  0  0  0  0  0  0
  159.0060  211.4040  154.4630 C   0  0  0  0  0  3  0  0  0  0  0  0
  157.8410  211.8220  153.9290 N   0  0  0  0  0  0  0  0  0  0  0  0
  157.4370  211.0170  155.9380 O   0  0  0  0  0  0  0  0  0  0  0  0
  158.7220  210.9140  155.7160 C   0  0  0  0  0  0  0  0  0  0  0  0
  156.9050  211.5650  154.8690 C   0  0  0  0  0  3  0  0  0  0  0  0
  1 25  1  0  0  0  0
  2  5  1  6  0  0  0
  2  6  1  0  0  0  0
  3  4  1  0  0  0  0
  4  6  1  0  0  0  0
  4  1  1  6  0  0  0
  7  5  1  6  0  0  0
  7  3  1  0  0  0  0
  7  2  1  0  0  0  0
  8  1  1  0  0  0  0
  9  8  1  0  0  0  0
 10  9  1  0  0  0  0
 11 12  1  0  0  0  0
 12 10  1  0  0  0  0
 13 11  2  0  0  0  0
 15 17  1  0  0  0  0
 16 15  1  6  0  0  0
 16 14  1  0  0  0  0
 17 18  2  0  0  0  0
 18 14  1  0  0  0  0
 18 11  1  0  0  0  0
 19 21  1  0  0  0  0
 20 16  1  0  0  0  0
 20 21  1  1  0  0  0
 22 24  1  0  0  0  0
 22 23  1  0  0  0  0
 23 19  1  0  0  0  0
 24 20  1  0  0  0  0
 25 26  1  0  0  0  0
 28 30  1  1  0  0  0
 28 27  1  0  0  0  0
 29 26  1  1  0  0  0
 29 28  1  0  0  0  0
 29 27  1  0  0  0  0
 31 34  2  0  0  0  0
 32 31  1  0  0  0  0
 32 35  2  0  0  0  0
 34 33  1  0  0  0  0
 34 30  1  0  0  0  0
 35 33  1  0  0  0  0
M  END
>  <MODEL>
4

>  <REMARK>
 VINA RESULT:      -6.9      5.549      8.938
  Name = 
  12 active torsions:
  status: ('A' for Active; 'I' for Inactive)
    1  A    between atoms: C_5  and  C_17
    2  A    between atoms: C_9  and  C_23
    3  A    between atoms: C_11  and  N_19
    4  A    between atoms: N_13  and  C_15
    5  A    between atoms: C_14  and  C_29
    6  A    between atoms: C_15  and  C_34
    7  A    between atoms: N_19  and  N_28
    8  A    between atoms: N_19  and  C_33
    9  A    between atoms: N_28  and  C_34
   10  A    between atoms: C_29  and  C_31
   11  A    between atoms: C_32  and  C_33
   12  A    between atoms: C_32  and  C_35
                            x       y       z     vdW  Elec       q    Type
                         _______ _______ _______ _____ _____    ______ ____

>  <TORSDO>
F 12

$$$$
=
 OpenBabel11052410433D

 35 40  0  0  1  0  0  0  0  0999 V2000
  160.8940  204.5620  151.2610 N   0  0  0  0  0  0  0  0  0  0  0  0
  161.0100  201.1940  149.7670 C   0  0  2  0  0  3  0  0  0  0  0  0
  160.8360  203.5160  149.0310 C   0  0  0  0  0  2  0  0  0  0  0  0
  161.4610  203.5000  150.4150 C   0  0  2  0  0  3  0  0  0  0  0  0
  159.6410  201.3380  149.1350 C   0  0  0  0  0  2  0  0  0  0  0  0
  161.1350  202.1220  150.9620 C   0  0  0  0  0  2  0  0  0  0  0  0
  160.8240  202.0790  148.5430 C   0  0  2  0  0  3  0  0  0  0  0  0
  161.7150  204.7280  152.3900 N   0  0  0  0  0  2  0  0  0  0  0  0
  160.8800  205.2890  153.4410 C   0  0  0  0  0  2  0  0  0  0  0  0
  161.5770  206.4830  154.0750 C   0  0  0  0  0  2  0  0  0  0  0  0
  160.8540  208.8150  154.7680 C   0  0  0  0  0  0  0  0  0  0  0  0
  160.7880  207.6940  153.8820 N   0  0  0  0  0  2  0  0  0  0  0  0
  161.5610  208.7570  155.8100 O   0  0  0  0  0  0  0  0  0  0  0  0
  159.8570  210.5740  152.7630 S   0  0  0  0  0  0  0  0  0  0  0  0
  158.9220  212.3880  154.8760 S   0  0  0  0  0  0  0  0  0  0  0  0
  159.8780  212.3050  153.3320 C   0  0  2  0  0  3  0  0  0  0  0  0
  159.7260  210.8860  155.4050 C   0  0  0  0  0  3  0  0  0  0  0  0
  160.1210  210.0500  154.4540 C   0  0  0  0  0  0  0  0  0  0  0  0
  157.3830  214.3690  151.1990 C   0  0  0  0  0  2  0  0  0  0  0  0
  159.3540  213.2860  152.2830 C   0  0  2  0  0  3  0  0  0  0  0  0
  157.8230  213.3280  152.2250 C   0  0  0  0  0  2  0  0  0  0  0  0
  159.5580  214.0240  150.0310 C   0  0  0  0  0  2  0  0  0  0  0  0
  158.0430  214.0920  149.8520 C   0  0  0  0  0  2  0  0  0  0  0  0
  159.9050  212.9570  150.9680 N   0  0  0  0  0  2  0  0  0  0  0  0
  160.8500  205.8430  150.5360 C   0  0  0  0  0  2  0  0  0  0  0  0
  162.2110  206.5370  150.4260 C   0  0  0  0  0  2  0  0  0  0  0  0
  160.9430  207.7440  148.6560 C   0  0  0  0  0  2  0  0  0  0  0  0
  162.3660  207.7030  148.1300 C   0  0  1  0  0  3  0  0  0  0  0  0
  162.0960  207.8380  149.6340 C   0  0  2  0  0  3  0  0  0  0  0  0
  162.6860  206.2870  147.6590 C   0  0  0  0  0  2  0  0  0  0  0  0
  160.6220  206.2030  146.1580 C   0  0  0  0  0  3  0  0  0  0  0  0
  160.3810  205.8290  144.8850 N   0  0  0  0  0  0  0  0  0  0  0  0
  162.5200  205.5240  145.3080 O   0  0  0  0  0  0  0  0  0  0  0  0
  161.9610  205.9960  146.3920 C   0  0  0  0  0  0  0  0  0  0  0  0
  161.5750  205.4200  144.4020 C   0  0  0  0  0  3  0  0  0  0  0  0
  1  8  1  0  0  0  0
  2  5  1  1  0  0  0
  2  6  1  0  0  0  0
  3  4  1  0  0  0  0
  4  6  1  0  0  0  0
  4  1  1  1  0  0  0
  7  3  1  1  0  0  0
  7  5  1  0  0  0  0
  7  2  1  0  0  0  0
  8  9  1  0  0  0  0
  9 10  1  0  0  0  0
 11 13  2  0  0  0  0
 12 10  1  0  0  0  0
 12 11  1  0  0  0  0
 14 18  1  0  0  0  0
 15 17  1  0  0  0  0
 16 14  1  6  0  0  0
 16 15  1  0  0  0  0
 18 11  1  0  0  0  0
 18 17  2  0  0  0  0
 19 21  1  0  0  0  0
 20 21  1  6  0  0  0
 20 16  1  0  0  0  0
 22 24  1  0  0  0  0
 23 22  1  0  0  0  0
 23 19  1  0  0  0  0
 24 20  1  0  0  0  0
 25  1  1  0  0  0  0
 26 25  1  0  0  0  0
 27 29  1  0  0  0  0
 28 30  1  1  0  0  0
 28 27  1  0  0  0  0
 28 29  1  0  0  0  0
 29 26  1  1  0  0  0
 31 34  2  0  0  0  0
 32 31  1  0  0  0  0
 33 34  1  0  0  0  0
 34 30  1  0  0  0  0
 35 32  2  0  0  0  0
 35 33  1  0  0  0  0
M  END
>  <MODEL>
5

>  <REMARK>
 VINA RESULT:      -6.8      5.528      8.220
  Name = 
  12 active torsions:
  status: ('A' for Active; 'I' for Inactive)
    1  A    between atoms: C_5  and  C_17
    2  A    between atoms: C_9  and  C_23
    3  A    between atoms: C_11  and  N_19
    4  A    between atoms: N_13  and  C_15
    5  A    between atoms: C_14  and  C_29
    6  A    between atoms: C_15  and  C_34
    7  A    between atoms: N_19  and  N_28
    8  A    between atoms: N_19  and  C_33
    9  A    between atoms: N_28  and  C_34
   10  A    between atoms: C_29  and  C_31
   11  A    between atoms: C_32  and  C_33
   12  A    between atoms: C_32  and  C_35
                            x       y       z     vdW  Elec       q    Type
                         _______ _______ _______ _____ _____    ______ ____

>  <TORSDO>
F 12

$$$$
=
 OpenBabel11052410433D

 35 40  0  0  1  0  0  0  0  0999 V2000
  159.3850  212.4440  154.4930 N   0  0  0  0  0  0  0  0  0  0  0  0
  156.6100  213.0470  156.8440 C   0  0  2  0  0  3  0  0  0  0  0  0
  157.2730  211.3820  155.1830 C   0  0  0  0  0  2  0  0  0  0  0  0
  158.5170  212.1240  155.6370 C   0  0  2  0  0  3  0  0  0  0  0  0
  155.5790  213.1180  155.7350 C   0  0  0  0  0  2  0  0  0  0  0  0
  157.9870  213.3840  156.2990 C   0  0  0  0  0  2  0  0  0  0  0  0
  156.1590  211.7760  156.1380 C   0  0  2  0  0  3  0  0  0  0  0  0
  159.5370  211.2900  153.7040 N   0  0  0  0  0  2  0  0  0  0  0  0
  160.9210  210.8640  153.8400 C   0  0  0  0  0  2  0  0  0  0  0  0
  160.9770  209.4500  154.3950 C   0  0  0  0  0  2  0  0  0  0  0  0
  161.0580  207.0890  153.4680 C   0  0  0  0  0  0  0  0  0  0  0  0
  161.2700  208.4970  153.3310 N   0  0  0  0  0  2  0  0  0  0  0  0
  160.6710  206.6110  154.5690 O   0  0  0  0  0  0  0  0  0  0  0  0
  161.5450  206.8410  150.6730 S   0  0  0  0  0  0  0  0  0  0  0  0
  161.3260  203.9230  150.9340 S   0  0  0  0  0  0  0  0  0  0  0  0
  160.7340  205.3590  149.9890 C   0  0  2  0  0  3  0  0  0  0  0  0
  161.1320  204.8800  152.4280 C   0  0  0  0  0  3  0  0  0  0  0  0
  161.2630  206.1950  152.3190 C   0  0  0  0  0  0  0  0  0  0  0  0
  161.6310  203.6860  146.6080 C   0  0  0  0  0  2  0  0  0  0  0  0
  160.9660  205.1890  148.4880 C   0  0  2  0  0  3  0  0  0  0  0  0
  161.4800  203.7910  148.1230 C   0  0  0  0  0  2  0  0  0  0  0  0
  161.9340  206.1590  146.5440 C   0  0  0  0  0  2  0  0  0  0  0  0
  162.5060  204.8200  146.0860 C   0  0  0  0  0  2  0  0  0  0  0  0
  161.8910  206.2140  148.0040 N   0  0  0  0  0  2  0  0  0  0  0  0
  158.7830  213.4940  153.6540 C   0  0  0  0  0  2  0  0  0  0  0  0
  158.5030  213.0500  152.2160 C   0  0  0  0  0  2  0  0  0  0  0  0
  158.0300  213.8010  149.8910 C   0  0  0  0  0  2  0  0  0  0  0  0
  159.4610  214.2420  150.1380 C   0  0  1  0  0  3  0  0  0  0  0  0
  158.4350  214.2540  151.2780 C   0  0  2  0  0  3  0  0  0  0  0  0
  160.3740  213.0200  150.1080 C   0  0  0  0  0  2  0  0  0  0  0  0
  161.3170  214.0970  147.9930 C   0  0  0  0  0  3  0  0  0  0  0  0
  162.3140  213.8030  147.1350 N   0  0  0  0  0  0  0  0  0  0  0  0
  162.2480  212.2410  148.6860 O   0  0  0  0  0  0  0  0  0  0  0  0
  161.2980  213.1030  148.9440 C   0  0  0  0  0  0  0  0  0  0  0  0
  162.8580  212.6560  147.5990 C   0  0  0  0  0  3  0  0  0  0  0  0
  2  5  1  6  0  0  0
  3  4  1  0  0  0  0
  4  1  1  6  0  0  0
  4  6  1  0  0  0  0
  5  7  1  0  0  0  0
  6  2  1  0  0  0  0
  7  3  1  6  0  0  0
  7  2  1  0  0  0  0
  8  9  1  0  0  0  0
  8  1  1  0  0  0  0
  9 10  1  0  0  0  0
 11 13  2  0  0  0  0
 12 11  1  0  0  0  0
 12 10  1  0  0  0  0
 14 18  1  0  0  0  0
 15 17  1  0  0  0  0
 16 14  1  1  0  0  0
 16 15  1  0  0  0  0
 18 17  2  0  0  0  0
 18 11  1  0  0  0  0
 19 21  1  0  0  0  0
 20 21  1  1  0  0  0
 20 16  1  0  0  0  0
 22 24  1  0  0  0  0
 23 22  1  0  0  0  0
 23 19  1  0  0  0  0
 24 20  1  0  0  0  0
 25  1  1  0  0  0  0
 26 25  1  0  0  0  0
 27 28  1  0  0  0  0
 27 29  1  0  0  0  0
 28 30  1  1  0  0  0
 28 29  1  0  0  0  0
 29 26  1  1  0  0  0
 31 34  2  0  0  0  0
 32 35  2  0  0  0  0
 32 31  1  0  0  0  0
 33 34  1  0  0  0  0
 34 30  1  0  0  0  0
 35 33  1  0  0  0  0
M  END
>  <MODEL>
6

>  <REMARK>
 VINA RESULT:      -6.8      4.803      9.703
  Name = 
  12 active torsions:
  status: ('A' for Active; 'I' for Inactive)
    1  A    between atoms: C_5  and  C_17
    2  A    between atoms: C_9  and  C_23
    3  A    between atoms: C_11  and  N_19
    4  A    between atoms: N_13  and  C_15
    5  A    between atoms: C_14  and  C_29
    6  A    between atoms: C_15  and  C_34
    7  A    between atoms: N_19  and  N_28
    8  A    between atoms: N_19  and  C_33
    9  A    between atoms: N_28  and  C_34
   10  A    between atoms: C_29  and  C_31
   11  A    between atoms: C_32  and  C_33
   12  A    between atoms: C_32  and  C_35
                            x       y       z     vdW  Elec       q    Type
                         _______ _______ _______ _____ _____    ______ ____

>  <TORSDO>
F 12

$$$$
=
 OpenBabel11052410433D

 35 40  0  0  1  0  0  0  0  0999 V2000
  160.7510  204.8610  150.8460 N   0  0  0  0  0  0  0  0  0  0  0  0
  160.9320  201.2870  149.9620 C   0  0  2  0  0  3  0  0  0  0  0  0
  161.0140  203.4550  148.8400 C   0  0  0  0  0  2  0  0  0  0  0  0
  161.3940  203.6570  150.2970 C   0  0  2  0  0  3  0  0  0  0  0  0
  159.6990  201.3580  149.0830 C   0  0  0  0  0  2  0  0  0  0  0  0
  160.9040  202.4000  150.9940 C   0  0  0  0  0  2  0  0  0  0  0  0
  161.0050  201.9560  148.5970 C   0  0  2  0  0  3  0  0  0  0  0  0
  160.7660  204.7820  152.2500 N   0  0  0  0  0  2  0  0  0  0  0  0
  161.7380  205.7580  152.7170 C   0  0  0  0  0  2  0  0  0  0  0  0
  161.2860  206.3450  154.0460 C   0  0  0  0  0  2  0  0  0  0  0  0
  160.8430  208.7470  154.7320 C   0  0  0  0  0  0  0  0  0  0  0  0
  160.6580  207.6450  153.8390 N   0  0  0  0  0  2  0  0  0  0  0  0
  161.5130  208.6000  155.7900 O   0  0  0  0  0  0  0  0  0  0  0  0
  159.1770  210.9120  155.5360 S   0  0  0  0  0  0  0  0  0  0  0  0
  159.6470  212.1890  152.9330 S   0  0  0  0  0  0  0  0  0  0  0  0
  158.3530  211.6800  154.1030 C   0  0  2  0  0  3  0  0  0  0  0  0
  160.4620  210.6280  153.2200 C   0  0  0  0  0  3  0  0  0  0  0  0
  160.2770  210.0650  154.4070 C   0  0  0  0  0  0  0  0  0  0  0  0
  156.6930  214.4500  156.2500 C   0  0  0  0  0  2  0  0  0  0  0  0
  157.4430  212.8460  154.4900 C   0  0  2  0  0  3  0  0  0  0  0  0
  157.5880  213.2480  155.9620 C   0  0  0  0  0  2  0  0  0  0  0  0
  155.2320  213.7140  154.3690 C   0  0  0  0  0  2  0  0  0  0  0  0
  155.2580  214.1490  155.8330 C   0  0  0  0  0  2  0  0  0  0  0  0
  156.0500  212.5160  154.1870 N   0  0  0  0  0  2  0  0  0  0  0  0
  161.4850  206.0750  150.4490 C   0  0  0  0  0  2  0  0  0  0  0  0
  160.6360  207.0800  149.6660 C   0  0  0  0  0  2  0  0  0  0  0  0
  162.7080  207.3660  148.3160 C   0  0  0  0  0  2  0  0  0  0  0  0
  161.9100  208.6280  148.0410 C   0  0  1  0  0  3  0  0  0  0  0  0
  161.1970  207.2870  148.2600 C   0  0  2  0  0  3  0  0  0  0  0  0
  161.9670  209.5330  149.2680 C   0  0  0  0  0  2  0  0  0  0  0  0
  161.2230  211.9740  149.3710 C   0  0  0  0  0  3  0  0  0  0  0  0
  161.5680  213.1060  148.7250 N   0  0  0  0  0  0  0  0  0  0  0  0
  162.7800  211.4500  147.9260 O   0  0  0  0  0  0  0  0  0  0  0  0
  161.9900  210.9600  148.8470 C   0  0  0  0  0  0  0  0  0  0  0  0
  162.5280  212.7370  147.8480 C   0  0  0  0  0  3  0  0  0  0  0  0
  1  8  1  0  0  0  0
  2  5  1  6  0  0  0
  2  6  1  0  0  0  0
  3  4  1  0  0  0  0
  4  1  1  1  0  0  0
  4  6  1  0  0  0  0
  7  3  1  1  0  0  0
  7  5  1  0  0  0  0
  7  2  1  0  0  0  0
  8  9  1  0  0  0  0
  9 10  1  0  0  0  0
 11 13  2  0  0  0  0
 12 10  1  0  0  0  0
 12 11  1  0  0  0  0
 15 17  1  0  0  0  0
 16 15  1  6  0  0  0
 16 20  1  0  0  0  0
 16 14  1  0  0  0  0
 17 18  2  0  0  0  0
 18 11  1  0  0  0  0
 18 14  1  0  0  0  0
 20 21  1  1  0  0  0
 21 19  1  0  0  0  0
 22 23  1  0  0  0  0
 23 19  1  0  0  0  0
 24 22  1  0  0  0  0
 24 20  1  0  0  0  0
 25  1  1  0  0  0  0
 26 25  1  0  0  0  0
 28 29  1  0  0  0  0
 28 27  1  0  0  0  0
 28 30  1  1  0  0  0
 29 27  1  0  0  0  0
 29 26  1  1  0  0  0
 32 31  1  0  0  0  0
 33 34  1  0  0  0  0
 34 30  1  0  0  0  0
 34 31  2  0  0  0  0
 35 33  1  0  0  0  0
 35 32  2  0  0  0  0
M  END
>  <MODEL>
7

>  <REMARK>
 VINA RESULT:      -6.7      4.975     10.089
  Name = 
  12 active torsions:
  status: ('A' for Active; 'I' for Inactive)
    1  A    between atoms: C_5  and  C_17
    2  A    between atoms: C_9  and  C_23
    3  A    between atoms: C_11  and  N_19
    4  A    between atoms: N_13  and  C_15
    5  A    between atoms: C_14  and  C_29
    6  A    between atoms: C_15  and  C_34
    7  A    between atoms: N_19  and  N_28
    8  A    between atoms: N_19  and  C_33
    9  A    between atoms: N_28  and  C_34
   10  A    between atoms: C_29  and  C_31
   11  A    between atoms: C_32  and  C_33
   12  A    between atoms: C_32  and  C_35
                            x       y       z     vdW  Elec       q    Type
                         _______ _______ _______ _____ _____    ______ ____

>  <TORSDO>
F 12

$$$$
=
 OpenBabel11052410433D

 35 40  0  0  1  0  0  0  0  0999 V2000
  161.8390  206.2370  148.1030 N   0  0  0  0  0  0  0  0  0  0  0  0
  162.1220  204.7560  144.7390 C   0  0  2  0  0  3  0  0  0  0  0  0
  160.5870  206.1930  145.9820 C   0  0  0  0  0  2  0  0  0  0  0  0
  161.9540  206.2770  146.6370 C   0  0  2  0  0  3  0  0  0  0  0  0
  160.8310  203.9740  144.8860 C   0  0  0  0  0  2  0  0  0  0  0  0
  162.7030  205.0670  146.1070 C   0  0  0  0  0  2  0  0  0  0  0  0
  160.7810  205.4730  144.6600 C   0  0  2  0  0  3  0  0  0  0  0  0
  161.4270  207.5020  148.5590 N   0  0  0  0  0  2  0  0  0  0  0  0
  162.6200  208.3300  148.6440 C   0  0  0  0  0  2  0  0  0  0  0  0
  162.2370  209.7550  149.0120 C   0  0  0  0  0  2  0  0  0  0  0  0
  161.2070  210.9770  150.9830 C   0  0  0  0  0  0  0  0  0  0  0  0
  161.8400  209.8280  150.4130 N   0  0  0  0  0  2  0  0  0  0  0  0
  161.0370  212.0160  150.2880 O   0  0  0  0  0  0  0  0  0  0  0  0
  159.0410  211.3830  152.7870 S   0  0  0  0  0  0  0  0  0  0  0  0
  160.8450  210.7790  155.0250 S   0  0  0  0  0  0  0  0  0  0  0  0
  159.6310  211.9810  154.4050 C   0  0  2  0  0  3  0  0  0  0  0  0
  161.5460  210.7040  153.3860 C   0  0  0  0  0  3  0  0  0  0  0  0
  160.7260  210.9450  152.3720 C   0  0  0  0  0  0  0  0  0  0  0  0
  156.1650  211.6950  156.1180 C   0  0  0  0  0  2  0  0  0  0  0  0
  158.5000  212.2170  155.4050 C   0  0  2  0  0  3  0  0  0  0  0  0
  157.2210  211.4520  155.0440 C   0  0  0  0  0  2  0  0  0  0  0  0
  157.2890  213.8610  156.6240 C   0  0  0  0  0  2  0  0  0  0  0  0
  155.9510  213.1910  156.3180 C   0  0  0  0  0  2  0  0  0  0  0  0
  158.2210  213.6490  155.5190 N   0  0  0  0  0  2  0  0  0  0  0  0
  160.8310  205.2490  148.5240 C   0  0  0  0  0  2  0  0  0  0  0  0
  161.4230  203.8920  148.9140 C   0  0  0  0  0  2  0  0  0  0  0  0
  159.7970  204.1410  150.7820 C   0  0  0  0  0  2  0  0  0  0  0  0
  160.8860  203.2530  151.3560 C   0  0  1  0  0  3  0  0  0  0  0  0
  160.4960  203.1500  149.8750 C   0  0  2  0  0  3  0  0  0  0  0  0
  162.1260  204.0980  151.6360 C   0  0  0  0  0  2  0  0  0  0  0  0
  161.8720  206.6200  151.9510 C   0  0  0  0  0  3  0  0  0  0  0  0
  161.3950  207.4170  152.9270 N   0  0  0  0  0  0  0  0  0  0  0  0
  161.2060  205.3240  153.5830 O   0  0  0  0  0  0  0  0  0  0  0  0
  161.7460  205.3230  152.3910 C   0  0  0  0  0  0  0  0  0  0  0  0
  160.9970  206.5790  153.9090 C   0  0  0  0  0  3  0  0  0  0  0  0
  1 25  1  0  0  0  0
  1  8  1  0  0  0  0
  2  5  1  1  0  0  0
  2  6  1  0  0  0  0
  3  4  1  0  0  0  0
  4  1  1  1  0  0  0
  6  4  1  0  0  0  0
  7  2  1  0  0  0  0
  7  5  1  1  0  0  0
  7  3  1  0  0  0  0
  8  9  1  0  0  0  0
  9 10  1  0  0  0  0
 10 12  1  0  0  0  0
 11 18  1  0  0  0  0
 12 11  1  0  0  0  0
 13 11  2  0  0  0  0
 16 14  1  6  0  0  0
 16 15  1  0  0  0  0
 16 20  1  0  0  0  0
 17 15  1  0  0  0  0
 18 14  1  0  0  0  0
 18 17  2  0  0  0  0
 19 23  1  0  0  0  0
 20 21  1  6  0  0  0
 20 24  1  0  0  0  0
 21 19  1  0  0  0  0
 23 22  1  0  0  0  0
 24 22  1  0  0  0  0
 25 26  1  0  0  0  0
 27 28  1  0  0  0  0
 28 30  1  6  0  0  0
 29 26  1  6  0  0  0
 29 27  1  0  0  0  0
 29 28  1  0  0  0  0
 30 34  1  0  0  0  0
 31 34  2  0  0  0  0
 31 32  1  0  0  0  0
 32 35  2  0  0  0  0
 33 35  1  0  0  0  0
 34 33  1  0  0  0  0
M  END
>  <MODEL>
8

>  <REMARK>
 VINA RESULT:      -6.7      5.377      9.282
  Name = 
  12 active torsions:
  status: ('A' for Active; 'I' for Inactive)
    1  A    between atoms: C_5  and  C_17
    2  A    between atoms: C_9  and  C_23
    3  A    between atoms: C_11  and  N_19
    4  A    between atoms: N_13  and  C_15
    5  A    between atoms: C_14  and  C_29
    6  A    between atoms: C_15  and  C_34
    7  A    between atoms: N_19  and  N_28
    8  A    between atoms: N_19  and  C_33
    9  A    between atoms: N_28  and  C_34
   10  A    between atoms: C_29  and  C_31
   11  A    between atoms: C_32  and  C_33
   12  A    between atoms: C_32  and  C_35
                            x       y       z     vdW  Elec       q    Type
                         _______ _______ _______ _____ _____    ______ ____

>  <TORSDO>
F 12

$$$$
=
 OpenBabel11052410433D

 35 40  0  0  1  0  0  0  0  0999 V2000
  159.7420  211.1140  154.1330 N   0  0  0  0  0  0  0  0  0  0  0  0
  157.2160  213.6310  155.0650 C   0  0  2  0  0  3  0  0  0  0  0  0
  159.5000  213.0170  155.6770 C   0  0  0  0  0  2  0  0  0  0  0  0
  159.2180  212.4790  154.2850 C   0  0  2  0  0  3  0  0  0  0  0  0
  157.1590  213.1590  156.5040 C   0  0  0  0  0  2  0  0  0  0  0  0
  157.7050  212.5090  154.1660 C   0  0  0  0  0  2  0  0  0  0  0  0
  158.3560  213.9540  156.0210 C   0  0  2  0  0  3  0  0  0  0  0  0
  160.9340  211.1660  153.3890 N   0  0  0  0  0  2  0  0  0  0  0  0
  160.6730  210.4970  152.1240 C   0  0  0  0  0  2  0  0  0  0  0  0
  161.9710  209.9580  151.5440 C   0  0  0  0  0  2  0  0  0  0  0  0
  161.7580  208.7990  149.2970 C   0  0  0  0  0  0  0  0  0  0  0  0
  161.7120  208.7790  150.7270 N   0  0  0  0  0  2  0  0  0  0  0  0
  161.9580  209.8830  148.6850 O   0  0  0  0  0  0  0  0  0  0  0  0
  160.5290  206.2370  149.1070 S   0  0  0  0  0  0  0  0  0  0  0  0
  162.0960  205.7090  146.6790 S   0  0  0  0  0  0  0  0  0  0  0  0
  161.6340  205.0310  148.3020 C   0  0  2  0  0  3  0  0  0  0  0  0
  162.3310  207.2980  147.4570 C   0  0  0  0  0  3  0  0  0  0  0  0
  161.6010  207.5510  148.5350 C   0  0  0  0  0  0  0  0  0  0  0  0
  160.5020  201.4520  149.2730 C   0  0  0  0  0  2  0  0  0  0  0  0
  161.0150  203.6390  148.1820 C   0  0  2  0  0  3  0  0  0  0  0  0
  161.1940  202.8000  149.4530 C   0  0  0  0  0  2  0  0  0  0  0  0
  160.8240  201.7030  146.8140 C   0  0  0  0  0  2  0  0  0  0  0  0
  161.0050  200.7670  148.0070 C   0  0  0  0  0  2  0  0  0  0  0  0
  161.5760  202.9380  147.0270 N   0  0  0  0  0  2  0  0  0  0  0  0
  160.0500  210.5200  155.4450 C   0  0  0  0  0  2  0  0  0  0  0  0
  159.3040  209.2110  155.7200 C   0  0  0  0  0  2  0  0  0  0  0  0
  161.6510  208.5420  156.2060 C   0  0  0  0  0  2  0  0  0  0  0  0
  161.0370  207.3050  155.5750 C   0  0  1  0  0  3  0  0  0  0  0  0
  160.1950  208.2230  156.4710 C   0  0  2  0  0  3  0  0  0  0  0  0
  160.8680  207.5380  154.0770 C   0  0  0  0  0  2  0  0  0  0  0  0
  162.2770  206.1620  152.4520 C   0  0  0  0  0  3  0  0  0  0  0  0
  162.2550  204.8880  152.0110 N   0  0  0  0  0  0  0  0  0  0  0  0
  160.5910  205.1640  153.4250 O   0  0  0  0  0  0  0  0  0  0  0  0
  161.2250  206.3040  153.3260 C   0  0  0  0  0  0  0  0  0  0  0  0
  161.2040  204.3130  152.6350 C   0  0  0  0  0  3  0  0  0  0  0  0
  1 25  1  0  0  0  0
  2  6  1  6  0  0  0
  2  7  1  0  0  0  0
  2  5  1  0  0  0  0
  4  1  1  1  0  0  0
  4  3  1  0  0  0  0
  6  4  1  0  0  0  0
  7  3  1  6  0  0  0
  7  5  1  0  0  0  0
  8  1  1  0  0  0  0
  9  8  1  0  0  0  0
 10  9  1  0  0  0  0
 11 12  1  0  0  0  0
 12 10  1  0  0  0  0
 13 11  2  0  0  0  0
 15 17  1  0  0  0  0
 16 15  1  6  0  0  0
 16 14  1  0  0  0  0
 17 18  2  0  0  0  0
 18 14  1  0  0  0  0
 18 11  1  0  0  0  0
 19 21  1  0  0  0  0
 20 16  1  0  0  0  0
 20 21  1  1  0  0  0
 22 24  1  0  0  0  0
 22 23  1  0  0  0  0
 23 19  1  0  0  0  0
 24 20  1  0  0  0  0
 25 26  1  0  0  0  0
 27 29  1  0  0  0  0
 28 30  1  6  0  0  0
 28 27  1  0  0  0  0
 28 29  1  0  0  0  0
 29 26  1  6  0  0  0
 31 34  2  0  0  0  0
 32 31  1  0  0  0  0
 32 35  2  0  0  0  0
 34 33  1  0  0  0  0
 34 30  1  0  0  0  0
 35 33  1  0  0  0  0
M  END
>  <MODEL>
9

>  <REMARK>
 VINA RESULT:      -6.7      5.474      8.609
  Name = 
  12 active torsions:
  status: ('A' for Active; 'I' for Inactive)
    1  A    between atoms: C_5  and  C_17
    2  A    between atoms: C_9  and  C_23
    3  A    between atoms: C_11  and  N_19
    4  A    between atoms: N_13  and  C_15
    5  A    between atoms: C_14  and  C_29
    6  A    between atoms: C_15  and  C_34
    7  A    between atoms: N_19  and  N_28
    8  A    between atoms: N_19  and  C_33
    9  A    between atoms: N_28  and  C_34
   10  A    between atoms: C_29  and  C_31
   11  A    between atoms: C_32  and  C_33
   12  A    between atoms: C_32  and  C_35
                            x       y       z     vdW  Elec       q    Type
                         _______ _______ _______ _____ _____    ______ ____

>  <TORSDO>
F 12

$$$$
