=
 OpenBabel11052409563D

 29 35  0  0  1  0  0  0  0  0999 V2000
  160.9690  206.9390  152.9220 C   0  0  0  0  0  3  0  0  0  0  0  0
  159.9890  212.1860  152.1280 N   0  0  0  0  0  0  0  0  0  0  0  0
  158.0650  212.9900  153.4230 C   0  0  0  0  0  0  0  0  0  0  0  0
  156.0910  212.6600  154.2700 O   0  0  0  0  0  0  0  0  0  0  0  0
  159.4690  212.5420  153.4550 C   0  0  1  0  0  3  0  0  0  0  0  0
  162.1610  208.4460  150.2760 C   0  0  1  0  0  3  0  0  0  0  0  0
  156.0490  213.7690  153.5410 C   0  0  0  0  0  3  0  0  0  0  0  0
  160.8340  205.8820  151.9550 N   0  0  0  0  0  0  0  0  0  0  0  0
  160.7630  211.1450  151.9910 C   0  0  0  0  0  0  0  0  0  0  0  0
  161.8420  207.8140  152.4450 C   0  0  1  0  0  3  0  0  0  0  0  0
  161.9880  209.6410  151.1260 C   0  0  2  0  0  3  0  0  0  0  0  0
  162.1220  207.4000  151.1050 C   0  0  1  0  0  3  0  0  0  0  0  0
  160.3120  210.2090  154.1810 C   0  0  0  0  0  0  0  0  0  0  0  0
  159.2960  211.2820  154.3020 C   0  0  2  0  0  3  0  0  0  0  0  0
  158.0380  211.0920  154.7400 C   0  0  0  0  0  2  0  0  0  0  0  0
  157.3090  214.0480  152.9790 C   0  0  0  0  0  3  0  0  0  0  0  0
  161.4720  206.1620  150.8860 N   0  0  0  0  0  2  0  0  0  0  0  0
  161.8120  209.2680  152.4360 C   0  0  1  0  0  3  0  0  0  0  0  0
  157.3140  212.2220  154.1960 C   0  0  0  0  0  0  0  0  0  0  0  0
  160.9850  210.2120  153.0090 C   0  0  0  0  0  0  0  0  0  0  0  0
  161.3180  210.7730  150.8150 N   0  0  0  0  0  2  0  0  0  0  0  0
  161.7130  209.2640  156.0360 C   0  0  0  0  0  3  0  0  0  0  0  0
  160.5460  209.2160  155.2580 C   0  0  0  0  0  0  0  0  0  0  0  0
  159.8500  207.2320  156.4840 C   0  0  0  0  0  3  0  0  0  0  0  0
  161.0090  207.3000  157.2610 C   0  0  0  0  0  3  0  0  0  0  0  0
  159.6220  208.1820  155.4850 C   0  0  0  0  0  3  0  0  0  0  0  0
  161.9410  208.3150  157.0350 C   0  0  0  0  0  3  0  0  0  0  0  0
  162.4830  207.3650  148.1060 C   0  0  0  0  0  2  0  0  0  0  0  0
  161.9710  208.3570  148.8210 C   0  0  0  0  0  3  0  0  0  0  0  0
  3  5  1  0  0  0  0
  3 19  2  0  0  0  0
  5  2  1  6  0  0  0
  5 14  1  0  0  0  0
  6 29  1  6  0  0  0
  6 12  1  0  0  0  0
  6 11  1  0  0  0  0
  7  4  1  0  0  0  0
  8  1  2  0  0  0  0
  9  2  2  0  0  0  0
  9 20  1  0  0  0  0
 10  1  1  6  0  0  0
 11 21  1  6  0  0  0
 11 18  1  0  0  0  0
 12 17  1  6  0  0  0
 12 10  1  0  0  0  0
 13 14  1  0  0  0  0
 13 23  1  0  0  0  0
 14 15  1  6  0  0  0
 16  3  1  0  0  0  0
 16  7  2  0  0  0  0
 17  8  1  0  0  0  0
 18 10  1  0  0  0  0
 18 20  1  6  0  0  0
 19  4  1  0  0  0  0
 19 15  1  0  0  0  0
 20 13  2  0  0  0  0
 21  9  1  0  0  0  0
 22 27  1  0  0  0  0
 23 26  1  0  0  0  0
 23 22  2  0  0  0  0
 24 25  1  0  0  0  0
 26 24  2  0  0  0  0
 27 25  2  0  0  0  0
 28 29  2  0  0  0  0
M  END
>  <MODEL>
1

>  <REMARK>
 VINA RESULT:      -7.8      0.000      0.000
  Name = 
  2 active torsions:
  status: ('A' for Active; 'I' for Inactive)
    1  A    between atoms: C_7  and  C_27
    2  A    between atoms: C_11  and  C_18
                            x       y       z     vdW  Elec       q    Type
                         _______ _______ _______ _____ _____    ______ ____

>  <TORSDO>
F 2

$$$$
=
 OpenBabel11052409563D

 29 35  0  0  1  0  0  0  0  0999 V2000
  161.0770  207.2050  153.3100 C   0  0  0  0  0  3  0  0  0  0  0  0
  160.6350  211.8830  150.6560 N   0  0  0  0  0  0  0  0  0  0  0  0
  158.8600  213.3160  151.5640 C   0  0  0  0  0  0  0  0  0  0  0  0
  156.8970  213.5420  152.4670 O   0  0  0  0  0  0  0  0  0  0  0  0
  160.2080  212.7530  151.7610 C   0  0  1  0  0  3  0  0  0  0  0  0
  162.3200  207.5050  150.3000 C   0  0  1  0  0  3  0  0  0  0  0  0
  156.9450  214.3090  151.3840 C   0  0  0  0  0  3  0  0  0  0  0  0
  160.7920  205.8920  152.7950 N   0  0  0  0  0  0  0  0  0  0  0  0
  161.2870  210.7820  150.9110 C   0  0  0  0  0  0  0  0  0  0  0  0
  162.0190  207.7430  152.5500 C   0  0  1  0  0  3  0  0  0  0  0  0
  162.3090  208.9380  150.6560 C   0  0  2  0  0  3  0  0  0  0  0  0
  162.2010  206.8430  151.4540 C   0  0  1  0  0  3  0  0  0  0  0  0
  160.8230  210.7620  153.2890 C   0  0  0  0  0  0  0  0  0  0  0  0
  159.9340  211.9130  153.0080 C   0  0  2  0  0  3  0  0  0  0  0  0
  158.6810  212.0400  153.4820 C   0  0  0  0  0  2  0  0  0  0  0  0
  158.2050  214.2200  150.7620 C   0  0  0  0  0  3  0  0  0  0  0  0
  161.4150  205.6920  151.6990 N   0  0  0  0  0  2  0  0  0  0  0  0
  162.1450  209.0870  152.0110 C   0  0  1  0  0  3  0  0  0  0  0  0
  158.0620  212.9710  152.5610 C   0  0  0  0  0  0  0  0  0  0  0  0
  161.4470  210.2630  152.1990 C   0  0  0  0  0  0  0  0  0  0  0  0
  161.7530  209.9490  149.9520 N   0  0  0  0  0  2  0  0  0  0  0  0
  159.9390  209.5240  155.2850 C   0  0  0  0  0  3  0  0  0  0  0  0
  160.9910  210.2060  154.6550 C   0  0  0  0  0  0  0  0  0  0  0  0
  162.3490  209.8900  156.6500 C   0  0  0  0  0  3  0  0  0  0  0  0
  161.2980  209.2010  157.2610 C   0  0  0  0  0  3  0  0  0  0  0  0
  162.1940  210.3930  155.3550 C   0  0  0  0  0  3  0  0  0  0  0  0
  160.0930  209.0200  156.5790 C   0  0  0  0  0  3  0  0  0  0  0  0
  160.8530  206.8930  148.4420 C   0  0  0  0  0  2  0  0  0  0  0  0
  162.0660  206.9170  148.9780 C   0  0  0  0  0  3  0  0  0  0  0  0
  2  9  2  0  0  0  0
  3  5  1  0  0  0  0
  3 19  2  0  0  0  0
  4 19  1  0  0  0  0
  5  2  1  6  0  0  0
  5 14  1  0  0  0  0
  6 29  1  6  0  0  0
  6 11  1  0  0  0  0
  6 12  1  0  0  0  0
  7  4  1  0  0  0  0
  8  1  2  0  0  0  0
  9 20  1  0  0  0  0
 10  1  1  6  0  0  0
 11 21  1  6  0  0  0
 11 18  1  0  0  0  0
 12 17  1  6  0  0  0
 12 10  1  0  0  0  0
 13 23  1  0  0  0  0
 14 13  1  0  0  0  0
 14 15  1  6  0  0  0
 16  7  2  0  0  0  0
 16  3  1  0  0  0  0
 17  8  1  0  0  0  0
 18 20  1  6  0  0  0
 18 10  1  0  0  0  0
 19 15  1  0  0  0  0
 20 13  2  0  0  0  0
 21  9  1  0  0  0  0
 22 27  1  0  0  0  0
 23 22  2  0  0  0  0
 23 26  1  0  0  0  0
 24 25  1  0  0  0  0
 26 24  2  0  0  0  0
 27 25  2  0  0  0  0
 28 29  2  0  0  0  0
M  END
>  <MODEL>
2

>  <REMARK>
 VINA RESULT:      -6.5      1.260      1.748
  Name = 
  2 active torsions:
  status: ('A' for Active; 'I' for Inactive)
    1  A    between atoms: C_7  and  C_27
    2  A    between atoms: C_11  and  C_18
                            x       y       z     vdW  Elec       q    Type
                         _______ _______ _______ _____ _____    ______ ____

>  <TORSDO>
F 2

$$$$
=
 OpenBabel11052409563D

 29 35  0  0  1  0  0  0  0  0999 V2000
  159.5110  212.8410  150.2230 C   0  0  0  0  0  3  0  0  0  0  0  0
  161.4680  208.1020  151.9060 N   0  0  0  0  0  0  0  0  0  0  0  0
  161.6280  206.4530  150.0950 C   0  0  0  0  0  0  0  0  0  0  0  0
  160.8430  205.5790  148.2670 O   0  0  0  0  0  0  0  0  0  0  0  0
  162.1790  207.6840  150.6900 C   0  0  1  0  0  3  0  0  0  0  0  0
  159.4440  212.0770  153.4020 C   0  0  1  0  0  3  0  0  0  0  0  0
  161.0120  204.6040  149.1530 C   0  0  0  0  0  3  0  0  0  0  0  0
  158.2520  213.4330  150.5920 N   0  0  0  0  0  0  0  0  0  0  0  0
  161.2280  209.3680  152.1160 C   0  0  0  0  0  0  0  0  0  0  0  0
  160.2110  212.6560  151.3330 C   0  0  1  0  0  3  0  0  0  0  0  0
  160.5390  211.1700  153.0010 C   0  0  2  0  0  3  0  0  0  0  0  0
  159.3270  212.9660  152.4120 C   0  0  1  0  0  3  0  0  0  0  0  0
  161.7610  210.0980  149.8670 C   0  0  0  0  0  0  0  0  0  0  0  0
  161.8750  208.6550  149.5500 C   0  0  2  0  0  3  0  0  0  0  0  0
  161.3260  208.0680  148.4710 C   0  0  0  0  0  2  0  0  0  0  0  0
  161.5390  205.1070  150.3580 C   0  0  0  0  0  3  0  0  0  0  0  0
  158.1260  213.4740  151.8610 N   0  0  0  0  0  2  0  0  0  0  0  0
  161.0160  211.5240  151.7630 C   0  0  1  0  0  3  0  0  0  0  0  0
  161.2350  206.6730  148.8510 C   0  0  0  0  0  0  0  0  0  0  0  0
  161.4340  210.3600  151.1520 C   0  0  0  0  0  0  0  0  0  0  0  0
  160.6190  209.8400  153.2280 N   0  0  0  0  0  2  0  0  0  0  0  0
  160.9780  211.4520  147.9050 C   0  0  0  0  0  3  0  0  0  0  0  0
  161.9750  211.1530  148.8460 C   0  0  0  0  0  0  0  0  0  0  0  0
  163.4120  212.8170  147.8030 C   0  0  0  0  0  3  0  0  0  0  0  0
  162.4060  213.1150  146.8810 C   0  0  0  0  0  3  0  0  0  0  0  0
  163.1990  211.8380  148.7780 C   0  0  0  0  0  3  0  0  0  0  0  0
  161.1900  212.4300  146.9310 C   0  0  0  0  0  3  0  0  0  0  0  0
  158.7090  211.6880  155.7020 C   0  0  0  0  0  2  0  0  0  0  0  0
  158.4110  211.8270  154.4170 C   0  0  0  0  0  3  0  0  0  0  0  0
  1  8  2  0  0  0  0
  2  9  2  0  0  0  0
  3 16  1  0  0  0  0
  4 19  1  0  0  0  0
  4  7  1  0  0  0  0
  5  3  1  6  0  0  0
  5  2  1  0  0  0  0
  6 29  1  6  0  0  0
  7 16  2  0  0  0  0
  8 17  1  0  0  0  0
  9 21  1  0  0  0  0
 10  1  1  6  0  0  0
 10 18  1  0  0  0  0
 10 12  1  0  0  0  0
 11 21  1  6  0  0  0
 11  6  1  0  0  0  0
 12 17  1  6  0  0  0
 12  6  1  0  0  0  0
 13 20  2  0  0  0  0
 14 15  1  1  0  0  0
 14 13  1  0  0  0  0
 14  5  1  0  0  0  0
 15 19  1  0  0  0  0
 18 20  1  6  0  0  0
 18 11  1  0  0  0  0
 19  3  2  0  0  0  0
 20  9  1  0  0  0  0
 22 23  1  0  0  0  0
 23 13  1  0  0  0  0
 24 26  1  0  0  0  0
 25 27  1  0  0  0  0
 25 24  2  0  0  0  0
 26 23  2  0  0  0  0
 27 22  2  0  0  0  0
 29 28  2  0  0  0  0
M  END
>  <MODEL>
3

>  <REMARK>
 VINA RESULT:      -6.2      3.105      7.604
  Name = 
  2 active torsions:
  status: ('A' for Active; 'I' for Inactive)
    1  A    between atoms: C_7  and  C_27
    2  A    between atoms: C_11  and  C_18
                            x       y       z     vdW  Elec       q    Type
                         _______ _______ _______ _____ _____    ______ ____

>  <TORSDO>
F 2

$$$$
=
 OpenBabel11052409563D

 29 35  0  0  1  0  0  0  0  0999 V2000
  158.6350  213.7940  148.6410 C   0  0  0  0  0  3  0  0  0  0  0  0
  161.1330  210.4430  152.0540 N   0  0  0  0  0  0  0  0  0  0  0  0
  162.0770  208.4800  150.9230 C   0  0  0  0  0  0  0  0  0  0  0  0
  161.9610  206.9580  149.3760 O   0  0  0  0  0  0  0  0  0  0  0  0
  162.1860  209.9300  151.1670 C   0  0  1  0  0  3  0  0  0  0  0  0
  157.9860  213.9350  151.8430 C   0  0  1  0  0  3  0  0  0  0  0  0
  162.1250  206.3490  150.5450 C   0  0  0  0  0  3  0  0  0  0  0  0
  157.2260  214.0830  148.5940 N   0  0  0  0  0  0  0  0  0  0  0  0
  160.5770  211.5960  151.8020 C   0  0  0  0  0  0  0  0  0  0  0  0
  159.0750  214.1220  149.8470 C   0  0  1  0  0  3  0  0  0  0  0  0
  159.3170  213.3000  151.9360 C   0  0  2  0  0  3  0  0  0  0  0  0
  157.9140  214.4500  150.6140 C   0  0  1  0  0  3  0  0  0  0  0  0
  161.4530  211.8090  149.5530 C   0  0  0  0  0  0  0  0  0  0  0  0
  161.9540  210.4270  149.7410 C   0  0  2  0  0  3  0  0  0  0  0  0
  161.8200  209.4390  148.8370 C   0  0  0  0  0  2  0  0  0  0  0  0
  162.2280  207.2870  151.5890 C   0  0  0  0  0  3  0  0  0  0  0  0
  156.7970  214.4290  149.7450 N   0  0  0  0  0  2  0  0  0  0  0  0
  159.9840  213.4250  150.7420 C   0  0  1  0  0  3  0  0  0  0  0  0
  161.9520  208.2340  149.6290 C   0  0  0  0  0  0  0  0  0  0  0  0
  160.7810  212.3060  150.6150 C   0  0  0  0  0  0  0  0  0  0  0  0
  159.6330  212.1610  152.5900 N   0  0  0  0  0  2  0  0  0  0  0  0
  162.5250  213.6720  148.2560 C   0  0  0  0  0  3  0  0  0  0  0  0
  161.6650  212.5630  148.2920 C   0  0  0  0  0  0  0  0  0  0  0  0
  161.1520  212.9260  145.9410 C   0  0  0  0  0  3  0  0  0  0  0  0
  162.0220  214.0190  145.9150 C   0  0  0  0  0  3  0  0  0  0  0  0
  160.9710  212.2040  147.1240 C   0  0  0  0  0  3  0  0  0  0  0  0
  162.7060  214.3930  147.0740 C   0  0  0  0  0  3  0  0  0  0  0  0
  156.7950  214.0810  153.9740 C   0  0  0  0  0  2  0  0  0  0  0  0
  156.8240  213.6880  152.7080 C   0  0  0  0  0  3  0  0  0  0  0  0
  3 16  1  0  0  0  0
  4 19  1  0  0  0  0
  4  7  1  0  0  0  0
  5  3  1  6  0  0  0
  5  2  1  0  0  0  0
  6 11  1  0  0  0  0
  6 29  1  6  0  0  0
  7 16  2  0  0  0  0
  8  1  2  0  0  0  0
  8 17  1  0  0  0  0
  9  2  2  0  0  0  0
  9 21  1  0  0  0  0
 10  1  1  6  0  0  0
 10 12  1  0  0  0  0
 10 18  1  0  0  0  0
 11 21  1  6  0  0  0
 12 17  1  6  0  0  0
 12  6  1  0  0  0  0
 13 14  1  0  0  0  0
 13 20  2  0  0  0  0
 14 15  1  1  0  0  0
 14  5  1  0  0  0  0
 15 19  1  0  0  0  0
 18 20  1  6  0  0  0
 18 11  1  0  0  0  0
 19  3  2  0  0  0  0
 20  9  1  0  0  0  0
 22 23  1  0  0  0  0
 23 13  1  0  0  0  0
 24 26  1  0  0  0  0
 25 24  2  0  0  0  0
 25 27  1  0  0  0  0
 26 23  2  0  0  0  0
 27 22  2  0  0  0  0
 29 28  2  0  0  0  0
M  END
>  <MODEL>
4

>  <REMARK>
 VINA RESULT:      -6.1      3.596      7.990
  Name = 
  2 active torsions:
  status: ('A' for Active; 'I' for Inactive)
    1  A    between atoms: C_7  and  C_27
    2  A    between atoms: C_11  and  C_18
                            x       y       z     vdW  Elec       q    Type
                         _______ _______ _______ _____ _____    ______ ____

>  <TORSDO>
F 2

$$$$
=
 OpenBabel11052409563D

 29 35  0  0  1  0  0  0  0  0999 V2000
  159.7680  210.7730  152.1990 C   0  0  0  0  0  3  0  0  0  0  0  0
  161.5260  205.8490  153.5370 N   0  0  0  0  0  0  0  0  0  0  0  0
  161.3530  204.2520  151.6820 C   0  0  0  0  0  0  0  0  0  0  0  0
  160.3040  203.4980  149.9350 O   0  0  0  0  0  0  0  0  0  0  0  0
  162.0610  205.4190  152.2390 C   0  0  1  0  0  3  0  0  0  0  0  0
  159.9960  209.9150  155.3460 C   0  0  1  0  0  3  0  0  0  0  0  0
  160.4940  202.4850  150.7730 C   0  0  0  0  0  3  0  0  0  0  0  0
  158.6080  211.4450  152.7220 N   0  0  0  0  0  0  0  0  0  0  0  0
  161.4090  207.1220  153.8020 C   0  0  0  0  0  0  0  0  0  0  0  0
  160.5710  210.5000  153.2170 C   0  0  1  0  0  3  0  0  0  0  0  0
  160.9660  208.9410  154.8030 C   0  0  2  0  0  3  0  0  0  0  0  0
  159.8390  210.8400  154.3970 C   0  0  1  0  0  3  0  0  0  0  0  0
  161.7430  207.8820  151.5260 C   0  0  0  0  0  0  0  0  0  0  0  0
  161.7080  206.4450  151.1630 C   0  0  2  0  0  3  0  0  0  0  0  0
  160.9980  205.9360  150.1400 C   0  0  0  0  0  2  0  0  0  0  0  0
  161.1890  202.9080  151.9210 C   0  0  0  0  0  3  0  0  0  0  0  0
  158.6280  211.4550  153.9980 N   0  0  0  0  0  2  0  0  0  0  0  0
  161.3280  209.2980  153.5270 C   0  0  1  0  0  3  0  0  0  0  0  0
  160.8430  204.5410  150.4960 C   0  0  0  0  0  0  0  0  0  0  0  0
  161.5840  208.1260  152.8450 C   0  0  0  0  0  0  0  0  0  0  0  0
  160.9670  207.6020  154.9870 N   0  0  0  0  0  2  0  0  0  0  0  0
  161.5910  208.7250  149.1670 C   0  0  0  0  0  3  0  0  0  0  0  0
  161.9240  208.9500  150.5120 C   0  0  0  0  0  0  0  0  0  0  0  0
  162.6650  211.1910  149.9190 C   0  0  0  0  0  3  0  0  0  0  0  0
  162.3160  210.9590  148.5860 C   0  0  0  0  0  3  0  0  0  0  0  0
  162.4730  210.1900  150.8760 C   0  0  0  0  0  3  0  0  0  0  0  0
  161.7810  209.7240  148.2100 C   0  0  0  0  0  3  0  0  0  0  0  0
  158.6950  210.7040  157.2600 C   0  0  0  0  0  2  0  0  0  0  0  0
  159.0670  209.7100  156.4660 C   0  0  0  0  0  3  0  0  0  0  0  0
  1  8  2  0  0  0  0
  2  9  2  0  0  0  0
  3 16  1  0  0  0  0
  4 19  1  0  0  0  0
  4  7  1  0  0  0  0
  5  3  1  6  0  0  0
  5  2  1  0  0  0  0
  6 29  1  6  0  0  0
  7 16  2  0  0  0  0
  8 17  1  0  0  0  0
  9 21  1  0  0  0  0
 10  1  1  6  0  0  0
 10 18  1  0  0  0  0
 10 12  1  0  0  0  0
 11 21  1  6  0  0  0
 11  6  1  0  0  0  0
 12 17  1  6  0  0  0
 12  6  1  0  0  0  0
 13 20  2  0  0  0  0
 14 15  1  1  0  0  0
 14 13  1  0  0  0  0
 14  5  1  0  0  0  0
 15 19  1  0  0  0  0
 18 20  1  6  0  0  0
 18 11  1  0  0  0  0
 19  3  2  0  0  0  0
 20  9  1  0  0  0  0
 22 23  1  0  0  0  0
 23 26  2  0  0  0  0
 23 13  1  0  0  0  0
 24 26  1  0  0  0  0
 25 24  2  0  0  0  0
 27 25  1  0  0  0  0
 27 22  2  0  0  0  0
 29 28  2  0  0  0  0
M  END
>  <MODEL>
5

>  <REMARK>
 VINA RESULT:      -5.8      2.928      7.340
  Name = 
  2 active torsions:
  status: ('A' for Active; 'I' for Inactive)
    1  A    between atoms: C_7  and  C_27
    2  A    between atoms: C_11  and  C_18
                            x       y       z     vdW  Elec       q    Type
                         _______ _______ _______ _____ _____    ______ ____

>  <TORSDO>
F 2

$$$$
=
 OpenBabel11052409563D

 29 35  0  0  1  0  0  0  0  0999 V2000
  159.8640  212.2490  150.8750 C   0  0  0  0  0  3  0  0  0  0  0  0
  162.0750  207.3260  150.9380 N   0  0  0  0  0  0  0  0  0  0  0  0
  161.8260  206.1560  148.7950 C   0  0  0  0  0  0  0  0  0  0  0  0
  160.6610  205.7050  147.0170 O   0  0  0  0  0  0  0  0  0  0  0  0
  162.5060  207.2330  149.5360 C   0  0  1  0  0  3  0  0  0  0  0  0
  160.4640  210.7580  153.7240 C   0  0  1  0  0  3  0  0  0  0  0  0
  161.0010  204.5570  147.5910 C   0  0  0  0  0  3  0  0  0  0  0  0
  158.7200  212.6880  151.6290 N   0  0  0  0  0  0  0  0  0  0  0  0
  161.9000  208.4970  151.4870 C   0  0  0  0  0  0  0  0  0  0  0  0
  160.7820  211.8350  151.7370 C   0  0  1  0  0  3  0  0  0  0  0  0
  161.4370  210.0130  152.8990 C   0  0  2  0  0  3  0  0  0  0  0  0
  160.1500  211.8490  153.0200 C   0  0  1  0  0  3  0  0  0  0  0  0
  161.9530  209.7540  149.4160 C   0  0  0  0  0  0  0  0  0  0  0  0
  161.9790  208.4320  148.7480 C   0  0  2  0  0  3  0  0  0  0  0  0
  161.2060  208.0930  147.7000 C   0  0  0  0  0  2  0  0  0  0  0  0
  161.7780  204.7830  148.7420 C   0  0  0  0  0  3  0  0  0  0  0  0
  158.8660  212.4260  152.8680 N   0  0  0  0  0  2  0  0  0  0  0  0
  161.6450  210.6660  151.7090 C   0  0  1  0  0  3  0  0  0  0  0  0
  161.1810  206.6460  147.7480 C   0  0  0  0  0  0  0  0  0  0  0  0
  161.9100  209.6940  150.7650 C   0  0  0  0  0  0  0  0  0  0  0  0
  161.5470  208.6720  152.7810 N   0  0  0  0  0  2  0  0  0  0  0  0
  160.8370  211.4190  147.9050 C   0  0  0  0  0  3  0  0  0  0  0  0
  161.9580  211.0270  148.6530 C   0  0  0  0  0  0  0  0  0  0  0  0
  163.1220  213.0260  147.8960 C   0  0  0  0  0  3  0  0  0  0  0  0
  161.9940  213.4120  147.1670 C   0  0  0  0  0  3  0  0  0  0  0  0
  163.1050  211.8380  148.6320 C   0  0  0  0  0  3  0  0  0  0  0  0
  160.8530  212.6070  147.1700 C   0  0  0  0  0  3  0  0  0  0  0  0
  160.2220  209.5840  155.8550 C   0  0  0  0  0  2  0  0  0  0  0  0
  159.6670  210.2370  154.8430 C   0  0  0  0  0  3  0  0  0  0  0  0
  1  8  2  0  0  0  0
  2  9  2  0  0  0  0
  4  7  1  0  0  0  0
  4 19  1  0  0  0  0
  5  3  1  6  0  0  0
  5  2  1  0  0  0  0
  6 29  1  6  0  0  0
  7 16  2  0  0  0  0
  8 17  1  0  0  0  0
  9 21  1  0  0  0  0
 10  1  1  6  0  0  0
 10 12  1  0  0  0  0
 11 21  1  6  0  0  0
 11  6  1  0  0  0  0
 12 17  1  6  0  0  0
 12  6  1  0  0  0  0
 13 20  2  0  0  0  0
 14 15  1  1  0  0  0
 14 13  1  0  0  0  0
 14  5  1  0  0  0  0
 15 19  1  0  0  0  0
 16  3  1  0  0  0  0
 18 20  1  6  0  0  0
 18 10  1  0  0  0  0
 18 11  1  0  0  0  0
 19  3  2  0  0  0  0
 20  9  1  0  0  0  0
 22 23  1  0  0  0  0
 23 13  1  0  0  0  0
 24 26  1  0  0  0  0
 25 27  1  0  0  0  0
 25 24  2  0  0  0  0
 26 23  2  0  0  0  0
 27 22  2  0  0  0  0
 29 28  2  0  0  0  0
M  END
>  <MODEL>
6

>  <REMARK>
 VINA RESULT:      -5.6      3.102      7.645
  Name = 
  2 active torsions:
  status: ('A' for Active; 'I' for Inactive)
    1  A    between atoms: C_7  and  C_27
    2  A    between atoms: C_11  and  C_18
                            x       y       z     vdW  Elec       q    Type
                         _______ _______ _______ _____ _____    ______ ____

>  <TORSDO>
F 2

$$$$
