=
 OpenBabel11052411563D

 32 37  0  0  1  0  0  0  0  0999 V2000
  161.8870  212.6200  149.6650 C   0  0  0  0  0  3  0  0  0  0  0  0
  161.4420  208.1750  149.8410 C   0  0  0  0  0  0  0  0  0  0  0  0
  162.3280  212.2930  148.3640 C   0  0  0  0  0  0  0  0  0  0  0  0
  162.3710  210.9490  147.9430 C   0  0  0  0  0  3  0  0  0  0  0  0
  161.1810  209.1600  150.7460 N   0  0  0  0  0  0  0  0  0  0  0  0
  161.9140  208.6480  148.6570 N   0  0  0  0  0  0  0  0  0  0  0  0
  161.5180  210.2940  150.1020 C   0  0  0  0  0  0  0  0  0  0  0  0
  161.9510  209.9780  148.8480 C   0  0  0  0  0  0  0  0  0  0  0  0
  161.4710  211.6130  150.5550 C   0  0  0  0  0  3  0  0  0  0  0  0
  161.2830  205.7260  149.1500 C   0  0  0  0  0  0  0  0  0  0  0  0
  161.0460  204.4930  149.8470 C   0  0  0  0  0  0  0  0  0  0  0  0
  161.0670  203.2820  149.1340 C   0  0  0  0  0  0  0  0  0  0  0  0
  160.9110  204.8580  151.1810 C   0  0  0  0  0  0  0  0  0  0  0  0
  160.7670  203.8040  152.5760 Cl  0  0  0  0  0  0  0  0  0  0  0  0
  161.5950  204.5130  147.1290 C   0  0  0  0  0  3  0  0  0  0  0  0
  161.3510  203.3430  147.7980 N   0  0  0  0  0  0  0  0  0  0  0  0
  161.2430  206.7310  150.0930 C   0  0  1  0  0  3  0  0  0  0  0  0
  161.0250  206.2010  151.3190 N   0  0  0  0  0  0  0  0  0  0  0  0
  161.5650  205.7490  147.7910 C   0  0  0  0  0  3  0  0  0  0  0  0
  161.5450  201.4300  150.5460 O   0  0  0  0  0  0  0  0  0  0  0  0
  159.5140  201.3410  149.4390 N   0  0  0  0  0  1  0  0  0  0  0  0
  160.7600  201.9690  149.7250 C   0  0  0  0  0  0  0  0  0  0  0  0
  160.2530  210.4350  153.9960 C   0  0  2  0  0  0  0  0  0  0  0  0
  161.8920  208.8740  153.1090 C   0  0  1  0  0  3  0  0  0  0  0  0
  160.3970  211.8160  154.1350 O   0  0  0  0  0  1  0  0  0  0  0  0
  161.5860  209.7340  154.2540 C   0  0  1  0  0  3  0  0  0  0  0  0
  160.7270  208.9900  152.1310 C   0  0  1  0  0  3  0  0  0  0  0  0
  159.8090  210.1040  152.5870 C   0  0  0  0  0  2  0  0  0  0  0  0
  159.2180  209.9350  154.9850 C   0  0  0  0  0  1  0  0  0  0  0  0
  162.5930  210.1600  153.2670 N   0  0  0  0  0  2  0  0  0  0  0  0
  162.1070  213.2460  146.1660 N   0  0  0  0  0  1  0  0  0  0  0  0
  162.7850  213.3710  147.4450 C   0  0  0  0  0  2  0  0  0  0  0  0
  1  9  1  0  0  0  0
  2  5  1  0  0  0  0
  3  1  2  0  0  0  0
  4  3  1  0  0  0  0
  4  8  2  0  0  0  0
  6  8  1  0  0  0  0
  6  2  2  0  0  0  0
  7  9  2  0  0  0  0
  7  5  1  0  0  0  0
  8  7  1  0  0  0  0
 10 11  2  0  0  0  0
 10 17  1  0  0  0  0
 11 13  1  0  0  0  0
 12 22  1  0  0  0  0
 12 11  1  0  0  0  0
 13 18  2  0  0  0  0
 13 14  1  0  0  0  0
 15 19  2  0  0  0  0
 15 16  1  0  0  0  0
 16 12  2  0  0  0  0
 17  2  1  1  0  0  0
 17 18  1  0  0  0  0
 19 10  1  0  0  0  0
 21 22  1  0  0  0  0
 22 20  2  0  0  0  0
 23 25  1  0  0  0  0
 23 26  1  0  0  0  0
 23 29  1  1  0  0  0
 24 30  1  6  0  0  0
 24 26  1  0  0  0  0
 26 30  1  6  0  0  0
 27  5  1  6  0  0  0
 27 28  1  0  0  0  0
 27 24  1  0  0  0  0
 28 23  1  0  0  0  0
 31 32  1  0  0  0  0
 32  3  1  0  0  0  0
M  END
>  <MODEL>
1

>  <REMARK>
 VINA RESULT:      -6.5      0.000      0.000
  Name = 
  4 active torsions:
  status: ('A' for Active; 'I' for Inactive)
    1  A    between atoms: C_5  and  C_27
    2  A    between atoms: C_6  and  C_26
    3  A    between atoms: C_9  and  C_29
    4  A    between atoms: N_16  and  C_20
                            x       y       z     vdW  Elec       q    Type
                         _______ _______ _______ _____ _____    ______ ____

>  <TORSDO>
F 4

$$$$
=
 OpenBabel11052411563D

 32 37  0  0  1  0  0  0  0  0999 V2000
  161.8720  211.0990  150.4720 C   0  0  0  0  0  3  0  0  0  0  0  0
  161.4060  206.9190  148.9540 C   0  0  0  0  0  0  0  0  0  0  0  0
  162.2340  211.3020  149.1210 C   0  0  0  0  0  0  0  0  0  0  0  0
  162.2410  210.2240  148.2150 C   0  0  0  0  0  3  0  0  0  0  0  0
  161.2070  207.4780  150.1810 N   0  0  0  0  0  0  0  0  0  0  0  0
  161.8100  207.8180  148.0160 N   0  0  0  0  0  0  0  0  0  0  0  0
  161.5130  208.7770  150.0030 C   0  0  0  0  0  0  0  0  0  0  0  0
  161.8680  208.9730  148.7010 C   0  0  0  0  0  0  0  0  0  0  0  0
  161.5030  209.8210  150.9290 C   0  0  0  0  0  3  0  0  0  0  0  0
  161.3990  204.8860  147.4170 C   0  0  0  0  0  0  0  0  0  0  0  0
  161.1040  203.4900  147.5880 C   0  0  0  0  0  0  0  0  0  0  0  0
  161.2470  202.6150  146.4990 C   0  0  0  0  0  0  0  0  0  0  0  0
  160.7870  203.3560  148.9350 C   0  0  0  0  0  0  0  0  0  0  0  0
  160.4890  201.8760  149.8280 Cl  0  0  0  0  0  0  0  0  0  0  0  0
  162.0010  204.4700  145.1540 C   0  0  0  0  0  3  0  0  0  0  0  0
  161.7010  203.1440  145.3220 N   0  0  0  0  0  0  0  0  0  0  0  0
  161.2110  205.4860  148.6430 C   0  0  1  0  0  3  0  0  0  0  0  0
  160.8490  204.5570  149.5590 N   0  0  0  0  0  0  0  0  0  0  0  0
  161.8540  205.3860  146.2050 C   0  0  0  0  0  3  0  0  0  0  0  0
  160.0810  200.6980  145.7110 O   0  0  0  0  0  0  0  0  0  0  0  0
  161.5630  200.3190  147.4480 N   0  0  0  0  0  1  0  0  0  0  0  0
  160.8980  201.1850  146.5340 C   0  0  0  0  0  0  0  0  0  0  0  0
  161.2190  207.0940  153.7730 C   0  0  2  0  0  0  0  0  0  0  0  0
  161.8900  205.7690  151.8490 C   0  0  1  0  0  3  0  0  0  0  0  0
  161.9890  208.0420  154.4500 O   0  0  0  0  0  1  0  0  0  0  0  0
  162.1000  205.9450  153.2870 C   0  0  1  0  0  3  0  0  0  0  0  0
  160.8340  206.7820  151.4180 C   0  0  1  0  0  3  0  0  0  0  0  0
  160.5650  207.7320  152.5660 C   0  0  0  0  0  2  0  0  0  0  0  0
  160.1510  206.5560  154.7040 C   0  0  0  0  0  1  0  0  0  0  0  0
  163.1110  206.4350  152.3330 N   0  0  0  0  0  2  0  0  0  0  0  0
  162.1870  212.8730  147.2990 N   0  0  0  0  0  1  0  0  0  0  0  0
  162.6430  212.6570  148.6610 C   0  0  0  0  0  2  0  0  0  0  0  0
  1  9  1  0  0  0  0
  2  5  1  0  0  0  0
  3  1  2  0  0  0  0
  4  8  2  0  0  0  0
  4  3  1  0  0  0  0
  6  8  1  0  0  0  0
  6  2  2  0  0  0  0
  7  5  1  0  0  0  0
  7  9  2  0  0  0  0
  8  7  1  0  0  0  0
 10 11  2  0  0  0  0
 10 17  1  0  0  0  0
 11 13  1  0  0  0  0
 12 22  1  0  0  0  0
 12 11  1  0  0  0  0
 13 18  2  0  0  0  0
 13 14  1  0  0  0  0
 15 16  1  0  0  0  0
 15 19  2  0  0  0  0
 16 12  2  0  0  0  0
 17  2  1  1  0  0  0
 17 18  1  0  0  0  0
 19 10  1  0  0  0  0
 20 22  2  0  0  0  0
 22 21  1  0  0  0  0
 23 25  1  0  0  0  0
 23 29  1  1  0  0  0
 24 30  1  6  0  0  0
 24 26  1  0  0  0  0
 26 30  1  6  0  0  0
 26 23  1  0  0  0  0
 27  5  1  6  0  0  0
 27 24  1  0  0  0  0
 27 28  1  0  0  0  0
 28 23  1  0  0  0  0
 31 32  1  0  0  0  0
 32  3  1  0  0  0  0
M  END
>  <MODEL>
2

>  <REMARK>
 VINA RESULT:      -6.1      2.156      2.630
  Name = 
  4 active torsions:
  status: ('A' for Active; 'I' for Inactive)
    1  A    between atoms: C_5  and  C_27
    2  A    between atoms: C_6  and  C_26
    3  A    between atoms: C_9  and  C_29
    4  A    between atoms: N_16  and  C_20
                            x       y       z     vdW  Elec       q    Type
                         _______ _______ _______ _____ _____    ______ ____

>  <TORSDO>
F 4

$$$$
=
 OpenBabel11052411563D

 32 37  0  0  1  0  0  0  0  0999 V2000
  161.9270  207.2010  148.1060 C   0  0  0  0  0  3  0  0  0  0  0  0
  161.1530  209.3450  151.9520 C   0  0  0  0  0  0  0  0  0  0  0  0
  161.5330  206.1050  148.9050 C   0  0  0  0  0  0  0  0  0  0  0  0
  161.1820  206.2980  150.2560 C   0  0  0  0  0  3  0  0  0  0  0  0
  161.5520  209.7790  150.7230 N   0  0  0  0  0  0  0  0  0  0  0  0
  160.9390  208.0030  152.0020 N   0  0  0  0  0  0  0  0  0  0  0  0
  161.6010  208.6570  149.9800 C   0  0  0  0  0  0  0  0  0  0  0  0
  161.2270  207.5980  150.7530 C   0  0  0  0  0  0  0  0  0  0  0  0
  161.9630  208.5010  148.6410 C   0  0  0  0  0  3  0  0  0  0  0  0
  159.9260  211.1040  153.3300 C   0  0  0  0  0  0  0  0  0  0  0  0
  160.1500  211.7240  154.6070 C   0  0  1  0  0  3  0  0  0  0  0  0
  159.2180  212.6560  155.0940 C   0  0  0  0  0  0  0  0  0  0  0  0
  161.3080  211.1290  155.0940 C   0  0  0  0  0  0  0  0  0  0  0  0
  162.0320  211.3240  156.6790 Cl  0  0  0  0  0  0  0  0  0  0  0  0
  157.8830  212.3000  153.1180 C   0  0  0  0  0  3  0  0  0  0  0  0
  158.1110  212.9000  154.3280 N   0  0  0  0  0  0  0  0  0  0  0  0
  160.9640  210.2200  153.1300 C   0  0  0  0  0  0  0  0  0  0  0  0
  161.7920  210.2330  154.2010 N   0  0  0  0  0  0  0  0  0  0  0  0
  158.7920  211.3800  152.5790 C   0  0  0  0  0  3  0  0  0  0  0  0
  160.4440  214.0410  156.5890 O   0  0  0  0  0  0  0  0  0  0  0  0
  158.2910  213.5150  157.2560 N   0  0  0  0  0  1  0  0  0  0  0  0
  159.3820  213.4120  156.3470 C   0  0  0  0  0  0  0  0  0  0  0  0
  160.9000  212.9610  149.1440 C   0  0  2  0  0  0  0  0  0  0  0  0
  162.5760  211.2100  148.9700 C   0  0  1  0  0  3  0  0  0  0  0  0
  159.6810  213.0290  148.4670 O   0  0  0  0  0  1  0  0  0  0  0  0
  161.9680  212.3320  148.2520 C   0  0  1  0  0  3  0  0  0  0  0  0
  161.9250  211.1470  150.3480 C   0  0  1  0  0  3  0  0  0  0  0  0
  160.7530  212.1040  150.3830 C   0  0  0  0  0  2  0  0  0  0  0  0
  161.3320  214.3600  149.5420 C   0  0  0  0  0  1  0  0  0  0  0  0
  161.5990  210.9500  147.8990 N   0  0  0  0  0  2  0  0  0  0  0  0
  160.8790  203.8150  149.2510 N   0  0  0  0  0  1  0  0  0  0  0  0
  161.5220  204.7330  148.3270 C   0  0  0  0  0  2  0  0  0  0  0  0
  1  9  2  0  0  0  0
  1  3  1  0  0  0  0
  2  6  2  0  0  0  0
  2 17  1  0  0  0  0
  3  4  2  0  0  0  0
  4  8  1  0  0  0  0
  5  2  1  0  0  0  0
  7  5  1  0  0  0  0
  7  8  2  0  0  0  0
  8  6  1  0  0  0  0
  9  7  1  0  0  0  0
 11 10  1  1  0  0  0
 11 13  1  0  0  0  0
 11 12  1  0  0  0  0
 12 22  1  0  0  0  0
 13 14  1  0  0  0  0
 15 16  1  0  0  0  0
 16 12  2  0  0  0  0
 17 10  2  0  0  0  0
 17 18  1  0  0  0  0
 18 13  2  0  0  0  0
 19 15  2  0  0  0  0
 19 10  1  0  0  0  0
 22 20  2  0  0  0  0
 22 21  1  0  0  0  0
 23 29  1  1  0  0  0
 23 28  1  0  0  0  0
 24 30  1  6  0  0  0
 24 27  1  0  0  0  0
 25 23  1  0  0  0  0
 26 30  1  6  0  0  0
 26 24  1  0  0  0  0
 26 23  1  0  0  0  0
 27 28  1  6  0  0  0
 27  5  1  0  0  0  0
 32  3  1  0  0  0  0
 32 31  1  0  0  0  0
M  END
>  <MODEL>
3

>  <REMARK>
 VINA RESULT:      -5.2      3.065      7.672
  Name = 
  4 active torsions:
  status: ('A' for Active; 'I' for Inactive)
    1  A    between atoms: C_5  and  C_27
    2  A    between atoms: C_6  and  C_26
    3  A    between atoms: C_9  and  C_29
    4  A    between atoms: N_16  and  C_20
                            x       y       z     vdW  Elec       q    Type
                         _______ _______ _______ _____ _____    ______ ____

>  <TORSDO>
F 4

$$$$
=
 OpenBabel11052411563D

 32 37  0  0  1  0  0  0  0  0999 V2000
  161.1050  207.2490  154.7740 C   0  0  0  0  0  3  0  0  0  0  0  0
  161.5030  210.1870  151.4280 C   0  0  0  0  0  0  0  0  0  0  0  0
  160.6880  208.4200  155.4450 C   0  0  0  0  0  0  0  0  0  0  0  0
  160.6510  209.6550  154.7680 C   0  0  0  0  0  3  0  0  0  0  0  0
  161.7220  208.8440  151.5010 N   0  0  0  0  0  0  0  0  0  0  0  0
  161.0670  210.7230  152.6000 N   0  0  0  0  0  0  0  0  0  0  0  0
  161.4220  208.5330  152.7760 C   0  0  0  0  0  0  0  0  0  0  0  0
  161.0250  209.6640  153.4260 C   0  0  0  0  0  0  0  0  0  0  0  0
  161.4780  207.2950  153.4180 C   0  0  0  0  0  3  0  0  0  0  0  0
  160.9570  212.0930  149.8250 C   0  0  0  0  0  0  0  0  0  0  0  0
  161.5270  212.5750  148.5970 C   0  0  0  0  0  0  0  0  0  0  0  0
  160.9780  213.7130  147.9820 C   0  0  0  0  0  0  0  0  0  0  0  0
  162.6150  211.7440  148.3590 C   0  0  0  0  0  0  0  0  0  0  0  0
  163.8310  211.8990  147.1040 Cl  0  0  0  0  0  0  0  0  0  0  0  0
  159.3960  213.8860  149.7940 C   0  0  0  0  0  3  0  0  0  0  0  0
  159.9340  214.3300  148.6160 N   0  0  0  0  0  2  0  0  0  0  0  0
  161.7100  211.0060  150.2130 C   0  0  0  0  0  0  0  0  0  0  0  0
  162.7150  210.8040  149.3280 N   0  0  0  0  0  0  0  0  0  0  0  0
  159.8950  212.7440  150.4360 C   0  0  0  0  0  3  0  0  0  0  0  0
  162.6450  214.4520  146.4560 O   0  0  0  0  0  0  0  0  0  0  0  0
  160.4780  214.4530  145.6420 N   0  0  0  0  0  1  0  0  0  0  0  0
  161.4250  214.2490  146.6860 C   0  0  0  0  0  0  0  0  0  0  0  0
  161.3390  206.7300  148.5970 C   0  0  2  0  0  0  0  0  0  0  0  0
  162.2390  206.5050  150.8440 C   0  0  1  0  0  3  0  0  0  0  0  0
  160.0160  206.5340  148.1990 O   0  0  0  0  0  1  0  0  0  0  0  0
  161.7090  205.7480  149.7080 C   0  0  1  0  0  3  0  0  0  0  0  0
  162.2510  207.9770  150.4430 C   0  0  1  0  0  3  0  0  0  0  0  0
  161.5120  208.1350  149.1310 C   0  0  0  0  0  2  0  0  0  0  0  0
  162.2590  206.5210  147.4100 C   0  0  0  0  0  1  0  0  0  0  0  0
  160.8670  205.9720  150.8960 N   0  0  0  0  0  2  0  0  0  0  0  0
  160.0420  206.9800  157.2610 N   0  0  0  0  0  1  0  0  0  0  0  0
  160.3180  208.3560  156.8850 C   0  0  0  0  0  2  0  0  0  0  0  0
  1  3  1  0  0  0  0
  2  5  1  0  0  0  0
  2  6  2  0  0  0  0
  3 32  1  0  0  0  0
  4  3  2  0  0  0  0
  5  7  1  0  0  0  0
  6  8  1  0  0  0  0
  7  9  1  0  0  0  0
  7  8  2  0  0  0  0
  8  4  1  0  0  0  0
  9  1  2  0  0  0  0
 10 17  2  0  0  0  0
 10 19  1  0  0  0  0
 11 10  1  0  0  0  0
 12 11  2  0  0  0  0
 12 16  1  0  0  0  0
 13 11  1  0  0  0  0
 13 18  2  0  0  0  0
 14 13  1  0  0  0  0
 15 19  2  0  0  0  0
 16 15  1  0  0  0  0
 17  2  1  0  0  0  0
 18 17  1  0  0  0  0
 20 22  2  0  0  0  0
 21 22  1  0  0  0  0
 22 12  1  0  0  0  0
 23 29  1  6  0  0  0
 23 28  1  0  0  0  0
 23 26  1  0  0  0  0
 24 30  1  1  0  0  0
 25 23  1  0  0  0  0
 26 24  1  0  0  0  0
 26 30  1  1  0  0  0
 27 28  1  6  0  0  0
 27 24  1  0  0  0  0
 27  5  1  0  0  0  0
 32 31  1  0  0  0  0
M  END
>  <MODEL>
4

>  <REMARK>
 VINA RESULT:      -5.0      3.165      8.058
  Name = 
  4 active torsions:
  status: ('A' for Active; 'I' for Inactive)
    1  A    between atoms: C_5  and  C_27
    2  A    between atoms: C_6  and  C_26
    3  A    between atoms: C_9  and  C_29
    4  A    between atoms: N_16  and  C_20
                            x       y       z     vdW  Elec       q    Type
                         _______ _______ _______ _____ _____    ______ ____

>  <TORSDO>
F 4

$$$$
=
 OpenBabel11052411563D

 32 37  0  0  1  0  0  0  0  0999 V2000
  160.2920  211.3510  154.1040 C   0  0  0  0  0  3  0  0  0  0  0  0
  160.6290  212.4100  149.7730 C   0  0  0  0  0  0  0  0  0  0  0  0
  159.4800  212.5070  154.0850 C   0  0  0  0  0  0  0  0  0  0  0  0
  159.2830  213.2200  152.8870 C   0  0  0  0  0  3  0  0  0  0  0  0
  161.1460  211.3870  150.5110 N   0  0  0  0  0  0  0  0  0  0  0  0
  159.8530  213.2570  150.5020 N   0  0  0  0  0  0  0  0  0  0  0  0
  160.6820  211.6140  151.7550 C   0  0  0  0  0  0  0  0  0  0  0  0
  159.9030  212.7340  151.7390 C   0  0  0  0  0  0  0  0  0  0  0  0
  160.9050  210.8880  152.9260 C   0  0  0  0  0  3  0  0  0  0  0  0
  159.9110  212.6510  147.3390 C   0  0  0  0  0  0  0  0  0  0  0  0
  160.6030  212.8690  146.0990 C   0  0  0  0  0  0  0  0  0  0  0  0
  159.8640  212.9950  144.9100 C   0  0  0  0  0  0  0  0  0  0  0  0
  161.9430  212.9720  146.4510 C   0  0  0  0  0  0  0  0  0  0  0  0
  163.2960  213.4010  145.4200 Cl  0  0  0  0  0  0  0  0  0  0  0  0
  157.8340  212.7460  146.1870 C   0  0  0  0  0  3  0  0  0  0  0  0
  158.5010  212.9370  145.0070 N   0  0  0  0  0  0  0  0  0  0  0  0
  160.8710  212.6070  148.3270 C   0  0  1  0  0  3  0  0  0  0  0  0
  162.0970  212.8080  147.7870 N   0  0  0  0  0  0  0  0  0  0  0  0
  158.5260  212.5940  147.3970 C   0  0  0  0  0  3  0  0  0  0  0  0
  160.3100  214.1940  142.9050 O   0  0  0  0  0  0  0  0  0  0  0  0
  161.3130  212.1140  143.0670 N   0  0  0  0  0  1  0  0  0  0  0  0
  160.4650  213.1400  143.5740 C   0  0  0  0  0  0  0  0  0  0  0  0
  161.8690  208.1530  149.0750 C   0  0  2  0  0  0  0  0  0  0  0  0
  162.3790  209.3250  151.1420 C   0  0  1  0  0  3  0  0  0  0  0  0
  160.7390  207.3780  148.8060 O   0  0  0  0  0  1  0  0  0  0  0  0
  162.2820  207.9950  150.5380 C   0  0  1  0  0  3  0  0  0  0  0  0
  162.0680  210.3440  150.0500 C   0  0  1  0  0  3  0  0  0  0  0  0
  161.5610  209.6130  148.8250 C   0  0  0  0  0  2  0  0  0  0  0  0
  163.0080  207.7120  148.1760 C   0  0  0  0  0  1  0  0  0  0  0  0
  161.2130  208.4730  151.4320 N   0  0  0  0  0  2  0  0  0  0  0  0
  157.4290  213.1710  155.1530 N   0  0  0  0  0  1  0  0  0  0  0  0
  158.8580  212.9940  155.3470 C   0  0  0  0  0  2  0  0  0  0  0  0
  2  6  2  0  0  0  0
  2  5  1  0  0  0  0
  3  1  1  0  0  0  0
  3 32  1  0  0  0  0
  4  3  2  0  0  0  0
  5  7  1  0  0  0  0
  6  8  1  0  0  0  0
  7  9  1  0  0  0  0
  8  7  2  0  0  0  0
  8  4  1  0  0  0  0
  9  1  2  0  0  0  0
 10 19  1  0  0  0  0
 10 17  1  0  0  0  0
 11 13  1  0  0  0  0
 11 10  2  0  0  0  0
 12 16  2  0  0  0  0
 12 11  1  0  0  0  0
 13 18  2  0  0  0  0
 14 13  1  0  0  0  0
 15 19  2  0  0  0  0
 16 15  1  0  0  0  0
 17  2  1  1  0  0  0
 18 17  1  0  0  0  0
 20 22  2  0  0  0  0
 21 22  1  0  0  0  0
 22 12  1  0  0  0  0
 23 29  1  6  0  0  0
 23 26  1  0  0  0  0
 24 30  1  1  0  0  0
 25 23  1  0  0  0  0
 26 24  1  0  0  0  0
 26 30  1  1  0  0  0
 27 28  1  6  0  0  0
 27  5  1  0  0  0  0
 27 24  1  0  0  0  0
 28 23  1  0  0  0  0
 31 32  1  0  0  0  0
M  END
>  <MODEL>
5

>  <REMARK>
 VINA RESULT:      -4.6      4.160      7.801
  Name = 
  4 active torsions:
  status: ('A' for Active; 'I' for Inactive)
    1  A    between atoms: C_5  and  C_27
    2  A    between atoms: C_6  and  C_26
    3  A    between atoms: C_9  and  C_29
    4  A    between atoms: N_16  and  C_20
                            x       y       z     vdW  Elec       q    Type
                         _______ _______ _______ _____ _____    ______ ____

>  <TORSDO>
F 4

$$$$
=
 OpenBabel11052411563D

 32 37  0  0  1  0  0  0  0  0999 V2000
  161.1660  203.1400  148.7990 C   0  0  0  0  0  3  0  0  0  0  0  0
  161.0470  205.7580  152.4210 C   0  0  0  0  0  0  0  0  0  0  0  0
  160.8950  202.1620  149.7810 C   0  0  0  0  0  0  0  0  0  0  0  0
  160.7690  202.5280  151.1360 C   0  0  0  0  0  3  0  0  0  0  0  0
  161.2460  206.0270  151.1000 N   0  0  0  0  0  0  0  0  0  0  0  0
  160.8300  204.4390  152.6710 N   0  0  0  0  0  0  0  0  0  0  0  0
  161.1630  204.8220  150.5040 C   0  0  0  0  0  0  0  0  0  0  0  0
  160.9070  203.8770  151.4530 C   0  0  0  0  0  0  0  0  0  0  0  0
  161.3020  204.4940  149.1550 C   0  0  0  0  0  3  0  0  0  0  0  0
  160.8420  208.1270  153.3410 C   0  0  0  0  0  0  0  0  0  0  0  0
  160.9410  208.7160  154.6480 C   0  0  1  0  0  3  0  0  0  0  0  0
  160.7260  210.0950  154.8020 C   0  0  0  0  0  0  0  0  0  0  0  0
  161.1840  207.6470  155.5020 C   0  0  0  0  0  0  0  0  0  0  0  0
  161.2470  207.6640  157.2550 Cl  0  0  0  0  0  0  0  0  0  0  0  0
  160.2800  210.2530  152.4370 C   0  0  0  0  0  3  0  0  0  0  0  0
  160.3930  210.8090  153.6830 N   0  0  0  0  0  0  0  0  0  0  0  0
  161.0600  206.7750  153.4960 C   0  0  0  0  0  0  0  0  0  0  0  0
  161.2590  206.4890  154.8040 N   0  0  0  0  0  0  0  0  0  0  0  0
  160.5060  208.8850  152.2280 C   0  0  0  0  0  3  0  0  0  0  0  0
  162.0100  211.2040  156.4670 O   0  0  0  0  0  0  0  0  0  0  0  0
  159.7240  211.1780  156.8260 N   0  0  0  0  0  1  0  0  0  0  0  0
  160.8790  210.8200  156.0740 C   0  0  0  0  0  0  0  0  0  0  0  0
  161.7000  208.2350  148.2770 C   0  0  2  0  0  0  0  0  0  0  0  0
  163.0460  207.4460  150.1410 C   0  0  1  0  0  3  0  0  0  0  0  0
  161.5430  207.6200  147.0340 O   0  0  0  0  0  1  0  0  0  0  0  0
  163.1210  208.0240  148.7980 C   0  0  1  0  0  3  0  0  0  0  0  0
  161.5680  207.3280  150.5030 C   0  0  1  0  0  3  0  0  0  0  0  0
  160.7360  207.6310  149.2750 C   0  0  0  0  0  2  0  0  0  0  0  0
  161.4270  209.7210  148.1410 C   0  0  0  0  0  1  0  0  0  0  0  0
  163.3910  206.5890  148.9950 N   0  0  0  0  0  2  0  0  0  0  0  0
  161.2350  200.5580  148.0210 N   0  0  0  0  0  1  0  0  0  0  0  0
  160.7760  200.7320  149.3880 C   0  0  0  0  0  2  0  0  0  0  0  0
  1  9  2  0  0  0  0
  1  3  1  0  0  0  0
  2  6  2  0  0  0  0
  2 17  1  0  0  0  0
  3  4  2  0  0  0  0
  4  8  1  0  0  0  0
  5  2  1  0  0  0  0
  7  5  1  0  0  0  0
  7  8  2  0  0  0  0
  8  6  1  0  0  0  0
  9  7  1  0  0  0  0
 10 17  2  0  0  0  0
 11 10  1  1  0  0  0
 11 12  1  0  0  0  0
 11 13  1  0  0  0  0
 12 22  1  0  0  0  0
 13 14  1  0  0  0  0
 15 16  1  0  0  0  0
 16 12  2  0  0  0  0
 17 18  1  0  0  0  0
 18 13  2  0  0  0  0
 19 15  2  0  0  0  0
 19 10  1  0  0  0  0
 22 20  2  0  0  0  0
 22 21  1  0  0  0  0
 23 29  1  6  0  0  0
 23 26  1  0  0  0  0
 23 28  1  0  0  0  0
 24 30  1  6  0  0  0
 24 27  1  0  0  0  0
 25 23  1  0  0  0  0
 26 30  1  6  0  0  0
 26 24  1  0  0  0  0
 27 28  1  6  0  0  0
 27  5  1  0  0  0  0
 31 32  1  0  0  0  0
 32  3  1  0  0  0  0
M  END
>  <MODEL>
6

>  <REMARK>
 VINA RESULT:      -4.6      2.810      7.664
  Name = 
  4 active torsions:
  status: ('A' for Active; 'I' for Inactive)
    1  A    between atoms: C_5  and  C_27
    2  A    between atoms: C_6  and  C_26
    3  A    between atoms: C_9  and  C_29
    4  A    between atoms: N_16  and  C_20
                            x       y       z     vdW  Elec       q    Type
                         _______ _______ _______ _____ _____    ______ ____

>  <TORSDO>
F 4

$$$$
=
 OpenBabel11052411563D

 32 37  0  0  1  0  0  0  0  0999 V2000
  161.3800  204.6080  146.8020 C   0  0  0  0  0  3  0  0  0  0  0  0
  161.0980  206.8060  150.6860 C   0  0  0  0  0  0  0  0  0  0  0  0
  161.0290  205.8880  146.3180 C   0  0  0  0  0  0  0  0  0  0  0  0
  160.8190  206.9560  147.2130 C   0  0  0  0  0  3  0  0  0  0  0  0
  161.4160  205.5150  150.3820 N   0  0  0  0  0  0  0  0  0  0  0  0
  160.8320  207.5640  149.5880 N   0  0  0  0  0  0  0  0  0  0  0  0
  161.3300  205.4650  149.0390 C   0  0  0  0  0  0  0  0  0  0  0  0
  160.9850  206.6990  148.5710 C   0  0  0  0  0  0  0  0  0  0  0  0
  161.5370  204.3830  148.1820 C   0  0  0  0  0  3  0  0  0  0  0  0
  161.1240  208.6850  152.4080 C   0  0  0  0  0  0  0  0  0  0  0  0
  161.0110  208.7460  153.8390 C   0  0  1  0  0  3  0  0  0  0  0  0
  161.0260  209.9960  154.4800 C   0  0  0  0  0  0  0  0  0  0  0  0
  160.8340  207.4260  154.2390 C   0  0  0  0  0  0  0  0  0  0  0  0
  160.4710  206.8290  155.8480 Cl  0  0  0  0  0  0  0  0  0  0  0  0
  161.2060  211.0600  152.3230 C   0  0  0  0  0  3  0  0  0  0  0  0
  161.1150  211.1080  153.6890 N   0  0  0  0  0  0  0  0  0  0  0  0
  161.0400  207.3550  152.0580 C   0  0  0  0  0  0  0  0  0  0  0  0
  160.8580  206.5990  153.1670 N   0  0  0  0  0  0  0  0  0  0  0  0
  161.2160  209.8360  151.6390 C   0  0  0  0  0  3  0  0  0  0  0  0
  159.9230  210.4310  156.5410 O   0  0  0  0  0  0  0  0  0  0  0  0
  162.1850  209.9680  156.7000 N   0  0  0  0  0  1  0  0  0  0  0  0
  160.9990  210.1770  155.9410 C   0  0  0  0  0  0  0  0  0  0  0  0
  161.7000  202.0230  151.2570 C   0  0  2  0  0  0  0  0  0  0  0  0
  160.4290  203.9430  152.0330 C   0  0  1  0  0  3  0  0  0  0  0  0
  161.3500  201.1420  150.2310 O   0  0  0  0  0  1  0  0  0  0  0  0
  160.4520  202.4800  152.0110 C   0  0  1  0  0  3  0  0  0  0  0  0
  161.6920  204.4280  151.3270 C   0  0  1  0  0  3  0  0  0  0  0  0
  162.3760  203.2460  150.6760 C   0  0  0  0  0  2  0  0  0  0  0  0
  162.6450  201.3270  152.2170 C   0  0  0  0  0  1  0  0  0  0  0  0
  159.5440  203.2110  151.1110 N   0  0  0  0  0  2  0  0  0  0  0  0
  161.2070  204.8940  144.1340 N   0  0  0  0  0  1  0  0  0  0  0  0
  160.8460  206.1010  144.8560 C   0  0  0  0  0  2  0  0  0  0  0  0
  1  9  1  0  0  0  0
  2 17  1  0  0  0  0
  3  1  2  0  0  0  0
  3  4  1  0  0  0  0
  4  8  2  0  0  0  0
  5  2  1  0  0  0  0
  6  2  2  0  0  0  0
  7  5  1  0  0  0  0
  8  7  1  0  0  0  0
  8  6  1  0  0  0  0
  9  7  2  0  0  0  0
 11 10  1  6  0  0  0
 11 13  1  0  0  0  0
 11 12  1  0  0  0  0
 12 22  1  0  0  0  0
 13 14  1  0  0  0  0
 15 16  1  0  0  0  0
 16 12  2  0  0  0  0
 17 10  2  0  0  0  0
 17 18  1  0  0  0  0
 18 13  2  0  0  0  0
 19 15  2  0  0  0  0
 19 10  1  0  0  0  0
 22 20  2  0  0  0  0
 22 21  1  0  0  0  0
 23 26  1  0  0  0  0
 23 29  1  1  0  0  0
 24 30  1  6  0  0  0
 25 23  1  0  0  0  0
 26 30  1  6  0  0  0
 26 24  1  0  0  0  0
 27  5  1  6  0  0  0
 27 24  1  0  0  0  0
 28 23  1  0  0  0  0
 28 27  1  0  0  0  0
 31 32  1  0  0  0  0
 32  3  1  0  0  0  0
M  END
>  <MODEL>
7

>  <REMARK>
 VINA RESULT:      -4.4      2.599      7.180
  Name = 
  4 active torsions:
  status: ('A' for Active; 'I' for Inactive)
    1  A    between atoms: C_5  and  C_27
    2  A    between atoms: C_6  and  C_26
    3  A    between atoms: C_9  and  C_29
    4  A    between atoms: N_16  and  C_20
                            x       y       z     vdW  Elec       q    Type
                         _______ _______ _______ _____ _____    ______ ____

>  <TORSDO>
F 4

$$$$
=
 OpenBabel11052411563D

 32 37  0  0  1  0  0  0  0  0999 V2000
  161.1040  203.0000  149.3220 C   0  0  0  0  0  3  0  0  0  0  0  0
  160.8730  206.2650  152.3670 C   0  0  0  0  0  0  0  0  0  0  0  0
  160.9990  202.2160  150.4930 C   0  0  0  0  0  0  0  0  0  0  0  0
  160.9020  202.8320  151.7560 C   0  0  0  0  0  3  0  0  0  0  0  0
  160.9710  206.2830  151.0070 N   0  0  0  0  0  0  0  0  0  0  0  0
  160.8230  205.0080  152.8830 N   0  0  0  0  0  0  0  0  0  0  0  0
  160.9960  204.9810  150.6640 C   0  0  0  0  0  0  0  0  0  0  0  0
  160.9010  204.2240  151.7950 C   0  0  0  0  0  0  0  0  0  0  0  0
  161.1010  204.4040  149.3970 C   0  0  0  0  0  3  0  0  0  0  0  0
  160.5990  207.5020  154.5790 C   0  0  0  0  0  0  0  0  0  0  0  0
  160.6510  208.8800  154.9790 C   0  0  0  0  0  0  0  0  0  0  0  0
  160.4900  209.2120  156.3350 C   0  0  0  0  0  0  0  0  0  0  0  0
  160.9410  209.5790  153.8130 C   0  0  0  0  0  0  0  0  0  0  0  0
  161.3000  211.2880  153.6440 Cl  0  0  0  0  0  0  0  0  0  0  0  0
  160.2880  206.8650  156.8480 C   0  0  0  0  0  3  0  0  0  0  0  0
  160.3220  208.1830  157.2200 N   0  0  0  0  0  2  0  0  0  0  0  0
  160.8250  207.4730  153.2200 C   0  0  0  0  0  0  0  0  0  0  0  0
  161.0390  208.7300  152.7630 N   0  0  0  0  0  0  0  0  0  0  0  0
  160.4240  206.4840  155.5060 C   0  0  0  0  0  3  0  0  0  0  0  0
  159.3470  211.1850  157.0120 O   0  0  0  0  0  0  0  0  0  0  0  0
  161.6480  211.2310  157.2600 N   0  0  0  0  0  1  0  0  0  0  0  0
  160.4440  210.5910  156.8500 C   0  0  0  0  0  0  0  0  0  0  0  0
  161.6910  207.8820  147.8500 C   0  0  2  0  0  0  0  0  0  0  0  0
  162.5400  207.9950  150.1240 C   0  0  1  0  0  3  0  0  0  0  0  0
  162.1010  207.0080  146.8420 O   0  0  0  0  0  1  0  0  0  0  0  0
  162.8790  208.2730  148.7280 C   0  0  1  0  0  3  0  0  0  0  0  0
  161.1100  207.4630  150.1470 C   0  0  1  0  0  3  0  0  0  0  0  0
  160.6570  207.2080  148.7260 C   0  0  0  0  0  2  0  0  0  0  0  0
  161.0930  209.1270  147.2230 C   0  0  0  0  0  1  0  0  0  0  0  0
  163.4410  207.0860  149.3950 N   0  0  0  0  0  2  0  0  0  0  0  0
  161.3050  200.3340  149.0250 N   0  0  0  0  0  1  0  0  0  0  0  0
  161.0250  200.7310  150.3940 C   0  0  0  0  0  2  0  0  0  0  0  0
  1  9  2  0  0  0  0
  1  3  1  0  0  0  0
  2  6  2  0  0  0  0
  2 17  1  0  0  0  0
  3  4  2  0  0  0  0
  4  8  1  0  0  0  0
  5  2  1  0  0  0  0
  7  5  1  0  0  0  0
  7  8  2  0  0  0  0
  8  6  1  0  0  0  0
  9  7  1  0  0  0  0
 10 11  1  0  0  0  0
 10 19  1  0  0  0  0
 11 12  2  0  0  0  0
 12 22  1  0  0  0  0
 12 16  1  0  0  0  0
 13 11  1  0  0  0  0
 14 13  1  0  0  0  0
 15 16  1  0  0  0  0
 17 10  2  0  0  0  0
 18 17  1  0  0  0  0
 18 13  2  0  0  0  0
 19 15  2  0  0  0  0
 22 20  2  0  0  0  0
 22 21  1  0  0  0  0
 23 29  1  6  0  0  0
 23 28  1  0  0  0  0
 23 26  1  0  0  0  0
 24 30  1  6  0  0  0
 24 27  1  0  0  0  0
 25 23  1  0  0  0  0
 26 30  1  6  0  0  0
 26 24  1  0  0  0  0
 27 28  1  6  0  0  0
 27  5  1  0  0  0  0
 31 32  1  0  0  0  0
 32  3  1  0  0  0  0
M  END
>  <MODEL>
8

>  <REMARK>
 VINA RESULT:      -4.0      3.069      8.054
  Name = 
  4 active torsions:
  status: ('A' for Active; 'I' for Inactive)
    1  A    between atoms: C_5  and  C_27
    2  A    between atoms: C_6  and  C_26
    3  A    between atoms: C_9  and  C_29
    4  A    between atoms: N_16  and  C_20
                            x       y       z     vdW  Elec       q    Type
                         _______ _______ _______ _____ _____    ______ ____

>  <TORSDO>
F 4

$$$$
=
 OpenBabel11052411563D

 32 37  0  0  1  0  0  0  0  0999 V2000
  161.5050  214.2040  148.6920 C   0  0  0  0  0  3  0  0  0  0  0  0
  161.5680  209.9510  150.0660 C   0  0  0  0  0  0  0  0  0  0  0  0
  161.9210  213.5820  147.4950 C   0  0  0  0  0  0  0  0  0  0  0  0
  162.0940  212.1850  147.4410 C   0  0  0  0  0  3  0  0  0  0  0  0
  161.2400  211.1140  150.6960 N   0  0  0  0  0  0  0  0  0  0  0  0
  161.9290  210.1290  148.7680 N   0  0  0  0  0  0  0  0  0  0  0  0
  161.4190  212.0580  149.7530 C   0  0  0  0  0  0  0  0  0  0  0  0
  161.8260  211.4580  148.5980 C   0  0  0  0  0  0  0  0  0  0  0  0
  161.2450  213.4400  149.8440 C   0  0  0  0  0  3  0  0  0  0  0  0
  161.2290  207.4240  150.0870 C   0  0  0  0  0  0  0  0  0  0  0  0
  161.3450  206.3970  151.0850 C   0  0  1  0  0  3  0  0  0  0  0  0
  161.1160  205.0580  150.7270 C   0  0  0  0  0  0  0  0  0  0  0  0
  161.7570  207.0620  152.2340 C   0  0  0  0  0  0  0  0  0  0  0  0
  162.2370  206.3600  153.7680 Cl  0  0  0  0  0  0  0  0  0  0  0  0
  160.7280  205.7690  148.4550 C   0  0  0  0  0  3  0  0  0  0  0  0
  160.8240  204.7970  149.4160 N   0  0  0  0  0  0  0  0  0  0  0  0
  161.5430  208.6160  150.7040 C   0  0  0  0  0  0  0  0  0  0  0  0
  161.8670  208.3910  151.9990 N   0  0  0  0  0  0  0  0  0  0  0  0
  160.9270  207.1210  148.7670 C   0  0  0  0  0  3  0  0  0  0  0  0
  160.4020  203.9480  152.7050 O   0  0  0  0  0  0  0  0  0  0  0  0
  161.8950  202.7700  151.3860 N   0  0  0  0  0  1  0  0  0  0  0  0
  161.1270  203.9340  151.6770 C   0  0  0  0  0  0  0  0  0  0  0  0
  158.8590  211.0840  153.4120 C   0  0  2  0  0  0  0  0  0  0  0  0
  160.3800  212.6930  152.4100 C   0  0  1  0  0  3  0  0  0  0  0  0
  157.5460  210.8140  153.0230 O   0  0  0  0  0  1  0  0  0  0  0  0
  159.1720  212.5680  153.2270 C   0  0  1  0  0  3  0  0  0  0  0  0
  160.8710  211.2810  152.1060 C   0  0  1  0  0  3  0  0  0  0  0  0
  159.8220  210.2880  152.5590 C   0  0  0  0  0  2  0  0  0  0  0  0
  159.0400  210.7060  154.8700 C   0  0  0  0  0  1  0  0  0  0  0  0
  159.0600  212.9470  151.8080 N   0  0  0  0  0  2  0  0  0  0  0  0
  162.6180  213.5530  145.1920 N   0  0  0  0  0  1  0  0  0  0  0  0
  162.2120  214.4100  146.2930 C   0  0  0  0  0  2  0  0  0  0  0  0
  1  9  1  0  0  0  0
  2  5  1  0  0  0  0
  2 17  1  0  0  0  0
  3  1  2  0  0  0  0
  4  3  1  0  0  0  0
  4  8  2  0  0  0  0
  6  2  2  0  0  0  0
  7  9  2  0  0  0  0
  7  5  1  0  0  0  0
  8  6  1  0  0  0  0
  8  7  1  0  0  0  0
 10 17  2  0  0  0  0
 11 10  1  6  0  0  0
 11 13  1  0  0  0  0
 12 11  1  0  0  0  0
 12 22  1  0  0  0  0
 13 14  1  0  0  0  0
 15 19  2  0  0  0  0
 15 16  1  0  0  0  0
 16 12  2  0  0  0  0
 17 18  1  0  0  0  0
 18 13  2  0  0  0  0
 19 10  1  0  0  0  0
 21 22  1  0  0  0  0
 22 20  2  0  0  0  0
 23 29  1  1  0  0  0
 24 30  1  6  0  0  0
 24 26  1  0  0  0  0
 25 23  1  0  0  0  0
 26 30  1  6  0  0  0
 26 23  1  0  0  0  0
 27  5  1  6  0  0  0
 27 24  1  0  0  0  0
 27 28  1  0  0  0  0
 28 23  1  0  0  0  0
 31 32  1  0  0  0  0
 32  3  1  0  0  0  0
M  END
>  <MODEL>
9

>  <REMARK>
 VINA RESULT:      -3.9      1.928      2.436
  Name = 
  4 active torsions:
  status: ('A' for Active; 'I' for Inactive)
    1  A    between atoms: C_5  and  C_27
    2  A    between atoms: C_6  and  C_26
    3  A    between atoms: C_9  and  C_29
    4  A    between atoms: N_16  and  C_20
                            x       y       z     vdW  Elec       q    Type
                         _______ _______ _______ _____ _____    ______ ____

>  <TORSDO>
F 4

$$$$
