=
 OpenBabel11042420463D

 27 28  0  0  1  0  0  0  0  0999 V2000
  161.8520  203.9890  147.4650 C   0  0  0  0  0  2  0  0  0  0  0  0
  161.0710  204.1460  150.4840 C   0  0  0  0  0  0  0  0  0  0  0  0
  161.1930  205.3440  147.7320 C   0  0  1  0  0  3  0  0  0  0  0  0
  160.7590  203.6940  151.6910 C   0  0  0  0  0  2  0  0  0  0  0  0
  161.0920  202.9650  149.6350 C   0  0  0  0  0  0  0  0  0  0  0  0
  160.6460  202.2680  151.6480 N   0  0  0  0  0  0  0  0  0  0  0  0
  161.7750  205.9330  148.9580 N   0  0  0  0  0  0  0  0  0  0  0  0
  160.9080  205.5720  150.0730 C   0  0  0  0  0  2  0  0  0  0  0  0
  160.8190  201.8480  150.4610 N   0  0  0  0  0  0  0  0  0  0  0  0
  161.3660  202.8690  148.3350 C   0  0  0  0  0  2  0  0  0  0  0  0
  161.3030  206.2310  146.4720 C   0  0  2  0  0  3  0  0  0  0  0  0
  160.0320  206.4840  145.9540 O   0  0  0  0  0  1  0  0  0  0  0  0
  162.2000  205.6200  145.3980 C   0  0  0  0  0  2  0  0  0  0  0  0
  161.3870  205.1660  144.2360 C   0  0  0  0  0  0  0  0  0  0  0  0
  160.5270  204.0840  144.3700 O   0  0  0  0  0  1  0  0  0  0  0  0
  161.4560  205.7810  143.1400 O   0  0  0  0  0  0  0  0  0  0  0  0
  161.7490  207.3920  148.9380 C   0  0  0  0  0  2  0  0  0  0  0  0
  161.1970  207.9060  150.2530 C   0  0  0  0  0  2  0  0  0  0  0  0
  162.2770  208.6750  150.9880 C   0  0  0  0  0  2  0  0  0  0  0  0
  161.8210  208.9970  152.3290 N   0  0  0  0  0  0  0  0  0  0  0  0
  161.2270  210.3250  152.2640 C   0  0  0  0  0  2  0  0  0  0  0  0
  162.1160  210.7230  154.4430 O   0  0  0  0  0  1  0  0  0  0  0  0
  160.9650  210.8490  153.6640 C   0  0  0  0  0  2  0  0  0  0  0  0
  160.7460  208.0670  152.6350 C   0  0  0  0  0  2  0  0  0  0  0  0
  160.6310  207.4710  155.0520 O   0  0  0  0  0  1  0  0  0  0  0  0
  161.1330  207.2050  153.7860 C   0  0  0  0  0  0  0  0  0  0  0  0
  161.9460  206.2590  153.6170 O   0  0  0  0  0  0  0  0  0  0  0  0
  1  3  1  0  0  0  0
  1 10  1  0  0  0  0
  2  4  1  0  0  0  0
  3 11  1  6  0  0  0
  3  7  1  0  0  0  0
  5  9  1  0  0  0  0
  5  2  2  0  0  0  0
  6  4  1  0  0  0  0
  7  8  1  0  0  0  0
  8  2  1  0  0  0  0
  9  6  2  0  0  0  0
 10  5  1  0  0  0  0
 11 12  1  6  0  0  0
 13 11  1  0  0  0  0
 14 15  1  0  0  0  0
 14 13  1  0  0  0  0
 16 14  2  0  0  0  0
 17  7  1  0  0  0  0
 17 18  1  0  0  0  0
 18 19  1  0  0  0  0
 19 20  1  0  0  0  0
 20 24  1  0  0  0  0
 21 20  1  0  0  0  0
 21 23  1  0  0  0  0
 23 22  1  0  0  0  0
 24 26  1  0  0  0  0
 26 25  1  0  0  0  0
 27 26  2  0  0  0  0
M  END
>  <MODEL>
1

>  <REMARK>
 VINA RESULT:      -7.0      0.000      0.000
  Name = 
  11 active torsions:
  status: ('A' for Active; 'I' for Inactive)
    1  A    between atoms: C_1  and  C_4
    2  A    between atoms: C_1  and  C_22
    3  A    between atoms: C_6  and  C_15
    4  A    between atoms: C_6  and  N_20
    5  A    between atoms: C_7  and  C_14
    6  A    between atoms: C_7  and  C_27
    7  A    between atoms: C_9  and  C_22
    8  A    between atoms: C_14  and  N_20
    9  A    between atoms: N_17  and  C_27
   10  A    between atoms: C_18  and  C_19
   11  A    between atoms: C_19  and  N_20
                            x       y       z     vdW  Elec       q    Type
                         _______ _______ _______ _____ _____    ______ ____

>  <TORSDO>
F 11

$$$$
=
 OpenBabel11042420463D

 27 28  0  0  1  0  0  0  0  0999 V2000
  161.7590  204.0530  147.5830 C   0  0  0  0  0  2  0  0  0  0  0  0
  161.1240  204.3250  150.6280 C   0  0  0  0  0  0  0  0  0  0  0  0
  161.1400  205.4300  147.8350 C   0  0  1  0  0  3  0  0  0  0  0  0
  160.8600  203.9200  151.8630 C   0  0  0  0  0  2  0  0  0  0  0  0
  161.0810  203.1180  149.8190 C   0  0  0  0  0  0  0  0  0  0  0  0
  160.7170  202.4970  151.8730 N   0  0  0  0  0  0  0  0  0  0  0  0
  161.7910  206.0460  149.0120 N   0  0  0  0  0  0  0  0  0  0  0  0
  160.9700  205.7410  150.1770 C   0  0  0  0  0  2  0  0  0  0  0  0
  160.8260  202.0340  150.6940 N   0  0  0  0  0  0  0  0  0  0  0  0
  161.2920  202.9730  148.5120 C   0  0  0  0  0  2  0  0  0  0  0  0
  161.2090  206.2730  146.5420 C   0  0  2  0  0  3  0  0  0  0  0  0
  159.9270  206.4430  146.0140 O   0  0  0  0  0  1  0  0  0  0  0  0
  162.1360  205.6670  145.4920 C   0  0  0  0  0  2  0  0  0  0  0  0
  161.3530  205.1720  144.3260 C   0  0  0  0  0  0  0  0  0  0  0  0
  161.4300  205.8320  143.1070 O   0  0  0  0  0  0  0  0  0  0  0  0
  160.6450  204.1370  144.4350 O   0  0  0  0  0  1  0  0  0  0  0  0
  161.7930  207.5050  148.9440 C   0  0  0  0  0  2  0  0  0  0  0  0
  162.4010  208.0680  150.2120 C   0  0  0  0  0  2  0  0  0  0  0  0
  161.7700  209.4120  150.5200 C   0  0  0  0  0  2  0  0  0  0  0  0
  161.0210  209.3260  151.7620 N   0  0  0  0  0  0  0  0  0  0  0  0
  161.6410  208.2750  152.5560 C   0  0  0  0  0  2  0  0  0  0  0  0
  160.8400  206.6520  154.1120 O   0  0  0  0  0  1  0  0  0  0  0  0
  160.8230  208.0130  153.8080 C   0  0  0  0  0  2  0  0  0  0  0  0
  161.2450  210.5770  152.4680 C   0  0  0  0  0  2  0  0  0  0  0  0
  160.0890  212.7470  152.0570 O   0  0  0  0  0  0  0  0  0  0  0  0
  160.0110  211.4110  152.4260 C   0  0  0  0  0  0  0  0  0  0  0  0
  158.9050  210.9140  152.7620 O   0  0  0  0  0  1  0  0  0  0  0  0
  1  3  1  0  0  0  0
  1 10  1  0  0  0  0
  2  4  1  0  0  0  0
  3 11  1  6  0  0  0
  3  7  1  0  0  0  0
  4  6  1  0  0  0  0
  5  2  2  0  0  0  0
  5  9  1  0  0  0  0
  7  8  1  0  0  0  0
  8  2  1  0  0  0  0
  9  6  2  0  0  0  0
 10  5  1  0  0  0  0
 11 12  1  6  0  0  0
 13 11  1  0  0  0  0
 14 16  1  0  0  0  0
 14 13  1  0  0  0  0
 15 14  2  0  0  0  0
 17  7  1  0  0  0  0
 17 18  1  0  0  0  0
 18 19  1  0  0  0  0
 19 20  1  0  0  0  0
 20 24  1  0  0  0  0
 20 21  1  0  0  0  0
 21 23  1  0  0  0  0
 23 22  1  0  0  0  0
 25 26  2  0  0  0  0
 26 24  1  0  0  0  0
 26 27  1  0  0  0  0
M  END
>  <MODEL>
2

>  <REMARK>
 VINA RESULT:      -6.7      1.167      2.291
  Name = 
  11 active torsions:
  status: ('A' for Active; 'I' for Inactive)
    1  A    between atoms: C_1  and  C_4
    2  A    between atoms: C_1  and  C_22
    3  A    between atoms: C_6  and  C_15
    4  A    between atoms: C_6  and  N_20
    5  A    between atoms: C_7  and  C_14
    6  A    between atoms: C_7  and  C_27
    7  A    between atoms: C_9  and  C_22
    8  A    between atoms: C_14  and  N_20
    9  A    between atoms: N_17  and  C_27
   10  A    between atoms: C_18  and  C_19
   11  A    between atoms: C_19  and  N_20
                            x       y       z     vdW  Elec       q    Type
                         _______ _______ _______ _____ _____    ______ ____

>  <TORSDO>
F 11

$$$$
=
 OpenBabel11042420463D

 27 28  0  0  1  0  0  0  0  0999 V2000
  161.1510  202.3720  151.2180 C   0  0  0  0  0  2  0  0  0  0  0  0
  161.2210  205.4930  151.3030 C   0  0  0  0  0  0  0  0  0  0  0  0
  160.4430  202.9130  149.9740 C   0  0  1  0  0  3  0  0  0  0  0  0
  161.3070  206.6990  151.8460 C   0  0  0  0  0  3  0  0  0  0  0  0
  161.1390  204.5780  152.4300 C   0  0  0  0  0  0  0  0  0  0  0  0
  161.3470  206.5750  153.2710 N   0  0  0  0  0  0  0  0  0  0  0  0
  161.2710  203.9810  149.3710 N   0  0  0  0  0  0  0  0  0  0  0  0
  160.7910  205.2550  149.8920 C   0  0  0  0  0  2  0  0  0  0  0  0
  161.2330  205.3550  153.6110 N   0  0  0  0  0  0  0  0  0  0  0  0
  161.0530  203.2490  152.4310 C   0  0  0  0  0  3  0  0  0  0  0  0
  160.1010  201.7450  149.0230 C   0  0  2  0  0  3  0  0  0  0  0  0
  159.0850  200.9620  149.5740 O   0  0  0  0  0  1  0  0  0  0  0  0
  161.3150  200.8800  148.6930 C   0  0  0  0  0  2  0  0  0  0  0  0
  161.2860  200.4620  147.2640 C   0  0  0  0  0  0  0  0  0  0  0  0
  160.8100  201.3350  146.2950 O   0  0  0  0  0  0  0  0  0  0  0  0
  161.7220  199.3290  146.9290 O   0  0  0  0  0  1  0  0  0  0  0  0
  161.0760  204.0850  147.9280 C   0  0  0  0  0  2  0  0  0  0  0  0
  162.4020  204.3900  147.2610 C   0  0  0  0  0  2  0  0  0  0  0  0
  162.2900  205.6850  146.4810 C   0  0  0  0  0  2  0  0  0  0  0  0
  160.9250  206.1800  146.5510 N   0  0  0  0  0  0  0  0  0  0  0  0
  160.9730  207.4450  147.2680 C   0  0  0  0  0  2  0  0  0  0  0  0
  162.2490  208.6240  148.9050 O   0  0  0  0  0  1  0  0  0  0  0  0
  162.3190  207.6100  147.9500 C   0  0  0  0  0  2  0  0  0  0  0  0
  160.5250  206.4820  145.1860 C   0  0  0  0  0  2  0  0  0  0  0  0
  160.3010  204.0940  144.5090 O   0  0  0  0  0  1  0  0  0  0  0  0
  160.8690  205.3420  144.2920 C   0  0  0  0  0  0  0  0  0  0  0  0
  161.7040  205.5000  143.3640 O   0  0  0  0  0  0  0  0  0  0  0  0
  1 10  1  0  0  0  0
  2  4  2  0  0  0  0
  2  5  1  0  0  0  0
  3 11  1  6  0  0  0
  3  1  1  0  0  0  0
  4  6  1  0  0  0  0
  5 10  2  0  0  0  0
  5  9  1  0  0  0  0
  6  9  2  0  0  0  0
  7  8  1  0  0  0  0
  7  3  1  0  0  0  0
  8  2  1  0  0  0  0
 11 12  1  1  0  0  0
 13 11  1  0  0  0  0
 14 13  1  0  0  0  0
 15 14  2  0  0  0  0
 16 14  1  0  0  0  0
 17  7  1  0  0  0  0
 18 17  1  0  0  0  0
 19 20  1  0  0  0  0
 19 18  1  0  0  0  0
 20 21  1  0  0  0  0
 21 23  1  0  0  0  0
 23 22  1  0  0  0  0
 24 20  1  0  0  0  0
 26 25  1  0  0  0  0
 26 24  1  0  0  0  0
 27 26  2  0  0  0  0
M  END
>  <MODEL>
3

>  <REMARK>
 VINA RESULT:      -6.4      2.722      5.843
  Name = 
  11 active torsions:
  status: ('A' for Active; 'I' for Inactive)
    1  A    between atoms: C_1  and  C_4
    2  A    between atoms: C_1  and  C_22
    3  A    between atoms: C_6  and  C_15
    4  A    between atoms: C_6  and  N_20
    5  A    between atoms: C_7  and  C_14
    6  A    between atoms: C_7  and  C_27
    7  A    between atoms: C_9  and  C_22
    8  A    between atoms: C_14  and  N_20
    9  A    between atoms: N_17  and  C_27
   10  A    between atoms: C_18  and  C_19
   11  A    between atoms: C_19  and  N_20
                            x       y       z     vdW  Elec       q    Type
                         _______ _______ _______ _____ _____    ______ ____

>  <TORSDO>
F 11

$$$$
=
 OpenBabel11042420463D

 27 28  0  0  1  0  0  0  0  0999 V2000
  161.6380  205.4050  151.4750 C   0  0  0  0  0  2  0  0  0  0  0  0
  161.2320  208.1300  152.9450 C   0  0  0  0  0  0  0  0  0  0  0  0
  161.1480  206.4420  150.4620 C   0  0  1  0  0  3  0  0  0  0  0  0
  161.0200  208.9480  153.9670 C   0  0  0  0  0  2  0  0  0  0  0  0
  161.0400  206.7940  153.4870 C   0  0  0  0  0  0  0  0  0  0  0  0
  160.7660  208.1770  155.1460 N   0  0  0  0  0  0  0  0  0  0  0  0
  161.9230  207.6910  150.6330 N   0  0  0  0  0  0  0  0  0  0  0  0
  161.1600  208.5630  151.5180 C   0  0  0  0  0  2  0  0  0  0  0  0
  160.7600  206.9360  154.8680 N   0  0  0  0  0  0  0  0  0  0  0  0
  161.1520  205.6150  152.8780 C   0  0  0  0  0  2  0  0  0  0  0  0
  161.1970  205.8400  149.0400 C   0  0  2  0  0  3  0  0  0  0  0  0
  160.1460  206.3450  148.2710 O   0  0  0  0  0  1  0  0  0  0  0  0
  161.1600  204.3140  149.0450 C   0  0  0  0  0  2  0  0  0  0  0  0
  161.5870  203.7760  147.7230 C   0  0  0  0  0  0  0  0  0  0  0  0
  162.4940  204.4840  146.9460 O   0  0  0  0  0  0  0  0  0  0  0  0
  161.1500  202.6650  147.3230 O   0  0  0  0  0  1  0  0  0  0  0  0
  162.0350  208.4480  149.3890 C   0  0  0  0  0  2  0  0  0  0  0  0
  162.0360  209.9310  149.6990 C   0  0  0  0  0  2  0  0  0  0  0  0
  162.0170  210.7180  148.4040 C   0  0  0  0  0  2  0  0  0  0  0  0
  161.9610  212.1400  148.6970 N   0  0  0  0  0  0  0  0  0  0  0  0
  162.9880  212.7770  147.8850 C   0  0  0  0  0  2  0  0  0  0  0  0
  162.6160  214.4530  146.2270 O   0  0  0  0  0  1  0  0  0  0  0  0
  162.4400  213.0970  146.5060 C   0  0  0  0  0  2  0  0  0  0  0  0
  160.6780  212.6140  148.2050 C   0  0  0  0  0  2  0  0  0  0  0  0
  160.2450  213.2310  150.5810 O   0  0  0  0  0  1  0  0  0  0  0  0
  160.0290  213.4760  149.2320 C   0  0  0  0  0  0  0  0  0  0  0  0
  159.2550  214.4020  148.8780 O   0  0  0  0  0  0  0  0  0  0  0  0
  1 10  1  0  0  0  0
  2  5  2  0  0  0  0
  2  4  1  0  0  0  0
  3 11  1  6  0  0  0
  3  7  1  0  0  0  0
  3  1  1  0  0  0  0
  4  6  1  0  0  0  0
  5  9  1  0  0  0  0
  7  8  1  0  0  0  0
  8  2  1  0  0  0  0
  9  6  2  0  0  0  0
 10  5  1  0  0  0  0
 11 12  1  6  0  0  0
 11 13  1  0  0  0  0
 14 13  1  0  0  0  0
 15 14  2  0  0  0  0
 16 14  1  0  0  0  0
 17 18  1  0  0  0  0
 17  7  1  0  0  0  0
 19 20  1  0  0  0  0
 19 18  1  0  0  0  0
 21 20  1  0  0  0  0
 22 23  1  0  0  0  0
 23 21  1  0  0  0  0
 24 20  1  0  0  0  0
 24 26  1  0  0  0  0
 26 25  1  0  0  0  0
 27 26  2  0  0  0  0
M  END
>  <MODEL>
4

>  <REMARK>
 VINA RESULT:      -6.3      3.668      5.406
  Name = 
  11 active torsions:
  status: ('A' for Active; 'I' for Inactive)
    1  A    between atoms: C_1  and  C_4
    2  A    between atoms: C_1  and  C_22
    3  A    between atoms: C_6  and  C_15
    4  A    between atoms: C_6  and  N_20
    5  A    between atoms: C_7  and  C_14
    6  A    between atoms: C_7  and  C_27
    7  A    between atoms: C_9  and  C_22
    8  A    between atoms: C_14  and  N_20
    9  A    between atoms: N_17  and  C_27
   10  A    between atoms: C_18  and  C_19
   11  A    between atoms: C_19  and  N_20
                            x       y       z     vdW  Elec       q    Type
                         _______ _______ _______ _____ _____    ______ ____

>  <TORSDO>
F 11

$$$$
=
 OpenBabel11042420463D

 27 28  0  0  1  0  0  0  0  0999 V2000
  161.6400  205.5460  151.6650 C   0  0  0  0  0  2  0  0  0  0  0  0
  161.1650  208.2910  153.0750 C   0  0  0  0  0  0  0  0  0  0  0  0
  161.1220  206.5470  150.6300 C   0  0  1  0  0  3  0  0  0  0  0  0
  160.9340  209.1250  154.0790 C   0  0  0  0  0  2  0  0  0  0  0  0
  161.0090  206.9630  153.6470 C   0  0  0  0  0  0  0  0  0  0  0  0
  160.7010  208.3740  155.2750 N   0  0  0  0  0  0  0  0  0  0  0  0
  161.8640  207.8190  150.7710 N   0  0  0  0  0  0  0  0  0  0  0  0
  161.0800  208.6900  151.6380 C   0  0  0  0  0  2  0  0  0  0  0  0
  160.7260  207.1280  155.0250 N   0  0  0  0  0  0  0  0  0  0  0  0
  161.1490  205.7740  153.0630 C   0  0  0  0  0  2  0  0  0  0  0  0
  161.1830  205.9150  149.2210 C   0  0  2  0  0  3  0  0  0  0  0  0
  160.0960  206.3430  148.4570 O   0  0  0  0  0  1  0  0  0  0  0  0
  161.2320  204.3890  149.2620 C   0  0  0  0  0  2  0  0  0  0  0  0
  161.5740  203.8410  147.9200 C   0  0  0  0  0  0  0  0  0  0  0  0
  162.3770  204.5740  147.0560 O   0  0  0  0  0  0  0  0  0  0  0  0
  161.1630  202.7010  147.5810 O   0  0  0  0  0  1  0  0  0  0  0  0
  161.9550  208.5510  149.5110 C   0  0  0  0  0  2  0  0  0  0  0  0
  161.9000  210.0390  149.7870 C   0  0  0  0  0  2  0  0  0  0  0  0
  162.4490  210.7950  148.5930 C   0  0  0  0  0  2  0  0  0  0  0  0
  161.5700  211.9070  148.2730 N   0  0  0  0  0  0  0  0  0  0  0  0
  161.1760  212.5090  149.5390 C   0  0  0  0  0  2  0  0  0  0  0  0
  159.0550  213.4720  150.0620 O   0  0  0  0  0  1  0  0  0  0  0  0
  160.2070  213.6510  149.2940 C   0  0  0  0  0  2  0  0  0  0  0  0
  162.3830  212.8890  147.5730 C   0  0  0  0  0  2  0  0  0  0  0  0
  160.6290  212.6380  145.8200 O   0  0  0  0  0  1  0  0  0  0  0  0
  161.9180  213.0190  146.1640 C   0  0  0  0  0  0  0  0  0  0  0  0
  162.7070  213.4390  145.2780 O   0  0  0  0  0  0  0  0  0  0  0  0
  1 10  1  0  0  0  0
  2  5  2  0  0  0  0
  2  4  1  0  0  0  0
  3 11  1  6  0  0  0
  3  7  1  0  0  0  0
  3  1  1  0  0  0  0
  4  6  1  0  0  0  0
  5  9  1  0  0  0  0
  7  8  1  0  0  0  0
  8  2  1  0  0  0  0
  9  6  2  0  0  0  0
 10  5  1  0  0  0  0
 11 12  1  6  0  0  0
 11 13  1  0  0  0  0
 14 13  1  0  0  0  0
 15 14  2  0  0  0  0
 16 14  1  0  0  0  0
 17 18  1  0  0  0  0
 17  7  1  0  0  0  0
 19 18  1  0  0  0  0
 20 19  1  0  0  0  0
 20 21  1  0  0  0  0
 23 21  1  0  0  0  0
 23 22  1  0  0  0  0
 24 20  1  0  0  0  0
 25 26  1  0  0  0  0
 26 24  1  0  0  0  0
 27 26  2  0  0  0  0
M  END
>  <MODEL>
5

>  <REMARK>
 VINA RESULT:      -6.1      3.563      5.620
  Name = 
  11 active torsions:
  status: ('A' for Active; 'I' for Inactive)
    1  A    between atoms: C_1  and  C_4
    2  A    between atoms: C_1  and  C_22
    3  A    between atoms: C_6  and  C_15
    4  A    between atoms: C_6  and  N_20
    5  A    between atoms: C_7  and  C_14
    6  A    between atoms: C_7  and  C_27
    7  A    between atoms: C_9  and  C_22
    8  A    between atoms: C_14  and  N_20
    9  A    between atoms: N_17  and  C_27
   10  A    between atoms: C_18  and  C_19
   11  A    between atoms: C_19  and  N_20
                            x       y       z     vdW  Elec       q    Type
                         _______ _______ _______ _____ _____    ______ ____

>  <TORSDO>
F 11

$$$$
=
 OpenBabel11042420463D

 27 28  0  0  1  0  0  0  0  0999 V2000
  161.0130  205.2120  150.0610 C   0  0  0  0  0  2  0  0  0  0  0  0
  161.8040  206.0600  147.1630 C   0  0  0  0  0  0  0  0  0  0  0  0
  161.9870  206.3900  150.1430 C   0  0  1  0  0  3  0  0  0  0  0  0
  161.9920  205.9230  145.8570 C   0  0  0  0  0  3  0  0  0  0  0  0
  161.4920  204.7230  147.6400 C   0  0  0  0  0  0  0  0  0  0  0  0
  161.7480  204.5630  145.4850 N   0  0  0  0  0  0  0  0  0  0  0  0
  161.5670  207.4330  149.1820 N   0  0  0  0  0  0  0  0  0  0  0  0
  162.3160  207.2220  147.9490 C   0  0  0  0  0  2  0  0  0  0  0  0
  161.4770  203.8660  146.5120 N   0  0  0  0  0  0  0  0  0  0  0  0
  161.2040  204.3160  148.8750 C   0  0  0  0  0  3  0  0  0  0  0  0
  162.1020  206.8670  151.6080 C   0  0  2  0  0  3  0  0  0  0  0  0
  163.1060  206.1540  152.2650 O   0  0  0  0  0  1  0  0  0  0  0  0
  160.7850  206.7500  152.3700 C   0  0  0  0  0  2  0  0  0  0  0  0
  160.8360  207.5460  153.6280 C   0  0  0  0  0  0  0  0  0  0  0  0
  160.5130  206.9500  154.8400 O   0  0  0  0  0  1  0  0  0  0  0  0
  161.2010  208.7500  153.5980 O   0  0  0  0  0  0  0  0  0  0  0  0
  161.9540  208.7730  149.6140 C   0  0  0  0  0  2  0  0  0  0  0  0
  161.9250  209.7150  148.4270 C   0  0  0  0  0  2  0  0  0  0  0  0
  162.3230  211.1060  148.8770 C   0  0  0  0  0  2  0  0  0  0  0  0
  161.5290  212.0950  148.1670 N   0  0  0  0  0  0  0  0  0  0  0  0
  161.0000  213.0080  149.1690 C   0  0  0  0  0  2  0  0  0  0  0  0
  158.8040  213.3320  150.0490 O   0  0  0  0  0  1  0  0  0  0  0  0
  159.5470  213.3310  148.8670 C   0  0  0  0  0  2  0  0  0  0  0  0
  162.4550  212.8580  147.3460 C   0  0  0  0  0  2  0  0  0  0  0  0
  160.6300  212.5850  145.6710 O   0  0  0  0  0  1  0  0  0  0  0  0
  161.9390  212.9530  145.9530 C   0  0  0  0  0  0  0  0  0  0  0  0
  162.7000  213.3300  145.0240 O   0  0  0  0  0  0  0  0  0  0  0  0
  1  3  1  0  0  0  0
  2  5  1  0  0  0  0
  2  8  1  0  0  0  0
  3 11  1  1  0  0  0
  4  2  2  0  0  0  0
  5 10  2  0  0  0  0
  6  4  1  0  0  0  0
  6  9  2  0  0  0  0
  7 17  1  0  0  0  0
  7  3  1  0  0  0  0
  8  7  1  0  0  0  0
  9  5  1  0  0  0  0
 10  1  1  0  0  0  0
 11 12  1  1  0  0  0
 11 13  1  0  0  0  0
 13 14  1  0  0  0  0
 14 15  1  0  0  0  0
 16 14  2  0  0  0  0
 18 19  1  0  0  0  0
 18 17  1  0  0  0  0
 20 19  1  0  0  0  0
 20 21  1  0  0  0  0
 23 21  1  0  0  0  0
 23 22  1  0  0  0  0
 24 20  1  0  0  0  0
 25 26  1  0  0  0  0
 26 24  1  0  0  0  0
 27 26  2  0  0  0  0
M  END
>  <MODEL>
6

>  <REMARK>
 VINA RESULT:      -6.1      3.509      6.488
  Name = 
  11 active torsions:
  status: ('A' for Active; 'I' for Inactive)
    1  A    between atoms: C_1  and  C_4
    2  A    between atoms: C_1  and  C_22
    3  A    between atoms: C_6  and  C_15
    4  A    between atoms: C_6  and  N_20
    5  A    between atoms: C_7  and  C_14
    6  A    between atoms: C_7  and  C_27
    7  A    between atoms: C_9  and  C_22
    8  A    between atoms: C_14  and  N_20
    9  A    between atoms: N_17  and  C_27
   10  A    between atoms: C_18  and  C_19
   11  A    between atoms: C_19  and  N_20
                            x       y       z     vdW  Elec       q    Type
                         _______ _______ _______ _____ _____    ______ ____

>  <TORSDO>
F 11

$$$$
=
 OpenBabel11042420463D

 27 28  0  0  1  0  0  0  0  0999 V2000
  161.6930  205.2500  150.3540 C   0  0  0  0  0  2  0  0  0  0  0  0
  161.3910  207.7300  152.2280 C   0  0  0  0  0  0  0  0  0  0  0  0
  161.2620  206.4530  149.5120 C   0  0  1  0  0  3  0  0  0  0  0  0
  161.2040  208.3880  153.3630 C   0  0  0  0  0  2  0  0  0  0  0  0
  161.1340  206.3360  152.5540 C   0  0  0  0  0  0  0  0  0  0  0  0
  160.9020  207.4560  154.4060 N   0  0  0  0  0  0  0  0  0  0  0  0
  162.0880  207.6240  149.8780 N   0  0  0  0  0  0  0  0  0  0  0  0
  161.3550  208.3820  150.8840 C   0  0  0  0  0  2  0  0  0  0  0  0
  160.8440  206.2750  153.9390 N   0  0  0  0  0  0  0  0  0  0  0  0
  161.2000  205.2620  151.7700 C   0  0  0  0  0  2  0  0  0  0  0  0
  161.3000  206.0770  148.0140 C   0  0  2  0  0  3  0  0  0  0  0  0
  160.1010  206.4430  147.3990 O   0  0  0  0  0  1  0  0  0  0  0  0
  161.5800  204.5940  147.7860 C   0  0  0  0  0  2  0  0  0  0  0  0
  161.9590  204.3450  146.3670 C   0  0  0  0  0  0  0  0  0  0  0  0
  161.2940  203.3730  145.6310 O   0  0  0  0  0  0  0  0  0  0  0  0
  162.8590  205.0370  145.8240 O   0  0  0  0  0  1  0  0  0  0  0  0
  162.2490  208.5580  148.7680 C   0  0  0  0  0  2  0  0  0  0  0  0
  161.9500  209.9650  149.2450 C   0  0  0  0  0  2  0  0  0  0  0  0
  162.5250  210.9650  148.2620 C   0  0  0  0  0  2  0  0  0  0  0  0
  161.5740  212.0410  148.0470 N   0  0  0  0  0  0  0  0  0  0  0  0
  161.2030  212.5450  149.3620 C   0  0  0  0  0  2  0  0  0  0  0  0
  160.0200  214.3070  150.4540 O   0  0  0  0  0  1  0  0  0  0  0  0
  160.1890  213.6660  149.2260 C   0  0  0  0  0  2  0  0  0  0  0  0
  162.2990  213.1070  147.3750 C   0  0  0  0  0  2  0  0  0  0  0  0
  162.8600  213.3300  144.9560 O   0  0  0  0  0  0  0  0  0  0  0  0
  161.8960  213.1700  145.9420 C   0  0  0  0  0  0  0  0  0  0  0  0
  160.6780  213.1160  145.6290 O   0  0  0  0  0  1  0  0  0  0  0  0
  1 10  1  0  0  0  0
  2  5  2  0  0  0  0
  2  4  1  0  0  0  0
  3 11  1  6  0  0  0
  3  7  1  0  0  0  0
  3  1  1  0  0  0  0
  4  6  1  0  0  0  0
  5  9  1  0  0  0  0
  7  8  1  0  0  0  0
  8  2  1  0  0  0  0
  9  6  2  0  0  0  0
 10  5  1  0  0  0  0
 11 12  1  1  0  0  0
 13 11  1  0  0  0  0
 14 13  1  0  0  0  0
 15 14  2  0  0  0  0
 16 14  1  0  0  0  0
 17 18  1  0  0  0  0
 17  7  1  0  0  0  0
 19 18  1  0  0  0  0
 20 19  1  0  0  0  0
 20 21  1  0  0  0  0
 23 21  1  0  0  0  0
 23 22  1  0  0  0  0
 24 20  1  0  0  0  0
 25 26  2  0  0  0  0
 26 24  1  0  0  0  0
 27 26  1  0  0  0  0
M  END
>  <MODEL>
7

>  <REMARK>
 VINA RESULT:      -6.0      3.535      5.202
  Name = 
  11 active torsions:
  status: ('A' for Active; 'I' for Inactive)
    1  A    between atoms: C_1  and  C_4
    2  A    between atoms: C_1  and  C_22
    3  A    between atoms: C_6  and  C_15
    4  A    between atoms: C_6  and  N_20
    5  A    between atoms: C_7  and  C_14
    6  A    between atoms: C_7  and  C_27
    7  A    between atoms: C_9  and  C_22
    8  A    between atoms: C_14  and  N_20
    9  A    between atoms: N_17  and  C_27
   10  A    between atoms: C_18  and  C_19
   11  A    between atoms: C_19  and  N_20
                            x       y       z     vdW  Elec       q    Type
                         _______ _______ _______ _____ _____    ______ ____

>  <TORSDO>
F 11

$$$$
=
 OpenBabel11042420463D

 27 28  0  0  1  0  0  0  0  0999 V2000
  160.8080  205.8160  150.1560 C   0  0  0  0  0  2  0  0  0  0  0  0
  161.9710  206.1400  147.2760 C   0  0  0  0  0  0  0  0  0  0  0  0
  161.9150  206.8720  150.1890 C   0  0  1  0  0  3  0  0  0  0  0  0
  162.2620  205.7960  146.0300 C   0  0  0  0  0  3  0  0  0  0  0  0
  161.4450  204.9310  147.8880 C   0  0  0  0  0  0  0  0  0  0  0  0
  161.8790  204.4340  145.8140 N   0  0  0  0  0  0  0  0  0  0  0  0
  161.7270  207.8080  149.0590 N   0  0  0  0  0  0  0  0  0  0  0  0
  162.5540  207.3360  147.9560 C   0  0  0  0  0  2  0  0  0  0  0  0
  161.4240  203.9280  146.8880 N   0  0  0  0  0  0  0  0  0  0  0  0
  160.9910  204.7420  149.1260 C   0  0  0  0  0  3  0  0  0  0  0  0
  161.9530  207.5390  151.5820 C   0  0  2  0  0  3  0  0  0  0  0  0
  162.3560  206.6120  152.5450 O   0  0  0  0  0  1  0  0  0  0  0  0
  160.6150  208.1600  151.9750 C   0  0  0  0  0  2  0  0  0  0  0  0
  160.8150  209.5290  152.5260 C   0  0  0  0  0  0  0  0  0  0  0  0
  159.7170  210.3280  152.8150 O   0  0  0  0  0  1  0  0  0  0  0  0
  161.9780  209.9520  152.7590 O   0  0  0  0  0  0  0  0  0  0  0  0
  162.2430  209.1420  149.3520 C   0  0  0  0  0  2  0  0  0  0  0  0
  161.5970  210.1490  148.4220 C   0  0  0  0  0  2  0  0  0  0  0  0
  162.3280  211.4720  148.5240 C   0  0  0  0  0  2  0  0  0  0  0  0
  161.3940  212.5650  148.3140 N   0  0  0  0  0  0  0  0  0  0  0  0
  162.1640  213.6820  147.7860 C   0  0  0  0  0  2  0  0  0  0  0  0
  162.3810  214.3560  145.5070 O   0  0  0  0  0  1  0  0  0  0  0  0
  162.7020  213.3410  146.4080 C   0  0  0  0  0  2  0  0  0  0  0  0
  160.4890  212.1380  147.2590 C   0  0  0  0  0  2  0  0  0  0  0  0
  158.7550  213.4670  146.0580 O   0  0  0  0  0  0  0  0  0  0  0  0
  159.2710  212.9970  147.2570 C   0  0  0  0  0  0  0  0  0  0  0  0
  158.7340  213.3270  148.3460 O   0  0  0  0  0  1  0  0  0  0  0  0
  1  3  1  0  0  0  0
  2  5  1  0  0  0  0
  2  8  1  0  0  0  0
  3 11  1  1  0  0  0
  4  2  2  0  0  0  0
  5 10  2  0  0  0  0
  6  4  1  0  0  0  0
  6  9  2  0  0  0  0
  7 17  1  0  0  0  0
  7  3  1  0  0  0  0
  8  7  1  0  0  0  0
  9  5  1  0  0  0  0
 10  1  1  0  0  0  0
 11 13  1  0  0  0  0
 11 12  1  1  0  0  0
 13 14  1  0  0  0  0
 14 16  2  0  0  0  0
 14 15  1  0  0  0  0
 18 19  1  0  0  0  0
 18 17  1  0  0  0  0
 20 19  1  0  0  0  0
 21 20  1  0  0  0  0
 22 23  1  0  0  0  0
 23 21  1  0  0  0  0
 24 20  1  0  0  0  0
 25 26  2  0  0  0  0
 26 24  1  0  0  0  0
 26 27  1  0  0  0  0
M  END
>  <MODEL>
8

>  <REMARK>
 VINA RESULT:      -5.8      3.902      6.587
  Name = 
  11 active torsions:
  status: ('A' for Active; 'I' for Inactive)
    1  A    between atoms: C_1  and  C_4
    2  A    between atoms: C_1  and  C_22
    3  A    between atoms: C_6  and  C_15
    4  A    between atoms: C_6  and  N_20
    5  A    between atoms: C_7  and  C_14
    6  A    between atoms: C_7  and  C_27
    7  A    between atoms: C_9  and  C_22
    8  A    between atoms: C_14  and  N_20
    9  A    between atoms: N_17  and  C_27
   10  A    between atoms: C_18  and  C_19
   11  A    between atoms: C_19  and  N_20
                            x       y       z     vdW  Elec       q    Type
                         _______ _______ _______ _____ _____    ______ ____

>  <TORSDO>
F 11

$$$$
=
 OpenBabel11042420463D

 27 28  0  0  1  0  0  0  0  0999 V2000
  160.4790  209.1890  152.5060 C   0  0  0  0  0  2  0  0  0  0  0  0
  160.6070  207.3110  154.9970 C   0  0  0  0  0  0  0  0  0  0  0  0
  161.5040  208.0850  152.2370 C   0  0  1  0  0  3  0  0  0  0  0  0
  160.4760  206.9550  156.2680 C   0  0  0  0  0  2  0  0  0  0  0  0
  160.3490  208.7420  154.9800 C   0  0  0  0  0  0  0  0  0  0  0  0
  160.0820  208.0930  157.0400 N   0  0  0  0  0  0  0  0  0  0  0  0
  160.9230  206.7800  152.6230 N   0  0  0  0  0  0  0  0  0  0  0  0
  161.3490  206.4970  153.9880 C   0  0  0  0  0  2  0  0  0  0  0  0
  160.0260  209.1280  156.3030 N   0  0  0  0  0  0  0  0  0  0  0  0
  160.3400  209.5820  153.9460 C   0  0  0  0  0  2  0  0  0  0  0  0
  161.9840  208.1700  150.7710 C   0  0  2  0  0  3  0  0  0  0  0  0
  163.0840  207.3310  150.5790 O   0  0  0  0  0  1  0  0  0  0  0  0
  162.3290  209.5960  150.3460 C   0  0  0  0  0  2  0  0  0  0  0  0
  161.9560  209.8220  148.9220 C   0  0  0  0  0  0  0  0  0  0  0  0
  162.0340  211.0970  148.3780 O   0  0  0  0  0  1  0  0  0  0  0  0
  161.5990  208.8530  148.2020 O   0  0  0  0  0  0  0  0  0  0  0  0
  161.4690  205.6760  151.8390 C   0  0  0  0  0  2  0  0  0  0  0  0
  160.4550  205.2470  150.7980 C   0  0  0  0  0  2  0  0  0  0  0  0
  160.8660  203.9100  150.2130 C   0  0  0  0  0  2  0  0  0  0  0  0
  161.4830  204.1150  148.9140 N   0  0  0  0  0  0  0  0  0  0  0  0
  161.1310  202.9640  148.0950 C   0  0  0  0  0  2  0  0  0  0  0  0
  161.2230  200.6360  148.6090 O   0  0  0  0  0  1  0  0  0  0  0  0
  160.6130  201.8380  148.9710 C   0  0  0  0  0  2  0  0  0  0  0  0
  160.8300  205.2720  148.3230 C   0  0  0  0  0  2  0  0  0  0  0  0
  160.7600  206.2030  146.0120 O   0  0  0  0  0  0  0  0  0  0  0  0
  161.4960  205.6290  147.0390 C   0  0  0  0  0  0  0  0  0  0  0  0
  162.7170  205.3740  146.8720 O   0  0  0  0  0  1  0  0  0  0  0  0
  1 10  1  0  0  0  0
  2  4  1  0  0  0  0
  3 11  1  6  0  0  0
  3  1  1  0  0  0  0
  3  7  1  0  0  0  0
  4  6  1  0  0  0  0
  5  2  2  0  0  0  0
  5  9  1  0  0  0  0
  7  8  1  0  0  0  0
  8  2  1  0  0  0  0
  9  6  2  0  0  0  0
 10  5  1  0  0  0  0
 11 12  1  1  0  0  0
 13 11  1  0  0  0  0
 14 13  1  0  0  0  0
 15 14  1  0  0  0  0
 16 14  2  0  0  0  0
 17  7  1  0  0  0  0
 18 17  1  0  0  0  0
 19 18  1  0  0  0  0
 20 19  1  0  0  0  0
 21 20  1  0  0  0  0
 21 23  1  0  0  0  0
 22 23  1  0  0  0  0
 24 20  1  0  0  0  0
 25 26  2  0  0  0  0
 26 24  1  0  0  0  0
 27 26  1  0  0  0  0
M  END
>  <MODEL>
9

>  <REMARK>
 VINA RESULT:      -5.8      2.604      6.951
  Name = 
  11 active torsions:
  status: ('A' for Active; 'I' for Inactive)
    1  A    between atoms: C_1  and  C_4
    2  A    between atoms: C_1  and  C_22
    3  A    between atoms: C_6  and  C_15
    4  A    between atoms: C_6  and  N_20
    5  A    between atoms: C_7  and  C_14
    6  A    between atoms: C_7  and  C_27
    7  A    between atoms: C_9  and  C_22
    8  A    between atoms: C_14  and  N_20
    9  A    between atoms: N_17  and  C_27
   10  A    between atoms: C_18  and  C_19
   11  A    between atoms: C_19  and  N_20
                            x       y       z     vdW  Elec       q    Type
                         _______ _______ _______ _____ _____    ______ ____

>  <TORSDO>
F 11

$$$$
