=
 OpenBabel11052412063D

 50 57  0  0  1  0  0  0  0  0999 V2000
  160.7440  207.3820  150.0580 C   0  0  0  0  0  2  0  0  0  0  0  0
  162.1910  207.8420  149.9130 C   0  0  1  0  0  0  0  0  0  0  0  0
  161.6820  207.2660  151.2520 C   0  0  1  0  0  0  0  0  0  0  0  0
  162.9290  206.9270  148.9490 C   0  0  0  0  0  1  0  0  0  0  0  0
  160.8240  209.4020  155.6640 C   0  0  0  0  0  0  0  0  0  0  0  0
  161.2340  209.2730  154.2700 C   0  0  0  0  0  0  0  0  0  0  0  0
  160.1400  206.9530  155.4460 C   0  0  0  0  0  3  0  0  0  0  0  0
  160.6030  206.9110  154.2240 N   0  0  0  0  0  0  0  0  0  0  0  0
  161.6580  210.2300  153.4280 N   0  0  0  0  0  0  0  0  0  0  0  0
  161.0800  210.4450  156.3230 O   0  0  0  0  0  0  0  0  0  0  0  0
  161.1450  208.0850  153.6120 C   0  0  0  0  0  0  0  0  0  0  0  0
  161.5290  208.2520  152.3330 N   0  0  0  0  0  0  0  0  0  0  0  0
  161.8350  209.5730  152.2490 C   0  0  0  0  0  3  0  0  0  0  0  0
  160.1400  208.2170  156.3070 C   0  0  0  0  0  2  0  0  0  0  0  0
  162.2180  205.8780  151.6790 C   0  0  0  0  0  2  0  0  0  0  0  0
  161.9700  203.4770  151.8430 C   0  0  2  0  0  3  0  0  0  0  0  0
  160.8660  204.0740  152.6040 N   0  0  0  0  0  2  0  0  0  0  0  0
  161.3320  204.6800  151.3390 C   0  0  1  0  0  3  0  0  0  0  0  0
  161.4690  202.2240  151.1330 C   0  0  0  0  0  2  0  0  0  0  0  0
  160.1140  202.4820  150.4630 C   0  0  0  0  0  2  0  0  0  0  0  0
  161.2080  200.9440  148.8210 C   0  0  0  0  0  2  0  0  0  0  0  0
  161.4460  202.3700  148.3440 C   0  0  2  0  0  3  0  0  0  0  0  0
  160.1460  201.9960  149.0210 C   0  0  2  0  0  3  0  0  0  0  0  0
  161.1640  202.4530  146.9220 N   0  0  0  0  0  2  0  0  0  0  0  0
  162.7690  204.0440  146.3230 O   0  0  0  0  0  0  0  0  0  0  0  0
  161.6690  203.4800  146.0720 C   0  0  0  0  0  0  0  0  0  0  0  0
  160.8710  203.8840  144.9100 C   0  0  0  0  0  0  0  0  0  0  0  0
  159.9260  203.1570  144.4840 O   0  0  0  0  0  0  0  0  0  0  0  0
  161.1950  205.0840  144.2760 O   0  0  0  0  0  0  0  0  0  0  0  0
  160.4190  206.3500  146.1750 C   0  0  0  0  0  1  0  0  0  0  0  0
  160.6660  206.3490  144.6750 C   0  0  0  0  0  2  0  0  0  0  0  0
  162.2210  209.3520  149.6980 C   0  0  0  0  0  2  0  0  0  0  0  0
  161.9310  209.7590  148.2630 C   0  0  0  0  0  2  0  0  0  0  0  0
  161.4000  211.0580  148.2010 O   0  0  0  0  0  0  0  0  0  0  0  0
  162.3310  211.8390  148.9140 C   0  0  0  0  0  2  0  0  0  0  0  0
  162.8120  213.0360  148.0900 C   0  0  0  0  0  2  0  0  0  0  0  0
  161.6860  212.6490  141.2730 N   0  0  0  0  0  0  0  0  0  0  0  0
  161.4580  213.6300  146.0470 C   0  0  0  0  0  0  0  0  0  0  0  0
  158.0520  213.6220  144.6790 C   0  0  0  0  0  1  0  0  0  0  0  0
  159.4830  213.8690  144.6400 N   0  0  0  0  0  0  0  0  0  0  0  0
  160.2540  213.4990  143.4790 C   0  0  0  0  0  0  0  0  0  0  0  0
  161.6040  213.0830  143.6190 C   0  0  0  0  0  0  0  0  0  0  0  0
  162.2870  212.9980  144.9710 C   0  0  0  0  0  3  0  0  0  0  0  0
  162.2920  212.6440  142.4870 C   0  0  0  0  0  2  0  0  0  0  0  0
  161.7220  213.6750  147.3630 N   0  0  0  0  0  0  0  0  0  0  0  0
  159.6660  213.5080  142.2090 C   0  0  0  0  0  3  0  0  0  0  0  0
  160.4090  213.0870  141.1090 C   0  0  0  0  0  3  0  0  0  0  0  0
  160.6110  214.1900  147.9390 C   0  0  0  0  0  3  0  0  0  0  0  0
  160.1970  214.1120  145.8540 C   0  0  0  0  0  0  0  0  0  0  0  0
  159.6410  214.4530  147.0330 N   0  0  0  0  0  0  0  0  0  0  0  0
  1  3  1  0  0  0  0
  2  4  1  6  0  0  0
  2  1  1  0  0  0  0
  2  3  1  0  0  0  0
  3 15  1  1  0  0  0
  3 12  1  0  0  0  0
  5 14  1  0  0  0  0
  5 10  2  0  0  0  0
  6  5  1  0  0  0  0
  7 14  1  0  0  0  0
  8  7  2  0  0  0  0
  9  6  1  0  0  0  0
 11  8  1  0  0  0  0
 11  6  2  0  0  0  0
 12 11  1  0  0  0  0
 13 12  1  0  0  0  0
 13  9  2  0  0  0  0
 16 19  1  6  0  0  0
 16 17  1  0  0  0  0
 18 15  1  1  0  0  0
 18 16  1  0  0  0  0
 18 17  1  0  0  0  0
 20 19  1  0  0  0  0
 21 23  1  0  0  0  0
 22 24  1  6  0  0  0
 22 21  1  0  0  0  0
 22 23  1  0  0  0  0
 23 20  1  1  0  0  0
 26 25  2  0  0  0  0
 26 24  1  0  0  0  0
 27 26  1  0  0  0  0
 28 27  2  0  0  0  0
 29 31  1  0  0  0  0
 29 27  1  0  0  0  0
 31 30  1  0  0  0  0
 32  2  1  0  0  0  0
 33 32  1  0  0  0  0
 34 33  1  0  0  0  0
 34 35  1  0  0  0  0
 36 35  1  0  0  0  0
 37 44  1  0  0  0  0
 38 45  1  0  0  0  0
 40 39  1  0  0  0  0
 40 49  1  0  0  0  0
 41 42  1  0  0  0  0
 41 40  1  0  0  0  0
 42 43  2  0  0  0  0
 43 38  1  0  0  0  0
 44 42  1  0  0  0  0
 45 48  1  0  0  0  0
 45 36  1  0  0  0  0
 46 41  2  0  0  0  0
 47 37  2  0  0  0  0
 47 46  1  0  0  0  0
 49 38  2  0  0  0  0
 49 50  1  0  0  0  0
 50 48  2  0  0  0  0
M  END
>  <MODEL>
1

>  <REMARK>
 VINA RESULT:      -7.4      0.000      0.000
  Name = 
  16 active torsions:
  status: ('A' for Active; 'I' for Inactive)
    1  A    between atoms: N_10  and  C_40
    2  A    between atoms: C_11  and  C_19
    3  A    between atoms: C_15  and  C_25
    4  A    between atoms: C_15  and  C_28
    5  A    between atoms: C_16  and  C_20
    6  A    between atoms: C_16  and  N_38
    7  A    between atoms: O_18  and  C_24
    8  A    between atoms: O_18  and  C_44
    9  A    between atoms: C_19  and  C_34
   10  A    between atoms: C_20  and  O_31
   11  A    between atoms: C_23  and  C_47
   12  A    between atoms: C_24  and  C_29
   13  A    between atoms: C_28  and  O_31
   14  A    between atoms: C_34  and  C_49
   15  A    between atoms: C_35  and  N_36
   16  A    between atoms: C_35  and  C_47
                            x       y       z     vdW  Elec       q    Type
                         _______ _______ _______ _____ _____    ______ ____

>  <TORSDO>
F 16

$$$$
=
 OpenBabel11052412063D

 50 57  0  0  1  0  0  0  0  0999 V2000
  161.9610  214.1110  148.2430 C   0  0  0  0  0  2  0  0  0  0  0  0
  160.6720  213.4410  148.7090 C   0  0  1  0  0  0  0  0  0  0  0  0
  161.6170  212.7210  147.7230 C   0  0  1  0  0  0  0  0  0  0  0  0
  160.7650  213.1160  150.1910 C   0  0  0  0  0  1  0  0  0  0  0  0
  161.2910  212.7480  142.7570 C   0  0  0  0  0  0  0  0  0  0  0  0
  160.8990  212.5410  144.1470 C   0  0  0  0  0  0  0  0  0  0  0  0
  163.4270  213.7310  143.7520 C   0  0  0  0  0  3  0  0  0  0  0  0
  163.0230  213.4390  144.9600 N   0  0  0  0  0  0  0  0  0  0  0  0
  159.7180  212.1220  144.6320 N   0  0  0  0  0  0  0  0  0  0  0  0
  160.5980  212.2910  141.8100 O   0  0  0  0  0  0  0  0  0  0  0  0
  161.7370  212.8500  145.1730 C   0  0  0  0  0  0  0  0  0  0  0  0
  161.1140  212.6190  146.3440 N   0  0  0  0  0  0  0  0  0  0  0  0
  159.8820  212.1760  145.9820 C   0  0  0  0  0  3  0  0  0  0  0  0
  162.5920  213.4750  142.4960 C   0  0  0  0  0  2  0  0  0  0  0  0
  162.3900  211.4880  148.2500 C   0  0  0  0  0  2  0  0  0  0  0  0
  162.3350  209.1170  148.7240 C   0  0  2  0  0  3  0  0  0  0  0  0
  162.1620  209.8130  150.0050 N   0  0  0  0  0  2  0  0  0  0  0  0
  161.5390  210.3300  148.7690 C   0  0  1  0  0  3  0  0  0  0  0  0
  161.4660  207.8630  148.7140 C   0  0  0  0  0  2  0  0  0  0  0  0
  161.4980  207.1900  147.3370 C   0  0  0  0  0  2  0  0  0  0  0  0
  162.8950  205.4960  146.1370 C   0  0  0  0  0  2  0  0  0  0  0  0
  161.5780  204.8280  146.5060 C   0  0  2  0  0  3  0  0  0  0  0  0
  162.2060  205.8450  147.4320 C   0  0  2  0  0  3  0  0  0  0  0  0
  161.8470  203.5220  147.0810 N   0  0  0  0  0  2  0  0  0  0  0  0
  160.4260  202.2330  145.7460 O   0  0  0  0  0  0  0  0  0  0  0  0
  161.0510  202.3660  146.8330 C   0  0  0  0  0  0  0  0  0  0  0  0
  160.9540  201.3430  147.8800 C   0  0  0  0  0  0  0  0  0  0  0  0
  161.6540  200.2900  147.8280 O   0  0  0  0  0  0  0  0  0  0  0  0
  160.0550  201.5580  148.9260 O   0  0  0  0  0  0  0  0  0  0  0  0
  161.0140  202.7290  150.8010 C   0  0  0  0  0  1  0  0  0  0  0  0
  160.4080  201.4270  150.3020 C   0  0  0  0  0  2  0  0  0  0  0  0
  159.4760  214.2260  148.1790 C   0  0  0  0  0  2  0  0  0  0  0  0
  158.3970  214.4520  149.2250 C   0  0  0  0  0  2  0  0  0  0  0  0
  157.2580  213.6750  148.9560 O   0  0  0  0  0  0  0  0  0  0  0  0
  156.7940  213.3010  150.2320 C   0  0  0  0  0  2  0  0  0  0  0  0
  157.3130  214.2430  151.3210 C   0  0  0  0  0  2  0  0  0  0  0  0
  160.9390  209.0090  154.0320 N   0  0  0  0  0  0  0  0  0  0  0  0
  157.8200  212.6750  153.2300 C   0  0  0  0  0  0  0  0  0  0  0  0
  158.6260  212.5720  156.8080 C   0  0  0  0  0  1  0  0  0  0  0  0
  158.3650  211.9900  155.5030 N   0  0  0  0  0  0  0  0  0  0  0  0
  159.2070  210.9370  154.9940 C   0  0  0  0  0  0  0  0  0  0  0  0
  159.4470  210.8230  153.5990 C   0  0  0  0  0  0  0  0  0  0  0  0
  158.8500  211.7910  152.5960 C   0  0  0  0  0  3  0  0  0  0  0  0
  160.3400  209.8500  153.1500 C   0  0  0  0  0  2  0  0  0  0  0  0
  157.1440  213.6850  152.6560 N   0  0  0  0  0  0  0  0  0  0  0  0
  159.8280  210.0420  155.8730 C   0  0  0  0  0  3  0  0  0  0  0  0
  160.6880  209.0710  155.3670 C   0  0  0  0  0  3  0  0  0  0  0  0
  156.4670  214.2850  153.6620 C   0  0  0  0  0  3  0  0  0  0  0  0
  157.5430  212.6880  154.5640 C   0  0  0  0  0  0  0  0  0  0  0  0
  156.7080  213.7030  154.8590 N   0  0  0  0  0  0  0  0  0  0  0  0
  1  2  1  0  0  0  0
  2  4  1  1  0  0  0
  3  1  1  0  0  0  0
  3 15  1  1  0  0  0
  3  2  1  0  0  0  0
  5  6  1  0  0  0  0
  6  9  1  0  0  0  0
  6 11  2  0  0  0  0
  7  8  2  0  0  0  0
  8 11  1  0  0  0  0
  9 13  2  0  0  0  0
 10  5  2  0  0  0  0
 11 12  1  0  0  0  0
 12  3  1  0  0  0  0
 13 12  1  0  0  0  0
 14  5  1  0  0  0  0
 14  7  1  0  0  0  0
 16 19  1  1  0  0  0
 16 18  1  0  0  0  0
 16 17  1  0  0  0  0
 18 15  1  6  0  0  0
 18 17  1  0  0  0  0
 20 19  1  0  0  0  0
 21 22  1  0  0  0  0
 21 23  1  0  0  0  0
 22 24  1  1  0  0  0
 22 23  1  0  0  0  0
 23 20  1  6  0  0  0
 25 26  2  0  0  0  0
 26 24  1  0  0  0  0
 26 27  1  0  0  0  0
 27 29  1  0  0  0  0
 28 27  2  0  0  0  0
 29 31  1  0  0  0  0
 31 30  1  0  0  0  0
 32  2  1  0  0  0  0
 32 33  1  0  0  0  0
 34 33  1  0  0  0  0
 34 35  1  0  0  0  0
 35 36  1  0  0  0  0
 36 45  1  0  0  0  0
 37 47  2  0  0  0  0
 38 49  2  0  0  0  0
 40 39  1  0  0  0  0
 41 40  1  0  0  0  0
 41 46  2  0  0  0  0
 42 41  1  0  0  0  0
 43 38  1  0  0  0  0
 43 42  2  0  0  0  0
 44 42  1  0  0  0  0
 44 37  1  0  0  0  0
 45 38  1  0  0  0  0
 45 48  1  0  0  0  0
 47 46  1  0  0  0  0
 48 50  2  0  0  0  0
 49 50  1  0  0  0  0
 49 40  1  0  0  0  0
M  END
>  <MODEL>
2

>  <REMARK>
 VINA RESULT:      -7.3      3.029      8.708
  Name = 
  16 active torsions:
  status: ('A' for Active; 'I' for Inactive)
    1  A    between atoms: N_10  and  C_40
    2  A    between atoms: C_11  and  C_19
    3  A    between atoms: C_15  and  C_25
    4  A    between atoms: C_15  and  C_28
    5  A    between atoms: C_16  and  C_20
    6  A    between atoms: C_16  and  N_38
    7  A    between atoms: O_18  and  C_24
    8  A    between atoms: O_18  and  C_44
    9  A    between atoms: C_19  and  C_34
   10  A    between atoms: C_20  and  O_31
   11  A    between atoms: C_23  and  C_47
   12  A    between atoms: C_24  and  C_29
   13  A    between atoms: C_28  and  O_31
   14  A    between atoms: C_34  and  C_49
   15  A    between atoms: C_35  and  N_36
   16  A    between atoms: C_35  and  C_47
                            x       y       z     vdW  Elec       q    Type
                         _______ _______ _______ _____ _____    ______ ____

>  <TORSDO>
F 16

$$$$
=
 OpenBabel11052412063D

 50 57  0  0  1  0  0  0  0  0999 V2000
  163.0280  207.8140  150.5250 C   0  0  0  0  0  2  0  0  0  0  0  0
  161.7350  208.4740  150.0570 C   0  0  1  0  0  0  0  0  0  0  0  0
  161.8250  206.9390  150.1980 C   0  0  1  0  0  0  0  0  0  0  0  0
  161.1290  209.2850  151.1910 C   0  0  0  0  0  1  0  0  0  0  0  0
  161.2810  203.4180  146.7230 C   0  0  0  0  0  0  0  0  0  0  0  0
  161.5860  204.7200  147.3070 C   0  0  0  0  0  0  0  0  0  0  0  0
  160.8370  202.7030  149.1320 C   0  0  0  0  0  3  0  0  0  0  0  0
  161.0560  203.9190  149.5560 N   0  0  0  0  0  0  0  0  0  0  0  0
  162.0870  205.8130  146.7070 N   0  0  0  0  0  0  0  0  0  0  0  0
  161.2240  203.2640  145.4740 O   0  0  0  0  0  0  0  0  0  0  0  0
  161.4520  204.9460  148.6430 C   0  0  0  0  0  0  0  0  0  0  0  0
  161.8500  206.2000  148.9260 N   0  0  0  0  0  0  0  0  0  0  0  0
  162.2340  206.7060  147.7250 C   0  0  0  0  0  3  0  0  0  0  0  0
  160.9740  202.2790  147.6690 C   0  0  0  0  0  2  0  0  0  0  0  0
  161.0160  206.2810  151.3420 C   0  0  0  0  0  2  0  0  0  0  0  0
  160.6550  206.6670  153.7030 C   0  0  2  0  0  3  0  0  0  0  0  0
  161.0300  205.2560  153.5520 N   0  0  0  0  0  2  0  0  0  0  0  0
  161.6650  206.3030  152.7250 C   0  0  1  0  0  3  0  0  0  0  0  0
  161.2730  207.2150  154.9850 C   0  0  0  0  0  2  0  0  0  0  0  0
  160.2940  208.1540  155.7020 C   0  0  0  0  0  2  0  0  0  0  0  0
  161.4860  210.1700  154.8210 C   0  0  0  0  0  2  0  0  0  0  0  0
  160.4340  210.6530  155.8110 C   0  0  2  0  0  3  0  0  0  0  0  0
  160.1610  209.4570  154.9260 C   0  0  2  0  0  3  0  0  0  0  0  0
  159.7090  211.7700  155.2330 N   0  0  0  0  0  2  0  0  0  0  0  0
  157.7340  211.6060  156.4750 O   0  0  0  0  0  0  0  0  0  0  0  0
  158.3140  211.9940  155.4240 C   0  0  0  0  0  0  0  0  0  0  0  0
  157.5600  212.6640  154.3590 C   0  0  0  0  0  0  0  0  0  0  0  0
  156.2950  212.7200  154.3930 O   0  0  0  0  0  0  0  0  0  0  0  0
  158.2760  213.2220  153.2990 O   0  0  0  0  0  0  0  0  0  0  0  0
  159.9170  212.7610  151.5950 C   0  0  0  0  0  1  0  0  0  0  0  0
  158.4830  212.5530  152.0560 C   0  0  0  0  0  2  0  0  0  0  0  0
  161.9660  209.1270  148.6980 C   0  0  0  0  0  2  0  0  0  0  0  0
  161.5110  210.5760  148.6440 C   0  0  0  0  0  2  0  0  0  0  0  0
  162.4840  211.4340  149.1850 O   0  0  0  0  0  0  0  0  0  0  0  0
  163.1090  211.9940  148.0540 C   0  0  0  0  0  2  0  0  0  0  0  0
  162.9790  213.5190  148.0350 C   0  0  0  0  0  2  0  0  0  0  0  0
  161.1250  212.3860  141.4640 N   0  0  0  0  0  0  0  0  0  0  0  0
  161.3310  213.7610  146.1420 C   0  0  0  0  0  0  0  0  0  0  0  0
  157.8190  213.2250  145.2220 C   0  0  0  0  0  1  0  0  0  0  0  0
  159.1920  213.6360  144.9820 N   0  0  0  0  0  0  0  0  0  0  0  0
  159.8630  213.2570  143.7640 C   0  0  0  0  0  0  0  0  0  0  0  0
  161.2630  213.0180  143.7630 C   0  0  0  0  0  0  0  0  0  0  0  0
  162.1040  213.1370  145.0200 C   0  0  0  0  0  3  0  0  0  0  0  0
  161.8640  212.5630  142.5890 C   0  0  0  0  0  2  0  0  0  0  0  0
  161.7390  213.9560  147.4070 N   0  0  0  0  0  0  0  0  0  0  0  0
  159.1350  213.0810  142.5830 C   0  0  0  0  0  3  0  0  0  0  0  0
  159.7920  212.6530  141.4310 C   0  0  0  0  0  3  0  0  0  0  0  0
  160.6460  214.3860  148.0780 C   0  0  0  0  0  3  0  0  0  0  0  0
  160.0050  214.0700  146.0750 C   0  0  0  0  0  0  0  0  0  0  0  0
  159.5510  214.4480  147.2850 N   0  0  0  0  0  0  0  0  0  0  0  0
  2  3  1  0  0  0  0
  2  1  1  0  0  0  0
  2  4  1  1  0  0  0
  3  1  1  0  0  0  0
  3 15  1  1  0  0  0
  5  6  1  0  0  0  0
  5 14  1  0  0  0  0
  6 11  2  0  0  0  0
  7  8  2  0  0  0  0
  9  6  1  0  0  0  0
  9 13  2  0  0  0  0
 10  5  2  0  0  0  0
 11 12  1  0  0  0  0
 11  8  1  0  0  0  0
 12  3  1  0  0  0  0
 13 12  1  0  0  0  0
 14  7  1  0  0  0  0
 16 19  1  1  0  0  0
 17 16  1  0  0  0  0
 18 15  1  6  0  0  0
 18 17  1  0  0  0  0
 18 16  1  0  0  0  0
 19 20  1  0  0  0  0
 21 23  1  0  0  0  0
 21 22  1  0  0  0  0
 22 24  1  6  0  0  0
 23 20  1  1  0  0  0
 23 22  1  0  0  0  0
 24 26  1  0  0  0  0
 26 25  2  0  0  0  0
 27 28  2  0  0  0  0
 27 26  1  0  0  0  0
 29 27  1  0  0  0  0
 30 31  1  0  0  0  0
 31 29  1  0  0  0  0
 32  2  1  0  0  0  0
 33 32  1  0  0  0  0
 33 34  1  0  0  0  0
 35 34  1  0  0  0  0
 36 35  1  0  0  0  0
 37 44  1  0  0  0  0
 38 45  1  0  0  0  0
 40 39  1  0  0  0  0
 40 49  1  0  0  0  0
 41 40  1  0  0  0  0
 42 41  1  0  0  0  0
 42 43  2  0  0  0  0
 43 38  1  0  0  0  0
 44 42  1  0  0  0  0
 45 36  1  0  0  0  0
 45 48  1  0  0  0  0
 46 41  2  0  0  0  0
 47 37  2  0  0  0  0
 47 46  1  0  0  0  0
 49 38  2  0  0  0  0
 49 50  1  0  0  0  0
 50 48  2  0  0  0  0
M  END
>  <MODEL>
3

>  <REMARK>
 VINA RESULT:      -7.3      2.139      6.942
  Name = 
  16 active torsions:
  status: ('A' for Active; 'I' for Inactive)
    1  A    between atoms: N_10  and  C_40
    2  A    between atoms: C_11  and  C_19
    3  A    between atoms: C_15  and  C_25
    4  A    between atoms: C_15  and  C_28
    5  A    between atoms: C_16  and  C_20
    6  A    between atoms: C_16  and  N_38
    7  A    between atoms: O_18  and  C_24
    8  A    between atoms: O_18  and  C_44
    9  A    between atoms: C_19  and  C_34
   10  A    between atoms: C_20  and  O_31
   11  A    between atoms: C_23  and  C_47
   12  A    between atoms: C_24  and  C_29
   13  A    between atoms: C_28  and  O_31
   14  A    between atoms: C_34  and  C_49
   15  A    between atoms: C_35  and  N_36
   16  A    between atoms: C_35  and  C_47
                            x       y       z     vdW  Elec       q    Type
                         _______ _______ _______ _____ _____    ______ ____

>  <TORSDO>
F 16

$$$$
=
 OpenBabel11052412063D

 50 57  0  0  1  0  0  0  0  0999 V2000
  160.5920  208.8980  150.7720 C   0  0  0  0  0  2  0  0  0  0  0  0
  162.0470  209.3040  150.5580 C   0  0  1  0  0  0  0  0  0  0  0  0
  161.5840  208.7320  151.9160 C   0  0  1  0  0  0  0  0  0  0  0  0
  162.7000  208.3720  149.5500 C   0  0  0  0  0  1  0  0  0  0  0  0
  160.0160  212.1930  155.1310 C   0  0  0  0  0  0  0  0  0  0  0  0
  160.8900  211.1960  154.5210 C   0  0  0  0  0  0  0  0  0  0  0  0
  158.4780  211.7140  153.1510 C   0  0  0  0  0  3  0  0  0  0  0  0
  159.2880  210.7830  152.7200 N   0  0  0  0  0  0  0  0  0  0  0  0
  162.1380  210.8470  154.8730 N   0  0  0  0  0  0  0  0  0  0  0  0
  160.2730  212.6750  156.2650 O   0  0  0  0  0  0  0  0  0  0  0  0
  160.5210  210.5230  153.3970 C   0  0  0  0  0  0  0  0  0  0  0  0
  161.5230  209.7120  153.0130 N   0  0  0  0  0  0  0  0  0  0  0  0
  162.4980  209.9310  153.9320 C   0  0  0  0  0  3  0  0  0  0  0  0
  158.7610  212.5780  154.3810 C   0  0  0  0  0  2  0  0  0  0  0  0
  162.0860  207.3200  152.3030 C   0  0  0  0  0  2  0  0  0  0  0  0
  161.6530  205.0040  152.8490 C   0  0  2  0  0  3  0  0  0  0  0  0
  160.8700  205.8180  153.7860 N   0  0  0  0  0  2  0  0  0  0  0  0
  161.0250  206.2230  152.3730 C   0  0  1  0  0  3  0  0  0  0  0  0
  160.8510  203.7620  152.4710 C   0  0  0  0  0  2  0  0  0  0  0  0
  161.5490  202.9840  151.3490 C   0  0  0  0  0  2  0  0  0  0  0  0
  160.2530  201.3340  149.9860 C   0  0  0  0  0  2  0  0  0  0  0  0
  161.2500  202.0150  149.0580 C   0  0  2  0  0  3  0  0  0  0  0  0
  160.5940  202.7900  150.1790 C   0  0  2  0  0  3  0  0  0  0  0  0
  160.5740  202.4070  147.8340 N   0  0  0  0  0  2  0  0  0  0  0  0
  161.1810  200.5960  146.4850 O   0  0  0  0  0  0  0  0  0  0  0  0
  160.8140  201.8000  146.5660 C   0  0  0  0  0  0  0  0  0  0  0  0
  160.6470  202.6130  145.3570 C   0  0  0  0  0  0  0  0  0  0  0  0
  159.7690  202.3220  144.4930 O   0  0  0  0  0  0  0  0  0  0  0  0
  161.4980  203.7040  145.1780 O   0  0  0  0  0  0  0  0  0  0  0  0
  160.4780  205.8830  145.3330 C   0  0  0  0  0  1  0  0  0  0  0  0
  161.1400  204.8610  144.4220 C   0  0  0  0  0  2  0  0  0  0  0  0
  162.1240  210.8140  150.3560 C   0  0  0  0  0  2  0  0  0  0  0  0
  162.0810  211.2250  148.8940 C   0  0  0  0  0  2  0  0  0  0  0  0
  161.0000  212.0860  148.6410 O   0  0  0  0  0  0  0  0  0  0  0  0
  161.5510  213.0910  147.8220 C   0  0  0  0  0  2  0  0  0  0  0  0
  160.7510  213.2690  146.5300 C   0  0  0  0  0  2  0  0  0  0  0  0
  158.5170  213.2350  139.9800 N   0  0  0  0  0  0  0  0  0  0  0  0
  161.1960  213.0720  144.0550 C   0  0  0  0  0  0  0  0  0  0  0  0
  163.2690  214.3960  141.3320 C   0  0  0  0  0  1  0  0  0  0  0  0
  162.2420  213.5450  141.9060 N   0  0  0  0  0  0  0  0  0  0  0  0
  160.9720  213.3880  141.2430 C   0  0  1  0  0  3  0  0  0  0  0  0
  159.7880  213.1840  142.0010 C   0  0  0  0  0  0  0  0  0  0  0  0
  159.7990  213.1340  143.5170 C   0  0  0  0  0  3  0  0  0  0  0  0
  158.5650  213.1290  141.3320 C   0  0  0  0  0  3  0  0  0  0  0  0
  161.5770  213.0850  145.3430 N   0  0  0  0  0  0  0  0  0  0  0  0
  160.8880  213.4750  139.8490 C   0  0  0  0  0  3  0  0  0  0  0  0
  159.6430  213.3840  139.2310 C   0  0  0  0  0  3  0  0  0  0  0  0
  162.9260  213.1860  145.3210 C   0  0  0  0  0  3  0  0  0  0  0  0
  162.3150  213.1710  143.2840 C   0  0  0  0  0  0  0  0  0  0  0  0
  163.4130  213.2620  144.0610 N   0  0  0  0  0  0  0  0  0  0  0  0
  1  3  1  0  0  0  0
  2  4  1  6  0  0  0
  2  1  1  0  0  0  0
  2  3  1  0  0  0  0
  3 15  1  1  0  0  0
  3 12  1  0  0  0  0
  5 10  2  0  0  0  0
  6  9  1  0  0  0  0
  6  5  1  0  0  0  0
  7 14  1  0  0  0  0
  8  7  2  0  0  0  0
  8 11  1  0  0  0  0
 11  6  2  0  0  0  0
 12 11  1  0  0  0  0
 12 13  1  0  0  0  0
 13  9  2  0  0  0  0
 14  5  1  0  0  0  0
 16 19  1  6  0  0  0
 16 17  1  0  0  0  0
 18 15  1  1  0  0  0
 18 16  1  0  0  0  0
 18 17  1  0  0  0  0
 20 19  1  0  0  0  0
 21 23  1  0  0  0  0
 22 24  1  6  0  0  0
 22 21  1  0  0  0  0
 22 23  1  0  0  0  0
 23 20  1  1  0  0  0
 25 26  2  0  0  0  0
 26 24  1  0  0  0  0
 27 26  1  0  0  0  0
 28 27  2  0  0  0  0
 29 27  1  0  0  0  0
 31 29  1  0  0  0  0
 31 30  1  0  0  0  0
 32  2  1  0  0  0  0
 33 32  1  0  0  0  0
 34 33  1  0  0  0  0
 35 34  1  0  0  0  0
 36 35  1  0  0  0  0
 37 44  2  0  0  0  0
 38 45  1  0  0  0  0
 39 40  1  0  0  0  0
 40 49  1  0  0  0  0
 41 46  1  1  0  0  0
 41 40  1  0  0  0  0
 41 42  1  0  0  0  0
 42 43  2  0  0  0  0
 43 38  1  0  0  0  0
 44 42  1  0  0  0  0
 45 36  1  0  0  0  0
 47 46  2  0  0  0  0
 47 37  1  0  0  0  0
 48 45  1  0  0  0  0
 49 38  2  0  0  0  0
 49 50  1  0  0  0  0
 50 48  2  0  0  0  0
M  END
>  <MODEL>
4

>  <REMARK>
 VINA RESULT:      -7.1      1.775      2.687
  Name = 
  16 active torsions:
  status: ('A' for Active; 'I' for Inactive)
    1  A    between atoms: N_10  and  C_40
    2  A    between atoms: C_11  and  C_19
    3  A    between atoms: C_15  and  C_25
    4  A    between atoms: C_15  and  C_28
    5  A    between atoms: C_16  and  C_20
    6  A    between atoms: C_16  and  N_38
    7  A    between atoms: O_18  and  C_24
    8  A    between atoms: O_18  and  C_44
    9  A    between atoms: C_19  and  C_34
   10  A    between atoms: C_20  and  O_31
   11  A    between atoms: C_23  and  C_47
   12  A    between atoms: C_24  and  C_29
   13  A    between atoms: C_28  and  O_31
   14  A    between atoms: C_34  and  C_49
   15  A    between atoms: C_35  and  N_36
   16  A    between atoms: C_35  and  C_47
                            x       y       z     vdW  Elec       q    Type
                         _______ _______ _______ _____ _____    ______ ____

>  <TORSDO>
F 16

$$$$
=
 OpenBabel11052412063D

 50 57  0  0  1  0  0  0  0  0999 V2000
  159.6670  210.7030  151.8920 C   0  0  0  0  0  2  0  0  0  0  0  0
  161.1700  210.9680  151.8890 C   0  0  1  0  0  0  0  0  0  0  0  0
  160.1710  212.1150  151.6210 C   0  0  1  0  0  0  0  0  0  0  0  0
  161.7280  210.7880  153.2920 C   0  0  0  0  0  1  0  0  0  0  0  0
  158.6310  213.8720  147.2270 C   0  0  0  0  0  0  0  0  0  0  0  0
  159.5490  213.4320  148.2720 C   0  0  0  0  0  0  0  0  0  0  0  0
  156.8030  213.1810  148.8680 C   0  0  0  0  0  3  0  0  0  0  0  0
  157.6980  212.8820  149.7720 N   0  0  0  0  0  0  0  0  0  0  0  0
  160.8870  213.3140  148.2200 N   0  0  0  0  0  0  0  0  0  0  0  0
  159.0540  214.4530  146.1930 O   0  0  0  0  0  0  0  0  0  0  0  0
  159.0930  212.9890  149.4760 C   0  0  0  0  0  0  0  0  0  0  0  0
  160.1350  212.5930  150.2300 N   0  0  0  0  0  0  0  0  0  0  0  0
  161.2170  212.8010  149.4370 C   0  0  0  0  0  3  0  0  0  0  0  0
  157.1510  213.6630  147.4600 C   0  0  0  0  0  2  0  0  0  0  0  0
  160.0310  213.2050  152.7110 C   0  0  0  0  0  2  0  0  0  0  0  0
  157.8340  213.2030  153.7240 C   0  0  2  0  0  3  0  0  0  0  0  0
  158.5030  214.4360  154.1550 N   0  0  0  0  0  2  0  0  0  0  0  0
  158.6800  213.9160  152.7840 C   0  0  1  0  0  3  0  0  0  0  0  0
  156.3540  213.4890  153.4920 C   0  0  0  0  0  2  0  0  0  0  0  0
  155.5220  213.0760  154.7120 C   0  0  0  0  0  2  0  0  0  0  0  0
  155.4370  211.5300  156.6780 C   0  0  0  0  0  2  0  0  0  0  0  0
  156.6420  212.4420  156.8620 C   0  0  2  0  0  3  0  0  0  0  0  0
  156.2390  211.9740  155.4810 C   0  0  2  0  0  3  0  0  0  0  0  0
  157.7920  211.6440  157.2500 N   0  0  0  0  0  2  0  0  0  0  0  0
  159.4650  213.2520  156.9700 O   0  0  0  0  0  0  0  0  0  0  0  0
  159.1430  212.0340  157.0170 C   0  0  0  0  0  0  0  0  0  0  0  0
  160.1490  210.9870  156.8100 C   0  0  0  0  0  0  0  0  0  0  0  0
  161.3820  211.2710  156.7530 O   0  0  0  0  0  0  0  0  0  0  0  0
  159.7060  209.6720  156.6600 O   0  0  0  0  0  0  0  0  0  0  0  0
  159.7960  207.3410  156.0540 C   0  0  0  0  0  1  0  0  0  0  0  0
  160.3060  208.7420  155.7590 C   0  0  0  0  0  2  0  0  0  0  0  0
  161.8100  210.2290  150.7180 C   0  0  0  0  0  2  0  0  0  0  0  0
  161.4920  208.7430  150.7020 C   0  0  0  0  0  2  0  0  0  0  0  0
  162.5380  208.0070  150.1210 O   0  0  0  0  0  0  0  0  0  0  0  0
  162.4830  208.3570  148.7580 C   0  0  0  0  0  2  0  0  0  0  0  0
  161.2930  207.7010  148.0540 C   0  0  0  0  0  2  0  0  0  0  0  0
  160.6400  201.3470  150.7170 N   0  0  0  0  0  0  0  0  0  0  0  0
  161.5570  205.2000  147.8660 C   0  0  0  0  0  0  0  0  0  0  0  0
  160.7680  202.3170  145.7380 C   0  0  0  0  0  1  0  0  0  0  0  0
  161.3350  202.9730  146.9030 N   0  0  0  0  0  0  0  0  0  0  0  0
  161.1480  202.4120  148.2170 C   0  0  1  0  0  3  0  0  0  0  0  0
  161.0510  203.2620  149.3510 C   0  0  0  0  0  0  0  0  0  0  0  0
  161.1280  204.7720  149.2370 C   0  0  0  0  0  3  0  0  0  0  0  0
  160.7770  202.6920  150.5950 C   0  0  0  0  0  3  0  0  0  0  0  0
  161.6650  206.4540  147.3970 N   0  0  0  0  0  0  0  0  0  0  0  0
  161.0190  201.0290  148.3830 C   0  0  0  0  0  3  0  0  0  0  0  0
  160.7750  200.5110  149.6530 C   0  0  0  0  0  3  0  0  0  0  0  0
  161.9140  206.3250  146.0730 C   0  0  0  0  0  3  0  0  0  0  0  0
  161.7380  204.3420  146.8220 C   0  0  0  0  0  0  0  0  0  0  0  0
  161.9460  205.0300  145.6830 N   0  0  0  0  0  0  0  0  0  0  0  0
  2  1  1  0  0  0  0
  2  4  1  1  0  0  0
  3  2  1  0  0  0  0
  3  1  1  0  0  0  0
  3 15  1  1  0  0  0
  5 14  1  0  0  0  0
  5  6  1  0  0  0  0
  6 11  2  0  0  0  0
  7  8  2  0  0  0  0
  9  6  1  0  0  0  0
  9 13  2  0  0  0  0
 10  5  2  0  0  0  0
 11  8  1  0  0  0  0
 11 12  1  0  0  0  0
 12  3  1  0  0  0  0
 13 12  1  0  0  0  0
 14  7  1  0  0  0  0
 16 19  1  6  0  0  0
 16 17  1  0  0  0  0
 18 15  1  1  0  0  0
 18 16  1  0  0  0  0
 18 17  1  0  0  0  0
 19 20  1  0  0  0  0
 21 22  1  0  0  0  0
 22 24  1  1  0  0  0
 23 20  1  6  0  0  0
 23 21  1  0  0  0  0
 23 22  1  0  0  0  0
 25 26  2  0  0  0  0
 26 24  1  0  0  0  0
 27 26  1  0  0  0  0
 28 27  2  0  0  0  0
 29 27  1  0  0  0  0
 31 30  1  0  0  0  0
 31 29  1  0  0  0  0
 32  2  1  0  0  0  0
 33 32  1  0  0  0  0
 34 33  1  0  0  0  0
 35 34  1  0  0  0  0
 36 35  1  0  0  0  0
 38 43  1  0  0  0  0
 39 40  1  0  0  0  0
 40 41  1  0  0  0  0
 41 46  1  6  0  0  0
 41 42  1  0  0  0  0
 42 44  1  0  0  0  0
 43 42  2  0  0  0  0
 44 37  2  0  0  0  0
 45 38  1  0  0  0  0
 45 36  1  0  0  0  0
 46 47  2  0  0  0  0
 47 37  1  0  0  0  0
 48 45  1  0  0  0  0
 49 40  1  0  0  0  0
 49 38  2  0  0  0  0
 50 48  2  0  0  0  0
 50 49  1  0  0  0  0
M  END
>  <MODEL>
5

>  <REMARK>
 VINA RESULT:      -6.3      3.363     10.336
  Name = 
  16 active torsions:
  status: ('A' for Active; 'I' for Inactive)
    1  A    between atoms: N_10  and  C_40
    2  A    between atoms: C_11  and  C_19
    3  A    between atoms: C_15  and  C_25
    4  A    between atoms: C_15  and  C_28
    5  A    between atoms: C_16  and  C_20
    6  A    between atoms: C_16  and  N_38
    7  A    between atoms: O_18  and  C_24
    8  A    between atoms: O_18  and  C_44
    9  A    between atoms: C_19  and  C_34
   10  A    between atoms: C_20  and  O_31
   11  A    between atoms: C_23  and  C_47
   12  A    between atoms: C_24  and  C_29
   13  A    between atoms: C_28  and  O_31
   14  A    between atoms: C_34  and  C_49
   15  A    between atoms: C_35  and  N_36
   16  A    between atoms: C_35  and  C_47
                            x       y       z     vdW  Elec       q    Type
                         _______ _______ _______ _____ _____    ______ ____

>  <TORSDO>
F 16

$$$$
=
 OpenBabel11052412063D

 50 57  0  0  1  0  0  0  0  0999 V2000
  159.2550  210.3220  153.0920 C   0  0  0  0  0  2  0  0  0  0  0  0
  160.4760  211.2120  153.3020 C   0  0  1  0  0  0  0  0  0  0  0  0
  159.7360  210.5980  154.5100 C   0  0  1  0  0  0  0  0  0  0  0  0
  161.7190  210.5190  152.7670 C   0  0  0  0  0  1  0  0  0  0  0  0
  156.1320  213.5950  156.1830 C   0  0  0  0  0  0  0  0  0  0  0  0
  157.3900  212.8550  156.1640 C   0  0  0  0  0  0  0  0  0  0  0  0
  155.8180  212.6580  153.8290 C   0  0  0  0  0  3  0  0  0  0  0  0
  156.9240  211.9700  153.9320 N   0  0  0  0  0  0  0  0  0  0  0  0
  158.3850  212.8680  157.0670 N   0  0  0  0  0  0  0  0  0  0  0  0
  155.7270  214.1610  157.2310 O   0  0  0  0  0  0  0  0  0  0  0  0
  157.7370  212.0750  155.1040 C   0  0  0  0  0  0  0  0  0  0  0  0
  158.9610  211.5550  155.3150 N   0  0  0  0  0  0  0  0  0  0  0  0
  159.3320  212.0580  156.5210 C   0  0  0  0  0  3  0  0  0  0  0  0
  155.3040  213.6020  154.9170 C   0  0  0  0  0  2  0  0  0  0  0  0
  160.4690  209.4890  155.3050 C   0  0  0  0  0  2  0  0  0  0  0  0
  161.2820  207.2140  155.1850 C   0  0  2  0  0  3  0  0  0  0  0  0
  160.1790  207.2250  156.1550 N   0  0  0  0  0  2  0  0  0  0  0  0
  160.1220  208.0490  154.9300 C   0  0  1  0  0  3  0  0  0  0  0  0
  161.2360  205.9140  154.3880 C   0  0  0  0  0  2  0  0  0  0  0  0
  160.5930  206.1400  153.0150 C   0  0  0  0  0  2  0  0  0  0  0  0
  162.3820  206.9480  151.4630 C   0  0  0  0  0  2  0  0  0  0  0  0
  161.2260  206.4440  150.6100 C   0  0  2  0  0  3  0  0  0  0  0  0
  161.5720  205.7580  151.9130 C   0  0  2  0  0  3  0  0  0  0  0  0
  161.7460  205.6010  149.5480 N   0  0  0  0  0  2  0  0  0  0  0  0
  160.8100  206.7040  147.7120 O   0  0  0  0  0  0  0  0  0  0  0  0
  161.2790  205.6410  148.2020 C   0  0  0  0  0  0  0  0  0  0  0  0
  161.3330  204.4110  147.4040 C   0  0  0  0  0  0  0  0  0  0  0  0
  161.1340  204.4370  146.1540 O   0  0  0  0  0  0  0  0  0  0  0  0
  161.5900  203.2100  148.0670 O   0  0  0  0  0  0  0  0  0  0  0  0
  160.6690  201.6720  149.6790 C   0  0  0  0  0  1  0  0  0  0  0  0
  160.6080  202.1910  148.2510 C   0  0  0  0  0  2  0  0  0  0  0  0
  160.1480  212.6320  152.8520 C   0  0  0  0  0  2  0  0  0  0  0  0
  159.3370  212.6810  151.5670 C   0  0  0  0  0  2  0  0  0  0  0  0
  160.1740  212.7640  150.4420 O   0  0  0  0  0  0  0  0  0  0  0  0
  160.3930  214.1470  150.2840 C   0  0  0  0  0  2  0  0  0  0  0  0
  161.2140  214.4490  149.0280 C   0  0  0  0  0  2  0  0  0  0  0  0
  163.7500  214.1850  142.5940 N   0  0  0  0  0  0  0  0  0  0  0  0
  160.8800  214.2000  146.5410 C   0  0  0  0  0  0  0  0  0  0  0  0
  159.3620  212.0480  143.9850 C   0  0  0  0  0  1  0  0  0  0  0  0
  160.1120  213.2000  144.4560 N   0  0  0  0  0  0  0  0  0  0  0  0
  161.3400  213.5840  143.8080 C   0  0  1  0  0  3  0  0  0  0  0  0
  162.3900  214.1780  144.5570 C   0  0  0  0  0  0  0  0  0  0  0  0
  162.2780  214.4230  146.0500 C   0  0  0  0  0  3  0  0  0  0  0  0
  163.5990  214.4530  143.9160 C   0  0  0  0  0  3  0  0  0  0  0  0
  160.4390  214.2600  147.8080 N   0  0  0  0  0  0  0  0  0  0  0  0
  161.5240  213.3390  142.4420 C   0  0  0  0  0  3  0  0  0  0  0  0
  162.7420  213.6600  141.8470 C   0  0  0  0  0  3  0  0  0  0  0  0
  159.1610  213.8180  147.7690 C   0  0  0  0  0  3  0  0  0  0  0  0
  159.8670  213.7200  145.7650 C   0  0  0  0  0  0  0  0  0  0  0  0
  158.7830  213.4580  146.5210 N   0  0  0  0  0  0  0  0  0  0  0  0
  1  2  1  0  0  0  0
  1  3  1  0  0  0  0
  2  4  1  6  0  0  0
  2  3  1  0  0  0  0
  3 15  1  1  0  0  0
  3 12  1  0  0  0  0
  5 10  2  0  0  0  0
  6  5  1  0  0  0  0
  6  9  1  0  0  0  0
  7  8  2  0  0  0  0
  7 14  1  0  0  0  0
  8 11  1  0  0  0  0
 11 12  1  0  0  0  0
 11  6  2  0  0  0  0
 12 13  1  0  0  0  0
 13  9  2  0  0  0  0
 14  5  1  0  0  0  0
 16 19  1  6  0  0  0
 16 17  1  0  0  0  0
 18 16  1  0  0  0  0
 18 15  1  1  0  0  0
 18 17  1  0  0  0  0
 20 19  1  0  0  0  0
 21 23  1  0  0  0  0
 22 24  1  6  0  0  0
 22 21  1  0  0  0  0
 22 23  1  0  0  0  0
 23 20  1  1  0  0  0
 25 26  2  0  0  0  0
 26 24  1  0  0  0  0
 27 29  1  0  0  0  0
 27 26  1  0  0  0  0
 28 27  2  0  0  0  0
 29 31  1  0  0  0  0
 31 30  1  0  0  0  0
 32  2  1  0  0  0  0
 33 32  1  0  0  0  0
 34 33  1  0  0  0  0
 35 34  1  0  0  0  0
 36 35  1  0  0  0  0
 37 44  2  0  0  0  0
 38 45  1  0  0  0  0
 39 40  1  0  0  0  0
 40 49  1  0  0  0  0
 41 46  1  1  0  0  0
 41 40  1  0  0  0  0
 41 42  1  0  0  0  0
 42 43  2  0  0  0  0
 43 38  1  0  0  0  0
 44 42  1  0  0  0  0
 45 36  1  0  0  0  0
 47 46  2  0  0  0  0
 47 37  1  0  0  0  0
 48 45  1  0  0  0  0
 49 50  1  0  0  0  0
 49 38  2  0  0  0  0
 50 48  2  0  0  0  0
M  END
>  <MODEL>
6

>  <REMARK>
 VINA RESULT:      -6.2      2.978      4.417
  Name = 
  16 active torsions:
  status: ('A' for Active; 'I' for Inactive)
    1  A    between atoms: N_10  and  C_40
    2  A    between atoms: C_11  and  C_19
    3  A    between atoms: C_15  and  C_25
    4  A    between atoms: C_15  and  C_28
    5  A    between atoms: C_16  and  C_20
    6  A    between atoms: C_16  and  N_38
    7  A    between atoms: O_18  and  C_24
    8  A    between atoms: O_18  and  C_44
    9  A    between atoms: C_19  and  C_34
   10  A    between atoms: C_20  and  O_31
   11  A    between atoms: C_23  and  C_47
   12  A    between atoms: C_24  and  C_29
   13  A    between atoms: C_28  and  O_31
   14  A    between atoms: C_34  and  C_49
   15  A    between atoms: C_35  and  N_36
   16  A    between atoms: C_35  and  C_47
                            x       y       z     vdW  Elec       q    Type
                         _______ _______ _______ _____ _____    ______ ____

>  <TORSDO>
F 16

$$$$
=
 OpenBabel11052412063D

 50 57  0  0  1  0  0  0  0  0999 V2000
  160.9470  207.9370  149.8450 C   0  0  0  0  0  2  0  0  0  0  0  0
  162.3350  208.5420  150.0320 C   0  0  1  0  0  0  0  0  0  0  0  0
  161.5910  207.9020  151.2250 C   0  0  1  0  0  0  0  0  0  0  0  0
  163.3640  207.7180  149.2760 C   0  0  0  0  0  1  0  0  0  0  0  0
  160.3930  210.0930  155.5300 C   0  0  0  0  0  0  0  0  0  0  0  0
  160.5900  209.9280  154.0930 C   0  0  0  0  0  0  0  0  0  0  0  0
  161.1240  207.6520  155.6720 C   0  0  0  0  0  3  0  0  0  0  0  0
  161.3440  207.6200  154.3850 N   0  0  0  0  0  0  0  0  0  0  0  0
  160.2930  210.7850  153.1020 N   0  0  0  0  0  0  0  0  0  0  0  0
  160.1380  211.2220  156.0250 O   0  0  0  0  0  0  0  0  0  0  0  0
  161.0610  208.7630  153.5720 C   0  0  0  0  0  0  0  0  0  0  0  0
  161.0930  208.8550  152.2290 N   0  0  0  0  0  0  0  0  0  0  0  0
  160.6170  210.1000  151.9710 C   0  0  0  0  0  3  0  0  0  0  0  0
  160.5690  208.8730  156.4060 C   0  0  0  0  0  2  0  0  0  0  0  0
  162.1510  206.5700  151.7800 C   0  0  0  0  0  2  0  0  0  0  0  0
  162.0140  204.1610  151.9530 C   0  0  2  0  0  3  0  0  0  0  0  0
  161.1350  204.7150  152.9890 N   0  0  0  0  0  2  0  0  0  0  0  0
  161.2370  205.3520  151.6600 C   0  0  1  0  0  3  0  0  0  0  0  0
  161.3750  202.9040  151.3720 C   0  0  0  0  0  2  0  0  0  0  0  0
  160.0530  203.2400  150.6710 C   0  0  0  0  0  2  0  0  0  0  0  0
  160.3090  200.9360  149.7290 C   0  0  0  0  0  2  0  0  0  0  0  0
  161.2060  201.8650  148.9230 C   0  0  2  0  0  3  0  0  0  0  0  0
  159.8730  202.3520  149.4470 C   0  0  2  0  0  3  0  0  0  0  0  0
  161.0210  201.6000  147.5070 N   0  0  0  0  0  2  0  0  0  0  0  0
  162.0050  203.5350  146.6400 O   0  0  0  0  0  0  0  0  0  0  0  0
  161.1960  202.5800  146.4860 C   0  0  0  0  0  0  0  0  0  0  0  0
  160.3970  202.4660  145.2620 C   0  0  0  0  0  0  0  0  0  0  0  0
  160.1240  201.3350  144.7650 O   0  0  0  0  0  0  0  0  0  0  0  0
  159.9630  203.6440  144.6500 O   0  0  0  0  0  0  0  0  0  0  0  0
  160.4680  205.9400  145.1810 C   0  0  0  0  0  1  0  0  0  0  0  0
  160.8340  204.7300  144.3370 C   0  0  0  0  0  2  0  0  0  0  0  0
  162.2610  210.0500  149.8120 C   0  0  0  0  0  2  0  0  0  0  0  0
  162.0570  210.4330  148.3560 C   0  0  0  0  0  2  0  0  0  0  0  0
  161.4090  211.6740  148.2440 O   0  0  0  0  0  0  0  0  0  0  0  0
  162.3900  212.5200  147.6900 C   0  0  0  0  0  2  0  0  0  0  0  0
  161.7850  213.5040  146.6850 C   0  0  0  0  0  2  0  0  0  0  0  0
  156.6080  214.4440  151.1800 N   0  0  0  0  0  0  0  0  0  0  0  0
  159.3340  213.4020  147.2690 C   0  0  0  0  0  0  0  0  0  0  0  0
  156.0030  214.4500  146.1420 C   0  0  0  0  0  1  0  0  0  0  0  0
  156.9420  213.7990  147.0390 N   0  0  0  0  0  0  0  0  0  0  0  0
  156.8230  213.9690  148.4660 C   0  0  1  0  0  3  0  0  0  0  0  0
  157.9820  213.9690  149.2860 C   0  0  0  0  0  0  0  0  0  0  0  0
  159.3760  213.8040  148.7120 C   0  0  0  0  0  3  0  0  0  0  0  0
  157.8390  214.2290  150.6490 C   0  0  0  0  0  3  0  0  0  0  0  0
  160.3750  213.2360  146.4360 N   0  0  0  0  0  0  0  0  0  0  0  0
  155.5680  214.1770  149.0490 C   0  0  0  0  0  3  0  0  0  0  0  0
  155.4800  214.4030  150.4210 C   0  0  0  0  0  3  0  0  0  0  0  0
  159.8320  213.0460  145.2110 C   0  0  0  0  0  3  0  0  0  0  0  0
  158.1890  213.3160  146.5350 C   0  0  0  0  0  0  0  0  0  0  0  0
  158.4800  213.1090  145.2360 N   0  0  0  0  0  0  0  0  0  0  0  0
  1  2  1  0  0  0  0
  1  3  1  0  0  0  0
  2  4  1  6  0  0  0
  2  3  1  0  0  0  0
  3 15  1  1  0  0  0
  3 12  1  0  0  0  0
  5 10  2  0  0  0  0
  5 14  1  0  0  0  0
  6  5  1  0  0  0  0
  7 14  1  0  0  0  0
  8  7  2  0  0  0  0
  9  6  1  0  0  0  0
 11  6  2  0  0  0  0
 11  8  1  0  0  0  0
 12 11  1  0  0  0  0
 13 12  1  0  0  0  0
 13  9  2  0  0  0  0
 16 19  1  6  0  0  0
 16 17  1  0  0  0  0
 18 15  1  1  0  0  0
 18 16  1  0  0  0  0
 18 17  1  0  0  0  0
 20 19  1  0  0  0  0
 22 24  1  6  0  0  0
 22 23  1  0  0  0  0
 22 21  1  0  0  0  0
 23 21  1  0  0  0  0
 23 20  1  1  0  0  0
 26 25  2  0  0  0  0
 26 24  1  0  0  0  0
 27 26  1  0  0  0  0
 28 27  2  0  0  0  0
 29 27  1  0  0  0  0
 31 29  1  0  0  0  0
 31 30  1  0  0  0  0
 32  2  1  0  0  0  0
 33 32  1  0  0  0  0
 34 33  1  0  0  0  0
 35 34  1  0  0  0  0
 36 35  1  0  0  0  0
 38 43  1  0  0  0  0
 39 40  1  0  0  0  0
 40 41  1  0  0  0  0
 41 46  1  6  0  0  0
 41 42  1  0  0  0  0
 42 44  1  0  0  0  0
 43 42  2  0  0  0  0
 44 37  2  0  0  0  0
 45 36  1  0  0  0  0
 45 38  1  0  0  0  0
 46 47  2  0  0  0  0
 47 37  1  0  0  0  0
 48 50  2  0  0  0  0
 48 45  1  0  0  0  0
 49 40  1  0  0  0  0
 49 38  2  0  0  0  0
 50 49  1  0  0  0  0
M  END
>  <MODEL>
7

>  <REMARK>
 VINA RESULT:      -6.2      1.925      3.438
  Name = 
  16 active torsions:
  status: ('A' for Active; 'I' for Inactive)
    1  A    between atoms: N_10  and  C_40
    2  A    between atoms: C_11  and  C_19
    3  A    between atoms: C_15  and  C_25
    4  A    between atoms: C_15  and  C_28
    5  A    between atoms: C_16  and  C_20
    6  A    between atoms: C_16  and  N_38
    7  A    between atoms: O_18  and  C_24
    8  A    between atoms: O_18  and  C_44
    9  A    between atoms: C_19  and  C_34
   10  A    between atoms: C_20  and  O_31
   11  A    between atoms: C_23  and  C_47
   12  A    between atoms: C_24  and  C_29
   13  A    between atoms: C_28  and  O_31
   14  A    between atoms: C_34  and  C_49
   15  A    between atoms: C_35  and  N_36
   16  A    between atoms: C_35  and  C_47
                            x       y       z     vdW  Elec       q    Type
                         _______ _______ _______ _____ _____    ______ ____

>  <TORSDO>
F 16

$$$$
=
 OpenBabel11052412063D

 50 57  0  0  1  0  0  0  0  0999 V2000
  161.5510  211.0400  153.3030 C   0  0  0  0  0  2  0  0  0  0  0  0
  160.5950  209.9170  152.9130 C   0  0  1  0  0  0  0  0  0  0  0  0
  160.0790  211.3630  153.0830 C   0  0  1  0  0  0  0  0  0  0  0  0
  160.9320  209.4130  151.5190 C   0  0  0  0  0  1  0  0  0  0  0  0
  156.3820  212.7140  156.1280 C   0  0  0  0  0  0  0  0  0  0  0  0
  157.6270  212.0920  155.6890 C   0  0  0  0  0  0  0  0  0  0  0  0
  156.2620  213.6110  153.7410 C   0  0  0  0  0  3  0  0  0  0  0  0
  157.3460  212.9570  153.4190 N   0  0  0  0  0  0  0  0  0  0  0  0
  158.5390  211.4320  156.4220 N   0  0  0  0  0  0  0  0  0  0  0  0
  155.8930  212.4620  157.2610 O   0  0  0  0  0  0  0  0  0  0  0  0
  158.0550  212.1970  154.4010 C   0  0  0  0  0  0  0  0  0  0  0  0
  159.2490  211.5880  154.2770 N   0  0  0  0  0  0  0  0  0  0  0  0
  159.5200  211.1310  155.5270 C   0  0  0  0  0  3  0  0  0  0  0  0
  155.6670  213.6200  155.1500 C   0  0  0  0  0  2  0  0  0  0  0  0
  159.6380  212.1160  151.8050 C   0  0  0  0  0  2  0  0  0  0  0  0
  160.4270  212.4870  149.5490 C   0  0  2  0  0  3  0  0  0  0  0  0
  160.1990  213.8090  150.1450 N   0  0  0  0  0  2  0  0  0  0  0  0
  160.7590  212.7000  150.9460 C   0  0  1  0  0  3  0  0  0  0  0  0
  161.6610  212.5470  148.6530 C   0  0  0  0  0  2  0  0  0  0  0  0
  161.9920  213.9970  148.2800 C   0  0  0  0  0  2  0  0  0  0  0  0
  160.1730  213.7180  146.5850 C   0  0  0  0  0  2  0  0  0  0  0  0
  161.4090  213.0030  146.0560 C   0  0  2  0  0  3  0  0  0  0  0  0
  161.5460  214.2810  146.8520 C   0  0  2  0  0  3  0  0  0  0  0  0
  161.6090  213.3590  144.6630 N   0  0  0  0  0  2  0  0  0  0  0  0
  160.1170  211.8520  143.6800 O   0  0  0  0  0  0  0  0  0  0  0  0
  161.1450  212.5730  143.5680 C   0  0  0  0  0  0  0  0  0  0  0  0
  161.9030  212.6030  142.3120 C   0  0  0  0  0  0  0  0  0  0  0  0
  162.5150  213.6490  141.9460 O   0  0  0  0  0  0  0  0  0  0  0  0
  161.9130  211.4510  141.5250 O   0  0  0  0  0  0  0  0  0  0  0  0
  163.2930  211.3820  139.5490 C   0  0  0  0  0  1  0  0  0  0  0  0
  161.8780  211.4770  140.0980 C   0  0  0  0  0  2  0  0  0  0  0  0
  160.4800  208.9290  154.0690 C   0  0  0  0  0  2  0  0  0  0  0  0
  160.4490  207.4780  153.6160 C   0  0  0  0  0  2  0  0  0  0  0  0
  161.5370  206.7600  154.1370 O   0  0  0  0  0  0  0  0  0  0  0  0
  162.2330  206.3210  152.9930 C   0  0  0  0  0  2  0  0  0  0  0  0
  161.3130  205.5740  152.0250 C   0  0  0  0  0  2  0  0  0  0  0  0
  160.7070  201.0200  146.8500 N   0  0  0  0  0  0  0  0  0  0  0  0
  161.5810  204.9590  149.5940 C   0  0  0  0  0  0  0  0  0  0  0  0
  160.7730  206.0500  146.1840 C   0  0  0  0  0  1  0  0  0  0  0  0
  161.3520  205.1610  147.1770 N   0  0  0  0  0  0  0  0  0  0  0  0
  161.1820  203.7340  147.0640 C   0  0  1  0  0  3  0  0  0  0  0  0
  161.0970  202.9290  148.2300 C   0  0  0  0  0  0  0  0  0  0  0  0
  161.1690  203.5190  149.6250 C   0  0  0  0  0  3  0  0  0  0  0  0
  160.8390  201.5650  148.0860 C   0  0  0  0  0  3  0  0  0  0  0  0
  161.6800  205.8040  150.6330 N   0  0  0  0  0  0  0  0  0  0  0  0
  161.0580  203.1360  145.8050 C   0  0  0  0  0  3  0  0  0  0  0  0
  160.8310  201.7640  145.7180 C   0  0  0  0  0  3  0  0  0  0  0  0
  161.9140  207.0210  150.0900 C   0  0  0  0  0  3  0  0  0  0  0  0
  161.7510  205.6780  148.4480 C   0  0  0  0  0  0  0  0  0  0  0  0
  161.9450  206.9800  148.7370 N   0  0  0  0  0  0  0  0  0  0  0  0
  2  4  1  6  0  0  0
  2  3  1  0  0  0  0
  2  1  1  0  0  0  0
  2 32  1  0  0  0  0
  3 15  1  6  0  0  0
  3  1  1  0  0  0  0
  3 12  1  0  0  0  0
  5 10  2  0  0  0  0
  6  5  1  0  0  0  0
  6  9  1  0  0  0  0
  7 14  1  0  0  0  0
  8  7  2  0  0  0  0
  8 11  1  0  0  0  0
 11  6  2  0  0  0  0
 12 11  1  0  0  0  0
 12 13  1  0  0  0  0
 13  9  2  0  0  0  0
 14  5  1  0  0  0  0
 16 19  1  6  0  0  0
 16 17  1  0  0  0  0
 16 18  1  0  0  0  0
 17 18  1  0  0  0  0
 18 15  1  1  0  0  0
 20 19  1  0  0  0  0
 21 23  1  0  0  0  0
 22 24  1  6  0  0  0
 22 21  1  0  0  0  0
 22 23  1  0  0  0  0
 23 20  1  1  0  0  0
 26 25  2  0  0  0  0
 26 24  1  0  0  0  0
 27 26  1  0  0  0  0
 28 27  2  0  0  0  0
 29 27  1  0  0  0  0
 30 31  1  0  0  0  0
 31 29  1  0  0  0  0
 33 32  1  0  0  0  0
 33 34  1  0  0  0  0
 35 34  1  0  0  0  0
 36 35  1  0  0  0  0
 37 44  2  0  0  0  0
 38 43  1  0  0  0  0
 38 45  1  0  0  0  0
 39 40  1  0  0  0  0
 40 49  1  0  0  0  0
 41 46  1  1  0  0  0
 41 40  1  0  0  0  0
 41 42  1  0  0  0  0
 42 43  2  0  0  0  0
 44 42  1  0  0  0  0
 45 36  1  0  0  0  0
 47 46  2  0  0  0  0
 47 37  1  0  0  0  0
 48 45  1  0  0  0  0
 49 50  1  0  0  0  0
 49 38  2  0  0  0  0
 50 48  2  0  0  0  0
M  END
>  <MODEL>
8

>  <REMARK>
 VINA RESULT:      -6.1      3.178      8.685
  Name = 
  16 active torsions:
  status: ('A' for Active; 'I' for Inactive)
    1  A    between atoms: N_10  and  C_40
    2  A    between atoms: C_11  and  C_19
    3  A    between atoms: C_15  and  C_25
    4  A    between atoms: C_15  and  C_28
    5  A    between atoms: C_16  and  C_20
    6  A    between atoms: C_16  and  N_38
    7  A    between atoms: O_18  and  C_24
    8  A    between atoms: O_18  and  C_44
    9  A    between atoms: C_19  and  C_34
   10  A    between atoms: C_20  and  O_31
   11  A    between atoms: C_23  and  C_47
   12  A    between atoms: C_24  and  C_29
   13  A    between atoms: C_28  and  O_31
   14  A    between atoms: C_34  and  C_49
   15  A    between atoms: C_35  and  N_36
   16  A    between atoms: C_35  and  C_47
                            x       y       z     vdW  Elec       q    Type
                         _______ _______ _______ _____ _____    ______ ____

>  <TORSDO>
F 16

$$$$
=
 OpenBabel11052412063D

 50 57  0  0  1  0  0  0  0  0999 V2000
  160.1980  211.4490  148.9880 C   0  0  0  0  0  2  0  0  0  0  0  0
  161.6800  211.2600  149.2990 C   0  0  1  0  0  0  0  0  0  0  0  0
  161.1610  212.6010  148.7370 C   0  0  1  0  0  0  0  0  0  0  0  0
  161.8780  211.1170  150.8000 C   0  0  0  0  0  1  0  0  0  0  0  0
  161.0040  213.3960  143.8260 C   0  0  0  0  0  0  0  0  0  0  0  0
  161.5530  213.3070  145.1750 C   0  0  0  0  0  0  0  0  0  0  0  0
  158.8530  212.5370  144.8990 C   0  0  0  0  0  3  0  0  0  0  0  0
  159.4080  212.5610  146.0810 N   0  0  0  0  0  0  0  0  0  0  0  0
  162.8240  213.4800  145.5770 N   0  0  0  0  0  0  0  0  0  0  0  0
  161.6630  213.9180  142.8890 O   0  0  0  0  0  0  0  0  0  0  0  0
  160.7810  212.9340  146.2320 C   0  0  0  0  0  0  0  0  0  0  0  0
  161.5400  212.8770  147.3420 N   0  0  0  0  0  0  0  0  0  0  0  0
  162.7830  213.2140  146.9110 C   0  0  0  0  0  3  0  0  0  0  0  0
  159.5920  212.8980  143.6100 C   0  0  0  0  0  2  0  0  0  0  0  0
  161.1670  213.8220  149.6890 C   0  0  0  0  0  2  0  0  0  0  0  0
  159.1710  213.3080  150.9540 C   0  0  2  0  0  3  0  0  0  0  0  0
  159.8120  214.4530  151.6120 N   0  0  0  0  0  2  0  0  0  0  0  0
  159.7990  214.3320  150.1390 C   0  0  1  0  0  3  0  0  0  0  0  0
  157.6560  213.4770  151.0170 C   0  0  0  0  0  2  0  0  0  0  0  0
  157.1940  213.7050  152.4610 C   0  0  0  0  0  2  0  0  0  0  0  0
  156.5090  212.4350  154.5050 C   0  0  0  0  0  2  0  0  0  0  0  0
  157.9980  212.7290  154.6230 C   0  0  2  0  0  3  0  0  0  0  0  0
  157.3810  212.4320  153.2740 C   0  0  2  0  0  3  0  0  0  0  0  0
  158.6930  211.5220  155.0350 N   0  0  0  0  0  2  0  0  0  0  0  0
  160.8490  212.0800  154.3240 O   0  0  0  0  0  0  0  0  0  0  0  0
  160.0120  211.1820  154.6120 C   0  0  0  0  0  0  0  0  0  0  0  0
  160.3680  209.7640  154.4970 C   0  0  0  0  0  0  0  0  0  0  0  0
  161.1150  209.3540  153.5610 O   0  0  0  0  0  0  0  0  0  0  0  0
  159.8430  208.8780  155.4390 O   0  0  0  0  0  0  0  0  0  0  0  0
  160.0660  207.0450  156.9890 C   0  0  0  0  0  1  0  0  0  0  0  0
  160.2690  207.5210  155.5600 C   0  0  0  0  0  2  0  0  0  0  0  0
  162.2640  210.2150  148.3540 C   0  0  0  0  0  2  0  0  0  0  0  0
  161.9570  208.7880  148.7760 C   0  0  0  0  0  2  0  0  0  0  0  0
  162.4440  208.5240  150.0670 O   0  0  0  0  0  0  0  0  0  0  0  0
  161.4930  207.6400  150.6140 C   0  0  0  0  0  2  0  0  0  0  0  0
  162.1610  206.4860  151.3650 C   0  0  0  0  0  2  0  0  0  0  0  0
  161.2000  203.3190  145.2880 N   0  0  0  0  0  0  0  0  0  0  0  0
  161.2550  204.5660  150.0050 C   0  0  0  0  0  0  0  0  0  0  0  0
  161.2290  200.9050  149.7510 C   0  0  0  0  0  1  0  0  0  0  0  0
  160.8740  202.2530  149.3410 N   0  0  0  0  0  0  0  0  0  0  0  0
  160.9360  202.6310  147.9520 C   0  0  0  0  0  0  0  0  0  0  0  0
  161.2720  203.9610  147.5860 C   0  0  0  0  0  0  0  0  0  0  0  0
  161.5860  205.0270  148.6190 C   0  0  0  0  0  3  0  0  0  0  0  0
  161.4130  204.2700  146.2330 C   0  0  0  0  0  2  0  0  0  0  0  0
  161.4660  205.2220  151.1580 N   0  0  0  0  0  0  0  0  0  0  0  0
  160.7060  201.6810  146.9510 C   0  0  0  0  0  3  0  0  0  0  0  0
  160.8320  202.0510  145.6140 C   0  0  0  0  0  3  0  0  0  0  0  0
  161.1660  204.3390  152.1380 C   0  0  0  0  0  3  0  0  0  0  0  0
  160.8380  203.3040  150.3090 C   0  0  0  0  0  0  0  0  0  0  0  0
  160.7920  203.1360  151.6450 N   0  0  0  0  0  0  0  0  0  0  0  0
  1  2  1  0  0  0  0
  2  4  1  1  0  0  0
  3  1  1  0  0  0  0
  3  2  1  0  0  0  0
  3 15  1  1  0  0  0
  5  6  1  0  0  0  0
  6  9  1  0  0  0  0
  6 11  2  0  0  0  0
  7  8  2  0  0  0  0
  8 11  1  0  0  0  0
  9 13  2  0  0  0  0
 10  5  2  0  0  0  0
 11 12  1  0  0  0  0
 12  3  1  0  0  0  0
 13 12  1  0  0  0  0
 14  5  1  0  0  0  0
 14  7  1  0  0  0  0
 16 19  1  6  0  0  0
 16 17  1  0  0  0  0
 18 15  1  1  0  0  0
 18 16  1  0  0  0  0
 18 17  1  0  0  0  0
 19 20  1  0  0  0  0
 21 22  1  0  0  0  0
 22 24  1  1  0  0  0
 23 20  1  6  0  0  0
 23 21  1  0  0  0  0
 23 22  1  0  0  0  0
 25 26  2  0  0  0  0
 26 24  1  0  0  0  0
 27 26  1  0  0  0  0
 27 29  1  0  0  0  0
 28 27  2  0  0  0  0
 29 31  1  0  0  0  0
 31 30  1  0  0  0  0
 32 33  1  0  0  0  0
 32  2  1  0  0  0  0
 33 34  1  0  0  0  0
 34 35  1  0  0  0  0
 35 36  1  0  0  0  0
 37 47  2  0  0  0  0
 37 44  1  0  0  0  0
 38 49  2  0  0  0  0
 38 45  1  0  0  0  0
 40 39  1  0  0  0  0
 40 49  1  0  0  0  0
 41 40  1  0  0  0  0
 42 41  1  0  0  0  0
 42 43  2  0  0  0  0
 43 38  1  0  0  0  0
 44 42  1  0  0  0  0
 45 36  1  0  0  0  0
 45 48  1  0  0  0  0
 46 41  2  0  0  0  0
 47 46  1  0  0  0  0
 49 50  1  0  0  0  0
 50 48  2  0  0  0  0
M  END
>  <MODEL>
9

>  <REMARK>
 VINA RESULT:      -6.0      2.537     10.231
  Name = 
  16 active torsions:
  status: ('A' for Active; 'I' for Inactive)
    1  A    between atoms: N_10  and  C_40
    2  A    between atoms: C_11  and  C_19
    3  A    between atoms: C_15  and  C_25
    4  A    between atoms: C_15  and  C_28
    5  A    between atoms: C_16  and  C_20
    6  A    between atoms: C_16  and  N_38
    7  A    between atoms: O_18  and  C_24
    8  A    between atoms: O_18  and  C_44
    9  A    between atoms: C_19  and  C_34
   10  A    between atoms: C_20  and  O_31
   11  A    between atoms: C_23  and  C_47
   12  A    between atoms: C_24  and  C_29
   13  A    between atoms: C_28  and  O_31
   14  A    between atoms: C_34  and  C_49
   15  A    between atoms: C_35  and  N_36
   16  A    between atoms: C_35  and  C_47
                            x       y       z     vdW  Elec       q    Type
                         _______ _______ _______ _____ _____    ______ ____

>  <TORSDO>
F 16

$$$$
