=
 OpenBabel11042420213D

 51 53  0  0  1  0  0  0  0  0999 V2000
  160.7050  210.4960  151.9980 C   0  0  0  0  0  2  0  0  0  0  0  0
  160.8310  209.0410  151.5900 C   0  0  2  0  0  3  0  0  0  0  0  0
  162.3460  206.9860  151.7790 C   0  0  2  0  0  3  0  0  0  0  0  0
  160.9500  206.8580  152.3690 C   0  0  2  0  0  3  0  0  0  0  0  0
  160.4510  208.1810  152.6970 N   0  0  0  0  0  2  0  0  0  0  0  0
  162.5440  208.6740  151.1400 S   0  0  0  0  0  0  0  0  0  0  0  0
  161.3970  205.5800  149.8990 C   0  0  0  0  0  0  0  0  0  0  0  0
  162.4950  206.0260  150.6970 N   0  0  0  0  0  2  0  0  0  0  0  0
  160.2290  205.9980  150.1270 O   0  0  0  0  0  0  0  0  0  0  0  0
  161.6610  204.6380  148.7680 C   0  0  2  0  0  3  0  0  0  0  0  0
  160.8210  204.9950  145.0450 C   0  0  1  0  0  3  0  0  0  0  0  0
  160.4950  206.0800  147.1500 N   0  0  0  0  0  2  0  0  0  0  0  0
  161.3270  205.2500  143.7080 N   0  0  0  0  0  1  0  0  0  0  0  0
  162.1030  204.2280  146.0580 S   0  0  0  0  0  0  0  0  0  0  0  0
  161.7450  205.3830  147.4310 C   0  0  2  0  0  3  0  0  0  0  0  0
  160.4600  206.2960  145.7130 C   0  0  0  0  0  2  0  0  0  0  0  0
  160.5940  203.5500  148.7490 C   0  0  0  0  0  2  0  0  0  0  0  0
  160.8720  202.5680  149.7830 N   0  0  0  0  0  1  0  0  0  0  0  0
  160.9810  205.9990  153.6200 C   0  0  0  0  0  2  0  0  0  0  0  0
  161.5910  206.7710  154.7780 C   0  0  0  0  0  2  0  0  0  0  0  0
  159.8380  208.8260  157.2600 O   0  0  0  0  0  0  0  0  0  0  0  0
  160.5420  207.3830  155.5790 N   0  0  0  0  0  2  0  0  0  0  0  0
  160.7990  208.3520  156.6000 C   0  0  0  0  0  0  0  0  0  0  0  0
  162.1850  208.8470  156.8670 C   0  0  0  0  0  2  0  0  0  0  0  0
  162.3670  210.2650  156.3480 C   0  0  0  0  0  2  0  0  0  0  0  0
  163.5660  210.9230  157.0050 C   0  0  0  0  0  1  0  0  0  0  0  0
  160.2950  210.5870  153.4630 C   0  0  0  0  0  2  0  0  0  0  0  0
  158.2420  210.9840  154.8620 C   0  0  0  0  0  2  0  0  0  0  0  0
  159.3650  212.8830  153.6890 C   0  0  0  0  0  2  0  0  0  0  0  0
  159.0130  211.3960  153.6090 C   0  0  1  0  0  3  0  0  0  0  0  0
  156.9260  211.7520  154.9430 C   0  0  0  0  0  2  0  0  0  0  0  0
  157.1920  213.2250  154.8670 C   0  0  0  0  0  0  0  0  0  0  0  0
  156.6210  213.9890  155.6260 O   0  0  0  0  0  0  0  0  0  0  0  0
  158.1170  213.7630  153.8090 C   0  0  2  0  0  3  0  0  0  0  0  0
  157.4120  213.8650  152.4650 C   0  0  0  0  0  2  0  0  0  0  0  0
  158.2600  213.2270  151.3770 C   0  0  0  0  0  2  0  0  0  0  0  0
  158.7270  214.2820  150.3900 C   0  0  0  0  0  2  0  0  0  0  0  0
  159.9780  213.8670  149.7760 N   0  0  0  0  0  2  0  0  0  0  0  0
  159.6620  213.3710  148.4460 C   0  0  2  0  0  3  0  0  0  0  0  0
  160.9140  213.4120  147.5650 C   0  0  2  0  0  3  0  0  0  0  0  0
  160.6390  212.9060  146.2900 O   0  0  0  0  0  1  0  0  0  0  0  0
  161.7930  211.4730  148.6330 O   0  0  0  0  0  1  0  0  0  0  0  0
  163.3110  213.1390  148.2320 O   0  0  0  0  0  0  0  0  0  0  0  0
  162.0230  212.6220  148.1780 C   0  0  0  0  0  0  0  0  0  0  0  0
  158.5620  214.2440  147.8530 C   0  0  0  0  0  2  0  0  0  0  0  0
  157.2710  213.4670  147.6000 C   0  0  1  0  0  3  0  0  0  0  0  0
  156.2190  213.9880  148.3300 F   0  0  0  0  0  0  0  0  0  0  0  0
  155.7190  214.0380  145.9000 F   0  0  0  0  0  0  0  0  0  0  0  0
  156.7460  212.0380  145.7570 F   0  0  0  0  0  0  0  0  0  0  0  0
  156.9080  213.3660  146.1200 C   0  0  0  0  0  0  0  0  0  0  0  0
  157.8950  213.9390  145.3400 F   0  0  0  0  0  0  0  0  0  0  0  0
  1 27  1  0  0  0  0
  2  1  1  1  0  0  0
  2  5  1  0  0  0  0
  3  8  1  6  0  0  0
  3  4  1  0  0  0  0
  4  5  1  0  0  0  0
  4 19  1  1  0  0  0
  6  2  1  0  0  0  0
  6  3  1  0  0  0  0
  7  9  2  0  0  0  0
  7  8  1  0  0  0  0
 10 17  1  6  0  0  0
 10  7  1  0  0  0  0
 11 13  1  6  0  0  0
 11 16  1  0  0  0  0
 11 14  1  0  0  0  0
 12 15  1  0  0  0  0
 14 15  1  0  0  0  0
 15 10  1  1  0  0  0
 16 12  1  0  0  0  0
 17 18  1  0  0  0  0
 19 20  1  0  0  0  0
 20 22  1  0  0  0  0
 22 23  1  0  0  0  0
 23 24  1  0  0  0  0
 23 21  2  0  0  0  0
 25 24  1  0  0  0  0
 25 26  1  0  0  0  0
 28 31  1  0  0  0  0
 29 34  1  0  0  0  0
 30 27  1  1  0  0  0
 30 29  1  0  0  0  0
 30 28  1  0  0  0  0
 32 31  1  0  0  0  0
 32 33  2  0  0  0  0
 34 35  1  6  0  0  0
 34 32  1  0  0  0  0
 36 35  1  0  0  0  0
 37 36  1  0  0  0  0
 38 37  1  0  0  0  0
 39 45  1  6  0  0  0
 39 38  1  0  0  0  0
 40 41  1  6  0  0  0
 40 44  1  0  0  0  0
 40 39  1  0  0  0  0
 44 43  2  0  0  0  0
 44 42  1  0  0  0  0
 46 45  1  0  0  0  0
 46 47  1  1  0  0  0
 48 50  1  0  0  0  0
 49 50  1  0  0  0  0
 50 46  1  0  0  0  0
 51 50  1  0  0  0  0
M  END
>  <MODEL>
1

>  <REMARK>
 VINA RESULT:      -5.7      0.000      0.000
  Name = 
  22 active torsions:
  status: ('A' for Active; 'I' for Inactive)
    1  A    between atoms: C_7  and  C_36
    2  A    between atoms: C_7  and  N_37
    3  A    between atoms: C_9  and  C_43
    4  A    between atoms: N_10  and  C_34
    5  A    between atoms: C_11  and  C_46
    6  A    between atoms: C_11  and  C_47
    7  A    between atoms: C_12  and  C_43
    8  A    between atoms: C_13  and  C_14
    9  A    between atoms: C_13  and  C_22
   10  A    between atoms: C_17  and  C_28
   11  A    between atoms: C_17  and  N_32
   12  A    between atoms: C_20  and  C_43
   13  A    between atoms: C_21  and  C_36
   14  A    between atoms: C_21  and  C_51
   15  A    between atoms: C_22  and  C_46
   16  A    between atoms: C_24  and  C_29
   17  A    between atoms: C_25  and  C_48
   18  A    between atoms: C_26  and  C_27
   19  A    between atoms: C_26  and  C_35
   20  A    between atoms: C_28  and  C_39
   21  A    between atoms: C_29  and  C_48
   22  A    between atoms: N_37  and  C_46
                            x       y       z     vdW  Elec       q    Type
                         _______ _______ _______ _____ _____    ______ ____

>  <TORSDO>
F 22

$$$$
=
 OpenBabel11042420213D

 51 53  0  0  1  0  0  0  0  0999 V2000
  162.5060  207.9070  148.7400 C   0  0  0  0  0  2  0  0  0  0  0  0
  162.4860  207.6910  150.2410 C   0  0  2  0  0  3  0  0  0  0  0  0
  160.9210  207.3470  152.2380 C   0  0  2  0  0  3  0  0  0  0  0  0
  161.8950  206.2180  151.9350 C   0  0  2  0  0  3  0  0  0  0  0  0
  162.2760  206.2840  150.5360 N   0  0  0  0  0  2  0  0  0  0  0  0
  161.1350  208.6400  150.9810 S   0  0  0  0  0  0  0  0  0  0  0  0
  161.0970  209.2730  153.8700 C   0  0  0  0  0  0  0  0  0  0  0  0
  161.2120  207.8850  153.5580 N   0  0  0  0  0  2  0  0  0  0  0  0
  160.7530  210.1030  152.9840 O   0  0  0  0  0  0  0  0  0  0  0  0
  161.3570  209.7220  155.2730 C   0  0  2  0  0  3  0  0  0  0  0  0
  158.4610  212.2350  155.2760 C   0  0  1  0  0  3  0  0  0  0  0  0
  158.9020  209.8860  155.2010 N   0  0  0  0  0  2  0  0  0  0  0  0
  157.7140  213.2210  156.0360 N   0  0  0  0  0  1  0  0  0  0  0  0
  160.1670  212.1600  155.8640 S   0  0  0  0  0  0  0  0  0  0  0  0
  160.1000  210.3320  155.9040 C   0  0  2  0  0  3  0  0  0  0  0  0
  157.8680  210.8660  155.4890 C   0  0  0  0  0  2  0  0  0  0  0  0
  162.5320  210.6920  155.2910 C   0  0  0  0  0  2  0  0  0  0  0  0
  163.2650  210.5550  156.5380 N   0  0  0  0  0  1  0  0  0  0  0  0
  161.2540  204.8730  152.2280 C   0  0  0  0  0  2  0  0  0  0  0  0
  161.4650  203.9210  151.0630 C   0  0  0  0  0  2  0  0  0  0  0  0
  159.7940  200.6890  150.5950 O   0  0  0  0  0  0  0  0  0  0  0  0
  160.7970  202.6540  151.3250 N   0  0  0  0  0  2  0  0  0  0  0  0
  160.3790  201.7600  150.2890 C   0  0  0  0  0  0  0  0  0  0  0  0
  160.6630  202.0540  148.8500 C   0  0  0  0  0  2  0  0  0  0  0  0
  161.5920  201.0070  148.2540 C   0  0  0  0  0  2  0  0  0  0  0  0
  161.0500  200.5070  146.9280 C   0  0  0  0  0  1  0  0  0  0  0  0
  161.2310  207.3460  148.1210 C   0  0  0  0  0  2  0  0  0  0  0  0
  161.7320  204.9540  147.5220 C   0  0  0  0  0  2  0  0  0  0  0  0
  160.4440  206.4130  145.9540 C   0  0  0  0  0  2  0  0  0  0  0  0
  161.5660  206.3790  146.9940 C   0  0  1  0  0  3  0  0  0  0  0  0
  162.1440  204.0210  146.3880 C   0  0  0  0  0  2  0  0  0  0  0  0
  161.1620  204.1260  145.2610 C   0  0  0  0  0  0  0  0  0  0  0  0
  160.7550  203.1180  144.7090 O   0  0  0  0  0  0  0  0  0  0  0  0
  160.7280  205.4810  144.7720 C   0  0  2  0  0  3  0  0  0  0  0  0
  161.7780  206.0950  143.8570 C   0  0  0  0  0  2  0  0  0  0  0  0
  161.4220  205.8390  142.4020 C   0  0  0  0  0  2  0  0  0  0  0  0
  162.0750  206.8810  141.5110 C   0  0  0  0  0  2  0  0  0  0  0  0
  161.6680  206.6790  140.1300 N   0  0  0  0  0  2  0  0  0  0  0  0
  161.2610  207.9740  139.6070 C   0  0  2  0  0  3  0  0  0  0  0  0
  161.2060  207.9220  138.0770 C   0  0  2  0  0  3  0  0  0  0  0  0
  162.4040  208.3860  137.5230 O   0  0  0  0  0  1  0  0  0  0  0  0
  158.9680  208.2010  137.3100 O   0  0  0  0  0  0  0  0  0  0  0  0
  160.2260  210.1120  137.3640 O   0  0  0  0  0  1  0  0  0  0  0  0
  160.0730  208.7450  137.5570 C   0  0  0  0  0  0  0  0  0  0  0  0
  162.2660  209.0210  140.0710 C   0  0  0  0  0  2  0  0  0  0  0  0
  161.6250  210.3900  140.2930 C   0  0  1  0  0  3  0  0  0  0  0  0
  161.2030  210.5420  141.6010 F   0  0  0  0  0  0  0  0  0  0  0  0
  162.5760  212.4750  140.9010 F   0  0  0  0  0  0  0  0  0  0  0  0
  162.0090  212.1690  138.7430 F   0  0  0  0  0  0  0  0  0  0  0  0
  162.5220  211.5520  139.8730 C   0  0  0  0  0  0  0  0  0  0  0  0
  163.8030  211.1020  139.6110 F   0  0  0  0  0  0  0  0  0  0  0  0
  2  1  1  6  0  0  0
  2  5  1  0  0  0  0
  2  6  1  0  0  0  0
  3  8  1  1  0  0  0
  4 19  1  6  0  0  0
  4  3  1  0  0  0  0
  5  4  1  0  0  0  0
  6  3  1  0  0  0  0
  7 10  1  0  0  0  0
  8  7  1  0  0  0  0
  9  7  2  0  0  0  0
 10 17  1  6  0  0  0
 11 16  1  0  0  0  0
 11 14  1  0  0  0  0
 11 13  1  1  0  0  0
 12 16  1  0  0  0  0
 12 15  1  0  0  0  0
 14 15  1  0  0  0  0
 15 10  1  6  0  0  0
 17 18  1  0  0  0  0
 20 22  1  0  0  0  0
 20 19  1  0  0  0  0
 23 21  2  0  0  0  0
 23 22  1  0  0  0  0
 24 23  1  0  0  0  0
 25 24  1  0  0  0  0
 26 25  1  0  0  0  0
 27  1  1  0  0  0  0
 29 30  1  0  0  0  0
 30 28  1  0  0  0  0
 30 27  1  1  0  0  0
 31 28  1  0  0  0  0
 32 31  1  0  0  0  0
 33 32  2  0  0  0  0
 34 35  1  6  0  0  0
 34 32  1  0  0  0  0
 34 29  1  0  0  0  0
 36 35  1  0  0  0  0
 37 36  1  0  0  0  0
 38 37  1  0  0  0  0
 39 45  1  6  0  0  0
 39 38  1  0  0  0  0
 40 41  1  6  0  0  0
 40 39  1  0  0  0  0
 42 44  2  0  0  0  0
 43 44  1  0  0  0  0
 44 40  1  0  0  0  0
 45 46  1  0  0  0  0
 46 47  1  1  0  0  0
 49 50  1  0  0  0  0
 50 46  1  0  0  0  0
 50 48  1  0  0  0  0
 51 50  1  0  0  0  0
M  END
>  <MODEL>
2

>  <REMARK>
 VINA RESULT:      -5.6      4.757      9.880
  Name = 
  22 active torsions:
  status: ('A' for Active; 'I' for Inactive)
    1  A    between atoms: C_7  and  C_36
    2  A    between atoms: C_7  and  N_37
    3  A    between atoms: C_9  and  C_43
    4  A    between atoms: N_10  and  C_34
    5  A    between atoms: C_11  and  C_46
    6  A    between atoms: C_11  and  C_47
    7  A    between atoms: C_12  and  C_43
    8  A    between atoms: C_13  and  C_14
    9  A    between atoms: C_13  and  C_22
   10  A    between atoms: C_17  and  C_28
   11  A    between atoms: C_17  and  N_32
   12  A    between atoms: C_20  and  C_43
   13  A    between atoms: C_21  and  C_36
   14  A    between atoms: C_21  and  C_51
   15  A    between atoms: C_22  and  C_46
   16  A    between atoms: C_24  and  C_29
   17  A    between atoms: C_25  and  C_48
   18  A    between atoms: C_26  and  C_27
   19  A    between atoms: C_26  and  C_35
   20  A    between atoms: C_28  and  C_39
   21  A    between atoms: C_29  and  C_48
   22  A    between atoms: N_37  and  C_46
                            x       y       z     vdW  Elec       q    Type
                         _______ _______ _______ _____ _____    ______ ____

>  <TORSDO>
F 22

$$$$
=
 OpenBabel11042420213D

 51 53  0  0  1  0  0  0  0  0999 V2000
  161.3410  206.4020  148.8540 C   0  0  0  0  0  2  0  0  0  0  0  0
  161.1730  207.6940  149.6310 C   0  0  2  0  0  3  0  0  0  0  0  0
  162.4530  209.4430  150.9920 C   0  0  2  0  0  3  0  0  0  0  0  0
  161.7640  209.9360  149.7290 C   0  0  2  0  0  3  0  0  0  0  0  0
  161.5950  208.8200  148.8160 N   0  0  0  0  0  2  0  0  0  0  0  0
  162.1950  207.6500  151.1230 S   0  0  0  0  0  0  0  0  0  0  0  0
  160.8650  209.5140  152.9630 C   0  0  0  0  0  0  0  0  0  0  0  0
  161.8700  210.1140  152.1440 N   0  0  0  0  0  2  0  0  0  0  0  0
  160.4230  208.3630  152.6950 O   0  0  0  0  0  0  0  0  0  0  0  0
  160.3730  210.2570  154.1630 C   0  0  2  0  0  3  0  0  0  0  0  0
  157.9440  213.1300  153.4210 C   0  0  1  0  0  3  0  0  0  0  0  0
  159.5940  212.4350  155.0060 N   0  0  0  0  0  2  0  0  0  0  0  0
  157.6130  214.2410  152.5470 N   0  0  0  0  0  1  0  0  0  0  0  0
  158.8300  211.8560  152.4980 S   0  0  0  0  0  0  0  0  0  0  0  0
  160.0790  211.7240  153.8280 C   0  0  2  0  0  3  0  0  0  0  0  0
  158.8700  213.5960  154.5150 C   0  0  0  0  0  2  0  0  0  0  0  0
  161.3800  210.1220  155.2990 C   0  0  0  0  0  2  0  0  0  0  0  0
  161.5660  208.7190  155.6280 N   0  0  0  0  0  1  0  0  0  0  0  0
  162.5930  211.0190  149.0620 C   0  0  0  0  0  2  0  0  0  0  0  0
  161.7280  211.8500  148.1300 C   0  0  0  0  0  2  0  0  0  0  0  0
  159.3320  214.4110  149.2090 O   0  0  0  0  0  0  0  0  0  0  0  0
  161.0940  212.9330  148.8680 N   0  0  0  0  0  2  0  0  0  0  0  0
  159.8090  213.4640  148.5300 C   0  0  0  0  0  0  0  0  0  0  0  0
  159.0000  212.8850  147.4130 C   0  0  0  0  0  2  0  0  0  0  0  0
  159.6850  213.1080  146.0730 C   0  0  0  0  0  2  0  0  0  0  0  0
  158.8000  212.6290  144.9370 C   0  0  0  0  0  1  0  0  0  0  0  0
  162.4690  206.5530  147.8400 C   0  0  0  0  0  2  0  0  0  0  0  0
  161.7530  204.2820  147.0270 C   0  0  0  0  0  2  0  0  0  0  0  0
  161.1290  206.3410  145.7550 C   0  0  0  0  0  2  0  0  0  0  0  0
  162.2080  205.6830  146.6180 C   0  0  1  0  0  3  0  0  0  0  0  0
  161.5750  203.4080  145.7890 C   0  0  0  0  0  2  0  0  0  0  0  0
  160.6420  204.0770  144.8250 C   0  0  0  0  0  0  0  0  0  0  0  0
  159.7650  203.4330  144.2760 O   0  0  0  0  0  0  0  0  0  0  0  0
  160.8330  205.5310  144.4890 C   0  0  2  0  0  3  0  0  0  0  0  0
  161.9500  205.7170  143.4710 C   0  0  0  0  0  2  0  0  0  0  0  0
  161.3690  205.8700  142.0750 C   0  0  0  0  0  2  0  0  0  0  0  0
  162.1260  206.9390  141.3080 C   0  0  0  0  0  2  0  0  0  0  0  0
  161.8910  206.7860  139.8810 N   0  0  0  0  0  2  0  0  0  0  0  0
  161.3490  208.0450  139.3950 C   0  0  2  0  0  3  0  0  0  0  0  0
  161.1580  207.9770  137.8770 C   0  0  2  0  0  3  0  0  0  0  0  0
  162.3240  208.3720  137.2130 O   0  0  0  0  0  1  0  0  0  0  0  0
  158.8590  208.3850  137.4050 O   0  0  0  0  0  1  0  0  0  0  0  0
  160.2510  210.1770  137.1020 O   0  0  0  0  0  0  0  0  0  0  0  0
  160.0260  208.8490  137.4430 C   0  0  0  0  0  0  0  0  0  0  0  0
  162.3180  209.1620  139.7620 C   0  0  0  0  0  2  0  0  0  0  0  0
  161.6030  210.4680  140.1030 C   0  0  1  0  0  3  0  0  0  0  0  0
  161.0410  210.4190  141.3660 F   0  0  0  0  0  0  0  0  0  0  0  0
  162.8030  212.1900  141.2090 F   0  0  0  0  0  0  0  0  0  0  0  0
  161.8280  212.6860  139.2400 F   0  0  0  0  0  0  0  0  0  0  0  0
  162.4930  211.7010  139.9530 C   0  0  0  0  0  0  0  0  0  0  0  0
  163.6660  211.3720  139.3010 F   0  0  0  0  0  0  0  0  0  0  0  0
  2  1  1  6  0  0  0
  2  6  1  0  0  0  0
  3  6  1  0  0  0  0
  3  8  1  1  0  0  0
  4 19  1  6  0  0  0
  4  3  1  0  0  0  0
  5  2  1  0  0  0  0
  5  4  1  0  0  0  0
  7 10  1  0  0  0  0
  8  7  1  0  0  0  0
  9  7  2  0  0  0  0
 10 17  1  1  0  0  0
 11 13  1  6  0  0  0
 11 16  1  0  0  0  0
 14 11  1  0  0  0  0
 14 15  1  0  0  0  0
 15 10  1  1  0  0  0
 15 12  1  0  0  0  0
 16 12  1  0  0  0  0
 17 18  1  0  0  0  0
 20 22  1  0  0  0  0
 20 19  1  0  0  0  0
 23 22  1  0  0  0  0
 23 21  2  0  0  0  0
 24 23  1  0  0  0  0
 25 24  1  0  0  0  0
 26 25  1  0  0  0  0
 27  1  1  0  0  0  0
 29 30  1  0  0  0  0
 30 28  1  0  0  0  0
 30 27  1  1  0  0  0
 31 28  1  0  0  0  0
 32 31  1  0  0  0  0
 33 32  2  0  0  0  0
 34 35  1  6  0  0  0
 34 32  1  0  0  0  0
 34 29  1  0  0  0  0
 36 35  1  0  0  0  0
 37 36  1  0  0  0  0
 38 37  1  0  0  0  0
 39 45  1  6  0  0  0
 39 38  1  0  0  0  0
 40 41  1  6  0  0  0
 40 39  1  0  0  0  0
 42 44  1  0  0  0  0
 43 44  2  0  0  0  0
 44 40  1  0  0  0  0
 45 46  1  0  0  0  0
 46 47  1  1  0  0  0
 49 50  1  0  0  0  0
 50 46  1  0  0  0  0
 50 48  1  0  0  0  0
 51 50  1  0  0  0  0
M  END
>  <MODEL>
3

>  <REMARK>
 VINA RESULT:      -5.3      4.647      9.895
  Name = 
  22 active torsions:
  status: ('A' for Active; 'I' for Inactive)
    1  A    between atoms: C_7  and  C_36
    2  A    between atoms: C_7  and  N_37
    3  A    between atoms: C_9  and  C_43
    4  A    between atoms: N_10  and  C_34
    5  A    between atoms: C_11  and  C_46
    6  A    between atoms: C_11  and  C_47
    7  A    between atoms: C_12  and  C_43
    8  A    between atoms: C_13  and  C_14
    9  A    between atoms: C_13  and  C_22
   10  A    between atoms: C_17  and  C_28
   11  A    between atoms: C_17  and  N_32
   12  A    between atoms: C_20  and  C_43
   13  A    between atoms: C_21  and  C_36
   14  A    between atoms: C_21  and  C_51
   15  A    between atoms: C_22  and  C_46
   16  A    between atoms: C_24  and  C_29
   17  A    between atoms: C_25  and  C_48
   18  A    between atoms: C_26  and  C_27
   19  A    between atoms: C_26  and  C_35
   20  A    between atoms: C_28  and  C_39
   21  A    between atoms: C_29  and  C_48
   22  A    between atoms: N_37  and  C_46
                            x       y       z     vdW  Elec       q    Type
                         _______ _______ _______ _____ _____    ______ ____

>  <TORSDO>
F 22

$$$$
=
 OpenBabel11042420213D

 51 53  0  0  1  0  0  0  0  0999 V2000
  161.4660  210.7820  151.4840 C   0  0  0  0  0  2  0  0  0  0  0  0
  161.0710  209.3730  151.0830 C   0  0  2  0  0  3  0  0  0  0  0  0
  162.0220  207.0680  150.5060 C   0  0  2  0  0  3  0  0  0  0  0  0
  161.1080  207.1410  151.7190 C   0  0  2  0  0  3  0  0  0  0  0  0
  161.1210  208.4960  152.2400 N   0  0  0  0  0  2  0  0  0  0  0  0
  162.2210  208.7440  149.8360 S   0  0  0  0  0  0  0  0  0  0  0  0
  161.7560  206.2650  148.1190 C   0  0  0  0  0  0  0  0  0  0  0  0
  161.4170  206.2030  149.5050 N   0  0  0  0  0  2  0  0  0  0  0  0
  162.5970  207.1080  147.7030 O   0  0  0  0  0  0  0  0  0  0  0  0
  161.1250  205.2910  147.1760 C   0  0  2  0  0  3  0  0  0  0  0  0
  160.2970  201.8990  148.7610 C   0  0  1  0  0  3  0  0  0  0  0  0
  160.8150  202.9050  146.6550 N   0  0  0  0  0  2  0  0  0  0  0  0
  160.7380  200.8350  149.6450 N   0  0  0  0  0  1  0  0  0  0  0  0
  161.0240  203.4710  149.2710 S   0  0  0  0  0  0  0  0  0  0  0  0
  161.4890  203.8470  147.5420 C   0  0  2  0  0  3  0  0  0  0  0  0
  160.7780  201.6340  147.3580 C   0  0  0  0  0  2  0  0  0  0  0  0
  161.5210  205.6340  145.7450 C   0  0  0  0  0  2  0  0  0  0  0  0
  161.2490  204.5030  144.8740 N   0  0  0  0  0  1  0  0  0  0  0  0
  161.5770  206.1770  152.7940 C   0  0  0  0  0  2  0  0  0  0  0  0
  161.8020  206.9120  154.1040 C   0  0  0  0  0  2  0  0  0  0  0  0
  159.3590  206.8260  156.8400 O   0  0  0  0  0  0  0  0  0  0  0  0
  160.8630  206.4380  155.1110 N   0  0  0  0  0  2  0  0  0  0  0  0
  160.1440  207.3130  155.9850 C   0  0  0  0  0  0  0  0  0  0  0  0
  160.2720  208.7990  155.8720 C   0  0  0  0  0  2  0  0  0  0  0  0
  161.2080  209.3470  156.9390 C   0  0  0  0  0  2  0  0  0  0  0  0
  162.4590  209.9240  156.3040 C   0  0  0  0  0  1  0  0  0  0  0  0
  160.9540  211.0800  152.8880 C   0  0  0  0  0  2  0  0  0  0  0  0
  158.7400  211.2520  154.0690 C   0  0  0  0  0  2  0  0  0  0  0  0
  159.6200  213.1740  152.7380 C   0  0  0  0  0  2  0  0  0  0  0  0
  159.5430  211.6490  152.8310 C   0  0  1  0  0  3  0  0  0  0  0  0
  157.3080  211.7660  153.9510 C   0  0  0  0  0  2  0  0  0  0  0  0
  157.3180  213.2440  153.6990 C   0  0  0  0  0  0  0  0  0  0  0  0
  156.5530  213.9730  154.3070 O   0  0  0  0  0  0  0  0  0  0  0  0
  158.2320  213.8160  152.6490 C   0  0  2  0  0  3  0  0  0  0  0  0
  157.6510  213.6250  151.2550 C   0  0  0  0  0  2  0  0  0  0  0  0
  158.7530  213.2710  150.2710 C   0  0  0  0  0  2  0  0  0  0  0  0
  159.0110  214.4350  149.3310 C   0  0  0  0  0  2  0  0  0  0  0  0
  160.2290  214.2000  148.5730 N   0  0  0  0  0  2  0  0  0  0  0  0
  159.8680  213.3950  147.4170 C   0  0  2  0  0  3  0  0  0  0  0  0
  161.0620  212.5350  146.9900 C   0  0  2  0  0  3  0  0  0  0  0  0
  161.0620  211.3140  147.6720 O   0  0  0  0  0  1  0  0  0  0  0  0
  162.5940  214.3310  146.6720 O   0  0  0  0  0  0  0  0  0  0  0  0
  163.2710  212.7220  148.1520 O   0  0  0  0  0  1  0  0  0  0  0  0
  162.3500  213.2450  147.2530 C   0  0  0  0  0  0  0  0  0  0  0  0
  159.4500  214.3280  146.2880 C   0  0  0  0  0  2  0  0  0  0  0  0
  158.1710  213.8660  145.5900 C   0  0  1  0  0  3  0  0  0  0  0  0
  158.4530  213.2300  144.3950 F   0  0  0  0  0  0  0  0  0  0  0  0
  156.2380  212.4970  145.7140 F   0  0  0  0  0  0  0  0  0  0  0  0
  156.7620  213.7410  147.5170 F   0  0  0  0  0  0  0  0  0  0  0  0
  157.2830  212.9920  146.4730 C   0  0  0  0  0  0  0  0  0  0  0  0
  158.0050  211.9300  146.9840 F   0  0  0  0  0  0  0  0  0  0  0  0
  1 27  1  0  0  0  0
  2  1  1  1  0  0  0
  2  5  1  0  0  0  0
  3  8  1  6  0  0  0
  3  4  1  0  0  0  0
  4  5  1  0  0  0  0
  4 19  1  1  0  0  0
  6  3  1  0  0  0  0
  6  2  1  0  0  0  0
  7  8  1  0  0  0  0
  9  7  2  0  0  0  0
 10 17  1  6  0  0  0
 10  7  1  0  0  0  0
 11 14  1  0  0  0  0
 11 13  1  1  0  0  0
 12 16  1  0  0  0  0
 12 15  1  0  0  0  0
 15 10  1  6  0  0  0
 15 14  1  0  0  0  0
 16 11  1  0  0  0  0
 18 17  1  0  0  0  0
 19 20  1  0  0  0  0
 20 22  1  0  0  0  0
 22 23  1  0  0  0  0
 23 21  2  0  0  0  0
 24 23  1  0  0  0  0
 24 25  1  0  0  0  0
 26 25  1  0  0  0  0
 29 30  1  0  0  0  0
 30 27  1  1  0  0  0
 30 28  1  0  0  0  0
 31 28  1  0  0  0  0
 32 31  1  0  0  0  0
 32 33  2  0  0  0  0
 34 35  1  6  0  0  0
 34 29  1  0  0  0  0
 34 32  1  0  0  0  0
 36 35  1  0  0  0  0
 37 36  1  0  0  0  0
 38 37  1  0  0  0  0
 39 45  1  6  0  0  0
 39 38  1  0  0  0  0
 40 44  1  0  0  0  0
 40 39  1  0  0  0  0
 40 41  1  1  0  0  0
 42 44  2  0  0  0  0
 44 43  1  0  0  0  0
 46 47  1  6  0  0  0
 46 45  1  0  0  0  0
 46 50  1  0  0  0  0
 48 50  1  0  0  0  0
 50 51  1  0  0  0  0
 50 49  1  0  0  0  0
M  END
>  <MODEL>
4

>  <REMARK>
 VINA RESULT:      -4.8      1.452      2.424
  Name = 
  22 active torsions:
  status: ('A' for Active; 'I' for Inactive)
    1  A    between atoms: C_7  and  C_36
    2  A    between atoms: C_7  and  N_37
    3  A    between atoms: C_9  and  C_43
    4  A    between atoms: N_10  and  C_34
    5  A    between atoms: C_11  and  C_46
    6  A    between atoms: C_11  and  C_47
    7  A    between atoms: C_12  and  C_43
    8  A    between atoms: C_13  and  C_14
    9  A    between atoms: C_13  and  C_22
   10  A    between atoms: C_17  and  C_28
   11  A    between atoms: C_17  and  N_32
   12  A    between atoms: C_20  and  C_43
   13  A    between atoms: C_21  and  C_36
   14  A    between atoms: C_21  and  C_51
   15  A    between atoms: C_22  and  C_46
   16  A    between atoms: C_24  and  C_29
   17  A    between atoms: C_25  and  C_48
   18  A    between atoms: C_26  and  C_27
   19  A    between atoms: C_26  and  C_35
   20  A    between atoms: C_28  and  C_39
   21  A    between atoms: C_29  and  C_48
   22  A    between atoms: N_37  and  C_46
                            x       y       z     vdW  Elec       q    Type
                         _______ _______ _______ _____ _____    ______ ____

>  <TORSDO>
F 22

$$$$
=
 OpenBabel11042420213D

 51 53  0  0  1  0  0  0  0  0999 V2000
  161.3830  206.7460  148.9910 C   0  0  0  0  0  2  0  0  0  0  0  0
  161.2650  207.9830  149.8610 C   0  0  2  0  0  3  0  0  0  0  0  0
  162.6380  209.6960  151.1770 C   0  0  2  0  0  3  0  0  0  0  0  0
  161.7940  210.2360  150.0330 C   0  0  2  0  0  3  0  0  0  0  0  0
  161.5560  209.1700  149.0770 N   0  0  0  0  0  2  0  0  0  0  0  0
  162.4520  207.8900  151.2240 S   0  0  0  0  0  0  0  0  0  0  0  0
  160.7920  210.3140  152.7950 C   0  0  0  0  0  0  0  0  0  0  0  0
  162.1710  210.2750  152.4270 N   0  0  0  0  0  2  0  0  0  0  0  0
  159.9080  209.8560  152.0190 O   0  0  0  0  0  0  0  0  0  0  0  0
  160.4150  210.8730  154.1300 C   0  0  2  0  0  3  0  0  0  0  0  0
  160.9030  208.0580  156.6860 C   0  0  1  0  0  3  0  0  0  0  0  0
  159.9070  210.2190  156.4480 N   0  0  0  0  0  2  0  0  0  0  0  0
  160.5720  206.6960  157.0670 N   0  0  0  0  0  1  0  0  0  0  0  0
  160.8320  208.2360  154.8910 S   0  0  0  0  0  0  0  0  0  0  0  0
  159.8670  209.7820  155.0570 C   0  0  2  0  0  3  0  0  0  0  0  0
  159.8860  209.0110  157.2570 C   0  0  0  0  0  2  0  0  0  0  0  0
  159.4230  212.0150  153.9450 C   0  0  0  0  0  2  0  0  0  0  0  0
  159.6370  213.0240  154.9690 N   0  0  0  0  0  1  0  0  0  0  0  0
  162.5070  211.3870  149.3470 C   0  0  0  0  0  2  0  0  0  0  0  0
  161.5800  212.0700  148.3560 C   0  0  0  0  0  2  0  0  0  0  0  0
  162.5020  213.5670  145.1360 O   0  0  0  0  0  0  0  0  0  0  0  0
  162.3520  212.6520  147.2670 N   0  0  0  0  0  2  0  0  0  0  0  0
  161.7660  213.0870  146.0370 C   0  0  0  0  0  0  0  0  0  0  0  0
  160.2880  213.0230  145.8160 C   0  0  0  0  0  2  0  0  0  0  0  0
  159.9620  212.3230  144.5050 C   0  0  0  0  0  2  0  0  0  0  0  0
  159.1570  213.2370  143.6000 C   0  0  0  0  0  1  0  0  0  0  0  0
  162.3400  207.0180  147.8360 C   0  0  0  0  0  2  0  0  0  0  0  0
  161.7330  204.6330  147.3140 C   0  0  0  0  0  2  0  0  0  0  0  0
  161.0850  206.4760  145.7570 C   0  0  0  0  0  2  0  0  0  0  0  0
  162.1540  205.9830  146.7340 C   0  0  1  0  0  3  0  0  0  0  0  0
  161.6300  203.5950  146.2010 C   0  0  0  0  0  2  0  0  0  0  0  0
  160.7120  204.0920  145.1260 C   0  0  0  0  0  0  0  0  0  0  0  0
  159.8780  203.3460  144.6420 O   0  0  0  0  0  0  0  0  0  0  0  0
  160.8640  205.4950  144.6030 C   0  0  2  0  0  3  0  0  0  0  0  0
  162.0100  205.5860  143.6060 C   0  0  0  0  0  2  0  0  0  0  0  0
  161.4690  205.6600  142.1880 C   0  0  0  0  0  2  0  0  0  0  0  0
  161.7920  207.0110  141.5740 C   0  0  0  0  0  2  0  0  0  0  0  0
  161.8240  206.9020  140.1240 N   0  0  0  0  0  2  0  0  0  0  0  0
  161.3580  208.1700  139.5860 C   0  0  2  0  0  3  0  0  0  0  0  0
  161.1370  208.0440  138.0760 C   0  0  2  0  0  3  0  0  0  0  0  0
  162.2970  208.3910  137.3750 O   0  0  0  0  0  1  0  0  0  0  0  0
  160.2440  210.0990  137.2680 O   0  0  0  0  0  0  0  0  0  0  0  0
  158.7130  208.4280  137.5850 O   0  0  0  0  0  1  0  0  0  0  0  0
  160.0120  208.9180  137.6270 C   0  0  0  0  0  0  0  0  0  0  0  0
  162.4030  209.2360  139.8860 C   0  0  0  0  0  2  0  0  0  0  0  0
  161.7820  210.6050  140.1600 C   0  0  1  0  0  3  0  0  0  0  0  0
  161.5150  210.7760  141.5060 F   0  0  0  0  0  0  0  0  0  0  0  0
  161.9080  212.4020  138.6170 F   0  0  0  0  0  0  0  0  0  0  0  0
  163.8090  211.2940  139.0980 F   0  0  0  0  0  0  0  0  0  0  0  0
  162.6150  211.7660  139.6200 C   0  0  0  0  0  0  0  0  0  0  0  0
  162.8810  212.6770  140.6250 F   0  0  0  0  0  0  0  0  0  0  0  0
  2  1  1  6  0  0  0
  2  6  1  0  0  0  0
  3  6  1  0  0  0  0
  3  8  1  1  0  0  0
  4 19  1  6  0  0  0
  4  3  1  0  0  0  0
  5  2  1  0  0  0  0
  5  4  1  0  0  0  0
  7 10  1  0  0  0  0
  8  7  1  0  0  0  0
  9  7  2  0  0  0  0
 10 17  1  6  0  0  0
 11 13  1  6  0  0  0
 11 16  1  0  0  0  0
 12 16  1  0  0  0  0
 14 15  1  0  0  0  0
 14 11  1  0  0  0  0
 15 10  1  6  0  0  0
 15 12  1  0  0  0  0
 17 18  1  0  0  0  0
 20 19  1  0  0  0  0
 21 23  2  0  0  0  0
 22 20  1  0  0  0  0
 23 22  1  0  0  0  0
 24 23  1  0  0  0  0
 25 24  1  0  0  0  0
 26 25  1  0  0  0  0
 27  1  1  0  0  0  0
 29 30  1  0  0  0  0
 30 28  1  0  0  0  0
 30 27  1  1  0  0  0
 31 28  1  0  0  0  0
 32 31  1  0  0  0  0
 33 32  2  0  0  0  0
 34 35  1  6  0  0  0
 34 32  1  0  0  0  0
 34 29  1  0  0  0  0
 36 35  1  0  0  0  0
 37 36  1  0  0  0  0
 38 37  1  0  0  0  0
 39 45  1  6  0  0  0
 39 38  1  0  0  0  0
 40 41  1  6  0  0  0
 40 39  1  0  0  0  0
 42 44  2  0  0  0  0
 43 44  1  0  0  0  0
 44 40  1  0  0  0  0
 45 46  1  0  0  0  0
 46 47  1  1  0  0  0
 48 50  1  0  0  0  0
 49 50  1  0  0  0  0
 50 46  1  0  0  0  0
 50 51  1  0  0  0  0
M  END
>  <MODEL>
5

>  <REMARK>
 VINA RESULT:      -4.7      4.690     10.172
  Name = 
  22 active torsions:
  status: ('A' for Active; 'I' for Inactive)
    1  A    between atoms: C_7  and  C_36
    2  A    between atoms: C_7  and  N_37
    3  A    between atoms: C_9  and  C_43
    4  A    between atoms: N_10  and  C_34
    5  A    between atoms: C_11  and  C_46
    6  A    between atoms: C_11  and  C_47
    7  A    between atoms: C_12  and  C_43
    8  A    between atoms: C_13  and  C_14
    9  A    between atoms: C_13  and  C_22
   10  A    between atoms: C_17  and  C_28
   11  A    between atoms: C_17  and  N_32
   12  A    between atoms: C_20  and  C_43
   13  A    between atoms: C_21  and  C_36
   14  A    between atoms: C_21  and  C_51
   15  A    between atoms: C_22  and  C_46
   16  A    between atoms: C_24  and  C_29
   17  A    between atoms: C_25  and  C_48
   18  A    between atoms: C_26  and  C_27
   19  A    between atoms: C_26  and  C_35
   20  A    between atoms: C_28  and  C_39
   21  A    between atoms: C_29  and  C_48
   22  A    between atoms: N_37  and  C_46
                            x       y       z     vdW  Elec       q    Type
                         _______ _______ _______ _____ _____    ______ ____

>  <TORSDO>
F 22

$$$$
=
 OpenBabel11042420213D

 51 53  0  0  1  0  0  0  0  0999 V2000
  161.4850  206.8610  149.4790 C   0  0  0  0  0  2  0  0  0  0  0  0
  161.2080  208.2320  150.0660 C   0  0  2  0  0  3  0  0  0  0  0  0
  162.3210  210.2230  151.2290 C   0  0  2  0  0  3  0  0  0  0  0  0
  161.6690  210.4990  149.8830 C   0  0  2  0  0  3  0  0  0  0  0  0
  161.6060  209.2640  149.1240 N   0  0  0  0  0  2  0  0  0  0  0  0
  162.1560  208.4510  151.5910 S   0  0  0  0  0  0  0  0  0  0  0  0
  160.3880  210.6260  152.8130 C   0  0  0  0  0  0  0  0  0  0  0  0
  161.6460  211.0040  152.2540 N   0  0  0  0  0  2  0  0  0  0  0  0
  159.7940  209.5870  152.4110 O   0  0  0  0  0  0  0  0  0  0  0  0
  159.8030  211.4600  153.9070 C   0  0  2  0  0  3  0  0  0  0  0  0
  161.8500  209.2190  156.2500 C   0  0  1  0  0  3  0  0  0  0  0  0
  161.2300  211.5030  155.9120 N   0  0  0  0  0  2  0  0  0  0  0  0
  161.8220  208.1770  157.2610 N   0  0  0  0  0  1  0  0  0  0  0  0
  160.4260  209.0570  155.1510 S   0  0  0  0  0  0  0  0  0  0  0  0
  160.0870  210.8500  155.2850 C   0  0  2  0  0  3  0  0  0  0  0  0
  161.7420  210.5720  156.9040 C   0  0  0  0  0  2  0  0  0  0  0  0
  158.3110  211.6500  153.6640 C   0  0  0  0  0  2  0  0  0  0  0  0
  157.9590  213.0510  153.8270 N   0  0  0  0  0  1  0  0  0  0  0  0
  162.4690  211.5330  149.1100 C   0  0  0  0  0  2  0  0  0  0  0  0
  161.5480  212.6040  148.5490 C   0  0  0  0  0  2  0  0  0  0  0  0
  159.3960  212.3770  145.5860 O   0  0  0  0  0  0  0  0  0  0  0  0
  160.9240  212.1330  147.3210 N   0  0  0  0  0  2  0  0  0  0  0  0
  159.8970  212.8570  146.6360 C   0  0  0  0  0  0  0  0  0  0  0  0
  159.4390  214.1960  147.1200 C   0  0  0  0  0  2  0  0  0  0  0  0
  158.3450  214.0520  148.1670 C   0  0  0  0  0  2  0  0  0  0  0  0
  157.4340  212.8860  147.8280 C   0  0  0  0  0  1  0  0  0  0  0  0
  162.3960  206.9940  148.2650 C   0  0  0  0  0  2  0  0  0  0  0  0
  160.8130  206.9640  146.3100 C   0  0  0  0  0  2  0  0  0  0  0  0
  163.0150  205.7890  146.1780 C   0  0  0  0  0  2  0  0  0  0  0  0
  161.8560  206.1750  147.1000 C   0  0  1  0  0  3  0  0  0  0  0  0
  160.2310  206.0950  145.1990 C   0  0  0  0  0  2  0  0  0  0  0  0
  161.3380  205.5520  144.3460 C   0  0  0  0  0  0  0  0  0  0  0  0
  161.2350  205.5640  143.1320 O   0  0  0  0  0  0  0  0  0  0  0  0
  162.5480  204.9370  144.9950 C   0  0  2  0  0  3  0  0  0  0  0  0
  162.2600  203.5130  145.4510 C   0  0  0  0  0  2  0  0  0  0  0  0
  160.7600  203.2860  145.5490 C   0  0  0  0  0  2  0  0  0  0  0  0
  160.3960  202.7830  146.9350 C   0  0  0  0  0  2  0  0  0  0  0  0
  161.2740  203.3830  147.9270 N   0  0  0  0  0  2  0  0  0  0  0  0
  161.1750  202.5770  149.1330 C   0  0  2  0  0  3  0  0  0  0  0  0
  160.5780  201.2070  148.7940 C   0  0  2  0  0  3  0  0  0  0  0  0
  160.2120  200.5250  149.9590 O   0  0  0  0  0  1  0  0  0  0  0  0
  162.7160  200.2070  148.4720 O   0  0  0  0  0  1  0  0  0  0  0  0
  161.1800  199.7760  146.8310 O   0  0  0  0  0  0  0  0  0  0  0  0
  161.5540  200.3770  148.0260 C   0  0  0  0  0  0  0  0  0  0  0  0
  160.2920  203.3110  150.1340 C   0  0  0  0  0  2  0  0  0  0  0  0
  160.8340  203.2310  151.5610 C   0  0  1  0  0  3  0  0  0  0  0  0
  161.8700  202.3200  151.6550 F   0  0  0  0  0  0  0  0  0  0  0  0
  161.2660  204.5180  153.5060 F   0  0  0  0  0  0  0  0  0  0  0  0
  160.3490  205.5660  151.7350 F   0  0  0  0  0  0  0  0  0  0  0  0
  161.2510  204.5880  152.1250 C   0  0  0  0  0  0  0  0  0  0  0  0
  162.5160  204.9260  151.6830 F   0  0  0  0  0  0  0  0  0  0  0  0
  2  1  1  6  0  0  0
  2  6  1  0  0  0  0
  3  6  1  0  0  0  0
  3  8  1  1  0  0  0
  4 19  1  6  0  0  0
  4  3  1  0  0  0  0
  5  4  1  0  0  0  0
  5  2  1  0  0  0  0
  7 10  1  0  0  0  0
  8  7  1  0  0  0  0
  9  7  2  0  0  0  0
 10 17  1  6  0  0  0
 11 16  1  0  0  0  0
 11 13  1  1  0  0  0
 12 16  1  0  0  0  0
 14 15  1  0  0  0  0
 14 11  1  0  0  0  0
 15 10  1  6  0  0  0
 15 12  1  0  0  0  0
 17 18  1  0  0  0  0
 20 19  1  0  0  0  0
 21 23  2  0  0  0  0
 22 20  1  0  0  0  0
 23 24  1  0  0  0  0
 23 22  1  0  0  0  0
 24 25  1  0  0  0  0
 26 25  1  0  0  0  0
 27  1  1  0  0  0  0
 28 30  1  0  0  0  0
 29 30  1  0  0  0  0
 30 27  1  1  0  0  0
 31 28  1  0  0  0  0
 32 34  1  0  0  0  0
 32 31  1  0  0  0  0
 33 32  2  0  0  0  0
 34 35  1  1  0  0  0
 34 29  1  0  0  0  0
 35 36  1  0  0  0  0
 36 37  1  0  0  0  0
 37 38  1  0  0  0  0
 38 39  1  0  0  0  0
 39 45  1  1  0  0  0
 40 39  1  0  0  0  0
 40 41  1  1  0  0  0
 43 44  2  0  0  0  0
 44 42  1  0  0  0  0
 44 40  1  0  0  0  0
 45 46  1  0  0  0  0
 46 47  1  6  0  0  0
 46 50  1  0  0  0  0
 49 50  1  0  0  0  0
 50 48  1  0  0  0  0
 51 50  1  0  0  0  0
M  END
>  <MODEL>
6

>  <REMARK>
 VINA RESULT:      -4.2      4.160     10.517
  Name = 
  22 active torsions:
  status: ('A' for Active; 'I' for Inactive)
    1  A    between atoms: C_7  and  C_36
    2  A    between atoms: C_7  and  N_37
    3  A    between atoms: C_9  and  C_43
    4  A    between atoms: N_10  and  C_34
    5  A    between atoms: C_11  and  C_46
    6  A    between atoms: C_11  and  C_47
    7  A    between atoms: C_12  and  C_43
    8  A    between atoms: C_13  and  C_14
    9  A    between atoms: C_13  and  C_22
   10  A    between atoms: C_17  and  C_28
   11  A    between atoms: C_17  and  N_32
   12  A    between atoms: C_20  and  C_43
   13  A    between atoms: C_21  and  C_36
   14  A    between atoms: C_21  and  C_51
   15  A    between atoms: C_22  and  C_46
   16  A    between atoms: C_24  and  C_29
   17  A    between atoms: C_25  and  C_48
   18  A    between atoms: C_26  and  C_27
   19  A    between atoms: C_26  and  C_35
   20  A    between atoms: C_28  and  C_39
   21  A    between atoms: C_29  and  C_48
   22  A    between atoms: N_37  and  C_46
                            x       y       z     vdW  Elec       q    Type
                         _______ _______ _______ _____ _____    ______ ____

>  <TORSDO>
F 22

$$$$
=
 OpenBabel11042420213D

 51 53  0  0  1  0  0  0  0  0999 V2000
  161.5840  206.8940  149.4070 C   0  0  0  0  0  2  0  0  0  0  0  0
  161.2620  208.2000  150.1090 C   0  0  2  0  0  3  0  0  0  0  0  0
  162.3160  210.1410  151.4030 C   0  0  2  0  0  3  0  0  0  0  0  0
  161.6160  210.4930  150.1000 C   0  0  2  0  0  3  0  0  0  0  0  0
  161.5880  209.3210  149.2450 N   0  0  0  0  0  2  0  0  0  0  0  0
  162.2400  208.3400  151.6250 S   0  0  0  0  0  0  0  0  0  0  0  0
  160.8650  210.0990  153.4770 C   0  0  0  0  0  0  0  0  0  0  0  0
  161.6350  210.8050  152.5040 N   0  0  0  0  0  2  0  0  0  0  0  0
  160.7270  208.8470  153.4010 O   0  0  0  0  0  0  0  0  0  0  0  0
  160.2540  210.8630  154.6080 C   0  0  2  0  0  3  0  0  0  0  0  0
  157.3460  213.3430  154.3000 C   0  0  1  0  0  3  0  0  0  0  0  0
  159.5390  213.1340  155.2320 N   0  0  0  0  0  2  0  0  0  0  0  0
  156.5690  214.1950  153.4180 N   0  0  0  0  0  1  0  0  0  0  0  0
  158.0060  211.9350  153.3820 S   0  0  0  0  0  0  0  0  0  0  0  0
  159.6570  212.1900  154.1260 C   0  0  2  0  0  3  0  0  0  0  0  0
  158.5310  214.1040  154.8360 C   0  0  0  0  0  2  0  0  0  0  0  0
  161.2900  211.0690  155.7060 C   0  0  0  0  0  2  0  0  0  0  0  0
  160.9850  210.2130  156.8400 N   0  0  0  0  0  1  0  0  0  0  0  0
  162.3480  211.6220  149.3950 C   0  0  0  0  0  2  0  0  0  0  0  0
  161.4620  212.2430  148.3290 C   0  0  0  0  0  2  0  0  0  0  0  0
  162.5320  213.4950  145.0500 O   0  0  0  0  0  0  0  0  0  0  0  0
  162.2780  212.7680  147.2430 N   0  0  0  0  0  2  0  0  0  0  0  0
  161.7590  213.0560  145.9410 C   0  0  0  0  0  0  0  0  0  0  0  0
  160.3060  212.8870  145.6310 C   0  0  0  0  0  2  0  0  0  0  0  0
  160.0310  213.1400  144.1570 C   0  0  0  0  0  2  0  0  0  0  0  0
  160.0900  211.8410  143.3740 C   0  0  0  0  0  1  0  0  0  0  0  0
  162.3680  207.1750  148.1310 C   0  0  0  0  0  2  0  0  0  0  0  0
  160.7220  206.8640  146.2540 C   0  0  0  0  0  2  0  0  0  0  0  0
  163.0660  206.0270  146.0370 C   0  0  0  0  0  2  0  0  0  0  0  0
  161.9050  206.2580  147.0070 C   0  0  1  0  0  3  0  0  0  0  0  0
  160.2270  205.8930  145.1870 C   0  0  0  0  0  2  0  0  0  0  0  0
  161.3640  205.5010  144.2910 C   0  0  0  0  0  0  0  0  0  0  0  0
  161.2060  205.4690  143.0830 O   0  0  0  0  0  0  0  0  0  0  0  0
  162.6800  205.0870  144.8910 C   0  0  2  0  0  3  0  0  0  0  0  0
  162.6280  203.6480  145.3840 C   0  0  0  0  0  2  0  0  0  0  0  0
  161.2150  203.1020  145.2660 C   0  0  0  0  0  2  0  0  0  0  0  0
  160.7340  202.5980  146.6150 C   0  0  0  0  0  2  0  0  0  0  0  0
  160.8140  203.6640  147.6010 N   0  0  0  0  0  2  0  0  0  0  0  0
  161.0270  203.0370  148.8960 C   0  0  2  0  0  3  0  0  0  0  0  0
  160.1760  201.7680  149.0040 C   0  0  2  0  0  3  0  0  0  0  0  0
  159.2510  201.8800  150.0470 O   0  0  0  0  0  1  0  0  0  0  0  0
  161.2090  200.1420  150.4060 O   0  0  0  0  0  1  0  0  0  0  0  0
  161.6300  199.9100  148.1680 O   0  0  0  0  0  0  0  0  0  0  0  0
  161.0360  200.5690  149.2370 C   0  0  0  0  0  0  0  0  0  0  0  0
  160.6430  204.0320  149.9840 C   0  0  0  0  0  2  0  0  0  0  0  0
  161.1380  203.6080  151.3660 C   0  0  1  0  0  3  0  0  0  0  0  0
  162.3000  202.8630  151.2780 F   0  0  0  0  0  0  0  0  0  0  0  0
  161.1920  204.3200  153.6280 F   0  0  0  0  0  0  0  0  0  0  0  0
  160.3430  205.7400  152.0990 F   0  0  0  0  0  0  0  0  0  0  0  0
  161.3160  204.7800  152.3300 C   0  0  0  0  0  0  0  0  0  0  0  0
  162.5670  205.3460  152.1740 F   0  0  0  0  0  0  0  0  0  0  0  0
  2  1  1  6  0  0  0
  2  6  1  0  0  0  0
  3  6  1  0  0  0  0
  3  8  1  1  0  0  0
  4 19  1  6  0  0  0
  4  3  1  0  0  0  0
  5  4  1  0  0  0  0
  5  2  1  0  0  0  0
  7 10  1  0  0  0  0
  8  7  1  0  0  0  0
  9  7  2  0  0  0  0
 10 17  1  1  0  0  0
 11 13  1  6  0  0  0
 11 16  1  0  0  0  0
 14 15  1  0  0  0  0
 14 11  1  0  0  0  0
 15 10  1  1  0  0  0
 15 12  1  0  0  0  0
 16 12  1  0  0  0  0
 17 18  1  0  0  0  0
 20 19  1  0  0  0  0
 21 23  2  0  0  0  0
 22 20  1  0  0  0  0
 23 22  1  0  0  0  0
 24 23  1  0  0  0  0
 25 24  1  0  0  0  0
 26 25  1  0  0  0  0
 27  1  1  0  0  0  0
 28 30  1  0  0  0  0
 29 30  1  0  0  0  0
 30 27  1  1  0  0  0
 31 28  1  0  0  0  0
 32 34  1  0  0  0  0
 32 31  1  0  0  0  0
 33 32  2  0  0  0  0
 34 35  1  1  0  0  0
 34 29  1  0  0  0  0
 36 35  1  0  0  0  0
 36 37  1  0  0  0  0
 37 38  1  0  0  0  0
 38 39  1  0  0  0  0
 39 40  1  0  0  0  0
 39 45  1  1  0  0  0
 40 44  1  0  0  0  0
 40 41  1  1  0  0  0
 43 44  2  0  0  0  0
 44 42  1  0  0  0  0
 45 46  1  0  0  0  0
 46 47  1  6  0  0  0
 46 50  1  0  0  0  0
 49 50  1  0  0  0  0
 50 48  1  0  0  0  0
 51 50  1  0  0  0  0
M  END
>  <MODEL>
7

>  <REMARK>
 VINA RESULT:      -4.1      4.263     10.689
  Name = 
  22 active torsions:
  status: ('A' for Active; 'I' for Inactive)
    1  A    between atoms: C_7  and  C_36
    2  A    between atoms: C_7  and  N_37
    3  A    between atoms: C_9  and  C_43
    4  A    between atoms: N_10  and  C_34
    5  A    between atoms: C_11  and  C_46
    6  A    between atoms: C_11  and  C_47
    7  A    between atoms: C_12  and  C_43
    8  A    between atoms: C_13  and  C_14
    9  A    between atoms: C_13  and  C_22
   10  A    between atoms: C_17  and  C_28
   11  A    between atoms: C_17  and  N_32
   12  A    between atoms: C_20  and  C_43
   13  A    between atoms: C_21  and  C_36
   14  A    between atoms: C_21  and  C_51
   15  A    between atoms: C_22  and  C_46
   16  A    between atoms: C_24  and  C_29
   17  A    between atoms: C_25  and  C_48
   18  A    between atoms: C_26  and  C_27
   19  A    between atoms: C_26  and  C_35
   20  A    between atoms: C_28  and  C_39
   21  A    between atoms: C_29  and  C_48
   22  A    between atoms: N_37  and  C_46
                            x       y       z     vdW  Elec       q    Type
                         _______ _______ _______ _____ _____    ______ ____

>  <TORSDO>
F 22

$$$$
=
 OpenBabel11042420213D

 51 53  0  0  1  0  0  0  0  0999 V2000
  161.3400  209.0390  152.0390 C   0  0  0  0  0  2  0  0  0  0  0  0
  160.4090  210.2010  151.7490 C   0  0  2  0  0  3  0  0  0  0  0  0
  159.9800  212.6650  152.2940 C   0  0  2  0  0  3  0  0  0  0  0  0
  160.2640  212.3310  150.8380 C   0  0  2  0  0  3  0  0  0  0  0  0
  161.0160  211.0910  150.7750 N   0  0  0  0  0  2  0  0  0  0  0  0
  160.1010  211.1360  153.2670 S   0  0  0  0  0  0  0  0  0  0  0  0
  158.0910  213.6830  153.6370 C   0  0  0  0  0  0  0  0  0  0  0  0
  158.6390  213.2170  152.4040 N   0  0  0  0  0  2  0  0  0  0  0  0
  158.7600  213.6080  154.7050 O   0  0  0  0  0  0  0  0  0  0  0  0
  156.7260  214.2930  153.6370 C   0  0  2  0  0  3  0  0  0  0  0  0
  155.9780  211.7440  156.4020 C   0  0  1  0  0  3  0  0  0  0  0  0
  155.6350  214.0400  155.8290 N   0  0  0  0  0  2  0  0  0  0  0  0
  155.2430  210.5520  156.7840 N   0  0  0  0  0  1  0  0  0  0  0  0
  156.2990  211.7330  154.6250 S   0  0  0  0  0  0  0  0  0  0  0  0
  155.7500  213.4730  154.4900 C   0  0  2  0  0  3  0  0  0  0  0  0
  155.1510  212.9700  156.6860 C   0  0  0  0  0  2  0  0  0  0  0  0
  156.2360  214.4510  152.2030 C   0  0  0  0  0  2  0  0  0  0  0  0
  154.8590  213.9990  152.1000 N   0  0  0  0  0  1  0  0  0  0  0  0
  161.0610  213.4460  150.1850 C   0  0  0  0  0  2  0  0  0  0  0  0
  160.1720  214.2630  149.2630 C   0  0  0  0  0  2  0  0  0  0  0  0
  158.6620  212.4110  146.4790 O   0  0  0  0  0  0  0  0  0  0  0  0
  159.3090  213.3820  148.4900 N   0  0  0  0  0  2  0  0  0  0  0  0
  159.4570  213.1800  147.0810 C   0  0  0  0  0  0  0  0  0  0  0  0
  160.5660  213.8290  146.3170 C   0  0  0  0  0  2  0  0  0  0  0  0
  161.6660  212.8280  145.9980 C   0  0  0  0  0  2  0  0  0  0  0  0
  162.6010  213.3840  144.9390 C   0  0  0  0  0  1  0  0  0  0  0  0
  160.5300  207.8290  152.4890 C   0  0  0  0  0  2  0  0  0  0  0  0
  162.4140  206.1620  152.5070 C   0  0  0  0  0  2  0  0  0  0  0  0
  160.0700  205.4240  152.0530 C   0  0  0  0  0  2  0  0  0  0  0  0
  161.0840  206.5550  151.8660 C   0  0  1  0  0  3  0  0  0  0  0  0
  162.9850  204.9300  151.8120 C   0  0  0  0  0  2  0  0  0  0  0  0
  161.9720  203.8250  151.8230 C   0  0  0  0  0  0  0  0  0  0  0  0
  162.3100  202.6880  152.1050 O   0  0  0  0  0  0  0  0  0  0  0  0
  160.5500  204.1120  151.4240 C   0  0  2  0  0  3  0  0  0  0  0  0
  160.4070  204.1710  149.9100 C   0  0  0  0  0  2  0  0  0  0  0  0
  160.5280  202.7770  149.3170 C   0  0  0  0  0  2  0  0  0  0  0  0
  161.0730  202.8550  147.9010 C   0  0  0  0  0  2  0  0  0  0  0  0
  162.1680  203.8100  147.8440 N   0  0  0  0  0  2  0  0  0  0  0  0
  161.7830  204.8490  146.9010 C   0  0  2  0  0  3  0  0  0  0  0  0
  162.2160  204.4520  145.4860 C   0  0  2  0  0  3  0  0  0  0  0  0
  163.0950  205.4010  144.9540 O   0  0  0  0  0  1  0  0  0  0  0  0
  160.9560  205.0210  143.5470 O   0  0  0  0  0  0  0  0  0  0  0  0
  160.0250  203.4070  144.8770 O   0  0  0  0  0  1  0  0  0  0  0  0
  161.0330  204.3180  144.5860 C   0  0  0  0  0  0  0  0  0  0  0  0
  162.4520  206.1520  147.3190 C   0  0  0  0  0  2  0  0  0  0  0  0
  161.4530  207.1760  147.8580 C   0  0  1  0  0  3  0  0  0  0  0  0
  160.5430  206.5870  148.7170 F   0  0  0  0  0  0  0  0  0  0  0  0
  161.2870  209.4790  148.4000 F   0  0  0  0  0  0  0  0  0  0  0  0
  163.3240  208.6640  147.8900 F   0  0  0  0  0  0  0  0  0  0  0  0
  162.1200  208.3810  148.5170 C   0  0  0  0  0  0  0  0  0  0  0  0
  162.3470  208.1340  149.8580 F   0  0  0  0  0  0  0  0  0  0  0  0
  1 27  1  0  0  0  0
  2  1  1  1  0  0  0
  2  6  1  0  0  0  0
  3  8  1  6  0  0  0
  3  6  1  0  0  0  0
  4 19  1  1  0  0  0
  4  3  1  0  0  0  0
  5  4  1  0  0  0  0
  5  2  1  0  0  0  0
  7  9  2  0  0  0  0
  8  7  1  0  0  0  0
 10 17  1  6  0  0  0
 10  7  1  0  0  0  0
 11 16  1  0  0  0  0
 11 13  1  6  0  0  0
 12 16  1  0  0  0  0
 14 11  1  0  0  0  0
 15 10  1  6  0  0  0
 15 14  1  0  0  0  0
 15 12  1  0  0  0  0
 18 17  1  0  0  0  0
 20 19  1  0  0  0  0
 21 23  2  0  0  0  0
 22 20  1  0  0  0  0
 23 22  1  0  0  0  0
 24 23  1  0  0  0  0
 25 24  1  0  0  0  0
 26 25  1  0  0  0  0
 30 29  1  0  0  0  0
 30 27  1  1  0  0  0
 30 28  1  0  0  0  0
 31 32  1  0  0  0  0
 31 28  1  0  0  0  0
 32 33  2  0  0  0  0
 34 35  1  6  0  0  0
 34 32  1  0  0  0  0
 34 29  1  0  0  0  0
 36 35  1  0  0  0  0
 37 36  1  0  0  0  0
 38 37  1  0  0  0  0
 39 45  1  1  0  0  0
 39 38  1  0  0  0  0
 40 41  1  6  0  0  0
 40 39  1  0  0  0  0
 42 44  2  0  0  0  0
 44 43  1  0  0  0  0
 44 40  1  0  0  0  0
 45 46  1  0  0  0  0
 46 50  1  0  0  0  0
 46 47  1  1  0  0  0
 48 50  1  0  0  0  0
 49 50  1  0  0  0  0
 50 51  1  0  0  0  0
M  END
>  <MODEL>
8

>  <REMARK>
 VINA RESULT:      -4.1      3.648      9.783
  Name = 
  22 active torsions:
  status: ('A' for Active; 'I' for Inactive)
    1  A    between atoms: C_7  and  C_36
    2  A    between atoms: C_7  and  N_37
    3  A    between atoms: C_9  and  C_43
    4  A    between atoms: N_10  and  C_34
    5  A    between atoms: C_11  and  C_46
    6  A    between atoms: C_11  and  C_47
    7  A    between atoms: C_12  and  C_43
    8  A    between atoms: C_13  and  C_14
    9  A    between atoms: C_13  and  C_22
   10  A    between atoms: C_17  and  C_28
   11  A    between atoms: C_17  and  N_32
   12  A    between atoms: C_20  and  C_43
   13  A    between atoms: C_21  and  C_36
   14  A    between atoms: C_21  and  C_51
   15  A    between atoms: C_22  and  C_46
   16  A    between atoms: C_24  and  C_29
   17  A    between atoms: C_25  and  C_48
   18  A    between atoms: C_26  and  C_27
   19  A    between atoms: C_26  and  C_35
   20  A    between atoms: C_28  and  C_39
   21  A    between atoms: C_29  and  C_48
   22  A    between atoms: N_37  and  C_46
                            x       y       z     vdW  Elec       q    Type
                         _______ _______ _______ _____ _____    ______ ____

>  <TORSDO>
F 22

$$$$
=
 OpenBabel11042420213D

 51 53  0  0  1  0  0  0  0  0999 V2000
  162.3610  210.5700  149.9650 C   0  0  0  0  0  2  0  0  0  0  0  0
  162.3240  209.0650  149.7810 C   0  0  2  0  0  3  0  0  0  0  0  0
  160.8390  207.0030  150.0900 C   0  0  2  0  0  3  0  0  0  0  0  0
  161.2760  207.3190  148.6680 C   0  0  2  0  0  3  0  0  0  0  0  0
  161.5900  208.7320  148.5720 N   0  0  0  0  0  2  0  0  0  0  0  0
  161.4890  208.2940  151.1890 S   0  0  0  0  0  0  0  0  0  0  0  0
  160.5720  204.5290  150.5530 C   0  0  0  0  0  0  0  0  0  0  0  0
  161.3740  205.7070  150.4760 N   0  0  0  0  0  2  0  0  0  0  0  0
  159.3360  204.5780  150.3040 O   0  0  0  0  0  0  0  0  0  0  0  0
  161.2260  203.2290  150.8980 C   0  0  2  0  0  3  0  0  0  0  0  0
  161.5760  201.2580  147.6280 C   0  0  1  0  0  3  0  0  0  0  0  0
  161.7180  200.9910  150.0010 N   0  0  0  0  0  2  0  0  0  0  0  0
  160.9000  200.7080  146.4670 N   0  0  0  0  0  1  0  0  0  0  0  0
  160.7040  202.7250  148.2190 S   0  0  0  0  0  0  0  0  0  0  0  0
  160.7890  202.1140  149.9410 C   0  0  2  0  0  3  0  0  0  0  0  0
  161.5560  200.2580  148.7560 C   0  0  0  0  0  2  0  0  0  0  0  0
  160.9350  202.8800  152.3530 C   0  0  0  0  0  2  0  0  0  0  0  0
  160.8360  204.0960  153.1420 N   0  0  0  0  0  1  0  0  0  0  0  0
  160.1710  206.9740  147.6860 C   0  0  0  0  0  2  0  0  0  0  0  0
  160.7560  206.6560  146.3200 C   0  0  0  0  0  2  0  0  0  0  0  0
  163.5200  204.3090  145.7580 O   0  0  0  0  0  0  0  0  0  0  0  0
  162.0040  205.9220  146.4690 N   0  0  0  0  0  2  0  0  0  0  0  0
  162.4330  204.9100  145.5530 C   0  0  0  0  0  0  0  0  0  0  0  0
  161.6350  204.5830  144.3310 C   0  0  0  0  0  2  0  0  0  0  0  0
  161.2040  205.8490  143.6070 C   0  0  0  0  0  2  0  0  0  0  0  0
  161.7100  205.8430  142.1760 C   0  0  0  0  0  1  0  0  0  0  0  0
  163.0250  211.2210  148.7570 C   0  0  0  0  0  2  0  0  0  0  0  0
  162.7320  212.9640  146.9670 C   0  0  0  0  0  2  0  0  0  0  0  0
  160.7620  212.1230  148.2540 C   0  0  0  0  0  2  0  0  0  0  0  0
  162.2530  212.4610  148.3280 C   0  0  1  0  0  3  0  0  0  0  0  0
  162.0000  214.2500  146.5970 C   0  0  0  0  0  2  0  0  0  0  0  0
  160.5190  214.0270  146.6590 C   0  0  0  0  0  0  0  0  0  0  0  0
  159.7990  214.4480  145.7710 O   0  0  0  0  0  0  0  0  0  0  0  0
  159.9170  213.3360  147.8530 C   0  0  2  0  0  3  0  0  0  0  0  0
  159.7790  214.2940  149.0280 C   0  0  0  0  0  2  0  0  0  0  0  0
  158.5260  213.9710  149.8250 C   0  0  0  0  0  2  0  0  0  0  0  0
  158.8170  214.0540  151.3130 C   0  0  0  0  0  2  0  0  0  0  0  0
  159.3020  212.7710  151.7970 N   0  0  0  0  0  2  0  0  0  0  0  0
  158.7490  212.5750  153.1270 C   0  0  2  0  0  3  0  0  0  0  0  0
  158.1170  213.8790  153.6240 C   0  0  2  0  0  3  0  0  0  0  0  0
  158.7110  214.2920  154.8220 O   0  0  0  0  0  1  0  0  0  0  0  0
  155.8390  214.1840  152.9990 O   0  0  0  0  0  0  0  0  0  0  0  0
  156.1700  213.0200  154.9420 O   0  0  0  0  0  1  0  0  0  0  0  0
  156.6480  213.7120  153.8360 C   0  0  0  0  0  0  0  0  0  0  0  0
  159.8720  212.1360  154.0580 C   0  0  0  0  0  2  0  0  0  0  0  0
  159.3970  211.1490  155.1240 C   0  0  1  0  0  3  0  0  0  0  0  0
  158.1020  210.7310  154.8810 F   0  0  0  0  0  0  0  0  0  0  0  0
  159.9470  209.2400  156.4190 F   0  0  0  0  0  0  0  0  0  0  0  0
  161.6370  210.3860  155.4680 F   0  0  0  0  0  0  0  0  0  0  0  0
  160.3310  209.9530  155.2980 C   0  0  0  0  0  0  0  0  0  0  0  0
  160.2610  209.1230  154.1950 F   0  0  0  0  0  0  0  0  0  0  0  0
  2  1  1  1  0  0  0
  2  6  1  0  0  0  0
  3  8  1  1  0  0  0
  3  6  1  0  0  0  0
  4 19  1  6  0  0  0
  4  3  1  0  0  0  0
  5  4  1  0  0  0  0
  5  2  1  0  0  0  0
  7 10  1  0  0  0  0
  8  7  1  0  0  0  0
  9  7  2  0  0  0  0
 10 17  1  1  0  0  0
 11 13  1  6  0  0  0
 11 14  1  0  0  0  0
 11 16  1  0  0  0  0
 14 15  1  0  0  0  0
 15 12  1  0  0  0  0
 15 10  1  1  0  0  0
 16 12  1  0  0  0  0
 17 18  1  0  0  0  0
 20 22  1  0  0  0  0
 20 19  1  0  0  0  0
 23 21  2  0  0  0  0
 23 22  1  0  0  0  0
 24 23  1  0  0  0  0
 25 24  1  0  0  0  0
 26 25  1  0  0  0  0
 27  1  1  0  0  0  0
 28 30  1  0  0  0  0
 29 30  1  0  0  0  0
 30 27  1  6  0  0  0
 31 32  1  0  0  0  0
 31 28  1  0  0  0  0
 32 34  1  0  0  0  0
 33 32  2  0  0  0  0
 34 29  1  0  0  0  0
 34 35  1  1  0  0  0
 35 36  1  0  0  0  0
 36 37  1  0  0  0  0
 37 38  1  0  0  0  0
 38 39  1  0  0  0  0
 39 40  1  0  0  0  0
 39 45  1  1  0  0  0
 40 44  1  0  0  0  0
 40 41  1  1  0  0  0
 42 44  2  0  0  0  0
 44 43  1  0  0  0  0
 45 46  1  0  0  0  0
 46 47  1  6  0  0  0
 46 50  1  0  0  0  0
 50 49  1  0  0  0  0
 50 48  1  0  0  0  0
 51 50  1  0  0  0  0
M  END
>  <MODEL>
9

>  <REMARK>
 VINA RESULT:      -3.6      3.491      7.569
  Name = 
  22 active torsions:
  status: ('A' for Active; 'I' for Inactive)
    1  A    between atoms: C_7  and  C_36
    2  A    between atoms: C_7  and  N_37
    3  A    between atoms: C_9  and  C_43
    4  A    between atoms: N_10  and  C_34
    5  A    between atoms: C_11  and  C_46
    6  A    between atoms: C_11  and  C_47
    7  A    between atoms: C_12  and  C_43
    8  A    between atoms: C_13  and  C_14
    9  A    between atoms: C_13  and  C_22
   10  A    between atoms: C_17  and  C_28
   11  A    between atoms: C_17  and  N_32
   12  A    between atoms: C_20  and  C_43
   13  A    between atoms: C_21  and  C_36
   14  A    between atoms: C_21  and  C_51
   15  A    between atoms: C_22  and  C_46
   16  A    between atoms: C_24  and  C_29
   17  A    between atoms: C_25  and  C_48
   18  A    between atoms: C_26  and  C_27
   19  A    between atoms: C_26  and  C_35
   20  A    between atoms: C_28  and  C_39
   21  A    between atoms: C_29  and  C_48
   22  A    between atoms: N_37  and  C_46
                            x       y       z     vdW  Elec       q    Type
                         _______ _______ _______ _____ _____    ______ ____

>  <TORSDO>
F 22

$$$$
