=
 OpenBabel11042422123D

 50 55  0  0  1  0  0  0  0  0999 V2000
  161.2280  207.7050  152.4600 C   0  0  1  0  0  3  0  0  0  0  0  0
  160.4620  207.1090  153.6460 C   0  0  0  0  0  2  0  0  0  0  0  0
  160.2290  210.8060  152.6220 C   0  0  0  0  0  3  0  0  0  0  0  0
  160.3140  207.8100  155.7870 C   0  0  0  0  0  2  0  0  0  0  0  0
  161.1940  207.2800  154.8280 O   0  0  0  0  0  0  0  0  0  0  0  0
  160.9900  210.0450  153.4240 C   0  0  0  0  0  0  0  0  0  0  0  0
  159.7440  212.3600  154.5590 C   0  0  0  0  0  0  0  0  0  0  0  0
  161.9330  209.0200  152.8410 C   0  0  2  0  0  3  0  0  0  0  0  0
  158.6640  212.6070  152.4030 C   0  0  0  0  0  0  0  0  0  0  0  0
  160.8820  210.1710  154.9350 C   0  0  1  0  0  3  0  0  0  0  0  0
  159.4330  211.9040  153.1880 C   0  0  0  0  0  0  0  0  0  0  0  0
  160.4810  211.5660  155.3510 C   0  0  0  0  0  3  0  0  0  0  0  0
  157.8990  213.3150  151.6180 C   0  0  0  0  0  3  0  0  0  0  0  0
  159.8020  209.2190  155.4450 C   0  0  0  0  0  2  0  0  0  0  0  0
  158.5060  214.1260  150.5280 C   0  0  1  0  0  3  0  0  0  0  0  0
  159.9320  214.4500  150.8570 C   0  0  0  0  0  2  0  0  0  0  0  0
  159.9460  213.3370  148.7340 N   0  0  2  0  0  0  0  0  0  0  0  0
  158.5670  213.3220  149.2430 C   0  0  0  0  0  2  0  0  0  0  0  0
  160.6270  214.3660  149.5250 C   0  0  0  0  0  2  0  0  0  0  0  0
  161.2110  213.3610  146.7590 C   0  0  0  0  0  2  0  0  0  0  0  0
  161.2960  213.8120  145.2900 C   0  0  0  0  0  2  0  0  0  0  0  0
  160.0000  214.4530  143.3730 O   0  0  0  0  0  1  0  0  0  0  0  0
  158.7310  212.2610  144.3850 O   0  0  0  0  0  1  0  0  0  0  0  0
  158.9060  212.9690  146.6610 C   0  0  0  0  0  2  0  0  0  0  0  0
  159.9470  214.3120  144.7620 C   0  0  1  0  0  3  0  0  0  0  0  0
  157.4690  214.1710  145.0330 C   0  0  0  0  0  1  0  0  0  0  0  0
  158.7740  213.4060  145.1910 C   0  0  1  0  0  0  0  0  0  0  0  0
  159.9310  213.7460  147.3760 N   0  0  1  0  0  0  0  0  0  0  0  0
  161.8430  209.9920  150.5330 C   0  0  0  0  0  1  0  0  0  0  0  0
  162.7520  209.5910  151.6810 C   0  0  0  0  0  2  0  0  0  0  0  0
  162.2480  206.6830  151.9730 C   0  0  0  0  0  2  0  0  0  0  0  0
  161.6750  205.8440  151.0130 O   0  0  0  0  0  0  0  0  0  0  0  0
  163.0700  206.8830  149.3980 C   0  0  0  0  0  1  0  0  0  0  0  0
  161.6420  206.6080  149.8450 C   0  0  1  0  0  3  0  0  0  0  0  0
  161.3040  206.0600  146.2080 C   0  0  2  0  0  3  0  0  0  0  0  0
  161.7260  204.7910  148.1050 C   0  0  2  0  0  3  0  0  0  0  0  0
  160.3660  207.0240  147.4220 S   0  0  0  0  0  0  0  0  0  0  0  0
  160.5850  206.0780  144.8750 C   0  0  0  0  0  1  0  0  0  0  0  0
  160.8640  205.8750  148.7450 C   0  0  2  0  0  3  0  0  0  0  0  0
  161.4160  204.6950  146.6860 N   0  0  0  0  0  2  0  0  0  0  0  0
  161.1670  202.3850  147.8300 C   0  0  0  0  0  3  0  0  0  0  0  0
  161.5640  203.4430  148.8090 C   0  0  2  0  0  3  0  0  0  0  0  0
  160.9890  201.1370  150.6520 C   0  0  0  0  0  3  0  0  0  0  0  0
  160.6330  203.5160  149.9830 C   0  0  0  0  0  3  0  0  0  0  0  0
  160.4260  202.4920  150.8130 C   0  0  0  0  0  3  0  0  0  0  0  0
  161.0870  201.0910  148.1430 C   0  0  0  0  0  3  0  0  0  0  0  0
  161.2770  200.5270  149.4960 C   0  0  0  0  0  3  0  0  0  0  0  0
  159.2890  213.6140  154.9950 O   0  0  0  0  0  0  0  0  0  0  0  0
  158.3440  213.7850  156.0480 C   0  0  0  0  0  2  0  0  0  0  0  0
  157.0490  213.0710  155.7080 C   0  0  0  0  0  1  0  0  0  0  0  0
  1 31  1  1  0  0  0
  1  8  1  0  0  0  0
  1  2  1  0  0  0  0
  2  5  1  0  0  0  0
  3 11  1  0  0  0  0
  3  6  2  0  0  0  0
  5  4  1  0  0  0  0
  6 10  1  0  0  0  0
  7 48  1  0  0  0  0
  7 12  2  0  0  0  0
  8 30  1  6  0  0  0
  8  6  1  0  0  0  0
  9 11  2  0  0  0  0
 10 12  1  6  0  0  0
 10 14  1  0  0  0  0
 11  7  1  0  0  0  0
 13  9  2  0  0  0  0
 14  4  1  0  0  0  0
 15 16  1  0  0  0  0
 15 13  1  1  0  0  0
 17 18  1  1  0  0  0
 17 19  1  0  0  0  0
 18 15  1  0  0  0  0
 19 16  1  0  0  0  0
 20 28  1  0  0  0  0
 21 20  1  0  0  0  0
 23 27  1  0  0  0  0
 25 22  1  6  0  0  0
 25 27  1  0  0  0  0
 25 21  1  0  0  0  0
 27 26  1  6  0  0  0
 27 24  1  0  0  0  0
 28 24  1  6  0  0  0
 28 17  1  0  0  0  0
 29 30  1  0  0  0  0
 32 31  1  0  0  0  0
 34 33  1  6  0  0  0
 34 32  1  0  0  0  0
 35 38  1  6  0  0  0
 35 40  1  0  0  0  0
 35 37  1  0  0  0  0
 36 40  1  6  0  0  0
 36 39  1  0  0  0  0
 36 42  1  0  0  0  0
 37 39  1  0  0  0  0
 39 34  1  1  0  0  0
 41 46  2  0  0  0  0
 42 41  1  6  0  0  0
 42 44  1  0  0  0  0
 43 45  1  0  0  0  0
 44 45  2  0  0  0  0
 46 47  1  0  0  0  0
 47 43  2  0  0  0  0
 48 49  1  0  0  0  0
 50 49  1  0  0  0  0
M  END
>  <MODEL>
1

>  <REMARK>
 VINA RESULT:      -7.7      0.000      0.000
  Name = 
  10 active torsions:
  status: ('A' for Active; 'I' for Inactive)
    1  A    between atoms: C_1  and  C_39
    2  A    between atoms: C_6  and  C_34
    3  A    between atoms: C_12  and  O_42
    4  A    between atoms: C_14  and  O_42
    5  A    between atoms: C_15  and  C_37
    6  A    between atoms: C_17  and  C_22
    7  A    between atoms: N_18  and  N_50
    8  A    between atoms: C_35  and  C_41
    9  A    between atoms: C_35  and  O_47
   10  A    between atoms: C_39  and  O_47
                            x       y       z     vdW  Elec       q    Type
                         _______ _______ _______ _____ _____    ______ ____

>  <TORSDO>
F 10

$$$$
