=
 OpenBabel11052410283D

 35 38  0  0  1  0  0  0  0  0999 V2000
  161.2750  211.0050  152.0570 N   0  0  0  0  0  0  0  0  0  0  0  0
  161.9770  210.9720  150.9660 C   0  0  0  0  0  3  0  0  0  0  0  0
  160.9570  208.6750  152.6300 C   0  0  0  0  0  3  0  0  0  0  0  0
  161.8130  208.5630  150.2830 C   0  0  0  0  0  0  0  0  0  0  0  0
  161.6040  208.0460  151.6520 C   0  0  0  0  0  3  0  0  0  0  0  0
  161.9590  209.8740  149.9720 C   0  0  0  0  0  0  0  0  0  0  0  0
  160.2980  209.9970  152.4370 C   0  0  1  0  0  3  0  0  0  0  0  0
  158.2990  211.1860  156.0160 C   0  0  0  0  0  0  0  0  0  0  0  0
  159.6050  210.4200  153.6910 C   0  0  0  0  0  0  0  0  0  0  0  0
  157.8740  211.6440  154.7670 C   0  0  0  0  0  3  0  0  0  0  0  0
  158.5290  211.2550  153.6400 N   0  0  0  0  0  0  0  0  0  0  0  0
  159.3940  210.3240  156.0900 C   0  0  0  0  0  3  0  0  0  0  0  0
  160.0520  209.9360  154.9220 C   0  0  0  0  0  3  0  0  0  0  0  0
  157.5910  211.6070  157.2500 C   0  0  0  0  0  1  0  0  0  0  0  0
  161.9990  207.5050  149.2350 C   0  0  0  0  0  2  0  0  0  0  0  0
  160.6990  206.7750  148.9120 C   0  0  0  0  0  2  0  0  0  0  0  0
  160.9530  205.5450  148.1630 N   0  0  0  0  0  0  0  0  0  0  0  0
  160.9200  203.1190  148.2440 N   0  0  0  0  0  0  0  0  0  0  0  0
  160.8860  201.9270  148.8960 C   0  0  0  0  0  3  0  0  0  0  0  0
  160.8720  203.0930  150.9990 C   0  0  0  0  0  0  0  0  0  0  0  0
  160.8460  203.0820  152.3860 O   0  0  0  0  0  1  0  0  0  0  0  0
  160.9420  204.3100  148.9100 C   0  0  0  0  0  0  0  0  0  0  0  0
  160.8650  201.8930  150.2900 C   0  0  0  0  0  3  0  0  0  0  0  0
  160.9060  204.3060  150.3120 C   0  0  0  0  0  3  0  0  0  0  0  0
  161.1280  205.5710  146.7230 C   0  0  0  0  0  0  0  0  0  0  0  0
  162.2230  205.2590  146.0310 C   0  0  1  0  0  3  0  0  0  0  0  0
  160.1180  206.0640  145.7340 C   0  0  0  0  0  3  0  0  0  0  0  0
  162.0080  205.4890  144.6510 N   0  0  0  0  0  0  0  0  0  0  0  0
  163.5260  204.7640  146.5580 C   0  0  0  0  0  1  0  0  0  0  0  0
  160.8350  205.9390  144.4730 N   0  0  0  0  0  0  0  0  0  0  0  0
  162.2730  210.2840  148.5660 C   0  0  0  0  0  2  0  0  0  0  0  0
  160.8720  211.7950  147.4100 C   0  0  0  0  0  1  0  0  0  0  0  0
  161.9580  211.6960  148.3730 N   0  0  0  0  0  0  0  0  0  0  0  0
  162.8420  213.8440  147.4310 C   0  0  0  0  0  1  0  0  0  0  0  0
  163.1350  212.4070  147.8620 C   0  0  0  0  0  2  0  0  0  0  0  0
  1  7  1  0  0  0  0
  2  1  2  0  0  0  0
  4  5  1  0  0  0  0
  5  3  2  0  0  0  0
  6  4  2  0  0  0  0
  6  2  1  0  0  0  0
  7  3  1  0  0  0  0
  7  9  1  1  0  0  0
  8 12  1  0  0  0  0
  8 14  1  0  0  0  0
  9 13  1  0  0  0  0
 10  8  2  0  0  0  0
 11  9  2  0  0  0  0
 11 10  1  0  0  0  0
 13 12  2  0  0  0  0
 15  4  1  0  0  0  0
 16 15  1  0  0  0  0
 17 22  1  0  0  0  0
 17 16  1  0  0  0  0
 18 19  2  0  0  0  0
 18 22  1  0  0  0  0
 19 23  1  0  0  0  0
 20 21  1  0  0  0  0
 22 24  2  0  0  0  0
 23 20  2  0  0  0  0
 24 20  1  0  0  0  0
 25 17  1  0  0  0  0
 26 29  1  1  0  0  0
 26 25  1  0  0  0  0
 27 25  2  0  0  0  0
 28 26  1  0  0  0  0
 30 28  2  0  0  0  0
 30 27  1  0  0  0  0
 31  6  1  0  0  0  0
 32 33  1  0  0  0  0
 33 31  1  0  0  0  0
 34 35  1  0  0  0  0
 35 33  1  0  0  0  0
M  END
>  <MODEL>
1

>  <REMARK>
 VINA RESULT:      -8.1      0.000      0.000
  Name = 
  9 active torsions:
  status: ('A' for Active; 'I' for Inactive)
    1  A    between atoms: C_1  and  C_8
    2  A    between atoms: C_1  and  C_17
    3  A    between atoms: C_2  and  N_7
    4  A    between atoms: N_7  and  C_8
    5  A    between atoms: N_7  and  C_28
    6  A    between atoms: C_11  and  C_35
    7  A    between atoms: C_13  and  N_32
    8  A    between atoms: C_23  and  C_25
    9  A    between atoms: C_25  and  N_32
                            x       y       z     vdW  Elec       q    Type
                         _______ _______ _______ _____ _____    ______ ____

>  <TORSDO>
F 9

$$$$
=
 OpenBabel11052410283D

 35 38  0  0  1  0  0  0  0  0999 V2000
  161.4010  205.7580  152.6760 N   0  0  0  0  0  0  0  0  0  0  0  0
  161.4070  206.4640  153.7640 C   0  0  0  0  0  3  0  0  0  0  0  0
  161.5770  207.3960  150.9020 C   0  0  0  0  0  3  0  0  0  0  0  0
  161.0430  208.7950  152.9050 C   0  0  0  0  0  0  0  0  0  0  0  0
  161.6330  208.5430  151.5730 C   0  0  0  0  0  3  0  0  0  0  0  0
  160.9230  207.8590  153.8790 C   0  0  0  0  0  0  0  0  0  0  0  0
  160.8410  206.2030  151.4090 C   0  0  1  0  0  3  0  0  0  0  0  0
  161.0010  203.0270  148.5630 C   0  0  0  0  0  0  0  0  0  0  0  0
  160.9060  205.0910  150.4140 C   0  0  0  0  0  0  0  0  0  0  0  0
  160.7060  202.7770  149.9040 C   0  0  0  0  0  3  0  0  0  0  0  0
  160.6640  203.8050  150.7950 N   0  0  0  0  0  0  0  0  0  0  0  0
  161.2460  204.3370  148.1490 C   0  0  0  0  0  3  0  0  0  0  0  0
  161.1970  205.3780  149.0780 C   0  0  0  0  0  3  0  0  0  0  0  0
  161.0510  201.9110  147.5860 C   0  0  0  0  0  1  0  0  0  0  0  0
  160.6990  210.2290  153.1790 C   0  0  0  0  0  2  0  0  0  0  0  0
  159.2500  210.5540  152.8250 C   0  0  0  0  0  2  0  0  0  0  0  0
  158.9500  211.9650  153.0660 N   0  0  0  0  0  0  0  0  0  0  0  0
  157.6980  213.4620  151.6220 N   0  0  0  0  0  0  0  0  0  0  0  0
  157.5590  214.2630  150.5330 C   0  0  0  0  0  3  0  0  0  0  0  0
  159.8380  213.8020  149.9200 C   0  0  0  0  0  0  0  0  0  0  0  0
  160.9160  213.9710  149.0620 O   0  0  0  0  0  1  0  0  0  0  0  0
  158.8690  212.8230  151.9080 C   0  0  0  0  0  0  0  0  0  0  0  0
  158.6310  214.4510  149.6620 C   0  0  0  0  0  3  0  0  0  0  0  0
  159.9600  212.9820  151.0410 C   0  0  0  0  0  3  0  0  0  0  0  0
  158.6690  212.4500  154.4040 C   0  0  0  0  0  0  0  0  0  0  0  0
  157.4980  212.4440  155.0410 C   0  0  0  0  0  0  0  0  0  0  0  0
  159.6420  213.1570  155.2950 C   0  0  0  0  0  2  0  0  0  0  0  0
  157.6270  213.0780  156.3000 N   0  0  0  0  0  0  0  0  0  0  0  0
  156.1980  211.8990  154.5580 C   0  0  0  0  0  1  0  0  0  0  0  0
  158.8210  213.4800  156.4530 N   0  0  0  0  0  0  0  0  0  0  0  0
  160.4080  208.2440  155.2320 C   0  0  0  0  0  2  0  0  0  0  0  0
  160.4120  207.0310  157.2600 C   0  0  0  0  0  1  0  0  0  0  0  0
  161.2610  207.6800  156.2730 N   0  0  0  0  0  0  0  0  0  0  0  0
  161.4170  210.1330  156.7650 C   0  0  0  0  0  1  0  0  0  0  0  0
  162.0390  208.7450  156.9160 C   0  0  0  0  0  2  0  0  0  0  0  0
  1  2  2  0  0  0  0
  2  6  1  0  0  0  0
  3  7  1  0  0  0  0
  3  5  2  0  0  0  0
  4 15  1  0  0  0  0
  4  6  2  0  0  0  0
  5  4  1  0  0  0  0
  6 31  1  0  0  0  0
  7  9  1  6  0  0  0
  7  1  1  0  0  0  0
  8 10  1  0  0  0  0
  9 11  1  0  0  0  0
 10 11  2  0  0  0  0
 12  8  2  0  0  0  0
 12 13  1  0  0  0  0
 13  9  2  0  0  0  0
 14  8  1  0  0  0  0
 16 17  1  0  0  0  0
 16 15  1  0  0  0  0
 17 25  1  0  0  0  0
 18 22  1  0  0  0  0
 19 18  2  0  0  0  0
 20 24  1  0  0  0  0
 21 20  1  0  0  0  0
 22 17  1  0  0  0  0
 23 20  2  0  0  0  0
 23 19  1  0  0  0  0
 24 22  2  0  0  0  0
 25 26  2  0  0  0  0
 25 27  1  0  0  0  0
 26 28  1  0  0  0  0
 27 30  1  0  0  0  0
 28 30  2  0  0  0  0
 29 26  1  0  0  0  0
 31 33  1  0  0  0  0
 33 35  1  0  0  0  0
 33 32  1  0  0  0  0
 34 35  1  0  0  0  0
M  END
>  <MODEL>
2

>  <REMARK>
 VINA RESULT:      -7.8      3.377      9.636
  Name = 
  9 active torsions:
  status: ('A' for Active; 'I' for Inactive)
    1  A    between atoms: C_1  and  C_8
    2  A    between atoms: C_1  and  C_17
    3  A    between atoms: C_2  and  N_7
    4  A    between atoms: N_7  and  C_8
    5  A    between atoms: N_7  and  C_28
    6  A    between atoms: C_11  and  C_35
    7  A    between atoms: C_13  and  N_32
    8  A    between atoms: C_23  and  C_25
    9  A    between atoms: C_25  and  N_32
                            x       y       z     vdW  Elec       q    Type
                         _______ _______ _______ _____ _____    ______ ____

>  <TORSDO>
F 9

$$$$
=
 OpenBabel11052410283D

 35 38  0  0  1  0  0  0  0  0999 V2000
  161.3470  207.4730  148.6940 N   0  0  0  0  0  0  0  0  0  0  0  0
  161.5080  208.7560  148.7950 C   0  0  0  0  0  3  0  0  0  0  0  0
  160.8000  206.7640  150.9440 C   0  0  0  0  0  3  0  0  0  0  0  0
  161.6320  209.0990  151.2790 C   0  0  0  0  0  0  0  0  0  0  0  0
  160.8240  207.9080  151.6210 C   0  0  0  0  0  3  0  0  0  0  0  0
  161.9560  209.4670  150.0150 C   0  0  0  0  0  0  0  0  0  0  0  0
  161.6560  206.5190  149.7490 C   0  0  1  0  0  3  0  0  0  0  0  0
  161.1060  202.5410  148.3030 C   0  0  0  0  0  0  0  0  0  0  0  0
  161.4550  205.1290  149.2410 C   0  0  0  0  0  0  0  0  0  0  0  0
  161.5670  203.5560  147.4610 C   0  0  0  0  0  3  0  0  0  0  0  0
  161.7320  204.8170  147.9430 N   0  0  0  0  0  0  0  0  0  0  0  0
  160.8240  202.8360  149.6370 C   0  0  0  0  0  3  0  0  0  0  0  0
  161.0000  204.1360  150.1120 C   0  0  0  0  0  3  0  0  0  0  0  0
  160.9230  201.1630  147.7840 C   0  0  0  0  0  1  0  0  0  0  0  0
  161.9680  209.9850  152.4420 C   0  0  0  0  0  2  0  0  0  0  0  0
  160.8470  210.9700  152.7620 C   0  0  0  0  0  2  0  0  0  0  0  0
  160.3980  210.8300  154.1460 N   0  0  0  0  0  0  0  0  0  0  0  0
  158.3940  210.7630  155.5150 N   0  0  0  0  0  0  0  0  0  0  0  0
  157.1290  211.1440  155.8350 C   0  0  0  0  0  3  0  0  0  0  0  0
  157.1260  212.6520  153.9610 C   0  0  0  0  0  0  0  0  0  0  0  0
  156.4880  213.6020  153.1760 O   0  0  0  0  0  1  0  0  0  0  0  0
  159.0650  211.2920  154.4510 C   0  0  0  0  0  0  0  0  0  0  0  0
  156.4720  212.1010  155.0630 C   0  0  0  0  0  3  0  0  0  0  0  0
  158.4220  212.2450  153.6490 C   0  0  0  0  0  3  0  0  0  0  0  0
  161.2330  210.1800  155.1390 C   0  0  0  0  0  0  0  0  0  0  0  0
  161.1750  208.9120  155.5460 C   0  0  0  0  0  0  0  0  0  0  0  0
  162.2670  210.8580  155.9820 C   0  0  0  0  0  2  0  0  0  0  0  0
  162.1100  208.6920  156.5850 N   0  0  0  0  0  0  0  0  0  0  0  0
  160.2700  207.8350  155.0530 C   0  0  0  0  0  1  0  0  0  0  0  0
  162.7270  209.7720  156.8380 N   0  0  0  0  0  0  0  0  0  0  0  0
  162.6890  210.7500  149.7700 C   0  0  0  0  0  2  0  0  0  0  0  0
  163.0390  212.1630  147.9090 C   0  0  0  0  0  1  0  0  0  0  0  0
  162.0210  211.5180  148.7240 N   0  0  0  0  0  0  0  0  0  0  0  0
  161.2270  213.8940  148.6260 C   0  0  0  0  0  1  0  0  0  0  0  0
  161.1540  212.5370  149.3260 C   0  0  0  0  0  2  0  0  0  0  0  0
  1  2  2  0  0  0  0
  1  7  1  0  0  0  0
  2  6  1  0  0  0  0
  3  5  2  0  0  0  0
  4  5  1  0  0  0  0
  4 15  1  0  0  0  0
  6  4  2  0  0  0  0
  7  9  1  6  0  0  0
  7  3  1  0  0  0  0
  8 12  1  0  0  0  0
  9 13  1  0  0  0  0
 10 11  1  0  0  0  0
 10  8  2  0  0  0  0
 11  9  2  0  0  0  0
 12 13  2  0  0  0  0
 14  8  1  0  0  0  0
 15 16  1  0  0  0  0
 16 17  1  0  0  0  0
 17 22  1  0  0  0  0
 17 25  1  0  0  0  0
 18 19  1  0  0  0  0
 20 23  1  0  0  0  0
 21 20  1  0  0  0  0
 22 18  2  0  0  0  0
 23 19  2  0  0  0  0
 24 20  2  0  0  0  0
 24 22  1  0  0  0  0
 25 26  2  0  0  0  0
 25 27  1  0  0  0  0
 26 28  1  0  0  0  0
 27 30  1  0  0  0  0
 28 30  2  0  0  0  0
 29 26  1  0  0  0  0
 31  6  1  0  0  0  0
 32 33  1  0  0  0  0
 33 35  1  0  0  0  0
 33 31  1  0  0  0  0
 34 35  1  0  0  0  0
M  END
>  <MODEL>
3

>  <REMARK>
 VINA RESULT:      -7.6      2.681      8.511
  Name = 
  9 active torsions:
  status: ('A' for Active; 'I' for Inactive)
    1  A    between atoms: C_1  and  C_8
    2  A    between atoms: C_1  and  C_17
    3  A    between atoms: C_2  and  N_7
    4  A    between atoms: N_7  and  C_8
    5  A    between atoms: N_7  and  C_28
    6  A    between atoms: C_11  and  C_35
    7  A    between atoms: C_13  and  N_32
    8  A    between atoms: C_23  and  C_25
    9  A    between atoms: C_25  and  N_32
                            x       y       z     vdW  Elec       q    Type
                         _______ _______ _______ _____ _____    ______ ____

>  <TORSDO>
F 9

$$$$
=
 OpenBabel11052410283D

 35 38  0  0  1  0  0  0  0  0999 V2000
  161.2510  205.1170  152.5770 N   0  0  0  0  0  0  0  0  0  0  0  0
  161.2260  205.8290  153.6610 C   0  0  0  0  0  3  0  0  0  0  0  0
  161.7950  206.7070  150.8340 C   0  0  0  0  0  3  0  0  0  0  0  0
  161.2210  208.1770  152.7740 C   0  0  0  0  0  0  0  0  0  0  0  0
  161.9120  207.8470  151.5100 C   0  0  0  0  0  3  0  0  0  0  0  0
  160.8950  207.2710  153.7290 C   0  0  0  0  0  0  0  0  0  0  0  0
  160.8800  205.6110  151.2600 C   0  0  1  0  0  3  0  0  0  0  0  0
  161.0200  202.4040  148.4470 C   0  0  0  0  0  0  0  0  0  0  0  0
  160.9190  204.4890  150.2750 C   0  0  0  0  0  0  0  0  0  0  0  0
  161.2070  203.7270  148.0410 C   0  0  0  0  0  3  0  0  0  0  0  0
  161.1550  204.7330  148.9550 N   0  0  0  0  0  0  0  0  0  0  0  0
  160.7840  202.1300  149.7950 C   0  0  0  0  0  3  0  0  0  0  0  0
  160.7350  203.1770  150.7170 C   0  0  0  0  0  3  0  0  0  0  0  0
  161.0740  201.3000  147.4560 C   0  0  0  0  0  1  0  0  0  0  0  0
  161.0170  209.6440  153.0140 C   0  0  0  0  0  2  0  0  0  0  0  0
  159.6770  210.1370  152.4740 C   0  0  0  0  0  2  0  0  0  0  0  0
  159.4840  211.5590  152.7540 N   0  0  0  0  0  0  0  0  0  0  0  0
  160.0420  212.6650  154.8420 N   0  0  0  0  0  0  0  0  0  0  0  0
  159.7990  213.0150  156.1330 C   0  0  0  0  0  3  0  0  0  0  0  0
  157.7070  211.8330  156.0440 C   0  0  0  0  0  0  0  0  0  0  0  0
  156.5310  211.4110  156.6490 O   0  0  0  0  0  1  0  0  0  0  0  0
  159.1610  211.9210  154.1140 C   0  0  0  0  0  0  0  0  0  0  0  0
  158.6220  212.6070  156.7580 C   0  0  0  0  0  3  0  0  0  0  0  0
  157.9750  211.4830  154.7220 C   0  0  0  0  0  3  0  0  0  0  0  0
  159.6920  212.5580  151.7220 C   0  0  0  0  0  0  0  0  0  0  0  0
  158.9830  213.6660  151.5090 C   0  0  1  0  0  3  0  0  0  0  0  0
  160.7000  212.4700  150.6190 C   0  0  0  0  0  3  0  0  0  0  0  0
  159.4590  214.3320  150.3550 N   0  0  0  0  0  0  0  0  0  0  0  0
  157.8300  214.1790  152.3010 C   0  0  0  0  0  1  0  0  0  0  0  0
  160.4190  213.6740  149.8490 N   0  0  0  0  0  0  0  0  0  0  0  0
  160.2900  207.7250  155.0220 C   0  0  0  0  0  2  0  0  0  0  0  0
  160.3320  206.9690  157.2600 C   0  0  0  0  0  1  0  0  0  0  0  0
  161.1640  207.3700  156.1350 N   0  0  0  0  0  0  0  0  0  0  0  0
  161.1680  209.7850  156.8110 C   0  0  0  0  0  1  0  0  0  0  0  0
  161.9840  208.5260  156.5180 C   0  0  0  0  0  2  0  0  0  0  0  0
  1  2  2  0  0  0  0
  2  6  1  0  0  0  0
  3  7  1  0  0  0  0
  3  5  2  0  0  0  0
  4 15  1  0  0  0  0
  4  6  2  0  0  0  0
  5  4  1  0  0  0  0
  6 31  1  0  0  0  0
  7  9  1  6  0  0  0
  7  1  1  0  0  0  0
  8 12  1  0  0  0  0
  9 13  1  0  0  0  0
 10  8  2  0  0  0  0
 10 11  1  0  0  0  0
 11  9  2  0  0  0  0
 12 13  2  0  0  0  0
 14  8  1  0  0  0  0
 16 17  1  0  0  0  0
 16 15  1  0  0  0  0
 17 22  1  0  0  0  0
 18 19  1  0  0  0  0
 19 23  2  0  0  0  0
 20 21  1  0  0  0  0
 20 23  1  0  0  0  0
 22 24  1  0  0  0  0
 22 18  2  0  0  0  0
 24 20  2  0  0  0  0
 25 17  1  0  0  0  0
 26 25  1  0  0  0  0
 26 29  1  6  0  0  0
 27 25  2  0  0  0  0
 28 26  1  0  0  0  0
 30 28  2  0  0  0  0
 30 27  1  0  0  0  0
 31 33  1  0  0  0  0
 33 35  1  0  0  0  0
 33 32  1  0  0  0  0
 35 34  1  0  0  0  0
M  END
>  <MODEL>
4

>  <REMARK>
 VINA RESULT:      -7.4      2.896      9.136
  Name = 
  9 active torsions:
  status: ('A' for Active; 'I' for Inactive)
    1  A    between atoms: C_1  and  C_8
    2  A    between atoms: C_1  and  C_17
    3  A    between atoms: C_2  and  N_7
    4  A    between atoms: N_7  and  C_8
    5  A    between atoms: N_7  and  C_28
    6  A    between atoms: C_11  and  C_35
    7  A    between atoms: C_13  and  N_32
    8  A    between atoms: C_23  and  C_25
    9  A    between atoms: C_25  and  N_32
                            x       y       z     vdW  Elec       q    Type
                         _______ _______ _______ _____ _____    ______ ____

>  <TORSDO>
F 9

$$$$
=
 OpenBabel11052410283D

 35 38  0  0  1  0  0  0  0  0999 V2000
  161.5030  205.2330  152.4920 N   0  0  0  0  0  0  0  0  0  0  0  0
  161.5100  206.0470  153.5030 C   0  0  0  0  0  3  0  0  0  0  0  0
  161.4580  206.6880  150.5570 C   0  0  0  0  0  3  0  0  0  0  0  0
  160.9190  208.2430  152.4400 C   0  0  0  0  0  0  0  0  0  0  0  0
  161.4580  207.8990  151.1060 C   0  0  0  0  0  3  0  0  0  0  0  0
  160.9240  207.4070  153.5070 C   0  0  0  0  0  0  0  0  0  0  0  0
  160.8460  205.5030  151.2230 C   0  0  1  0  0  3  0  0  0  0  0  0
  161.1090  202.0700  148.7010 C   0  0  0  0  0  0  0  0  0  0  0  0
  160.9470  204.3020  150.3410 C   0  0  0  0  0  0  0  0  0  0  0  0
  160.8570  201.9410  150.0680 C   0  0  0  0  0  3  0  0  0  0  0  0
  160.7800  203.0500  150.8530 N   0  0  0  0  0  0  0  0  0  0  0  0
  161.2760  203.3430  148.1530 C   0  0  0  0  0  3  0  0  0  0  0  0
  161.1940  204.4670  148.9760 C   0  0  0  0  0  3  0  0  0  0  0  0
  161.1950  200.8660  147.8370 C   0  0  0  0  0  1  0  0  0  0  0  0
  160.4780  209.6690  152.5900 C   0  0  0  0  0  2  0  0  0  0  0  0
  161.1890  210.6010  151.6130 C   0  0  0  0  0  2  0  0  0  0  0  0
  160.4490  211.8490  151.4370 N   0  0  0  0  0  0  0  0  0  0  0  0
  158.2720  212.5460  152.2550 N   0  0  0  0  0  0  0  0  0  0  0  0
  157.4140  212.9520  153.2270 C   0  0  0  0  0  3  0  0  0  0  0  0
  159.1930  212.8040  154.8380 C   0  0  0  0  0  0  0  0  0  0  0  0
  159.6590  212.9360  156.1390 O   0  0  0  0  0  1  0  0  0  0  0  0
  159.5790  212.2520  152.5160 C   0  0  0  0  0  0  0  0  0  0  0  0
  157.8600  213.0850  154.5410 C   0  0  0  0  0  3  0  0  0  0  0  0
  160.0580  212.3920  153.8260 C   0  0  0  0  0  3  0  0  0  0  0  0
  160.6520  212.6780  150.2630 C   0  0  0  0  0  0  0  0  0  0  0  0
  161.3260  212.3680  149.1560 C   0  0  0  0  0  0  0  0  0  0  0  0
  160.2170  214.1030  150.1200 C   0  0  0  0  0  2  0  0  0  0  0  0
  161.3540  213.4770  148.2780 N   0  0  0  0  0  0  0  0  0  0  0  0
  162.0020  211.0810  148.8280 C   0  0  0  0  0  1  0  0  0  0  0  0
  160.7380  214.4530  148.8050 N   0  0  0  0  0  0  0  0  0  0  0  0
  160.4500  207.8910  154.8440 C   0  0  0  0  0  2  0  0  0  0  0  0
  161.4950  207.7400  156.9570 C   0  0  0  0  0  1  0  0  0  0  0  0
  161.5820  208.3520  155.6400 N   0  0  0  0  0  0  0  0  0  0  0  0
  162.6970  210.3860  156.5910 C   0  0  0  0  0  1  0  0  0  0  0  0
  161.5410  209.8130  155.7720 C   0  0  0  0  0  2  0  0  0  0  0  0
  1  2  2  0  0  0  0
  2  6  1  0  0  0  0
  3  5  2  0  0  0  0
  3  7  1  0  0  0  0
  4 15  1  0  0  0  0
  4  6  2  0  0  0  0
  5  4  1  0  0  0  0
  6 31  1  0  0  0  0
  7  9  1  6  0  0  0
  7  1  1  0  0  0  0
  8 10  1  0  0  0  0
  9 11  1  0  0  0  0
 10 11  2  0  0  0  0
 12  8  2  0  0  0  0
 12 13  1  0  0  0  0
 13  9  2  0  0  0  0
 14  8  1  0  0  0  0
 16 15  1  0  0  0  0
 17 16  1  0  0  0  0
 17 22  1  0  0  0  0
 18 22  2  0  0  0  0
 18 19  1  0  0  0  0
 19 23  2  0  0  0  0
 20 21  1  0  0  0  0
 22 24  1  0  0  0  0
 23 20  1  0  0  0  0
 24 20  2  0  0  0  0
 25 17  1  0  0  0  0
 26 25  2  0  0  0  0
 27 25  1  0  0  0  0
 28 30  2  0  0  0  0
 28 26  1  0  0  0  0
 29 26  1  0  0  0  0
 30 27  1  0  0  0  0
 31 33  1  0  0  0  0
 33 35  1  0  0  0  0
 33 32  1  0  0  0  0
 35 34  1  0  0  0  0
M  END
>  <MODEL>
5

>  <REMARK>
 VINA RESULT:      -7.1      3.084      8.653
  Name = 
  9 active torsions:
  status: ('A' for Active; 'I' for Inactive)
    1  A    between atoms: C_1  and  C_8
    2  A    between atoms: C_1  and  C_17
    3  A    between atoms: C_2  and  N_7
    4  A    between atoms: N_7  and  C_8
    5  A    between atoms: N_7  and  C_28
    6  A    between atoms: C_11  and  C_35
    7  A    between atoms: C_13  and  N_32
    8  A    between atoms: C_23  and  C_25
    9  A    between atoms: C_25  and  N_32
                            x       y       z     vdW  Elec       q    Type
                         _______ _______ _______ _____ _____    ______ ____

>  <TORSDO>
F 9

$$$$
=
 OpenBabel11052410283D

 35 38  0  0  1  0  0  0  0  0999 V2000
  161.7140  206.7530  151.7310 N   0  0  0  0  0  0  0  0  0  0  0  0
  161.6130  207.2400  152.9300 C   0  0  0  0  0  3  0  0  0  0  0  0
  161.7700  208.7050  150.2990 C   0  0  0  0  0  3  0  0  0  0  0  0
  161.0300  209.6430  152.4960 C   0  0  0  0  0  0  0  0  0  0  0  0
  161.6830  209.7060  151.1710 C   0  0  0  0  0  3  0  0  0  0  0  0
  160.9800  208.5340  153.2740 C   0  0  0  0  0  0  0  0  0  0  0  0
  161.1490  207.3710  150.5410 C   0  0  1  0  0  3  0  0  0  0  0  0
  161.7830  204.8130  147.1840 C   0  0  0  0  0  0  0  0  0  0  0  0
  161.3620  206.4770  149.3640 C   0  0  0  0  0  0  0  0  0  0  0  0
  162.1380  206.1630  147.1380 C   0  0  0  0  0  3  0  0  0  0  0  0
  161.9240  206.9600  148.2190 N   0  0  0  0  0  0  0  0  0  0  0  0
  161.2130  204.2960  148.3480 C   0  0  0  0  0  3  0  0  0  0  0  0
  161.0020  205.1300  149.4470 C   0  0  0  0  0  3  0  0  0  0  0  0
  162.0120  203.9370  146.0080 C   0  0  0  0  0  1  0  0  0  0  0  0
  160.5280  210.9600  153.0100 C   0  0  0  0  0  2  0  0  0  0  0  0
  159.0110  211.0850  152.8960 C   0  0  0  0  0  2  0  0  0  0  0  0
  158.6030  212.4840  152.7710 N   0  0  0  0  0  0  0  0  0  0  0  0
  160.0780  213.7460  151.3130 N   0  0  0  0  0  0  0  0  0  0  0  0
  160.3780  214.3930  150.1560 C   0  0  0  0  0  3  0  0  0  0  0  0
  158.1970  213.8490  149.3020 C   0  0  0  0  0  0  0  0  0  0  0  0
  157.2480  213.9020  148.2910 O   0  0  0  0  0  1  0  0  0  0  0  0
  158.8750  213.1340  151.5110 C   0  0  0  0  0  0  0  0  0  0  0  0
  159.4420  214.4530  149.1250 C   0  0  0  0  0  3  0  0  0  0  0  0
  157.9080  213.1920  150.4970 C   0  0  0  0  0  3  0  0  0  0  0  0
  157.8860  213.1510  153.8420 C   0  0  0  0  0  0  0  0  0  0  0  0
  158.3410  213.4570  155.0570 C   0  0  1  0  0  3  0  0  0  0  0  0
  156.4400  213.5330  153.8120 C   0  0  0  0  0  3  0  0  0  0  0  0
  157.3060  214.0330  155.8310 N   0  0  0  0  0  0  0  0  0  0  0  0
  159.7080  213.2310  155.6040 C   0  0  0  0  0  1  0  0  0  0  0  0
  156.2390  214.0820  155.1460 N   0  0  0  0  0  0  0  0  0  0  0  0
  160.3860  208.6060  154.6480 C   0  0  0  0  0  2  0  0  0  0  0  0
  160.1570  206.9650  156.3330 C   0  0  0  0  0  1  0  0  0  0  0  0
  161.1200  207.7320  155.5570 N   0  0  0  0  0  0  0  0  0  0  0  0
  161.4680  209.9760  156.6200 C   0  0  0  0  0  1  0  0  0  0  0  0
  161.9520  208.5350  156.4620 C   0  0  0  0  0  2  0  0  0  0  0  0
  1  2  2  0  0  0  0
  2  6  1  0  0  0  0
  3  7  1  0  0  0  0
  3  5  2  0  0  0  0
  4 15  1  0  0  0  0
  4  6  2  0  0  0  0
  5  4  1  0  0  0  0
  6 31  1  0  0  0  0
  7  9  1  6  0  0  0
  7  1  1  0  0  0  0
  8 12  1  0  0  0  0
  9 13  1  0  0  0  0
 10  8  2  0  0  0  0
 10 11  1  0  0  0  0
 11  9  2  0  0  0  0
 12 13  2  0  0  0  0
 14  8  1  0  0  0  0
 16 15  1  0  0  0  0
 17 16  1  0  0  0  0
 17 25  1  0  0  0  0
 18 22  1  0  0  0  0
 19 18  2  0  0  0  0
 20 24  1  0  0  0  0
 21 20  1  0  0  0  0
 22 17  1  0  0  0  0
 23 20  2  0  0  0  0
 23 19  1  0  0  0  0
 24 22  2  0  0  0  0
 25 26  1  0  0  0  0
 26 29  1  1  0  0  0
 26 28  1  0  0  0  0
 27 25  2  0  0  0  0
 27 30  1  0  0  0  0
 30 28  2  0  0  0  0
 31 33  1  0  0  0  0
 33 32  1  0  0  0  0
 33 35  1  0  0  0  0
 35 34  1  0  0  0  0
M  END
>  <MODEL>
6

>  <REMARK>
 VINA RESULT:      -7.1      3.220      9.582
  Name = 
  9 active torsions:
  status: ('A' for Active; 'I' for Inactive)
    1  A    between atoms: C_1  and  C_8
    2  A    between atoms: C_1  and  C_17
    3  A    between atoms: C_2  and  N_7
    4  A    between atoms: N_7  and  C_8
    5  A    between atoms: N_7  and  C_28
    6  A    between atoms: C_11  and  C_35
    7  A    between atoms: C_13  and  N_32
    8  A    between atoms: C_23  and  C_25
    9  A    between atoms: C_25  and  N_32
                            x       y       z     vdW  Elec       q    Type
                         _______ _______ _______ _____ _____    ______ ____

>  <TORSDO>
F 9

$$$$
=
 OpenBabel11052410283D

 35 38  0  0  1  0  0  0  0  0999 V2000
  161.3720  207.4000  149.2350 N   0  0  0  0  0  0  0  0  0  0  0  0
  161.5280  208.6870  149.1910 C   0  0  0  0  0  3  0  0  0  0  0  0
  160.8010  206.9470  151.5440 C   0  0  0  0  0  3  0  0  0  0  0  0
  161.6200  209.3090  151.6220 C   0  0  0  0  0  0  0  0  0  0  0  0
  160.8130  208.1610  152.0870 C   0  0  0  0  0  3  0  0  0  0  0  0
  161.9580  209.5330  150.3280 C   0  0  0  0  0  0  0  0  0  0  0  0
  161.6720  206.5730  150.3930 C   0  0  1  0  0  3  0  0  0  0  0  0
  161.1010  202.4620  149.3990 C   0  0  0  0  0  0  0  0  0  0  0  0
  161.4810  205.1340  150.0440 C   0  0  0  0  0  0  0  0  0  0  0  0
  161.1830  202.8760  150.7300 C   0  0  0  0  0  3  0  0  0  0  0  0
  161.3690  204.1920  151.0230 N   0  0  0  0  0  0  0  0  0  0  0  0
  161.2060  203.4110  148.3800 C   0  0  0  0  0  3  0  0  0  0  0  0
  161.3960  204.7550  148.7020 C   0  0  0  0  0  3  0  0  0  0  0  0
  160.9000  201.0290  149.0700 C   0  0  0  0  0  1  0  0  0  0  0  0
  161.9400  210.3230  152.6810 C   0  0  0  0  0  2  0  0  0  0  0  0
  160.8260  211.3530  152.8510 C   0  0  0  0  0  2  0  0  0  0  0  0
  160.1160  211.1620  154.1150 N   0  0  0  0  0  0  0  0  0  0  0  0
  161.9210  210.7190  155.6770 N   0  0  0  0  0  0  0  0  0  0  0  0
  162.5730  209.9560  156.5940 C   0  0  0  0  0  3  0  0  0  0  0  0
  160.8640  208.2760  156.3890 C   0  0  0  0  0  0  0  0  0  0  0  0
  160.3320  207.0450  156.7450 O   0  0  0  0  0  1  0  0  0  0  0  0
  160.7500  210.3200  155.1010 C   0  0  0  0  0  0  0  0  0  0  0  0
  162.0520  208.7190  156.9700 C   0  0  0  0  0  3  0  0  0  0  0  0
  160.2120  209.0730  155.4490 C   0  0  0  0  0  3  0  0  0  0  0  0
  158.8720  211.8570  154.3830 C   0  0  0  0  0  0  0  0  0  0  0  0
  158.6830  212.9050  155.1850 C   0  0  1  0  0  3  0  0  0  0  0  0
  157.5230  211.4510  153.8780 C   0  0  0  0  0  3  0  0  0  0  0  0
  157.3080  213.2380  155.2340 N   0  0  0  0  0  0  0  0  0  0  0  0
  159.7070  213.6510  155.9700 C   0  0  0  0  0  1  0  0  0  0  0  0
  156.6490  212.4320  154.5070 N   0  0  0  0  0  0  0  0  0  0  0  0
  162.6910  210.7840  149.9490 C   0  0  0  0  0  2  0  0  0  0  0  0
  163.0260  211.9960  147.9480 C   0  0  0  0  0  1  0  0  0  0  0  0
  162.0140  211.4430  148.8360 N   0  0  0  0  0  0  0  0  0  0  0  0
  161.3840  213.8610  148.6350 C   0  0  0  0  0  1  0  0  0  0  0  0
  161.1560  212.5220  149.3380 C   0  0  0  0  0  2  0  0  0  0  0  0
  1  7  1  0  0  0  0
  2  1  2  0  0  0  0
  2  6  1  0  0  0  0
  3  5  2  0  0  0  0
  4  5  1  0  0  0  0
  4 15  1  0  0  0  0
  6  4  2  0  0  0  0
  7  9  1  6  0  0  0
  7  3  1  0  0  0  0
  8 10  1  0  0  0  0
  9 11  1  0  0  0  0
 10 11  2  0  0  0  0
 12 13  1  0  0  0  0
 12  8  2  0  0  0  0
 13  9  2  0  0  0  0
 14  8  1  0  0  0  0
 15 16  1  0  0  0  0
 16 17  1  0  0  0  0
 17 25  1  0  0  0  0
 17 22  1  0  0  0  0
 18 19  1  0  0  0  0
 19 23  2  0  0  0  0
 20 21  1  0  0  0  0
 20 23  1  0  0  0  0
 22 24  1  0  0  0  0
 22 18  2  0  0  0  0
 24 20  2  0  0  0  0
 25 26  1  0  0  0  0
 26 28  1  0  0  0  0
 26 29  1  1  0  0  0
 27 25  2  0  0  0  0
 27 30  1  0  0  0  0
 30 28  2  0  0  0  0
 31  6  1  0  0  0  0
 32 33  1  0  0  0  0
 33 35  1  0  0  0  0
 33 31  1  0  0  0  0
 34 35  1  0  0  0  0
M  END
>  <MODEL>
7

>  <REMARK>
 VINA RESULT:      -7.0      2.298      8.195
  Name = 
  9 active torsions:
  status: ('A' for Active; 'I' for Inactive)
    1  A    between atoms: C_1  and  C_8
    2  A    between atoms: C_1  and  C_17
    3  A    between atoms: C_2  and  N_7
    4  A    between atoms: N_7  and  C_8
    5  A    between atoms: N_7  and  C_28
    6  A    between atoms: C_11  and  C_35
    7  A    between atoms: C_13  and  N_32
    8  A    between atoms: C_23  and  C_25
    9  A    between atoms: C_25  and  N_32
                            x       y       z     vdW  Elec       q    Type
                         _______ _______ _______ _____ _____    ______ ____

>  <TORSDO>
F 9

$$$$
=
 OpenBabel11052410283D

 35 38  0  0  1  0  0  0  0  0999 V2000
  161.3660  210.7150  151.9440 N   0  0  0  0  0  0  0  0  0  0  0  0
  162.0100  210.5560  150.8280 C   0  0  0  0  0  3  0  0  0  0  0  0
  160.7210  208.4700  152.5820 C   0  0  0  0  0  3  0  0  0  0  0  0
  161.4550  208.1880  150.2080 C   0  0  0  0  0  0  0  0  0  0  0  0
  161.2250  207.7330  151.5950 C   0  0  0  0  0  3  0  0  0  0  0  0
  161.7860  209.4570  149.8620 C   0  0  0  0  0  0  0  0  0  0  0  0
  160.2630  209.8740  152.3830 C   0  0  1  0  0  3  0  0  0  0  0  0
  158.6160  211.4120  156.0080 C   0  0  0  0  0  0  0  0  0  0  0  0
  159.6930  210.4190  153.6510 C   0  0  0  0  0  0  0  0  0  0  0  0
  158.0460  211.7190  154.7710 C   0  0  0  0  0  3  0  0  0  0  0  0
  158.5900  211.2200  153.6280 N   0  0  0  0  0  0  0  0  0  0  0  0
  159.7410  210.5870  156.0560 C   0  0  0  0  0  3  0  0  0  0  0  0
  160.2840  210.0860  154.8720 C   0  0  0  0  0  3  0  0  0  0  0  0
  158.0290  211.9530  157.2590 C   0  0  0  0  0  1  0  0  0  0  0  0
  161.4360  207.0970  149.1780 C   0  0  0  0  0  2  0  0  0  0  0  0
  160.5810  205.9090  149.6090 C   0  0  0  0  0  2  0  0  0  0  0  0
  160.9440  204.7000  148.8730 N   0  0  0  0  0  0  0  0  0  0  0  0
  162.7690  204.5350  147.2810 N   0  0  0  0  0  0  0  0  0  0  0  0
  163.3280  204.7020  146.0530 C   0  0  0  0  0  3  0  0  0  0  0  0
  161.2550  205.6200  145.2510 C   0  0  0  0  0  0  0  0  0  0  0  0
  160.4910  206.1700  144.2310 O   0  0  0  0  0  1  0  0  0  0  0  0
  161.4750  204.8780  147.5430 C   0  0  0  0  0  0  0  0  0  0  0  0
  162.5760  205.2460  145.0120 C   0  0  0  0  0  3  0  0  0  0  0  0
  160.7010  205.4420  146.5180 C   0  0  0  0  0  3  0  0  0  0  0  0
  160.8460  203.3910  149.4920 C   0  0  0  0  0  0  0  0  0  0  0  0
  161.0570  203.0790  150.7710 C   0  0  1  0  0  3  0  0  0  0  0  0
  160.5840  202.1060  148.7710 C   0  0  0  0  0  3  0  0  0  0  0  0
  160.9350  201.6810  150.9550 N   0  0  0  0  0  0  0  0  0  0  0  0
  161.4030  203.9990  151.8900 C   0  0  0  0  0  1  0  0  0  0  0  0
  160.6700  201.1260  149.8450 N   0  0  0  0  0  0  0  0  0  0  0  0
  162.1020  209.7890  148.4360 C   0  0  0  0  0  2  0  0  0  0  0  0
  160.8980  211.1750  146.9480 C   0  0  0  0  0  1  0  0  0  0  0  0
  161.7220  211.1690  148.1470 N   0  0  0  0  0  0  0  0  0  0  0  0
  162.6760  213.2040  147.0370 C   0  0  0  0  0  1  0  0  0  0  0  0
  162.9230  211.9830  147.9230 C   0  0  0  0  0  2  0  0  0  0  0  0
  1  7  1  0  0  0  0
  2  1  2  0  0  0  0
  4  5  1  0  0  0  0
  5  3  2  0  0  0  0
  6  4  2  0  0  0  0
  6  2  1  0  0  0  0
  7  3  1  0  0  0  0
  7  9  1  1  0  0  0
  8 12  1  0  0  0  0
  8 14  1  0  0  0  0
  9 13  1  0  0  0  0
 10  8  2  0  0  0  0
 11  9  2  0  0  0  0
 11 10  1  0  0  0  0
 13 12  2  0  0  0  0
 15 16  1  0  0  0  0
 15  4  1  0  0  0  0
 17 25  1  0  0  0  0
 17 16  1  0  0  0  0
 18 22  1  0  0  0  0
 19 18  2  0  0  0  0
 20 24  1  0  0  0  0
 21 20  1  0  0  0  0
 22 17  1  0  0  0  0
 23 20  2  0  0  0  0
 23 19  1  0  0  0  0
 24 22  2  0  0  0  0
 25 26  1  0  0  0  0
 26 28  1  0  0  0  0
 26 29  1  6  0  0  0
 27 25  2  0  0  0  0
 27 30  1  0  0  0  0
 30 28  2  0  0  0  0
 31  6  1  0  0  0  0
 32 33  1  0  0  0  0
 33 31  1  0  0  0  0
 34 35  1  0  0  0  0
 35 33  1  0  0  0  0
M  END
>  <MODEL>
8

>  <REMARK>
 VINA RESULT:      -6.4      1.814      3.457
  Name = 
  9 active torsions:
  status: ('A' for Active; 'I' for Inactive)
    1  A    between atoms: C_1  and  C_8
    2  A    between atoms: C_1  and  C_17
    3  A    between atoms: C_2  and  N_7
    4  A    between atoms: N_7  and  C_8
    5  A    between atoms: N_7  and  C_28
    6  A    between atoms: C_11  and  C_35
    7  A    between atoms: C_13  and  N_32
    8  A    between atoms: C_23  and  C_25
    9  A    between atoms: C_25  and  N_32
                            x       y       z     vdW  Elec       q    Type
                         _______ _______ _______ _____ _____    ______ ____

>  <TORSDO>
F 9

$$$$
=
 OpenBabel11052410283D

 35 38  0  0  1  0  0  0  0  0999 V2000
  161.4850  205.9700  152.8380 N   0  0  0  0  0  0  0  0  0  0  0  0
  161.5030  206.7790  153.8520 C   0  0  0  0  0  3  0  0  0  0  0  0
  161.0040  207.4000  150.9450 C   0  0  0  0  0  3  0  0  0  0  0  0
  160.4910  208.8700  152.9020 C   0  0  0  0  0  0  0  0  0  0  0  0
  160.9040  208.6010  151.5080 C   0  0  0  0  0  3  0  0  0  0  0  0
  160.7400  208.0450  153.9480 C   0  0  0  0  0  0  0  0  0  0  0  0
  160.6460  206.1440  151.6620 C   0  0  1  0  0  3  0  0  0  0  0  0
  161.0690  202.7780  149.0720 C   0  0  0  0  0  0  0  0  0  0  0  0
  160.8030  204.9660  150.7570 C   0  0  0  0  0  0  0  0  0  0  0  0
  160.7900  202.6110  150.4300 C   0  0  0  0  0  3  0  0  0  0  0  0
  160.6630  203.6990  151.2370 N   0  0  0  0  0  0  0  0  0  0  0  0
  161.2090  204.0670  148.5570 C   0  0  0  0  0  3  0  0  0  0  0  0
  161.0750  205.1700  149.4020 C   0  0  0  0  0  3  0  0  0  0  0  0
  161.2100  201.5960  148.1850 C   0  0  0  0  0  1  0  0  0  0  0  0
  159.8790  210.2220  153.1250 C   0  0  0  0  0  2  0  0  0  0  0  0
  160.8110  211.3560  152.7070 C   0  0  0  0  0  2  0  0  0  0  0  0
  160.0790  212.4160  152.0160 N   0  0  0  0  0  0  0  0  0  0  0  0
  160.1960  214.0030  150.1830 N   0  0  0  0  0  0  0  0  0  0  0  0
  160.6000  214.4050  148.9490 C   0  0  0  0  0  3  0  0  0  0  0  0
  161.7840  212.3290  148.6780 C   0  0  0  0  0  0  0  0  0  0  0  0
  162.5810  211.4840  147.9190 O   0  0  0  0  0  1  0  0  0  0  0  0
  160.5590  212.7980  150.7100 C   0  0  0  0  0  0  0  0  0  0  0  0
  161.4070  213.5730  148.1730 C   0  0  0  0  0  3  0  0  0  0  0  0
  161.3570  211.9350  149.9450 C   0  0  0  0  0  3  0  0  0  0  0  0
  158.8790  212.9920  152.5930 C   0  0  0  0  0  0  0  0  0  0  0  0
  158.7020  213.4190  153.8430 C   0  0  1  0  0  3  0  0  0  0  0  0
  157.5580  213.1200  151.9010 C   0  0  0  0  0  3  0  0  0  0  0  0
  157.3640  213.8400  154.0280 N   0  0  0  0  0  0  0  0  0  0  0  0
  159.7020  213.4520  154.9470 C   0  0  0  0  0  1  0  0  0  0  0  0
  156.7140  213.6790  152.9490 N   0  0  0  0  0  0  0  0  0  0  0  0
  160.3710  208.4620  155.3390 C   0  0  0  0  0  2  0  0  0  0  0  0
  162.1660  208.4220  156.8760 C   0  0  0  0  0  1  0  0  0  0  0  0
  161.4460  209.2560  155.9260 N   0  0  0  0  0  0  0  0  0  0  0  0
  159.3580  210.4570  156.6220 C   0  0  0  0  0  1  0  0  0  0  0  0
  160.8860  210.4220  156.6200 C   0  0  0  0  0  2  0  0  0  0  0  0
  1  2  2  0  0  0  0
  2  6  1  0  0  0  0
  3  5  2  0  0  0  0
  3  7  1  0  0  0  0
  4 15  1  0  0  0  0
  4  6  2  0  0  0  0
  5  4  1  0  0  0  0
  6 31  1  0  0  0  0
  7  9  1  6  0  0  0
  7  1  1  0  0  0  0
  8 10  1  0  0  0  0
  9 11  1  0  0  0  0
 10 11  2  0  0  0  0
 12  8  2  0  0  0  0
 12 13  1  0  0  0  0
 13  9  2  0  0  0  0
 14  8  1  0  0  0  0
 16 15  1  0  0  0  0
 17 25  1  0  0  0  0
 17 16  1  0  0  0  0
 18 22  1  0  0  0  0
 19 18  2  0  0  0  0
 20 24  1  0  0  0  0
 21 20  1  0  0  0  0
 22 17  1  0  0  0  0
 23 20  2  0  0  0  0
 23 19  1  0  0  0  0
 24 22  2  0  0  0  0
 25 26  1  0  0  0  0
 26 28  1  0  0  0  0
 26 29  1  1  0  0  0
 27 25  2  0  0  0  0
 27 30  1  0  0  0  0
 30 28  2  0  0  0  0
 31 33  1  0  0  0  0
 33 35  1  0  0  0  0
 33 32  1  0  0  0  0
 35 34  1  0  0  0  0
M  END
>  <MODEL>
9

>  <REMARK>
 VINA RESULT:      -6.4      3.033      9.084
  Name = 
  9 active torsions:
  status: ('A' for Active; 'I' for Inactive)
    1  A    between atoms: C_1  and  C_8
    2  A    between atoms: C_1  and  C_17
    3  A    between atoms: C_2  and  N_7
    4  A    between atoms: N_7  and  C_8
    5  A    between atoms: N_7  and  C_28
    6  A    between atoms: C_11  and  C_35
    7  A    between atoms: C_13  and  N_32
    8  A    between atoms: C_23  and  C_25
    9  A    between atoms: C_25  and  N_32
                            x       y       z     vdW  Elec       q    Type
                         _______ _______ _______ _____ _____    ______ ____

>  <TORSDO>
F 9

$$$$
