=
 OpenBabel11042422253D

 34 37  0  0  1  0  0  0  0  0999 V2000
  160.7120  209.6920  153.6660 C   0  0  0  0  0  0  0  0  0  0  0  0
  161.4820  209.3070  151.4410 N   0  0  0  0  0  0  0  0  0  0  0  0
  160.4500  211.0280  153.3200 C   0  0  0  0  0  0  0  0  0  0  0  0
  160.3890  212.6070  151.6210 O   0  0  0  0  0  0  0  0  0  0  0  0
  160.6820  211.4410  151.9980 C   0  0  0  0  0  0  0  0  0  0  0  0
  161.2020  210.5640  151.1030 N   0  0  0  0  0  2  0  0  0  0  0  0
  161.2530  208.8300  152.6930 C   0  0  0  0  0  0  0  0  0  0  0  0
  160.8830  207.4830  157.2610 N   0  0  0  0  0  0  0  0  0  0  0  0
  162.0530  208.1730  156.7580 C   0  0  0  0  0  2  0  0  0  0  0  0
  159.8510  207.8060  155.0990 C   0  0  0  0  0  2  0  0  0  0  0  0
  159.8540  207.2920  156.5090 C   0  0  0  0  0  3  0  0  0  0  0  0
  161.6490  209.4440  155.9990 C   0  0  0  0  0  2  0  0  0  0  0  0
  160.4360  209.2260  155.0700 C   0  0  1  0  0  3  0  0  0  0  0  0
  159.8870  211.9160  154.3000 N   0  0  0  0  0  2  0  0  0  0  0  0
  157.6190  211.4270  155.0530 C   0  0  0  0  0  3  0  0  0  0  0  0
  158.5070  212.2870  154.4010 C   0  0  0  0  0  0  0  0  0  0  0  0
  156.2700  211.7750  155.2060 C   0  0  0  0  0  0  0  0  0  0  0  0
  156.7020  213.8760  154.0690 C   0  0  0  0  0  3  0  0  0  0  0  0
  158.0450  213.5220  153.9200 C   0  0  0  0  0  3  0  0  0  0  0  0
  155.8160  213.0050  154.7070 C   0  0  0  0  0  3  0  0  0  0  0  0
  154.8760  209.7220  155.2320 O   0  0  0  0  0  0  0  0  0  0  0  0
  155.3430  210.8570  155.8860 C   0  0  0  0  0  0  0  0  0  0  0  0
  154.9630  211.0880  157.0650 O   0  0  0  0  0  1  0  0  0  0  0  0
  161.5540  207.4650  153.0270 N   0  0  0  0  0  2  0  0  0  0  0  0
  161.2190  206.3640  150.8270 C   0  0  0  0  0  3  0  0  0  0  0  0
  161.2440  205.0550  152.8600 C   0  0  0  0  0  3  0  0  0  0  0  0
  161.0340  203.8920  152.1140 C   0  0  0  0  0  3  0  0  0  0  0  0
  161.0080  205.2020  150.0790 C   0  0  0  0  0  3  0  0  0  0  0  0
  160.9130  203.9630  150.7230 C   0  0  0  0  0  0  0  0  0  0  0  0
  161.3380  206.2970  152.2240 C   0  0  0  0  0  0  0  0  0  0  0  0
  160.6850  202.7180  149.9310 C   0  0  0  0  0  2  0  0  0  0  0  0
  160.9700  202.9340  148.4500 C   0  0  0  0  0  2  0  0  0  0  0  0
  160.9590  201.6210  147.6840 C   0  0  0  0  0  2  0  0  0  0  0  0
  161.3110  200.5680  148.5290 O   0  0  0  0  0  1  0  0  0  0  0  0
  2  7  2  0  0  0  0
  3  1  2  0  0  0  0
  3 14  1  0  0  0  0
  4  5  2  0  0  0  0
  5  3  1  0  0  0  0
  6  2  1  0  0  0  0
  6  5  1  0  0  0  0
  7 24  1  0  0  0  0
  7  1  1  0  0  0  0
  9  8  1  0  0  0  0
 10 11  1  0  0  0  0
 11  8  2  0  0  0  0
 12  9  1  0  0  0  0
 13  1  1  6  0  0  0
 13 10  1  0  0  0  0
 13 12  1  0  0  0  0
 14 16  1  0  0  0  0
 15 17  1  0  0  0  0
 16 15  2  0  0  0  0
 17 22  1  0  0  0  0
 18 20  1  0  0  0  0
 19 18  2  0  0  0  0
 19 16  1  0  0  0  0
 20 17  2  0  0  0  0
 21 22  2  0  0  0  0
 22 23  1  0  0  0  0
 25 30  1  0  0  0  0
 27 26  1  0  0  0  0
 28 29  1  0  0  0  0
 28 25  2  0  0  0  0
 29 27  2  0  0  0  0
 30 26  2  0  0  0  0
 30 24  1  0  0  0  0
 31 29  1  0  0  0  0
 32 31  1  0  0  0  0
 33 32  1  0  0  0  0
 33 34  1  0  0  0  0
M  END
>  <MODEL>
1

>  <REMARK>
 VINA RESULT:      -7.8      0.000      0.000
  Name = 
  9 active torsions:
  status: ('A' for Active; 'I' for Inactive)
    1  A    between atoms: C_2  and  C_33
    2  A    between atoms: C_7  and  N_25
    3  A    between atoms: C_8  and  N_25
    4  A    between atoms: C_11  and  C_27
    5  A    between atoms: C_12  and  C_26
    6  A    between atoms: C_12  and  C_34
    7  A    between atoms: C_23  and  C_34
    8  A    between atoms: C_29  and  N_32
    9  A    between atoms: C_31  and  N_32
                            x       y       z     vdW  Elec       q    Type
                         _______ _______ _______ _____ _____    ______ ____

>  <TORSDO>
F 9

$$$$
=
 OpenBabel11042422253D

 34 37  0  0  1  0  0  0  0  0999 V2000
  161.1370  210.3810  153.4680 C   0  0  0  0  0  0  0  0  0  0  0  0
  161.0440  210.9740  151.1590 N   0  0  0  0  0  0  0  0  0  0  0  0
  160.3750  211.5210  153.7690 C   0  0  0  0  0  0  0  0  0  0  0  0
  159.1800  213.3240  152.9260 O   0  0  0  0  0  0  0  0  0  0  0  0
  159.9320  212.3350  152.7130 C   0  0  0  0  0  0  0  0  0  0  0  0
  160.2920  212.0370  151.4400 N   0  0  0  0  0  2  0  0  0  0  0  0
  161.4810  210.1250  152.1270 C   0  0  0  0  0  0  0  0  0  0  0  0
  161.4530  208.5490  157.2590 N   0  0  0  0  0  0  0  0  0  0  0  0
  160.2130  208.4990  156.5130 C   0  0  0  0  0  2  0  0  0  0  0  0
  162.2140  210.2710  155.7440 C   0  0  0  0  0  2  0  0  0  0  0  0
  162.3910  209.3680  156.9290 C   0  0  0  0  0  3  0  0  0  0  0  0
  160.4890  208.4830  155.0040 C   0  0  0  0  0  2  0  0  0  0  0  0
  161.5900  209.4800  154.5860 C   0  0  1  0  0  3  0  0  0  0  0  0
  160.0070  211.7890  155.1320 N   0  0  0  0  0  2  0  0  0  0  0  0
  157.6570  211.2220  155.4650 C   0  0  0  0  0  3  0  0  0  0  0  0
  158.6980  212.1460  155.5930 C   0  0  0  0  0  0  0  0  0  0  0  0
  156.3730  211.5220  155.9400 C   0  0  0  0  0  0  0  0  0  0  0  0
  157.1800  213.6800  156.7060 C   0  0  0  0  0  3  0  0  0  0  0  0
  158.4570  213.3740  156.2290 C   0  0  0  0  0  3  0  0  0  0  0  0
  156.1400  212.7580  156.5600 C   0  0  0  0  0  3  0  0  0  0  0  0
  154.4220  210.2880  156.8500 O   0  0  0  0  0  1  0  0  0  0  0  0
  155.2840  210.5450  155.7900 C   0  0  0  0  0  0  0  0  0  0  0  0
  155.1200  209.9320  154.7010 O   0  0  0  0  0  0  0  0  0  0  0  0
  162.2810  208.9790  151.7940 N   0  0  0  0  0  2  0  0  0  0  0  0
  161.1590  207.5140  150.1330 C   0  0  0  0  0  3  0  0  0  0  0  0
  162.0720  206.5820  152.1700 C   0  0  0  0  0  3  0  0  0  0  0  0
  161.6490  205.3090  151.7770 C   0  0  0  0  0  3  0  0  0  0  0  0
  160.7350  206.2410  149.7390 C   0  0  0  0  0  3  0  0  0  0  0  0
  160.9770  205.1360  150.5620 C   0  0  0  0  0  0  0  0  0  0  0  0
  161.8310  207.6920  151.3530 C   0  0  0  0  0  0  0  0  0  0  0  0
  160.5250  203.7750  150.1490 C   0  0  0  0  0  2  0  0  0  0  0  0
  161.1240  203.3670  148.8090 C   0  0  0  0  0  2  0  0  0  0  0  0
  160.7600  201.9350  148.4500 C   0  0  0  0  0  2  0  0  0  0  0  0
  161.1980  201.0630  149.4470 O   0  0  0  0  0  1  0  0  0  0  0  0
  1  3  2  0  0  0  0
  2  6  1  0  0  0  0
  2  7  2  0  0  0  0
  3 14  1  0  0  0  0
  5  4  2  0  0  0  0
  5  3  1  0  0  0  0
  6  5  1  0  0  0  0
  7  1  1  0  0  0  0
  9  8  1  0  0  0  0
 10 11  1  0  0  0  0
 11  8  2  0  0  0  0
 12  9  1  0  0  0  0
 13  1  1  6  0  0  0
 13 12  1  0  0  0  0
 13 10  1  0  0  0  0
 14 16  1  0  0  0  0
 15 16  2  0  0  0  0
 15 17  1  0  0  0  0
 16 19  1  0  0  0  0
 17 20  2  0  0  0  0
 19 18  2  0  0  0  0
 20 18  1  0  0  0  0
 22 17  1  0  0  0  0
 22 21  1  0  0  0  0
 23 22  2  0  0  0  0
 24  7  1  0  0  0  0
 25 30  1  0  0  0  0
 27 26  1  0  0  0  0
 28 25  2  0  0  0  0
 28 29  1  0  0  0  0
 29 27  2  0  0  0  0
 30 24  1  0  0  0  0
 30 26  2  0  0  0  0
 31 29  1  0  0  0  0
 32 31  1  0  0  0  0
 33 32  1  0  0  0  0
 33 34  1  0  0  0  0
M  END
>  <MODEL>
2

>  <REMARK>
 VINA RESULT:      -7.6      1.234      1.702
  Name = 
  9 active torsions:
  status: ('A' for Active; 'I' for Inactive)
    1  A    between atoms: C_2  and  C_33
    2  A    between atoms: C_7  and  N_25
    3  A    between atoms: C_8  and  N_25
    4  A    between atoms: C_11  and  C_27
    5  A    between atoms: C_12  and  C_26
    6  A    between atoms: C_12  and  C_34
    7  A    between atoms: C_23  and  C_34
    8  A    between atoms: C_29  and  N_32
    9  A    between atoms: C_31  and  N_32
                            x       y       z     vdW  Elec       q    Type
                         _______ _______ _______ _____ _____    ______ ____

>  <TORSDO>
F 9

$$$$
=
 OpenBabel11042422253D

 34 37  0  0  1  0  0  0  0  0999 V2000
  161.2100  208.6530  152.7130 C   0  0  0  0  0  0  0  0  0  0  0  0
  162.0560  207.7190  150.6870 N   0  0  0  0  0  0  0  0  0  0  0  0
  161.4270  209.9360  152.1870 C   0  0  0  0  0  0  0  0  0  0  0  0
  162.0590  211.1820  150.3330 O   0  0  0  0  0  0  0  0  0  0  0  0
  161.9220  210.0540  150.8770 C   0  0  0  0  0  0  0  0  0  0  0  0
  162.2300  208.9350  150.1740 N   0  0  0  0  0  2  0  0  0  0  0  0
  161.5510  207.5300  151.9350 C   0  0  0  0  0  0  0  0  0  0  0  0
  160.8180  207.6340  156.7930 N   0  0  0  0  0  0  0  0  0  0  0  0
  161.8930  208.4940  156.3440 C   0  0  0  0  0  2  0  0  0  0  0  0
  160.4230  207.0400  154.4840 C   0  0  0  0  0  2  0  0  0  0  0  0
  160.1290  206.9430  155.9510 C   0  0  0  0  0  3  0  0  0  0  0  0
  161.4500  209.3300  155.1350 C   0  0  0  0  0  2  0  0  0  0  0  0
  160.6480  208.5100  154.1020 C   0  0  1  0  0  3  0  0  0  0  0  0
  161.0740  211.0910  152.9650 N   0  0  0  0  0  2  0  0  0  0  0  0
  158.8260  211.5950  153.7700 C   0  0  0  0  0  3  0  0  0  0  0  0
  159.8550  211.8360  152.8550 C   0  0  0  0  0  0  0  0  0  0  0  0
  157.6350  212.3320  153.7180 C   0  0  0  0  0  0  0  0  0  0  0  0
  158.5150  213.5840  151.8330 C   0  0  0  0  0  3  0  0  0  0  0  0
  159.7000  212.8460  151.8920 C   0  0  0  0  0  3  0  0  0  0  0  0
  157.4850  213.3270  152.7410 C   0  0  0  0  0  3  0  0  0  0  0  0
  156.4010  210.7900  155.2200 O   0  0  0  0  0  1  0  0  0  0  0  0
  156.5570  212.0620  154.6810 C   0  0  0  0  0  0  0  0  0  0  0  0
  155.7640  212.9790  155.0260 O   0  0  0  0  0  0  0  0  0  0  0  0
  161.3630  206.2050  152.4590 N   0  0  0  0  0  2  0  0  0  0  0  0
  161.1010  203.7390  152.3520 C   0  0  0  0  0  3  0  0  0  0  0  0
  160.9590  205.0740  150.3400 C   0  0  0  0  0  3  0  0  0  0  0  0
  160.7400  203.9170  149.5880 C   0  0  0  0  0  3  0  0  0  0  0  0
  160.8820  202.5810  151.6000 C   0  0  0  0  0  3  0  0  0  0  0  0
  160.7040  202.6680  150.2150 C   0  0  0  0  0  0  0  0  0  0  0  0
  161.1410  204.9940  151.7250 C   0  0  0  0  0  0  0  0  0  0  0  0
  160.4730  201.4350  149.4060 C   0  0  0  0  0  2  0  0  0  0  0  0
  161.4350  201.3470  148.2280 C   0  0  0  0  0  2  0  0  0  0  0  0
  160.7120  201.5320  146.9030 C   0  0  0  0  0  2  0  0  0  0  0  0
  161.2130  202.6480  146.2330 O   0  0  0  0  0  1  0  0  0  0  0  0
  2  7  2  0  0  0  0
  3  1  2  0  0  0  0
  3 14  1  0  0  0  0
  4  5  2  0  0  0  0
  5  3  1  0  0  0  0
  6  2  1  0  0  0  0
  6  5  1  0  0  0  0
  7 24  1  0  0  0  0
  7  1  1  0  0  0  0
  9  8  1  0  0  0  0
 10 11  1  0  0  0  0
 11  8  2  0  0  0  0
 12  9  1  0  0  0  0
 13  1  1  6  0  0  0
 13 10  1  0  0  0  0
 13 12  1  0  0  0  0
 16 14  1  0  0  0  0
 16 15  2  0  0  0  0
 17 15  1  0  0  0  0
 17 22  1  0  0  0  0
 18 19  2  0  0  0  0
 18 20  1  0  0  0  0
 19 16  1  0  0  0  0
 20 17  2  0  0  0  0
 22 23  2  0  0  0  0
 22 21  1  0  0  0  0
 26 30  2  0  0  0  0
 27 29  2  0  0  0  0
 27 26  1  0  0  0  0
 28 25  2  0  0  0  0
 29 28  1  0  0  0  0
 30 25  1  0  0  0  0
 30 24  1  0  0  0  0
 31 29  1  0  0  0  0
 32 31  1  0  0  0  0
 33 32  1  0  0  0  0
 34 33  1  0  0  0  0
M  END
>  <MODEL>
3

>  <REMARK>
 VINA RESULT:      -7.5      1.467      2.019
  Name = 
  9 active torsions:
  status: ('A' for Active; 'I' for Inactive)
    1  A    between atoms: C_2  and  C_33
    2  A    between atoms: C_7  and  N_25
    3  A    between atoms: C_8  and  N_25
    4  A    between atoms: C_11  and  C_27
    5  A    between atoms: C_12  and  C_26
    6  A    between atoms: C_12  and  C_34
    7  A    between atoms: C_23  and  C_34
    8  A    between atoms: C_29  and  N_32
    9  A    between atoms: C_31  and  N_32
                            x       y       z     vdW  Elec       q    Type
                         _______ _______ _______ _____ _____    ______ ____

>  <TORSDO>
F 9

$$$$
=
 OpenBabel11042422253D

 34 37  0  0  1  0  0  0  0  0999 V2000
  161.5270  207.8070  152.6070 C   0  0  0  0  0  0  0  0  0  0  0  0
  161.1070  206.0150  154.1260 N   0  0  0  0  0  0  0  0  0  0  0  0
  160.8190  208.6680  153.4620 C   0  0  0  0  0  0  0  0  0  0  0  0
  159.7380  208.9060  155.5010 O   0  0  0  0  0  0  0  0  0  0  0  0
  160.3110  208.1560  154.6670 C   0  0  0  0  0  0  0  0  0  0  0  0
  160.4650  206.8390  154.9530 N   0  0  0  0  0  2  0  0  0  0  0  0
  161.6520  206.4500  152.9590 C   0  0  0  0  0  0  0  0  0  0  0  0
  162.0350  210.0800  149.0850 N   0  0  0  0  0  0  0  0  0  0  0  0
  161.9540  210.7260  150.3790 C   0  0  0  0  0  2  0  0  0  0  0  0
  161.2060  208.0600  150.1200 C   0  0  0  0  0  2  0  0  0  0  0  0
  161.6850  208.8490  148.9380 C   0  0  0  0  0  3  0  0  0  0  0  0
  162.5410  209.8230  151.4720 C   0  0  0  0  0  2  0  0  0  0  0  0
  162.1080  208.3490  151.3290 C   0  0  1  0  0  3  0  0  0  0  0  0
  160.6930  210.0580  153.1210 N   0  0  0  0  0  2  0  0  0  0  0  0
  158.7100  211.3610  153.6910 C   0  0  0  0  0  3  0  0  0  0  0  0
  160.0570  211.0630  153.9200 C   0  0  0  0  0  0  0  0  0  0  0  0
  158.0440  212.3100  154.4790 C   0  0  0  0  0  0  0  0  0  0  0  0
  160.0810  212.6520  155.7560 C   0  0  0  0  0  3  0  0  0  0  0  0
  160.7370  211.7040  154.9670 C   0  0  0  0  0  3  0  0  0  0  0  0
  158.7390  212.9560  155.5120 C   0  0  0  0  0  3  0  0  0  0  0  0
  156.2820  213.7610  153.5050 O   0  0  0  0  0  0  0  0  0  0  0  0
  156.6300  212.6220  154.2220 C   0  0  0  0  0  0  0  0  0  0  0  0
  155.7200  211.8600  154.6460 O   0  0  0  0  0  1  0  0  0  0  0  0
  162.3500  205.5410  152.0910 N   0  0  0  0  0  2  0  0  0  0  0  0
  161.5820  203.2180  151.6680 C   0  0  0  0  0  3  0  0  0  0  0  0
  161.4320  204.8930  149.9300 C   0  0  0  0  0  3  0  0  0  0  0  0
  160.8810  203.9450  149.0640 C   0  0  0  0  0  3  0  0  0  0  0  0
  161.0310  202.2690  150.8030 C   0  0  0  0  0  3  0  0  0  0  0  0
  160.6810  202.6300  149.4980 C   0  0  0  0  0  0  0  0  0  0  0  0
  161.7870  204.5380  151.2350 C   0  0  0  0  0  0  0  0  0  0  0  0
  160.0940  201.6210  148.5680 C   0  0  0  0  0  2  0  0  0  0  0  0
  161.0730  201.2370  147.4640 C   0  0  0  0  0  2  0  0  0  0  0  0
  160.5630  201.6620  146.0960 C   0  0  0  0  0  2  0  0  0  0  0  0
  161.2070  202.8290  145.6830 O   0  0  0  0  0  1  0  0  0  0  0  0
  1  7  1  0  0  0  0
  1  3  2  0  0  0  0
  2  6  1  0  0  0  0
  3  5  1  0  0  0  0
  5  6  1  0  0  0  0
  5  4  2  0  0  0  0
  7  2  2  0  0  0  0
  8  9  1  0  0  0  0
  9 12  1  0  0  0  0
 10 13  1  0  0  0  0
 11  8  2  0  0  0  0
 11 10  1  0  0  0  0
 13 12  1  0  0  0  0
 13  1  1  1  0  0  0
 14  3  1  0  0  0  0
 14 16  1  0  0  0  0
 15 16  2  0  0  0  0
 15 17  1  0  0  0  0
 16 19  1  0  0  0  0
 17 20  2  0  0  0  0
 19 18  2  0  0  0  0
 20 18  1  0  0  0  0
 21 22  2  0  0  0  0
 22 17  1  0  0  0  0
 22 23  1  0  0  0  0
 24  7  1  0  0  0  0
 26 30  2  0  0  0  0
 27 29  2  0  0  0  0
 27 26  1  0  0  0  0
 28 25  2  0  0  0  0
 29 28  1  0  0  0  0
 30 25  1  0  0  0  0
 30 24  1  0  0  0  0
 31 29  1  0  0  0  0
 32 31  1  0  0  0  0
 33 32  1  0  0  0  0
 34 33  1  0  0  0  0
M  END
>  <MODEL>
4

>  <REMARK>
 VINA RESULT:      -7.2      2.015      3.931
  Name = 
  9 active torsions:
  status: ('A' for Active; 'I' for Inactive)
    1  A    between atoms: C_2  and  C_33
    2  A    between atoms: C_7  and  N_25
    3  A    between atoms: C_8  and  N_25
    4  A    between atoms: C_11  and  C_27
    5  A    between atoms: C_12  and  C_26
    6  A    between atoms: C_12  and  C_34
    7  A    between atoms: C_23  and  C_34
    8  A    between atoms: C_29  and  N_32
    9  A    between atoms: C_31  and  N_32
                            x       y       z     vdW  Elec       q    Type
                         _______ _______ _______ _____ _____    ______ ____

>  <TORSDO>
F 9

$$$$
=
 OpenBabel11042422253D

 34 37  0  0  1  0  0  0  0  0999 V2000
  161.6780  207.7400  150.8510 C   0  0  0  0  0  0  0  0  0  0  0  0
  161.2240  207.2510  148.5600 N   0  0  0  0  0  0  0  0  0  0  0  0
  162.0630  209.0370  150.4750 C   0  0  0  0  0  0  0  0  0  0  0  0
  162.2250  210.5800  148.7490 O   0  0  0  0  0  0  0  0  0  0  0  0
  161.9660  209.4050  149.1230 C   0  0  0  0  0  0  0  0  0  0  0  0
  161.5580  208.4920  148.2070 N   0  0  0  0  0  2  0  0  0  0  0  0
  161.2640  206.8360  149.8540 C   0  0  0  0  0  0  0  0  0  0  0  0
  160.8560  205.8160  154.5190 N   0  0  0  0  0  0  0  0  0  0  0  0
  161.2710  205.0540  153.3590 C   0  0  0  0  0  2  0  0  0  0  0  0
  160.4530  207.6950  153.0530 C   0  0  0  0  0  2  0  0  0  0  0  0
  160.4640  207.0380  154.4020 C   0  0  0  0  0  3  0  0  0  0  0  0
  162.2140  205.8820  152.4770 C   0  0  0  0  0  2  0  0  0  0  0  0
  161.7440  207.3420  152.3010 C   0  0  1  0  0  3  0  0  0  0  0  0
  162.4780  209.9730  151.4830 N   0  0  0  0  0  2  0  0  0  0  0  0
  161.9840  210.4660  153.8210 C   0  0  0  0  0  3  0  0  0  0  0  0
  161.6310  210.5700  152.4730 C   0  0  0  0  0  0  0  0  0  0  0  0
  161.2010  211.0710  154.8140 C   0  0  0  0  0  0  0  0  0  0  0  0
  159.7070  211.9150  153.0960 C   0  0  0  0  0  3  0  0  0  0  0  0
  160.4940  211.3100  152.1120 C   0  0  0  0  0  3  0  0  0  0  0  0
  160.0580  211.7940  154.4430 C   0  0  0  0  0  3  0  0  0  0  0  0
  162.9190  210.9010  156.5970 O   0  0  0  0  0  0  0  0  0  0  0  0
  161.5780  210.9460  156.2300 C   0  0  0  0  0  0  0  0  0  0  0  0
  160.6930  210.8800  157.1250 O   0  0  0  0  0  1  0  0  0  0  0  0
  160.8880  205.4950  150.2070 N   0  0  0  0  0  2  0  0  0  0  0  0
  161.2830  204.3740  148.0280 C   0  0  0  0  0  3  0  0  0  0  0  0
  160.7450  203.0730  149.9940 C   0  0  0  0  0  3  0  0  0  0  0  0
  160.8200  201.8990  149.2380 C   0  0  0  0  0  3  0  0  0  0  0  0
  161.3580  203.2010  147.2700 C   0  0  0  0  0  3  0  0  0  0  0  0
  161.1250  201.9610  147.8750 C   0  0  0  0  0  0  0  0  0  0  0  0
  160.9750  204.3160  149.3960 C   0  0  0  0  0  0  0  0  0  0  0  0
  161.2000  200.7050  147.0720 C   0  0  0  0  0  2  0  0  0  0  0  0
  160.5250  200.8640  145.7150 C   0  0  0  0  0  2  0  0  0  0  0  0
  160.4500  199.5390  144.9720 C   0  0  0  0  0  2  0  0  0  0  0  0
  161.2070  198.5730  145.6350 O   0  0  0  0  0  1  0  0  0  0  0  0
  2  7  2  0  0  0  0
  3  1  2  0  0  0  0
  3 14  1  0  0  0  0
  4  5  2  0  0  0  0
  5  3  1  0  0  0  0
  6  2  1  0  0  0  0
  6  5  1  0  0  0  0
  7 24  1  0  0  0  0
  7  1  1  0  0  0  0
  9  8  1  0  0  0  0
 10 11  1  0  0  0  0
 11  8  2  0  0  0  0
 12  9  1  0  0  0  0
 13  1  1  6  0  0  0
 13 12  1  0  0  0  0
 13 10  1  0  0  0  0
 14 16  1  0  0  0  0
 15 17  1  0  0  0  0
 16 15  2  0  0  0  0
 17 22  1  0  0  0  0
 18 20  1  0  0  0  0
 19 16  1  0  0  0  0
 19 18  2  0  0  0  0
 20 17  2  0  0  0  0
 22 21  2  0  0  0  0
 22 23  1  0  0  0  0
 25 30  1  0  0  0  0
 27 26  1  0  0  0  0
 28 29  1  0  0  0  0
 28 25  2  0  0  0  0
 29 27  2  0  0  0  0
 30 26  2  0  0  0  0
 30 24  1  0  0  0  0
 31 29  1  0  0  0  0
 32 31  1  0  0  0  0
 33 34  1  0  0  0  0
 33 32  1  0  0  0  0
M  END
>  <MODEL>
5

>  <REMARK>
 VINA RESULT:      -7.1      2.774      4.119
  Name = 
  9 active torsions:
  status: ('A' for Active; 'I' for Inactive)
    1  A    between atoms: C_2  and  C_33
    2  A    between atoms: C_7  and  N_25
    3  A    between atoms: C_8  and  N_25
    4  A    between atoms: C_11  and  C_27
    5  A    between atoms: C_12  and  C_26
    6  A    between atoms: C_12  and  C_34
    7  A    between atoms: C_23  and  C_34
    8  A    between atoms: C_29  and  N_32
    9  A    between atoms: C_31  and  N_32
                            x       y       z     vdW  Elec       q    Type
                         _______ _______ _______ _____ _____    ______ ____

>  <TORSDO>
F 9

$$$$
=
 OpenBabel11042422253D

 34 37  0  0  1  0  0  0  0  0999 V2000
  161.4320  208.4470  153.1630 C   0  0  0  0  0  0  0  0  0  0  0  0
  161.0480  210.3720  151.8060 N   0  0  0  0  0  0  0  0  0  0  0  0
  161.9290  207.7770  152.0330 C   0  0  0  0  0  0  0  0  0  0  0  0
  162.5160  207.9390  149.7940 O   0  0  0  0  0  0  0  0  0  0  0  0
  162.0060  208.4720  150.8150 C   0  0  0  0  0  0  0  0  0  0  0  0
  161.5510  209.7480  150.7420 N   0  0  0  0  0  2  0  0  0  0  0  0
  160.9740  209.7710  153.0230 C   0  0  0  0  0  0  0  0  0  0  0  0
  160.3230  207.3570  157.0890 N   0  0  0  0  0  0  0  0  0  0  0  0
  159.3560  207.3340  156.0120 C   0  0  0  0  0  2  0  0  0  0  0  0
  161.7880  208.6340  155.6510 C   0  0  0  0  0  2  0  0  0  0  0  0
  161.4530  207.9620  156.9500 C   0  0  0  0  0  3  0  0  0  0  0  0
  160.0350  206.9890  154.6800 C   0  0  0  0  0  2  0  0  0  0  0  0
  161.3760  207.7270  154.4830 C   0  0  1  0  0  3  0  0  0  0  0  0
  162.4110  206.4290  152.1630 N   0  0  0  0  0  2  0  0  0  0  0  0
  161.8120  204.9600  150.3100 C   0  0  0  0  0  3  0  0  0  0  0  0
  161.7550  205.2530  151.6750 C   0  0  0  0  0  0  0  0  0  0  0  0
  161.2160  203.7980  149.8020 C   0  0  0  0  0  0  0  0  0  0  0  0
  160.5170  203.1980  152.0490 C   0  0  0  0  0  3  0  0  0  0  0  0
  161.1150  204.3580  152.5470 C   0  0  0  0  0  3  0  0  0  0  0  0
  160.5650  202.9190  150.6810 C   0  0  0  0  0  3  0  0  0  0  0  0
  161.8380  204.4240  147.4830 O   0  0  0  0  0  0  0  0  0  0  0  0
  161.2750  203.5060  148.3620 C   0  0  0  0  0  0  0  0  0  0  0  0
  160.8170  202.4220  147.9090 O   0  0  0  0  0  1  0  0  0  0  0  0
  160.4370  210.4720  154.1570 N   0  0  0  0  0  2  0  0  0  0  0  0
  159.4320  212.6880  153.6620 C   0  0  0  0  0  3  0  0  0  0  0  0
  158.1240  210.9630  154.7420 C   0  0  0  0  0  3  0  0  0  0  0  0
  157.0250  211.8250  154.7850 C   0  0  0  0  0  3  0  0  0  0  0  0
  158.3330  213.5500  153.7050 C   0  0  0  0  0  3  0  0  0  0  0  0
  157.1270  213.1210  154.2690 C   0  0  0  0  0  0  0  0  0  0  0  0
  159.3340  211.3870  154.1810 C   0  0  0  0  0  0  0  0  0  0  0  0
  155.9510  214.0380  154.3210 C   0  0  0  0  0  2  0  0  0  0  0  0
  154.8280  213.5630  153.4060 C   0  0  0  0  0  2  0  0  0  0  0  0
  154.6980  214.4520  152.1780 C   0  0  0  0  0  2  0  0  0  0  0  0
  155.8080  214.2900  151.3490 O   0  0  0  0  0  1  0  0  0  0  0  0
  2  7  2  0  0  0  0
  3 14  1  0  0  0  0
  3  1  2  0  0  0  0
  4  5  2  0  0  0  0
  5  3  1  0  0  0  0
  6  5  1  0  0  0  0
  6  2  1  0  0  0  0
  7  1  1  0  0  0  0
  7 24  1  0  0  0  0
  9  8  1  0  0  0  0
 10 11  1  0  0  0  0
 11  8  2  0  0  0  0
 12  9  1  0  0  0  0
 13  1  1  6  0  0  0
 13 12  1  0  0  0  0
 13 10  1  0  0  0  0
 15 16  1  0  0  0  0
 16 14  1  0  0  0  0
 16 19  2  0  0  0  0
 17 15  2  0  0  0  0
 17 20  1  0  0  0  0
 18 19  1  0  0  0  0
 20 18  2  0  0  0  0
 21 22  2  0  0  0  0
 22 17  1  0  0  0  0
 23 22  1  0  0  0  0
 24 30  1  0  0  0  0
 25 28  2  0  0  0  0
 25 30  1  0  0  0  0
 26 27  1  0  0  0  0
 28 29  1  0  0  0  0
 29 31  1  0  0  0  0
 29 27  2  0  0  0  0
 30 26  2  0  0  0  0
 32 31  1  0  0  0  0
 33 32  1  0  0  0  0
 34 33  1  0  0  0  0
M  END
>  <MODEL>
6

>  <REMARK>
 VINA RESULT:      -7.1      2.089      8.526
  Name = 
  9 active torsions:
  status: ('A' for Active; 'I' for Inactive)
    1  A    between atoms: C_2  and  C_33
    2  A    between atoms: C_7  and  N_25
    3  A    between atoms: C_8  and  N_25
    4  A    between atoms: C_11  and  C_27
    5  A    between atoms: C_12  and  C_26
    6  A    between atoms: C_12  and  C_34
    7  A    between atoms: C_23  and  C_34
    8  A    between atoms: C_29  and  N_32
    9  A    between atoms: C_31  and  N_32
                            x       y       z     vdW  Elec       q    Type
                         _______ _______ _______ _____ _____    ______ ____

>  <TORSDO>
F 9

$$$$
=
 OpenBabel11042422253D

 34 37  0  0  1  0  0  0  0  0999 V2000
  161.6750  207.7390  150.9440 C   0  0  0  0  0  0  0  0  0  0  0  0
  161.1810  207.2420  148.6630 N   0  0  0  0  0  0  0  0  0  0  0  0
  162.1130  209.0130  150.5480 C   0  0  0  0  0  0  0  0  0  0  0  0
  162.3260  210.5270  148.8020 O   0  0  0  0  0  0  0  0  0  0  0  0
  162.0200  209.3690  149.1920 C   0  0  0  0  0  0  0  0  0  0  0  0
  161.5650  208.4620  148.2920 N   0  0  0  0  0  2  0  0  0  0  0  0
  161.2150  206.8420  149.9620 C   0  0  0  0  0  0  0  0  0  0  0  0
  160.8230  205.8750  154.6360 N   0  0  0  0  0  0  0  0  0  0  0  0
  161.2190  205.0920  153.4840 C   0  0  0  0  0  2  0  0  0  0  0  0
  160.4560  207.7450  153.1500 C   0  0  0  0  0  2  0  0  0  0  0  0
  160.4560  207.1040  154.5060 C   0  0  0  0  0  3  0  0  0  0  0  0
  162.1770  205.8890  152.5900 C   0  0  0  0  0  2  0  0  0  0  0  0
  161.7370  207.3560  152.3980 C   0  0  1  0  0  3  0  0  0  0  0  0
  162.5760  209.9440  151.5410 N   0  0  0  0  0  2  0  0  0  0  0  0
  160.6470  211.3300  152.0990 C   0  0  0  0  0  3  0  0  0  0  0  0
  161.7610  210.5990  152.5210 C   0  0  0  0  0  0  0  0  0  0  0  0
  159.8050  211.9510  153.0310 C   0  0  0  0  0  0  0  0  0  0  0  0
  161.1870  211.0850  154.8290 C   0  0  0  0  0  3  0  0  0  0  0  0
  162.0210  210.4680  153.8940 C   0  0  0  0  0  3  0  0  0  0  0  0
  160.0840  211.8270  154.4000 C   0  0  0  0  0  3  0  0  0  0  0  0
  158.0060  213.6130  153.4350 O   0  0  0  0  0  1  0  0  0  0  0  0
  158.6400  212.7250  152.5740 C   0  0  0  0  0  0  0  0  0  0  0  0
  158.2060  212.5920  151.3980 O   0  0  0  0  0  0  0  0  0  0  0  0
  160.7850  205.5220  150.3360 N   0  0  0  0  0  2  0  0  0  0  0  0
  160.6420  203.0520  150.1260 C   0  0  0  0  0  3  0  0  0  0  0  0
  161.2220  204.4120  148.2120 C   0  0  0  0  0  3  0  0  0  0  0  0
  161.3260  203.2610  147.4260 C   0  0  0  0  0  3  0  0  0  0  0  0
  160.7460  201.9010  149.3410 C   0  0  0  0  0  3  0  0  0  0  0  0
  161.0910  202.0030  147.9890 C   0  0  0  0  0  0  0  0  0  0  0  0
  160.8800  204.3170  149.5650 C   0  0  0  0  0  0  0  0  0  0  0  0
  161.2060  200.7770  147.1460 C   0  0  0  0  0  2  0  0  0  0  0  0
  160.6080  200.9900  145.7600 C   0  0  0  0  0  2  0  0  0  0  0  0
  160.4560  199.6740  145.0120 C   0  0  0  0  0  2  0  0  0  0  0  0
  161.2060  198.6770  145.6360 O   0  0  0  0  0  1  0  0  0  0  0  0
  2  7  2  0  0  0  0
  3  1  2  0  0  0  0
  3 14  1  0  0  0  0
  4  5  2  0  0  0  0
  5  3  1  0  0  0  0
  6  2  1  0  0  0  0
  6  5  1  0  0  0  0
  7 24  1  0  0  0  0
  7  1  1  0  0  0  0
  9  8  1  0  0  0  0
 10 11  1  0  0  0  0
 11  8  2  0  0  0  0
 12  9  1  0  0  0  0
 13  1  1  6  0  0  0
 13 12  1  0  0  0  0
 13 10  1  0  0  0  0
 14 16  1  0  0  0  0
 15 16  2  0  0  0  0
 15 17  1  0  0  0  0
 16 19  1  0  0  0  0
 17 20  2  0  0  0  0
 19 18  2  0  0  0  0
 20 18  1  0  0  0  0
 22 17  1  0  0  0  0
 22 21  1  0  0  0  0
 23 22  2  0  0  0  0
 26 30  2  0  0  0  0
 27 29  2  0  0  0  0
 27 26  1  0  0  0  0
 28 25  2  0  0  0  0
 29 28  1  0  0  0  0
 30 25  1  0  0  0  0
 30 24  1  0  0  0  0
 31 29  1  0  0  0  0
 32 31  1  0  0  0  0
 33 34  1  0  0  0  0
 33 32  1  0  0  0  0
M  END
>  <MODEL>
7

>  <REMARK>
 VINA RESULT:      -7.0      2.547      4.055
  Name = 
  9 active torsions:
  status: ('A' for Active; 'I' for Inactive)
    1  A    between atoms: C_2  and  C_33
    2  A    between atoms: C_7  and  N_25
    3  A    between atoms: C_8  and  N_25
    4  A    between atoms: C_11  and  C_27
    5  A    between atoms: C_12  and  C_26
    6  A    between atoms: C_12  and  C_34
    7  A    between atoms: C_23  and  C_34
    8  A    between atoms: C_29  and  N_32
    9  A    between atoms: C_31  and  N_32
                            x       y       z     vdW  Elec       q    Type
                         _______ _______ _______ _____ _____    ______ ____

>  <TORSDO>
F 9

$$$$
=
 OpenBabel11042422253D

 34 37  0  0  1  0  0  0  0  0999 V2000
  161.2960  208.7410  152.4320 C   0  0  0  0  0  0  0  0  0  0  0  0
  162.1410  207.8400  150.3910 N   0  0  0  0  0  0  0  0  0  0  0  0
  161.4890  210.0330  151.9170 C   0  0  0  0  0  0  0  0  0  0  0  0
  162.0870  211.3070  150.0720 O   0  0  0  0  0  0  0  0  0  0  0  0
  161.9720  210.1710  150.6050 C   0  0  0  0  0  0  0  0  0  0  0  0
  162.2920  209.0650  149.8890 N   0  0  0  0  0  2  0  0  0  0  0  0
  161.6490  207.6320  151.6410 C   0  0  0  0  0  0  0  0  0  0  0  0
  161.0140  207.8430  156.5490 N   0  0  0  0  0  0  0  0  0  0  0  0
  161.9600  208.8290  156.0690 C   0  0  0  0  0  2  0  0  0  0  0  0
  160.7300  207.1060  154.2650 C   0  0  0  0  0  2  0  0  0  0  0  0
  160.4390  207.0270  155.7350 C   0  0  0  0  0  3  0  0  0  0  0  0
  161.4130  209.5430  154.8250 C   0  0  0  0  0  2  0  0  0  0  0  0
  160.7470  208.5760  153.8240 C   0  0  1  0  0  3  0  0  0  0  0  0
  161.1230  211.1740  152.7100 N   0  0  0  0  0  2  0  0  0  0  0  0
  159.5090  212.4180  151.3670 C   0  0  0  0  0  3  0  0  0  0  0  0
  159.8960  211.9070  152.6100 C   0  0  0  0  0  0  0  0  0  0  0  0
  158.2960  213.1050  151.2240 C   0  0  0  0  0  0  0  0  0  0  0  0
  157.8350  212.7470  153.5800 C   0  0  0  0  0  3  0  0  0  0  0  0
  159.0460  212.0630  153.7150 C   0  0  0  0  0  3  0  0  0  0  0  0
  157.4620  213.2690  152.3390 C   0  0  0  0  0  3  0  0  0  0  0  0
  156.6180  213.4470  149.4280 O   0  0  0  0  0  1  0  0  0  0  0  0
  157.9050  213.6470  149.9130 C   0  0  0  0  0  0  0  0  0  0  0  0
  158.7310  214.2960  149.2170 O   0  0  0  0  0  0  0  0  0  0  0  0
  161.4860  206.2990  152.1530 N   0  0  0  0  0  2  0  0  0  0  0  0
  161.0830  205.1010  150.0160 C   0  0  0  0  0  3  0  0  0  0  0  0
  161.0850  203.8960  152.1130 C   0  0  0  0  0  3  0  0  0  0  0  0
  160.8230  202.7060  151.4290 C   0  0  0  0  0  3  0  0  0  0  0  0
  160.8200  203.9120  149.3310 C   0  0  0  0  0  3  0  0  0  0  0  0
  160.6880  202.7110  150.0370 C   0  0  0  0  0  0  0  0  0  0  0  0
  161.2170  205.1010  151.4130 C   0  0  0  0  0  0  0  0  0  0  0  0
  160.4050  201.4380  149.3120 C   0  0  0  0  0  2  0  0  0  0  0  0
  161.4210  201.1830  148.2050 C   0  0  0  0  0  2  0  0  0  0  0  0
  160.7750  201.2500  146.8300 C   0  0  0  0  0  2  0  0  0  0  0  0
  161.2020  202.3930  146.1540 O   0  0  0  0  0  1  0  0  0  0  0  0
  2  7  2  0  0  0  0
  3  1  2  0  0  0  0
  3 14  1  0  0  0  0
  4  5  2  0  0  0  0
  5  3  1  0  0  0  0
  6  2  1  0  0  0  0
  6  5  1  0  0  0  0
  7 24  1  0  0  0  0
  7  1  1  0  0  0  0
  9  8  1  0  0  0  0
 10 11  1  0  0  0  0
 11  8  2  0  0  0  0
 12  9  1  0  0  0  0
 13  1  1  6  0  0  0
 13 10  1  0  0  0  0
 13 12  1  0  0  0  0
 15 16  1  0  0  0  0
 16 14  1  0  0  0  0
 16 19  2  0  0  0  0
 17 15  2  0  0  0  0
 17 20  1  0  0  0  0
 18 19  1  0  0  0  0
 20 18  2  0  0  0  0
 21 22  1  0  0  0  0
 22 17  1  0  0  0  0
 23 22  2  0  0  0  0
 25 30  1  0  0  0  0
 27 26  1  0  0  0  0
 28 25  2  0  0  0  0
 28 29  1  0  0  0  0
 29 27  2  0  0  0  0
 30 26  2  0  0  0  0
 30 24  1  0  0  0  0
 31 29  1  0  0  0  0
 32 31  1  0  0  0  0
 33 32  1  0  0  0  0
 34 33  1  0  0  0  0
M  END
>  <MODEL>
8

>  <REMARK>
 VINA RESULT:      -6.9      2.430      3.064
  Name = 
  9 active torsions:
  status: ('A' for Active; 'I' for Inactive)
    1  A    between atoms: C_2  and  C_33
    2  A    between atoms: C_7  and  N_25
    3  A    between atoms: C_8  and  N_25
    4  A    between atoms: C_11  and  C_27
    5  A    between atoms: C_12  and  C_26
    6  A    between atoms: C_12  and  C_34
    7  A    between atoms: C_23  and  C_34
    8  A    between atoms: C_29  and  N_32
    9  A    between atoms: C_31  and  N_32
                            x       y       z     vdW  Elec       q    Type
                         _______ _______ _______ _____ _____    ______ ____

>  <TORSDO>
F 9

$$$$
=
 OpenBabel11042422253D

 34 37  0  0  1  0  0  0  0  0999 V2000
  161.1990  207.8040  152.1230 C   0  0  0  0  0  0  0  0  0  0  0  0
  161.2260  205.5440  152.8870 N   0  0  0  0  0  0  0  0  0  0  0  0
  161.1920  208.2330  153.4600 C   0  0  0  0  0  0  0  0  0  0  0  0
  161.3240  207.6060  155.6910 O   0  0  0  0  0  0  0  0  0  0  0  0
  161.2490  207.2680  154.4790 C   0  0  0  0  0  0  0  0  0  0  0  0
  161.2540  205.9510  154.1550 N   0  0  0  0  0  2  0  0  0  0  0  0
  161.2030  206.4230  151.8500 C   0  0  0  0  0  0  0  0  0  0  0  0
  162.3310  210.1180  148.7770 N   0  0  0  0  0  0  0  0  0  0  0  0
  162.1910  208.6800  148.6710 C   0  0  0  0  0  2  0  0  0  0  0  0
  162.2840  209.8750  151.1810 C   0  0  0  0  0  2  0  0  0  0  0  0
  162.3860  210.6940  149.9280 C   0  0  0  0  0  3  0  0  0  0  0  0
  161.1030  208.1700  149.6250 C   0  0  0  0  0  2  0  0  0  0  0  0
  161.1730  208.8270  151.0200 C   0  0  1  0  0  3  0  0  0  0  0  0
  161.1990  209.6400  153.7530 N   0  0  0  0  0  2  0  0  0  0  0  0
  159.5910  211.3410  153.0640 C   0  0  0  0  0  3  0  0  0  0  0  0
  160.0470  210.4440  154.0350 C   0  0  0  0  0  0  0  0  0  0  0  0
  158.4450  212.1150  153.2890 C   0  0  0  0  0  0  0  0  0  0  0  0
  158.1880  211.0700  155.4650 C   0  0  0  0  0  3  0  0  0  0  0  0
  159.3320  210.3010  155.2340 C   0  0  0  0  0  3  0  0  0  0  0  0
  157.7470  211.9750  154.4980 C   0  0  0  0  0  3  0  0  0  0  0  0
  158.5470  213.0540  150.9940 O   0  0  0  0  0  0  0  0  0  0  0  0
  157.9810  213.0620  152.2640 C   0  0  0  0  0  0  0  0  0  0  0  0
  157.0670  213.8900  152.5250 O   0  0  0  0  0  1  0  0  0  0  0  0
  161.1850  205.9560  150.4910 N   0  0  0  0  0  2  0  0  0  0  0  0
  160.8950  203.5250  150.9050 C   0  0  0  0  0  3  0  0  0  0  0  0
  161.2680  204.3490  148.6620 C   0  0  0  0  0  3  0  0  0  0  0  0
  161.2060  203.0420  148.1710 C   0  0  0  0  0  3  0  0  0  0  0  0
  160.8330  202.2170  150.4160 C   0  0  0  0  0  3  0  0  0  0  0  0
  160.9910  201.9730  149.0470 C   0  0  0  0  0  0  0  0  0  0  0  0
  161.1140  204.6000  150.0300 C   0  0  0  0  0  0  0  0  0  0  0  0
  160.9280  200.5790  148.5180 C   0  0  0  0  0  2  0  0  0  0  0  0
  161.3220  200.5180  147.0470 C   0  0  0  0  0  2  0  0  0  0  0  0
  161.5810  199.0880  146.5990 C   0  0  0  0  0  2  0  0  0  0  0  0
  161.0680  198.8850  145.3180 O   0  0  0  0  0  1  0  0  0  0  0  0
  1  3  2  0  0  0  0
  2  6  1  0  0  0  0
  3 14  1  0  0  0  0
  3  5  1  0  0  0  0
  5  4  2  0  0  0  0
  6  5  1  0  0  0  0
  7  1  1  0  0  0  0
  7  2  2  0  0  0  0
  8 11  2  0  0  0  0
  9  8  1  0  0  0  0
  9 12  1  0  0  0  0
 11 10  1  0  0  0  0
 12 13  1  0  0  0  0
 13 10  1  0  0  0  0
 13  1  1  1  0  0  0
 14 16  1  0  0  0  0
 15 17  2  0  0  0  0
 15 16  1  0  0  0  0
 16 19  2  0  0  0  0
 17 20  1  0  0  0  0
 19 18  1  0  0  0  0
 20 18  2  0  0  0  0
 21 22  2  0  0  0  0
 22 23  1  0  0  0  0
 22 17  1  0  0  0  0
 24  7  1  0  0  0  0
 26 30  1  0  0  0  0
 27 26  2  0  0  0  0
 27 29  1  0  0  0  0
 28 25  1  0  0  0  0
 29 28  2  0  0  0  0
 30 24  1  0  0  0  0
 30 25  2  0  0  0  0
 31 29  1  0  0  0  0
 32 31  1  0  0  0  0
 33 32  1  0  0  0  0
 34 33  1  0  0  0  0
M  END
>  <MODEL>
9

>  <REMARK>
 VINA RESULT:      -6.7      2.289      4.533
  Name = 
  9 active torsions:
  status: ('A' for Active; 'I' for Inactive)
    1  A    between atoms: C_2  and  C_33
    2  A    between atoms: C_7  and  N_25
    3  A    between atoms: C_8  and  N_25
    4  A    between atoms: C_11  and  C_27
    5  A    between atoms: C_12  and  C_26
    6  A    between atoms: C_12  and  C_34
    7  A    between atoms: C_23  and  C_34
    8  A    between atoms: C_29  and  N_32
    9  A    between atoms: C_31  and  N_32
                            x       y       z     vdW  Elec       q    Type
                         _______ _______ _______ _____ _____    ______ ____

>  <TORSDO>
F 9

$$$$
