=
 OpenBabel11052412053D

 50 53  0  0  1  0  0  0  0  0999 V2000
  160.7530  209.9450  151.7600 C   0  0  1  0  0  3  0  0  0  0  0  0
  163.1470  210.1420  151.5290 O   0  0  0  0  0  1  0  0  0  0  0  0
  161.8720  210.1380  150.9530 C   0  0  1  0  0  0  0  0  0  0  0  0
  161.2800  208.7720  150.9710 N   0  0  0  0  0  0  0  0  0  0  0  0
  161.3420  205.0430  150.7950 C   0  0  0  0  0  3  0  0  0  0  0  0
  160.6480  207.2240  149.1930 C   0  0  0  0  0  3  0  0  0  0  0  0
  161.2100  207.4470  150.4540 C   0  0  0  0  0  0  0  0  0  0  0  0
  160.7990  204.8230  149.5170 C   0  0  0  0  0  0  0  0  0  0  0  0
  160.4570  205.9210  148.7220 C   0  0  0  0  0  3  0  0  0  0  0  0
  161.5670  206.3530  151.2660 C   0  0  0  0  0  0  0  0  0  0  0  0
  162.0040  206.5950  152.6120 N   0  0  0  0  0  0  0  0  0  0  0  0
  160.7180  206.0090  154.6870 O   0  0  0  0  0  0  0  0  0  0  0  0
  161.3420  206.2920  153.6590 C   0  0  0  0  0  0  0  0  0  0  0  0
  160.5340  203.5270  149.0610 O   0  0  0  0  0  0  0  0  0  0  0  0
  161.5800  202.5810  148.8900 C   0  0  0  0  0  2  0  0  0  0  0  0
  161.5950  199.2420  147.1130 O   0  0  0  0  0  0  0  0  0  0  0  0
  161.3110  201.7400  147.7370 N   0  0  0  0  0  0  0  0  0  0  0  0
  160.8290  201.6180  146.4210 N   0  0  0  0  0  0  0  0  0  0  0  0
  161.3390  200.4780  147.0930 C   0  0  0  0  0  0  0  0  0  0  0  0
  160.1560  202.2150  145.3150 C   0  0  0  0  0  3  0  0  0  0  0  0
  160.5780  203.3850  144.8240 C   0  0  0  0  0  3  0  0  0  0  0  0
  161.6370  204.1820  145.5390 C   0  0  0  0  0  2  0  0  0  0  0  0
  161.5770  205.6650  145.1550 C   0  0  0  0  0  3  0  0  0  0  0  0
  160.2480  206.0900  145.1430 O   0  0  0  0  0  1  0  0  0  0  0  0
  162.3180  206.4540  146.0480 O   0  0  0  0  0  1  0  0  0  0  0  0
  161.1040  209.8140  153.2440 C   0  0  2  0  0  3  0  0  0  0  0  0
  160.1200  209.1210  153.9430 O   0  0  0  0  0  1  0  0  0  0  0  0
  161.3000  211.1890  153.8700 C   0  0  0  0  0  2  0  0  0  0  0  0
  160.5030  211.3750  155.1690 C   0  0  1  0  0  3  0  0  0  0  0  0
  161.3750  211.3170  156.3390 N   0  0  0  0  0  1  0  0  0  0  0  0
  159.6230  213.2590  156.4110 O   0  0  0  0  0  1  0  0  0  0  0  0
  159.6720  212.6620  155.1470 C   0  0  2  0  0  3  0  0  0  0  0  0
  158.2540  212.4150  154.6150 C   0  0  2  0  0  3  0  0  0  0  0  0
  158.9480  213.6870  152.7230 O   0  0  0  0  0  0  0  0  0  0  0  0
  156.6970  213.6920  153.1280 O   0  0  0  0  0  1  0  0  0  0  0  0
  157.9890  213.2920  153.4350 C   0  0  0  0  0  0  0  0  0  0  0  0
  156.6270  211.4410  155.7900 C   0  0  0  0  0  1  0  0  0  0  0  0
  157.3000  212.6580  155.6170 O   0  0  0  0  0  0  0  0  0  0  0  0
  161.7340  210.8450  149.6020 C   0  0  0  0  0  2  0  0  0  0  0  0
  161.0350  212.5380  149.7000 S   0  0  0  0  0  0  0  0  0  0  0  0
  161.8190  213.0700  145.7110 C   0  0  0  0  0  0  0  0  0  0  0  0
  158.4030  212.3090  145.4020 O   0  0  0  0  0  0  0  0  0  0  0  0
  160.5980  212.8260  145.1680 N   0  0  0  0  0  0  0  0  0  0  0  0
  162.9170  213.3860  144.8570 N   0  0  0  0  0  1  0  0  0  0  0  0
  161.9980  213.0060  147.1040 C   0  0  2  0  0  3  0  0  0  0  0  0
  160.8960  212.6720  147.9140 C   0  0  0  0  0  0  0  0  0  0  0  0
  159.6570  212.4200  147.3250 C   0  0  0  0  0  3  0  0  0  0  0  0
  159.5210  212.5090  145.9380 C   0  0  0  0  0  0  0  0  0  0  0  0
  164.1460  212.2020  147.8360 N   0  0  0  0  0  1  0  0  0  0  0  0
  163.3140  213.3870  147.7180 C   0  0  0  0  0  2  0  0  0  0  0  0
  1 26  1  1  0  0  0
  3  4  1  0  0  0  0
  3  2  1  1  0  0  0
  3  1  1  0  0  0  0
  4  1  1  0  0  0  0
  5 10  1  0  0  0  0
  6  7  1  0  0  0  0
  7  4  1  0  0  0  0
  7 10  2  0  0  0  0
  8  5  2  0  0  0  0
  9  6  2  0  0  0  0
  9  8  1  0  0  0  0
 10 11  1  0  0  0  0
 11 13  2  0  0  0  0
 13 12  2  0  0  0  0
 14  8  1  0  0  0  0
 15 14  1  0  0  0  0
 17 15  1  0  0  0  0
 18 19  1  0  0  0  0
 18 17  1  0  0  0  0
 19 16  2  0  0  0  0
 19 17  1  0  0  0  0
 20 18  1  0  0  0  0
 21 20  2  0  0  0  0
 21 22  1  0  0  0  0
 23 22  1  0  0  0  0
 23 25  1  0  0  0  0
 24 23  1  0  0  0  0
 26 28  1  0  0  0  0
 26 27  1  1  0  0  0
 28 29  1  0  0  0  0
 29 30  1  1  0  0  0
 32 29  1  0  0  0  0
 32 31  1  1  0  0  0
 33 36  1  6  0  0  0
 33 32  1  0  0  0  0
 33 38  1  0  0  0  0
 34 36  2  0  0  0  0
 35 36  1  0  0  0  0
 38 37  1  0  0  0  0
 39 40  1  0  0  0  0
 39  3  1  0  0  0  0
 41 45  1  0  0  0  0
 42 48  2  0  0  0  0
 43 41  2  0  0  0  0
 43 48  1  0  0  0  0
 44 41  1  0  0  0  0
 45 50  1  1  0  0  0
 45 46  1  0  0  0  0
 46 40  1  0  0  0  0
 47 46  2  0  0  0  0
 48 47  1  0  0  0  0
 50 49  1  0  0  0  0
M  END
>  <MODEL>
1

>  <REMARK>
 VINA RESULT:      -5.9      0.000      0.000
  Name = 
  19 active torsions:
  status: ('A' for Active; 'I' for Inactive)
    1  A    between atoms: C_1  and  C_2
    2  A    between atoms: C_1  and  C_14
    3  A    between atoms: C_2  and  C_31
    4  A    between atoms: C_3  and  C_22
    5  A    between atoms: S_4  and  C_36
    6  A    between atoms: S_4  and  C_40
    7  A    between atoms: C_5  and  C_14
    8  A    between atoms: O_6  and  C_15
    9  A    between atoms: O_6  and  C_34
   10  A    between atoms: N_7  and  C_50
   11  A    between atoms: C_15  and  N_42
   12  A    between atoms: C_16  and  C_31
   13  A    between atoms: C_16  and  O_32
   14  A    between atoms: C_16  and  C_41
   15  A    between atoms: C_22  and  C_37
   16  A    between atoms: C_25  and  C_33
   17  A    between atoms: C_28  and  N_49
   18  A    between atoms: C_29  and  N_43
   19  A    between atoms: C_40  and  C_48
                            x       y       z     vdW  Elec       q    Type
                         _______ _______ _______ _____ _____    ______ ____

>  <TORSDO>
F 19

$$$$
=
 OpenBabel11052412053D

 50 53  0  0  1  0  0  0  0  0999 V2000
  159.8400  210.3650  152.9090 C   0  0  1  0  0  3  0  0  0  0  0  0
  162.1490  211.0620  153.0000 O   0  0  0  0  0  1  0  0  0  0  0  0
  161.0100  210.7420  152.2530 C   0  0  1  0  0  0  0  0  0  0  0  0
  160.7150  209.2840  152.3240 N   0  0  0  0  0  0  0  0  0  0  0  0
  161.4200  205.6240  152.5330 C   0  0  0  0  0  3  0  0  0  0  0  0
  160.8460  207.5590  150.6020 C   0  0  0  0  0  3  0  0  0  0  0  0
  161.0010  207.9440  151.9380 C   0  0  0  0  0  0  0  0  0  0  0  0
  161.2860  205.2450  151.1860 C   0  0  0  0  0  0  0  0  0  0  0  0
  161.0010  206.2220  150.2260 C   0  0  0  0  0  3  0  0  0  0  0  0
  161.2960  206.9750  152.9160 C   0  0  0  0  0  0  0  0  0  0  0  0
  161.3060  207.3600  154.3000 N   0  0  0  0  0  0  0  0  0  0  0  0
  159.6630  206.5940  156.0370 O   0  0  0  0  0  0  0  0  0  0  0  0
  160.4660  206.9630  155.1740 C   0  0  0  0  0  0  0  0  0  0  0  0
  161.3660  203.9010  150.8050 O   0  0  0  0  0  0  0  0  0  0  0  0
  160.2690  203.2490  150.1800 C   0  0  0  0  0  2  0  0  0  0  0  0
  161.8460  200.0380  148.9520 O   0  0  0  0  0  0  0  0  0  0  0  0
  160.7430  202.3760  149.1210 N   0  0  0  0  0  0  0  0  0  0  0  0
  160.9370  202.1440  147.7470 N   0  0  0  0  0  0  0  0  0  0  0  0
  161.3460  201.1670  148.6910 C   0  0  0  0  0  0  0  0  0  0  0  0
  160.7060  202.5570  146.4020 C   0  0  0  0  0  3  0  0  0  0  0  0
  161.4160  203.5610  145.8770 C   0  0  0  0  0  3  0  0  0  0  0  0
  162.3260  204.3940  146.7410 C   0  0  0  0  0  2  0  0  0  0  0  0
  162.5500  205.7860  146.1390 C   0  0  0  0  0  3  0  0  0  0  0  0
  161.7730  205.9270  144.9880 O   0  0  0  0  0  1  0  0  0  0  0  0
  162.2240  206.7970  147.0560 O   0  0  0  0  0  1  0  0  0  0  0  0
  159.9700  210.4150  154.4340 C   0  0  2  0  0  3  0  0  0  0  0  0
  158.9010  209.7790  155.0580 O   0  0  0  0  0  1  0  0  0  0  0  0
  160.0560  211.8570  154.9160 C   0  0  0  0  0  2  0  0  0  0  0  0
  159.0640  212.1720  156.0450 C   0  0  1  0  0  3  0  0  0  0  0  0
  159.7590  212.5860  157.2610 N   0  0  0  0  0  1  0  0  0  0  0  0
  157.5460  213.9400  156.7050 O   0  0  0  0  0  1  0  0  0  0  0  0
  158.0180  213.2040  155.6120 C   0  0  2  0  0  3  0  0  0  0  0  0
  156.8510  212.5520  154.8590 C   0  0  2  0  0  3  0  0  0  0  0  0
  157.4530  213.7100  152.8650 O   0  0  0  0  0  0  0  0  0  0  0  0
  155.2170  213.6900  153.3430 O   0  0  0  0  0  1  0  0  0  0  0  0
  156.5270  213.3420  153.6330 C   0  0  0  0  0  0  0  0  0  0  0  0
  155.6410  211.1140  156.0580 C   0  0  0  0  0  1  0  0  0  0  0  0
  155.7190  212.4620  155.6850 O   0  0  0  0  0  0  0  0  0  0  0  0
  160.9470  211.3080  150.8320 C   0  0  0  0  0  2  0  0  0  0  0  0
  160.1890  212.9750  150.7130 S   0  0  0  0  0  0  0  0  0  0  0  0
  159.8700  213.4840  146.6580 C   0  0  0  0  0  0  0  0  0  0  0  0
  163.3180  212.8130  146.7580 O   0  0  0  0  0  0  0  0  0  0  0  0
  161.1560  213.2920  146.2650 N   0  0  0  0  0  0  0  0  0  0  0  0
  158.8780  213.7950  145.6800 N   0  0  0  0  0  1  0  0  0  0  0  0
  159.5220  213.3830  148.0160 C   0  0  2  0  0  3  0  0  0  0  0  0
  160.5330  213.0950  148.9540 C   0  0  0  0  0  0  0  0  0  0  0  0
  161.8450  212.9090  148.5210 C   0  0  0  0  0  3  0  0  0  0  0  0
  162.1420  213.0040  147.1600 C   0  0  0  0  0  0  0  0  0  0  0  0
  157.2900  212.5670  147.6380 N   0  0  0  0  0  1  0  0  0  0  0  0
  158.0860  213.4800  148.4410 C   0  0  0  0  0  2  0  0  0  0  0  0
  1 26  1  1  0  0  0
  3  4  1  0  0  0  0
  3  1  1  0  0  0  0
  3  2  1  1  0  0  0
  4  1  1  0  0  0  0
  5 10  1  0  0  0  0
  6  7  1  0  0  0  0
  7  4  1  0  0  0  0
  7 10  2  0  0  0  0
  8  5  2  0  0  0  0
  9  6  2  0  0  0  0
  9  8  1  0  0  0  0
 10 11  1  0  0  0  0
 11 13  2  0  0  0  0
 13 12  2  0  0  0  0
 14  8  1  0  0  0  0
 15 14  1  0  0  0  0
 17 15  1  0  0  0  0
 18 19  1  0  0  0  0
 18 17  1  0  0  0  0
 19 16  2  0  0  0  0
 19 17  1  0  0  0  0
 20 18  1  0  0  0  0
 21 20  2  0  0  0  0
 21 22  1  0  0  0  0
 23 22  1  0  0  0  0
 23 25  1  0  0  0  0
 24 23  1  0  0  0  0
 26 28  1  0  0  0  0
 26 27  1  1  0  0  0
 28 29  1  0  0  0  0
 29 30  1  1  0  0  0
 32 29  1  0  0  0  0
 32 31  1  1  0  0  0
 33 36  1  6  0  0  0
 33 32  1  0  0  0  0
 33 38  1  0  0  0  0
 34 36  2  0  0  0  0
 35 36  1  0  0  0  0
 38 37  1  0  0  0  0
 39  3  1  0  0  0  0
 40 39  1  0  0  0  0
 41 45  1  0  0  0  0
 42 48  2  0  0  0  0
 43 41  2  0  0  0  0
 43 48  1  0  0  0  0
 44 41  1  0  0  0  0
 45 50  1  6  0  0  0
 45 46  1  0  0  0  0
 46 40  1  0  0  0  0
 47 46  2  0  0  0  0
 48 47  1  0  0  0  0
 49 50  1  0  0  0  0
M  END
>  <MODEL>
2

>  <REMARK>
 VINA RESULT:      -5.5      1.694      2.284
  Name = 
  19 active torsions:
  status: ('A' for Active; 'I' for Inactive)
    1  A    between atoms: C_1  and  C_2
    2  A    between atoms: C_1  and  C_14
    3  A    between atoms: C_2  and  C_31
    4  A    between atoms: C_3  and  C_22
    5  A    between atoms: S_4  and  C_36
    6  A    between atoms: S_4  and  C_40
    7  A    between atoms: C_5  and  C_14
    8  A    between atoms: O_6  and  C_15
    9  A    between atoms: O_6  and  C_34
   10  A    between atoms: N_7  and  C_50
   11  A    between atoms: C_15  and  N_42
   12  A    between atoms: C_16  and  C_31
   13  A    between atoms: C_16  and  O_32
   14  A    between atoms: C_16  and  C_41
   15  A    between atoms: C_22  and  C_37
   16  A    between atoms: C_25  and  C_33
   17  A    between atoms: C_28  and  N_49
   18  A    between atoms: C_29  and  N_43
   19  A    between atoms: C_40  and  C_48
                            x       y       z     vdW  Elec       q    Type
                         _______ _______ _______ _____ _____    ______ ____

>  <TORSDO>
F 19

$$$$
=
 OpenBabel11052412053D

 50 53  0  0  1  0  0  0  0  0999 V2000
  161.3250  208.6010  149.1030 C   0  0  1  0  0  3  0  0  0  0  0  0
  163.4690  207.5020  149.2460 O   0  0  0  0  0  1  0  0  0  0  0  0
  162.0740  207.4290  149.1780 C   0  0  1  0  0  0  0  0  0  0  0  0
  161.4490  207.9130  150.4400 N   0  0  0  0  0  0  0  0  0  0  0  0
  161.0890  206.3080  153.7920 C   0  0  0  0  0  3  0  0  0  0  0  0
  160.7570  208.8130  152.6010 C   0  0  0  0  0  3  0  0  0  0  0  0
  161.1120  207.7160  151.8090 C   0  0  0  0  0  0  0  0  0  0  0  0
  160.7100  207.4090  154.5800 C   0  0  0  0  0  0  0  0  0  0  0  0
  160.5440  208.6580  153.9740 C   0  0  0  0  0  3  0  0  0  0  0  0
  161.2750  206.4490  152.4010 C   0  0  0  0  0  0  0  0  0  0  0  0
  161.7810  205.3660  151.6050 N   0  0  0  0  0  0  0  0  0  0  0  0
  161.1180  202.9550  151.8360 O   0  0  0  0  0  0  0  0  0  0  0  0
  161.4360  204.1440  151.7310 C   0  0  0  0  0  0  0  0  0  0  0  0
  160.5640  207.2860  155.9660 O   0  0  0  0  0  0  0  0  0  0  0  0
  161.5030  207.8710  156.8570 C   0  0  0  0  0  2  0  0  0  0  0  0
  162.7210  211.4520  156.8010 O   0  0  0  0  0  0  0  0  0  0  0  0
  161.2800  209.3030  156.9500 N   0  0  0  0  0  0  0  0  0  0  0  0
  160.3880  210.3740  157.1360 N   0  0  0  0  0  0  0  0  0  0  0  0
  161.7680  210.6340  156.9340 C   0  0  0  0  0  0  0  0  0  0  0  0
  159.0410  210.8240  157.2590 C   0  0  0  0  0  3  0  0  0  0  0  0
  158.3330  211.1290  156.1670 C   0  0  0  0  0  3  0  0  0  0  0  0
  158.9940  211.1900  154.8140 C   0  0  0  0  0  2  0  0  0  0  0  0
  158.2660  212.1630  153.8790 C   0  0  0  0  0  3  0  0  0  0  0  0
  158.6860  213.4670  154.1420 O   0  0  0  0  0  1  0  0  0  0  0  0
  158.5050  211.8520  152.5320 O   0  0  0  0  0  1  0  0  0  0  0  0
  162.1960  209.8600  149.0480 C   0  0  2  0  0  3  0  0  0  0  0  0
  161.9610  210.6910  150.1400 O   0  0  0  0  0  1  0  0  0  0  0  0
  161.9410  210.6300  147.7590 C   0  0  0  0  0  2  0  0  0  0  0  0
  162.0450  212.1510  147.9380 C   0  0  1  0  0  3  0  0  0  0  0  0
  163.4380  212.5860  147.9820 N   0  0  0  0  0  1  0  0  0  0  0  0
  162.0640  213.8060  146.1690 O   0  0  0  0  0  1  0  0  0  0  0  0
  161.2500  212.9060  146.8680 C   0  0  2  0  0  3  0  0  0  0  0  0
  160.0360  213.6310  147.4640 C   0  0  2  0  0  3  0  0  0  0  0  0
  159.3340  213.1950  149.6990 O   0  0  0  0  0  1  0  0  0  0  0  0
  161.2340  214.4520  149.5030 O   0  0  0  0  0  0  0  0  0  0  0  0
  160.1830  213.7400  148.9470 C   0  0  0  0  0  0  0  0  0  0  0  0
  158.6880  213.1110  145.7660 C   0  0  0  0  0  1  0  0  0  0  0  0
  158.8490  212.9490  147.1480 O   0  0  0  0  0  0  0  0  0  0  0  0
  161.4860  206.1070  148.6750 C   0  0  0  0  0  2  0  0  0  0  0  0
  161.4930  205.9200  146.8510 S   0  0  0  0  0  0  0  0  0  0  0  0
  160.5900  202.0170  145.9810 C   0  0  0  0  0  0  0  0  0  0  0  0
  161.3930  201.5500  149.3700 O   0  0  0  0  0  0  0  0  0  0  0  0
  160.8110  201.4210  147.1830 N   0  0  0  0  0  0  0  0  0  0  0  0
  160.1750  201.2230  144.8710 N   0  0  0  0  0  1  0  0  0  0  0  0
  160.7740  203.4030  145.8350 C   0  0  2  0  0  3  0  0  0  0  0  0
  161.2030  204.1500  146.9490 C   0  0  0  0  0  0  0  0  0  0  0  0
  161.4280  203.5090  148.1670 C   0  0  0  0  0  3  0  0  0  0  0  0
  161.2180  202.1320  148.2700 C   0  0  0  0  0  0  0  0  0  0  0  0
  161.5090  204.9640  144.1580 N   0  0  0  0  0  1  0  0  0  0  0  0
  160.4210  204.0830  144.5450 C   0  0  0  0  0  2  0  0  0  0  0  0
  1 26  1  1  0  0  0
  1  3  1  0  0  0  0
  1  4  1  0  0  0  0
  3  2  1  6  0  0  0
  3  4  1  0  0  0  0
  4  7  1  0  0  0  0
  5  8  1  0  0  0  0
  6  9  1  0  0  0  0
  7 10  1  0  0  0  0
  7  6  2  0  0  0  0
  8 14  1  0  0  0  0
  9  8  2  0  0  0  0
 10  5  2  0  0  0  0
 11 13  2  0  0  0  0
 11 10  1  0  0  0  0
 13 12  2  0  0  0  0
 14 15  1  0  0  0  0
 15 17  1  0  0  0  0
 16 19  2  0  0  0  0
 17 18  1  0  0  0  0
 18 20  1  0  0  0  0
 19 17  1  0  0  0  0
 19 18  1  0  0  0  0
 21 20  2  0  0  0  0
 22 21  1  0  0  0  0
 23 24  1  0  0  0  0
 23 22  1  0  0  0  0
 25 23  1  0  0  0  0
 26 27  1  1  0  0  0
 28 29  1  0  0  0  0
 28 26  1  0  0  0  0
 29 30  1  6  0  0  0
 32 31  1  1  0  0  0
 32 33  1  0  0  0  0
 32 29  1  0  0  0  0
 33 38  1  1  0  0  0
 33 36  1  0  0  0  0
 36 35  2  0  0  0  0
 36 34  1  0  0  0  0
 37 38  1  0  0  0  0
 39  3  1  0  0  0  0
 40 46  1  0  0  0  0
 40 39  1  0  0  0  0
 41 43  2  0  0  0  0
 43 48  1  0  0  0  0
 44 41  1  0  0  0  0
 45 50  1  1  0  0  0
 45 41  1  0  0  0  0
 45 46  1  0  0  0  0
 46 47  2  0  0  0  0
 47 48  1  0  0  0  0
 48 42  2  0  0  0  0
 49 50  1  0  0  0  0
M  END
>  <MODEL>
3

>  <REMARK>
 VINA RESULT:      -5.4      2.223      8.795
  Name = 
  19 active torsions:
  status: ('A' for Active; 'I' for Inactive)
    1  A    between atoms: C_1  and  C_2
    2  A    between atoms: C_1  and  C_14
    3  A    between atoms: C_2  and  C_31
    4  A    between atoms: C_3  and  C_22
    5  A    between atoms: S_4  and  C_36
    6  A    between atoms: S_4  and  C_40
    7  A    between atoms: C_5  and  C_14
    8  A    between atoms: O_6  and  C_15
    9  A    between atoms: O_6  and  C_34
   10  A    between atoms: N_7  and  C_50
   11  A    between atoms: C_15  and  N_42
   12  A    between atoms: C_16  and  C_31
   13  A    between atoms: C_16  and  O_32
   14  A    between atoms: C_16  and  C_41
   15  A    between atoms: C_22  and  C_37
   16  A    between atoms: C_25  and  C_33
   17  A    between atoms: C_28  and  N_49
   18  A    between atoms: C_29  and  N_43
   19  A    between atoms: C_40  and  C_48
                            x       y       z     vdW  Elec       q    Type
                         _______ _______ _______ _____ _____    ______ ____

>  <TORSDO>
F 19

$$$$
=
 OpenBabel11052412053D

 50 53  0  0  1  0  0  0  0  0999 V2000
  160.6750  209.5030  152.0880 C   0  0  1  0  0  3  0  0  0  0  0  0
  162.6900  210.3090  153.1450 O   0  0  0  0  0  1  0  0  0  0  0  0
  161.3500  210.4990  152.7920 C   0  0  1  0  0  0  0  0  0  0  0  0
  161.2050  210.6900  151.3220 N   0  0  0  0  0  0  0  0  0  0  0  0
  160.8400  213.5640  148.9670 C   0  0  0  0  0  3  0  0  0  0  0  0
  162.3120  211.2010  149.2080 C   0  0  0  0  0  3  0  0  0  0  0  0
  161.3340  211.5050  150.1620 C   0  0  0  0  0  0  0  0  0  0  0  0
  161.8080  213.2440  147.9980 C   0  0  0  0  0  0  0  0  0  0  0  0
  162.5380  212.0580  148.1270 C   0  0  0  0  0  3  0  0  0  0  0  0
  160.5850  212.6900  150.0440 C   0  0  0  0  0  0  0  0  0  0  0  0
  159.6910  213.0600  151.1050 N   0  0  0  0  0  0  0  0  0  0  0  0
  157.5920  214.4120  150.8370 O   0  0  0  0  0  0  0  0  0  0  0  0
  158.6260  213.7470  150.9560 C   0  0  0  0  0  0  0  0  0  0  0  0
  162.0960  214.1250  146.9510 O   0  0  0  0  0  0  0  0  0  0  0  0
  162.4710  213.6430  145.6670 C   0  0  0  0  0  2  0  0  0  0  0  0
  158.9760  212.2360  145.3390 O   0  0  0  0  0  0  0  0  0  0  0  0
  161.2890  213.3140  144.8910 N   0  0  0  0  0  0  0  0  0  0  0  0
  160.6250  213.3050  143.6520 N   0  0  0  0  0  0  0  0  0  0  0  0
  159.9830  212.7700  144.7970 C   0  0  0  0  0  0  0  0  0  0  0  0
  160.5980  213.7170  142.2870 C   0  0  0  0  0  3  0  0  0  0  0  0
  160.6150  212.8040  141.3100 C   0  0  0  0  0  3  0  0  0  0  0  0
  160.8550  211.3500  141.6200 C   0  0  0  0  0  2  0  0  0  0  0  0
  161.4580  210.6130  140.4190 C   0  0  0  0  0  3  0  0  0  0  0  0
  160.7860  210.9890  139.2550 O   0  0  0  0  0  1  0  0  0  0  0  0
  162.8270  210.8900  140.2850 O   0  0  0  0  0  1  0  0  0  0  0  0
  161.5360  208.2600  151.8450 C   0  0  2  0  0  3  0  0  0  0  0  0
  162.6700  208.5640  151.0970 O   0  0  0  0  0  1  0  0  0  0  0  0
  160.7300  207.1840  151.1310 C   0  0  0  0  0  2  0  0  0  0  0  0
  161.6110  206.1640  150.3940 C   0  0  1  0  0  3  0  0  0  0  0  0
  161.5400  204.8490  151.0260 N   0  0  0  0  0  1  0  0  0  0  0  0
  159.9150  206.3450  148.6740 O   0  0  0  0  0  1  0  0  0  0  0  0
  161.2730  206.0930  148.9020 C   0  0  2  0  0  3  0  0  0  0  0  0
  161.6790  204.7460  148.2900 C   0  0  2  0  0  3  0  0  0  0  0  0
  161.1620  205.1810  146.0040 O   0  0  0  0  0  0  0  0  0  0  0  0
  163.3720  204.7990  146.4470 O   0  0  0  0  0  1  0  0  0  0  0  0
  162.0530  204.9270  146.8550 C   0  0  0  0  0  0  0  0  0  0  0  0
  161.2120  202.5710  148.1360 C   0  0  0  0  0  1  0  0  0  0  0  0
  160.6300  203.8180  148.3980 O   0  0  0  0  0  0  0  0  0  0  0  0
  160.5660  211.5210  153.6190 C   0  0  0  0  0  2  0  0  0  0  0  0
  158.7800  211.1430  153.7990 S   0  0  0  0  0  0  0  0  0  0  0  0
  157.2280  213.5930  156.6960 C   0  0  0  0  0  0  0  0  0  0  0  0
  160.6090  214.4290  157.1610 O   0  0  0  0  0  0  0  0  0  0  0  0
  158.3570  214.1660  157.1890 N   0  0  0  0  0  0  0  0  0  0  0  0
  155.9630  213.9360  157.2600 N   0  0  0  0  0  1  0  0  0  0  0  0
  157.3080  212.6660  155.6420 C   0  0  2  0  0  3  0  0  0  0  0  0
  158.5760  212.3380  155.1250 C   0  0  0  0  0  0  0  0  0  0  0  0
  159.7170  212.9370  155.6570 C   0  0  0  0  0  3  0  0  0  0  0  0
  159.5890  213.8640  156.6930 C   0  0  0  0  0  0  0  0  0  0  0  0
  155.5770  213.0540  154.0150 N   0  0  0  0  0  1  0  0  0  0  0  0
  156.0590  212.1180  155.0170 C   0  0  0  0  0  2  0  0  0  0  0  0
  1 26  1  6  0  0  0
  1  3  1  0  0  0  0
  3  2  1  1  0  0  0
  3 39  1  0  0  0  0
  4  1  1  0  0  0  0
  4  3  1  0  0  0  0
  5 10  1  0  0  0  0
  6  7  1  0  0  0  0
  7  4  1  0  0  0  0
  8  9  1  0  0  0  0
  8  5  2  0  0  0  0
  9  6  2  0  0  0  0
 10  7  2  0  0  0  0
 10 11  1  0  0  0  0
 12 13  2  0  0  0  0
 13 11  2  0  0  0  0
 14  8  1  0  0  0  0
 15 14  1  0  0  0  0
 17 15  1  0  0  0  0
 18 19  1  0  0  0  0
 18 17  1  0  0  0  0
 19 17  1  0  0  0  0
 19 16  2  0  0  0  0
 20 18  1  0  0  0  0
 21 22  1  0  0  0  0
 21 20  2  0  0  0  0
 23 22  1  0  0  0  0
 24 23  1  0  0  0  0
 25 23  1  0  0  0  0
 26 27  1  6  0  0  0
 28 26  1  0  0  0  0
 29 30  1  1  0  0  0
 29 28  1  0  0  0  0
 32 31  1  1  0  0  0
 32 29  1  0  0  0  0
 33 36  1  6  0  0  0
 33 38  1  0  0  0  0
 33 32  1  0  0  0  0
 34 36  2  0  0  0  0
 35 36  1  0  0  0  0
 37 38  1  0  0  0  0
 39 40  1  0  0  0  0
 40 46  1  0  0  0  0
 41 43  2  0  0  0  0
 41 44  1  0  0  0  0
 45 50  1  6  0  0  0
 45 41  1  0  0  0  0
 46 45  1  0  0  0  0
 46 47  2  0  0  0  0
 47 48  1  0  0  0  0
 48 42  2  0  0  0  0
 48 43  1  0  0  0  0
 49 50  1  0  0  0  0
M  END
>  <MODEL>
4

>  <REMARK>
 VINA RESULT:      -4.8      2.942      9.246
  Name = 
  19 active torsions:
  status: ('A' for Active; 'I' for Inactive)
    1  A    between atoms: C_1  and  C_2
    2  A    between atoms: C_1  and  C_14
    3  A    between atoms: C_2  and  C_31
    4  A    between atoms: C_3  and  C_22
    5  A    between atoms: S_4  and  C_36
    6  A    between atoms: S_4  and  C_40
    7  A    between atoms: C_5  and  C_14
    8  A    between atoms: O_6  and  C_15
    9  A    between atoms: O_6  and  C_34
   10  A    between atoms: N_7  and  C_50
   11  A    between atoms: C_15  and  N_42
   12  A    between atoms: C_16  and  C_31
   13  A    between atoms: C_16  and  O_32
   14  A    between atoms: C_16  and  C_41
   15  A    between atoms: C_22  and  C_37
   16  A    between atoms: C_25  and  C_33
   17  A    between atoms: C_28  and  N_49
   18  A    between atoms: C_29  and  N_43
   19  A    between atoms: C_40  and  C_48
                            x       y       z     vdW  Elec       q    Type
                         _______ _______ _______ _____ _____    ______ ____

>  <TORSDO>
F 19

$$$$
=
 OpenBabel11052412053D

 50 53  0  0  1  0  0  0  0  0999 V2000
  160.7640  210.3630  151.7010 C   0  0  1  0  0  3  0  0  0  0  0  0
  163.1720  210.3610  151.5340 O   0  0  0  0  0  1  0  0  0  0  0  0
  161.9170  210.2570  150.9250 C   0  0  1  0  0  0  0  0  0  0  0  0
  161.2400  208.9870  151.3060 N   0  0  0  0  0  0  0  0  0  0  0  0
  160.9410  205.3800  152.2220 C   0  0  0  0  0  3  0  0  0  0  0  0
  160.6890  207.0180  149.9730 C   0  0  0  0  0  3  0  0  0  0  0  0
  161.1020  207.5750  151.1880 C   0  0  0  0  0  0  0  0  0  0  0  0
  160.5490  204.8200  150.9930 C   0  0  0  0  0  0  0  0  0  0  0  0
  160.4280  205.6490  149.8730 C   0  0  0  0  0  3  0  0  0  0  0  0
  161.2360  206.7550  152.3250 C   0  0  0  0  0  0  0  0  0  0  0  0
  161.5170  207.3620  153.5950 N   0  0  0  0  0  0  0  0  0  0  0  0
  160.2820  206.9020  155.7330 O   0  0  0  0  0  0  0  0  0  0  0  0
  160.8830  207.1200  154.6760 C   0  0  0  0  0  0  0  0  0  0  0  0
  160.2140  203.4660  150.8930 O   0  0  0  0  0  0  0  0  0  0  0  0
  161.1250  202.5220  150.3470 C   0  0  0  0  0  2  0  0  0  0  0  0
  160.7430  201.5950  146.7000 O   0  0  0  0  0  0  0  0  0  0  0  0
  161.3210  202.7780  148.9310 N   0  0  0  0  0  0  0  0  0  0  0  0
  161.8260  203.6100  147.9160 N   0  0  0  0  0  0  0  0  0  0  0  0
  161.1730  202.3990  147.5730 C   0  0  0  0  0  0  0  0  0  0  0  0
  162.4110  204.8570  147.5480 C   0  0  0  0  0  3  0  0  0  0  0  0
  162.4860  205.2090  146.2590 C   0  0  0  0  0  3  0  0  0  0  0  0
  162.1370  204.2260  145.1720 C   0  0  0  0  0  2  0  0  0  0  0  0
  160.8950  204.6720  144.3930 C   0  0  0  0  0  3  0  0  0  0  0  0
  159.9210  203.6750  144.4550 O   0  0  0  0  0  1  0  0  0  0  0  0
  160.3760  205.8720  144.9020 O   0  0  0  0  0  1  0  0  0  0  0  0
  161.0640  210.6490  153.1760 C   0  0  2  0  0  3  0  0  0  0  0  0
  162.2280  210.0100  153.5920 O   0  0  0  0  0  1  0  0  0  0  0  0
  159.9000  210.2080  154.0530 C   0  0  0  0  0  2  0  0  0  0  0  0
  159.4880  211.2700  155.0820 C   0  0  1  0  0  3  0  0  0  0  0  0
  160.6540  211.9710  155.6140 N   0  0  0  0  0  1  0  0  0  0  0  0
  159.0740  213.3120  153.8460 O   0  0  0  0  0  1  0  0  0  0  0  0
  158.4550  212.2460  154.5100 C   0  0  2  0  0  3  0  0  0  0  0  0
  157.5040  212.7690  155.5950 C   0  0  2  0  0  3  0  0  0  0  0  0
  156.2420  210.8120  155.0860 O   0  0  0  0  0  0  0  0  0  0  0  0
  155.7350  211.8060  157.0810 O   0  0  0  0  0  1  0  0  0  0  0  0
  156.4660  211.7390  155.9060 C   0  0  0  0  0  0  0  0  0  0  0  0
  155.9610  213.5760  154.2010 C   0  0  0  0  0  1  0  0  0  0  0  0
  156.8870  213.9610  155.1790 O   0  0  0  0  0  0  0  0  0  0  0  0
  161.8630  210.5500  149.4230 C   0  0  0  0  0  2  0  0  0  0  0  0
  162.4870  212.2090  148.9510 S   0  0  0  0  0  0  0  0  0  0  0  0
  158.8320  213.3980  147.5270 C   0  0  0  0  0  0  0  0  0  0  0  0
  158.3700  214.4150  150.8590 O   0  0  0  0  0  0  0  0  0  0  0  0
  158.2620  213.9040  148.6520 N   0  0  0  0  0  0  0  0  0  0  0  0
  158.0920  213.3950  146.3070 N   0  0  0  0  0  1  0  0  0  0  0  0
  160.1370  212.8770  147.5680 C   0  0  2  0  0  3  0  0  0  0  0  0
  160.8280  212.8790  148.7950 C   0  0  0  0  0  0  0  0  0  0  0  0
  160.2140  213.3990  149.9340 C   0  0  0  0  0  3  0  0  0  0  0  0
  158.9210  213.9200  149.8430 C   0  0  0  0  0  0  0  0  0  0  0  0
  161.8870  213.3480  145.9840 N   0  0  0  0  0  1  0  0  0  0  0  0
  160.8130  212.4240  146.3080 C   0  0  0  0  0  2  0  0  0  0  0  0
  1 26  1  1  0  0  0
  3  4  1  0  0  0  0
  3  2  1  1  0  0  0
  3  1  1  0  0  0  0
  4  1  1  0  0  0  0
  5 10  1  0  0  0  0
  6  7  1  0  0  0  0
  7  4  1  0  0  0  0
  7 10  2  0  0  0  0
  8  5  2  0  0  0  0
  9  6  2  0  0  0  0
  9  8  1  0  0  0  0
 10 11  1  0  0  0  0
 11 13  2  0  0  0  0
 13 12  2  0  0  0  0
 14  8  1  0  0  0  0
 15 14  1  0  0  0  0
 16 19  2  0  0  0  0
 17 15  1  0  0  0  0
 18 17  1  0  0  0  0
 19 18  1  0  0  0  0
 19 17  1  0  0  0  0
 20 18  1  0  0  0  0
 21 20  2  0  0  0  0
 22 21  1  0  0  0  0
 23 24  1  0  0  0  0
 23 25  1  0  0  0  0
 23 22  1  0  0  0  0
 26 27  1  1  0  0  0
 26 28  1  0  0  0  0
 28 29  1  0  0  0  0
 29 30  1  6  0  0  0
 32 31  1  1  0  0  0
 32 29  1  0  0  0  0
 32 33  1  0  0  0  0
 33 38  1  6  0  0  0
 33 36  1  0  0  0  0
 34 36  2  0  0  0  0
 36 35  1  0  0  0  0
 37 38  1  0  0  0  0
 39  3  1  0  0  0  0
 40 39  1  0  0  0  0
 41 45  1  0  0  0  0
 41 43  2  0  0  0  0
 43 48  1  0  0  0  0
 44 41  1  0  0  0  0
 45 50  1  6  0  0  0
 45 46  1  0  0  0  0
 46 40  1  0  0  0  0
 46 47  2  0  0  0  0
 48 47  1  0  0  0  0
 48 42  2  0  0  0  0
 49 50  1  0  0  0  0
M  END
>  <MODEL>
5

>  <REMARK>
 VINA RESULT:      -4.6      1.726      2.480
  Name = 
  19 active torsions:
  status: ('A' for Active; 'I' for Inactive)
    1  A    between atoms: C_1  and  C_2
    2  A    between atoms: C_1  and  C_14
    3  A    between atoms: C_2  and  C_31
    4  A    between atoms: C_3  and  C_22
    5  A    between atoms: S_4  and  C_36
    6  A    between atoms: S_4  and  C_40
    7  A    between atoms: C_5  and  C_14
    8  A    between atoms: O_6  and  C_15
    9  A    between atoms: O_6  and  C_34
   10  A    between atoms: N_7  and  C_50
   11  A    between atoms: C_15  and  N_42
   12  A    between atoms: C_16  and  C_31
   13  A    between atoms: C_16  and  O_32
   14  A    between atoms: C_16  and  C_41
   15  A    between atoms: C_22  and  C_37
   16  A    between atoms: C_25  and  C_33
   17  A    between atoms: C_28  and  N_49
   18  A    between atoms: C_29  and  N_43
   19  A    between atoms: C_40  and  C_48
                            x       y       z     vdW  Elec       q    Type
                         _______ _______ _______ _____ _____    ______ ____

>  <TORSDO>
F 19

$$$$
=
 OpenBabel11052412053D

 50 53  0  0  1  0  0  0  0  0999 V2000
  160.8900  209.6050  152.0130 C   0  0  1  0  0  3  0  0  0  0  0  0
  163.0300  210.6570  151.6440 O   0  0  0  0  0  1  0  0  0  0  0  0
  161.7400  210.3510  151.1990 C   0  0  1  0  0  0  0  0  0  0  0  0
  161.6090  208.9000  150.8900 N   0  0  0  0  0  0  0  0  0  0  0  0
  161.8950  205.3880  149.6570 C   0  0  0  0  0  3  0  0  0  0  0  0
  162.0320  207.9950  148.6630 C   0  0  0  0  0  3  0  0  0  0  0  0
  161.8630  207.7890  150.0370 C   0  0  0  0  0  0  0  0  0  0  0  0
  162.0880  205.5990  148.2810 C   0  0  0  0  0  0  0  0  0  0  0  0
  162.1570  206.9080  147.7930 C   0  0  0  0  0  3  0  0  0  0  0  0
  161.7980  206.4780  150.5460 C   0  0  0  0  0  0  0  0  0  0  0  0
  161.4780  206.2820  151.9320 N   0  0  0  0  0  0  0  0  0  0  0  0
  161.0520  204.0640  153.0280 O   0  0  0  0  0  0  0  0  0  0  0  0
  161.2650  205.1490  152.4780 C   0  0  0  0  0  0  0  0  0  0  0  0
  162.1420  204.5230  147.3880 O   0  0  0  0  0  0  0  0  0  0  0  0
  161.8920  204.7070  146.0010 C   0  0  0  0  0  2  0  0  0  0  0  0
  158.9700  203.5370  143.9050 O   0  0  0  0  0  0  0  0  0  0  0  0
  160.9960  203.6740  145.5130 N   0  0  0  0  0  0  0  0  0  0  0  0
  160.6040  202.3230  145.5070 N   0  0  0  0  0  0  0  0  0  0  0  0
  159.8890  203.2670  144.7260 C   0  0  0  0  0  0  0  0  0  0  0  0
  160.8780  200.9780  145.8940 C   0  0  0  0  0  3  0  0  0  0  0  0
  161.0070  200.6650  147.1870 C   0  0  0  0  0  3  0  0  0  0  0  0
  161.0580  201.7420  148.2390 C   0  0  0  0  0  2  0  0  0  0  0  0
  160.7800  201.1750  149.6350 C   0  0  0  0  0  3  0  0  0  0  0  0
  161.1990  202.0890  150.6030 O   0  0  0  0  0  1  0  0  0  0  0  0
  159.4160  200.8940  149.8100 O   0  0  0  0  0  1  0  0  0  0  0  0
  161.5140  209.2630  153.3690 C   0  0  2  0  0  3  0  0  0  0  0  0
  160.7290  208.3560  154.0770 O   0  0  0  0  0  1  0  0  0  0  0  0
  161.7110  210.5230  154.2010 C   0  0  0  0  0  2  0  0  0  0  0  0
  160.5100  210.8380  155.1050 C   0  0  1  0  0  3  0  0  0  0  0  0
  160.8630  210.7120  156.5160 N   0  0  0  0  0  1  0  0  0  0  0  0
  159.8930  213.0310  155.9290 O   0  0  0  0  0  1  0  0  0  0  0  0
  159.9080  212.2120  154.7940 C   0  0  2  0  0  3  0  0  0  0  0  0
  158.5000  212.0950  154.1970 C   0  0  2  0  0  3  0  0  0  0  0  0
  157.2730  213.1590  152.4530 O   0  0  0  0  0  1  0  0  0  0  0  0
  159.5450  213.3810  152.3210 O   0  0  0  0  0  0  0  0  0  0  0  0
  158.4020  212.9110  152.9490 C   0  0  0  0  0  0  0  0  0  0  0  0
  156.3180  212.0070  154.6510 C   0  0  0  0  0  1  0  0  0  0  0  0
  157.5330  212.5190  155.1240 O   0  0  0  0  0  0  0  0  0  0  0  0
  161.1610  211.2610  150.1120 C   0  0  0  0  0  2  0  0  0  0  0  0
  162.3270  211.6500  148.7500 S   0  0  0  0  0  0  0  0  0  0  0  0
  160.3370  213.9220  145.9780 C   0  0  0  0  0  0  0  0  0  0  0  0
  157.8920  214.0420  148.4990 O   0  0  0  0  0  0  0  0  0  0  0  0
  159.1860  214.2010  146.6430 N   0  0  0  0  0  0  0  0  0  0  0  0
  160.5170  214.4130  144.6510 N   0  0  0  0  0  1  0  0  0  0  0  0
  161.3390  213.1510  146.5920 C   0  0  2  0  0  3  0  0  0  0  0  0
  161.1170  212.6670  147.8960 C   0  0  0  0  0  0  0  0  0  0  0  0
  159.9220  212.9650  148.5500 C   0  0  0  0  0  3  0  0  0  0  0  0
  158.9600  213.7470  147.9070 C   0  0  0  0  0  0  0  0  0  0  0  0
  162.9780  214.1100  145.1130 N   0  0  0  0  0  1  0  0  0  0  0  0
  162.6580  212.9370  145.9090 C   0  0  0  0  0  2  0  0  0  0  0  0
  1 26  1  1  0  0  0
  3  2  1  1  0  0  0
  3  1  1  0  0  0  0
  4  3  1  0  0  0  0
  4  1  1  0  0  0  0
  5 10  1  0  0  0  0
  6  7  1  0  0  0  0
  7 10  2  0  0  0  0
  7  4  1  0  0  0  0
  8  5  2  0  0  0  0
  9  8  1  0  0  0  0
  9  6  2  0  0  0  0
 10 11  1  0  0  0  0
 11 13  2  0  0  0  0
 13 12  2  0  0  0  0
 14  8  1  0  0  0  0
 15 14  1  0  0  0  0
 16 19  2  0  0  0  0
 17 15  1  0  0  0  0
 18 17  1  0  0  0  0
 18 20  1  0  0  0  0
 19 18  1  0  0  0  0
 19 17  1  0  0  0  0
 20 21  2  0  0  0  0
 21 22  1  0  0  0  0
 22 23  1  0  0  0  0
 23 25  1  0  0  0  0
 23 24  1  0  0  0  0
 26 27  1  1  0  0  0
 26 28  1  0  0  0  0
 28 29  1  0  0  0  0
 29 30  1  1  0  0  0
 32 29  1  0  0  0  0
 32 31  1  1  0  0  0
 33 36  1  6  0  0  0
 33 32  1  0  0  0  0
 33 38  1  0  0  0  0
 34 36  1  0  0  0  0
 35 36  2  0  0  0  0
 37 38  1  0  0  0  0
 39  3  1  0  0  0  0
 40 39  1  0  0  0  0
 41 45  1  0  0  0  0
 41 43  2  0  0  0  0
 43 48  1  0  0  0  0
 44 41  1  0  0  0  0
 45 50  1  1  0  0  0
 45 46  1  0  0  0  0
 46 47  2  0  0  0  0
 46 40  1  0  0  0  0
 48 42  2  0  0  0  0
 48 47  1  0  0  0  0
 49 50  1  0  0  0  0
M  END
>  <MODEL>
6

>  <REMARK>
 VINA RESULT:      -4.4      1.545      2.655
  Name = 
  19 active torsions:
  status: ('A' for Active; 'I' for Inactive)
    1  A    between atoms: C_1  and  C_2
    2  A    between atoms: C_1  and  C_14
    3  A    between atoms: C_2  and  C_31
    4  A    between atoms: C_3  and  C_22
    5  A    between atoms: S_4  and  C_36
    6  A    between atoms: S_4  and  C_40
    7  A    between atoms: C_5  and  C_14
    8  A    between atoms: O_6  and  C_15
    9  A    between atoms: O_6  and  C_34
   10  A    between atoms: N_7  and  C_50
   11  A    between atoms: C_15  and  N_42
   12  A    between atoms: C_16  and  C_31
   13  A    between atoms: C_16  and  O_32
   14  A    between atoms: C_16  and  C_41
   15  A    between atoms: C_22  and  C_37
   16  A    between atoms: C_25  and  C_33
   17  A    between atoms: C_28  and  N_49
   18  A    between atoms: C_29  and  N_43
   19  A    between atoms: C_40  and  C_48
                            x       y       z     vdW  Elec       q    Type
                         _______ _______ _______ _____ _____    ______ ____

>  <TORSDO>
F 19

$$$$
=
 OpenBabel11052412053D

 50 53  0  0  1  0  0  0  0  0999 V2000
  159.5480  210.7940  154.0250 C   0  0  1  0  0  3  0  0  0  0  0  0
  161.4920  212.0120  153.2760 O   0  0  0  0  0  1  0  0  0  0  0  0
  160.2780  211.3770  152.9910 C   0  0  1  0  0  0  0  0  0  0  0  0
  160.3950  209.9020  153.1510 N   0  0  0  0  0  0  0  0  0  0  0  0
  161.5150  206.3400  153.1070 C   0  0  0  0  0  3  0  0  0  0  0  0
  160.7700  208.3450  151.3090 C   0  0  0  0  0  3  0  0  0  0  0  0
  160.8450  208.6370  152.6750 C   0  0  0  0  0  0  0  0  0  0  0  0
  161.4610  206.0560  151.7310 C   0  0  0  0  0  0  0  0  0  0  0  0
  161.0890  207.0670  150.8390 C   0  0  0  0  0  3  0  0  0  0  0  0
  161.2250  207.6340  153.5870 C   0  0  0  0  0  0  0  0  0  0  0  0
  161.1550  207.9060  154.9950 N   0  0  0  0  0  0  0  0  0  0  0  0
  159.6790  206.7110  156.6380 O   0  0  0  0  0  0  0  0  0  0  0  0
  160.4010  207.2910  155.8210 C   0  0  0  0  0  0  0  0  0  0  0  0
  161.7070  204.7650  151.2520 O   0  0  0  0  0  0  0  0  0  0  0  0
  160.8260  203.6910  151.5510 C   0  0  0  0  0  2  0  0  0  0  0  0
  158.6790  201.3800  149.4650 O   0  0  0  0  0  0  0  0  0  0  0  0
  160.5750  202.9030  150.3580 N   0  0  0  0  0  0  0  0  0  0  0  0
  161.0090  202.4510  149.0990 N   0  0  0  0  0  0  0  0  0  0  0  0
  159.7530  202.0280  149.6040 C   0  0  0  0  0  0  0  0  0  0  0  0
  161.9630  202.5350  148.0420 C   0  0  0  0  0  3  0  0  0  0  0  0
  162.0720  203.6580  147.3240 C   0  0  0  0  0  3  0  0  0  0  0  0
  161.0730  204.7740  147.4850 C   0  0  0  0  0  2  0  0  0  0  0  0
  161.7380  206.1460  147.3350 C   0  0  0  0  0  3  0  0  0  0  0  0
  162.4480  206.1930  146.1340 O   0  0  0  0  0  1  0  0  0  0  0  0
  160.7900  207.1800  147.3630 O   0  0  0  0  0  1  0  0  0  0  0  0
  160.1950  210.9960  155.3980 C   0  0  2  0  0  3  0  0  0  0  0  0
  159.4100  210.4590  156.4150 O   0  0  0  0  0  1  0  0  0  0  0  0
  160.4300  212.4760  155.6650 C   0  0  0  0  0  2  0  0  0  0  0  0
  159.2830  213.1350  156.4440 C   0  0  1  0  0  3  0  0  0  0  0  0
  159.6740  214.4450  156.9580 N   0  0  0  0  0  1  0  0  0  0  0  0
  157.8910  214.4510  154.9620 O   0  0  0  0  0  1  0  0  0  0  0  0
  158.0010  213.2150  155.6090 C   0  0  2  0  0  3  0  0  0  0  0  0
  156.7510  212.9400  156.4570 C   0  0  2  0  0  3  0  0  0  0  0  0
  155.2920  211.0600  156.3500 O   0  0  0  0  0  1  0  0  0  0  0  0
  155.5890  212.1750  154.3760 O   0  0  0  0  0  0  0  0  0  0  0  0
  155.8340  212.0110  155.7310 C   0  0  0  0  0  0  0  0  0  0  0  0
  154.7580  213.7670  157.0190 C   0  0  0  0  0  1  0  0  0  0  0  0
  156.0820  214.1390  156.7550 O   0  0  0  0  0  0  0  0  0  0  0  0
  159.5770  211.7970  151.6960 C   0  0  0  0  0  2  0  0  0  0  0  0
  160.1260  213.4140  151.0270 S   0  0  0  0  0  0  0  0  0  0  0  0
  157.6470  213.4600  147.7620 C   0  0  0  0  0  0  0  0  0  0  0  0
  155.2050  214.1500  150.1920 O   0  0  0  0  0  0  0  0  0  0  0  0
  156.4480  213.7190  148.3450 N   0  0  0  0  0  0  0  0  0  0  0  0
  157.7150  213.2760  146.3490 N   0  0  0  0  0  1  0  0  0  0  0  0
  158.8100  213.3710  148.5470 C   0  0  2  0  0  3  0  0  0  0  0  0
  158.7010  213.5400  149.9400 C   0  0  0  0  0  0  0  0  0  0  0  0
  157.4540  213.7970  150.5100 C   0  0  0  0  0  3  0  0  0  0  0  0
  156.3280  213.8930  149.6900 C   0  0  0  0  0  0  0  0  0  0  0  0
  160.8850  214.4530  147.9830 N   0  0  0  0  0  1  0  0  0  0  0  0
  160.1520  213.2010  147.8980 C   0  0  0  0  0  2  0  0  0  0  0  0
  1 26  1  1  0  0  0
  3  4  1  0  0  0  0
  3  2  1  1  0  0  0
  3  1  1  0  0  0  0
  4  1  1  0  0  0  0
  5 10  1  0  0  0  0
  6  7  1  0  0  0  0
  7  4  1  0  0  0  0
  7 10  2  0  0  0  0
  8  5  2  0  0  0  0
  9  6  2  0  0  0  0
  9  8  1  0  0  0  0
 10 11  1  0  0  0  0
 11 13  2  0  0  0  0
 13 12  2  0  0  0  0
 14 15  1  0  0  0  0
 14  8  1  0  0  0  0
 16 19  2  0  0  0  0
 17 15  1  0  0  0  0
 18 19  1  0  0  0  0
 18 17  1  0  0  0  0
 19 17  1  0  0  0  0
 20 18  1  0  0  0  0
 21 22  1  0  0  0  0
 21 20  2  0  0  0  0
 23 25  1  0  0  0  0
 23 22  1  0  0  0  0
 24 23  1  0  0  0  0
 26 28  1  0  0  0  0
 26 27  1  1  0  0  0
 28 29  1  0  0  0  0
 29 30  1  6  0  0  0
 32 31  1  1  0  0  0
 32 29  1  0  0  0  0
 32 33  1  0  0  0  0
 33 36  1  6  0  0  0
 33 38  1  0  0  0  0
 35 36  2  0  0  0  0
 36 34  1  0  0  0  0
 38 37  1  0  0  0  0
 39  3  1  0  0  0  0
 40 39  1  0  0  0  0
 41 43  2  0  0  0  0
 41 45  1  0  0  0  0
 43 48  1  0  0  0  0
 44 41  1  0  0  0  0
 45 50  1  6  0  0  0
 45 46  1  0  0  0  0
 46 47  2  0  0  0  0
 46 40  1  0  0  0  0
 48 42  2  0  0  0  0
 48 47  1  0  0  0  0
 50 49  1  0  0  0  0
M  END
>  <MODEL>
7

>  <REMARK>
 VINA RESULT:      -4.0      2.450      3.271
  Name = 
  19 active torsions:
  status: ('A' for Active; 'I' for Inactive)
    1  A    between atoms: C_1  and  C_2
    2  A    between atoms: C_1  and  C_14
    3  A    between atoms: C_2  and  C_31
    4  A    between atoms: C_3  and  C_22
    5  A    between atoms: S_4  and  C_36
    6  A    between atoms: S_4  and  C_40
    7  A    between atoms: C_5  and  C_14
    8  A    between atoms: O_6  and  C_15
    9  A    between atoms: O_6  and  C_34
   10  A    between atoms: N_7  and  C_50
   11  A    between atoms: C_15  and  N_42
   12  A    between atoms: C_16  and  C_31
   13  A    between atoms: C_16  and  O_32
   14  A    between atoms: C_16  and  C_41
   15  A    between atoms: C_22  and  C_37
   16  A    between atoms: C_25  and  C_33
   17  A    between atoms: C_28  and  N_49
   18  A    between atoms: C_29  and  N_43
   19  A    between atoms: C_40  and  C_48
                            x       y       z     vdW  Elec       q    Type
                         _______ _______ _______ _____ _____    ______ ____

>  <TORSDO>
F 19

$$$$
=
 OpenBabel11052412053D

 50 53  0  0  1  0  0  0  0  0999 V2000
  161.1910  208.2250  148.7650 C   0  0  1  0  0  3  0  0  0  0  0  0
  163.3640  207.2340  149.1080 O   0  0  0  0  0  1  0  0  0  0  0  0
  161.9700  207.1300  149.1320 C   0  0  1  0  0  0  0  0  0  0  0  0
  161.3900  207.9460  150.2340 N   0  0  0  0  0  0  0  0  0  0  0  0
  161.1840  207.3400  153.9130 C   0  0  0  0  0  3  0  0  0  0  0  0
  160.8100  209.4230  152.0890 C   0  0  0  0  0  3  0  0  0  0  0  0
  161.1190  208.1430  151.6180 C   0  0  0  0  0  0  0  0  0  0  0  0
  160.8510  208.6240  154.3800 C   0  0  0  0  0  0  0  0  0  0  0  0
  160.6640  209.6590  153.4590 C   0  0  0  0  0  3  0  0  0  0  0  0
  161.3040  207.0870  152.5310 C   0  0  0  0  0  0  0  0  0  0  0  0
  161.7630  205.8160  152.0450 N   0  0  0  0  0  0  0  0  0  0  0  0
  160.8310  203.5800  152.7060 O   0  0  0  0  0  0  0  0  0  0  0  0
  161.2810  204.6860  152.3880 C   0  0  0  0  0  0  0  0  0  0  0  0
  160.7720  208.8930  155.7510 O   0  0  0  0  0  0  0  0  0  0  0  0
  161.2840  210.1030  156.2920 C   0  0  0  0  0  2  0  0  0  0  0  0
  159.9930  213.5250  157.2550 O   0  0  0  0  0  0  0  0  0  0  0  0
  160.2260  211.0910  156.3980 N   0  0  0  0  0  0  0  0  0  0  0  0
  158.8790  211.4410  156.1920 N   0  0  0  0  0  0  0  0  0  0  0  0
  159.7680  212.3780  156.7790 C   0  0  0  0  0  0  0  0  0  0  0  0
  157.6120  211.1110  155.6280 C   0  0  0  0  0  3  0  0  0  0  0  0
  157.3260  211.4600  154.3700 C   0  0  0  0  0  3  0  0  0  0  0  0
  158.2470  212.3650  153.5940 C   0  0  0  0  0  2  0  0  0  0  0  0
  157.4920  213.5650  153.0100 C   0  0  0  0  0  3  0  0  0  0  0  0
  157.1620  214.4530  154.0350 O   0  0  0  0  0  1  0  0  0  0  0  0
  158.2570  214.2270  152.0390 O   0  0  0  0  0  1  0  0  0  0  0  0
  162.0270  209.4250  148.3120 C   0  0  2  0  0  3  0  0  0  0  0  0
  163.3760  209.0970  148.2110 O   0  0  0  0  0  1  0  0  0  0  0  0
  161.8580  210.5900  149.2780 C   0  0  0  0  0  2  0  0  0  0  0  0
  161.3280  211.8600  148.5980 C   0  0  1  0  0  3  0  0  0  0  0  0
  161.0850  212.9210  149.5720 N   0  0  0  0  0  1  0  0  0  0  0  0
  163.3500  213.0400  147.9740 O   0  0  0  0  0  1  0  0  0  0  0  0
  162.2540  212.3300  147.4710 C   0  0  2  0  0  3  0  0  0  0  0  0
  161.5020  213.1700  146.4290 C   0  0  2  0  0  3  0  0  0  0  0  0
  159.2220  213.1970  147.1220 O   0  0  0  0  0  1  0  0  0  0  0  0
  159.7020  211.7640  145.4060 O   0  0  0  0  0  0  0  0  0  0  0  0
  160.0810  212.7190  146.3370 C   0  0  0  0  0  0  0  0  0  0  0  0
  162.7620  214.2970  144.9750 C   0  0  0  0  0  1  0  0  0  0  0  0
  162.1210  213.0670  145.1720 O   0  0  0  0  0  0  0  0  0  0  0  0
  161.3920  205.7140  149.0540 C   0  0  0  0  0  2  0  0  0  0  0  0
  160.9800  205.1550  147.3560 S   0  0  0  0  0  0  0  0  0  0  0  0
  161.1790  201.0610  147.2900 C   0  0  0  0  0  0  0  0  0  0  0  0
  161.2230  201.4590  150.7810 O   0  0  0  0  0  0  0  0  0  0  0  0
  161.2270  200.7780  148.6180 N   0  0  0  0  0  0  0  0  0  0  0  0
  161.2260  199.9950  146.3430 N   0  0  0  0  0  1  0  0  0  0  0  0
  161.0890  202.3950  146.8540 C   0  0  2  0  0  3  0  0  0  0  0  0
  161.0650  203.4210  147.8180 C   0  0  0  0  0  0  0  0  0  0  0  0
  161.1220  203.0990  149.1730 C   0  0  0  0  0  3  0  0  0  0  0  0
  161.1960  201.7590  149.5610 C   0  0  0  0  0  0  0  0  0  0  0  0
  159.5580  202.3930  144.9970 N   0  0  0  0  0  1  0  0  0  0  0  0
  160.9190  202.7070  145.3960 C   0  0  0  0  0  2  0  0  0  0  0  0
  1 26  1  6  0  0  0
  1  3  1  0  0  0  0
  1  4  1  0  0  0  0
  3  2  1  6  0  0  0
  3  4  1  0  0  0  0
  4  7  1  0  0  0  0
  5  8  1  0  0  0  0
  6  9  1  0  0  0  0
  7  6  2  0  0  0  0
  7 10  1  0  0  0  0
  8 14  1  0  0  0  0
  9  8  2  0  0  0  0
 10  5  2  0  0  0  0
 11 13  2  0  0  0  0
 11 10  1  0  0  0  0
 13 12  2  0  0  0  0
 14 15  1  0  0  0  0
 15 17  1  0  0  0  0
 17 19  1  0  0  0  0
 18 17  1  0  0  0  0
 18 19  1  0  0  0  0
 19 16  2  0  0  0  0
 20 18  1  0  0  0  0
 21 20  2  0  0  0  0
 22 21  1  0  0  0  0
 23 22  1  0  0  0  0
 23 24  1  0  0  0  0
 25 23  1  0  0  0  0
 26 27  1  1  0  0  0
 26 28  1  0  0  0  0
 29 28  1  0  0  0  0
 29 30  1  1  0  0  0
 32 31  1  1  0  0  0
 32 29  1  0  0  0  0
 33 38  1  6  0  0  0
 33 32  1  0  0  0  0
 35 36  2  0  0  0  0
 36 33  1  0  0  0  0
 36 34  1  0  0  0  0
 37 38  1  0  0  0  0
 39  3  1  0  0  0  0
 40 46  1  0  0  0  0
 40 39  1  0  0  0  0
 41 43  2  0  0  0  0
 43 48  1  0  0  0  0
 44 41  1  0  0  0  0
 45 50  1  1  0  0  0
 45 41  1  0  0  0  0
 45 46  1  0  0  0  0
 46 47  2  0  0  0  0
 47 48  1  0  0  0  0
 48 42  2  0  0  0  0
 49 50  1  0  0  0  0
M  END
>  <MODEL>
8

>  <REMARK>
 VINA RESULT:      -3.9      2.349      9.422
  Name = 
  19 active torsions:
  status: ('A' for Active; 'I' for Inactive)
    1  A    between atoms: C_1  and  C_2
    2  A    between atoms: C_1  and  C_14
    3  A    between atoms: C_2  and  C_31
    4  A    between atoms: C_3  and  C_22
    5  A    between atoms: S_4  and  C_36
    6  A    between atoms: S_4  and  C_40
    7  A    between atoms: C_5  and  C_14
    8  A    between atoms: O_6  and  C_15
    9  A    between atoms: O_6  and  C_34
   10  A    between atoms: N_7  and  C_50
   11  A    between atoms: C_15  and  N_42
   12  A    between atoms: C_16  and  C_31
   13  A    between atoms: C_16  and  O_32
   14  A    between atoms: C_16  and  C_41
   15  A    between atoms: C_22  and  C_37
   16  A    between atoms: C_25  and  C_33
   17  A    between atoms: C_28  and  N_49
   18  A    between atoms: C_29  and  N_43
   19  A    between atoms: C_40  and  C_48
                            x       y       z     vdW  Elec       q    Type
                         _______ _______ _______ _____ _____    ______ ____

>  <TORSDO>
F 19

$$$$
=
 OpenBabel11052412053D

 50 53  0  0  1  0  0  0  0  0999 V2000
  160.8730  209.7240  151.5830 C   0  0  1  0  0  3  0  0  0  0  0  0
  163.0880  210.6520  151.3420 O   0  0  0  0  0  1  0  0  0  0  0  0
  161.8150  210.4090  150.8170 C   0  0  1  0  0  0  0  0  0  0  0  0
  161.6250  208.9620  150.5200 N   0  0  0  0  0  0  0  0  0  0  0  0
  162.4910  205.4840  149.4760 C   0  0  0  0  0  3  0  0  0  0  0  0
  161.4550  207.8280  148.3650 C   0  0  0  0  0  3  0  0  0  0  0  0
  161.8720  207.8240  149.7000 C   0  0  0  0  0  0  0  0  0  0  0  0
  162.0920  205.4980  148.1280 C   0  0  0  0  0  0  0  0  0  0  0  0
  161.5760  206.6780  147.5810 C   0  0  0  0  0  3  0  0  0  0  0  0
  162.4010  206.6480  150.2660 C   0  0  0  0  0  0  0  0  0  0  0  0
  162.6880  206.6170  151.6720 N   0  0  0  0  0  0  0  0  0  0  0  0
  161.3990  205.3190  153.3920 O   0  0  0  0  0  0  0  0  0  0  0  0
  162.0260  205.9530  152.5370 C   0  0  0  0  0  0  0  0  0  0  0  0
  162.1390  204.3360  147.3500 O   0  0  0  0  0  0  0  0  0  0  0  0
  161.2120  204.1210  146.2950 C   0  0  0  0  0  2  0  0  0  0  0  0
  159.7800  201.1350  144.4690 O   0  0  0  0  0  0  0  0  0  0  0  0
  160.8650  202.7130  146.2120 N   0  0  0  0  0  0  0  0  0  0  0  0
  160.8370  201.4420  146.8140 N   0  0  0  0  0  0  0  0  0  0  0  0
  160.3120  201.6150  145.5070 C   0  0  0  0  0  0  0  0  0  0  0  0
  161.2300  200.6030  147.8980 C   0  0  0  0  0  3  0  0  0  0  0  0
  160.8830  200.9180  149.1500 C   0  0  0  0  0  3  0  0  0  0  0  0
  160.2450  202.2460  149.4610 C   0  0  0  0  0  2  0  0  0  0  0  0
  160.8550  202.8810  150.7160 C   0  0  0  0  0  3  0  0  0  0  0  0
  160.0600  203.9490  151.1330 O   0  0  0  0  0  1  0  0  0  0  0  0
  160.9740  201.9450  151.7550 O   0  0  0  0  0  1  0  0  0  0  0  0
  161.3870  209.3720  152.9820 C   0  0  2  0  0  3  0  0  0  0  0  0
  160.5060  208.5270  153.6510 O   0  0  0  0  0  1  0  0  0  0  0  0
  161.6060  210.6340  153.8050 C   0  0  0  0  0  2  0  0  0  0  0  0
  160.8930  210.5940  155.1650 C   0  0  1  0  0  3  0  0  0  0  0  0
  161.6780  209.8590  156.1530 N   0  0  0  0  0  1  0  0  0  0  0  0
  160.5370  212.0620  157.0580 O   0  0  0  0  0  1  0  0  0  0  0  0
  160.5320  211.9980  155.6600 C   0  0  2  0  0  3  0  0  0  0  0  0
  159.1800  212.4680  155.1060 C   0  0  2  0  0  3  0  0  0  0  0  0
  157.5080  211.2430  153.9310 O   0  0  0  0  0  0  0  0  0  0  0  0
  158.2230  210.2890  155.8820 O   0  0  0  0  0  1  0  0  0  0  0  0
  158.2630  211.3010  154.9350 C   0  0  0  0  0  0  0  0  0  0  0  0
  158.8100  214.4040  154.0640 C   0  0  0  0  0  1  0  0  0  0  0  0
  159.3520  213.1260  153.8770 O   0  0  0  0  0  0  0  0  0  0  0  0
  161.3600  211.3290  149.6810 C   0  0  0  0  0  2  0  0  0  0  0  0
  162.7260  212.1780  148.7990 S   0  0  0  0  0  0  0  0  0  0  0  0
  159.5280  213.9250  146.9220 C   0  0  0  0  0  0  0  0  0  0  0  0
  161.5630  213.5430  144.0840 O   0  0  0  0  0  0  0  0  0  0  0  0
  159.9700  213.9740  145.6380 N   0  0  0  0  0  0  0  0  0  0  0  0
  158.2390  214.4480  147.2410 N   0  0  0  0  0  1  0  0  0  0  0  0
  160.3370  213.3680  147.9280 C   0  0  2  0  0  3  0  0  0  0  0  0
  161.6110  212.8800  147.5780 C   0  0  0  0  0  0  0  0  0  0  0  0
  162.0390  212.9510  146.2540 C   0  0  0  0  0  3  0  0  0  0  0  0
  161.1960  213.4990  145.2850 C   0  0  0  0  0  0  0  0  0  0  0  0
  160.0670  214.4240  150.0740 N   0  0  0  0  0  1  0  0  0  0  0  0
  159.8090  213.2060  149.3230 C   0  0  0  0  0  2  0  0  0  0  0  0
  1 26  1  1  0  0  0
  3  2  1  1  0  0  0
  3  1  1  0  0  0  0
  4  3  1  0  0  0  0
  4  1  1  0  0  0  0
  5 10  1  0  0  0  0
  6  7  1  0  0  0  0
  7 10  2  0  0  0  0
  7  4  1  0  0  0  0
  8  5  2  0  0  0  0
  9  8  1  0  0  0  0
  9  6  2  0  0  0  0
 10 11  1  0  0  0  0
 11 13  2  0  0  0  0
 13 12  2  0  0  0  0
 14  8  1  0  0  0  0
 15 14  1  0  0  0  0
 16 19  2  0  0  0  0
 17 15  1  0  0  0  0
 17 18  1  0  0  0  0
 18 20  1  0  0  0  0
 19 17  1  0  0  0  0
 19 18  1  0  0  0  0
 20 21  2  0  0  0  0
 21 22  1  0  0  0  0
 22 23  1  0  0  0  0
 23 24  1  0  0  0  0
 23 25  1  0  0  0  0
 26 27  1  1  0  0  0
 26 28  1  0  0  0  0
 28 29  1  0  0  0  0
 29 32  1  0  0  0  0
 29 30  1  1  0  0  0
 32 31  1  1  0  0  0
 33 38  1  6  0  0  0
 33 32  1  0  0  0  0
 34 36  2  0  0  0  0
 36 33  1  0  0  0  0
 36 35  1  0  0  0  0
 38 37  1  0  0  0  0
 39  3  1  0  0  0  0
 40 39  1  0  0  0  0
 41 44  1  0  0  0  0
 41 45  1  0  0  0  0
 42 48  2  0  0  0  0
 43 41  2  0  0  0  0
 45 50  1  6  0  0  0
 46 45  1  0  0  0  0
 46 40  1  0  0  0  0
 47 46  2  0  0  0  0
 48 43  1  0  0  0  0
 48 47  1  0  0  0  0
 50 49  1  0  0  0  0
M  END
>  <MODEL>
9

>  <REMARK>
 VINA RESULT:      -3.9      1.789      2.945
  Name = 
  19 active torsions:
  status: ('A' for Active; 'I' for Inactive)
    1  A    between atoms: C_1  and  C_2
    2  A    between atoms: C_1  and  C_14
    3  A    between atoms: C_2  and  C_31
    4  A    between atoms: C_3  and  C_22
    5  A    between atoms: S_4  and  C_36
    6  A    between atoms: S_4  and  C_40
    7  A    between atoms: C_5  and  C_14
    8  A    between atoms: O_6  and  C_15
    9  A    between atoms: O_6  and  C_34
   10  A    between atoms: N_7  and  C_50
   11  A    between atoms: C_15  and  N_42
   12  A    between atoms: C_16  and  C_31
   13  A    between atoms: C_16  and  O_32
   14  A    between atoms: C_16  and  C_41
   15  A    between atoms: C_22  and  C_37
   16  A    between atoms: C_25  and  C_33
   17  A    between atoms: C_28  and  N_49
   18  A    between atoms: C_29  and  N_43
   19  A    between atoms: C_40  and  C_48
                            x       y       z     vdW  Elec       q    Type
                         _______ _______ _______ _____ _____    ______ ____

>  <TORSDO>
F 19

$$$$
