=
 OpenBabel11042420123D

 30 31  0  0  1  0  0  0  0  0999 V2000
  161.5040  209.7740  155.3580 N   0  0  0  0  0  0  0  0  0  0  0  0
  161.3110  208.3530  155.4880 C   0  0  0  0  0  0  0  0  0  0  0  0
  161.9460  207.7090  156.3660 O   0  0  0  0  0  0  0  0  0  0  0  0
  162.5420  210.4260  156.1460 C   0  0  0  0  0  1  0  0  0  0  0  0
  157.1230  213.5460  152.5810 N   0  0  0  0  0  0  0  0  0  0  0  0
  158.2600  213.0060  152.0640 C   0  0  0  0  0  3  0  0  0  0  0  0
  160.6810  210.5810  154.5000 C   0  0  0  0  0  0  0  0  0  0  0  0
  158.7010  211.9570  154.1990 C   0  0  0  0  0  0  0  0  0  0  0  0
  157.5300  212.5230  154.7050 C   0  0  0  0  0  3  0  0  0  0  0  0
  159.5040  211.1550  155.0080 C   0  0  0  0  0  3  0  0  0  0  0  0
  155.5480  213.9070  154.3700 N   0  0  0  0  0  1  0  0  0  0  0  0
  160.2410  211.6360  152.3510 C   0  0  0  0  0  3  0  0  0  0  0  0
  159.0720  212.2000  152.8630 C   0  0  0  0  0  0  0  0  0  0  0  0
  161.0540  210.8240  153.1620 C   0  0  0  0  0  0  0  0  0  0  0  0
  156.7450  213.3240  153.8700 C   0  0  0  0  0  0  0  0  0  0  0  0
  162.2210  210.2420  152.6530 O   0  0  0  0  0  0  0  0  0  0  0  0
  162.3140  209.7280  151.3310 C   0  0  0  0  0  1  0  0  0  0  0  0
  160.3800  207.6070  154.5820 C   0  0  0  0  0  2  0  0  0  0  0  0
  161.1230  207.0310  153.3860 C   0  0  0  0  0  2  0  0  0  0  0  0
  161.2640  205.5240  153.5190 C   0  0  0  0  0  2  0  0  0  0  0  0
  160.6650  203.7810  152.0500 O   0  0  0  0  0  0  0  0  0  0  0  0
  161.1860  204.8780  152.1760 C   0  0  0  0  0  0  0  0  0  0  0  0
  161.7530  205.5810  150.9890 C   0  0  0  0  0  2  0  0  0  0  0  0
  160.6590  205.8590  149.9660 C   0  0  0  0  0  2  0  0  0  0  0  0
  161.5450  203.8710  148.9350 O   0  0  0  0  0  1  0  0  0  0  0  0
  160.8450  205.0530  148.6840 C   0  0  2  0  0  3  0  0  0  0  0  0
  160.5600  206.5120  146.2300 O   0  0  0  0  0  0  0  0  0  0  0  0
  161.6870  206.0220  147.3920 P   0  0  0  0  0  0  0  0  0  0  0  0
  162.4210  207.3850  148.0720 O   0  0  0  0  0  1  0  0  0  0  0  0
  162.7420  205.1640  146.7310 O   0  0  0  0  0  1  0  0  0  0  0  0
  1  2  1  0  0  0  0
  1  4  1  0  0  0  0
  2  3  2  0  0  0  0
  5 15  1  0  0  0  0
  6  5  2  0  0  0  0
  6 13  1  0  0  0  0
  7 10  1  0  0  0  0
  7  1  1  0  0  0  0
  8  9  1  0  0  0  0
  8 10  2  0  0  0  0
 12 13  2  0  0  0  0
 12 14  1  0  0  0  0
 13  8  1  0  0  0  0
 14  7  2  0  0  0  0
 15 11  1  0  0  0  0
 15  9  2  0  0  0  0
 16 14  1  0  0  0  0
 17 16  1  0  0  0  0
 18  2  1  0  0  0  0
 19 20  1  0  0  0  0
 19 18  1  0  0  0  0
 21 22  2  0  0  0  0
 22 20  1  0  0  0  0
 23 22  1  0  0  0  0
 24 23  1  0  0  0  0
 26 25  1  1  0  0  0
 26 24  1  0  0  0  0
 27 28  2  0  0  0  0
 28 29  1  0  0  0  0
 28 26  1  0  0  0  0
 30 28  1  0  0  0  0
M  END
>  <MODEL>
1

>  <REMARK>
 VINA RESULT:      -6.9      0.000      0.000
  Name = 
  10 active torsions:
  status: ('A' for Active; 'I' for Inactive)
    1  A    between atoms: O_2  and  C_25
    2  A    between atoms: N_5  and  C_13
    3  A    between atoms: C_7  and  C_20
    4  A    between atoms: C_7  and  C_23
    5  A    between atoms: P_8  and  C_18
    6  A    between atoms: C_10  and  C_29
    7  A    between atoms: C_18  and  C_23
    8  A    between atoms: C_20  and  C_24
    9  A    between atoms: C_24  and  C_30
   10  A    between atoms: C_29  and  C_30
                            x       y       z     vdW  Elec       q    Type
                         _______ _______ _______ _____ _____    ______ ____

>  <TORSDO>
F 10

$$$$
=
 OpenBabel11042420123D

 30 31  0  0  1  0  0  0  0  0999 V2000
  161.0300  203.6470  145.8320 N   0  0  0  0  0  0  0  0  0  0  0  0
  161.7000  204.8640  145.4520 C   0  0  0  0  0  0  0  0  0  0  0  0
  161.5310  205.3430  144.2990 O   0  0  0  0  0  0  0  0  0  0  0  0
  160.2810  202.9050  144.8250 C   0  0  0  0  0  1  0  0  0  0  0  0
  161.0590  202.6940  152.1730 N   0  0  0  0  0  0  0  0  0  0  0  0
  161.0280  201.7890  151.1570 C   0  0  0  0  0  3  0  0  0  0  0  0
  161.0460  203.1560  147.1810 C   0  0  0  0  0  0  0  0  0  0  0  0
  161.0690  203.6120  149.5680 C   0  0  0  0  0  0  0  0  0  0  0  0
  161.1010  204.5190  150.6280 C   0  0  0  0  0  3  0  0  0  0  0  0
  161.0730  204.0660  148.2500 C   0  0  0  0  0  3  0  0  0  0  0  0
  161.1280  204.9450  153.0310 N   0  0  0  0  0  1  0  0  0  0  0  0
  161.0020  201.3180  148.7780 C   0  0  0  0  0  3  0  0  0  0  0  0
  161.0330  202.2300  149.8340 C   0  0  0  0  0  0  0  0  0  0  0  0
  161.0090  201.7710  147.4460 C   0  0  0  0  0  0  0  0  0  0  0  0
  161.0950  204.0340  151.9390 C   0  0  0  0  0  0  0  0  0  0  0  0
  160.9930  200.8630  146.3800 O   0  0  0  0  0  0  0  0  0  0  0  0
  161.4620  199.5270  146.4980 C   0  0  0  0  0  1  0  0  0  0  0  0
  162.6210  205.5740  146.3970 C   0  0  0  0  0  2  0  0  0  0  0  0
  161.9280  206.7550  147.0560 C   0  0  0  0  0  2  0  0  0  0  0  0
  162.7430  207.2670  148.2320 C   0  0  0  0  0  2  0  0  0  0  0  0
  161.9290  209.4420  148.6280 O   0  0  0  0  0  0  0  0  0  0  0  0
  161.9620  208.2800  149.0000 C   0  0  0  0  0  0  0  0  0  0  0  0
  161.2250  207.8620  150.2280 C   0  0  0  0  0  2  0  0  0  0  0  0
  161.8290  208.5240  151.4590 C   0  0  0  0  0  2  0  0  0  0  0  0
  161.1280  210.8240  151.5970 O   0  0  0  0  0  1  0  0  0  0  0  0
  160.8860  209.5410  152.0940 C   0  0  2  0  0  3  0  0  0  0  0  0
  162.3170  210.4870  154.3930 O   0  0  0  0  0  0  0  0  0  0  0  0
  161.0060  209.5340  153.9100 P   0  0  0  0  0  0  0  0  0  0  0  0
  159.5850  210.1510  154.5890 O   0  0  0  0  0  1  0  0  0  0  0  0
  161.2150  208.1170  154.3930 O   0  0  0  0  0  1  0  0  0  0  0  0
  1  7  1  0  0  0  0
  2  1  1  0  0  0  0
  2 18  1  0  0  0  0
  3  2  2  0  0  0  0
  4  1  1  0  0  0  0
  6  5  2  0  0  0  0
  7 14  2  0  0  0  0
  7 10  1  0  0  0  0
  8 13  1  0  0  0  0
  8  9  1  0  0  0  0
  9 15  2  0  0  0  0
 10  8  2  0  0  0  0
 12 13  2  0  0  0  0
 13  6  1  0  0  0  0
 14 12  1  0  0  0  0
 15  5  1  0  0  0  0
 15 11  1  0  0  0  0
 16 17  1  0  0  0  0
 16 14  1  0  0  0  0
 18 19  1  0  0  0  0
 19 20  1  0  0  0  0
 20 22  1  0  0  0  0
 21 22  2  0  0  0  0
 22 23  1  0  0  0  0
 23 24  1  0  0  0  0
 24 26  1  0  0  0  0
 26 25  1  6  0  0  0
 26 28  1  0  0  0  0
 28 27  2  0  0  0  0
 28 30  1  0  0  0  0
 28 29  1  0  0  0  0
M  END
>  <MODEL>
2

>  <REMARK>
 VINA RESULT:      -6.8      4.281      9.424
  Name = 
  10 active torsions:
  status: ('A' for Active; 'I' for Inactive)
    1  A    between atoms: O_2  and  C_25
    2  A    between atoms: N_5  and  C_13
    3  A    between atoms: C_7  and  C_20
    4  A    between atoms: C_7  and  C_23
    5  A    between atoms: P_8  and  C_18
    6  A    between atoms: C_10  and  C_29
    7  A    between atoms: C_18  and  C_23
    8  A    between atoms: C_20  and  C_24
    9  A    between atoms: C_24  and  C_30
   10  A    between atoms: C_29  and  C_30
                            x       y       z     vdW  Elec       q    Type
                         _______ _______ _______ _____ _____    ______ ____

>  <TORSDO>
F 10

$$$$
=
 OpenBabel11042420123D

 30 31  0  0  1  0  0  0  0  0999 V2000
  160.3730  208.1480  155.5610 N   0  0  0  0  0  0  0  0  0  0  0  0
  160.8200  207.4920  154.3600 C   0  0  0  0  0  0  0  0  0  0  0  0
  160.8690  206.2340  154.3100 O   0  0  0  0  0  0  0  0  0  0  0  0
  160.1240  207.3510  156.7550 C   0  0  0  0  0  1  0  0  0  0  0  0
  158.0960  214.1430  155.4570 N   0  0  0  0  0  0  0  0  0  0  0  0
  159.3290  213.6860  155.8050 C   0  0  0  0  0  3  0  0  0  0  0  0
  160.1300  209.5630  155.6130 C   0  0  0  0  0  0  0  0  0  0  0  0
  158.6010  211.4300  155.3260 C   0  0  0  0  0  0  0  0  0  0  0  0
  157.3440  211.9240  154.9730 C   0  0  0  0  0  3  0  0  0  0  0  0
  158.8650  210.0630  155.2640 C   0  0  0  0  0  3  0  0  0  0  0  0
  155.8340  213.8190  154.6900 N   0  0  0  0  0  1  0  0  0  0  0  0
  160.8660  211.8320  156.0990 C   0  0  0  0  0  3  0  0  0  0  0  0
  159.6070  212.3200  155.7470 C   0  0  0  0  0  0  0  0  0  0  0  0
  161.1390  210.4540  156.0360 C   0  0  0  0  0  0  0  0  0  0  0  0
  157.1090  213.3000  155.0470 C   0  0  0  0  0  0  0  0  0  0  0  0
  162.4030  209.9570  156.3740 O   0  0  0  0  0  0  0  0  0  0  0  0
  163.4190  210.7640  156.9540 C   0  0  0  0  0  1  0  0  0  0  0  0
  161.2550  208.2760  153.1590 C   0  0  0  0  0  2  0  0  0  0  0  0
  160.8910  207.5550  151.8720 C   0  0  0  0  0  2  0  0  0  0  0  0
  162.0470  206.6910  151.3970 C   0  0  0  0  0  2  0  0  0  0  0  0
  161.9770  204.3480  151.6380 O   0  0  0  0  0  0  0  0  0  0  0  0
  161.5600  205.3270  151.0380 C   0  0  0  0  0  0  0  0  0  0  0  0
  160.5620  205.1680  149.9410 C   0  0  0  0  0  2  0  0  0  0  0  0
  161.2100  204.5180  148.7270 C   0  0  0  0  0  2  0  0  0  0  0  0
  160.4970  206.4350  147.4540 O   0  0  0  0  0  1  0  0  0  0  0  0
  161.5460  205.5310  147.6360 C   0  0  2  0  0  3  0  0  0  0  0  0
  161.3470  203.1410  146.0620 O   0  0  0  0  0  1  0  0  0  0  0  0
  161.9580  204.7180  146.0600 P   0  0  0  0  0  0  0  0  0  0  0  0
  161.2850  205.5780  144.7690 O   0  0  0  0  0  0  0  0  0  0  0  0
  163.4600  204.6700  145.8990 O   0  0  0  0  0  1  0  0  0  0  0  0
  1  7  1  0  0  0  0
  1  4  1  0  0  0  0
  2  1  1  0  0  0  0
  3  2  2  0  0  0  0
  5  6  1  0  0  0  0
  7 14  1  0  0  0  0
  8 13  1  0  0  0  0
  9 15  1  0  0  0  0
  9  8  2  0  0  0  0
 10  8  1  0  0  0  0
 10  7  2  0  0  0  0
 11 15  1  0  0  0  0
 13  6  2  0  0  0  0
 13 12  1  0  0  0  0
 14 12  2  0  0  0  0
 14 16  1  0  0  0  0
 15  5  2  0  0  0  0
 16 17  1  0  0  0  0
 18  2  1  0  0  0  0
 19 18  1  0  0  0  0
 20 19  1  0  0  0  0
 22 20  1  0  0  0  0
 22 21  2  0  0  0  0
 23 22  1  0  0  0  0
 24 23  1  0  0  0  0
 26 25  1  6  0  0  0
 26 24  1  0  0  0  0
 28 27  1  0  0  0  0
 28 26  1  0  0  0  0
 29 28  2  0  0  0  0
 30 28  1  0  0  0  0
M  END
>  <MODEL>
3

>  <REMARK>
 VINA RESULT:      -6.4      1.938      2.637
  Name = 
  10 active torsions:
  status: ('A' for Active; 'I' for Inactive)
    1  A    between atoms: O_2  and  C_25
    2  A    between atoms: N_5  and  C_13
    3  A    between atoms: C_7  and  C_20
    4  A    between atoms: C_7  and  C_23
    5  A    between atoms: P_8  and  C_18
    6  A    between atoms: C_10  and  C_29
    7  A    between atoms: C_18  and  C_23
    8  A    between atoms: C_20  and  C_24
    9  A    between atoms: C_24  and  C_30
   10  A    between atoms: C_29  and  C_30
                            x       y       z     vdW  Elec       q    Type
                         _______ _______ _______ _____ _____    ______ ____

>  <TORSDO>
F 10

$$$$
=
 OpenBabel11042420123D

 30 31  0  0  1  0  0  0  0  0999 V2000
  160.4450  208.0980  155.4830 N   0  0  0  0  0  0  0  0  0  0  0  0
  160.7860  207.4480  154.2440 C   0  0  0  0  0  0  0  0  0  0  0  0
  160.8770  206.1920  154.1960 O   0  0  0  0  0  0  0  0  0  0  0  0
  160.3560  207.3040  156.7020 C   0  0  0  0  0  1  0  0  0  0  0  0
  157.9560  214.0090  155.5330 N   0  0  0  0  0  0  0  0  0  0  0  0
  159.2240  213.5960  155.8050 C   0  0  0  0  0  3  0  0  0  0  0  0
  160.1560  209.5040  155.5540 C   0  0  0  0  0  0  0  0  0  0  0  0
  158.5480  211.3150  155.3650 C   0  0  0  0  0  0  0  0  0  0  0  0
  157.2550  211.7650  155.0920 C   0  0  0  0  0  3  0  0  0  0  0  0
  158.8560  209.9580  155.2840 C   0  0  0  0  0  3  0  0  0  0  0  0
  155.6640  213.6050  154.9060 N   0  0  0  0  0  1  0  0  0  0  0  0
  160.8400  211.7970  155.9990 C   0  0  0  0  0  3  0  0  0  0  0  0
  159.5460  212.2410  155.7260 C   0  0  0  0  0  0  0  0  0  0  0  0
  161.1570  210.4300  155.9160 C   0  0  0  0  0  0  0  0  0  0  0  0
  156.9760  213.1320  155.1830 C   0  0  0  0  0  0  0  0  0  0  0  0
  162.4560  209.9780  156.1740 O   0  0  0  0  0  0  0  0  0  0  0  0
  163.4650  210.8090  156.7330 C   0  0  0  0  0  1  0  0  0  0  0  0
  161.0600  208.2370  153.0000 C   0  0  0  0  0  2  0  0  0  0  0  0
  161.0530  207.3420  151.7710 C   0  0  0  0  0  2  0  0  0  0  0  0
  161.5340  208.1070  150.5490 C   0  0  0  0  0  2  0  0  0  0  0  0
  162.4890  207.2900  148.5560 O   0  0  0  0  0  0  0  0  0  0  0  0
  161.5730  207.2080  149.3600 C   0  0  0  0  0  0  0  0  0  0  0  0
  160.4830  206.2090  149.1570 C   0  0  0  0  0  2  0  0  0  0  0  0
  161.0720  204.8310  148.8900 C   0  0  0  0  0  2  0  0  0  0  0  0
  161.5290  203.8670  151.0500 O   0  0  0  0  0  1  0  0  0  0  0  0
  160.6680  203.8120  149.9520 C   0  0  2  0  0  3  0  0  0  0  0  0
  161.3580  202.0900  147.7630 O   0  0  0  0  0  0  0  0  0  0  0  0
  160.6110  202.1200  149.2800 P   0  0  0  0  0  0  0  0  0  0  0  0
  161.4110  201.0540  150.3210 O   0  0  0  0  0  1  0  0  0  0  0  0
  159.1700  201.6880  149.1350 O   0  0  0  0  0  1  0  0  0  0  0  0
  1  7  1  0  0  0  0
  1  4  1  0  0  0  0
  2  1  1  0  0  0  0
  3  2  2  0  0  0  0
  5  6  1  0  0  0  0
  7 14  1  0  0  0  0
  8 13  1  0  0  0  0
  9 15  1  0  0  0  0
  9  8  2  0  0  0  0
 10  8  1  0  0  0  0
 10  7  2  0  0  0  0
 11 15  1  0  0  0  0
 13  6  2  0  0  0  0
 13 12  1  0  0  0  0
 14 12  2  0  0  0  0
 14 16  1  0  0  0  0
 15  5  2  0  0  0  0
 16 17  1  0  0  0  0
 18  2  1  0  0  0  0
 19 18  1  0  0  0  0
 20 19  1  0  0  0  0
 21 22  2  0  0  0  0
 22 20  1  0  0  0  0
 23 22  1  0  0  0  0
 24 23  1  0  0  0  0
 24 26  1  0  0  0  0
 26 25  1  1  0  0  0
 27 28  2  0  0  0  0
 28 26  1  0  0  0  0
 28 29  1  0  0  0  0
 30 28  1  0  0  0  0
M  END
>  <MODEL>
4

>  <REMARK>
 VINA RESULT:      -6.4      2.192      3.344
  Name = 
  10 active torsions:
  status: ('A' for Active; 'I' for Inactive)
    1  A    between atoms: O_2  and  C_25
    2  A    between atoms: N_5  and  C_13
    3  A    between atoms: C_7  and  C_20
    4  A    between atoms: C_7  and  C_23
    5  A    between atoms: P_8  and  C_18
    6  A    between atoms: C_10  and  C_29
    7  A    between atoms: C_18  and  C_23
    8  A    between atoms: C_20  and  C_24
    9  A    between atoms: C_24  and  C_30
   10  A    between atoms: C_29  and  C_30
                            x       y       z     vdW  Elec       q    Type
                         _______ _______ _______ _____ _____    ______ ____

>  <TORSDO>
F 10

$$$$
=
 OpenBabel11042420123D

 30 31  0  0  1  0  0  0  0  0999 V2000
  161.4020  209.9400  151.9940 N   0  0  0  0  0  0  0  0  0  0  0  0
  161.6060  208.5150  152.0360 C   0  0  0  0  0  0  0  0  0  0  0  0
  162.3770  207.9640  151.2050 O   0  0  0  0  0  0  0  0  0  0  0  0
  161.9770  210.7080  150.8970 C   0  0  0  0  0  1  0  0  0  0  0  0
  157.2210  213.0720  155.7130 N   0  0  0  0  0  0  0  0  0  0  0  0
  158.4770  212.6310  155.9960 C   0  0  0  0  0  3  0  0  0  0  0  0
  160.6780  210.6380  153.0200 C   0  0  0  0  0  0  0  0  0  0  0  0
  158.6500  211.7630  153.7450 C   0  0  0  0  0  0  0  0  0  0  0  0
  157.3600  212.2250  153.4800 C   0  0  0  0  0  3  0  0  0  0  0  0
  159.3790  211.1000  152.7580 C   0  0  0  0  0  3  0  0  0  0  0  0
  155.3380  213.3630  154.2370 N   0  0  0  0  0  1  0  0  0  0  0  0
  160.5070  211.5090  155.2870 C   0  0  0  0  0  3  0  0  0  0  0  0
  159.2170  211.9680  155.0170 C   0  0  0  0  0  0  0  0  0  0  0  0
  161.2470  210.8420  154.2950 C   0  0  0  0  0  0  0  0  0  0  0  0
  156.6530  212.8850  154.4900 C   0  0  0  0  0  0  0  0  0  0  0  0
  162.5470  210.3910  154.5510 O   0  0  0  0  0  0  0  0  0  0  0  0
  163.2680  210.7430  155.7250 C   0  0  0  0  0  1  0  0  0  0  0  0
  160.8980  207.6550  153.0380 C   0  0  0  0  0  2  0  0  0  0  0  0
  161.7070  206.4090  153.3600 C   0  0  0  0  0  2  0  0  0  0  0  0
  160.8930  205.1560  153.0820 C   0  0  0  0  0  2  0  0  0  0  0  0
  162.0980  203.7500  151.6250 O   0  0  0  0  0  0  0  0  0  0  0  0
  161.2350  204.6060  151.7380 C   0  0  0  0  0  0  0  0  0  0  0  0
  160.5160  205.1110  150.5330 C   0  0  0  0  0  2  0  0  0  0  0  0
  161.0620  204.4490  149.2750 C   0  0  0  0  0  2  0  0  0  0  0  0
  160.7270  206.5800  148.2030 O   0  0  0  0  0  1  0  0  0  0  0  0
  161.5690  205.4670  148.2570 C   0  0  2  0  0  3  0  0  0  0  0  0
  160.7280  205.5280  145.5150 O   0  0  0  0  0  0  0  0  0  0  0  0
  161.7530  204.7340  146.6010 P   0  0  0  0  0  0  0  0  0  0  0  0
  163.3530  204.8840  146.0730 O   0  0  0  0  0  1  0  0  0  0  0  0
  161.3810  203.2700  146.6580 O   0  0  0  0  0  1  0  0  0  0  0  0
  1  2  1  0  0  0  0
  1  7  1  0  0  0  0
  2 18  1  0  0  0  0
  3  2  2  0  0  0  0
  4  1  1  0  0  0  0
  5  6  1  0  0  0  0
  7 14  1  0  0  0  0
  8 13  1  0  0  0  0
  9  8  2  0  0  0  0
  9 15  1  0  0  0  0
 10  7  2  0  0  0  0
 10  8  1  0  0  0  0
 11 15  1  0  0  0  0
 13 12  1  0  0  0  0
 13  6  2  0  0  0  0
 14 16  1  0  0  0  0
 14 12  2  0  0  0  0
 15  5  2  0  0  0  0
 16 17  1  0  0  0  0
 18 19  1  0  0  0  0
 20 19  1  0  0  0  0
 21 22  2  0  0  0  0
 22 20  1  0  0  0  0
 23 22  1  0  0  0  0
 24 23  1  0  0  0  0
 26 25  1  6  0  0  0
 26 24  1  0  0  0  0
 27 28  2  0  0  0  0
 28 30  1  0  0  0  0
 28 26  1  0  0  0  0
 29 28  1  0  0  0  0
M  END
>  <MODEL>
5

>  <REMARK>
 VINA RESULT:      -6.3      1.563      2.546
  Name = 
  10 active torsions:
  status: ('A' for Active; 'I' for Inactive)
    1  A    between atoms: O_2  and  C_25
    2  A    between atoms: N_5  and  C_13
    3  A    between atoms: C_7  and  C_20
    4  A    between atoms: C_7  and  C_23
    5  A    between atoms: P_8  and  C_18
    6  A    between atoms: C_10  and  C_29
    7  A    between atoms: C_18  and  C_23
    8  A    between atoms: C_20  and  C_24
    9  A    between atoms: C_24  and  C_30
   10  A    between atoms: C_29  and  C_30
                            x       y       z     vdW  Elec       q    Type
                         _______ _______ _______ _____ _____    ______ ____

>  <TORSDO>
F 10

$$$$
=
 OpenBabel11042420123D

 30 31  0  0  1  0  0  0  0  0999 V2000
  161.4530  209.7430  155.7200 N   0  0  0  0  0  0  0  0  0  0  0  0
  161.2400  208.3310  155.9040 C   0  0  0  0  0  0  0  0  0  0  0  0
  161.9120  207.6990  156.7640 O   0  0  0  0  0  0  0  0  0  0  0  0
  162.5490  210.3940  156.4270 C   0  0  0  0  0  1  0  0  0  0  0  0
  156.9280  213.4230  153.0540 N   0  0  0  0  0  0  0  0  0  0  0  0
  158.0830  212.9400  152.5210 C   0  0  0  0  0  3  0  0  0  0  0  0
  160.5990  210.5420  154.8850 C   0  0  0  0  0  0  0  0  0  0  0  0
  158.5680  211.8500  154.6250 C   0  0  0  0  0  0  0  0  0  0  0  0
  157.3780  212.3580  155.1480 C   0  0  0  0  0  3  0  0  0  0  0  0
  159.4030  211.0570  155.4100 C   0  0  0  0  0  3  0  0  0  0  0  0
  155.3450  213.6750  154.8540 N   0  0  0  0  0  1  0  0  0  0  0  0
  160.1150  211.6380  152.7670 C   0  0  0  0  0  3  0  0  0  0  0  0
  158.9270  212.1430  153.2950 C   0  0  0  0  0  0  0  0  0  0  0  0
  160.9590  210.8350  153.5540 C   0  0  0  0  0  0  0  0  0  0  0  0
  156.5620  213.1510  154.3370 C   0  0  0  0  0  0  0  0  0  0  0  0
  162.1470  210.3120  153.0270 O   0  0  0  0  0  0  0  0  0  0  0  0
  162.3130  210.0140  151.6480 C   0  0  0  0  0  1  0  0  0  0  0  0
  160.2440  207.5780  155.0760 C   0  0  0  0  0  2  0  0  0  0  0  0
  160.9380  206.6760  154.0680 C   0  0  0  0  0  2  0  0  0  0  0  0
  160.8330  207.2570  152.6680 C   0  0  0  0  0  2  0  0  0  0  0  0
  162.6240  206.0480  151.7280 O   0  0  0  0  0  0  0  0  0  0  0  0
  161.4340  206.3210  151.6740 C   0  0  0  0  0  0  0  0  0  0  0  0
  160.5740  205.7230  150.6120 C   0  0  0  0  0  2  0  0  0  0  0  0
  161.2690  204.5260  149.9790 C   0  0  0  0  0  2  0  0  0  0  0  0
  161.5510  202.7420  151.5740 O   0  0  0  0  0  1  0  0  0  0  0  0
  160.7500  203.1980  150.5240 C   0  0  2  0  0  3  0  0  0  0  0  0
  161.2050  202.5670  147.7630 O   0  0  0  0  0  0  0  0  0  0  0  0
  160.6360  201.9300  149.2220 P   0  0  0  0  0  0  0  0  0  0  0  0
  161.5610  200.5790  149.6440 O   0  0  0  0  0  1  0  0  0  0  0  0
  159.1920  201.5140  149.0550 O   0  0  0  0  0  1  0  0  0  0  0  0
  1  2  1  0  0  0  0
  1  4  1  0  0  0  0
  2  3  2  0  0  0  0
  5 15  1  0  0  0  0
  6  5  2  0  0  0  0
  6 13  1  0  0  0  0
  7 10  1  0  0  0  0
  7  1  1  0  0  0  0
  8  9  1  0  0  0  0
  8 10  2  0  0  0  0
 12 13  2  0  0  0  0
 12 14  1  0  0  0  0
 13  8  1  0  0  0  0
 14  7  2  0  0  0  0
 15 11  1  0  0  0  0
 15  9  2  0  0  0  0
 16 14  1  0  0  0  0
 17 16  1  0  0  0  0
 18  2  1  0  0  0  0
 19 18  1  0  0  0  0
 20 19  1  0  0  0  0
 22 21  2  0  0  0  0
 22 20  1  0  0  0  0
 23 22  1  0  0  0  0
 24 26  1  0  0  0  0
 24 23  1  0  0  0  0
 26 25  1  1  0  0  0
 27 28  2  0  0  0  0
 28 29  1  0  0  0  0
 28 26  1  0  0  0  0
 30 28  1  0  0  0  0
M  END
>  <MODEL>
6

>  <REMARK>
 VINA RESULT:      -6.3      1.656      2.301
  Name = 
  10 active torsions:
  status: ('A' for Active; 'I' for Inactive)
    1  A    between atoms: O_2  and  C_25
    2  A    between atoms: N_5  and  C_13
    3  A    between atoms: C_7  and  C_20
    4  A    between atoms: C_7  and  C_23
    5  A    between atoms: P_8  and  C_18
    6  A    between atoms: C_10  and  C_29
    7  A    between atoms: C_18  and  C_23
    8  A    between atoms: C_20  and  C_24
    9  A    between atoms: C_24  and  C_30
   10  A    between atoms: C_29  and  C_30
                            x       y       z     vdW  Elec       q    Type
                         _______ _______ _______ _____ _____    ______ ____

>  <TORSDO>
F 10

$$$$
=
 OpenBabel11042420123D

 30 31  0  0  1  0  0  0  0  0999 V2000
  161.0090  209.0390  155.0350 N   0  0  0  0  0  0  0  0  0  0  0  0
  160.8350  207.6230  154.8360 C   0  0  0  0  0  0  0  0  0  0  0  0
  160.8980  206.8360  155.8190 O   0  0  0  0  0  0  0  0  0  0  0  0
  161.4050  209.5280  156.3500 C   0  0  0  0  0  1  0  0  0  0  0  0
  160.7850  212.5780  149.6920 N   0  0  0  0  0  0  0  0  0  0  0  0
  160.0840  212.7060  150.8510 C   0  0  0  0  0  3  0  0  0  0  0  0
  160.7730  209.9920  153.9860 C   0  0  0  0  0  0  0  0  0  0  0  0
  161.2500  210.7830  151.7390 C   0  0  0  0  0  0  0  0  0  0  0  0
  161.9560  210.6720  150.5390 C   0  0  0  0  0  3  0  0  0  0  0  0
  161.4780  209.8810  152.7770 C   0  0  0  0  0  3  0  0  0  0  0  0
  162.4160  211.4920  148.2880 N   0  0  0  0  0  1  0  0  0  0  0  0
  159.5960  211.9280  153.0960 C   0  0  0  0  0  3  0  0  0  0  0  0
  160.3030  211.8120  151.8990 C   0  0  0  0  0  0  0  0  0  0  0  0
  159.8230  211.0220  154.1470 C   0  0  0  0  0  0  0  0  0  0  0  0
  161.7050  211.5910  149.5160 C   0  0  0  0  0  0  0  0  0  0  0  0
  159.1290  211.1390  155.3570 O   0  0  0  0  0  0  0  0  0  0  0  0
  157.7110  211.0840  155.4410 C   0  0  0  0  0  1  0  0  0  0  0  0
  160.5990  207.0510  153.4720 C   0  0  0  0  0  2  0  0  0  0  0  0
  161.7550  206.1620  153.0430 C   0  0  0  0  0  2  0  0  0  0  0  0
  161.4750  205.5370  151.6860 C   0  0  0  0  0  2  0  0  0  0  0  0
  162.6880  207.2700  150.6500 O   0  0  0  0  0  0  0  0  0  0  0  0
  161.7190  206.5290  150.6000 C   0  0  0  0  0  0  0  0  0  0  0  0
  160.7690  206.6120  149.4530 C   0  0  0  0  0  2  0  0  0  0  0  0
  161.4860  206.2940  148.1480 C   0  0  0  0  0  2  0  0  0  0  0  0
  161.5640  203.9110  148.4910 O   0  0  0  0  0  1  0  0  0  0  0  0
  161.1330  204.9080  147.6140 C   0  0  2  0  0  3  0  0  0  0  0  0
  161.2340  205.8060  144.8910 O   0  0  0  0  0  0  0  0  0  0  0  0
  161.8210  204.6270  145.9520 P   0  0  0  0  0  0  0  0  0  0  0  0
  163.5100  204.7070  146.0010 O   0  0  0  0  0  1  0  0  0  0  0  0
  161.4010  203.2610  145.4610 O   0  0  0  0  0  1  0  0  0  0  0  0
  1  4  1  0  0  0  0
  2  1  1  0  0  0  0
  2  3  2  0  0  0  0
  5  6  1  0  0  0  0
  6 13  2  0  0  0  0
  7 14  1  0  0  0  0
  7  1  1  0  0  0  0
  8 13  1  0  0  0  0
  8 10  1  0  0  0  0
  9  8  2  0  0  0  0
 10  7  2  0  0  0  0
 11 15  1  0  0  0  0
 12 14  2  0  0  0  0
 13 12  1  0  0  0  0
 14 16  1  0  0  0  0
 15  5  2  0  0  0  0
 15  9  1  0  0  0  0
 16 17  1  0  0  0  0
 18  2  1  0  0  0  0
 19 18  1  0  0  0  0
 20 19  1  0  0  0  0
 22 21  2  0  0  0  0
 22 20  1  0  0  0  0
 23 22  1  0  0  0  0
 24 23  1  0  0  0  0
 26 24  1  0  0  0  0
 26 25  1  1  0  0  0
 27 28  2  0  0  0  0
 28 29  1  0  0  0  0
 28 26  1  0  0  0  0
 30 28  1  0  0  0  0
M  END
>  <MODEL>
7

>  <REMARK>
 VINA RESULT:      -5.9      2.226      3.494
  Name = 
  10 active torsions:
  status: ('A' for Active; 'I' for Inactive)
    1  A    between atoms: O_2  and  C_25
    2  A    between atoms: N_5  and  C_13
    3  A    between atoms: C_7  and  C_20
    4  A    between atoms: C_7  and  C_23
    5  A    between atoms: P_8  and  C_18
    6  A    between atoms: C_10  and  C_29
    7  A    between atoms: C_18  and  C_23
    8  A    between atoms: C_20  and  C_24
    9  A    between atoms: C_24  and  C_30
   10  A    between atoms: C_29  and  C_30
                            x       y       z     vdW  Elec       q    Type
                         _______ _______ _______ _____ _____    ______ ____

>  <TORSDO>
F 10

$$$$
=
 OpenBabel11042420123D

 30 31  0  0  1  0  0  0  0  0999 V2000
  160.9430  210.1540  155.1160 N   0  0  0  0  0  0  0  0  0  0  0  0
  161.0720  208.7390  154.8860 C   0  0  0  0  0  0  0  0  0  0  0  0
  161.7390  208.0280  155.6860 O   0  0  0  0  0  0  0  0  0  0  0  0
  161.7090  210.7720  156.1910 C   0  0  0  0  0  1  0  0  0  0  0  0
  157.9480  213.8520  150.8170 N   0  0  0  0  0  0  0  0  0  0  0  0
  157.4910  213.3360  151.9890 C   0  0  0  0  0  3  0  0  0  0  0  0
  160.0560  210.9760  154.3410 C   0  0  0  0  0  0  0  0  0  0  0  0
  159.6490  212.3030  152.3460 C   0  0  0  0  0  0  0  0  0  0  0  0
  160.0940  212.8440  151.1390 C   0  0  0  0  0  3  0  0  0  0  0  0
  160.4990  211.5190  153.1240 C   0  0  0  0  0  3  0  0  0  0  0  0
  159.6560  214.1850  149.1480 N   0  0  0  0  0  1  0  0  0  0  0  0
  157.8820  212.0130  153.9850 C   0  0  0  0  0  3  0  0  0  0  0  0
  158.3320  212.5510  152.7780 C   0  0  0  0  0  0  0  0  0  0  0  0
  158.7370  211.2240  154.7750 C   0  0  0  0  0  0  0  0  0  0  0  0
  159.2170  213.6260  150.3800 C   0  0  0  0  0  0  0  0  0  0  0  0
  158.2990  210.6920  155.9930 O   0  0  0  0  0  0  0  0  0  0  0  0
  158.0630  211.4920  157.1440 C   0  0  0  0  0  1  0  0  0  0  0  0
  160.4460  208.0830  153.6940 C   0  0  0  0  0  2  0  0  0  0  0  0
  161.4410  207.9570  152.5510 C   0  0  0  0  0  2  0  0  0  0  0  0
  161.2110  206.6670  151.7800 C   0  0  0  0  0  2  0  0  0  0  0  0
  162.2780  207.7130  149.9580 O   0  0  0  0  0  0  0  0  0  0  0  0
  161.4600  206.8840  150.3260 C   0  0  0  0  0  0  0  0  0  0  0  0
  160.7010  206.0820  149.3230 C   0  0  0  0  0  2  0  0  0  0  0  0
  161.6580  205.4070  148.3500 C   0  0  0  0  0  2  0  0  0  0  0  0
  160.3240  206.5720  146.7170 O   0  0  0  0  0  1  0  0  0  0  0  0
  161.5800  206.0060  146.9490 C   0  0  2  0  0  3  0  0  0  0  0  0
  161.2050  203.3100  146.0420 O   0  0  0  0  0  1  0  0  0  0  0  0
  161.9630  204.7740  145.6640 P   0  0  0  0  0  0  0  0  0  0  0  0
  161.4170  205.3160  144.1580 O   0  0  0  0  0  0  0  0  0  0  0  0
  163.4580  204.5600  145.6050 O   0  0  0  0  0  1  0  0  0  0  0  0
  1  4  1  0  0  0  0
  2  1  1  0  0  0  0
  2  3  2  0  0  0  0
  5  6  1  0  0  0  0
  6 13  2  0  0  0  0
  7 14  1  0  0  0  0
  7  1  1  0  0  0  0
  8 13  1  0  0  0  0
  8 10  1  0  0  0  0
  9  8  2  0  0  0  0
 10  7  2  0  0  0  0
 11 15  1  0  0  0  0
 12 14  2  0  0  0  0
 13 12  1  0  0  0  0
 14 16  1  0  0  0  0
 15  5  2  0  0  0  0
 15  9  1  0  0  0  0
 16 17  1  0  0  0  0
 18  2  1  0  0  0  0
 19 18  1  0  0  0  0
 20 19  1  0  0  0  0
 21 22  2  0  0  0  0
 22 20  1  0  0  0  0
 23 22  1  0  0  0  0
 24 23  1  0  0  0  0
 26 25  1  6  0  0  0
 26 24  1  0  0  0  0
 28 27  1  0  0  0  0
 28 26  1  0  0  0  0
 29 28  2  0  0  0  0
 30 28  1  0  0  0  0
M  END
>  <MODEL>
8

>  <REMARK>
 VINA RESULT:      -5.9      1.900      3.156
  Name = 
  10 active torsions:
  status: ('A' for Active; 'I' for Inactive)
    1  A    between atoms: O_2  and  C_25
    2  A    between atoms: N_5  and  C_13
    3  A    between atoms: C_7  and  C_20
    4  A    between atoms: C_7  and  C_23
    5  A    between atoms: P_8  and  C_18
    6  A    between atoms: C_10  and  C_29
    7  A    between atoms: C_18  and  C_23
    8  A    between atoms: C_20  and  C_24
    9  A    between atoms: C_24  and  C_30
   10  A    between atoms: C_29  and  C_30
                            x       y       z     vdW  Elec       q    Type
                         _______ _______ _______ _____ _____    ______ ____

>  <TORSDO>
F 10

$$$$
=
 OpenBabel11042420123D

 30 31  0  0  1  0  0  0  0  0999 V2000
  161.6440  208.8240  150.4560 N   0  0  0  0  0  0  0  0  0  0  0  0
  161.3110  207.8130  149.4850 C   0  0  0  0  0  0  0  0  0  0  0  0
  161.7230  207.9190  148.2980 O   0  0  0  0  0  0  0  0  0  0  0  0
  162.3300  210.0320  150.0160 C   0  0  0  0  0  1  0  0  0  0  0  0
  159.7080  209.2200  156.5570 N   0  0  0  0  0  0  0  0  0  0  0  0
  160.4100  208.2380  155.9280 C   0  0  0  0  0  3  0  0  0  0  0  0
  161.3530  208.6650  151.8540 C   0  0  0  0  0  0  0  0  0  0  0  0
  160.3160  209.5190  153.8790 C   0  0  0  0  0  0  0  0  0  0  0  0
  159.5970  210.5110  154.5460 C   0  0  0  0  0  3  0  0  0  0  0  0
  160.6260  209.6600  152.5270 C   0  0  0  0  0  3  0  0  0  0  0  0
  158.5680  211.3440  156.5970 N   0  0  0  0  0  1  0  0  0  0  0  0
  161.4490  207.3730  153.9140 C   0  0  0  0  0  3  0  0  0  0  0  0
  160.7280  208.3680  154.5760 C   0  0  0  0  0  0  0  0  0  0  0  0
  161.7670  207.5120  152.5510 C   0  0  0  0  0  0  0  0  0  0  0  0
  159.2990  210.3410  155.9020 C   0  0  0  0  0  0  0  0  0  0  0  0
  162.5010  206.5250  151.8820 O   0  0  0  0  0  0  0  0  0  0  0  0
  162.6710  205.2100  152.3940 C   0  0  0  0  0  1  0  0  0  0  0  0
  160.4580  206.6360  149.8480 C   0  0  0  0  0  2  0  0  0  0  0  0
  160.8150  205.4210  149.0060 C   0  0  0  0  0  2  0  0  0  0  0  0
  160.6880  204.1470  149.8250 C   0  0  0  0  0  2  0  0  0  0  0  0
  160.0930  201.9890  149.0880 O   0  0  0  0  0  0  0  0  0  0  0  0
  160.8320  202.9510  148.9450 C   0  0  0  0  0  0  0  0  0  0  0  0
  161.8860  202.9370  147.8890 C   0  0  0  0  0  2  0  0  0  0  0  0
  161.2510  202.9810  146.5060 C   0  0  0  0  0  2  0  0  0  0  0  0
  162.8880  204.7310  146.2640 O   0  0  0  0  0  1  0  0  0  0  0  0
  161.9760  203.9370  145.5640 C   0  0  2  0  0  3  0  0  0  0  0  0
  160.2170  206.2010  145.6440 O   0  0  0  0  0  1  0  0  0  0  0  0
  160.8130  204.9840  144.6330 P   0  0  0  0  0  0  0  0  0  0  0  0
  161.5950  205.6860  143.3090 O   0  0  0  0  0  0  0  0  0  0  0  0
  159.6620  204.1360  144.1410 O   0  0  0  0  0  1  0  0  0  0  0  0
  1  7  1  0  0  0  0
  2 18  1  0  0  0  0
  2  1  1  0  0  0  0
  3  2  2  0  0  0  0
  4  1  1  0  0  0  0
  6  5  1  0  0  0  0
  7 10  2  0  0  0  0
  7 14  1  0  0  0  0
  8  9  2  0  0  0  0
  8 13  1  0  0  0  0
  9 15  1  0  0  0  0
 10  8  1  0  0  0  0
 12 13  1  0  0  0  0
 13  6  2  0  0  0  0
 14 12  2  0  0  0  0
 15  5  2  0  0  0  0
 15 11  1  0  0  0  0
 16 17  1  0  0  0  0
 16 14  1  0  0  0  0
 19 20  1  0  0  0  0
 19 18  1  0  0  0  0
 22 21  2  0  0  0  0
 22 20  1  0  0  0  0
 23 22  1  0  0  0  0
 24 23  1  0  0  0  0
 26 25  1  1  0  0  0
 26 24  1  0  0  0  0
 28 26  1  0  0  0  0
 28 27  1  0  0  0  0
 29 28  2  0  0  0  0
 30 28  1  0  0  0  0
M  END
>  <MODEL>
9

>  <REMARK>
 VINA RESULT:      -5.9      2.528      4.533
  Name = 
  10 active torsions:
  status: ('A' for Active; 'I' for Inactive)
    1  A    between atoms: O_2  and  C_25
    2  A    between atoms: N_5  and  C_13
    3  A    between atoms: C_7  and  C_20
    4  A    between atoms: C_7  and  C_23
    5  A    between atoms: P_8  and  C_18
    6  A    between atoms: C_10  and  C_29
    7  A    between atoms: C_18  and  C_23
    8  A    between atoms: C_20  and  C_24
    9  A    between atoms: C_24  and  C_30
   10  A    between atoms: C_29  and  C_30
                            x       y       z     vdW  Elec       q    Type
                         _______ _______ _______ _____ _____    ______ ____

>  <TORSDO>
F 10

$$$$
