=
 OpenBabel11052411123D

 60 65  0  0  1  0  0  0  0  0999 V2000
  161.3810  209.9890  150.8230 C   0  0  0  0  0  0  0  0  0  0  0  0
  161.9350  209.2520  149.9030 N   0  0  0  0  0  0  0  0  0  0  0  0
  161.1730  209.4750  152.1480 N   0  0  0  0  0  2  0  0  0  0  0  0
  160.8320  210.2310  153.3160 C   0  0  0  0  0  0  0  0  0  0  0  0
  159.2530  211.5110  154.6470 C   0  0  0  0  0  3  0  0  0  0  0  0
  161.8240  210.4830  154.2690 C   0  0  0  0  0  3  0  0  0  0  0  0
  161.5310  211.2280  155.4160 C   0  0  0  0  0  3  0  0  0  0  0  0
  160.2380  211.7300  155.6200 C   0  0  0  0  0  0  0  0  0  0  0  0
  159.5480  210.7630  153.5060 C   0  0  0  0  0  3  0  0  0  0  0  0
  158.6000  213.2460  156.6800 C   0  0  0  0  0  2  0  0  0  0  0  0
  159.8730  214.0370  156.4890 C   0  0  0  0  0  2  0  0  0  0  0  0
  159.9470  212.5580  156.8360 C   0  0  0  0  0  3  0  0  0  0  0  0
  162.4710  207.9270  150.0540 C   0  0  0  0  0  0  0  0  0  0  0  0
  163.0430  207.5740  151.1170 O   0  0  0  0  0  0  0  0  0  0  0  0
  162.3780  207.0080  148.9710 N   0  0  0  0  0  0  0  0  0  0  0  0
  161.6940  207.3560  147.7990 N   0  0  0  0  0  0  0  0  0  0  0  0
  160.7680  206.8110  145.6130 C   0  0  0  0  0  3  0  0  0  0  0  0
  161.5860  205.0210  147.0250 C   0  0  0  0  0  3  0  0  0  0  0  0
  161.3430  206.3870  146.8140 C   0  0  0  0  0  0  0  0  0  0  0  0
  161.2550  204.0810  146.0420 C   0  0  0  0  0  0  0  0  0  0  0  0
  160.4400  205.8800  144.6250 C   0  0  0  0  0  3  0  0  0  0  0  0
  160.6880  204.5220  144.8360 C   0  0  0  0  0  3  0  0  0  0  0  0
  161.1970  200.6350  147.2900 O   0  0  0  0  0  0  0  0  0  0  0  0
  161.0820  201.8860  147.3700 C   0  0  0  0  0  0  0  0  0  0  0  0
  161.5480  202.6970  146.2830 N   0  0  0  0  0  2  0  0  0  0  0  0
  160.4670  202.4840  148.6030 C   0  0  0  0  0  2  0  0  0  0  0  0
  160.6270  201.6520  149.8910 C   0  0  0  0  0  0  0  0  0  0  0  0
  161.6130  200.5140  149.6490 C   0  0  0  0  0  1  0  0  0  0  0  0
  159.2670  201.0180  150.1510 C   0  0  0  0  0  1  0  0  0  0  0  0
  160.0320  202.5170  152.0750 O   0  0  0  0  0  1  0  0  0  0  0  0
  161.0580  202.5130  151.1180 C   0  0  0  0  0  0  0  0  0  0  0  0
  162.1990  201.9500  151.6990 O   0  0  0  0  0  1  0  0  0  0  0  0
  160.4010  204.9930  151.1150 C   0  0  0  0  0  2  0  0  0  0  0  0
  161.7150  204.8650  151.8560 C   0  0  0  0  0  2  0  0  0  0  0  0
  161.4220  203.9600  150.6770 C   0  0  0  0  0  3  0  0  0  0  0  0
  160.8680  211.3510  150.4440 C   0  0  0  0  0  2  0  0  0  0  0  0
  163.1310  214.4460  147.9800 O   0  0  0  0  0  0  0  0  0  0  0  0
  159.8570  212.4990  147.9030 C   0  0  0  0  0  3  0  0  0  0  0  0
  159.3840  212.8490  146.7000 C   0  0  0  0  0  0  0  0  0  0  0  0
  163.3990  212.4040  146.6180 O   0  0  0  0  0  0  0  0  0  0  0  0
  162.4100  213.3680  147.2150 S   0  0  0  0  0  0  0  0  0  0  0  0
  161.4320  214.1140  145.9340 C   0  0  0  0  0  2  0  0  0  0  0  0
  161.7330  212.0290  149.4220 C   0  0  0  0  0  3  0  0  0  0  0  0
  160.3080  213.1620  145.5390 C   0  0  2  0  0  3  0  0  0  0  0  0
  157.6440  212.8030  146.4790 Cl  0  0  0  0  0  0  0  0  0  0  0  0
  161.2890  212.5250  148.2650 C   0  0  0  0  0  0  0  0  0  0  0  0
  159.5780  213.7260  144.4150 N   0  0  0  0  0  2  0  0  0  0  0  0
  161.1130  213.9350  142.1020 O   0  0  0  0  0  0  0  0  0  0  0  0
  160.3710  212.9210  142.2210 C   0  0  0  0  0  0  0  0  0  0  0  0
  159.5860  212.7550  143.4050 N   0  0  0  0  0  2  0  0  0  0  0  0
  161.4940  210.0120  140.0910 C   0  0  0  0  0  0  0  0  0  0  0  0
  160.4340  208.7550  138.2040 C   0  0  0  0  0  1  0  0  0  0  0  0
  162.5720  209.1960  140.0180 F   0  0  0  0  0  0  0  0  0  0  0  0
  159.3060  210.7000  139.3120 C   0  0  0  0  0  0  0  0  0  0  0  0
  161.4670  211.0260  141.0490 C   0  0  0  0  0  3  0  0  0  0  0  0
  159.2730  211.7110  140.2790 C   0  0  0  0  0  0  0  0  0  0  0  0
  158.1850  212.5220  140.3390 F   0  0  0  0  0  0  0  0  0  0  0  0
  160.4140  209.8460  139.2190 C   0  0  0  0  0  0  0  0  0  0  0  0
  158.2560  210.5540  138.4650 F   0  0  0  0  0  0  0  0  0  0  0  0
  160.3630  211.8830  141.1630 C   0  0  0  0  0  0  0  0  0  0  0  0
  1  3  1  0  0  0  0
  2 13  1  0  0  0  0
  2  1  2  0  0  0  0
  3  4  1  0  0  0  0
  4  9  2  0  0  0  0
  4  6  1  0  0  0  0
  5  8  2  0  0  0  0
  6  7  2  0  0  0  0
  7  8  1  0  0  0  0
  8 12  1  0  0  0  0
  9  5  1  0  0  0  0
 10 12  1  0  0  0  0
 11 10  1  0  0  0  0
 11 12  1  0  0  0  0
 13 14  2  0  0  0  0
 15 13  1  0  0  0  0
 16 15  2  0  0  0  0
 17 19  1  0  0  0  0
 19 18  2  0  0  0  0
 19 16  1  0  0  0  0
 20 25  1  0  0  0  0
 20 18  1  0  0  0  0
 21 22  1  0  0  0  0
 21 17  2  0  0  0  0
 22 20  2  0  0  0  0
 23 24  2  0  0  0  0
 24 26  1  0  0  0  0
 25 24  1  0  0  0  0
 26 27  1  0  0  0  0
 27 29  1  0  0  0  0
 27 31  1  0  0  0  0
 28 27  1  0  0  0  0
 31 32  1  0  0  0  0
 31 30  1  0  0  0  0
 33 34  1  0  0  0  0
 35 33  1  0  0  0  0
 35 31  1  0  0  0  0
 35 34  1  0  0  0  0
 36  1  1  0  0  0  0
 38 46  1  0  0  0  0
 39 38  2  0  0  0  0
 40 41  2  0  0  0  0
 41 37  2  0  0  0  0
 41 46  1  0  0  0  0
 42 41  1  0  0  0  0
 43 36  1  0  0  0  0
 44 47  1  6  0  0  0
 44 42  1  0  0  0  0
 44 39  1  0  0  0  0
 45 39  1  0  0  0  0
 46 43  2  0  0  0  0
 48 49  2  0  0  0  0
 49 50  1  0  0  0  0
 50 47  1  0  0  0  0
 51 55  1  0  0  0  0
 52 58  1  0  0  0  0
 53 51  1  0  0  0  0
 54 56  2  0  0  0  0
 55 60  2  0  0  0  0
 56 57  1  0  0  0  0
 56 60  1  0  0  0  0
 58 54  1  0  0  0  0
 58 51  2  0  0  0  0
 59 54  1  0  0  0  0
 60 49  1  0  0  0  0
M  END
>  <MODEL>
1

>  <REMARK>
 VINA RESULT:      -6.9      0.000      0.000
  Name = 
  15 active torsions:
  status: ('A' for Active; 'I' for Inactive)
    1  A    between atoms: C_2  and  C_14
    2  A    between atoms: C_2  and  C_54
    3  A    between atoms: C_7  and  C_13
    4  A    between atoms: C_8  and  N_32
    5  A    between atoms: C_13  and  C_36
    6  A    between atoms: C_14  and  C_15
    7  A    between atoms: C_18  and  N_45
    8  A    between atoms: C_21  and  N_51
    9  A    between atoms: C_29  and  C_57
   10  A    between atoms: C_31  and  C_50
   11  A    between atoms: N_34  and  C_35
   12  A    between atoms: N_38  and  N_44
   13  A    between atoms: N_38  and  C_47
   14  A    between atoms: N_45  and  N_53
   15  A    between atoms: C_54  and  C_59
                            x       y       z     vdW  Elec       q    Type
                         _______ _______ _______ _____ _____    ______ ____

>  <TORSDO>
F 15

$$$$
=
 OpenBabel11052411123D

 60 65  0  0  1  0  0  0  0  0999 V2000
  159.9770  212.6230  147.4110 C   0  0  0  0  0  0  0  0  0  0  0  0
  159.2170  213.0250  148.3900 N   0  0  0  0  0  0  0  0  0  0  0  0
  159.6040  212.8650  146.0450 N   0  0  0  0  0  2  0  0  0  0  0  0
  160.4420  212.7270  144.8910 C   0  0  0  0  0  0  0  0  0  0  0  0
  162.4840  213.2030  143.6640 C   0  0  0  0  0  3  0  0  0  0  0  0
  159.9650  211.9980  143.7970 C   0  0  0  0  0  3  0  0  0  0  0  0
  160.7500  211.8530  142.6480 C   0  0  0  0  0  3  0  0  0  0  0  0
  162.0220  212.4380  142.5830 C   0  0  0  0  0  0  0  0  0  0  0  0
  161.7010  213.3410  144.8110 C   0  0  0  0  0  3  0  0  0  0  0  0
  163.0090  213.6700  140.6820 C   0  0  0  0  0  2  0  0  0  0  0  0
  162.0230  212.6830  140.1030 C   0  0  0  0  0  2  0  0  0  0  0  0
  162.8370  212.3060  141.3310 C   0  0  0  0  0  3  0  0  0  0  0  0
  158.0070  213.7950  148.2930 C   0  0  0  0  0  0  0  0  0  0  0  0
  157.4000  213.9180  147.1990 O   0  0  0  0  0  0  0  0  0  0  0  0
  157.5040  214.4530  149.4510 N   0  0  0  0  0  2  0  0  0  0  0  0
  158.1280  214.2830  150.6930 N   0  0  0  0  0  2  0  0  0  0  0  0
  156.0270  213.8450  151.8450 C   0  0  0  0  0  3  0  0  0  0  0  0
  157.9930  214.3870  153.1500 C   0  0  0  0  0  3  0  0  0  0  0  0
  157.3820  214.1800  151.9040 C   0  0  0  0  0  0  0  0  0  0  0  0
  157.2540  214.2620  154.3320 C   0  0  0  0  0  0  0  0  0  0  0  0
  155.2840  213.7130  153.0200 C   0  0  0  0  0  3  0  0  0  0  0  0
  155.8970  213.9150  154.2590 C   0  0  0  0  0  3  0  0  0  0  0  0
  159.7700  214.4140  156.9950 O   0  0  0  0  0  0  0  0  0  0  0  0
  159.2030  213.9340  155.9790 C   0  0  0  0  0  0  0  0  0  0  0  0
  157.9230  214.4510  155.5880 N   0  0  0  0  0  2  0  0  0  0  0  0
  159.8830  212.8330  155.2160 C   0  0  0  0  0  2  0  0  0  0  0  0
  159.2900  211.4250  155.4180 C   0  0  0  0  0  0  0  0  0  0  0  0
  158.6750  210.9340  154.1110 C   0  0  0  0  0  1  0  0  0  0  0  0
  158.1490  211.5900  156.4150 C   0  0  0  0  0  1  0  0  0  0  0  0
  161.4760  210.4140  155.1520 O   0  0  0  0  0  1  0  0  0  0  0  0
  160.3320  210.4010  155.9640 C   0  0  0  0  0  0  0  0  0  0  0  0
  160.7080  210.7720  157.2590 O   0  0  0  0  0  1  0  0  0  0  0  0
  160.2690  208.0240  155.0000 C   0  0  0  0  0  2  0  0  0  0  0  0
  160.7360  207.9270  156.4370 C   0  0  0  0  0  2  0  0  0  0  0  0
  159.7150  208.9750  156.0450 C   0  0  0  0  0  3  0  0  0  0  0  0
  161.1990  211.8070  147.7350 C   0  0  0  0  0  2  0  0  0  0  0  0
  162.5030  210.7770  151.9780 O   0  0  0  0  0  0  0  0  0  0  0  0
  161.9850  209.0830  148.6050 C   0  0  0  0  0  3  0  0  0  0  0  0
  162.1820  207.8000  148.9350 C   0  0  0  0  0  0  0  0  0  0  0  0
  160.2460  209.7820  151.8750 O   0  0  0  0  0  0  0  0  0  0  0  0
  161.6270  209.7730  151.2770 S   0  0  0  0  0  0  0  0  0  0  0  0
  162.3500  208.1580  151.4290 C   0  0  0  0  0  2  0  0  0  0  0  0
  161.2270  211.3540  149.1660 C   0  0  0  0  0  3  0  0  0  0  0  0
  161.8280  207.2650  150.3090 C   0  0  2  0  0  3  0  0  0  0  0  0
  162.7450  206.7250  147.6670 Cl  0  0  0  0  0  0  0  0  0  0  0  0
  161.5540  210.1230  149.5620 C   0  0  0  0  0  0  0  0  0  0  0  0
  162.3330  205.9150  150.5000 N   0  0  0  0  0  2  0  0  0  0  0  0
  161.4220  203.2850  150.5160 O   0  0  0  0  0  0  0  0  0  0  0  0
  161.5800  203.8410  149.3940 C   0  0  0  0  0  0  0  0  0  0  0  0
  162.0190  205.2010  149.3360 N   0  0  0  0  0  2  0  0  0  0  0  0
  160.9540  200.9600  147.0350 C   0  0  0  0  0  0  0  0  0  0  0  0
  160.2320  200.8240  144.6420 C   0  0  0  0  0  1  0  0  0  0  0  0
  160.9820  199.6070  147.0950 F   0  0  0  0  0  0  0  0  0  0  0  0
  160.5750  203.0150  145.8120 C   0  0  0  0  0  0  0  0  0  0  0  0
  161.2840  201.7010  148.1710 C   0  0  0  0  0  3  0  0  0  0  0  0
  160.8950  203.7600  146.9520 C   0  0  0  0  0  0  0  0  0  0  0  0
  160.8630  205.1160  146.8760 F   0  0  0  0  0  0  0  0  0  0  0  0
  160.5980  201.6140  145.8530 C   0  0  0  0  0  0  0  0  0  0  0  0
  160.2400  203.6610  144.6660 F   0  0  0  0  0  0  0  0  0  0  0  0
  161.2550  203.1020  148.1510 C   0  0  0  0  0  0  0  0  0  0  0  0
  1 36  1  0  0  0  0
  1  2  2  0  0  0  0
  3  1  1  0  0  0  0
  4  3  1  0  0  0  0
  5  9  2  0  0  0  0
  6  4  2  0  0  0  0
  7  6  1  0  0  0  0
  8  7  2  0  0  0  0
  8  5  1  0  0  0  0
  9  4  1  0  0  0  0
 10 12  1  0  0  0  0
 11 10  1  0  0  0  0
 11 12  1  0  0  0  0
 12  8  1  0  0  0  0
 13  2  1  0  0  0  0
 13 15  1  0  0  0  0
 14 13  2  0  0  0  0
 15 16  1  0  0  0  0
 16 19  1  0  0  0  0
 17 19  2  0  0  0  0
 17 21  1  0  0  0  0
 18 20  2  0  0  0  0
 19 18  1  0  0  0  0
 20 25  1  0  0  0  0
 21 22  2  0  0  0  0
 22 20  1  0  0  0  0
 24 23  2  0  0  0  0
 25 24  1  0  0  0  0
 26 27  1  0  0  0  0
 26 24  1  0  0  0  0
 27 31  1  0  0  0  0
 27 29  1  0  0  0  0
 28 27  1  0  0  0  0
 30 31  1  0  0  0  0
 31 35  1  0  0  0  0
 31 32  1  0  0  0  0
 33 35  1  0  0  0  0
 33 34  1  0  0  0  0
 35 34  1  0  0  0  0
 36 43  1  0  0  0  0
 38 39  2  0  0  0  0
 38 46  1  0  0  0  0
 39 44  1  0  0  0  0
 41 42  1  0  0  0  0
 41 40  2  0  0  0  0
 41 37  2  0  0  0  0
 43 46  2  0  0  0  0
 44 47  1  1  0  0  0
 44 42  1  0  0  0  0
 45 39  1  0  0  0  0
 46 41  1  0  0  0  0
 49 48  2  0  0  0  0
 50 49  1  0  0  0  0
 50 47  1  0  0  0  0
 51 53  1  0  0  0  0
 51 55  1  0  0  0  0
 52 58  1  0  0  0  0
 54 58  1  0  0  0  0
 54 56  2  0  0  0  0
 56 60  1  0  0  0  0
 57 56  1  0  0  0  0
 58 51  2  0  0  0  0
 59 54  1  0  0  0  0
 60 55  2  0  0  0  0
 60 49  1  0  0  0  0
M  END
>  <MODEL>
2

>  <REMARK>
 VINA RESULT:      -5.4      3.964     10.480
  Name = 
  15 active torsions:
  status: ('A' for Active; 'I' for Inactive)
    1  A    between atoms: C_2  and  C_14
    2  A    between atoms: C_2  and  C_54
    3  A    between atoms: C_7  and  C_13
    4  A    between atoms: C_8  and  N_32
    5  A    between atoms: C_13  and  C_36
    6  A    between atoms: C_14  and  C_15
    7  A    between atoms: C_18  and  N_45
    8  A    between atoms: C_21  and  N_51
    9  A    between atoms: C_29  and  C_57
   10  A    between atoms: C_31  and  C_50
   11  A    between atoms: N_34  and  C_35
   12  A    between atoms: N_38  and  N_44
   13  A    between atoms: N_38  and  C_47
   14  A    between atoms: N_45  and  N_53
   15  A    between atoms: C_54  and  C_59
                            x       y       z     vdW  Elec       q    Type
                         _______ _______ _______ _____ _____    ______ ____

>  <TORSDO>
F 15

$$$$
