=
 OpenBabel11042422363D

 33 37  0  0  1  0  0  0  0  0999 V2000
  160.7040  206.4790  152.2060 C   0  0  0  0  0  2  0  0  0  0  0  0
  161.2660  206.7820  149.7990 C   0  0  2  0  0  0  0  0  0  0  0  0
  162.3400  207.8030  150.1850 C   0  0  2  0  0  3  0  0  0  0  0  0
  161.4510  207.7120  152.4840 N   0  0  2  0  0  0  0  0  0  0  0  0
  161.7880  205.6390  148.9270 C   0  0  2  0  0  3  0  0  0  0  0  0
  160.8910  206.7260  148.3310 C   0  0  0  0  0  2  0  0  0  0  0  0
  160.1300  206.5230  150.7910 C   0  0  0  0  0  2  0  0  0  0  0  0
  162.6710  207.6570  151.6730 C   0  0  0  0  0  2  0  0  0  0  0  0
  159.7720  207.3360  155.2690 C   0  0  2  0  0  3  0  0  0  0  0  0
  161.8640  210.2810  154.5690 C   0  0  0  0  0  0  0  0  0  0  0  0
  161.3010  208.9990  154.5570 C   0  0  0  0  0  0  0  0  0  0  0  0
  161.0090  206.6620  154.6660 C   0  0  0  0  0  2  0  0  0  0  0  0
  161.8120  207.7470  153.9110 C   0  0  1  0  0  3  0  0  0  0  0  0
  160.0020  211.0070  155.8810 N   0  0  0  0  0  0  0  0  0  0  0  0
  160.1510  208.7620  155.2590 C   0  0  0  0  0  0  0  0  0  0  0  0
  159.5760  206.8420  156.6900 C   0  0  0  0  0  1  0  0  0  0  0  0
  161.1740  211.2940  155.2440 C   0  0  0  0  0  3  0  0  0  0  0  0
  159.5030  209.7670  155.9020 N   0  0  0  0  0  0  0  0  0  0  0  0
  163.1840  210.5800  153.9480 C   0  0  0  0  0  1  0  0  0  0  0  0
  161.7500  210.2390  150.9480 C   0  0  0  0  0  2  0  0  0  0  0  0
  162.0130  209.5890  148.5530 C   0  0  0  0  0  3  0  0  0  0  0  0
  161.9280  212.0060  149.1950 C   0  0  1  0  0  3  0  0  0  0  0  0
  161.4570  213.2520  148.7850 O   0  0  0  0  0  1  0  0  0  0  0  0
  161.1800  211.5630  150.4450 C   0  0  0  0  0  2  0  0  0  0  0  0
  161.9620  209.2190  149.8440 C   0  0  0  0  0  0  0  0  0  0  0  0
  161.6830  210.9830  148.0920 C   0  0  0  0  0  2  0  0  0  0  0  0
  161.0750  204.2770  149.0650 C   0  0  2  0  0  3  0  0  0  0  0  0
  161.3670  203.6050  150.2600 O   0  0  0  0  0  1  0  0  0  0  0  0
  161.3720  203.3920  147.8640 C   0  0  0  0  0  2  0  0  0  0  0  0
  162.3310  204.0910  146.9170 C   0  0  0  0  0  2  0  0  0  0  0  0
  161.7880  204.0530  145.5000 C   0  0  0  0  0  2  0  0  0  0  0  0
  161.8000  205.3870  144.9250 N   0  0  0  0  0  2  0  0  0  0  0  0
  160.4300  205.8650  144.9480 C   0  0  0  0  0  1  0  0  0  0  0  0
  1  4  1  0  0  0  0
  2  6  1  6  0  0  0
  2  3  1  0  0  0  0
  2  7  1  0  0  0  0
  3 25  1  1  0  0  0
  3  8  1  0  0  0  0
  4  8  1  6  0  0  0
  4 13  1  0  0  0  0
  5 27  1  1  0  0  0
  5  2  1  0  0  0  0
  6  5  1  0  0  0  0
  7  1  1  0  0  0  0
  9 16  1  1  0  0  0
 10 17  1  0  0  0  0
 11 10  2  0  0  0  0
 11 15  1  0  0  0  0
 12  9  1  0  0  0  0
 13 11  1  0  0  0  0
 13 12  1  1  0  0  0
 14 18  1  0  0  0  0
 15  9  1  0  0  0  0
 15 18  2  0  0  0  0
 17 14  2  0  0  0  0
 19 10  1  0  0  0  0
 21 25  2  0  0  0  0
 22 23  1  6  0  0  0
 22 24  1  0  0  0  0
 24 20  1  0  0  0  0
 25 20  1  0  0  0  0
 26 21  1  0  0  0  0
 26 22  1  0  0  0  0
 27 28  1  1  0  0  0
 29 27  1  0  0  0  0
 30 29  1  0  0  0  0
 31 30  1  0  0  0  0
 32 33  1  0  0  0  0
 32 31  1  0  0  0  0
M  END
>  <MODEL>
1

>  <REMARK>
 VINA RESULT:      -5.4      0.000      0.000
  Name = 
  7 active torsions:
  status: ('A' for Active; 'I' for Inactive)
    1  A    between atoms: N_2  and  C_9
    2  A    between atoms: C_4  and  C_24
    3  A    between atoms: C_4  and  C_29
    4  A    between atoms: C_9  and  C_23
    5  A    between atoms: C_12  and  N_20
    6  A    between atoms: C_18  and  C_26
    7  A    between atoms: C_23  and  C_29
                            x       y       z     vdW  Elec       q    Type
                         _______ _______ _______ _____ _____    ______ ____

>  <TORSDO>
F 7

$$$$
=
 OpenBabel11042422363D

 33 37  0  0  1  0  0  0  0  0999 V2000
  158.1690  212.6240  152.4440 C   0  0  0  0  0  2  0  0  0  0  0  0
  159.7210  211.1110  153.6700 C   0  0  2  0  0  0  0  0  0  0  0  0
  160.8140  211.4080  152.6390 C   0  0  2  0  0  3  0  0  0  0  0  0
  159.0940  212.5680  151.3050 N   0  0  2  0  0  0  0  0  0  0  0  0
  160.1510  211.3710  155.1150 C   0  0  2  0  0  3  0  0  0  0  0  0
  159.9760  209.9420  154.6000 C   0  0  0  0  0  2  0  0  0  0  0  0
  158.2640  211.3360  153.2580 C   0  0  0  0  0  2  0  0  0  0  0  0
  160.4480  212.6730  151.8580 C   0  0  0  0  0  2  0  0  0  0  0  0
  156.5850  213.4540  149.3970 C   0  0  2  0  0  3  0  0  0  0  0  0
  160.0380  213.1490  148.1610 C   0  0  0  0  0  0  0  0  0  0  0  0
  158.9130  213.2980  148.9790 C   0  0  0  0  0  0  0  0  0  0  0  0
  157.3510  214.1300  150.5390 C   0  0  0  0  0  2  0  0  0  0  0  0
  158.8360  213.7140  150.4170 C   0  0  1  0  0  3  0  0  0  0  0  0
  158.5710  212.5120  146.3840 N   0  0  0  0  0  0  0  0  0  0  0  0
  157.6650  213.1130  148.4500 C   0  0  0  0  0  0  0  0  0  0  0  0
  155.6250  214.4530  148.7800 C   0  0  0  0  0  1  0  0  0  0  0  0
  159.8380  212.7340  146.8390 C   0  0  0  0  0  3  0  0  0  0  0  0
  157.5040  212.7080  147.1640 N   0  0  0  0  0  0  0  0  0  0  0  0
  161.4150  213.4720  148.6280 C   0  0  0  0  0  1  0  0  0  0  0  0
  161.9010  210.4610  150.4520 C   0  0  0  0  0  2  0  0  0  0  0  0
  160.7610  209.0200  152.1390 C   0  0  0  0  0  3  0  0  0  0  0  0
  162.1680  207.9830  150.3490 C   0  0  1  0  0  3  0  0  0  0  0  0
  162.2570  206.8840  149.4970 O   0  0  0  0  0  1  0  0  0  0  0  0
  161.9130  209.2420  149.5320 C   0  0  0  0  0  2  0  0  0  0  0  0
  161.0860  210.2520  151.7150 C   0  0  0  0  0  0  0  0  0  0  0  0
  161.0070  207.7840  151.3150 C   0  0  0  0  0  2  0  0  0  0  0  0
  159.0450  211.7950  156.1040 C   0  0  2  0  0  3  0  0  0  0  0  0
  157.8620  211.0550  155.9810 O   0  0  0  0  0  1  0  0  0  0  0  0
  158.7620  213.2850  155.9860 C   0  0  0  0  0  2  0  0  0  0  0  0
  157.3360  213.5880  156.4090 C   0  0  0  0  0  2  0  0  0  0  0  0
  156.6230  214.3720  155.3230 C   0  0  0  0  0  2  0  0  0  0  0  0
  155.4150  213.6740  154.9140 N   0  0  0  0  0  2  0  0  0  0  0  0
  155.0430  214.2070  153.6170 C   0  0  0  0  0  1  0  0  0  0  0  0
  1  7  1  0  0  0  0
  2  7  1  6  0  0  0
  2  6  1  0  0  0  0
  2  5  1  0  0  0  0
  3 25  1  6  0  0  0
  3  2  1  0  0  0  0
  4  8  1  1  0  0  0
  4  1  1  0  0  0  0
  5 27  1  1  0  0  0
  6  5  1  0  0  0  0
  8  3  1  0  0  0  0
  9 16  1  6  0  0  0
  9 12  1  0  0  0  0
 10 19  1  0  0  0  0
 10 11  1  0  0  0  0
 11 13  1  0  0  0  0
 13 12  1  1  0  0  0
 13  4  1  0  0  0  0
 14 17  1  0  0  0  0
 14 18  2  0  0  0  0
 15 11  2  0  0  0  0
 15  9  1  0  0  0  0
 17 10  2  0  0  0  0
 18 15  1  0  0  0  0
 20 25  1  0  0  0  0
 22 23  1  6  0  0  0
 22 26  1  0  0  0  0
 24 22  1  0  0  0  0
 24 20  1  0  0  0  0
 25 21  2  0  0  0  0
 26 21  1  0  0  0  0
 27 28  1  6  0  0  0
 29 27  1  0  0  0  0
 29 30  1  0  0  0  0
 31 30  1  0  0  0  0
 32 31  1  0  0  0  0
 33 32  1  0  0  0  0
M  END
>  <MODEL>
2

>  <REMARK>
 VINA RESULT:      -4.8      4.189      8.642
  Name = 
  7 active torsions:
  status: ('A' for Active; 'I' for Inactive)
    1  A    between atoms: N_2  and  C_9
    2  A    between atoms: C_4  and  C_24
    3  A    between atoms: C_4  and  C_29
    4  A    between atoms: C_9  and  C_23
    5  A    between atoms: C_12  and  N_20
    6  A    between atoms: C_18  and  C_26
    7  A    between atoms: C_23  and  C_29
                            x       y       z     vdW  Elec       q    Type
                         _______ _______ _______ _____ _____    ______ ____

>  <TORSDO>
F 7

$$$$
=
 OpenBabel11042422363D

 33 37  0  0  1  0  0  0  0  0999 V2000
  160.6930  206.6780  152.1420 C   0  0  0  0  0  2  0  0  0  0  0  0
  161.3590  207.0050  149.7640 C   0  0  2  0  0  0  0  0  0  0  0  0
  162.4570  207.9740  150.2120 C   0  0  2  0  0  3  0  0  0  0  0  0
  161.4770  207.8740  152.4730 N   0  0  2  0  0  0  0  0  0  0  0  0
  161.8690  205.8590  148.8890 C   0  0  2  0  0  3  0  0  0  0  0  0
  161.0400  206.9920  148.2830 C   0  0  0  0  0  2  0  0  0  0  0  0
  160.1760  206.7730  150.7070 C   0  0  0  0  0  2  0  0  0  0  0  0
  162.7240  207.7850  151.7080 C   0  0  0  0  0  2  0  0  0  0  0  0
  159.6940  207.4080  155.1800 C   0  0  2  0  0  3  0  0  0  0  0  0
  161.7990  210.3790  154.6500 C   0  0  0  0  0  0  0  0  0  0  0  0
  161.2420  209.0970  154.5770 C   0  0  0  0  0  0  0  0  0  0  0  0
  160.9560  206.7560  154.6040 C   0  0  0  0  0  2  0  0  0  0  0  0
  161.7830  207.8670  153.9140 C   0  0  1  0  0  3  0  0  0  0  0  0
  159.8850  211.0590  155.9110 N   0  0  0  0  0  0  0  0  0  0  0  0
  160.0670  208.8350  155.2270 C   0  0  0  0  0  0  0  0  0  0  0  0
  159.4470  206.8700  156.5770 C   0  0  0  0  0  1  0  0  0  0  0  0
  161.0790  211.3700  155.3290 C   0  0  0  0  0  3  0  0  0  0  0  0
  159.3910  209.8180  155.8750 N   0  0  0  0  0  0  0  0  0  0  0  0
  163.1400  210.7010  154.0890 C   0  0  0  0  0  1  0  0  0  0  0  0
  162.2690  209.9130  148.4610 C   0  0  0  0  0  2  0  0  0  0  0  0
  161.5840  210.1630  150.8470 C   0  0  0  0  0  3  0  0  0  0  0  0
  160.9260  211.8940  149.1640 C   0  0  1  0  0  3  0  0  0  0  0  0
  160.7440  213.2650  148.9880 O   0  0  0  0  0  1  0  0  0  0  0  0
  162.1170  211.4280  148.3390 C   0  0  0  0  0  2  0  0  0  0  0  0
  162.1490  209.4100  149.8870 C   0  0  0  0  0  0  0  0  0  0  0  0
  161.2060  211.6040  150.6340 C   0  0  0  0  0  2  0  0  0  0  0  0
  161.0980  204.5240  148.9710 C   0  0  2  0  0  3  0  0  0  0  0  0
  161.1420  203.9230  150.2360 O   0  0  0  0  0  1  0  0  0  0  0  0
  161.5810  203.5590  147.9000 C   0  0  0  0  0  2  0  0  0  0  0  0
  161.0320  202.1670  148.1560 C   0  0  0  0  0  2  0  0  0  0  0  0
  161.1040  201.3350  146.8890 C   0  0  0  0  0  2  0  0  0  0  0  0
  160.7590  202.1490  145.7370 N   0  0  0  0  0  2  0  0  0  0  0  0
  159.9120  201.3330  144.8860 C   0  0  0  0  0  1  0  0  0  0  0  0
  1  4  1  0  0  0  0
  2  6  1  6  0  0  0
  2  3  1  0  0  0  0
  2  7  1  0  0  0  0
  3 25  1  1  0  0  0
  3  8  1  0  0  0  0
  4  8  1  6  0  0  0
  4 13  1  0  0  0  0
  5 27  1  1  0  0  0
  5  2  1  0  0  0  0
  6  5  1  0  0  0  0
  7  1  1  0  0  0  0
  9 15  1  0  0  0  0
  9 16  1  1  0  0  0
 10 17  1  0  0  0  0
 11 10  2  0  0  0  0
 11 15  1  0  0  0  0
 12  9  1  0  0  0  0
 13 11  1  0  0  0  0
 13 12  1  1  0  0  0
 15 18  2  0  0  0  0
 17 14  2  0  0  0  0
 18 14  1  0  0  0  0
 19 10  1  0  0  0  0
 20 25  1  0  0  0  0
 22 23  1  1  0  0  0
 22 26  1  0  0  0  0
 24 20  1  0  0  0  0
 24 22  1  0  0  0  0
 25 21  2  0  0  0  0
 26 21  1  0  0  0  0
 27 28  1  1  0  0  0
 29 30  1  0  0  0  0
 29 27  1  0  0  0  0
 31 30  1  0  0  0  0
 32 31  1  0  0  0  0
 33 32  1  0  0  0  0
M  END
>  <MODEL>
3

>  <REMARK>
 VINA RESULT:      -4.6      1.046      1.528
  Name = 
  7 active torsions:
  status: ('A' for Active; 'I' for Inactive)
    1  A    between atoms: N_2  and  C_9
    2  A    between atoms: C_4  and  C_24
    3  A    between atoms: C_4  and  C_29
    4  A    between atoms: C_9  and  C_23
    5  A    between atoms: C_12  and  N_20
    6  A    between atoms: C_18  and  C_26
    7  A    between atoms: C_23  and  C_29
                            x       y       z     vdW  Elec       q    Type
                         _______ _______ _______ _____ _____    ______ ____

>  <TORSDO>
F 7

$$$$
=
 OpenBabel11042422363D

 33 37  0  0  1  0  0  0  0  0999 V2000
  160.4730  209.0910  152.9030 C   0  0  0  0  0  2  0  0  0  0  0  0
  161.5830  208.5900  150.7300 C   0  0  2  0  0  0  0  0  0  0  0  0
  162.3720  209.8980  150.8400 C   0  0  2  0  0  3  0  0  0  0  0  0
  160.9480  210.4740  152.7700 N   0  0  2  0  0  0  0  0  0  0  0  0
  162.4620  207.3560  150.5220 C   0  0  2  0  0  3  0  0  0  0  0  0
  161.6060  207.9050  149.3790 C   0  0  0  0  0  2  0  0  0  0  0  0
  160.2780  208.4700  151.5210 C   0  0  0  0  0  2  0  0  0  0  0  0
  162.3300  210.3990  152.2860 C   0  0  0  0  0  2  0  0  0  0  0  0
  159.9670  209.5380  155.7500 C   0  0  2  0  0  3  0  0  0  0  0  0
  158.7720  212.6110  154.1160 C   0  0  0  0  0  0  0  0  0  0  0  0
  159.5240  211.4880  154.4780 C   0  0  0  0  0  0  0  0  0  0  0  0
  161.2820  210.0790  155.1770 C   0  0  0  0  0  2  0  0  0  0  0  0
  160.9250  211.1220  154.0920 C   0  0  1  0  0  3  0  0  0  0  0  0
  156.9770  211.7450  155.4360 N   0  0  0  0  0  0  0  0  0  0  0  0
  158.9970  210.5780  155.3530 C   0  0  0  0  0  0  0  0  0  0  0  0
  160.0780  209.4550  157.2610 C   0  0  0  0  0  1  0  0  0  0  0  0
  157.4660  212.7140  154.6100 C   0  0  0  0  0  3  0  0  0  0  0  0
  157.7260  210.7040  155.8130 N   0  0  0  0  0  0  0  0  0  0  0  0
  159.3300  213.7120  153.2830 C   0  0  0  0  0  1  0  0  0  0  0  0
  161.0070  212.0820  150.3620 C   0  0  0  0  0  2  0  0  0  0  0  0
  162.4550  210.9810  148.6540 C   0  0  0  0  0  3  0  0  0  0  0  0
  161.5850  213.2940  148.2590 C   0  0  1  0  0  3  0  0  0  0  0  0
  161.1020  214.1500  147.2710 O   0  0  0  0  0  1  0  0  0  0  0  0
  160.4640  212.9500  149.2290 C   0  0  0  0  0  2  0  0  0  0  0  0
  161.9030  210.9570  149.8790 C   0  0  0  0  0  0  0  0  0  0  0  0
  162.0860  212.0070  147.6160 C   0  0  0  0  0  2  0  0  0  0  0  0
  161.9310  206.0210  151.0860 C   0  0  2  0  0  3  0  0  0  0  0  0
  162.7970  205.4100  152.0020 O   0  0  0  0  0  1  0  0  0  0  0  0
  161.5800  205.0640  149.9570 C   0  0  0  0  0  2  0  0  0  0  0  0
  160.4260  204.1660  150.3650 C   0  0  0  0  0  2  0  0  0  0  0  0
  160.8340  202.7080  150.2580 C   0  0  0  0  0  2  0  0  0  0  0  0
  160.4600  202.1790  148.9580 N   0  0  0  0  0  2  0  0  0  0  0  0
  161.2020  200.9450  148.7790 C   0  0  0  0  0  1  0  0  0  0  0  0
  2  6  1  6  0  0  0
  2  3  1  0  0  0  0
  2  7  1  0  0  0  0
  3 25  1  6  0  0  0
  3  8  1  0  0  0  0
  4  8  1  1  0  0  0
  4  1  1  0  0  0  0
  4 13  1  0  0  0  0
  5  2  1  0  0  0  0
  5 27  1  1  0  0  0
  6  5  1  0  0  0  0
  7  1  1  0  0  0  0
  9 16  1  1  0  0  0
 10 11  2  0  0  0  0
 10 17  1  0  0  0  0
 11 15  1  0  0  0  0
 12  9  1  0  0  0  0
 13 11  1  0  0  0  0
 13 12  1  1  0  0  0
 14 18  1  0  0  0  0
 15  9  1  0  0  0  0
 15 18  2  0  0  0  0
 17 14  2  0  0  0  0
 19 10  1  0  0  0  0
 21 25  2  0  0  0  0
 22 23  1  6  0  0  0
 22 24  1  0  0  0  0
 24 20  1  0  0  0  0
 25 20  1  0  0  0  0
 26 22  1  0  0  0  0
 26 21  1  0  0  0  0
 27 28  1  1  0  0  0
 29 30  1  0  0  0  0
 29 27  1  0  0  0  0
 31 30  1  0  0  0  0
 32 31  1  0  0  0  0
 33 32  1  0  0  0  0
M  END
>  <MODEL>
4

>  <REMARK>
 VINA RESULT:      -4.5      2.320      3.112
  Name = 
  7 active torsions:
  status: ('A' for Active; 'I' for Inactive)
    1  A    between atoms: N_2  and  C_9
    2  A    between atoms: C_4  and  C_24
    3  A    between atoms: C_4  and  C_29
    4  A    between atoms: C_9  and  C_23
    5  A    between atoms: C_12  and  N_20
    6  A    between atoms: C_18  and  C_26
    7  A    between atoms: C_23  and  C_29
                            x       y       z     vdW  Elec       q    Type
                         _______ _______ _______ _____ _____    ______ ____

>  <TORSDO>
F 7

$$$$
=
 OpenBabel11042422363D

 33 37  0  0  1  0  0  0  0  0999 V2000
  159.9550  211.9050  151.9610 C   0  0  0  0  0  2  0  0  0  0  0  0
  161.1850  209.8560  152.6640 C   0  0  2  0  0  0  0  0  0  0  0  0
  162.0400  209.9430  151.3970 C   0  0  2  0  0  3  0  0  0  0  0  0
  160.5190  211.7220  150.6190 N   0  0  2  0  0  0  0  0  0  0  0  0
  162.0010  209.7900  153.9550 C   0  0  2  0  0  3  0  0  0  0  0  0
  161.2630  208.5550  153.4370 C   0  0  0  0  0  2  0  0  0  0  0  0
  159.8220  210.5530  152.6610 C   0  0  0  0  0  2  0  0  0  0  0  0
  161.9250  211.3490  150.8000 C   0  0  0  0  0  2  0  0  0  0  0  0
  158.1680  213.2230  148.9040 C   0  0  2  0  0  3  0  0  0  0  0  0
  161.5170  212.5360  147.5430 C   0  0  0  0  0  0  0  0  0  0  0  0
  160.4370  212.7570  148.4050 C   0  0  0  0  0  0  0  0  0  0  0  0
  159.0420  213.6220  150.0990 C   0  0  0  0  0  2  0  0  0  0  0  0
  160.4400  212.9960  149.8840 C   0  0  1  0  0  3  0  0  0  0  0  0
  159.9510  212.3640  145.7440 N   0  0  0  0  0  0  0  0  0  0  0  0
  159.1710  212.8370  147.8920 C   0  0  0  0  0  0  0  0  0  0  0  0
  157.3740  214.4300  148.4410 C   0  0  0  0  0  1  0  0  0  0  0  0
  161.2410  212.3260  146.1860 C   0  0  0  0  0  3  0  0  0  0  0  0
  158.9360  212.6270  146.5720 N   0  0  0  0  0  0  0  0  0  0  0  0
  162.9310  212.5760  148.0070 C   0  0  0  0  0  1  0  0  0  0  0  0
  162.1450  209.0490  148.9370 C   0  0  0  0  0  2  0  0  0  0  0  0
  161.1880  207.7290  150.8260 C   0  0  0  0  0  3  0  0  0  0  0  0
  161.6760  206.6170  148.6370 C   0  0  1  0  0  3  0  0  0  0  0  0
  161.2070  205.6510  147.7490 O   0  0  0  0  0  1  0  0  0  0  0  0
  161.5540  207.9950  148.0030 C   0  0  0  0  0  2  0  0  0  0  0  0
  161.7040  208.8870  150.3800 C   0  0  0  0  0  0  0  0  0  0  0  0
  160.8350  206.5890  149.9080 C   0  0  0  0  0  2  0  0  0  0  0  0
  161.3530  210.3940  155.2190 C   0  0  2  0  0  3  0  0  0  0  0  0
  162.2550  211.0800  156.0440 O   0  0  0  0  0  1  0  0  0  0  0  0
  160.6120  209.3240  156.0050 C   0  0  0  0  0  2  0  0  0  0  0  0
  159.1330  209.6570  156.0870 C   0  0  0  0  0  2  0  0  0  0  0  0
  158.9420  211.0620  156.6270 C   0  0  0  0  0  2  0  0  0  0  0  0
  157.5620  211.4810  156.4520 N   0  0  0  0  0  2  0  0  0  0  0  0
  157.4980  212.1960  155.1910 C   0  0  0  0  0  1  0  0  0  0  0  0
  1  7  1  0  0  0  0
  2  7  1  1  0  0  0
  2  6  1  0  0  0  0
  2  5  1  0  0  0  0
  3 25  1  6  0  0  0
  3  2  1  0  0  0  0
  4  8  1  1  0  0  0
  4  1  1  0  0  0  0
  5 27  1  1  0  0  0
  6  5  1  0  0  0  0
  8  3  1  0  0  0  0
  9 16  1  6  0  0  0
  9 12  1  0  0  0  0
 10 19  1  0  0  0  0
 10 11  1  0  0  0  0
 11 13  1  0  0  0  0
 13 12  1  1  0  0  0
 13  4  1  0  0  0  0
 14 17  1  0  0  0  0
 14 18  2  0  0  0  0
 15 11  2  0  0  0  0
 15  9  1  0  0  0  0
 17 10  2  0  0  0  0
 18 15  1  0  0  0  0
 20 25  1  0  0  0  0
 22 23  1  6  0  0  0
 22 26  1  0  0  0  0
 24 22  1  0  0  0  0
 24 20  1  0  0  0  0
 25 21  2  0  0  0  0
 26 21  1  0  0  0  0
 27 29  1  0  0  0  0
 27 28  1  1  0  0  0
 29 30  1  0  0  0  0
 30 31  1  0  0  0  0
 32 31  1  0  0  0  0
 33 32  1  0  0  0  0
M  END
>  <MODEL>
5

>  <REMARK>
 VINA RESULT:      -4.4      3.196      7.922
  Name = 
  7 active torsions:
  status: ('A' for Active; 'I' for Inactive)
    1  A    between atoms: N_2  and  C_9
    2  A    between atoms: C_4  and  C_24
    3  A    between atoms: C_4  and  C_29
    4  A    between atoms: C_9  and  C_23
    5  A    between atoms: C_12  and  N_20
    6  A    between atoms: C_18  and  C_26
    7  A    between atoms: C_23  and  C_29
                            x       y       z     vdW  Elec       q    Type
                         _______ _______ _______ _____ _____    ______ ____

>  <TORSDO>
F 7

$$$$
=
 OpenBabel11042422363D

 33 37  0  0  1  0  0  0  0  0999 V2000
  160.1300  209.5170  153.0730 C   0  0  0  0  0  2  0  0  0  0  0  0
  161.5210  208.6480  151.1980 C   0  0  2  0  0  0  0  0  0  0  0  0
  162.3500  209.9340  151.2260 C   0  0  2  0  0  3  0  0  0  0  0  0
  160.6890  210.8470  152.8040 N   0  0  2  0  0  0  0  0  0  0  0  0
  162.3570  207.3730  151.3180 C   0  0  2  0  0  3  0  0  0  0  0  0
  161.7070  207.7560  149.9870 C   0  0  0  0  0  2  0  0  0  0  0  0
  160.1090  208.6890  151.7890 C   0  0  0  0  0  2  0  0  0  0  0  0
  162.1210  210.6600  152.5550 C   0  0  0  0  0  2  0  0  0  0  0  0
  159.3310  210.3880  155.7480 C   0  0  2  0  0  3  0  0  0  0  0  0
  158.3770  213.1460  153.5060 C   0  0  0  0  0  0  0  0  0  0  0  0
  159.0680  212.1040  154.1350 C   0  0  0  0  0  0  0  0  0  0  0  0
  160.7120  210.8460  155.2660 C   0  0  0  0  0  2  0  0  0  0  0  0
  160.5040  211.6980  153.9920 C   0  0  1  0  0  3  0  0  0  0  0  0
  156.4230  212.4790  154.7120 N   0  0  0  0  0  0  0  0  0  0  0  0
  158.4270  211.3380  155.0710 C   0  0  0  0  0  0  0  0  0  0  0  0
  159.2500  210.5480  157.2540 C   0  0  0  0  0  1  0  0  0  0  0  0
  157.0200  213.3100  153.8090 C   0  0  0  0  0  3  0  0  0  0  0  0
  157.1100  211.5210  155.3420 N   0  0  0  0  0  0  0  0  0  0  0  0
  159.0450  214.1060  152.5850 C   0  0  0  0  0  1  0  0  0  0  0  0
  162.4820  210.4140  148.6540 C   0  0  0  0  0  2  0  0  0  0  0  0
  161.3110  211.9210  150.2610 C   0  0  0  0  0  3  0  0  0  0  0  0
  160.9740  212.2090  147.7990 C   0  0  1  0  0  3  0  0  0  0  0  0
  160.7980  213.1670  146.8020 O   0  0  0  0  0  1  0  0  0  0  0  0
  162.3210  211.5240  147.6170 C   0  0  0  0  0  2  0  0  0  0  0  0
  162.0810  210.8390  150.0540 C   0  0  0  0  0  0  0  0  0  0  0  0
  160.9500  212.8860  149.1640 C   0  0  0  0  0  2  0  0  0  0  0  0
  161.6830  206.1590  151.9920 C   0  0  2  0  0  3  0  0  0  0  0  0
  161.9260  206.0700  153.3690 O   0  0  0  0  0  1  0  0  0  0  0  0
  162.0780  204.8690  151.2910 C   0  0  0  0  0  2  0  0  0  0  0  0
  160.8470  204.1570  150.7590 C   0  0  0  0  0  2  0  0  0  0  0  0
  161.1190  203.6080  149.3700 C   0  0  0  0  0  2  0  0  0  0  0  0
  161.1530  204.6920  148.4030 N   0  0  0  0  0  2  0  0  0  0  0  0
  161.8460  204.1860  147.2330 C   0  0  0  0  0  1  0  0  0  0  0  0
  2  6  1  6  0  0  0
  2  3  1  0  0  0  0
  2  5  1  0  0  0  0
  2  7  1  0  0  0  0
  3 25  1  6  0  0  0
  3  8  1  0  0  0  0
  4  8  1  1  0  0  0
  4  1  1  0  0  0  0
  4 13  1  0  0  0  0
  5 27  1  1  0  0  0
  6  5  1  0  0  0  0
  7  1  1  0  0  0  0
  9 16  1  1  0  0  0
 10 17  2  0  0  0  0
 10 11  1  0  0  0  0
 11 15  2  0  0  0  0
 12  9  1  0  0  0  0
 13 11  1  0  0  0  0
 13 12  1  1  0  0  0
 14 18  2  0  0  0  0
 15 18  1  0  0  0  0
 15  9  1  0  0  0  0
 17 14  1  0  0  0  0
 19 10  1  0  0  0  0
 20 25  1  0  0  0  0
 22 23  1  6  0  0  0
 22 26  1  0  0  0  0
 24 22  1  0  0  0  0
 24 20  1  0  0  0  0
 25 21  2  0  0  0  0
 26 21  1  0  0  0  0
 27 28  1  1  0  0  0
 29 27  1  0  0  0  0
 30 29  1  0  0  0  0
 31 30  1  0  0  0  0
 32 31  1  0  0  0  0
 33 32  1  0  0  0  0
M  END
>  <MODEL>
6

>  <REMARK>
 VINA RESULT:      -4.3      2.355      3.413
  Name = 
  7 active torsions:
  status: ('A' for Active; 'I' for Inactive)
    1  A    between atoms: N_2  and  C_9
    2  A    between atoms: C_4  and  C_24
    3  A    between atoms: C_4  and  C_29
    4  A    between atoms: C_9  and  C_23
    5  A    between atoms: C_12  and  N_20
    6  A    between atoms: C_18  and  C_26
    7  A    between atoms: C_23  and  C_29
                            x       y       z     vdW  Elec       q    Type
                         _______ _______ _______ _____ _____    ______ ____

>  <TORSDO>
F 7

$$$$
=
 OpenBabel11042422363D

 33 37  0  0  1  0  0  0  0  0999 V2000
  160.5980  206.0280  152.9950 C   0  0  0  0  0  2  0  0  0  0  0  0
  161.2780  205.4730  150.6640 C   0  0  2  0  0  0  0  0  0  0  0  0
  162.5110  206.3680  150.8180 C   0  0  2  0  0  3  0  0  0  0  0  0
  161.5520  207.1430  152.9540 N   0  0  2  0  0  0  0  0  0  0  0  0
  161.6050  204.0460  150.2220 C   0  0  2  0  0  3  0  0  0  0  0  0
  160.9440  205.0290  149.2540 C   0  0  0  0  0  2  0  0  0  0  0  0
  160.0850  205.7280  151.5880 C   0  0  0  0  0  2  0  0  0  0  0  0
  162.7650  206.6360  152.3040 C   0  0  0  0  0  2  0  0  0  0  0  0
  159.8700  207.2030  155.7620 C   0  0  2  0  0  3  0  0  0  0  0  0
  161.5730  210.1580  154.3790 C   0  0  0  0  0  0  0  0  0  0  0  0
  161.1830  208.8450  154.6700 C   0  0  0  0  0  0  0  0  0  0  0  0
  161.2000  206.5790  155.3250 C   0  0  0  0  0  2  0  0  0  0  0  0
  161.8700  207.5570  154.3310 C   0  0  1  0  0  3  0  0  0  0  0  0
  159.5990  210.9130  155.4980 N   0  0  0  0  0  0  0  0  0  0  0  0
  160.0580  208.6260  155.4160 C   0  0  0  0  0  0  0  0  0  0  0  0
  159.7070  207.0320  157.2610 C   0  0  0  0  0  1  0  0  0  0  0  0
  160.7380  211.1990  154.8030 C   0  0  0  0  0  3  0  0  0  0  0  0
  159.2680  209.6570  155.8110 N   0  0  0  0  0  0  0  0  0  0  0  0
  162.8560  210.4780  153.6950 C   0  0  0  0  0  1  0  0  0  0  0  0
  162.3470  207.6210  148.5230 C   0  0  0  0  0  2  0  0  0  0  0  0
  162.1880  208.7850  150.7240 C   0  0  0  0  0  3  0  0  0  0  0  0
  161.5470  209.9820  148.6230 C   0  0  1  0  0  3  0  0  0  0  0  0
  161.5860  211.2240  147.9910 O   0  0  0  0  0  1  0  0  0  0  0  0
  162.4530  209.0060  147.8860 C   0  0  0  0  0  2  0  0  0  0  0  0
  162.4130  207.6520  150.0390 C   0  0  0  0  0  0  0  0  0  0  0  0
  162.0460  210.1260  150.0550 C   0  0  0  0  0  2  0  0  0  0  0  0
  160.6480  202.9330  150.6990 C   0  0  2  0  0  3  0  0  0  0  0  0
  160.7620  202.6360  152.0630 O   0  0  0  0  0  1  0  0  0  0  0  0
  160.8240  201.6780  149.8590 C   0  0  0  0  0  2  0  0  0  0  0  0
  160.1500  201.8460  148.5090 C   0  0  0  0  0  2  0  0  0  0  0  0
  161.1900  201.8580  147.4030 C   0  0  0  0  0  2  0  0  0  0  0  0
  160.8300  200.9010  146.3700 N   0  0  0  0  0  2  0  0  0  0  0  0
  160.3010  201.6680  145.2570 C   0  0  0  0  0  1  0  0  0  0  0  0
  2  6  1  6  0  0  0
  2  3  1  0  0  0  0
  2  7  1  0  0  0  0
  3 25  1  6  0  0  0
  3  8  1  0  0  0  0
  4  8  1  1  0  0  0
  4  1  1  0  0  0  0
  4 13  1  0  0  0  0
  5  2  1  0  0  0  0
  5 27  1  1  0  0  0
  6  5  1  0  0  0  0
  7  1  1  0  0  0  0
  9 16  1  1  0  0  0
 10 11  2  0  0  0  0
 10 17  1  0  0  0  0
 11 15  1  0  0  0  0
 12  9  1  0  0  0  0
 13 11  1  0  0  0  0
 13 12  1  1  0  0  0
 14 18  1  0  0  0  0
 15  9  1  0  0  0  0
 15 18  2  0  0  0  0
 17 14  2  0  0  0  0
 19 10  1  0  0  0  0
 20 25  1  0  0  0  0
 22 23  1  6  0  0  0
 22 26  1  0  0  0  0
 24 20  1  0  0  0  0
 24 22  1  0  0  0  0
 25 21  2  0  0  0  0
 26 21  1  0  0  0  0
 27 28  1  1  0  0  0
 29 27  1  0  0  0  0
 30 29  1  0  0  0  0
 31 30  1  0  0  0  0
 32 31  1  0  0  0  0
 33 32  1  0  0  0  0
M  END
>  <MODEL>
7

>  <REMARK>
 VINA RESULT:      -4.1      1.666      2.117
  Name = 
  7 active torsions:
  status: ('A' for Active; 'I' for Inactive)
    1  A    between atoms: N_2  and  C_9
    2  A    between atoms: C_4  and  C_24
    3  A    between atoms: C_4  and  C_29
    4  A    between atoms: C_9  and  C_23
    5  A    between atoms: C_12  and  N_20
    6  A    between atoms: C_18  and  C_26
    7  A    between atoms: C_23  and  C_29
                            x       y       z     vdW  Elec       q    Type
                         _______ _______ _______ _____ _____    ______ ____

>  <TORSDO>
F 7

$$$$
=
 OpenBabel11042422363D

 33 37  0  0  1  0  0  0  0  0999 V2000
  161.7780  210.1790  152.6430 C   0  0  0  0  0  2  0  0  0  0  0  0
  161.9010  209.1550  150.3760 C   0  0  2  0  0  0  0  0  0  0  0  0
  160.7400  208.2250  150.7410 C   0  0  2  0  0  3  0  0  0  0  0  0
  160.9570  209.0360  153.0610 N   0  0  2  0  0  0  0  0  0  0  0  0
  161.6660  209.9600  149.0970 C   0  0  2  0  0  3  0  0  0  0  0  0
  162.6690  208.8050  149.1180 C   0  0  0  0  0  2  0  0  0  0  0  0
  162.7220  209.7620  151.5170 C   0  0  0  0  0  2  0  0  0  0  0  0
  160.0120  208.7770  151.9700 C   0  0  0  0  0  2  0  0  0  0  0  0
  160.3280  211.8570  154.5990 C   0  0  2  0  0  3  0  0  0  0  0  0
  161.8580  208.9560  156.2700 C   0  0  0  0  0  0  0  0  0  0  0  0
  161.1550  209.7790  155.3810 C   0  0  0  0  0  0  0  0  0  0  0  0
  159.4580  210.7240  154.0430 C   0  0  0  0  0  2  0  0  0  0  0  0
  160.2140  209.3950  154.2800 C   0  0  1  0  0  3  0  0  0  0  0  0
  162.7780  210.9320  157.2550 N   0  0  0  0  0  0  0  0  0  0  0  0
  161.2420  211.1380  155.5090 C   0  0  0  0  0  0  0  0  0  0  0  0
  159.4530  212.8260  155.3720 C   0  0  0  0  0  1  0  0  0  0  0  0
  162.6910  209.5710  157.2130 C   0  0  0  0  0  3  0  0  0  0  0  0
  162.0610  211.7040  156.4320 N   0  0  0  0  0  0  0  0  0  0  0  0
  161.7020  207.4760  156.2830 C   0  0  0  0  0  1  0  0  0  0  0  0
  161.7470  206.3640  152.2860 C   0  0  0  0  0  2  0  0  0  0  0  0
  160.8390  205.8990  150.0090 C   0  0  0  0  0  3  0  0  0  0  0  0
  161.3290  204.0090  151.5750 C   0  0  1  0  0  3  0  0  0  0  0  0
  161.8100  202.7030  151.6290 O   0  0  0  0  0  1  0  0  0  0  0  0
  162.3100  204.9440  152.2660 C   0  0  0  0  0  2  0  0  0  0  0  0
  161.1670  206.7980  150.9520 C   0  0  0  0  0  0  0  0  0  0  0  0
  161.1880  204.4390  150.1190 C   0  0  0  0  0  2  0  0  0  0  0  0
  162.3420  211.3450  149.0130 C   0  0  2  0  0  3  0  0  0  0  0  0
  161.5680  212.3840  149.5450 O   0  0  0  0  0  1  0  0  0  0  0  0
  162.7500  211.6560  147.5820 C   0  0  0  0  0  2  0  0  0  0  0  0
  162.2700  213.0410  147.1850 C   0  0  0  0  0  2  0  0  0  0  0  0
  161.5280  212.9780  145.8620 C   0  0  0  0  0  2  0  0  0  0  0  0
  160.1840  212.4650  146.0680 N   0  0  0  0  0  2  0  0  0  0  0  0
  159.5000  213.4160  146.9240 C   0  0  0  0  0  1  0  0  0  0  0  0
  1  4  1  0  0  0  0
  2  6  1  6  0  0  0
  2  3  1  0  0  0  0
  2  7  1  0  0  0  0
  3 25  1  1  0  0  0
  3  8  1  0  0  0  0
  4  8  1  6  0  0  0
  4 13  1  0  0  0  0
  5 27  1  1  0  0  0
  5  6  1  0  0  0  0
  5  2  1  0  0  0  0
  7  1  1  0  0  0  0
  9 16  1  1  0  0  0
  9 15  1  0  0  0  0
 10 19  1  0  0  0  0
 10 17  1  0  0  0  0
 11 15  1  0  0  0  0
 11 10  2  0  0  0  0
 12  9  1  0  0  0  0
 13 12  1  6  0  0  0
 13 11  1  0  0  0  0
 15 18  2  0  0  0  0
 17 14  2  0  0  0  0
 18 14  1  0  0  0  0
 21 26  1  0  0  0  0
 21 25  2  0  0  0  0
 22 23  1  6  0  0  0
 22 24  1  0  0  0  0
 24 20  1  0  0  0  0
 25 20  1  0  0  0  0
 26 22  1  0  0  0  0
 27 28  1  6  0  0  0
 29 27  1  0  0  0  0
 30 29  1  0  0  0  0
 31 32  1  0  0  0  0
 31 30  1  0  0  0  0
 32 33  1  0  0  0  0
M  END
>  <MODEL>
8

>  <REMARK>
 VINA RESULT:      -3.8      2.404      5.572
  Name = 
  7 active torsions:
  status: ('A' for Active; 'I' for Inactive)
    1  A    between atoms: N_2  and  C_9
    2  A    between atoms: C_4  and  C_24
    3  A    between atoms: C_4  and  C_29
    4  A    between atoms: C_9  and  C_23
    5  A    between atoms: C_12  and  N_20
    6  A    between atoms: C_18  and  C_26
    7  A    between atoms: C_23  and  C_29
                            x       y       z     vdW  Elec       q    Type
                         _______ _______ _______ _____ _____    ______ ____

>  <TORSDO>
F 7

$$$$
=
 OpenBabel11042422363D

 33 37  0  0  1  0  0  0  0  0999 V2000
  160.9530  207.0550  151.9130 C   0  0  0  0  0  2  0  0  0  0  0  0
  161.5810  207.9990  149.6950 C   0  0  2  0  0  0  0  0  0  0  0  0
  162.4600  209.0400  150.3950 C   0  0  2  0  0  3  0  0  0  0  0  0
  161.4820  208.2780  152.5270 N   0  0  2  0  0  0  0  0  0  0  0  0
  162.3200  207.1830  148.6340 C   0  0  2  0  0  3  0  0  0  0  0  0
  161.2940  208.2430  148.2270 C   0  0  0  0  0  2  0  0  0  0  0  0
  160.4510  207.3540  150.5010 C   0  0  0  0  0  2  0  0  0  0  0  0
  162.7350  208.5900  151.8330 C   0  0  0  0  0  2  0  0  0  0  0  0
  159.6240  207.4960  155.1080 C   0  0  2  0  0  3  0  0  0  0  0  0
  161.9120  210.3780  155.0810 C   0  0  0  0  0  0  0  0  0  0  0  0
  161.2810  209.1610  154.7980 C   0  0  0  0  0  0  0  0  0  0  0  0
  160.8570  206.8680  154.4460 C   0  0  0  0  0  2  0  0  0  0  0  0
  161.7600  208.0220  153.9510 C   0  0  1  0  0  3  0  0  0  0  0  0
  160.0180  210.9650  156.4180 N   0  0  0  0  0  0  0  0  0  0  0  0
  160.0810  208.8710  155.3870 C   0  0  0  0  0  0  0  0  0  0  0  0
  159.3200  206.7580  156.3980 C   0  0  0  0  0  1  0  0  0  0  0  0
  161.2390  211.2900  155.9040 C   0  0  0  0  0  3  0  0  0  0  0  0
  159.4520  209.7780  156.1790 N   0  0  0  0  0  0  0  0  0  0  0  0
  163.2800  210.7030  154.5910 C   0  0  0  0  0  1  0  0  0  0  0  0
  161.9610  211.2520  149.0840 C   0  0  0  0  0  2  0  0  0  0  0  0
  161.1350  210.8260  151.4000 C   0  0  0  0  0  3  0  0  0  0  0  0
  160.2150  212.7360  150.0710 C   0  0  1  0  0  3  0  0  0  0  0  0
  159.7670  214.0520  150.1730 O   0  0  0  0  0  1  0  0  0  0  0  0
  161.5110  212.6990  149.2730 C   0  0  0  0  0  2  0  0  0  0  0  0
  161.8820  210.4280  150.3560 C   0  0  0  0  0  0  0  0  0  0  0  0
  160.4840  212.1820  151.4640 C   0  0  0  0  0  2  0  0  0  0  0  0
  161.8230  205.7410  148.3950 C   0  0  2  0  0  3  0  0  0  0  0  0
  161.8400  204.9410  149.5450 O   0  0  0  0  0  1  0  0  0  0  0  0
  162.6070  205.0840  147.2700 C   0  0  0  0  0  2  0  0  0  0  0  0
  161.8780  203.8500  146.7690 C   0  0  0  0  0  2  0  0  0  0  0  0
  161.6900  203.9290  145.2650 C   0  0  0  0  0  2  0  0  0  0  0  0
  160.4130  203.3450  144.8910 N   0  0  0  0  0  2  0  0  0  0  0  0
  160.4550  201.9520  145.2950 C   0  0  0  0  0  1  0  0  0  0  0  0
  1  4  1  0  0  0  0
  2  6  1  6  0  0  0
  2  3  1  0  0  0  0
  2  7  1  0  0  0  0
  3 25  1  1  0  0  0
  3  8  1  0  0  0  0
  4  8  1  6  0  0  0
  4 13  1  0  0  0  0
  5 27  1  1  0  0  0
  5  2  1  0  0  0  0
  6  5  1  0  0  0  0
  7  1  1  0  0  0  0
  9 15  1  0  0  0  0
  9 16  1  1  0  0  0
 10 17  1  0  0  0  0
 11 10  2  0  0  0  0
 11 15  1  0  0  0  0
 12  9  1  0  0  0  0
 13 12  1  1  0  0  0
 13 11  1  0  0  0  0
 15 18  2  0  0  0  0
 17 14  2  0  0  0  0
 18 14  1  0  0  0  0
 19 10  1  0  0  0  0
 20 24  1  0  0  0  0
 20 25  1  0  0  0  0
 21 26  1  0  0  0  0
 22 23  1  1  0  0  0
 22 26  1  0  0  0  0
 24 22  1  0  0  0  0
 25 21  2  0  0  0  0
 27 28  1  1  0  0  0
 29 27  1  0  0  0  0
 30 29  1  0  0  0  0
 31 30  1  0  0  0  0
 32 31  1  0  0  0  0
 32 33  1  0  0  0  0
M  END
>  <MODEL>
9

>  <REMARK>
 VINA RESULT:      -3.8      1.106      1.640
  Name = 
  7 active torsions:
  status: ('A' for Active; 'I' for Inactive)
    1  A    between atoms: N_2  and  C_9
    2  A    between atoms: C_4  and  C_24
    3  A    between atoms: C_4  and  C_29
    4  A    between atoms: C_9  and  C_23
    5  A    between atoms: C_12  and  N_20
    6  A    between atoms: C_18  and  C_26
    7  A    between atoms: C_23  and  C_29
                            x       y       z     vdW  Elec       q    Type
                         _______ _______ _______ _____ _____    ______ ____

>  <TORSDO>
F 7

$$$$
