=
 OpenBabel11042422033D

 59 64  0  0  1  0  0  0  0  0999 V2000
  160.3840  207.2930  149.2570 C   0  0  1  0  0  3  0  0  0  0  0  0
  160.4050  206.9380  150.7670 C   0  0  2  0  0  3  0  0  0  0  0  0
  161.3530  212.5860  148.6920 C   0  0  2  0  0  3  0  0  0  0  0  0
  163.8230  208.7420  149.1630 C   0  0  0  0  0  1  0  0  0  0  0  0
  161.4020  210.2080  152.2190 C   0  0  0  0  0  0  0  0  0  0  0  0
  160.2110  208.0910  151.6440 N   0  0  0  0  0  2  0  0  0  0  0  0
  160.8060  212.1680  150.9710 O   0  0  0  0  0  0  0  0  0  0  0  0
  160.3580  212.6610  149.7720 N   0  0  0  0  0  0  0  0  0  0  0  0
  162.1180  208.0790  152.9910 O   0  0  0  0  0  0  0  0  0  0  0  0
  161.8910  211.1700  148.5130 C   0  0  0  0  0  2  0  0  0  0  0  0
  161.3750  208.3340  148.6930 C   0  0  2  0  0  3  0  0  0  0  0  0
  161.6330  206.8520  148.5170 C   0  0  0  0  0  2  0  0  0  0  0  0
  161.0610  210.7790  150.8640 C   0  0  1  0  0  3  0  0  0  0  0  0
  162.4010  208.9650  149.6540 C   0  0  2  0  0  3  0  0  0  0  0  0
  161.2540  208.7500  152.3650 C   0  0  0  0  0  0  0  0  0  0  0  0
  162.1770  210.4820  149.8500 C   0  0  1  0  0  3  0  0  0  0  0  0
  161.9820  210.9960  153.1400 C   0  0  0  0  0  3  0  0  0  0  0  0
  161.4710  208.2130  156.9030 O   0  0  0  0  0  0  0  0  0  0  0  0
  163.8260  210.9960  156.4620 C   0  0  0  0  0  0  0  0  0  0  0  0
  163.4710  211.3160  155.2160 C   0  0  0  0  0  3  0  0  0  0  0  0
  163.0640  209.9550  157.2520 C   0  0  0  0  0  2  0  0  0  0  0  0
  162.0550  209.2170  156.4210 C   0  0  0  0  0  0  0  0  0  0  0  0
  162.3450  210.6510  154.5280 C   0  0  0  0  0  0  0  0  0  0  0  0
  161.7360  209.6560  155.0950 N   0  0  0  0  0  0  0  0  0  0  0  0
  164.9200  211.6920  157.0590 N   0  0  0  0  0  2  0  0  0  0  0  0
  165.8580  213.8240  157.0280 O   0  0  0  0  0  1  0  0  0  0  0  0
  167.1520  212.0270  156.1750 C   0  0  0  0  0  1  0  0  0  0  0  0
  165.7680  212.6210  156.3280 C   0  0  1  0  0  3  0  0  0  0  0  0
  161.2120  205.7500  152.8180 C   0  0  0  0  0  1  0  0  0  0  0  0
  161.3320  205.8300  151.3030 C   0  0  1  0  0  3  0  0  0  0  0  0
  160.9660  204.5920  150.7690 O   0  0  0  0  0  0  0  0  0  0  0  0
  161.8000  204.4140  149.6600 C   0  0  0  0  0  2  0  0  0  0  0  0
  161.1450  202.0160  149.6540 C   0  0  0  0  0  3  0  0  0  0  0  0
  160.7840  200.8360  149.0010 C   0  0  0  0  0  3  0  0  0  0  0  0
  161.3020  203.1630  147.5150 C   0  0  0  0  0  0  0  0  0  0  0  0
  160.9220  201.9710  146.8620 C   0  0  0  0  0  0  0  0  0  0  0  0
  160.6720  200.8160  147.6110 C   0  0  0  0  0  3  0  0  0  0  0  0
  161.3940  203.1820  148.9220 C   0  0  0  0  0  0  0  0  0  0  0  0
  160.8040  201.8960  145.3740 C   0  0  0  0  0  2  0  0  0  0  0  0
  159.5340  201.1620  144.9870 C   0  0  0  0  0  1  0  0  0  0  0  0
  161.5620  204.4100  146.7250 C   0  0  0  0  0  2  0  0  0  0  0  0
  162.6700  204.2220  145.8980 O   0  0  0  0  0  1  0  0  0  0  0  0
  162.4050  213.4660  148.9600 O   0  0  0  0  0  0  0  0  0  0  0  0
  162.4660  214.3020  147.8440 C   0  0  0  0  0  2  0  0  0  0  0  0
  161.3160  214.1400  147.0700 O   0  0  0  0  0  0  0  0  0  0  0  0
  161.7250  214.4520  145.7740 C   0  0  0  0  0  2  0  0  0  0  0  0
  161.8610  213.1810  144.9540 C   0  0  0  0  0  2  0  0  0  0  0  0
  161.7460  213.3590  142.6860 O   0  0  0  0  0  0  0  0  0  0  0  0
  161.3030  212.1090  142.9720 C   0  0  1  0  0  3  0  0  0  0  0  0
  160.9560  213.2230  143.8180 N   0  0  0  0  0  0  0  0  0  0  0  0
  160.1320  211.7670  142.0720 C   0  0  0  0  0  2  0  0  0  0  0  0
  160.2930  212.3890  140.8330 O   0  0  0  0  0  0  0  0  0  0  0  0
  160.6120  211.3530  139.9560 C   0  0  0  0  0  2  0  0  0  0  0  0
  158.7170  212.2870  138.8920 F   0  0  0  0  0  0  0  0  0  0  0  0
  159.4620  211.1280  138.9970 C   0  0  0  0  0  2  0  0  0  0  0  0
  158.9790  212.2610  149.4400 C   0  0  0  0  0  2  0  0  0  0  0  0
  158.1240  213.1160  147.2740 C   0  0  0  0  0  1  0  0  0  0  0  0
  156.7430  213.3450  149.3100 C   0  0  0  0  0  1  0  0  0  0  0  0
  158.1570  213.3540  148.7670 C   0  0  0  0  0  3  0  0  0  0  0  0
  1 12  1  6  0  0  0
  1  2  1  0  0  0  0
  2 30  1  1  0  0  0
  2  6  1  0  0  0  0
  3 43  1  1  0  0  0
  3  8  1  0  0  0  0
  5 15  1  0  0  0  0
  5 17  2  0  0  0  0
  6 15  1  0  0  0  0
  8  7  1  0  0  0  0
 10  3  1  0  0  0  0
 11 12  1  6  0  0  0
 11  1  1  0  0  0  0
 11 14  1  0  0  0  0
 13  7  1  1  0  0  0
 13  5  1  0  0  0  0
 14  4  1  6  0  0  0
 14 16  1  0  0  0  0
 15  9  2  0  0  0  0
 16 10  1  6  0  0  0
 16 13  1  0  0  0  0
 17 23  1  0  0  0  0
 19 25  1  0  0  0  0
 19 21  1  0  0  0  0
 20 19  2  0  0  0  0
 22 18  2  0  0  0  0
 22 21  1  0  0  0  0
 23 24  2  0  0  0  0
 23 20  1  0  0  0  0
 24 22  1  0  0  0  0
 28 27  1  1  0  0  0
 28 26  1  0  0  0  0
 28 25  1  0  0  0  0
 30 29  1  1  0  0  0
 31 30  1  0  0  0  0
 32 31  1  0  0  0  0
 34 33  1  0  0  0  0
 35 38  1  0  0  0  0
 36 35  2  0  0  0  0
 36 37  1  0  0  0  0
 37 34  2  0  0  0  0
 38 33  2  0  0  0  0
 38 32  1  0  0  0  0
 39 36  1  0  0  0  0
 40 39  1  0  0  0  0
 41 35  1  0  0  0  0
 42 41  1  0  0  0  0
 44 43  1  0  0  0  0
 45 44  1  0  0  0  0
 46 45  1  0  0  0  0
 47 46  1  0  0  0  0
 48 49  1  0  0  0  0
 48 50  1  0  0  0  0
 49 51  1  6  0  0  0
 49 50  1  0  0  0  0
 50 47  1  0  0  0  0
 52 51  1  0  0  0  0
 53 52  1  0  0  0  0
 54 55  1  0  0  0  0
 55 53  1  0  0  0  0
 56  8  1  0  0  0  0
 57 59  1  0  0  0  0
 59 58  1  0  0  0  0
 59 56  1  0  0  0  0
M  END
>  <MODEL>
1

>  <REMARK>
 VINA RESULT:      -0.3      0.000      0.000
  Name = 
  21 active torsions:
  status: ('A' for Active; 'I' for Inactive)
    1  A    between atoms: C_4  and  C_9
    2  A    between atoms: O_5  and  C_25
    3  A    between atoms: O_5  and  C_41
    4  A    between atoms: C_9  and  O_17
    5  A    between atoms: O_11  and  C_15
    6  A    between atoms: O_11  and  C_26
    7  A    between atoms: C_12  and  C_48
    8  A    between atoms: O_17  and  C_24
    9  A    between atoms: C_18  and  N_38
   10  A    between atoms: C_21  and  C_47
   11  A    between atoms: C_23  and  O_29
   12  A    between atoms: C_23  and  C_56
   13  A    between atoms: C_24  and  C_52
   14  A    between atoms: C_25  and  C_39
   15  A    between atoms: C_26  and  O_29
   16  A    between atoms: N_32  and  C_48
   17  A    between atoms: C_35  and  C_36
   18  A    between atoms: N_38  and  C_58
   19  A    between atoms: C_41  and  C_42
   20  A    between atoms: C_45  and  C_57
   21  A    between atoms: N_50  and  C_56
                            x       y       z     vdW  Elec       q    Type
                         _______ _______ _______ _____ _____    ______ ____

>  <TORSDO>
F 21

$$$$
=
 OpenBabel11042422033D

 59 64  0  0  1  0  0  0  0  0999 V2000
  160.3610  207.3520  149.0240 C   0  0  1  0  0  3  0  0  0  0  0  0
  160.2690  206.9590  150.5210 C   0  0  2  0  0  3  0  0  0  0  0  0
  161.5020  212.6290  148.6670 C   0  0  2  0  0  3  0  0  0  0  0  0
  163.8340  208.7070  149.2010 C   0  0  0  0  0  1  0  0  0  0  0  0
  161.2490  210.1630  152.1240 C   0  0  0  0  0  0  0  0  0  0  0  0
  160.0450  208.0950  151.4130 N   0  0  0  0  0  2  0  0  0  0  0  0
  160.7900  212.1690  150.8920 O   0  0  0  0  0  0  0  0  0  0  0  0
  160.4380  212.7040  149.6790 N   0  0  0  0  0  0  0  0  0  0  0  0
  161.8550  207.9960  152.8860 O   0  0  0  0  0  0  0  0  0  0  0  0
  162.0150  211.2030  148.4870 C   0  0  0  0  0  2  0  0  0  0  0  0
  161.4140  208.3790  148.5560 C   0  0  2  0  0  3  0  0  0  0  0  0
  161.6460  206.8950  148.3580 C   0  0  0  0  0  2  0  0  0  0  0  0
  161.0150  210.7770  150.7650 C   0  0  1  0  0  3  0  0  0  0  0  0
  162.3880  208.9570  149.6000 C   0  0  2  0  0  3  0  0  0  0  0  0
  161.0540  208.7070  152.2210 C   0  0  0  0  0  0  0  0  0  0  0  0
  162.1900  210.4740  149.8210 C   0  0  1  0  0  3  0  0  0  0  0  0
  161.7850  210.9110  153.1040 C   0  0  0  0  0  3  0  0  0  0  0  0
  164.4120  211.2470  156.9950 O   0  0  0  0  0  0  0  0  0  0  0  0
  161.2720  209.3970  156.5500 C   0  0  0  0  0  0  0  0  0  0  0  0
  161.0620  209.7330  155.2750 C   0  0  0  0  0  3  0  0  0  0  0  0
  162.5510  209.7770  157.2610 C   0  0  0  0  0  2  0  0  0  0  0  0
  163.4050  210.7170  156.4600 C   0  0  0  0  0  0  0  0  0  0  0  0
  162.0430  210.5220  154.5030 C   0  0  0  0  0  0  0  0  0  0  0  0
  163.0980  210.9980  155.0890 N   0  0  0  0  0  0  0  0  0  0  0  0
  160.2780  208.6240  157.2230 N   0  0  0  0  0  2  0  0  0  0  0  0
  158.9150  207.0930  156.1170 O   0  0  0  0  0  1  0  0  0  0  0  0
  161.2390  206.6280  156.2390 C   0  0  0  0  0  1  0  0  0  0  0  0
  160.0330  207.2180  156.9400 C   0  0  1  0  0  3  0  0  0  0  0  0
  160.9400  205.7290  152.5970 C   0  0  0  0  0  1  0  0  0  0  0  0
  161.1290  205.8130  151.0890 C   0  0  1  0  0  3  0  0  0  0  0  0
  160.7400  204.5920  150.5300 O   0  0  0  0  0  0  0  0  0  0  0  0
  161.8630  204.1370  149.8340 C   0  0  0  0  0  2  0  0  0  0  0  0
  161.3020  201.7230  149.6390 C   0  0  0  0  0  3  0  0  0  0  0  0
  160.9740  200.5880  148.8960 C   0  0  0  0  0  3  0  0  0  0  0  0
  161.3710  203.0480  147.6010 C   0  0  0  0  0  0  0  0  0  0  0  0
  161.0240  201.9000  146.8570 C   0  0  0  0  0  0  0  0  0  0  0  0
  160.8340  200.6780  147.5110 C   0  0  0  0  0  3  0  0  0  0  0  0
  161.4900  202.9550  149.0030 C   0  0  0  0  0  0  0  0  0  0  0  0
  160.8780  201.9440  145.3700 C   0  0  0  0  0  2  0  0  0  0  0  0
  159.4990  201.4590  144.9660 C   0  0  0  0  0  1  0  0  0  0  0  0
  161.5660  204.3670  146.9120 C   0  0  0  0  0  2  0  0  0  0  0  0
  162.8610  204.4430  146.3990 O   0  0  0  0  0  1  0  0  0  0  0  0
  162.5550  213.4720  149.0290 O   0  0  0  0  0  0  0  0  0  0  0  0
  162.6500  214.3950  147.9860 C   0  0  0  0  0  2  0  0  0  0  0  0
  161.6120  214.1880  147.0770 O   0  0  0  0  0  0  0  0  0  0  0  0
  162.2450  214.1160  145.8370 C   0  0  0  0  0  2  0  0  0  0  0  0
  161.3960  213.3130  144.8670 C   0  0  0  0  0  2  0  0  0  0  0  0
  163.1070  213.4080  143.3690 O   0  0  0  0  0  0  0  0  0  0  0  0
  162.2700  212.4490  142.8990 C   0  0  1  0  0  3  0  0  0  0  0  0
  161.7490  213.6510  143.5000 N   0  0  0  0  0  0  0  0  0  0  0  0
  162.1770  212.5530  141.3890 C   0  0  0  0  0  2  0  0  0  0  0  0
  162.3070  211.2840  140.8220 O   0  0  0  0  0  0  0  0  0  0  0  0
  160.9980  210.8630  140.5920 C   0  0  0  0  0  2  0  0  0  0  0  0
  159.7250  209.8070  138.9000 F   0  0  0  0  0  0  0  0  0  0  0  0
  160.7780  210.6780  139.1050 C   0  0  0  0  0  2  0  0  0  0  0  0
  159.0750  212.3500  149.2430 C   0  0  0  0  0  2  0  0  0  0  0  0
  157.1290  213.2630  148.0050 C   0  0  0  0  0  1  0  0  0  0  0  0
  157.4110  213.7930  150.4010 C   0  0  0  0  0  1  0  0  0  0  0  0
  158.1380  213.5430  149.0960 C   0  0  0  0  0  3  0  0  0  0  0  0
  1 12  1  6  0  0  0
  1  2  1  0  0  0  0
  2 30  1  1  0  0  0
  2  6  1  0  0  0  0
  3 43  1  1  0  0  0
  3  8  1  0  0  0  0
  5 15  1  0  0  0  0
  5 17  2  0  0  0  0
  6 15  1  0  0  0  0
  8  7  1  0  0  0  0
 10  3  1  0  0  0  0
 11 12  1  6  0  0  0
 11  1  1  0  0  0  0
 11 14  1  0  0  0  0
 13  7  1  1  0  0  0
 13  5  1  0  0  0  0
 14  4  1  6  0  0  0
 14 16  1  0  0  0  0
 15  9  2  0  0  0  0
 16 10  1  6  0  0  0
 16 13  1  0  0  0  0
 17 23  1  0  0  0  0
 19 25  1  0  0  0  0
 19 21  1  0  0  0  0
 20 19  2  0  0  0  0
 22 18  2  0  0  0  0
 22 21  1  0  0  0  0
 23 24  2  0  0  0  0
 23 20  1  0  0  0  0
 24 22  1  0  0  0  0
 26 28  1  0  0  0  0
 28 27  1  6  0  0  0
 28 25  1  0  0  0  0
 30 29  1  1  0  0  0
 31 30  1  0  0  0  0
 32 31  1  0  0  0  0
 34 33  2  0  0  0  0
 35 38  2  0  0  0  0
 36 37  2  0  0  0  0
 36 35  1  0  0  0  0
 37 34  1  0  0  0  0
 38 33  1  0  0  0  0
 38 32  1  0  0  0  0
 39 36  1  0  0  0  0
 40 39  1  0  0  0  0
 41 35  1  0  0  0  0
 42 41  1  0  0  0  0
 44 43  1  0  0  0  0
 45 44  1  0  0  0  0
 46 45  1  0  0  0  0
 47 46  1  0  0  0  0
 48 50  1  0  0  0  0
 49 51  1  6  0  0  0
 49 48  1  0  0  0  0
 49 50  1  0  0  0  0
 50 47  1  0  0  0  0
 52 51  1  0  0  0  0
 53 52  1  0  0  0  0
 54 55  1  0  0  0  0
 55 53  1  0  0  0  0
 56  8  1  0  0  0  0
 57 59  1  0  0  0  0
 59 56  1  0  0  0  0
 59 58  1  0  0  0  0
M  END
>  <MODEL>
2

>  <REMARK>
 VINA RESULT:      -0.1      1.209      2.352
  Name = 
  21 active torsions:
  status: ('A' for Active; 'I' for Inactive)
    1  A    between atoms: C_4  and  C_9
    2  A    between atoms: O_5  and  C_25
    3  A    between atoms: O_5  and  C_41
    4  A    between atoms: C_9  and  O_17
    5  A    between atoms: O_11  and  C_15
    6  A    between atoms: O_11  and  C_26
    7  A    between atoms: C_12  and  C_48
    8  A    between atoms: O_17  and  C_24
    9  A    between atoms: C_18  and  N_38
   10  A    between atoms: C_21  and  C_47
   11  A    between atoms: C_23  and  O_29
   12  A    between atoms: C_23  and  C_56
   13  A    between atoms: C_24  and  C_52
   14  A    between atoms: C_25  and  C_39
   15  A    between atoms: C_26  and  O_29
   16  A    between atoms: N_32  and  C_48
   17  A    between atoms: C_35  and  C_36
   18  A    between atoms: N_38  and  C_58
   19  A    between atoms: C_41  and  C_42
   20  A    between atoms: C_45  and  C_57
   21  A    between atoms: N_50  and  C_56
                            x       y       z     vdW  Elec       q    Type
                         _______ _______ _______ _____ _____    ______ ____

>  <TORSDO>
F 21

$$$$
=
 OpenBabel11042422033D

 59 64  0  0  1  0  0  0  0  0999 V2000
  162.6460  210.6900  150.9970 C   0  0  1  0  0  3  0  0  0  0  0  0
  161.7110  211.9260  151.0640 C   0  0  2  0  0  3  0  0  0  0  0  0
  161.3850  207.3250  155.0420 C   0  0  2  0  0  3  0  0  0  0  0  0
  159.9110  208.1600  150.7720 C   0  0  0  0  0  1  0  0  0  0  0  0
  159.4670  210.9300  153.8510 C   0  0  0  0  0  0  0  0  0  0  0  0
  161.0870  212.1200  152.3710 N   0  0  0  0  0  2  0  0  0  0  0  0
  160.3820  209.4370  155.4900 O   0  0  0  0  0  0  0  0  0  0  0  0
  161.4080  208.5820  155.8040 N   0  0  0  0  0  0  0  0  0  0  0  0
  158.8020  212.1000  151.8940 O   0  0  0  0  0  0  0  0  0  0  0  0
  161.3460  207.5730  153.5370 C   0  0  0  0  0  2  0  0  0  0  0  0
  162.1000  209.2870  151.3380 C   0  0  2  0  0  3  0  0  0  0  0  0
  162.2770  209.7140  149.8950 C   0  0  0  0  0  2  0  0  0  0  0  0
  160.5020  209.8720  154.1480 C   0  0  1  0  0  3  0  0  0  0  0  0
  160.6070  209.1490  151.6950 C   0  0  2  0  0  3  0  0  0  0  0  0
  159.7330  211.7890  152.6840 C   0  0  0  0  0  0  0  0  0  0  0  0
  160.3850  208.7020  153.1580 C   0  0  1  0  0  3  0  0  0  0  0  0
  158.3040  210.9240  154.5230 C   0  0  0  0  0  3  0  0  0  0  0  0
  154.7290  213.2280  156.5390 O   0  0  0  0  0  0  0  0  0  0  0  0
  156.0220  213.6200  153.1260 C   0  0  0  0  0  0  0  0  0  0  0  0
  157.0070  212.7240  153.2190 C   0  0  0  0  0  3  0  0  0  0  0  0
  155.0160  213.7980  154.2410 C   0  0  0  0  0  2  0  0  0  0  0  0
  155.3820  213.0390  155.4820 C   0  0  0  0  0  0  0  0  0  0  0  0
  157.1930  211.8890  154.4230 C   0  0  0  0  0  0  0  0  0  0  0  0
  156.4520  212.0860  155.4690 N   0  0  0  0  0  0  0  0  0  0  0  0
  155.9060  214.3810  151.9230 N   0  0  0  0  0  2  0  0  0  0  0  0
  154.4130  214.3800  150.1360 O   0  0  0  0  0  1  0  0  0  0  0  0
  156.7120  214.0300  149.6650 C   0  0  0  0  0  1  0  0  0  0  0  0
  155.5740  213.7930  150.6350 C   0  0  1  0  0  3  0  0  0  0  0  0
  160.5280  213.8230  149.9350 C   0  0  0  0  0  1  0  0  0  0  0  0
  160.8670  212.3420  149.8440 C   0  0  1  0  0  3  0  0  0  0  0  0
  161.5840  212.1290  148.6630 O   0  0  0  0  0  0  0  0  0  0  0  0
  161.4470  213.3150  147.9360 C   0  0  0  0  0  2  0  0  0  0  0  0
  159.3360  212.5700  146.8560 C   0  0  0  0  0  3  0  0  0  0  0  0
  158.5530  212.2960  145.7330 C   0  0  0  0  0  3  0  0  0  0  0  0
  161.1740  213.2550  145.4190 C   0  0  0  0  0  0  0  0  0  0  0  0
  160.3730  212.9910  144.2880 C   0  0  0  0  0  0  0  0  0  0  0  0
  159.0710  212.5080  144.4550 C   0  0  0  0  0  3  0  0  0  0  0  0
  160.6380  213.0590  146.7080 C   0  0  0  0  0  0  0  0  0  0  0  0
  160.8890  213.1880  142.8980 C   0  0  0  0  0  2  0  0  0  0  0  0
  159.7400  213.1680  141.9080 C   0  0  0  0  0  1  0  0  0  0  0  0
  162.5680  213.7850  145.2530 C   0  0  0  0  0  2  0  0  0  0  0  0
  163.2720  212.9830  144.3550 O   0  0  0  0  0  1  0  0  0  0  0  0
  160.2800  206.5610  155.4280 O   0  0  0  0  0  0  0  0  0  0  0  0
  160.2320  205.5110  154.5100 C   0  0  0  0  0  2  0  0  0  0  0  0
  161.3980  205.5000  153.7440 O   0  0  0  0  0  0  0  0  0  0  0  0
  161.2810  204.3590  152.9510 C   0  0  0  0  0  2  0  0  0  0  0  0
  160.5660  204.7000  151.6550 C   0  0  0  0  0  2  0  0  0  0  0  0
  160.7680  203.5470  149.7020 O   0  0  0  0  0  0  0  0  0  0  0  0
  160.7180  204.8540  149.3440 C   0  0  1  0  0  3  0  0  0  0  0  0
  161.4370  204.4410  150.5230 N   0  0  0  0  0  0  0  0  0  0  0  0
  161.6940  205.1090  148.2130 C   0  0  0  0  0  2  0  0  0  0  0  0
  161.7510  203.9910  147.3800 O   0  0  0  0  0  0  0  0  0  0  0  0
  162.2230  204.4790  146.1620 C   0  0  0  0  0  2  0  0  0  0  0  0
  160.3690  204.7100  144.7110 F   0  0  0  0  0  0  0  0  0  0  0  0
  161.1990  205.4180  145.5600 C   0  0  0  0  0  2  0  0  0  0  0  0
  162.7150  209.2480  155.9570 C   0  0  0  0  0  2  0  0  0  0  0  0
  162.5990  211.3600  157.2530 C   0  0  0  0  0  1  0  0  0  0  0  0
  163.8810  211.2890  155.1430 C   0  0  0  0  0  1  0  0  0  0  0  0
  162.6540  210.7680  155.8630 C   0  0  0  0  0  3  0  0  0  0  0  0
  1 12  1  6  0  0  0
  1  2  1  0  0  0  0
  1 11  1  0  0  0  0
  2 30  1  6  0  0  0
  2  6  1  0  0  0  0
  3 43  1  1  0  0  0
  3  8  1  0  0  0  0
  5 17  2  0  0  0  0
  6 15  1  0  0  0  0
  7  8  1  0  0  0  0
  8 56  1  0  0  0  0
  9 15  2  0  0  0  0
 10  3  1  0  0  0  0
 11 12  1  6  0  0  0
 11 14  1  0  0  0  0
 13  5  1  6  0  0  0
 13  7  1  0  0  0  0
 14  4  1  6  0  0  0
 14 16  1  0  0  0  0
 15  5  1  0  0  0  0
 16 10  1  1  0  0  0
 16 13  1  0  0  0  0
 19 20  2  0  0  0  0
 19 21  1  0  0  0  0
 20 23  1  0  0  0  0
 21 22  1  0  0  0  0
 22 18  2  0  0  0  0
 23 17  1  0  0  0  0
 23 24  2  0  0  0  0
 24 22  1  0  0  0  0
 25 19  1  0  0  0  0
 26 28  1  0  0  0  0
 28 27  1  6  0  0  0
 28 25  1  0  0  0  0
 30 29  1  1  0  0  0
 31 30  1  0  0  0  0
 32 31  1  0  0  0  0
 34 33  2  0  0  0  0
 35 38  2  0  0  0  0
 36 37  2  0  0  0  0
 36 35  1  0  0  0  0
 37 34  1  0  0  0  0
 38 33  1  0  0  0  0
 38 32  1  0  0  0  0
 39 36  1  0  0  0  0
 40 39  1  0  0  0  0
 41 35  1  0  0  0  0
 42 41  1  0  0  0  0
 44 43  1  0  0  0  0
 45 44  1  0  0  0  0
 46 45  1  0  0  0  0
 47 46  1  0  0  0  0
 48 50  1  0  0  0  0
 49 51  1  6  0  0  0
 49 48  1  0  0  0  0
 49 50  1  0  0  0  0
 50 47  1  0  0  0  0
 52 51  1  0  0  0  0
 53 52  1  0  0  0  0
 54 55  1  0  0  0  0
 55 53  1  0  0  0  0
 58 59  1  0  0  0  0
 59 56  1  0  0  0  0
 59 57  1  0  0  0  0
M  END
>  <MODEL>
3

>  <REMARK>
 VINA RESULT:       0.2      3.086      8.878
  Name = 
  21 active torsions:
  status: ('A' for Active; 'I' for Inactive)
    1  A    between atoms: C_4  and  C_9
    2  A    between atoms: O_5  and  C_25
    3  A    between atoms: O_5  and  C_41
    4  A    between atoms: C_9  and  O_17
    5  A    between atoms: O_11  and  C_15
    6  A    between atoms: O_11  and  C_26
    7  A    between atoms: C_12  and  C_48
    8  A    between atoms: O_17  and  C_24
    9  A    between atoms: C_18  and  N_38
   10  A    between atoms: C_21  and  C_47
   11  A    between atoms: C_23  and  O_29
   12  A    between atoms: C_23  and  C_56
   13  A    between atoms: C_24  and  C_52
   14  A    between atoms: C_25  and  C_39
   15  A    between atoms: C_26  and  O_29
   16  A    between atoms: N_32  and  C_48
   17  A    between atoms: C_35  and  C_36
   18  A    between atoms: N_38  and  C_58
   19  A    between atoms: C_41  and  C_42
   20  A    between atoms: C_45  and  C_57
   21  A    between atoms: N_50  and  C_56
                            x       y       z     vdW  Elec       q    Type
                         _______ _______ _______ _____ _____    ______ ____

>  <TORSDO>
F 21

$$$$
=
 OpenBabel11042422033D

 59 64  0  0  1  0  0  0  0  0999 V2000
  160.6030  203.4180  149.3970 C   0  0  1  0  0  3  0  0  0  0  0  0
  160.4160  204.6890  150.2650 C   0  0  2  0  0  3  0  0  0  0  0  0
  161.2430  204.9070  144.2350 C   0  0  2  0  0  3  0  0  0  0  0  0
  163.8950  204.4260  147.9550 C   0  0  0  0  0  1  0  0  0  0  0  0
  160.9260  207.3370  147.7110 C   0  0  0  0  0  0  0  0  0  0  0  0
  160.0020  205.8650  149.5030 N   0  0  0  0  0  2  0  0  0  0  0  0
  160.3840  206.7670  145.4460 O   0  0  0  0  0  0  0  0  0  0  0  0
  160.0900  205.7570  144.5650 N   0  0  0  0  0  0  0  0  0  0  0  0
  161.6720  207.4300  149.9650 O   0  0  0  0  0  0  0  0  0  0  0  0
  161.9090  204.3410  145.4850 C   0  0  0  0  0  2  0  0  0  0  0  0
  161.5870  203.4300  148.2070 C   0  0  2  0  0  3  0  0  0  0  0  0
  161.9810  202.7960  149.5250 C   0  0  0  0  0  2  0  0  0  0  0  0
  160.7560  206.2280  146.7010 C   0  0  1  0  0  3  0  0  0  0  0  0
  162.4010  204.7110  147.9440 C   0  0  2  0  0  3  0  0  0  0  0  0
  160.8680  206.9390  149.1280 C   0  0  0  0  0  0  0  0  0  0  0  0
  162.0350  205.3820  146.6000 C   0  0  1  0  0  3  0  0  0  0  0  0
  161.2950  208.5600  147.2950 C   0  0  0  0  0  3  0  0  0  0  0  0
  163.0000  210.6870  151.1320 O   0  0  0  0  0  0  0  0  0  0  0  0
  161.2390  212.2230  148.3010 C   0  0  0  0  0  0  0  0  0  0  0  0
  161.0680  211.1070  147.5880 C   0  0  0  0  0  3  0  0  0  0  0  0
  161.8150  212.1800  149.6980 C   0  0  0  0  0  2  0  0  0  0  0  0
  162.3430  210.8250  150.0690 C   0  0  0  0  0  0  0  0  0  0  0  0
  161.4630  209.7810  148.1050 C   0  0  0  0  0  0  0  0  0  0  0  0
  162.0880  209.6870  149.2380 N   0  0  0  0  0  0  0  0  0  0  0  0
  160.8210  213.4640  147.7320 N   0  0  0  0  0  2  0  0  0  0  0  0
  162.9290  214.4530  147.7870 O   0  0  0  0  0  1  0  0  0  0  0  0
  162.0150  213.9000  145.6690 C   0  0  0  0  0  1  0  0  0  0  0  0
  161.7320  214.3870  147.0740 C   0  0  1  0  0  3  0  0  0  0  0  0
  162.4840  205.8580  151.0600 C   0  0  0  0  0  1  0  0  0  0  0  0
  161.3300  204.9560  151.4770 C   0  0  1  0  0  3  0  0  0  0  0  0
  160.6160  205.5990  152.4910 O   0  0  0  0  0  0  0  0  0  0  0  0
  161.3950  206.7070  152.8370 C   0  0  0  0  0  2  0  0  0  0  0  0
  160.5390  206.4280  155.1540 C   0  0  0  0  0  3  0  0  0  0  0  0
  160.0420  206.9340  156.3560 C   0  0  0  0  0  3  0  0  0  0  0  0
  160.7210  208.6850  154.2670 C   0  0  0  0  0  0  0  0  0  0  0  0
  160.2330  209.1920  155.4900 C   0  0  0  0  0  0  0  0  0  0  0  0
  159.8920  208.3110  156.5220 C   0  0  0  0  0  3  0  0  0  0  0  0
  160.8900  207.2940  154.1130 C   0  0  0  0  0  0  0  0  0  0  0  0
  160.0400  210.6580  155.7110 C   0  0  0  0  0  2  0  0  0  0  0  0
  160.2730  211.0030  157.1690 C   0  0  0  0  0  1  0  0  0  0  0  0
  161.1010  209.6200  153.1570 C   0  0  0  0  0  2  0  0  0  0  0  0
  159.9600  210.0000  152.4510 O   0  0  0  0  0  1  0  0  0  0  0  0
  162.1710  205.6410  143.4910 O   0  0  0  0  0  0  0  0  0  0  0  0
  161.5590  205.8430  142.2530 C   0  0  0  0  0  2  0  0  0  0  0  0
  162.1370  206.9410  141.6150 O   0  0  0  0  0  0  0  0  0  0  0  0
  162.1990  206.5690  140.2730 C   0  0  0  0  0  2  0  0  0  0  0  0
  161.6560  207.6870  139.3990 C   0  0  0  0  0  2  0  0  0  0  0  0
  162.1470  209.8600  138.9250 O   0  0  0  0  0  0  0  0  0  0  0  0
  160.9510  209.8920  139.5660 C   0  0  1  0  0  3  0  0  0  0  0  0
  161.9840  208.9770  139.9820 N   0  0  0  0  0  0  0  0  0  0  0  0
  160.9130  211.0790  140.5090 C   0  0  0  0  0  2  0  0  0  0  0  0
  159.9580  211.9980  140.0700 O   0  0  0  0  0  0  0  0  0  0  0  0
  159.9720  213.0090  141.0300 C   0  0  0  0  0  2  0  0  0  0  0  0
  161.8590  212.9250  142.4550 F   0  0  0  0  0  0  0  0  0  0  0  0
  161.3960  213.4630  141.2690 C   0  0  0  0  0  2  0  0  0  0  0  0
  158.8140  205.0740  144.8430 C   0  0  0  0  0  2  0  0  0  0  0  0
  159.0900  202.6100  144.8760 C   0  0  0  0  0  1  0  0  0  0  0  0
  157.1440  203.6060  143.7260 C   0  0  0  0  0  1  0  0  0  0  0  0
  158.6120  203.7850  144.0550 C   0  0  0  0  0  3  0  0  0  0  0  0
  1 12  1  1  0  0  0
  1  2  1  0  0  0  0
  2 30  1  6  0  0  0
  3 43  1  1  0  0  0
  3  8  1  0  0  0  0
  3 10  1  0  0  0  0
  5 15  1  0  0  0  0
  6  2  1  0  0  0  0
  8 56  1  0  0  0  0
  8  7  1  0  0  0  0
 11  1  1  0  0  0  0
 11 12  1  1  0  0  0
 13  7  1  6  0  0  0
 13  5  1  0  0  0  0
 14  4  1  6  0  0  0
 14 11  1  0  0  0  0
 15  6  1  0  0  0  0
 15  9  2  0  0  0  0
 16 10  1  6  0  0  0
 16 13  1  0  0  0  0
 16 14  1  0  0  0  0
 17  5  2  0  0  0  0
 17 23  1  0  0  0  0
 19 21  1  0  0  0  0
 20 23  1  0  0  0  0
 20 19  2  0  0  0  0
 21 22  1  0  0  0  0
 22 18  2  0  0  0  0
 23 24  2  0  0  0  0
 24 22  1  0  0  0  0
 25 19  1  0  0  0  0
 28 27  1  6  0  0  0
 28 25  1  0  0  0  0
 28 26  1  0  0  0  0
 30 29  1  6  0  0  0
 30 31  1  0  0  0  0
 31 32  1  0  0  0  0
 32 38  1  0  0  0  0
 33 34  1  0  0  0  0
 34 37  2  0  0  0  0
 35 36  2  0  0  0  0
 36 39  1  0  0  0  0
 36 37  1  0  0  0  0
 38 35  1  0  0  0  0
 38 33  2  0  0  0  0
 39 40  1  0  0  0  0
 41 35  1  0  0  0  0
 42 41  1  0  0  0  0
 44 43  1  0  0  0  0
 45 44  1  0  0  0  0
 46 45  1  0  0  0  0
 47 50  1  0  0  0  0
 47 46  1  0  0  0  0
 48 49  1  0  0  0  0
 48 50  1  0  0  0  0
 49 50  1  0  0  0  0
 49 51  1  1  0  0  0
 52 51  1  0  0  0  0
 52 53  1  0  0  0  0
 53 55  1  0  0  0  0
 55 54  1  0  0  0  0
 58 59  1  0  0  0  0
 59 56  1  0  0  0  0
 59 57  1  0  0  0  0
M  END
>  <MODEL>
4

>  <REMARK>
 VINA RESULT:       1.5      3.014      7.678
  Name = 
  21 active torsions:
  status: ('A' for Active; 'I' for Inactive)
    1  A    between atoms: C_4  and  C_9
    2  A    between atoms: O_5  and  C_25
    3  A    between atoms: O_5  and  C_41
    4  A    between atoms: C_9  and  O_17
    5  A    between atoms: O_11  and  C_15
    6  A    between atoms: O_11  and  C_26
    7  A    between atoms: C_12  and  C_48
    8  A    between atoms: O_17  and  C_24
    9  A    between atoms: C_18  and  N_38
   10  A    between atoms: C_21  and  C_47
   11  A    between atoms: C_23  and  O_29
   12  A    between atoms: C_23  and  C_56
   13  A    between atoms: C_24  and  C_52
   14  A    between atoms: C_25  and  C_39
   15  A    between atoms: C_26  and  O_29
   16  A    between atoms: N_32  and  C_48
   17  A    between atoms: C_35  and  C_36
   18  A    between atoms: N_38  and  C_58
   19  A    between atoms: C_41  and  C_42
   20  A    between atoms: C_45  and  C_57
   21  A    between atoms: N_50  and  C_56
                            x       y       z     vdW  Elec       q    Type
                         _______ _______ _______ _____ _____    ______ ____

>  <TORSDO>
F 21

$$$$
