=
 OpenBabel11052411283D

 57 62  0  0  1  0  0  0  0  0999 V2000
  160.5750  207.4140  154.1540 C   0  0  0  0  0  0  0  0  0  0  0  0
  161.3150  203.9090  152.4630 S   0  0  0  0  0  0  0  0  0  0  0  0
  161.4500  204.5540  150.8010 C   0  0  0  0  0  0  0  0  0  0  0  0
  159.9930  210.5460  153.6110 C   0  0  0  0  0  1  0  0  0  0  0  0
  161.6310  205.5540  153.0080 N   0  0  0  0  0  0  0  0  0  0  0  0
  161.4630  211.2220  150.9680 C   0  0  0  0  0  0  0  0  0  0  0  0
  160.7610  212.1770  151.4020 O   0  0  0  0  0  0  0  0  0  0  0  0
  160.8010  209.6080  152.7730 C   0  0  0  0  0  0  0  0  0  0  0  0
  161.9190  205.7560  150.6940 N   0  0  0  0  0  0  0  0  0  0  0  0
  160.8610  206.1060  154.0950 C   0  0  0  0  0  3  0  0  0  0  0  0
  161.7830  207.7850  152.0150 C   0  0  0  0  0  0  0  0  0  0  0  0
  160.9540  203.8180  149.6730 N   0  0  0  0  0  2  0  0  0  0  0  0
  161.0190  208.2720  153.0420 C   0  0  0  0  0  0  0  0  0  0  0  0
  161.4270  209.9370  151.6120 N   0  0  0  0  0  0  0  0  0  0  0  0
  162.2690  206.3680  151.9620 C   0  0  1  0  0  3  0  0  0  0  0  0
  162.0450  208.8250  151.1430 C   0  0  0  0  0  3  0  0  0  0  0  0
  161.6700  205.2920  147.9490 C   0  0  0  0  0  3  0  0  0  0  0  0
  161.0960  204.1950  148.3240 N   0  0  0  0  0  0  0  0  0  0  0  0
  161.7840  205.6440  146.5100 C   0  0  0  0  0  2  0  0  0  0  0  0
  162.9000  204.8490  145.8480 C   0  0  0  0  0  2  0  0  0  0  0  0
  162.3440  203.6700  145.0570 C   0  0  0  0  0  2  0  0  0  0  0  0
  160.2970  201.6610  145.1800 C   0  0  0  0  0  1  0  0  0  0  0  0
  160.9210  203.9160  144.6340 C   0  0  0  0  0  0  0  0  0  0  0  0
  160.0220  202.9960  144.7010 N   0  0  0  0  0  0  0  0  0  0  0  0
  160.4640  205.5110  144.0550 Cl  0  0  0  0  0  0  0  0  0  0  0  0
  162.3050  211.4260  149.7430 C   0  0  0  0  0  2  0  0  0  0  0  0
  161.5310  211.1650  148.4570 C   0  0  2  0  0  3  0  0  0  0  0  0
  161.7990  209.7440  148.0030 C   0  0  0  0  0  1  0  0  0  0  0  0
  161.9550  212.1510  147.3650 C   0  0  0  0  0  2  0  0  0  0  0  0
  159.6860  213.0600  147.8680 C   0  0  0  0  0  1  0  0  0  0  0  0
  161.0470  213.3840  147.2720 C   0  0  1  0  0  0  0  0  0  0  0  0
  161.6090  214.4500  147.9810 O   0  0  0  0  0  1  0  0  0  0  0  0
  160.8570  213.7720  145.7950 C   0  0  1  0  0  3  0  0  0  0  0  0
  161.9810  214.4340  145.2810 O   0  0  0  0  0  1  0  0  0  0  0  0
  160.3960  212.6220  144.8830 C   0  0  1  0  0  3  0  0  0  0  0  0
  159.1690  212.1460  145.3490 O   0  0  0  0  0  1  0  0  0  0  0  0
  161.2820  211.5860  141.8710 C   0  0  0  0  0  2  0  0  0  0  0  0
  161.4950  213.4830  142.9000 O   0  0  0  0  0  0  0  0  0  0  0  0
  162.1950  212.4200  142.5220 O   0  0  0  0  0  0  0  0  0  0  0  0
  159.9820  211.7650  142.5820 C   0  0  0  0  0  2  0  0  0  0  0  0
  160.2780  212.9880  143.3950 C   0  0  1  0  0  3  0  0  0  0  0  0
  159.8080  207.9630  155.3100 C   0  0  0  0  0  2  0  0  0  0  0  0
  160.3000  207.4070  156.5580 N   0  0  0  0  0  2  0  0  0  0  0  0
  161.5330  208.1140  156.8690 C   0  0  0  0  0  2  0  0  0  0  0  0
  159.6750  211.4750  157.1750 C   0  0  1  0  0  3  0  0  0  0  0  0
  162.0280  211.7950  157.1950 C   0  0  0  0  0  2  0  0  0  0  0  0
  162.2810  210.4420  156.7020 N   0  0  0  0  0  2  0  0  0  0  0  0
  161.2570  209.5590  157.2590 C   0  0  1  0  0  3  0  0  0  0  0  0
  159.8670  210.0030  156.8090 C   0  0  0  0  0  2  0  0  0  0  0  0
  160.7690  212.2930  156.6450 N   0  0  0  0  0  2  0  0  0  0  0  0
  155.2170  210.6860  155.0020 C   0  0  0  0  0  1  0  0  0  0  0  0
  155.9000  212.9630  155.7680 C   0  0  0  0  0  3  0  0  0  0  0  0
  157.4280  211.1140  156.0850 C   0  0  0  0  0  3  0  0  0  0  0  0
  156.8220  213.8290  156.3630 C   0  0  0  0  0  3  0  0  0  0  0  0
  158.3580  211.9800  156.6790 C   0  0  0  0  0  0  0  0  0  0  0  0
  156.2010  211.6050  155.6290 C   0  0  0  0  0  0  0  0  0  0  0  0
  158.0500  213.3360  156.8200 C   0  0  0  0  0  3  0  0  0  0  0  0
  1 42  1  0  0  0  0
  2  5  1  0  0  0  0
  3  2  1  0  0  0  0
  5 10  1  0  0  0  0
  6  7  2  0  0  0  0
  6 14  1  0  0  0  0
  8 13  2  0  0  0  0
  8  4  1  0  0  0  0
  9  3  2  0  0  0  0
 10  1  2  0  0  0  0
 11 13  1  0  0  0  0
 12  3  1  0  0  0  0
 13  1  1  0  0  0  0
 14  8  1  0  0  0  0
 15  9  1  6  0  0  0
 15 11  1  0  0  0  0
 15  5  1  0  0  0  0
 16 14  1  0  0  0  0
 16 11  2  0  0  0  0
 17 18  2  0  0  0  0
 18 12  1  0  0  0  0
 19 17  1  0  0  0  0
 20 19  1  0  0  0  0
 21 20  1  0  0  0  0
 23 24  2  0  0  0  0
 23 21  1  0  0  0  0
 24 22  1  0  0  0  0
 25 23  1  0  0  0  0
 26  6  1  0  0  0  0
 27 28  1  6  0  0  0
 27 26  1  0  0  0  0
 29 27  1  0  0  0  0
 31 29  1  0  0  0  0
 31 30  1  1  0  0  0
 31 32  1  0  0  0  0
 33 34  1  6  0  0  0
 33 31  1  0  0  0  0
 35 36  1  1  0  0  0
 35 33  1  0  0  0  0
 37 39  1  0  0  0  0
 37 40  1  0  0  0  0
 38 41  1  0  0  0  0
 39 38  1  0  0  0  0
 40 41  1  0  0  0  0
 41 35  1  1  0  0  0
 42 43  1  0  0  0  0
 43 44  1  0  0  0  0
 45 55  1  6  0  0  0
 47 46  1  0  0  0  0
 47 48  1  0  0  0  0
 48 44  1  6  0  0  0
 49 45  1  0  0  0  0
 49 48  1  0  0  0  0
 50 45  1  0  0  0  0
 50 46  1  0  0  0  0
 51 56  1  0  0  0  0
 52 54  1  0  0  0  0
 53 55  2  0  0  0  0
 54 57  2  0  0  0  0
 55 57  1  0  0  0  0
 56 52  2  0  0  0  0
 56 53  1  0  0  0  0
M  END
>  <MODEL>
1

>  <REMARK>
 VINA RESULT:      -6.4      0.000      0.000
  Name = 
  17 active torsions:
  status: ('A' for Active; 'I' for Inactive)
    1  A    between atoms: C_1  and  C_22
    2  A    between atoms: C_1  and  C_24
    3  A    between atoms: C_2  and  C_40
    4  A    between atoms: C_4  and  C_44
    5  A    between atoms: N_7  and  N_46
    6  A    between atoms: C_12  and  C_37
    7  A    between atoms: C_14  and  C_54
    8  A    between atoms: C_16  and  C_24
    9  A    between atoms: C_16  and  C_28
   10  A    between atoms: C_17  and  C_39
   11  A    between atoms: C_22  and  C_39
   12  A    between atoms: N_23  and  C_26
   13  A    between atoms: N_23  and  C_40
   14  A    between atoms: C_26  and  C_31
   15  A    between atoms: C_28  and  C_56
   16  A    between atoms: C_44  and  C_45
   17  A    between atoms: C_45  and  C_54
                            x       y       z     vdW  Elec       q    Type
                         _______ _______ _______ _____ _____    ______ ____

>  <TORSDO>
F 17

$$$$
=
 OpenBabel11052411283D

 57 62  0  0  1  0  0  0  0  0999 V2000
  159.4730  212.4120  150.8930 C   0  0  0  0  0  0  0  0  0  0  0  0
  161.7100  209.2490  151.7250 S   0  0  0  0  0  0  0  0  0  0  0  0
  162.0950  208.8690  150.0220 C   0  0  0  0  0  0  0  0  0  0  0  0
  158.1210  214.1500  148.5280 C   0  0  0  0  0  1  0  0  0  0  0  0
  161.3320  210.8750  151.1590 N   0  0  0  0  0  0  0  0  0  0  0  0
  159.9830  213.8130  146.0740 C   0  0  0  0  0  0  0  0  0  0  0  0
  158.9270  214.4510  145.8090 O   0  0  0  0  0  0  0  0  0  0  0  0
  159.3800  213.3480  148.4660 C   0  0  0  0  0  0  0  0  0  0  0  0
  162.1770  209.8800  149.2170 N   0  0  0  0  0  0  0  0  0  0  0  0
  160.1570  211.5470  151.6560 C   0  0  0  0  0  3  0  0  0  0  0  0
  161.0520  212.0190  149.0150 C   0  0  0  0  0  0  0  0  0  0  0  0
  162.1900  207.5110  149.5640 N   0  0  0  0  0  2  0  0  0  0  0  0
  159.9200  212.6140  149.5040 C   0  0  0  0  0  0  0  0  0  0  0  0
  160.1710  213.2150  147.3690 N   0  0  0  0  0  0  0  0  0  0  0  0
  161.9500  211.1630  149.8560 C   0  0  1  0  0  3  0  0  0  0  0  0
  161.2090  212.4090  147.6990 C   0  0  0  0  0  3  0  0  0  0  0  0
  161.7680  206.5570  147.4270 C   0  0  0  0  0  3  0  0  0  0  0  0
  162.5770  207.1090  148.2720 N   0  0  0  0  0  0  0  0  0  0  0  0
  162.2340  206.1450  146.0770 C   0  0  0  0  0  2  0  0  0  0  0  0
  161.4270  204.9610  145.5670 C   0  0  0  0  0  2  0  0  0  0  0  0
  162.0300  203.6400  146.0310 C   0  0  0  0  0  2  0  0  0  0  0  0
  160.4400  201.2800  145.6540 C   0  0  0  0  0  1  0  0  0  0  0  0
  161.2070  203.0160  147.1260 C   0  0  0  0  0  0  0  0  0  0  0  0
  160.5040  201.9550  146.9290 N   0  0  0  0  0  0  0  0  0  0  0  0
  161.2250  203.7390  148.7280 Cl  0  0  0  0  0  0  0  0  0  0  0  0
  161.0270  213.6440  145.0090 C   0  0  0  0  0  2  0  0  0  0  0  0
  160.4450  213.1090  143.7080 C   0  0  2  0  0  3  0  0  0  0  0  0
  159.8780  211.7250  143.9560 C   0  0  0  0  0  1  0  0  0  0  0  0
  161.5240  213.0440  142.6230 C   0  0  0  0  0  2  0  0  0  0  0  0
  159.4540  213.2470  141.2440 C   0  0  0  0  0  1  0  0  0  0  0  0
  160.9740  213.2340  141.2030 C   0  0  1  0  0  0  0  0  0  0  0  0
  161.4230  214.4480  140.6740 O   0  0  0  0  0  1  0  0  0  0  0  0
  161.4340  212.0660  140.3130 C   0  0  1  0  0  3  0  0  0  0  0  0
  161.7620  210.9330  141.0690 O   0  0  0  0  0  1  0  0  0  0  0  0
  160.4820  211.7320  139.1520 C   0  0  1  0  0  3  0  0  0  0  0  0
  160.8230  212.5200  138.0520 O   0  0  0  0  0  1  0  0  0  0  0  0
  158.8220  209.5730  137.2770 C   0  0  0  0  0  2  0  0  0  0  0  0
  159.4060  209.5690  139.3650 O   0  0  0  0  0  0  0  0  0  0  0  0
  158.3480  209.7390  138.5810 O   0  0  0  0  0  0  0  0  0  0  0  0
  160.2090  210.1240  137.2710 C   0  0  0  0  0  2  0  0  0  0  0  0
  160.4620  210.2510  138.7410 C   0  0  1  0  0  3  0  0  0  0  0  0
  158.2830  213.1210  151.4450 C   0  0  0  0  0  2  0  0  0  0  0  0
  158.6600  214.4240  151.9620 N   0  0  0  0  0  2  0  0  0  0  0  0
  159.6650  214.1890  152.9880 C   0  0  0  0  0  2  0  0  0  0  0  0
  159.3030  211.4940  155.7170 C   0  0  1  0  0  3  0  0  0  0  0  0
  157.1800  212.3200  155.0470 C   0  0  0  0  0  2  0  0  0  0  0  0
  157.7330  212.9510  153.8490 N   0  0  0  0  0  2  0  0  0  0  0  0
  159.0800  213.4230  154.1660 C   0  0  1  0  0  3  0  0  0  0  0  0
  159.9740  212.2550  154.5730 C   0  0  0  0  0  2  0  0  0  0  0  0
  157.9360  211.1090  155.3590 N   0  0  0  0  0  2  0  0  0  0  0  0
  160.1060  206.5390  155.5500 C   0  0  0  0  0  1  0  0  0  0  0  0
  161.6290  208.0560  156.8210 C   0  0  0  0  0  3  0  0  0  0  0  0
  159.7340  209.0070  155.6550 C   0  0  0  0  0  3  0  0  0  0  0  0
  162.0010  209.3300  157.2590 C   0  0  0  0  0  3  0  0  0  0  0  0
  160.1020  210.2880  156.0950 C   0  0  0  0  0  0  0  0  0  0  0  0
  160.4960  207.8930  156.0190 C   0  0  0  0  0  0  0  0  0  0  0  0
  161.2390  210.4460  156.8930 C   0  0  0  0  0  3  0  0  0  0  0  0
  1 42  1  0  0  0  0
  1 10  2  0  0  0  0
  3  2  1  0  0  0  0
  5 10  1  0  0  0  0
  5  2  1  0  0  0  0
  6 14  1  0  0  0  0
  7  6  2  0  0  0  0
  8  4  1  0  0  0  0
  8 13  2  0  0  0  0
  9 15  1  0  0  0  0
  9  3  2  0  0  0  0
 11 13  1  0  0  0  0
 12  3  1  0  0  0  0
 13  1  1  0  0  0  0
 14 16  1  0  0  0  0
 14  8  1  0  0  0  0
 15 11  1  6  0  0  0
 15  5  1  0  0  0  0
 16 11  2  0  0  0  0
 17 18  2  0  0  0  0
 18 12  1  0  0  0  0
 19 17  1  0  0  0  0
 20 21  1  0  0  0  0
 20 19  1  0  0  0  0
 21 23  1  0  0  0  0
 22 24  1  0  0  0  0
 23 25  1  0  0  0  0
 24 23  2  0  0  0  0
 26  6  1  0  0  0  0
 27 28  1  1  0  0  0
 27 26  1  0  0  0  0
 29 27  1  0  0  0  0
 31 30  1  1  0  0  0
 31 29  1  0  0  0  0
 32 31  1  0  0  0  0
 33 34  1  1  0  0  0
 33 31  1  0  0  0  0
 35 36  1  6  0  0  0
 35 33  1  0  0  0  0
 37 39  1  0  0  0  0
 39 38  1  0  0  0  0
 40 37  1  0  0  0  0
 40 41  1  0  0  0  0
 41 35  1  1  0  0  0
 41 38  1  0  0  0  0
 42 43  1  0  0  0  0
 43 44  1  0  0  0  0
 45 55  1  6  0  0  0
 46 50  1  0  0  0  0
 47 48  1  0  0  0  0
 47 46  1  0  0  0  0
 48 44  1  6  0  0  0
 48 49  1  0  0  0  0
 49 45  1  0  0  0  0
 50 45  1  0  0  0  0
 51 56  1  0  0  0  0
 52 54  1  0  0  0  0
 53 56  1  0  0  0  0
 53 55  2  0  0  0  0
 55 57  1  0  0  0  0
 56 52  2  0  0  0  0
 57 54  2  0  0  0  0
M  END
>  <MODEL>
2

>  <REMARK>
 VINA RESULT:      -5.7      2.781      5.285
  Name = 
  17 active torsions:
  status: ('A' for Active; 'I' for Inactive)
    1  A    between atoms: C_1  and  C_22
    2  A    between atoms: C_1  and  C_24
    3  A    between atoms: C_2  and  C_40
    4  A    between atoms: C_4  and  C_44
    5  A    between atoms: N_7  and  N_46
    6  A    between atoms: C_12  and  C_37
    7  A    between atoms: C_14  and  C_54
    8  A    between atoms: C_16  and  C_24
    9  A    between atoms: C_16  and  C_28
   10  A    between atoms: C_17  and  C_39
   11  A    between atoms: C_22  and  C_39
   12  A    between atoms: N_23  and  C_26
   13  A    between atoms: N_23  and  C_40
   14  A    between atoms: C_26  and  C_31
   15  A    between atoms: C_28  and  C_56
   16  A    between atoms: C_44  and  C_45
   17  A    between atoms: C_45  and  C_54
                            x       y       z     vdW  Elec       q    Type
                         _______ _______ _______ _____ _____    ______ ____

>  <TORSDO>
F 17

$$$$
=
 OpenBabel11052411283D

 57 62  0  0  1  0  0  0  0  0999 V2000
  161.7450  210.6460  151.0110 C   0  0  0  0  0  0  0  0  0  0  0  0
  161.3470  214.0930  149.0980 S   0  0  0  0  0  0  0  0  0  0  0  0
  161.8520  213.4560  147.5060 C   0  0  0  0  0  0  0  0  0  0  0  0
  162.7400  207.5820  150.7660 C   0  0  0  0  0  1  0  0  0  0  0  0
  161.0010  212.4210  149.5330 N   0  0  0  0  0  0  0  0  0  0  0  0
  162.3420  206.8100  147.7910 C   0  0  0  0  0  0  0  0  0  0  0  0
  162.9270  205.9140  148.4610 O   0  0  0  0  0  0  0  0  0  0  0  0
  162.1980  208.4560  149.6810 C   0  0  0  0  0  0  0  0  0  0  0  0
  161.5520  212.2200  147.2670 N   0  0  0  0  0  0  0  0  0  0  0  0
  161.3890  211.9260  150.8300 C   0  0  0  0  0  3  0  0  0  0  0  0
  161.3910  210.1960  148.5940 C   0  0  0  0  0  0  0  0  0  0  0  0
  162.6450  214.2440  146.6060 N   0  0  0  0  0  2  0  0  0  0  0  0
  161.7890  209.7660  149.8320 C   0  0  0  0  0  0  0  0  0  0  0  0
  162.0440  208.0870  148.3830 N   0  0  0  0  0  0  0  0  0  0  0  0
  160.8370  211.5660  148.3470 C   0  0  1  0  0  3  0  0  0  0  0  0
  161.5360  209.1460  147.7060 C   0  0  0  0  0  3  0  0  0  0  0  0
  162.4330  214.3290  144.2380 C   0  0  0  0  0  3  0  0  0  0  0  0
  163.0130  213.8700  145.2990 N   0  0  0  0  0  0  0  0  0  0  0  0
  162.8590  213.8930  142.8830 C   0  0  0  0  0  2  0  0  0  0  0  0
  161.9010  212.8510  142.3270 C   0  0  0  0  0  2  0  0  0  0  0  0
  162.3770  212.3260  140.9770 C   0  0  0  0  0  2  0  0  0  0  0  0
  162.7280  211.0490  138.4310 C   0  0  0  0  0  1  0  0  0  0  0  0
  161.2370  211.7650  140.1720 C   0  0  0  0  0  0  0  0  0  0  0  0
  161.4230  211.1950  139.0320 N   0  0  0  0  0  0  0  0  0  0  0  0
  159.6040  211.8640  140.8160 Cl  0  0  0  0  0  0  0  0  0  0  0  0
  161.9980  206.5480  146.3550 C   0  0  0  0  0  2  0  0  0  0  0  0
  161.9370  205.0600  146.0360 C   0  0  2  0  0  3  0  0  0  0  0  0
  161.7080  204.8850  144.5480 C   0  0  0  0  0  1  0  0  0  0  0  0
  160.8060  204.3890  146.8210 C   0  0  0  0  0  2  0  0  0  0  0  0
  160.7280  201.9110  146.5340 C   0  0  0  0  0  1  0  0  0  0  0  0
  161.2060  203.0400  147.4340 C   0  0  1  0  0  0  0  0  0  0  0  0
  162.5970  202.9620  147.5570 O   0  0  0  0  0  1  0  0  0  0  0  0
  160.5430  202.8850  148.8130 C   0  0  1  0  0  3  0  0  0  0  0  0
  160.6900  201.5870  149.3200 O   0  0  0  0  0  1  0  0  0  0  0  0
  160.9440  203.9570  149.8420 C   0  0  1  0  0  3  0  0  0  0  0  0
  160.0600  205.0310  149.7370 O   0  0  0  0  0  1  0  0  0  0  0  0
  161.3570  205.0360  152.9390 C   0  0  0  0  0  2  0  0  0  0  0  0
  162.3100  203.4660  151.7860 O   0  0  0  0  0  0  0  0  0  0  0  0
  162.5250  204.6900  152.2530 O   0  0  0  0  0  0  0  0  0  0  0  0
  160.2350  204.4030  152.1860 C   0  0  0  0  0  2  0  0  0  0  0  0
  160.9930  203.4660  151.2970 C   0  0  1  0  0  3  0  0  0  0  0  0
  162.1070  210.1540  152.3720 C   0  0  0  0  0  2  0  0  0  0  0  0
  161.2990  210.8110  153.3840 N   0  0  0  0  0  2  0  0  0  0  0  0
  160.3980  209.8000  153.9160 C   0  0  0  0  0  2  0  0  0  0  0  0
  157.8540  211.7190  156.0820 C   0  0  1  0  0  3  0  0  0  0  0  0
  159.8910  211.3820  157.2550 C   0  0  0  0  0  2  0  0  0  0  0  0
  160.6080  211.0160  156.0330 N   0  0  0  0  0  2  0  0  0  0  0  0
  159.6770  210.3040  155.1590 C   0  0  1  0  0  3  0  0  0  0  0  0
  158.4940  211.1980  154.7950 C   0  0  0  0  0  2  0  0  0  0  0  0
  158.8520  212.3610  156.9420 N   0  0  0  0  0  2  0  0  0  0  0  0
  154.9450  214.1440  152.7850 C   0  0  0  0  0  1  0  0  0  0  0  0
  154.6450  214.4480  155.2460 C   0  0  0  0  0  3  0  0  0  0  0  0
  156.3760  212.9550  154.4520 C   0  0  0  0  0  3  0  0  0  0  0  0
  155.0030  214.1630  156.5660 C   0  0  0  0  0  3  0  0  0  0  0  0
  156.7400  212.6680  155.7770 C   0  0  0  0  0  0  0  0  0  0  0  0
  155.3300  213.8440  154.1880 C   0  0  0  0  0  0  0  0  0  0  0  0
  156.0490  213.2710  156.8310 C   0  0  0  0  0  3  0  0  0  0  0  0
  1 42  1  0  0  0  0
  2  5  1  0  0  0  0
  3  2  1  0  0  0  0
  5 10  1  0  0  0  0
  6 14  1  0  0  0  0
  6  7  2  0  0  0  0
  8 13  2  0  0  0  0
  8  4  1  0  0  0  0
  9  3  2  0  0  0  0
 10  1  2  0  0  0  0
 11 13  1  0  0  0  0
 12  3  1  0  0  0  0
 13  1  1  0  0  0  0
 14  8  1  0  0  0  0
 15  9  1  6  0  0  0
 15 11  1  0  0  0  0
 15  5  1  0  0  0  0
 16 14  1  0  0  0  0
 16 11  2  0  0  0  0
 17 18  2  0  0  0  0
 18 12  1  0  0  0  0
 19 17  1  0  0  0  0
 20 19  1  0  0  0  0
 21 20  1  0  0  0  0
 22 24  1  0  0  0  0
 23 25  1  0  0  0  0
 23 21  1  0  0  0  0
 24 23  2  0  0  0  0
 26  6  1  0  0  0  0
 27 28  1  6  0  0  0
 27 26  1  0  0  0  0
 27 29  1  0  0  0  0
 29 31  1  0  0  0  0
 31 30  1  6  0  0  0
 31 32  1  0  0  0  0
 31 33  1  0  0  0  0
 33 34  1  1  0  0  0
 33 35  1  0  0  0  0
 35 36  1  1  0  0  0
 38 39  1  0  0  0  0
 39 37  1  0  0  0  0
 40 37  1  0  0  0  0
 41 35  1  6  0  0  0
 41 38  1  0  0  0  0
 41 40  1  0  0  0  0
 42 43  1  0  0  0  0
 43 44  1  0  0  0  0
 45 55  1  6  0  0  0
 45 50  1  0  0  0  0
 47 46  1  0  0  0  0
 48 44  1  6  0  0  0
 48 47  1  0  0  0  0
 49 48  1  0  0  0  0
 49 45  1  0  0  0  0
 50 46  1  0  0  0  0
 51 56  1  0  0  0  0
 52 54  1  0  0  0  0
 53 55  2  0  0  0  0
 54 57  2  0  0  0  0
 55 57  1  0  0  0  0
 56 53  1  0  0  0  0
 56 52  2  0  0  0  0
M  END
>  <MODEL>
3

>  <REMARK>
 VINA RESULT:      -5.4      4.193      7.849
  Name = 
  17 active torsions:
  status: ('A' for Active; 'I' for Inactive)
    1  A    between atoms: C_1  and  C_22
    2  A    between atoms: C_1  and  C_24
    3  A    between atoms: C_2  and  C_40
    4  A    between atoms: C_4  and  C_44
    5  A    between atoms: N_7  and  N_46
    6  A    between atoms: C_12  and  C_37
    7  A    between atoms: C_14  and  C_54
    8  A    between atoms: C_16  and  C_24
    9  A    between atoms: C_16  and  C_28
   10  A    between atoms: C_17  and  C_39
   11  A    between atoms: C_22  and  C_39
   12  A    between atoms: N_23  and  C_26
   13  A    between atoms: N_23  and  C_40
   14  A    between atoms: C_26  and  C_31
   15  A    between atoms: C_28  and  C_56
   16  A    between atoms: C_44  and  C_45
   17  A    between atoms: C_45  and  C_54
                            x       y       z     vdW  Elec       q    Type
                         _______ _______ _______ _____ _____    ______ ____

>  <TORSDO>
F 17

$$$$
=
 OpenBabel11052411283D

 57 62  0  0  1  0  0  0  0  0999 V2000
  159.9230  213.1420  149.2690 C   0  0  0  0  0  0  0  0  0  0  0  0
  159.3550  214.4530  145.5740 S   0  0  0  0  0  0  0  0  0  0  0  0
  160.5150  213.3220  144.8190 C   0  0  0  0  0  0  0  0  0  0  0  0
  161.6740  211.1720  151.1400 C   0  0  0  0  0  1  0  0  0  0  0  0
  159.3110  213.3270  146.9290 N   0  0  0  0  0  0  0  0  0  0  0  0
  162.5220  208.8180  149.3110 C   0  0  0  0  0  0  0  0  0  0  0  0
  163.0470  208.7680  150.4570 O   0  0  0  0  0  0  0  0  0  0  0  0
  161.3350  210.9970  149.6940 C   0  0  0  0  0  0  0  0  0  0  0  0
  160.6340  212.1650  145.3870 N   0  0  0  0  0  0  0  0  0  0  0  0
  159.3430  213.8330  148.2780 C   0  0  0  0  0  3  0  0  0  0  0  0
  160.5410  211.3450  147.6670 C   0  0  0  0  0  0  0  0  0  0  0  0
  161.3440  213.7290  143.7190 N   0  0  0  0  0  2  0  0  0  0  0  0
  160.5850  211.8700  148.9320 C   0  0  0  0  0  0  0  0  0  0  0  0
  161.7310  209.9540  148.9190 N   0  0  0  0  0  0  0  0  0  0  0  0
  159.7800  211.9860  146.5460 C   0  0  1  0  0  3  0  0  0  0  0  0
  161.2370  210.1520  147.6720 C   0  0  0  0  0  3  0  0  0  0  0  0
  161.8500  212.1970  141.9720 C   0  0  0  0  0  3  0  0  0  0  0  0
  162.2170  212.8910  143.0000 N   0  0  0  0  0  0  0  0  0  0  0  0
  162.8140  211.3230  141.2540 C   0  0  0  0  0  2  0  0  0  0  0  0
  162.0860  210.3970  140.2900 C   0  0  0  0  0  2  0  0  0  0  0  0
  161.0070  211.1450  139.5160 C   0  0  0  0  0  2  0  0  0  0  0  0
  158.2060  211.7690  139.5750 C   0  0  0  0  0  1  0  0  0  0  0  0
  159.9420  210.2070  139.0150 C   0  0  0  0  0  0  0  0  0  0  0  0
  158.6910  210.5140  139.0510 N   0  0  0  0  0  0  0  0  0  0  0  0
  160.4170  208.6580  138.3340 Cl  0  0  0  0  0  0  0  0  0  0  0  0
  162.7660  207.7000  148.3400 C   0  0  0  0  0  2  0  0  0  0  0  0
  161.4980  206.9170  148.0270 C   0  0  2  0  0  3  0  0  0  0  0  0
  160.6980  206.7470  149.3040 C   0  0  0  0  0  1  0  0  0  0  0  0
  161.8450  205.5450  147.4420 C   0  0  0  0  0  2  0  0  0  0  0  0
  160.0610  205.8220  145.7200 C   0  0  0  0  0  1  0  0  0  0  0  0
  161.5070  205.4150  145.9510 C   0  0  1  0  0  0  0  0  0  0  0  0
  162.3380  206.2490  145.1970 O   0  0  0  0  0  1  0  0  0  0  0  0
  161.6850  203.9520  145.5090 C   0  0  1  0  0  3  0  0  0  0  0  0
  163.0350  203.5780  145.4720 O   0  0  0  0  0  1  0  0  0  0  0  0
  160.8250  202.9390  146.2850 C   0  0  1  0  0  3  0  0  0  0  0  0
  160.3010  202.0130  145.3830 O   0  0  0  0  0  1  0  0  0  0  0  0
  160.2920  201.3480  149.1330 C   0  0  0  0  0  2  0  0  0  0  0  0
  161.6050  202.9820  148.5820 O   0  0  0  0  0  0  0  0  0  0  0  0
  160.4760  202.7300  149.2320 O   0  0  0  0  0  0  0  0  0  0  0  0
  160.8180  200.9580  147.7930 C   0  0  0  0  0  2  0  0  0  0  0  0
  161.5610  202.2020  147.4150 C   0  0  1  0  0  3  0  0  0  0  0  0
  159.9100  213.6730  150.6630 C   0  0  0  0  0  2  0  0  0  0  0  0
  158.9200  212.9750  151.4650 N   0  0  0  0  0  2  0  0  0  0  0  0
  158.2680  213.9830  152.2880 C   0  0  0  0  0  2  0  0  0  0  0  0
  159.0880  212.0510  155.5190 C   0  0  1  0  0  3  0  0  0  0  0  0
  156.8080  212.7110  155.4740 C   0  0  0  0  0  2  0  0  0  0  0  0
  156.8580  213.0190  154.0460 N   0  0  0  0  0  2  0  0  0  0  0  0
  158.1910  213.5400  153.7420 C   0  0  1  0  0  3  0  0  0  0  0  0
  159.2590  212.4980  154.0670 C   0  0  0  0  0  2  0  0  0  0  0  0
  157.7160  211.6050  155.7720 N   0  0  0  0  0  2  0  0  0  0  0  0
  160.2310  207.1860  156.0140 C   0  0  0  0  0  1  0  0  0  0  0  0
  161.9120  208.9670  156.5010 C   0  0  0  0  0  3  0  0  0  0  0  0
  159.6950  209.6150  155.7800 C   0  0  0  0  0  3  0  0  0  0  0  0
  162.2810  210.3130  156.5790 C   0  0  0  0  0  3  0  0  0  0  0  0
  160.0600  210.9670  155.8600 C   0  0  0  0  0  0  0  0  0  0  0  0
  160.6190  208.6170  156.1020 C   0  0  0  0  0  0  0  0  0  0  0  0
  161.3560  211.3130  156.2560 C   0  0  0  0  0  3  0  0  0  0  0  0
  1 42  1  0  0  0  0
  2  5  1  0  0  0  0
  3  9  2  0  0  0  0
  3  2  1  0  0  0  0
  5 10  1  0  0  0  0
  6  7  2  0  0  0  0
  8  4  1  0  0  0  0
 10  1  2  0  0  0  0
 11 16  2  0  0  0  0
 11 13  1  0  0  0  0
 12  3  1  0  0  0  0
 13  1  1  0  0  0  0
 13  8  2  0  0  0  0
 14  6  1  0  0  0  0
 14  8  1  0  0  0  0
 15  9  1  6  0  0  0
 15  5  1  0  0  0  0
 15 11  1  0  0  0  0
 16 14  1  0  0  0  0
 17 18  2  0  0  0  0
 18 12  1  0  0  0  0
 19 17  1  0  0  0  0
 20 19  1  0  0  0  0
 21 20  1  0  0  0  0
 23 24  2  0  0  0  0
 23 21  1  0  0  0  0
 24 22  1  0  0  0  0
 25 23  1  0  0  0  0
 26  6  1  0  0  0  0
 27 26  1  0  0  0  0
 27 28  1  1  0  0  0
 29 27  1  0  0  0  0
 31 30  1  6  0  0  0
 31 29  1  0  0  0  0
 32 31  1  0  0  0  0
 33 34  1  1  0  0  0
 33 31  1  0  0  0  0
 33 35  1  0  0  0  0
 35 36  1  6  0  0  0
 37 39  1  0  0  0  0
 38 39  1  0  0  0  0
 40 37  1  0  0  0  0
 41 35  1  6  0  0  0
 41 40  1  0  0  0  0
 41 38  1  0  0  0  0
 42 43  1  0  0  0  0
 43 44  1  0  0  0  0
 45 50  1  0  0  0  0
 45 55  1  6  0  0  0
 46 50  1  0  0  0  0
 47 46  1  0  0  0  0
 48 44  1  6  0  0  0
 48 47  1  0  0  0  0
 48 49  1  0  0  0  0
 49 45  1  0  0  0  0
 51 56  1  0  0  0  0
 52 54  1  0  0  0  0
 53 55  2  0  0  0  0
 53 56  1  0  0  0  0
 55 57  1  0  0  0  0
 56 52  2  0  0  0  0
 57 54  2  0  0  0  0
M  END
>  <MODEL>
4

>  <REMARK>
 VINA RESULT:      -5.4      4.568      7.963
  Name = 
  17 active torsions:
  status: ('A' for Active; 'I' for Inactive)
    1  A    between atoms: C_1  and  C_22
    2  A    between atoms: C_1  and  C_24
    3  A    between atoms: C_2  and  C_40
    4  A    between atoms: C_4  and  C_44
    5  A    between atoms: N_7  and  N_46
    6  A    between atoms: C_12  and  C_37
    7  A    between atoms: C_14  and  C_54
    8  A    between atoms: C_16  and  C_24
    9  A    between atoms: C_16  and  C_28
   10  A    between atoms: C_17  and  C_39
   11  A    between atoms: C_22  and  C_39
   12  A    between atoms: N_23  and  C_26
   13  A    between atoms: N_23  and  C_40
   14  A    between atoms: C_26  and  C_31
   15  A    between atoms: C_28  and  C_56
   16  A    between atoms: C_44  and  C_45
   17  A    between atoms: C_45  and  C_54
                            x       y       z     vdW  Elec       q    Type
                         _______ _______ _______ _____ _____    ______ ____

>  <TORSDO>
F 17

$$$$
=
 OpenBabel11052411283D

 57 62  0  0  1  0  0  0  0  0999 V2000
  159.3780  212.8990  150.8690 C   0  0  0  0  0  0  0  0  0  0  0  0
  161.7660  209.8720  151.7800 S   0  0  0  0  0  0  0  0  0  0  0  0
  162.0140  209.3440  150.0900 C   0  0  0  0  0  0  0  0  0  0  0  0
  157.7800  214.3860  148.4860 C   0  0  0  0  0  1  0  0  0  0  0  0
  161.2950  211.4300  151.1070 N   0  0  0  0  0  0  0  0  0  0  0  0
  159.4330  213.8630  145.9180 C   0  0  0  0  0  0  0  0  0  0  0  0
  158.3410  214.4530  145.6910 O   0  0  0  0  0  0  0  0  0  0  0  0
  159.0510  213.6070  148.3850 C   0  0  0  0  0  0  0  0  0  0  0  0
  161.9990  210.2790  149.1950 N   0  0  0  0  0  0  0  0  0  0  0  0
  160.1490  212.1220  151.6430 C   0  0  0  0  0  3  0  0  0  0  0  0
  160.8010  212.3670  148.9020 C   0  0  0  0  0  0  0  0  0  0  0  0
  162.1070  207.9530  149.7490 N   0  0  0  0  0  2  0  0  0  0  0  0
  159.6980  212.9820  149.4340 C   0  0  0  0  0  0  0  0  0  0  0  0
  159.7480  213.3900  147.2390 N   0  0  0  0  0  0  0  0  0  0  0  0
  161.7910  211.6100  149.7340 C   0  0  1  0  0  3  0  0  0  0  0  0
  160.8330  212.6380  147.5470 C   0  0  0  0  0  3  0  0  0  0  0  0
  162.2540  206.1950  148.1540 C   0  0  0  0  0  3  0  0  0  0  0  0
  162.3930  207.4420  148.4690 N   0  0  0  0  0  0  0  0  0  0  0  0
  162.5790  205.7090  146.7880 C   0  0  0  0  0  2  0  0  0  0  0  0
  161.8450  204.4100  146.4900 C   0  0  0  0  0  2  0  0  0  0  0  0
  161.2740  203.7940  147.7620 C   0  0  0  0  0  2  0  0  0  0  0  0
  160.8800  201.9670  149.9400 C   0  0  0  0  0  1  0  0  0  0  0  0
  160.9480  202.3380  147.5680 C   0  0  0  0  0  0  0  0  0  0  0  0
  160.7750  201.5400  148.5650 N   0  0  0  0  0  0  0  0  0  0  0  0
  160.7730  201.7090  145.9360 Cl  0  0  0  0  0  0  0  0  0  0  0  0
  160.3860  213.6190  144.7840 C   0  0  0  0  0  2  0  0  0  0  0  0
  159.8170  212.6610  143.7460 C   0  0  2  0  0  3  0  0  0  0  0  0
  159.0080  211.5920  144.4540 C   0  0  0  0  0  1  0  0  0  0  0  0
  160.9450  212.0130  142.9380 C   0  0  0  0  0  2  0  0  0  0  0  0
  160.1420  213.7490  141.3350 C   0  0  0  0  0  1  0  0  0  0  0  0
  161.2350  212.7290  141.6120 C   0  0  1  0  0  0  0  0  0  0  0  0
  162.4640  213.3910  141.6830 O   0  0  0  0  0  1  0  0  0  0  0  0
  161.2520  211.7020  140.4660 C   0  0  1  0  0  3  0  0  0  0  0  0
  160.0140  211.6280  139.8140 O   0  0  0  0  0  1  0  0  0  0  0  0
  162.4190  211.8650  139.4770 C   0  0  1  0  0  3  0  0  0  0  0  0
  162.8550  210.5980  139.0870 O   0  0  0  0  0  1  0  0  0  0  0  0
  163.8480  213.7480  137.1660 C   0  0  0  0  0  2  0  0  0  0  0  0
  162.1830  214.0790  138.5160 O   0  0  0  0  0  0  0  0  0  0  0  0
  163.4570  214.4080  138.3340 O   0  0  0  0  0  0  0  0  0  0  0  0
  163.1060  212.4540  137.1580 C   0  0  0  0  0  2  0  0  0  0  0  0
  162.0950  212.7070  138.2330 C   0  0  1  0  0  3  0  0  0  0  0  0
  158.2210  213.6310  151.4580 C   0  0  0  0  0  2  0  0  0  0  0  0
  158.6520  214.4530  152.5750 N   0  0  0  0  0  2  0  0  0  0  0  0
  159.7270  213.7260  153.2330 C   0  0  0  0  0  2  0  0  0  0  0  0
  159.3940  210.8240  155.7460 C   0  0  1  0  0  3  0  0  0  0  0  0
  157.3100  211.9130  155.4180 C   0  0  0  0  0  2  0  0  0  0  0  0
  157.7850  212.6020  154.2190 N   0  0  0  0  0  2  0  0  0  0  0  0
  159.2020  212.9090  154.4050 C   0  0  1  0  0  3  0  0  0  0  0  0
  160.0070  211.6250  154.5970 C   0  0  0  0  0  2  0  0  0  0  0  0
  157.9610  210.6100  155.5290 N   0  0  0  0  0  2  0  0  0  0  0  0
  160.6290  206.2590  154.0560 C   0  0  0  0  0  1  0  0  0  0  0  0
  161.4330  207.0810  156.2730 C   0  0  0  0  0  3  0  0  0  0  0  0
  160.0320  208.5230  154.9270 C   0  0  0  0  0  3  0  0  0  0  0  0
  161.5030  208.0680  157.2600 C   0  0  0  0  0  3  0  0  0  0  0  0
  160.0970  209.5150  155.9170 C   0  0  0  0  0  0  0  0  0  0  0  0
  160.6980  207.3070  155.1060 C   0  0  0  0  0  0  0  0  0  0  0  0
  160.8370  209.2860  157.0800 C   0  0  0  0  0  3  0  0  0  0  0  0
  1 42  1  0  0  0  0
  1 10  2  0  0  0  0
  3  2  1  0  0  0  0
  5 10  1  0  0  0  0
  5  2  1  0  0  0  0
  6 14  1  0  0  0  0
  7  6  2  0  0  0  0
  8  4  1  0  0  0  0
  8 13  2  0  0  0  0
  9 15  1  0  0  0  0
  9  3  2  0  0  0  0
 11 13  1  0  0  0  0
 12  3  1  0  0  0  0
 13  1  1  0  0  0  0
 14 16  1  0  0  0  0
 14  8  1  0  0  0  0
 15 11  1  6  0  0  0
 15  5  1  0  0  0  0
 16 11  2  0  0  0  0
 17 18  2  0  0  0  0
 18 12  1  0  0  0  0
 19 17  1  0  0  0  0
 20 19  1  0  0  0  0
 20 21  1  0  0  0  0
 23 21  1  0  0  0  0
 23 24  2  0  0  0  0
 24 22  1  0  0  0  0
 25 23  1  0  0  0  0
 26  6  1  0  0  0  0
 27 28  1  1  0  0  0
 27 26  1  0  0  0  0
 29 27  1  0  0  0  0
 31 30  1  6  0  0  0
 31 32  1  0  0  0  0
 31 29  1  0  0  0  0
 33 34  1  6  0  0  0
 33 31  1  0  0  0  0
 35 36  1  6  0  0  0
 35 33  1  0  0  0  0
 37 39  1  0  0  0  0
 39 38  1  0  0  0  0
 40 37  1  0  0  0  0
 40 41  1  0  0  0  0
 41 38  1  0  0  0  0
 41 35  1  1  0  0  0
 42 43  1  0  0  0  0
 43 44  1  0  0  0  0
 45 55  1  6  0  0  0
 46 50  1  0  0  0  0
 47 48  1  0  0  0  0
 47 46  1  0  0  0  0
 48 44  1  6  0  0  0
 48 49  1  0  0  0  0
 49 45  1  0  0  0  0
 50 45  1  0  0  0  0
 51 56  1  0  0  0  0
 52 54  1  0  0  0  0
 53 56  1  0  0  0  0
 53 55  2  0  0  0  0
 55 57  1  0  0  0  0
 56 52  2  0  0  0  0
 57 54  2  0  0  0  0
M  END
>  <MODEL>
5

>  <REMARK>
 VINA RESULT:      -5.2      2.753      5.471
  Name = 
  17 active torsions:
  status: ('A' for Active; 'I' for Inactive)
    1  A    between atoms: C_1  and  C_22
    2  A    between atoms: C_1  and  C_24
    3  A    between atoms: C_2  and  C_40
    4  A    between atoms: C_4  and  C_44
    5  A    between atoms: N_7  and  N_46
    6  A    between atoms: C_12  and  C_37
    7  A    between atoms: C_14  and  C_54
    8  A    between atoms: C_16  and  C_24
    9  A    between atoms: C_16  and  C_28
   10  A    between atoms: C_17  and  C_39
   11  A    between atoms: C_22  and  C_39
   12  A    between atoms: N_23  and  C_26
   13  A    between atoms: N_23  and  C_40
   14  A    between atoms: C_26  and  C_31
   15  A    between atoms: C_28  and  C_56
   16  A    between atoms: C_44  and  C_45
   17  A    between atoms: C_45  and  C_54
                            x       y       z     vdW  Elec       q    Type
                         _______ _______ _______ _____ _____    ______ ____

>  <TORSDO>
F 17

$$$$
=
 OpenBabel11052411283D

 57 62  0  0  1  0  0  0  0  0999 V2000
  161.9800  210.4240  150.9570 C   0  0  0  0  0  0  0  0  0  0  0  0
  161.6540  213.8440  148.9840 S   0  0  0  0  0  0  0  0  0  0  0  0
  161.9220  213.1270  147.3680 C   0  0  0  0  0  0  0  0  0  0  0  0
  162.6850  207.2800  150.7080 C   0  0  0  0  0  1  0  0  0  0  0  0
  161.2220  212.2190  149.5100 N   0  0  0  0  0  0  0  0  0  0  0  0
  161.8920  206.4730  147.8230 C   0  0  0  0  0  0  0  0  0  0  0  0
  162.4730  205.5470  148.4540 O   0  0  0  0  0  0  0  0  0  0  0  0
  162.0980  208.1710  149.6610 C   0  0  0  0  0  0  0  0  0  0  0  0
  161.4960  211.9160  147.2060 N   0  0  0  0  0  0  0  0  0  0  0  0
  161.7120  211.7250  150.7730 C   0  0  0  0  0  3  0  0  0  0  0  0
  161.3190  209.9460  148.6100 C   0  0  0  0  0  0  0  0  0  0  0  0
  162.6700  213.8220  146.3590 N   0  0  0  0  0  2  0  0  0  0  0  0
  161.8170  209.5140  149.8110 C   0  0  0  0  0  0  0  0  0  0  0  0
  161.7690  207.7850  148.4000 N   0  0  0  0  0  0  0  0  0  0  0  0
  160.8550  211.3520  148.3800 C   0  0  1  0  0  3  0  0  0  0  0  0
  161.2770  208.8660  147.7480 C   0  0  0  0  0  3  0  0  0  0  0  0
  161.8800  213.1380  144.2230 C   0  0  0  0  0  3  0  0  0  0  0  0
  162.8570  213.3860  145.0340 N   0  0  0  0  0  0  0  0  0  0  0  0
  162.1350  212.6720  142.8350 C   0  0  0  0  0  2  0  0  0  0  0  0
  162.1280  213.8430  141.8640 C   0  0  0  0  0  2  0  0  0  0  0  0
  162.9490  213.5320  140.6180 C   0  0  0  0  0  2  0  0  0  0  0  0
  160.7520  213.9720  138.8240 C   0  0  0  0  0  1  0  0  0  0  0  0
  162.3170  212.4360  139.8040 C   0  0  0  0  0  0  0  0  0  0  0  0
  161.3320  212.6620  139.0040 N   0  0  0  0  0  0  0  0  0  0  0  0
  162.9560  210.8030  139.9240 Cl  0  0  0  0  0  0  0  0  0  0  0  0
  161.3670  206.2050  146.4430 C   0  0  0  0  0  2  0  0  0  0  0  0
  161.6360  204.7770  145.9880 C   0  0  2  0  0  3  0  0  0  0  0  0
  161.6290  204.7350  144.4730 C   0  0  0  0  0  1  0  0  0  0  0  0
  160.5700  203.8280  146.5410 C   0  0  0  0  0  2  0  0  0  0  0  0
  159.8660  201.7960  145.2750 C   0  0  0  0  0  1  0  0  0  0  0  0
  160.8720  202.3480  146.2730 C   0  0  1  0  0  0  0  0  0  0  0  0
  162.1580  202.2090  145.7420 O   0  0  0  0  0  1  0  0  0  0  0  0
  160.7520  201.5520  147.5840 C   0  0  1  0  0  3  0  0  0  0  0  0
  161.9050  200.7980  147.8440 O   0  0  0  0  0  1  0  0  0  0  0  0
  160.3190  202.3850  148.8030 C   0  0  1  0  0  3  0  0  0  0  0  0
  159.2370  201.7530  149.4170 O   0  0  0  0  0  1  0  0  0  0  0  0
  160.7810  203.1240  151.9920 C   0  0  0  0  0  2  0  0  0  0  0  0
  161.5230  204.0020  150.1530 O   0  0  0  0  0  0  0  0  0  0  0  0
  160.6460  204.2140  151.1270 O   0  0  0  0  0  0  0  0  0  0  0  0
  161.0980  201.9500  151.1270 C   0  0  0  0  0  2  0  0  0  0  0  0
  161.4270  202.6370  149.8380 C   0  0  1  0  0  3  0  0  0  0  0  0
  162.4510  209.9360  152.2850 C   0  0  0  0  0  2  0  0  0  0  0  0
  161.7830  210.6520  153.3580 N   0  0  0  0  0  2  0  0  0  0  0  0
  160.4500  210.0790  153.4720 C   0  0  0  0  0  2  0  0  0  0  0  0
  157.7860  212.7750  152.7800 C   0  0  1  0  0  3  0  0  0  0  0  0
  158.9440  213.2200  154.8040 C   0  0  0  0  0  2  0  0  0  0  0  0
  160.0070  212.2690  154.4800 N   0  0  0  0  0  2  0  0  0  0  0  0
  159.4090  211.1570  153.7420 C   0  0  1  0  0  3  0  0  0  0  0  0
  158.7730  211.6560  152.4470 C   0  0  0  0  0  2  0  0  0  0  0  0
  158.4300  213.8220  153.5760 N   0  0  0  0  0  2  0  0  0  0  0  0
  158.0960  213.8800  147.8910 C   0  0  0  0  0  1  0  0  0  0  0  0
  156.0580  214.4450  149.2200 C   0  0  0  0  0  3  0  0  0  0  0  0
  157.9100  213.3460  150.3240 C   0  0  0  0  0  3  0  0  0  0  0  0
  155.3440  214.4530  150.4210 C   0  0  0  0  0  3  0  0  0  0  0  0
  157.1980  213.3550  151.5340 C   0  0  0  0  0  0  0  0  0  0  0  0
  157.3410  213.8920  149.1700 C   0  0  0  0  0  0  0  0  0  0  0  0
  155.9130  213.9050  151.5770 C   0  0  0  0  0  3  0  0  0  0  0  0
  1 42  1  0  0  0  0
  2  5  1  0  0  0  0
  3  2  1  0  0  0  0
  5 10  1  0  0  0  0
  6 14  1  0  0  0  0
  6  7  2  0  0  0  0
  8 13  2  0  0  0  0
  8  4  1  0  0  0  0
  9  3  2  0  0  0  0
 10  1  2  0  0  0  0
 11 13  1  0  0  0  0
 12  3  1  0  0  0  0
 13  1  1  0  0  0  0
 14  8  1  0  0  0  0
 15  9  1  6  0  0  0
 15 11  1  0  0  0  0
 15  5  1  0  0  0  0
 16 14  1  0  0  0  0
 16 11  2  0  0  0  0
 17 18  2  0  0  0  0
 18 12  1  0  0  0  0
 19 17  1  0  0  0  0
 20 19  1  0  0  0  0
 21 20  1  0  0  0  0
 22 24  1  0  0  0  0
 23 25  1  0  0  0  0
 23 21  1  0  0  0  0
 24 23  2  0  0  0  0
 26  6  1  0  0  0  0
 27 28  1  6  0  0  0
 27 26  1  0  0  0  0
 27 29  1  0  0  0  0
 31 30  1  6  0  0  0
 31 29  1  0  0  0  0
 31 33  1  0  0  0  0
 32 31  1  0  0  0  0
 33 34  1  1  0  0  0
 33 35  1  0  0  0  0
 35 36  1  1  0  0  0
 38 39  1  0  0  0  0
 39 37  1  0  0  0  0
 40 37  1  0  0  0  0
 41 35  1  6  0  0  0
 41 38  1  0  0  0  0
 41 40  1  0  0  0  0
 42 43  1  0  0  0  0
 43 44  1  0  0  0  0
 45 55  1  6  0  0  0
 45 50  1  0  0  0  0
 47 46  1  0  0  0  0
 48 44  1  6  0  0  0
 48 47  1  0  0  0  0
 49 45  1  0  0  0  0
 49 48  1  0  0  0  0
 50 46  1  0  0  0  0
 51 56  1  0  0  0  0
 52 54  1  0  0  0  0
 53 55  2  0  0  0  0
 54 57  2  0  0  0  0
 55 57  1  0  0  0  0
 56 52  2  0  0  0  0
 56 53  1  0  0  0  0
M  END
>  <MODEL>
6

>  <REMARK>
 VINA RESULT:      -5.0      4.653      8.459
  Name = 
  17 active torsions:
  status: ('A' for Active; 'I' for Inactive)
    1  A    between atoms: C_1  and  C_22
    2  A    between atoms: C_1  and  C_24
    3  A    between atoms: C_2  and  C_40
    4  A    between atoms: C_4  and  C_44
    5  A    between atoms: N_7  and  N_46
    6  A    between atoms: C_12  and  C_37
    7  A    between atoms: C_14  and  C_54
    8  A    between atoms: C_16  and  C_24
    9  A    between atoms: C_16  and  C_28
   10  A    between atoms: C_17  and  C_39
   11  A    between atoms: C_22  and  C_39
   12  A    between atoms: N_23  and  C_26
   13  A    between atoms: N_23  and  C_40
   14  A    between atoms: C_26  and  C_31
   15  A    between atoms: C_28  and  C_56
   16  A    between atoms: C_44  and  C_45
   17  A    between atoms: C_45  and  C_54
                            x       y       z     vdW  Elec       q    Type
                         _______ _______ _______ _____ _____    ______ ____

>  <TORSDO>
F 17

$$$$
=
 OpenBabel11052411283D

 57 62  0  0  1  0  0  0  0  0999 V2000
  161.9960  209.4670  148.6060 C   0  0  0  0  0  0  0  0  0  0  0  0
  161.2590  206.2920  146.3520 S   0  0  0  0  0  0  0  0  0  0  0  0
  161.2970  205.1210  147.7020 C   0  0  0  0  0  0  0  0  0  0  0  0
  162.7540  210.4860  151.5770 C   0  0  0  0  0  1  0  0  0  0  0  0
  160.9670  207.5250  147.5770 N   0  0  0  0  0  0  0  0  0  0  0  0
  161.5510  208.3860  153.5120 C   0  0  0  0  0  0  0  0  0  0  0  0
  162.2510  209.2560  154.1000 O   0  0  0  0  0  0  0  0  0  0  0  0
  161.9840  209.2610  151.2000 C   0  0  0  0  0  0  0  0  0  0  0  0
  160.8900  205.5610  148.8490 N   0  0  0  0  0  0  0  0  0  0  0  0
  161.6610  208.7860  147.5000 C   0  0  0  0  0  3  0  0  0  0  0  0
  160.9960  207.6840  150.0180 C   0  0  0  0  0  0  0  0  0  0  0  0
  161.8580  203.8100  147.5350 N   0  0  0  0  0  2  0  0  0  0  0  0
  161.6870  208.8620  149.9120 C   0  0  0  0  0  0  0  0  0  0  0  0
  161.4760  208.3560  152.0760 N   0  0  0  0  0  0  0  0  0  0  0  0
  160.4570  206.9460  148.8300 C   0  0  1  0  0  3  0  0  0  0  0  0
  160.8550  207.3870  151.3610 C   0  0  0  0  0  3  0  0  0  0  0  0
  160.8820  201.9430  148.6380 C   0  0  0  0  0  3  0  0  0  0  0  0
  161.8510  202.7890  148.5040 N   0  0  0  0  0  0  0  0  0  0  0  0
  160.9240  200.8880  149.6850 C   0  0  0  0  0  2  0  0  0  0  0  0
  160.9420  201.5080  151.0740 C   0  0  0  0  0  2  0  0  0  0  0  0
  160.6850  203.0090  151.0120 C   0  0  0  0  0  2  0  0  0  0  0  0
  162.6900  204.8580  151.9080 C   0  0  0  0  0  1  0  0  0  0  0  0
  160.6850  203.6230  152.3860 C   0  0  0  0  0  0  0  0  0  0  0  0
  161.5970  204.4520  152.7610 N   0  0  0  0  0  0  0  0  0  0  0  0
  159.3900  203.2210  153.5040 Cl  0  0  0  0  0  0  0  0  0  0  0  0
  160.8280  207.3520  154.3260 C   0  0  0  0  0  2  0  0  0  0  0  0
  160.1930  207.9410  155.5780 C   0  0  2  0  0  3  0  0  0  0  0  0
  159.4280  206.8490  156.3000 C   0  0  0  0  0  1  0  0  0  0  0  0
  159.2460  209.0870  155.2130 C   0  0  0  0  0  2  0  0  0  0  0  0
  160.2790  210.0700  157.2610 C   0  0  0  0  0  1  0  0  0  0  0  0
  159.5440  210.3890  155.9680 C   0  0  1  0  0  0  0  0  0  0  0  0
  160.3470  211.2250  155.1860 O   0  0  0  0  0  1  0  0  0  0  0  0
  158.2230  211.0970  156.3150 C   0  0  1  0  0  3  0  0  0  0  0  0
  158.4210  212.1710  157.1920 O   0  0  0  0  0  1  0  0  0  0  0  0
  157.3690  211.4930  155.0980 C   0  0  1  0  0  3  0  0  0  0  0  0
  156.1370  210.8450  155.1850 O   0  0  0  0  0  1  0  0  0  0  0  0
  155.8430  213.7030  153.1700 C   0  0  0  0  0  2  0  0  0  0  0  0
  157.8920  213.5080  153.8520 O   0  0  0  0  0  0  0  0  0  0  0  0
  157.1330  213.3390  152.7760 O   0  0  0  0  0  0  0  0  0  0  0  0
  155.7160  213.2860  154.5970 C   0  0  0  0  0  2  0  0  0  0  0  0
  157.1480  213.0050  154.9320 C   0  0  1  0  0  3  0  0  0  0  0  0
  162.6810  210.7860  148.4950 C   0  0  0  0  0  2  0  0  0  0  0  0
  161.7270  211.8710  148.6390 N   0  0  0  0  0  2  0  0  0  0  0  0
  161.8500  212.6930  147.4450 C   0  0  0  0  0  2  0  0  0  0  0  0
  159.4530  212.6530  144.4290 C   0  0  1  0  0  3  0  0  0  0  0  0
  158.5340  213.8940  146.2320 C   0  0  0  0  0  2  0  0  0  0  0  0
  159.8220  213.9660  146.9230 N   0  0  0  0  0  2  0  0  0  0  0  0
  160.5460  212.7230  146.6600 C   0  0  1  0  0  3  0  0  0  0  0  0
  160.7900  212.5530  145.1630 C   0  0  0  0  0  2  0  0  0  0  0  0
  158.7500  213.8870  144.7870 N   0  0  0  0  0  2  0  0  0  0  0  0
  161.7630  210.7170  140.4120 C   0  0  0  0  0  1  0  0  0  0  0  0
  159.9870  212.4560  140.1710 C   0  0  0  0  0  3  0  0  0  0  0  0
  160.5950  211.7020  142.3890 C   0  0  0  0  0  3  0  0  0  0  0  0
  159.0430  213.3260  140.7250 C   0  0  0  0  0  3  0  0  0  0  0  0
  159.6510  212.5760  142.9490 C   0  0  0  0  0  0  0  0  0  0  0  0
  160.7640  211.6440  141.0020 C   0  0  0  0  0  0  0  0  0  0  0  0
  158.8730  213.3830  142.1140 C   0  0  0  0  0  3  0  0  0  0  0  0
  1 13  1  0  0  0  0
  2  5  1  0  0  0  0
  2  3  1  0  0  0  0
  3  9  2  0  0  0  0
  5 15  1  0  0  0  0
  6  7  2  0  0  0  0
  6 26  1  0  0  0  0
  8  4  1  0  0  0  0
  8 14  1  0  0  0  0
 10  5  1  0  0  0  0
 10  1  2  0  0  0  0
 11 16  2  0  0  0  0
 12  3  1  0  0  0  0
 12 18  1  0  0  0  0
 13 11  1  0  0  0  0
 13  8  2  0  0  0  0
 14  6  1  0  0  0  0
 15  9  1  1  0  0  0
 15 11  1  0  0  0  0
 16 14  1  0  0  0  0
 17 19  1  0  0  0  0
 18 17  2  0  0  0  0
 19 20  1  0  0  0  0
 21 20  1  0  0  0  0
 21 23  1  0  0  0  0
 22 24  1  0  0  0  0
 23 24  2  0  0  0  0
 23 25  1  0  0  0  0
 26 27  1  0  0  0  0
 27 28  1  6  0  0  0
 29 27  1  0  0  0  0
 29 31  1  0  0  0  0
 31 33  1  0  0  0  0
 31 30  1  1  0  0  0
 32 31  1  0  0  0  0
 33 34  1  6  0  0  0
 35 36  1  1  0  0  0
 35 33  1  0  0  0  0
 37 40  1  0  0  0  0
 38 41  1  0  0  0  0
 39 37  1  0  0  0  0
 39 38  1  0  0  0  0
 40 41  1  0  0  0  0
 41 35  1  6  0  0  0
 42  1  1  0  0  0  0
 42 43  1  0  0  0  0
 44 43  1  0  0  0  0
 45 55  1  6  0  0  0
 45 50  1  0  0  0  0
 45 49  1  0  0  0  0
 46 47  1  0  0  0  0
 48 47  1  0  0  0  0
 48 44  1  1  0  0  0
 49 48  1  0  0  0  0
 50 46  1  0  0  0  0
 51 56  1  0  0  0  0
 52 54  2  0  0  0  0
 52 56  1  0  0  0  0
 53 55  1  0  0  0  0
 54 57  1  0  0  0  0
 56 53  2  0  0  0  0
 57 55  2  0  0  0  0
M  END
>  <MODEL>
7

>  <REMARK>
 VINA RESULT:      -4.9      3.754      9.485
  Name = 
  17 active torsions:
  status: ('A' for Active; 'I' for Inactive)
    1  A    between atoms: C_1  and  C_22
    2  A    between atoms: C_1  and  C_24
    3  A    between atoms: C_2  and  C_40
    4  A    between atoms: C_4  and  C_44
    5  A    between atoms: N_7  and  N_46
    6  A    between atoms: C_12  and  C_37
    7  A    between atoms: C_14  and  C_54
    8  A    between atoms: C_16  and  C_24
    9  A    between atoms: C_16  and  C_28
   10  A    between atoms: C_17  and  C_39
   11  A    between atoms: C_22  and  C_39
   12  A    between atoms: N_23  and  C_26
   13  A    between atoms: N_23  and  C_40
   14  A    between atoms: C_26  and  C_31
   15  A    between atoms: C_28  and  C_56
   16  A    between atoms: C_44  and  C_45
   17  A    between atoms: C_45  and  C_54
                            x       y       z     vdW  Elec       q    Type
                         _______ _______ _______ _____ _____    ______ ____

>  <TORSDO>
F 17

$$$$
=
 OpenBabel11052411283D

 57 62  0  0  1  0  0  0  0  0999 V2000
  162.3010  209.8780  149.0920 C   0  0  0  0  0  0  0  0  0  0  0  0
  161.5620  206.8640  146.6280 S   0  0  0  0  0  0  0  0  0  0  0  0
  161.5090  205.6160  147.9060 C   0  0  0  0  0  0  0  0  0  0  0  0
  162.9670  210.6990  152.1450 C   0  0  0  0  0  1  0  0  0  0  0  0
  161.2570  208.0330  147.9100 N   0  0  0  0  0  0  0  0  0  0  0  0
  161.6210  208.5320  153.9050 C   0  0  0  0  0  0  0  0  0  0  0  0
  162.3230  209.3430  154.5700 O   0  0  0  0  0  0  0  0  0  0  0  0
  162.1760  209.5240  151.6670 C   0  0  0  0  0  0  0  0  0  0  0  0
  161.0680  206.0030  149.0610 N   0  0  0  0  0  0  0  0  0  0  0  0
  161.9920  209.2730  147.9350 C   0  0  0  0  0  3  0  0  0  0  0  0
  161.1900  208.0500  150.3560 C   0  0  0  0  0  0  0  0  0  0  0  0
  162.0360  204.2990  147.6860 N   0  0  0  0  0  2  0  0  0  0  0  0
  161.9210  209.2090  150.3470 C   0  0  0  0  0  0  0  0  0  0  0  0
  161.6050  208.5860  152.4670 N   0  0  0  0  0  0  0  0  0  0  0  0
  160.6790  207.4000  149.1060 C   0  0  1  0  0  3  0  0  0  0  0  0
  160.9850  207.6810  151.6720 C   0  0  0  0  0  3  0  0  0  0  0  0
  160.9360  203.0120  149.3550 C   0  0  0  0  0  3  0  0  0  0  0  0
  161.9580  203.2250  148.5920 N   0  0  0  0  0  0  0  0  0  0  0  0
  160.9100  201.8640  150.2990 C   0  0  0  0  0  2  0  0  0  0  0  0
  160.2960  200.6380  149.6410 C   0  0  0  0  0  2  0  0  0  0  0  0
  159.7590  200.9670  148.2520 C   0  0  0  0  0  2  0  0  0  0  0  0
  159.6630  202.0370  145.5910 C   0  0  0  0  0  1  0  0  0  0  0  0
  160.7500  200.6020  147.1810 C   0  0  0  0  0  0  0  0  0  0  0  0
  160.6840  201.0990  145.9940 N   0  0  0  0  0  0  0  0  0  0  0  0
  162.0530  199.4860  147.5630 Cl  0  0  0  0  0  0  0  0  0  0  0  0
  160.8340  207.4770  154.6260 C   0  0  0  0  0  2  0  0  0  0  0  0
  160.1230  208.0250  155.8560 C   0  0  2  0  0  3  0  0  0  0  0  0
  159.4930  206.8730  156.6140 C   0  0  0  0  0  1  0  0  0  0  0  0
  159.0440  209.0330  155.4480 C   0  0  0  0  0  2  0  0  0  0  0  0
  160.0980  210.3880  157.2590 C   0  0  0  0  0  1  0  0  0  0  0  0
  159.3130  210.4540  155.9590 C   0  0  1  0  0  0  0  0  0  0  0  0
  160.0580  211.1700  155.0170 O   0  0  0  0  0  1  0  0  0  0  0  0
  157.9760  211.1660  156.2260 C   0  0  1  0  0  3  0  0  0  0  0  0
  158.0960  212.1450  157.2220 O   0  0  0  0  0  1  0  0  0  0  0  0
  157.2720  211.7040  154.9680 C   0  0  1  0  0  3  0  0  0  0  0  0
  156.0900  210.9880  154.7750 O   0  0  0  0  0  1  0  0  0  0  0  0
  155.3070  213.9860  153.6030 C   0  0  0  0  0  2  0  0  0  0  0  0
  157.4570  213.8460  153.8440 O   0  0  0  0  0  0  0  0  0  0  0  0
  156.5030  213.7290  152.9280 O   0  0  0  0  0  0  0  0  0  0  0  0
  155.4870  213.4390  154.9800 C   0  0  0  0  0  2  0  0  0  0  0  0
  156.9660  213.2100  154.9960 C   0  0  1  0  0  3  0  0  0  0  0  0
  163.0310  211.1780  149.0860 C   0  0  0  0  0  2  0  0  0  0  0  0
  162.0970  212.2860  148.9900 N   0  0  0  0  0  2  0  0  0  0  0  0
  162.3500  212.9310  147.7090 C   0  0  0  0  0  2  0  0  0  0  0  0
  160.4160  212.6400  144.3900 C   0  0  1  0  0  3  0  0  0  0  0  0
  159.0070  213.4240  146.1320 C   0  0  0  0  0  2  0  0  0  0  0  0
  160.1430  213.7290  147.0010 N   0  0  0  0  0  2  0  0  0  0  0  0
  161.1830  212.7310  146.7530 C   0  0  1  0  0  3  0  0  0  0  0  0
  161.6390  212.7850  145.2960 C   0  0  0  0  0  2  0  0  0  0  0  0
  159.3870  213.6240  144.7360 N   0  0  0  0  0  2  0  0  0  0  0  0
  160.4680  210.8740  139.6890 C   0  0  0  0  0  1  0  0  0  0  0  0
  161.5350  213.0570  140.2640 C   0  0  0  0  0  3  0  0  0  0  0  0
  160.4620  211.7800  142.0170 C   0  0  0  0  0  3  0  0  0  0  0  0
  161.8720  214.0480  141.1910 C   0  0  0  0  0  3  0  0  0  0  0  0
  160.8010  212.7710  142.9510 C   0  0  0  0  0  0  0  0  0  0  0  0
  160.8300  211.9230  140.6760 C   0  0  0  0  0  0  0  0  0  0  0  0
  161.5020  213.9060  142.5330 C   0  0  0  0  0  3  0  0  0  0  0  0
  1 13  1  0  0  0  0
  2  3  1  0  0  0  0
  2  5  1  0  0  0  0
  3  9  2  0  0  0  0
  5 10  1  0  0  0  0
  5 15  1  0  0  0  0
  6  7  2  0  0  0  0
  6 26  1  0  0  0  0
  8  4  1  0  0  0  0
  8 14  1  0  0  0  0
 10  1  2  0  0  0  0
 11 16  2  0  0  0  0
 12  3  1  0  0  0  0
 12 18  1  0  0  0  0
 13 11  1  0  0  0  0
 13  8  2  0  0  0  0
 14  6  1  0  0  0  0
 15  9  1  1  0  0  0
 15 11  1  0  0  0  0
 16 14  1  0  0  0  0
 17 19  1  0  0  0  0
 18 17  2  0  0  0  0
 20 19  1  0  0  0  0
 21 20  1  0  0  0  0
 22 24  1  0  0  0  0
 23 25  1  0  0  0  0
 23 21  1  0  0  0  0
 24 23  2  0  0  0  0
 26 27  1  0  0  0  0
 27 28  1  6  0  0  0
 29 27  1  0  0  0  0
 29 31  1  0  0  0  0
 31 33  1  0  0  0  0
 31 30  1  1  0  0  0
 32 31  1  0  0  0  0
 33 34  1  1  0  0  0
 35 36  1  1  0  0  0
 35 33  1  0  0  0  0
 37 40  1  0  0  0  0
 38 41  1  0  0  0  0
 39 37  1  0  0  0  0
 39 38  1  0  0  0  0
 40 41  1  0  0  0  0
 41 35  1  6  0  0  0
 42  1  1  0  0  0  0
 43 42  1  0  0  0  0
 44 43  1  0  0  0  0
 45 55  1  6  0  0  0
 45 50  1  0  0  0  0
 45 49  1  0  0  0  0
 46 47  1  0  0  0  0
 48 47  1  0  0  0  0
 48 44  1  1  0  0  0
 49 48  1  0  0  0  0
 50 46  1  0  0  0  0
 51 56  1  0  0  0  0
 52 56  2  0  0  0  0
 52 54  1  0  0  0  0
 53 55  2  0  0  0  0
 54 57  2  0  0  0  0
 56 53  1  0  0  0  0
 57 55  1  0  0  0  0
M  END
>  <MODEL>
8

>  <REMARK>
 VINA RESULT:      -4.6      3.690      9.330
  Name = 
  17 active torsions:
  status: ('A' for Active; 'I' for Inactive)
    1  A    between atoms: C_1  and  C_22
    2  A    between atoms: C_1  and  C_24
    3  A    between atoms: C_2  and  C_40
    4  A    between atoms: C_4  and  C_44
    5  A    between atoms: N_7  and  N_46
    6  A    between atoms: C_12  and  C_37
    7  A    between atoms: C_14  and  C_54
    8  A    between atoms: C_16  and  C_24
    9  A    between atoms: C_16  and  C_28
   10  A    between atoms: C_17  and  C_39
   11  A    between atoms: C_22  and  C_39
   12  A    between atoms: N_23  and  C_26
   13  A    between atoms: N_23  and  C_40
   14  A    between atoms: C_26  and  C_31
   15  A    between atoms: C_28  and  C_56
   16  A    between atoms: C_44  and  C_45
   17  A    between atoms: C_45  and  C_54
                            x       y       z     vdW  Elec       q    Type
                         _______ _______ _______ _____ _____    ______ ____

>  <TORSDO>
F 17

$$$$
=
 OpenBabel11052411283D

 57 62  0  0  1  0  0  0  0  0999 V2000
  161.4000  206.7940  153.5050 C   0  0  0  0  0  0  0  0  0  0  0  0
  161.5620  203.1910  151.8660 S   0  0  0  0  0  0  0  0  0  0  0  0
  161.3620  203.7660  150.1850 C   0  0  0  0  0  0  0  0  0  0  0  0
  160.8790  209.9350  152.9480 C   0  0  0  0  0  1  0  0  0  0  0  0
  162.0770  204.8320  152.2480 N   0  0  0  0  0  0  0  0  0  0  0  0
  161.7640  210.4220  150.0190 C   0  0  0  0  0  0  0  0  0  0  0  0
  161.2270  211.4340  150.5480 O   0  0  0  0  0  0  0  0  0  0  0  0
  161.4310  208.9190  152.0010 C   0  0  0  0  0  0  0  0  0  0  0  0
  161.8590  204.9320  149.9200 N   0  0  0  0  0  0  0  0  0  0  0  0
  161.5960  205.4690  153.4480 C   0  0  0  0  0  3  0  0  0  0  0  0
  162.1240  207.0120  151.1380 C   0  0  0  0  0  0  0  0  0  0  0  0
  160.5920  203.0220  149.2290 N   0  0  0  0  0  2  0  0  0  0  0  0
  161.6320  207.5820  152.2820 C   0  0  0  0  0  0  0  0  0  0  0  0
  161.8030  209.1650  150.7180 N   0  0  0  0  0  0  0  0  0  0  0  0
  162.5110  205.5670  151.0490 C   0  0  1  0  0  3  0  0  0  0  0  0
  162.2430  208.0020  150.1800 C   0  0  0  0  0  3  0  0  0  0  0  0
  161.2000  202.8370  146.9370 C   0  0  0  0  0  3  0  0  0  0  0  0
  160.4520  203.3410  147.8650 N   0  0  0  0  0  0  0  0  0  0  0  0
  161.0120  203.2160  145.5120 C   0  0  0  0  0  2  0  0  0  0  0  0
  159.9230  204.2690  145.3740 C   0  0  0  0  0  2  0  0  0  0  0  0
  160.5180  205.6500  145.1230 C   0  0  0  0  0  2  0  0  0  0  0  0
  163.3780  205.4530  145.2580 C   0  0  0  0  0  1  0  0  0  0  0  0
  161.3220  206.1230  146.3030 C   0  0  0  0  0  0  0  0  0  0  0  0
  162.6060  206.0240  146.3360 N   0  0  0  0  0  0  0  0  0  0  0  0
  160.4900  206.8580  147.6660 Cl  0  0  0  0  0  0  0  0  0  0  0  0
  162.3250  210.5290  148.6310 C   0  0  0  0  0  2  0  0  0  0  0  0
  162.0610  211.8900  148.0030 C   0  0  2  0  0  3  0  0  0  0  0  0
  161.8750  212.9130  149.1060 C   0  0  0  0  0  1  0  0  0  0  0  0
  160.8100  211.8410  147.1200 C   0  0  0  0  0  2  0  0  0  0  0  0
  160.1170  214.1350  146.4260 C   0  0  0  0  0  1  0  0  0  0  0  0
  160.8280  212.8670  145.9800 C   0  0  1  0  0  0  0  0  0  0  0  0
  162.1460  213.1840  145.6390 O   0  0  0  0  0  1  0  0  0  0  0  0
  160.0890  212.2920  144.7590 C   0  0  1  0  0  3  0  0  0  0  0  0
  158.6980  212.3330  144.9240 O   0  0  0  0  0  1  0  0  0  0  0  0
  160.5290  212.8790  143.4070 C   0  0  1  0  0  3  0  0  0  0  0  0
  161.6740  212.2070  142.9770 O   0  0  0  0  0  1  0  0  0  0  0  0
  160.1600  213.0700  140.1270 C   0  0  0  0  0  2  0  0  0  0  0  0
  159.2200  214.1140  141.7800 O   0  0  0  0  0  0  0  0  0  0  0  0
  160.1180  214.2850  140.8170 O   0  0  0  0  0  0  0  0  0  0  0  0
  159.9360  212.0080  141.1510 C   0  0  0  0  0  2  0  0  0  0  0  0
  159.4580  212.8340  142.3060 C   0  0  1  0  0  3  0  0  0  0  0  0
  160.9360  207.4310  154.7710 C   0  0  0  0  0  2  0  0  0  0  0  0
  159.7710  208.2630  154.5270 N   0  0  0  0  0  2  0  0  0  0  0  0
  159.1500  208.4970  155.8220 C   0  0  0  0  0  2  0  0  0  0  0  0
  158.0860  212.1870  156.1340 C   0  0  1  0  0  3  0  0  0  0  0  0
  160.4510  211.9810  156.0940 C   0  0  0  0  0  2  0  0  0  0  0  0
  160.3870  210.6020  155.6110 N   0  0  0  0  0  2  0  0  0  0  0  0
  159.2080  209.9700  156.2020 C   0  0  1  0  0  3  0  0  0  0  0  0
  157.9390  210.7070  155.7810 C   0  0  0  0  0  2  0  0  0  0  0  0
  159.3180  212.7400  155.5680 N   0  0  0  0  0  2  0  0  0  0  0  0
  155.3780  214.2440  152.4390 C   0  0  0  0  0  1  0  0  0  0  0  0
  154.6620  214.4250  154.8240 C   0  0  0  0  0  3  0  0  0  0  0  0
  156.7020  213.2340  154.3010 C   0  0  0  0  0  3  0  0  0  0  0  0
  154.8530  214.1580  156.1830 C   0  0  0  0  0  3  0  0  0  0  0  0
  156.9000  212.9670  155.6640 C   0  0  0  0  0  0  0  0  0  0  0  0
  155.5860  213.9640  153.8820 C   0  0  0  0  0  0  0  0  0  0  0  0
  155.9700  213.4260  156.6020 C   0  0  0  0  0  3  0  0  0  0  0  0
  1 42  1  0  0  0  0
  2  5  1  0  0  0  0
  3  2  1  0  0  0  0
  5 10  1  0  0  0  0
  6  7  2  0  0  0  0
  6 14  1  0  0  0  0
  8 13  2  0  0  0  0
  8  4  1  0  0  0  0
  9  3  2  0  0  0  0
 10  1  2  0  0  0  0
 11 13  1  0  0  0  0
 12  3  1  0  0  0  0
 13  1  1  0  0  0  0
 14  8  1  0  0  0  0
 15  9  1  6  0  0  0
 15 11  1  0  0  0  0
 15  5  1  0  0  0  0
 16 14  1  0  0  0  0
 16 11  2  0  0  0  0
 17 18  2  0  0  0  0
 18 12  1  0  0  0  0
 19 17  1  0  0  0  0
 20 19  1  0  0  0  0
 21 20  1  0  0  0  0
 21 23  1  0  0  0  0
 22 24  1  0  0  0  0
 23 24  2  0  0  0  0
 23 25  1  0  0  0  0
 26  6  1  0  0  0  0
 27 26  1  0  0  0  0
 27 28  1  1  0  0  0
 29 27  1  0  0  0  0
 31 30  1  1  0  0  0
 31 29  1  0  0  0  0
 32 31  1  0  0  0  0
 33 34  1  1  0  0  0
 33 31  1  0  0  0  0
 35 36  1  6  0  0  0
 35 33  1  0  0  0  0
 37 39  1  0  0  0  0
 37 40  1  0  0  0  0
 38 41  1  0  0  0  0
 39 38  1  0  0  0  0
 40 41  1  0  0  0  0
 41 35  1  1  0  0  0
 43 42  1  0  0  0  0
 43 44  1  0  0  0  0
 45 55  1  6  0  0  0
 47 46  1  0  0  0  0
 47 48  1  0  0  0  0
 48 44  1  6  0  0  0
 49 45  1  0  0  0  0
 49 48  1  0  0  0  0
 50 46  1  0  0  0  0
 50 45  1  0  0  0  0
 51 56  1  0  0  0  0
 52 54  1  0  0  0  0
 53 55  2  0  0  0  0
 54 57  2  0  0  0  0
 55 57  1  0  0  0  0
 56 53  1  0  0  0  0
 56 52  2  0  0  0  0
M  END
>  <MODEL>
9

>  <REMARK>
 VINA RESULT:      -4.5      1.562      2.310
  Name = 
  17 active torsions:
  status: ('A' for Active; 'I' for Inactive)
    1  A    between atoms: C_1  and  C_22
    2  A    between atoms: C_1  and  C_24
    3  A    between atoms: C_2  and  C_40
    4  A    between atoms: C_4  and  C_44
    5  A    between atoms: N_7  and  N_46
    6  A    between atoms: C_12  and  C_37
    7  A    between atoms: C_14  and  C_54
    8  A    between atoms: C_16  and  C_24
    9  A    between atoms: C_16  and  C_28
   10  A    between atoms: C_17  and  C_39
   11  A    between atoms: C_22  and  C_39
   12  A    between atoms: N_23  and  C_26
   13  A    between atoms: N_23  and  C_40
   14  A    between atoms: C_26  and  C_31
   15  A    between atoms: C_28  and  C_56
   16  A    between atoms: C_44  and  C_45
   17  A    between atoms: C_45  and  C_54
                            x       y       z     vdW  Elec       q    Type
                         _______ _______ _______ _____ _____    ______ ____

>  <TORSDO>
F 17

$$$$
