=
 OpenBabel11052410003D

 39 42  0  0  1  0  0  0  0  0999 V2000
  161.7670  206.5470  151.0520 N   0  0  0  0  0  0  0  0  0  0  0  0
  161.9310  208.1160  149.1950 C   0  0  0  0  0  3  0  0  0  0  0  0
  161.0970  208.6580  152.1140 C   0  0  0  0  0  0  0  0  0  0  0  0
  161.2390  206.9100  149.7430 C   0  0  1  0  0  3  0  0  0  0  0  0
  161.9240  209.2980  149.8110 C   0  0  0  0  0  0  0  0  0  0  0  0
  161.6680  207.2950  152.1080 C   0  0  0  0  0  3  0  0  0  0  0  0
  161.2620  209.5330  151.1100 C   0  0  0  0  0  3  0  0  0  0  0  0
  161.7260  205.9100  147.5120 N   0  0  0  0  0  0  0  0  0  0  0  0
  161.1020  204.4780  149.1580 N   0  0  0  0  0  0  0  0  0  0  0  0
  161.3740  205.7560  148.8080 C   0  0  0  0  0  0  0  0  0  0  0  0
  161.6740  204.6610  147.0210 C   0  0  2  0  0  3  0  0  0  0  0  0
  161.2970  203.7920  148.0200 C   0  0  0  0  0  0  0  0  0  0  0  0
  160.9470  204.7950  144.6730 C   0  0  0  0  0  1  0  0  0  0  0  0
  162.0240  204.3010  145.6170 C   0  0  0  0  0  2  0  0  0  0  0  0
  161.1390  202.3160  147.9010 C   0  0  0  0  0  2  0  0  0  0  0  0
  160.2450  201.8560  148.8700 O   0  0  0  0  0  1  0  0  0  0  0  0
  162.5400  210.4640  149.1110 C   0  0  0  0  0  2  0  0  0  0  0  0
  161.8410  211.6650  149.4300 O   0  0  0  0  0  0  0  0  0  0  0  0
  160.1230  213.3460  148.9610 C   0  0  0  0  0  3  0  0  0  0  0  0
  160.9470  212.2860  148.5490 C   0  0  0  0  0  0  0  0  0  0  0  0
  159.1430  213.4790  146.7400 C   0  0  0  0  0  0  0  0  0  0  0  0
  159.9710  212.4220  146.3340 C   0  0  0  0  0  3  0  0  0  0  0  0
  160.8680  211.8330  147.2300 C   0  0  0  0  0  3  0  0  0  0  0  0
  159.2240  213.9300  148.0650 C   0  0  0  0  0  3  0  0  0  0  0  0
  159.7810  214.4530  143.8790 C   0  0  0  0  0  1  0  0  0  0  0  0
  158.4470  214.4140  144.4550 N   0  0  0  0  0  2  0  0  0  0  0  0
  158.1510  214.0860  145.8210 C   0  0  0  0  0  0  0  0  0  0  0  0
  156.9880  214.3190  146.2490 O   0  0  0  0  0  0  0  0  0  0  0  0
  160.4380  209.1160  153.3830 C   0  0  1  0  0  3  0  0  0  0  0  0
  160.0520  208.3570  155.7230 C   0  0  1  0  0  3  0  0  0  0  0  0
  161.0890  208.4970  154.6240 C   0  0  1  0  0  3  0  0  0  0  0  0
  160.4690  207.1440  154.9200 C   0  0  0  0  0  2  0  0  0  0  0  0
  162.1650  208.6360  156.8790 N   0  0  0  0  0  1  0  0  0  0  0  0
  160.7550  208.3420  157.0660 C   0  0  0  0  0  2  0  0  0  0  0  0
  160.3250  210.6490  153.4440 C   0  0  2  0  0  3  0  0  0  0  0  0
  161.0720  211.2530  154.6290 C   0  0  0  0  0  1  0  0  0  0  0  0
  158.8670  211.0860  153.4410 C   0  0  0  0  0  2  0  0  0  0  0  0
  158.4240  211.3990  154.8030 C   0  0  0  0  0  0  0  0  0  0  0  0
  158.0750  211.6480  155.8790 N   0  0  0  0  0  0  0  0  0  0  0  0
  1  6  2  0  0  0  0
  2  4  1  0  0  0  0
  2  5  2  0  0  0  0
  3 29  1  0  0  0  0
  4 10  1  6  0  0  0
  4  1  1  0  0  0  0
  5  7  1  0  0  0  0
  6  3  1  0  0  0  0
  7  3  2  0  0  0  0
  8 10  2  0  0  0  0
 10  9  1  0  0  0  0
 11 14  1  1  0  0  0
 11  8  1  0  0  0  0
 11 12  1  0  0  0  0
 12  9  2  0  0  0  0
 13 14  1  0  0  0  0
 15 12  1  0  0  0  0
 15 16  1  0  0  0  0
 17 18  1  0  0  0  0
 17  5  1  0  0  0  0
 20 19  1  0  0  0  0
 20 18  1  0  0  0  0
 21 24  1  0  0  0  0
 22 21  2  0  0  0  0
 22 23  1  0  0  0  0
 23 20  2  0  0  0  0
 24 19  2  0  0  0  0
 25 26  1  0  0  0  0
 26 27  1  0  0  0  0
 27 28  2  0  0  0  0
 27 21  1  0  0  0  0
 29 35  1  1  0  0  0
 30 34  1  1  0  0  0
 31 29  1  6  0  0  0
 31 32  1  0  0  0  0
 31 30  1  0  0  0  0
 32 30  1  0  0  0  0
 33 34  1  0  0  0  0
 35 36  1  1  0  0  0
 37 35  1  0  0  0  0
 37 38  1  0  0  0  0
 38 39  3  0  0  0  0
M  END
>  <MODEL>
1

>  <REMARK>
 VINA RESULT:      -7.0      0.000      0.000
  Name = 
  13 active torsions:
  status: ('A' for Active; 'I' for Inactive)
    1  A    between atoms: O_1  and  C_2
    2  A    between atoms: O_1  and  C_17
    3  A    between atoms: C_2  and  C_32
    4  A    between atoms: C_4  and  C_36
    5  A    between atoms: C_10  and  C_20
    6  A    between atoms: C_11  and  C_29
    7  A    between atoms: C_12  and  C_16
    8  A    between atoms: C_12  and  C_20
    9  A    between atoms: C_16  and  C_22
   10  A    between atoms: C_18  and  C_19
   11  A    between atoms: C_20  and  C_24
   12  A    between atoms: C_21  and  C_26
   13  A    between atoms: CA_27  and  C_35
                            x       y       z     vdW  Elec       q    Type
                         _______ _______ _______ _____ _____    ______ ____

>  <TORSDO>
F 13

$$$$
=
 OpenBabel11052410003D

 39 42  0  0  1  0  0  0  0  0999 V2000
  161.8520  206.8200  151.2280 N   0  0  0  0  0  0  0  0  0  0  0  0
  161.9530  208.4280  149.4000 C   0  0  0  0  0  3  0  0  0  0  0  0
  161.4060  208.9370  152.3910 C   0  0  0  0  0  0  0  0  0  0  0  0
  161.2380  207.2500  149.9780 C   0  0  1  0  0  3  0  0  0  0  0  0
  162.0710  209.5900  150.0400 C   0  0  0  0  0  0  0  0  0  0  0  0
  161.8890  207.5430  152.3060 C   0  0  0  0  0  3  0  0  0  0  0  0
  161.5390  209.8280  151.3970 C   0  0  0  0  0  3  0  0  0  0  0  0
  161.0380  204.8350  149.3960 N   0  0  0  0  0  0  0  0  0  0  0  0
  161.4440  206.2670  147.6840 N   0  0  0  0  0  0  0  0  0  0  0  0
  161.2210  206.1170  149.0090 C   0  0  0  0  0  0  0  0  0  0  0  0
  161.1490  204.1410  148.2510 C   0  0  2  0  0  3  0  0  0  0  0  0
  161.3930  205.0100  147.2130 C   0  0  0  0  0  0  0  0  0  0  0  0
  160.6470  202.0880  149.5140 C   0  0  0  0  0  1  0  0  0  0  0  0
  160.9800  202.6630  148.1520 C   0  0  0  0  0  2  0  0  0  0  0  0
  161.5620  204.6530  145.7760 C   0  0  0  0  0  2  0  0  0  0  0  0
  160.6310  205.3460  145.0020 O   0  0  0  0  0  1  0  0  0  0  0  0
  162.6960  210.7370  149.3160 C   0  0  0  0  0  2  0  0  0  0  0  0
  161.7510  211.7880  149.1340 O   0  0  0  0  0  0  0  0  0  0  0  0
  160.0870  212.2640  147.4010 C   0  0  0  0  0  3  0  0  0  0  0  0
  161.4080  212.2990  147.8760 C   0  0  0  0  0  0  0  0  0  0  0  0
  160.7820  213.3130  145.3210 C   0  0  0  0  0  0  0  0  0  0  0  0
  162.0990  213.3480  145.8020 C   0  0  0  0  0  3  0  0  0  0  0  0
  162.4090  212.8490  147.0710 C   0  0  0  0  0  3  0  0  0  0  0  0
  159.7810  212.7590  146.1320 C   0  0  0  0  0  3  0  0  0  0  0  0
  162.6170  213.0260  142.8520 C   0  0  0  0  0  1  0  0  0  0  0  0
  161.2560  213.5350  142.8090 N   0  0  0  0  0  2  0  0  0  0  0  0
  160.4390  213.7930  143.9610 C   0  0  0  0  0  0  0  0  0  0  0  0
  159.3760  214.4510  143.7990 O   0  0  0  0  0  0  0  0  0  0  0  0
  160.8880  209.3980  153.7230 C   0  0  1  0  0  3  0  0  0  0  0  0
  160.1600  208.6780  155.9930 C   0  0  1  0  0  3  0  0  0  0  0  0
  161.0240  208.3170  154.7990 C   0  0  1  0  0  3  0  0  0  0  0  0
  159.6920  207.6220  155.0150 C   0  0  0  0  0  2  0  0  0  0  0  0
  160.4020  206.5910  157.2040 N   0  0  0  0  0  1  0  0  0  0  0  0
  160.7230  208.0080  157.2300 C   0  0  0  0  0  2  0  0  0  0  0  0
  161.4900  210.7540  154.1290 C   0  0  2  0  0  3  0  0  0  0  0  0
  162.5320  210.6320  155.2370 C   0  0  0  0  0  1  0  0  0  0  0  0
  160.3960  211.7390  154.5170 C   0  0  0  0  0  2  0  0  0  0  0  0
  159.2280  211.5760  153.6460 C   0  0  0  0  0  0  0  0  0  0  0  0
  158.3050  211.4480  152.9590 N   0  0  0  0  0  0  0  0  0  0  0  0
  1  6  2  0  0  0  0
  2  4  1  0  0  0  0
  2  5  2  0  0  0  0
  3 29  1  0  0  0  0
  4 10  1  6  0  0  0
  4  1  1  0  0  0  0
  5  7  1  0  0  0  0
  6  3  1  0  0  0  0
  7  3  2  0  0  0  0
  9 10  1  0  0  0  0
 10  8  2  0  0  0  0
 11 14  1  6  0  0  0
 11  8  1  0  0  0  0
 12  9  2  0  0  0  0
 12 11  1  0  0  0  0
 14 13  1  0  0  0  0
 15 12  1  0  0  0  0
 16 15  1  0  0  0  0
 17  5  1  0  0  0  0
 18 17  1  0  0  0  0
 19 20  1  0  0  0  0
 20 18  1  0  0  0  0
 21 22  2  0  0  0  0
 21 24  1  0  0  0  0
 22 23  1  0  0  0  0
 23 20  2  0  0  0  0
 24 19  2  0  0  0  0
 26 25  1  0  0  0  0
 26 27  1  0  0  0  0
 27 21  1  0  0  0  0
 28 27  2  0  0  0  0
 29 35  1  1  0  0  0
 30 34  1  1  0  0  0
 31 29  1  6  0  0  0
 31 32  1  0  0  0  0
 31 30  1  0  0  0  0
 32 30  1  0  0  0  0
 33 34  1  0  0  0  0
 35 37  1  0  0  0  0
 35 36  1  1  0  0  0
 38 37  1  0  0  0  0
 39 38  3  0  0  0  0
M  END
>  <MODEL>
2

>  <REMARK>
 VINA RESULT:      -7.0      1.633      2.207
  Name = 
  13 active torsions:
  status: ('A' for Active; 'I' for Inactive)
    1  A    between atoms: O_1  and  C_2
    2  A    between atoms: O_1  and  C_17
    3  A    between atoms: C_2  and  C_32
    4  A    between atoms: C_4  and  C_36
    5  A    between atoms: C_10  and  C_20
    6  A    between atoms: C_11  and  C_29
    7  A    between atoms: C_12  and  C_16
    8  A    between atoms: C_12  and  C_20
    9  A    between atoms: C_16  and  C_22
   10  A    between atoms: C_18  and  C_19
   11  A    between atoms: C_20  and  C_24
   12  A    between atoms: C_21  and  C_26
   13  A    between atoms: CA_27  and  C_35
                            x       y       z     vdW  Elec       q    Type
                         _______ _______ _______ _____ _____    ______ ____

>  <TORSDO>
F 13

$$$$
=
 OpenBabel11052410003D

 39 42  0  0  1  0  0  0  0  0999 V2000
  161.7280  206.5420  152.2080 N   0  0  0  0  0  0  0  0  0  0  0  0
  161.8400  208.1320  150.3650 C   0  0  0  0  0  3  0  0  0  0  0  0
  161.3040  208.6730  153.3530 C   0  0  0  0  0  0  0  0  0  0  0  0
  161.1150  206.9660  150.9560 C   0  0  1  0  0  3  0  0  0  0  0  0
  161.9690  209.2990  150.9940 C   0  0  0  0  0  0  0  0  0  0  0  0
  161.7750  207.2750  153.2790 C   0  0  0  0  0  3  0  0  0  0  0  0
  161.4420  209.5540  152.3500 C   0  0  0  0  0  3  0  0  0  0  0  0
  160.7250  204.5760  150.3680 N   0  0  0  0  0  0  0  0  0  0  0  0
  161.4710  205.9260  148.7050 N   0  0  0  0  0  2  0  0  0  0  0  0
  161.0860  205.8240  149.9970 C   0  0  0  0  0  0  0  0  0  0  0  0
  160.8890  203.8540  149.2470 C   0  0  0  0  0  0  0  0  0  0  0  0
  161.3400  204.6730  148.2380 C   0  0  0  0  0  0  0  0  0  0  0  0
  160.9460  201.6930  150.4240 C   0  0  0  0  0  1  0  0  0  0  0  0
  160.5750  202.4010  149.1370 C   0  0  0  0  0  2  0  0  0  0  0  0
  161.6300  204.2760  146.8310 C   0  0  0  0  0  2  0  0  0  0  0  0
  162.6890  205.0360  146.3330 O   0  0  0  0  0  1  0  0  0  0  0  0
  162.6030  210.4340  150.2580 C   0  0  0  0  0  2  0  0  0  0  0  0
  161.6070  211.2650  149.6670 O   0  0  0  0  0  0  0  0  0  0  0  0
  160.6460  212.2150  147.6250 C   0  0  0  0  0  3  0  0  0  0  0  0
  161.7550  211.8600  148.4090 C   0  0  0  0  0  0  0  0  0  0  0  0
  162.1170  213.0260  145.8670 C   0  0  0  0  0  0  0  0  0  0  0  0
  163.2210  212.6720  146.6560 C   0  0  0  0  0  3  0  0  0  0  0  0
  163.0420  212.0970  147.9180 C   0  0  0  0  0  3  0  0  0  0  0  0
  160.8270  212.7860  146.3630 C   0  0  0  0  0  3  0  0  0  0  0  0
  160.4760  212.1540  143.3990 C   0  0  0  0  0  1  0  0  0  0  0  0
  161.4220  213.2580  143.4090 N   0  0  0  0  0  2  0  0  0  0  0  0
  162.2830  213.5930  144.5070 C   0  0  0  0  0  0  0  0  0  0  0  0
  163.2150  214.4170  144.3020 O   0  0  0  0  0  0  0  0  0  0  0  0
  160.7930  209.1520  154.6810 C   0  0  1  0  0  3  0  0  0  0  0  0
  159.1810  210.8690  155.4920 C   0  0  1  0  0  3  0  0  0  0  0  0
  159.3490  209.6570  154.5940 C   0  0  1  0  0  3  0  0  0  0  0  0
  159.3190  211.0520  153.9960 C   0  0  0  0  0  2  0  0  0  0  0  0
  156.9750  211.5950  154.7950 N   0  0  0  0  0  1  0  0  0  0  0  0
  157.7230  210.9920  155.8850 C   0  0  0  0  0  2  0  0  0  0  0  0
  161.0150  208.1060  155.7870 C   0  0  2  0  0  3  0  0  0  0  0  0
  159.7440  207.3430  156.1470 C   0  0  0  0  0  1  0  0  0  0  0  0
  161.6340  208.7450  157.0220 C   0  0  0  0  0  2  0  0  0  0  0  0
  162.5390  209.8330  156.6360 C   0  0  0  0  0  0  0  0  0  0  0  0
  163.2550  210.6900  156.3310 N   0  0  0  0  0  0  0  0  0  0  0  0
  1  6  2  0  0  0  0
  2  4  1  0  0  0  0
  2  5  2  0  0  0  0
  3 29  1  0  0  0  0
  4 10  1  6  0  0  0
  4  1  1  0  0  0  0
  5  7  1  0  0  0  0
  6  3  1  0  0  0  0
  7  3  2  0  0  0  0
  9 10  1  0  0  0  0
 10  8  2  0  0  0  0
 11  8  1  0  0  0  0
 12  9  1  0  0  0  0
 12 11  2  0  0  0  0
 14 11  1  0  0  0  0
 14 13  1  0  0  0  0
 15 12  1  0  0  0  0
 16 15  1  0  0  0  0
 17  5  1  0  0  0  0
 18 17  1  0  0  0  0
 19 20  1  0  0  0  0
 20 18  1  0  0  0  0
 21 24  1  0  0  0  0
 21 22  2  0  0  0  0
 22 23  1  0  0  0  0
 23 20  2  0  0  0  0
 24 19  2  0  0  0  0
 25 26  1  0  0  0  0
 26 27  1  0  0  0  0
 27 21  1  0  0  0  0
 28 27  2  0  0  0  0
 29 35  1  1  0  0  0
 30 34  1  6  0  0  0
 31 29  1  1  0  0  0
 31 30  1  0  0  0  0
 32 31  1  0  0  0  0
 32 30  1  0  0  0  0
 33 34  1  0  0  0  0
 35 36  1  1  0  0  0
 35 37  1  0  0  0  0
 38 37  1  0  0  0  0
 39 38  3  0  0  0  0
M  END
>  <MODEL>
3

>  <REMARK>
 VINA RESULT:      -6.9      1.962      3.339
  Name = 
  13 active torsions:
  status: ('A' for Active; 'I' for Inactive)
    1  A    between atoms: O_1  and  C_2
    2  A    between atoms: O_1  and  C_17
    3  A    between atoms: C_2  and  C_32
    4  A    between atoms: C_4  and  C_36
    5  A    between atoms: C_10  and  C_20
    6  A    between atoms: C_11  and  C_29
    7  A    between atoms: C_12  and  C_16
    8  A    between atoms: C_12  and  C_20
    9  A    between atoms: C_16  and  C_22
   10  A    between atoms: C_18  and  C_19
   11  A    between atoms: C_20  and  C_24
   12  A    between atoms: C_21  and  C_26
   13  A    between atoms: CA_27  and  C_35
                            x       y       z     vdW  Elec       q    Type
                         _______ _______ _______ _____ _____    ______ ____

>  <TORSDO>
F 13

$$$$
=
 OpenBabel11052410003D

 39 42  0  0  1  0  0  0  0  0999 V2000
  161.7700  207.4120  151.7230 N   0  0  0  0  0  0  0  0  0  0  0  0
  161.8560  208.6520  149.6270 C   0  0  0  0  0  3  0  0  0  0  0  0
  161.2260  209.6910  152.4610 C   0  0  0  0  0  0  0  0  0  0  0  0
  161.1690  207.5770  150.4060 C   0  0  1  0  0  3  0  0  0  0  0  0
  161.9190  209.9170  150.0390 C   0  0  0  0  0  0  0  0  0  0  0  0
  161.7590  208.3260  152.6470 C   0  0  0  0  0  3  0  0  0  0  0  0
  161.3490  210.3840  151.3190 C   0  0  0  0  0  3  0  0  0  0  0  0
  161.5300  206.2060  148.3560 N   0  0  0  0  0  0  0  0  0  0  0  0
  160.8850  205.0950  150.2260 N   0  0  0  0  0  0  0  0  0  0  0  0
  161.2130  206.2820  149.6680 C   0  0  0  0  0  0  0  0  0  0  0  0
  161.3970  204.8990  148.0750 C   0  0  2  0  0  3  0  0  0  0  0  0
  161.0080  204.2250  149.2100 C   0  0  0  0  0  0  0  0  0  0  0  0
  162.9680  204.8750  146.1800 C   0  0  0  0  0  1  0  0  0  0  0  0
  161.6830  204.2990  146.7410 C   0  0  0  0  0  2  0  0  0  0  0  0
  160.7680  202.7600  149.3360 C   0  0  0  0  0  2  0  0  0  0  0  0
  160.8050  202.3870  150.6800 O   0  0  0  0  0  1  0  0  0  0  0  0
  162.5190  210.9310  149.1220 C   0  0  0  0  0  2  0  0  0  0  0  0
  161.5870  211.9750  148.8510 O   0  0  0  0  0  0  0  0  0  0  0  0
  159.9680  212.2340  147.0330 C   0  0  0  0  0  3  0  0  0  0  0  0
  161.2610  212.3920  147.5550 C   0  0  0  0  0  0  0  0  0  0  0  0
  160.6710  213.2210  144.9260 C   0  0  0  0  0  0  0  0  0  0  0  0
  161.9610  213.3790  145.4540 C   0  0  0  0  0  3  0  0  0  0  0  0
  162.2520  212.9720  146.7590 C   0  0  0  0  0  3  0  0  0  0  0  0
  159.6790  212.6380  145.7270 C   0  0  0  0  0  3  0  0  0  0  0  0
  162.2410  212.2530  142.4470 C   0  0  0  0  0  1  0  0  0  0  0  0
  161.0190  213.0390  142.3910 N   0  0  0  0  0  2  0  0  0  0  0  0
  160.3510  213.6020  143.5290 C   0  0  0  0  0  0  0  0  0  0  0  0
  159.4430  214.4530  143.3250 O   0  0  0  0  0  0  0  0  0  0  0  0
  160.6620  210.3740  153.6740 C   0  0  1  0  0  3  0  0  0  0  0  0
  158.8200  211.8250  154.5130 C   0  0  1  0  0  3  0  0  0  0  0  0
  159.1990  210.7830  153.4770 C   0  0  1  0  0  3  0  0  0  0  0  0
  159.1130  212.2470  153.0890 C   0  0  0  0  0  2  0  0  0  0  0  0
  156.7130  212.9730  154.1610 N   0  0  0  0  0  1  0  0  0  0  0  0
  157.3210  211.7820  154.7300 C   0  0  0  0  0  2  0  0  0  0  0  0
  160.9090  209.5550  154.9540 C   0  0  2  0  0  3  0  0  0  0  0  0
  159.7580  208.6100  155.2830 C   0  0  0  0  0  1  0  0  0  0  0  0
  161.2160  210.4700  156.1310 C   0  0  0  0  0  2  0  0  0  0  0  0
  162.6540  210.7490  156.2010 C   0  0  0  0  0  0  0  0  0  0  0  0
  163.7880  210.9710  156.2570 N   0  0  0  0  0  0  0  0  0  0  0  0
  1  6  2  0  0  0  0
  2  5  2  0  0  0  0
  2  4  1  0  0  0  0
  3  6  1  0  0  0  0
  3 29  1  0  0  0  0
  4 10  1  6  0  0  0
  4  1  1  0  0  0  0
  5  7  1  0  0  0  0
  7  3  2  0  0  0  0
  8 10  2  0  0  0  0
 10  9  1  0  0  0  0
 11 14  1  1  0  0  0
 11  8  1  0  0  0  0
 11 12  1  0  0  0  0
 12 15  1  0  0  0  0
 12  9  2  0  0  0  0
 13 14  1  0  0  0  0
 15 16  1  0  0  0  0
 17  5  1  0  0  0  0
 18 17  1  0  0  0  0
 19 20  1  0  0  0  0
 20 18  1  0  0  0  0
 21 22  2  0  0  0  0
 21 24  1  0  0  0  0
 22 23  1  0  0  0  0
 23 20  2  0  0  0  0
 24 19  2  0  0  0  0
 26 25  1  0  0  0  0
 26 27  1  0  0  0  0
 27 21  1  0  0  0  0
 28 27  2  0  0  0  0
 29 35  1  1  0  0  0
 30 34  1  6  0  0  0
 31 29  1  1  0  0  0
 31 30  1  0  0  0  0
 32 31  1  0  0  0  0
 32 30  1  0  0  0  0
 33 34  1  0  0  0  0
 35 36  1  1  0  0  0
 35 37  1  0  0  0  0
 37 38  1  0  0  0  0
 38 39  3  0  0  0  0
M  END
>  <MODEL>
4

>  <REMARK>
 VINA RESULT:      -6.8      1.633      2.904
  Name = 
  13 active torsions:
  status: ('A' for Active; 'I' for Inactive)
    1  A    between atoms: O_1  and  C_2
    2  A    between atoms: O_1  and  C_17
    3  A    between atoms: C_2  and  C_32
    4  A    between atoms: C_4  and  C_36
    5  A    between atoms: C_10  and  C_20
    6  A    between atoms: C_11  and  C_29
    7  A    between atoms: C_12  and  C_16
    8  A    between atoms: C_12  and  C_20
    9  A    between atoms: C_16  and  C_22
   10  A    between atoms: C_18  and  C_19
   11  A    between atoms: C_20  and  C_24
   12  A    between atoms: C_21  and  C_26
   13  A    between atoms: CA_27  and  C_35
                            x       y       z     vdW  Elec       q    Type
                         _______ _______ _______ _____ _____    ______ ____

>  <TORSDO>
F 13

$$$$
=
 OpenBabel11052410003D

 39 42  0  0  1  0  0  0  0  0999 V2000
  162.7170  209.0250  148.4060 N   0  0  0  0  0  0  0  0  0  0  0  0
  161.5940  209.2910  150.5520 C   0  0  0  0  0  3  0  0  0  0  0  0
  162.0290  206.7210  148.9040 C   0  0  0  0  0  0  0  0  0  0  0  0
  161.5850  209.6290  149.0960 C   0  0  1  0  0  3  0  0  0  0  0  0
  161.5310  208.0390  151.0040 C   0  0  0  0  0  0  0  0  0  0  0  0
  162.8930  207.7440  148.2820 C   0  0  0  0  0  3  0  0  0  0  0  0
  161.4800  206.8570  150.1210 C   0  0  0  0  0  3  0  0  0  0  0  0
  161.0050  211.9620  149.7570 N   0  0  0  0  0  0  0  0  0  0  0  0
  162.1740  211.7080  147.8280 N   0  0  0  0  0  2  0  0  0  0  0  0
  161.6070  211.1070  148.9000 C   0  0  0  0  0  0  0  0  0  0  0  0
  161.2060  213.1650  149.1950 C   0  0  0  0  0  0  0  0  0  0  0  0
  161.9160  213.0120  148.0270 C   0  0  0  0  0  0  0  0  0  0  0  0
  159.5660  214.2110  150.7040 C   0  0  0  0  0  1  0  0  0  0  0  0
  160.7570  214.4530  149.7980 C   0  0  0  0  0  2  0  0  0  0  0  0
  162.3640  214.0970  147.1090 C   0  0  0  0  0  2  0  0  0  0  0  0
  162.7160  213.5550  145.8720 O   0  0  0  0  0  1  0  0  0  0  0  0
  161.4180  207.8250  152.4780 C   0  0  0  0  0  2  0  0  0  0  0  0
  161.5960  209.0540  153.1780 O   0  0  0  0  0  0  0  0  0  0  0  0
  159.8030  210.7200  153.2370 C   0  0  0  0  0  3  0  0  0  0  0  0
  160.5570  209.7070  153.8500 C   0  0  0  0  0  0  0  0  0  0  0  0
  158.4960  211.0110  155.2660 C   0  0  0  0  0  0  0  0  0  0  0  0
  159.2510  209.9970  155.8730 C   0  0  0  0  0  3  0  0  0  0  0  0
  160.2700  209.3470  155.1700 C   0  0  0  0  0  3  0  0  0  0  0  0
  158.7880  211.3700  153.9430 C   0  0  0  0  0  3  0  0  0  0  0  0
  155.4820  210.3480  155.1320 C   0  0  0  0  0  1  0  0  0  0  0  0
  156.0670  211.3370  156.0240 N   0  0  0  0  0  2  0  0  0  0  0  0
  157.4430  211.7450  156.0080 C   0  0  0  0  0  0  0  0  0  0  0  0
  157.7650  212.7720  156.6650 O   0  0  0  0  0  0  0  0  0  0  0  0
  161.9040  205.4060  148.1890 C   0  0  1  0  0  3  0  0  0  0  0  0
  161.2950  203.1160  148.9530 C   0  0  1  0  0  3  0  0  0  0  0  0
  160.7890  204.5350  148.7760 C   0  0  1  0  0  3  0  0  0  0  0  0
  161.1870  204.0340  150.1520 C   0  0  0  0  0  2  0  0  0  0  0  0
  160.4240  200.9910  149.7310 N   0  0  0  0  0  1  0  0  0  0  0  0
  160.1150  202.1650  148.9350 C   0  0  0  0  0  2  0  0  0  0  0  0
  161.8040  205.5950  146.6650 C   0  0  2  0  0  3  0  0  0  0  0  0
  160.3700  205.7990  146.1860 C   0  0  0  0  0  1  0  0  0  0  0  0
  162.4640  204.4370  145.9300 C   0  0  0  0  0  2  0  0  0  0  0  0
  161.4630  203.4330  145.5530 C   0  0  0  0  0  0  0  0  0  0  0  0
  160.6720  202.6420  145.2540 N   0  0  0  0  0  0  0  0  0  0  0  0
  1  4  1  0  0  0  0
  2  5  2  0  0  0  0
  3  7  2  0  0  0  0
  4 10  1  1  0  0  0
  4  2  1  0  0  0  0
  5 17  1  0  0  0  0
  6  1  2  0  0  0  0
  6  3  1  0  0  0  0
  7  5  1  0  0  0  0
  9 12  1  0  0  0  0
  9 10  1  0  0  0  0
 10  8  2  0  0  0  0
 11  8  1  0  0  0  0
 11 14  1  0  0  0  0
 12 11  2  0  0  0  0
 14 13  1  0  0  0  0
 15 12  1  0  0  0  0
 16 15  1  0  0  0  0
 17 18  1  0  0  0  0
 18 20  1  0  0  0  0
 19 20  2  0  0  0  0
 19 24  1  0  0  0  0
 20 23  1  0  0  0  0
 21 22  1  0  0  0  0
 21 27  1  0  0  0  0
 23 22  2  0  0  0  0
 24 21  2  0  0  0  0
 25 26  1  0  0  0  0
 27 26  1  0  0  0  0
 27 28  2  0  0  0  0
 29 35  1  6  0  0  0
 29  3  1  0  0  0  0
 30 34  1  1  0  0  0
 30 32  1  0  0  0  0
 31 29  1  6  0  0  0
 31 30  1  0  0  0  0
 31 32  1  0  0  0  0
 34 33  1  0  0  0  0
 35 36  1  6  0  0  0
 37 35  1  0  0  0  0
 38 37  1  0  0  0  0
 39 38  3  0  0  0  0
M  END
>  <MODEL>
5

>  <REMARK>
 VINA RESULT:      -6.6      2.950      8.600
  Name = 
  13 active torsions:
  status: ('A' for Active; 'I' for Inactive)
    1  A    between atoms: O_1  and  C_2
    2  A    between atoms: O_1  and  C_17
    3  A    between atoms: C_2  and  C_32
    4  A    between atoms: C_4  and  C_36
    5  A    between atoms: C_10  and  C_20
    6  A    between atoms: C_11  and  C_29
    7  A    between atoms: C_12  and  C_16
    8  A    between atoms: C_12  and  C_20
    9  A    between atoms: C_16  and  C_22
   10  A    between atoms: C_18  and  C_19
   11  A    between atoms: C_20  and  C_24
   12  A    between atoms: C_21  and  C_26
   13  A    between atoms: CA_27  and  C_35
                            x       y       z     vdW  Elec       q    Type
                         _______ _______ _______ _____ _____    ______ ____

>  <TORSDO>
F 13

$$$$
=
 OpenBabel11052410003D

 39 42  0  0  1  0  0  0  0  0999 V2000
  161.8770  206.6220  152.0550 N   0  0  0  0  0  0  0  0  0  0  0  0
  161.8800  208.2800  150.2690 C   0  0  0  0  0  3  0  0  0  0  0  0
  161.3430  208.6840  153.2780 C   0  0  0  0  0  0  0  0  0  0  0  0
  161.2290  207.0540  150.8240 C   0  0  1  0  0  3  0  0  0  0  0  0
  161.9490  209.4290  150.9390 C   0  0  0  0  0  0  0  0  0  0  0  0
  161.8930  207.3180  153.1510 C   0  0  0  0  0  3  0  0  0  0  0  0
  161.4210  209.6060  152.3070 C   0  0  0  0  0  3  0  0  0  0  0  0
  161.3130  206.1720  148.4940 N   0  0  0  0  0  0  0  0  0  0  0  0
  161.1680  204.6390  150.1610 N   0  0  0  0  0  2  0  0  0  0  0  0
  161.2560  205.9460  149.8250 C   0  0  0  0  0  0  0  0  0  0  0  0
  161.2590  204.9390  147.9640 C   0  0  0  0  0  0  0  0  0  0  0  0
  161.1730  204.0090  148.9740 C   0  0  0  0  0  0  0  0  0  0  0  0
  162.7820  204.6020  146.0590 C   0  0  0  0  0  1  0  0  0  0  0  0
  161.3340  204.6550  146.5010 C   0  0  0  0  0  2  0  0  0  0  0  0
  161.1130  202.5290  148.8190 C   0  0  0  0  0  2  0  0  0  0  0  0
  160.0880  202.0100  149.6130 O   0  0  0  0  0  1  0  0  0  0  0  0
  162.5090  210.6240  150.2380 C   0  0  0  0  0  2  0  0  0  0  0  0
  161.5630  211.6900  150.2330 O   0  0  0  0  0  0  0  0  0  0  0  0
  160.2700  213.4270  149.0900 C   0  0  0  0  0  3  0  0  0  0  0  0
  161.0950  212.2920  149.0590 C   0  0  0  0  0  0  0  0  0  0  0  0
  160.1580  213.4430  146.6620 C   0  0  0  0  0  0  0  0  0  0  0  0
  160.9850  212.3100  146.6370 C   0  0  0  0  0  3  0  0  0  0  0  0
  161.4530  211.7420  147.8250 C   0  0  0  0  0  3  0  0  0  0  0  0
  159.8000  213.9910  147.9020 C   0  0  0  0  0  3  0  0  0  0  0  0
  157.1520  213.5720  145.9620 C   0  0  0  0  0  1  0  0  0  0  0  0
  158.2060  214.1920  145.1750 N   0  0  0  0  0  2  0  0  0  0  0  0
  159.6120  214.0340  145.4160 C   0  0  0  0  0  0  0  0  0  0  0  0
  160.4150  214.4270  144.5280 O   0  0  0  0  0  0  0  0  0  0  0  0
  160.8190  209.0850  154.6270 C   0  0  1  0  0  3  0  0  0  0  0  0
  159.2820  210.7630  155.6380 C   0  0  1  0  0  3  0  0  0  0  0  0
  159.4330  209.7310  154.5360 C   0  0  1  0  0  3  0  0  0  0  0  0
  159.5650  211.2100  154.2200 C   0  0  0  0  0  2  0  0  0  0  0  0
  157.1280  211.4530  154.7630 N   0  0  0  0  0  1  0  0  0  0  0  0
  157.8080  210.9470  155.9420 C   0  0  0  0  0  2  0  0  0  0  0  0
  160.8950  207.9260  155.6360 C   0  0  2  0  0  3  0  0  0  0  0  0
  159.5210  207.4420  156.0880 C   0  0  0  0  0  1  0  0  0  0  0  0
  161.7600  208.3020  156.8300 C   0  0  0  0  0  2  0  0  0  0  0  0
  162.4410  209.5780  156.5870 C   0  0  0  0  0  0  0  0  0  0  0  0
  162.9790  210.5850  156.3960 N   0  0  0  0  0  0  0  0  0  0  0  0
  1  6  2  0  0  0  0
  2  4  1  0  0  0  0
  2  5  2  0  0  0  0
  3 29  1  0  0  0  0
  4 10  1  6  0  0  0
  4  1  1  0  0  0  0
  5  7  1  0  0  0  0
  6  3  1  0  0  0  0
  7  3  2  0  0  0  0
  8 10  2  0  0  0  0
 10  9  1  0  0  0  0
 11  8  1  0  0  0  0
 11 12  2  0  0  0  0
 12  9  1  0  0  0  0
 13 14  1  0  0  0  0
 14 11  1  0  0  0  0
 15 12  1  0  0  0  0
 15 16  1  0  0  0  0
 17  5  1  0  0  0  0
 18 17  1  0  0  0  0
 20 19  1  0  0  0  0
 20 18  1  0  0  0  0
 21 24  1  0  0  0  0
 22 21  2  0  0  0  0
 22 23  1  0  0  0  0
 23 20  2  0  0  0  0
 24 19  2  0  0  0  0
 26 27  1  0  0  0  0
 26 25  1  0  0  0  0
 27 21  1  0  0  0  0
 28 27  2  0  0  0  0
 29 35  1  1  0  0  0
 30 34  1  6  0  0  0
 31 29  1  1  0  0  0
 31 30  1  0  0  0  0
 32 31  1  0  0  0  0
 32 30  1  0  0  0  0
 33 34  1  0  0  0  0
 35 36  1  1  0  0  0
 35 37  1  0  0  0  0
 38 37  1  0  0  0  0
 39 38  3  0  0  0  0
M  END
>  <MODEL>
6

>  <REMARK>
 VINA RESULT:      -6.5      1.258      2.530
  Name = 
  13 active torsions:
  status: ('A' for Active; 'I' for Inactive)
    1  A    between atoms: O_1  and  C_2
    2  A    between atoms: O_1  and  C_17
    3  A    between atoms: C_2  and  C_32
    4  A    between atoms: C_4  and  C_36
    5  A    between atoms: C_10  and  C_20
    6  A    between atoms: C_11  and  C_29
    7  A    between atoms: C_12  and  C_16
    8  A    between atoms: C_12  and  C_20
    9  A    between atoms: C_16  and  C_22
   10  A    between atoms: C_18  and  C_19
   11  A    between atoms: C_20  and  C_24
   12  A    between atoms: C_21  and  C_26
   13  A    between atoms: CA_27  and  C_35
                            x       y       z     vdW  Elec       q    Type
                         _______ _______ _______ _____ _____    ______ ____

>  <TORSDO>
F 13

$$$$
=
 OpenBabel11052410003D

 39 42  0  0  1  0  0  0  0  0999 V2000
  161.7550  207.6440  151.4760 N   0  0  0  0  0  0  0  0  0  0  0  0
  161.9310  208.9030  149.3980 C   0  0  0  0  0  3  0  0  0  0  0  0
  161.1660  209.9130  152.2090 C   0  0  0  0  0  0  0  0  0  0  0  0
  161.2140  207.8180  150.1340 C   0  0  1  0  0  3  0  0  0  0  0  0
  161.9690  210.1650  149.8240 C   0  0  0  0  0  0  0  0  0  0  0  0
  161.6970  208.5490  152.4060 C   0  0  0  0  0  3  0  0  0  0  0  0
  161.3390  210.6180  151.0800 C   0  0  0  0  0  3  0  0  0  0  0  0
  161.0840  205.3340  149.9780 N   0  0  0  0  0  0  0  0  0  0  0  0
  161.6500  206.4470  148.0830 N   0  0  0  0  0  0  0  0  0  0  0  0
  161.2980  206.5300  149.3870 C   0  0  0  0  0  0  0  0  0  0  0  0
  161.3110  204.4500  148.9910 C   0  0  2  0  0  3  0  0  0  0  0  0
  161.6520  205.1260  147.8420 C   0  0  0  0  0  0  0  0  0  0  0  0
  160.9190  202.6260  150.5970 C   0  0  0  0  0  1  0  0  0  0  0  0
  161.1590  202.9750  149.1420 C   0  0  0  0  0  2  0  0  0  0  0  0
  161.9630  204.5230  146.5150 C   0  0  0  0  0  2  0  0  0  0  0  0
  160.8140  203.9420  145.9770 O   0  0  0  0  0  1  0  0  0  0  0  0
  162.6070  211.1900  148.9440 C   0  0  0  0  0  2  0  0  0  0  0  0
  161.8910  212.4210  149.0110 O   0  0  0  0  0  0  0  0  0  0  0  0
  160.3210  214.0680  148.1070 C   0  0  0  0  0  3  0  0  0  0  0  0
  160.9980  212.8410  148.0190 C   0  0  0  0  0  0  0  0  0  0  0  0
  159.1840  213.6200  146.0060 C   0  0  0  0  0  0  0  0  0  0  0  0
  159.8640  212.3960  145.9220 C   0  0  0  0  0  3  0  0  0  0  0  0
  160.7670  212.0120  146.9180 C   0  0  0  0  0  3  0  0  0  0  0  0
  159.4170  214.4480  147.1120 C   0  0  0  0  0  3  0  0  0  0  0  0
  159.8850  214.4470  143.1130 C   0  0  0  0  0  1  0  0  0  0  0  0
  158.5310  214.2850  143.6160 N   0  0  0  0  0  2  0  0  0  0  0  0
  158.1880  214.0260  144.9850 C   0  0  0  0  0  0  0  0  0  0  0  0
  156.9800  214.1430  145.3270 O   0  0  0  0  0  0  0  0  0  0  0  0
  160.5440  210.5820  153.4010 C   0  0  1  0  0  3  0  0  0  0  0  0
  158.5550  211.8930  154.1260 C   0  0  1  0  0  3  0  0  0  0  0  0
  159.0320  210.7590  153.2370 C   0  0  1  0  0  3  0  0  0  0  0  0
  158.7260  212.1190  152.6390 C   0  0  0  0  0  2  0  0  0  0  0  0
  156.9330  211.3690  155.8500 N   0  0  0  0  0  1  0  0  0  0  0  0
  157.0870  211.6880  154.4410 C   0  0  0  0  0  2  0  0  0  0  0  0
  160.9480  209.8920  154.7160 C   0  0  2  0  0  3  0  0  0  0  0  0
  159.9180  208.8720  155.1900 C   0  0  0  0  0  1  0  0  0  0  0  0
  161.2360  210.9200  155.8010 C   0  0  0  0  0  2  0  0  0  0  0  0
  162.4730  210.5790  156.5120 C   0  0  0  0  0  0  0  0  0  0  0  0
  163.4500  210.3120  157.0730 N   0  0  0  0  0  0  0  0  0  0  0  0
  1  6  2  0  0  0  0
  2  5  2  0  0  0  0
  2  4  1  0  0  0  0
  3  6  1  0  0  0  0
  3 29  1  0  0  0  0
  4 10  1  6  0  0  0
  4  1  1  0  0  0  0
  5  7  1  0  0  0  0
  7  3  2  0  0  0  0
  9 10  1  0  0  0  0
 10  8  2  0  0  0  0
 11 14  1  6  0  0  0
 11  8  1  0  0  0  0
 12  9  2  0  0  0  0
 12 11  1  0  0  0  0
 14 13  1  0  0  0  0
 15 12  1  0  0  0  0
 16 15  1  0  0  0  0
 17 18  1  0  0  0  0
 17  5  1  0  0  0  0
 20 19  1  0  0  0  0
 20 18  1  0  0  0  0
 21 24  1  0  0  0  0
 22 21  2  0  0  0  0
 22 23  1  0  0  0  0
 23 20  2  0  0  0  0
 24 19  2  0  0  0  0
 25 26  1  0  0  0  0
 26 27  1  0  0  0  0
 27 28  2  0  0  0  0
 27 21  1  0  0  0  0
 29 35  1  1  0  0  0
 30 34  1  6  0  0  0
 31 29  1  1  0  0  0
 31 30  1  0  0  0  0
 32 31  1  0  0  0  0
 32 30  1  0  0  0  0
 34 33  1  0  0  0  0
 35 36  1  1  0  0  0
 35 37  1  0  0  0  0
 37 38  1  0  0  0  0
 38 39  3  0  0  0  0
M  END
>  <MODEL>
7

>  <REMARK>
 VINA RESULT:      -6.4      1.264      2.842
  Name = 
  13 active torsions:
  status: ('A' for Active; 'I' for Inactive)
    1  A    between atoms: O_1  and  C_2
    2  A    between atoms: O_1  and  C_17
    3  A    between atoms: C_2  and  C_32
    4  A    between atoms: C_4  and  C_36
    5  A    between atoms: C_10  and  C_20
    6  A    between atoms: C_11  and  C_29
    7  A    between atoms: C_12  and  C_16
    8  A    between atoms: C_12  and  C_20
    9  A    between atoms: C_16  and  C_22
   10  A    between atoms: C_18  and  C_19
   11  A    between atoms: C_20  and  C_24
   12  A    between atoms: C_21  and  C_26
   13  A    between atoms: CA_27  and  C_35
                            x       y       z     vdW  Elec       q    Type
                         _______ _______ _______ _____ _____    ______ ____

>  <TORSDO>
F 13

$$$$
=
 OpenBabel11052410003D

 39 42  0  0  1  0  0  0  0  0999 V2000
  159.9280  212.2180  151.0560 N   0  0  0  0  0  0  0  0  0  0  0  0
  161.6060  210.6440  150.2510 C   0  0  0  0  0  3  0  0  0  0  0  0
  160.7500  211.2380  153.1540 C   0  0  0  0  0  0  0  0  0  0  0  0
  161.2030  212.0790  150.3640 C   0  0  1  0  0  3  0  0  0  0  0  0
  161.8050  209.8630  151.3120 C   0  0  0  0  0  0  0  0  0  0  0  0
  159.7360  211.8890  152.2980 C   0  0  0  0  0  3  0  0  0  0  0  0
  161.6170  210.3190  152.7040 C   0  0  0  0  0  3  0  0  0  0  0  0
  159.9310  212.9740  148.4160 N   0  0  0  0  0  0  0  0  0  0  0  0
  162.1940  213.0080  148.2590 N   0  0  0  0  0  0  0  0  0  0  0  0
  161.1130  212.7080  149.0140 C   0  0  0  0  0  0  0  0  0  0  0  0
  160.2880  213.4700  147.2200 C   0  0  2  0  0  3  0  0  0  0  0  0
  161.6610  213.4920  147.1260 C   0  0  0  0  0  0  0  0  0  0  0  0
  158.7940  212.7890  145.3850 C   0  0  0  0  0  1  0  0  0  0  0  0
  159.3200  213.9570  146.1950 C   0  0  0  0  0  2  0  0  0  0  0  0
  162.4660  213.9860  145.9730 C   0  0  0  0  0  2  0  0  0  0  0  0
  162.5150  213.0100  144.9770 O   0  0  0  0  0  1  0  0  0  0  0  0
  162.3280  208.4820  151.0850 C   0  0  0  0  0  2  0  0  0  0  0  0
  161.2700  207.5290  151.1510 O   0  0  0  0  0  0  0  0  0  0  0  0
  161.2190  205.0910  150.9260 C   0  0  0  0  0  3  0  0  0  0  0  0
  161.2300  206.3760  150.3590 C   0  0  0  0  0  0  0  0  0  0  0  0
  161.1800  204.0880  148.7130 C   0  0  0  0  0  0  0  0  0  0  0  0
  161.1880  205.3730  148.1520 C   0  0  0  0  0  3  0  0  0  0  0  0
  161.2080  206.5080  148.9680 C   0  0  0  0  0  3  0  0  0  0  0  0
  161.2030  203.9590  150.1090 C   0  0  0  0  0  3  0  0  0  0  0  0
  160.7040  201.2210  149.7610 C   0  0  0  0  0  1  0  0  0  0  0  0
  160.8580  201.5680  148.3570 N   0  0  0  0  0  2  0  0  0  0  0  0
  161.2060  202.8710  147.8660 C   0  0  0  0  0  0  0  0  0  0  0  0
  161.5380  202.9800  146.6550 O   0  0  0  0  0  0  0  0  0  0  0  0
  160.6810  211.5200  154.6270 C   0  0  1  0  0  3  0  0  0  0  0  0
  159.1630  212.1080  156.5110 C   0  0  1  0  0  3  0  0  0  0  0  0
  159.3840  212.2370  155.0160 C   0  0  1  0  0  3  0  0  0  0  0  0
  159.6870  213.4060  155.9350 C   0  0  0  0  0  2  0  0  0  0  0  0
  156.9210  211.9870  155.5940 N   0  0  0  0  0  1  0  0  0  0  0  0
  157.6820  212.2460  156.8040 C   0  0  0  0  0  2  0  0  0  0  0  0
  160.9650  210.2600  155.4620 C   0  0  2  0  0  3  0  0  0  0  0  0
  162.4050  210.1900  155.9600 C   0  0  0  0  0  1  0  0  0  0  0  0
  160.5970  209.0020  154.6870 C   0  0  0  0  0  2  0  0  0  0  0  0
  160.1000  207.9670  155.5990 C   0  0  0  0  0  0  0  0  0  0  0  0
  159.7070  207.1510  156.3200 N   0  0  0  0  0  0  0  0  0  0  0  0
  1  6  2  0  0  0  0
  2  4  1  0  0  0  0
  2  5  2  0  0  0  0
  3 29  1  0  0  0  0
  4 10  1  6  0  0  0
  4  1  1  0  0  0  0
  5  7  1  0  0  0  0
  6  3  1  0  0  0  0
  7  3  2  0  0  0  0
  8 10  2  0  0  0  0
  9 10  1  0  0  0  0
 11 14  1  1  0  0  0
 11  8  1  0  0  0  0
 12 11  1  0  0  0  0
 12  9  2  0  0  0  0
 13 14  1  0  0  0  0
 15 12  1  0  0  0  0
 16 15  1  0  0  0  0
 17 18  1  0  0  0  0
 17  5  1  0  0  0  0
 20 19  1  0  0  0  0
 20 18  1  0  0  0  0
 21 24  1  0  0  0  0
 22 21  2  0  0  0  0
 22 23  1  0  0  0  0
 23 20  2  0  0  0  0
 24 19  2  0  0  0  0
 26 25  1  0  0  0  0
 27 26  1  0  0  0  0
 27 21  1  0  0  0  0
 28 27  2  0  0  0  0
 29 35  1  1  0  0  0
 30 34  1  6  0  0  0
 31 29  1  1  0  0  0
 31 32  1  0  0  0  0
 31 30  1  0  0  0  0
 32 30  1  0  0  0  0
 33 34  1  0  0  0  0
 35 36  1  6  0  0  0
 37 35  1  0  0  0  0
 37 38  1  0  0  0  0
 38 39  3  0  0  0  0
M  END
>  <MODEL>
8

>  <REMARK>
 VINA RESULT:      -6.2      2.377      7.569
  Name = 
  13 active torsions:
  status: ('A' for Active; 'I' for Inactive)
    1  A    between atoms: O_1  and  C_2
    2  A    between atoms: O_1  and  C_17
    3  A    between atoms: C_2  and  C_32
    4  A    between atoms: C_4  and  C_36
    5  A    between atoms: C_10  and  C_20
    6  A    between atoms: C_11  and  C_29
    7  A    between atoms: C_12  and  C_16
    8  A    between atoms: C_12  and  C_20
    9  A    between atoms: C_16  and  C_22
   10  A    between atoms: C_18  and  C_19
   11  A    between atoms: C_20  and  C_24
   12  A    between atoms: C_21  and  C_26
   13  A    between atoms: CA_27  and  C_35
                            x       y       z     vdW  Elec       q    Type
                         _______ _______ _______ _____ _____    ______ ____

>  <TORSDO>
F 13

$$$$
=
 OpenBabel11052410003D

 39 42  0  0  1  0  0  0  0  0999 V2000
  160.4740  208.0290  151.7220 N   0  0  0  0  0  0  0  0  0  0  0  0
  161.8180  209.9750  151.1340 C   0  0  0  0  0  3  0  0  0  0  0  0
  161.5880  207.2720  149.6670 C   0  0  0  0  0  0  0  0  0  0  0  0
  161.5760  208.8890  152.1320 C   0  0  1  0  0  3  0  0  0  0  0  0
  162.1440  209.7310  149.8650 C   0  0  0  0  0  0  0  0  0  0  0  0
  160.4930  207.2820  150.6590 C   0  0  0  0  0  3  0  0  0  0  0  0
  162.2660  208.3700  149.3040 C   0  0  0  0  0  3  0  0  0  0  0  0
  160.3290  210.3970  153.6770 N   0  0  0  0  0  0  0  0  0  0  0  0
  161.9950  209.1560  154.5880 N   0  0  0  0  0  0  0  0  0  0  0  0
  161.2890  209.4670  153.4770 C   0  0  0  0  0  0  0  0  0  0  0  0
  160.4360  210.6850  154.9850 C   0  0  2  0  0  3  0  0  0  0  0  0
  161.4450  209.9310  155.5370 C   0  0  0  0  0  0  0  0  0  0  0  0
  158.2450  211.8070  154.9480 C   0  0  0  0  0  1  0  0  0  0  0  0
  159.5490  211.6440  155.7030 C   0  0  0  0  0  2  0  0  0  0  0  0
  161.8780  209.9310  156.9630 C   0  0  0  0  0  2  0  0  0  0  0  0
  163.0330  210.7010  157.1080 O   0  0  0  0  0  1  0  0  0  0  0  0
  162.4870  210.8900  148.9880 C   0  0  0  0  0  2  0  0  0  0  0  0
  161.7370  212.0420  149.3650 O   0  0  0  0  0  0  0  0  0  0  0  0
  159.7430  213.4440  149.1270 C   0  0  0  0  0  3  0  0  0  0  0  0
  160.6960  212.5650  148.5880 C   0  0  0  0  0  0  0  0  0  0  0  0
  158.6010  213.5600  146.9840 C   0  0  0  0  0  0  0  0  0  0  0  0
  159.5580  212.6840  146.4500 C   0  0  0  0  0  3  0  0  0  0  0  0
  160.5980  212.1930  147.2450 C   0  0  0  0  0  3  0  0  0  0  0  0
  158.7020  213.9300  148.3330 C   0  0  0  0  0  3  0  0  0  0  0  0
  158.8160  214.4530  144.0340 C   0  0  0  0  0  1  0  0  0  0  0  0
  157.5670  214.3450  144.7720 N   0  0  0  0  0  2  0  0  0  0  0  0
  157.4630  214.0550  146.1740 C   0  0  0  0  0  0  0  0  0  0  0  0
  156.3460  214.2230  146.7330 O   0  0  0  0  0  0  0  0  0  0  0  0
  161.8260  205.9870  148.9280 C   0  0  1  0  0  3  0  0  0  0  0  0
  161.5330  203.5350  149.2520 C   0  0  1  0  0  3  0  0  0  0  0  0
  160.8500  204.8860  149.3570 C   0  0  1  0  0  3  0  0  0  0  0  0
  161.3620  204.1920  150.6050 C   0  0  0  0  0  2  0  0  0  0  0  0
  160.7150  201.7490  147.8300 N   0  0  0  0  0  1  0  0  0  0  0  0
  160.4770  202.4620  149.0730 C   0  0  0  0  0  2  0  0  0  0  0  0
  161.8790  206.2070  147.4060 C   0  0  2  0  0  3  0  0  0  0  0  0
  160.5200  206.5610  146.8100 C   0  0  0  0  0  1  0  0  0  0  0  0
  162.4830  204.9990  146.7040 C   0  0  0  0  0  2  0  0  0  0  0  0
  162.0170  204.9290  145.3150 C   0  0  0  0  0  0  0  0  0  0  0  0
  161.6480  204.8730  144.2190 N   0  0  0  0  0  0  0  0  0  0  0  0
  1  4  1  0  0  0  0
  2  4  1  0  0  0  0
  3  6  1  0  0  0  0
  4 10  1  1  0  0  0
  5  2  2  0  0  0  0
  6  1  2  0  0  0  0
  7  3  2  0  0  0  0
  7  5  1  0  0  0  0
  8 11  1  0  0  0  0
  9 12  2  0  0  0  0
 10  8  2  0  0  0  0
 10  9  1  0  0  0  0
 11 12  1  0  0  0  0
 11 14  1  1  0  0  0
 12 15  1  0  0  0  0
 13 14  1  0  0  0  0
 15 16  1  0  0  0  0
 17 18  1  0  0  0  0
 17  5  1  0  0  0  0
 20 19  1  0  0  0  0
 20 18  1  0  0  0  0
 21 24  1  0  0  0  0
 22 21  2  0  0  0  0
 22 23  1  0  0  0  0
 23 20  2  0  0  0  0
 24 19  2  0  0  0  0
 25 26  1  0  0  0  0
 26 27  1  0  0  0  0
 27 28  2  0  0  0  0
 27 21  1  0  0  0  0
 29 35  1  6  0  0  0
 29  3  1  0  0  0  0
 30 34  1  1  0  0  0
 30 31  1  0  0  0  0
 30 32  1  0  0  0  0
 31 29  1  6  0  0  0
 31 32  1  0  0  0  0
 33 34  1  0  0  0  0
 35 36  1  6  0  0  0
 37 35  1  0  0  0  0
 38 37  1  0  0  0  0
 39 38  3  0  0  0  0
M  END
>  <MODEL>
9

>  <REMARK>
 VINA RESULT:      -6.0      2.211      7.125
  Name = 
  13 active torsions:
  status: ('A' for Active; 'I' for Inactive)
    1  A    between atoms: O_1  and  C_2
    2  A    between atoms: O_1  and  C_17
    3  A    between atoms: C_2  and  C_32
    4  A    between atoms: C_4  and  C_36
    5  A    between atoms: C_10  and  C_20
    6  A    between atoms: C_11  and  C_29
    7  A    between atoms: C_12  and  C_16
    8  A    between atoms: C_12  and  C_20
    9  A    between atoms: C_16  and  C_22
   10  A    between atoms: C_18  and  C_19
   11  A    between atoms: C_20  and  C_24
   12  A    between atoms: C_21  and  C_26
   13  A    between atoms: CA_27  and  C_35
                            x       y       z     vdW  Elec       q    Type
                         _______ _______ _______ _____ _____    ______ ____

>  <TORSDO>
F 13

$$$$
