=
 OpenBabel11042422003D

 46 48  0  0  1  0  0  0  0  0999 V2000
  161.4490  211.0660  150.6600 N   0  0  0  0  0  2  0  0  0  0  0  0
  161.8820  209.9500  151.4920 C   0  0  2  0  0  3  0  0  0  0  0  0
  162.2190  209.8230  148.7030 C   0  0  0  0  0  3  0  0  0  0  0  0
  162.3310  211.1010  149.4950 C   0  0  1  0  0  3  0  0  0  0  0  0
  161.5760  208.6260  150.7790 C   0  0  0  0  0  2  0  0  0  0  0  0
  161.9360  208.6640  149.3060 C   0  0  0  0  0  0  0  0  0  0  0  0
  160.9500  212.9830  148.9240 N   0  0  0  0  0  0  0  0  0  0  0  0
  160.2620  214.1140  145.8610 N   0  0  0  0  0  0  0  0  0  0  0  0
  159.1150  214.1660  147.8080 C   0  0  0  0  0  0  0  0  0  0  0  0
  162.0540  212.3310  148.6880 C   0  0  0  0  0  0  0  0  0  0  0  0
  160.5610  214.1750  148.1680 C   0  0  2  0  0  3  0  0  0  0  0  0
  158.9860  214.1710  146.4850 C   0  0  0  0  0  3  0  0  0  0  0  0
  161.1480  214.1080  146.8010 C   0  0  0  0  0  0  0  0  0  0  0  0
  162.4370  213.5270  146.6080 N   0  0  0  0  0  0  0  0  0  0  0  0
  162.8850  212.6910  147.5010 C   0  0  0  0  0  3  0  0  0  0  0  0
  157.9890  214.0550  148.7950 C   0  0  1  0  0  3  0  0  0  0  0  0
  157.1150  212.8420  148.5240 C   0  0  0  0  0  1  0  0  0  0  0  0
  158.5180  213.9930  150.1350 N   0  0  0  0  0  0  0  0  0  0  0  0
  157.7640  213.6290  151.1070 C   0  0  0  0  0  3  0  0  0  0  0  0
  158.2760  213.6250  152.5100 C   0  0  0  0  0  2  0  0  0  0  0  0
  157.6180  212.6530  153.2690 O   0  0  0  0  0  0  0  0  0  0  0  0
  157.0720  213.3640  154.3420 C   0  0  0  0  0  2  0  0  0  0  0  0
  156.0700  212.5200  155.0500 C   0  0  0  0  0  0  0  0  0  0  0  0
  155.4200  213.0100  156.1760 O   0  0  0  0  0  1  0  0  0  0  0  0
  155.8280  211.3540  154.6430 O   0  0  0  0  0  0  0  0  0  0  0  0
  161.8360  207.4880  148.4930 N   0  0  0  0  0  2  0  0  0  0  0  0
  160.8970  206.4180  148.6570 C   0  0  0  0  0  0  0  0  0  0  0  0
  160.1690  206.3570  149.6830 O   0  0  0  0  0  0  0  0  0  0  0  0
  162.1230  206.3690  146.0160 O   0  0  0  0  0  0  0  0  0  0  0  0
  161.4530  205.3710  146.4010 C   0  0  0  0  0  0  0  0  0  0  0  0
  160.7950  205.3800  147.6760 N   0  0  0  0  0  2  0  0  0  0  0  0
  161.3360  204.1890  145.5300 C   0  0  0  0  0  0  0  0  0  0  0  0
  160.7980  204.3000  144.3590 N   0  0  0  0  0  2  0  0  0  0  0  0
  161.7560  202.8360  146.0130 C   0  0  0  0  0  2  0  0  0  0  0  0
  160.5600  201.8890  146.1700 C   0  0  0  0  0  2  0  0  0  0  0  0
  161.5850  199.9410  147.4140 C   0  0  0  0  0  1  0  0  0  0  0  0
  160.5690  201.0720  147.4670 C   0  0  1  0  0  3  0  0  0  0  0  0
  161.0790  201.4090  149.8540 C   0  0  0  0  0  2  0  0  0  0  0  0
  160.7700  201.9380  148.6740 C   0  0  0  0  0  3  0  0  0  0  0  0
  161.1850  210.0200  152.8070 C   0  0  0  0  0  3  0  0  0  0  0  0
  161.8460  209.8380  153.9420 C   0  0  0  0  0  3  0  0  0  0  0  0
  159.7220  211.1180  156.8010 N   0  0  0  0  0  2  0  0  0  0  0  0
  160.4590  212.1360  154.8340 O   0  0  0  0  0  0  0  0  0  0  0  0
  158.9840  212.2850  157.2570 C   0  0  0  0  0  1  0  0  0  0  0  0
  161.1540  209.9360  155.1840 N   0  0  0  0  0  2  0  0  0  0  0  0
  160.4450  211.1120  155.5710 C   0  0  0  0  0  0  0  0  0  0  0  0
  1  2  1  0  0  0  0
  2 40  1  1  0  0  0
  3  6  2  0  0  0  0
  3  4  1  0  0  0  0
  4 10  1  6  0  0  0
  4  1  1  0  0  0  0
  5  2  1  0  0  0  0
  6  5  1  0  0  0  0
  8 12  1  0  0  0  0
  8 13  2  0  0  0  0
  9 11  1  0  0  0  0
  9 16  1  0  0  0  0
 10  7  2  0  0  0  0
 11 13  1  6  0  0  0
 11  7  1  0  0  0  0
 12  9  2  0  0  0  0
 14 13  1  0  0  0  0
 14 15  2  0  0  0  0
 15 10  1  0  0  0  0
 16 17  1  6  0  0  0
 16 18  1  0  0  0  0
 18 19  2  0  0  0  0
 19 20  1  0  0  0  0
 20 21  1  0  0  0  0
 21 22  1  0  0  0  0
 22 23  1  0  0  0  0
 23 24  1  0  0  0  0
 25 23  2  0  0  0  0
 26 27  1  0  0  0  0
 26  6  1  0  0  0  0
 27 28  2  0  0  0  0
 29 30  2  0  0  0  0
 30 31  1  0  0  0  0
 31 27  1  0  0  0  0
 32 34  1  0  0  0  0
 32 30  1  0  0  0  0
 33 32  2  0  0  0  0
 34 35  1  0  0  0  0
 35 37  1  0  0  0  0
 37 36  1  6  0  0  0
 37 39  1  0  0  0  0
 39 38  2  0  0  0  0
 40 41  2  0  0  0  0
 41 45  1  0  0  0  0
 42 44  1  0  0  0  0
 43 46  2  0  0  0  0
 45 46  1  0  0  0  0
 46 42  1  0  0  0  0
M  END
>  <MODEL>
1

>  <REMARK>
 VINA RESULT:      -6.9      0.000      0.000
  Name = 
  15 active torsions:
  status: ('A' for Active; 'I' for Inactive)
    1  A    between atoms: N_1  and  C_15
    2  A    between atoms: C_2  and  C_17
    3  A    between atoms: C_3  and  C_36
    4  A    between atoms: C_3  and  C_42
    5  A    between atoms: C_7  and  C_20
    6  A    between atoms: N_8  and  C_30
    7  A    between atoms: C_9  and  C_41
    8  A    between atoms: O_13  and  C_17
    9  A    between atoms: O_13  and  C_41
   10  A    between atoms: C_15  and  C_16
   11  A    between atoms: C_18  and  C_19
   12  A    between atoms: C_24  and  C_28
   13  A    between atoms: C_28  and  C_39
   14  A    between atoms: N_34  and  C_38
   15  A    between atoms: C_36  and  C_39
                            x       y       z     vdW  Elec       q    Type
                         _______ _______ _______ _____ _____    ______ ____

>  <TORSDO>
F 15

$$$$
=
 OpenBabel11042422003D

 46 48  0  0  1  0  0  0  0  0999 V2000
  161.5820  211.1500  150.4860 N   0  0  0  0  0  2  0  0  0  0  0  0
  161.9930  210.0230  151.3140 C   0  0  2  0  0  3  0  0  0  0  0  0
  162.2540  209.8690  148.5180 C   0  0  0  0  0  3  0  0  0  0  0  0
  162.4340  211.1460  149.2980 C   0  0  1  0  0  3  0  0  0  0  0  0
  161.6210  208.7080  150.6170 C   0  0  0  0  0  2  0  0  0  0  0  0
  161.9440  208.7240  149.1350 C   0  0  0  0  0  0  0  0  0  0  0  0
  161.2470  212.3390  147.5830 N   0  0  0  0  0  0  0  0  0  0  0  0
  162.5470  214.3880  145.2940 N   0  0  0  0  0  0  0  0  0  0  0  0
  160.7220  213.0550  145.2980 C   0  0  0  0  0  0  0  0  0  0  0  0
  162.1830  212.3800  148.4900 C   0  0  0  0  0  0  0  0  0  0  0  0
  160.9430  213.4750  146.7110 C   0  0  2  0  0  3  0  0  0  0  0  0
  161.6310  213.6270  144.5160 C   0  0  0  0  0  3  0  0  0  0  0  0
  162.1700  214.2980  146.5250 C   0  0  0  0  0  0  0  0  0  0  0  0
  163.0940  214.4500  147.6030 N   0  0  0  0  0  0  0  0  0  0  0  0
  163.1030  213.5540  148.5480 C   0  0  0  0  0  3  0  0  0  0  0  0
  159.6960  212.0530  144.8550 C   0  0  1  0  0  3  0  0  0  0  0  0
  158.3590  212.2670  145.5450 C   0  0  0  0  0  1  0  0  0  0  0  0
  159.5300  212.1230  143.4250 N   0  0  0  0  0  0  0  0  0  0  0  0
  160.3110  211.4590  142.6540 C   0  0  0  0  0  3  0  0  0  0  0  0
  160.1970  211.5740  141.1690 C   0  0  0  0  0  2  0  0  0  0  0  0
  161.3780  211.1520  140.5530 O   0  0  0  0  0  0  0  0  0  0  0  0
  161.5620  212.0570  139.5040 C   0  0  0  0  0  2  0  0  0  0  0  0
  160.8800  211.5580  138.2780 C   0  0  0  0  0  0  0  0  0  0  0  0
  161.2920  210.3700  137.6870 O   0  0  0  0  0  0  0  0  0  0  0  0
  159.9440  212.2240  137.7630 O   0  0  0  0  0  1  0  0  0  0  0  0
  161.7800  207.5480  148.3320 N   0  0  0  0  0  2  0  0  0  0  0  0
  161.0310  206.3770  148.6830 C   0  0  0  0  0  0  0  0  0  0  0  0
  160.5850  206.2290  149.8510 O   0  0  0  0  0  0  0  0  0  0  0  0
  161.5790  206.4800  145.8250 O   0  0  0  0  0  0  0  0  0  0  0  0
  161.1360  205.4110  146.3270 C   0  0  0  0  0  0  0  0  0  0  0  0
  160.8090  205.3390  147.7230 N   0  0  0  0  0  2  0  0  0  0  0  0
  160.9420  204.2270  145.4720 C   0  0  0  0  0  0  0  0  0  0  0  0
  160.3800  204.3520  144.3140 N   0  0  0  0  0  2  0  0  0  0  0  0
  161.3100  202.8610  145.9590 C   0  0  0  0  0  2  0  0  0  0  0  0
  161.8010  202.8850  147.4110 C   0  0  0  0  0  2  0  0  0  0  0  0
  161.3410  200.6360  148.4720 C   0  0  0  0  0  1  0  0  0  0  0  0
  160.9210  202.0950  148.3870 C   0  0  1  0  0  3  0  0  0  0  0  0
  160.9350  202.0020  150.8490 C   0  0  0  0  0  2  0  0  0  0  0  0
  160.8710  202.7360  149.7410 C   0  0  0  0  0  3  0  0  0  0  0  0
  161.3330  210.1260  152.6450 C   0  0  0  0  0  3  0  0  0  0  0  0
  160.0520  210.4540  152.7500 C   0  0  0  0  0  3  0  0  0  0  0  0
  157.7580  211.3720  155.6170 N   0  0  0  0  0  2  0  0  0  0  0  0
  157.9380  212.2000  153.4420 O   0  0  0  0  0  0  0  0  0  0  0  0
  156.6540  212.2470  155.9750 C   0  0  0  0  0  1  0  0  0  0  0  0
  159.4450  210.5210  154.0380 N   0  0  0  0  0  2  0  0  0  0  0  0
  158.3600  211.4020  154.3230 C   0  0  0  0  0  0  0  0  0  0  0  0
  1  2  1  0  0  0  0
  2 40  1  1  0  0  0
  3  6  2  0  0  0  0
  3  4  1  0  0  0  0
  4 10  1  6  0  0  0
  4  1  1  0  0  0  0
  5  2  1  0  0  0  0
  6  5  1  0  0  0  0
  7 10  2  0  0  0  0
  8 13  2  0  0  0  0
 10 15  1  0  0  0  0
 11  9  1  6  0  0  0
 11  7  1  0  0  0  0
 12  8  1  0  0  0  0
 12  9  2  0  0  0  0
 13 11  1  0  0  0  0
 13 14  1  0  0  0  0
 14 15  2  0  0  0  0
 16  9  1  0  0  0  0
 16 17  1  1  0  0  0
 18 16  1  0  0  0  0
 19 18  2  0  0  0  0
 20 19  1  0  0  0  0
 21 20  1  0  0  0  0
 22 21  1  0  0  0  0
 23 22  1  0  0  0  0
 24 23  2  0  0  0  0
 25 23  1  0  0  0  0
 26 27  1  0  0  0  0
 26  6  1  0  0  0  0
 27 28  2  0  0  0  0
 29 30  2  0  0  0  0
 30 31  1  0  0  0  0
 31 27  1  0  0  0  0
 32 34  1  0  0  0  0
 32 30  1  0  0  0  0
 33 32  2  0  0  0  0
 34 35  1  0  0  0  0
 35 37  1  0  0  0  0
 37 36  1  1  0  0  0
 37 39  1  0  0  0  0
 39 38  2  0  0  0  0
 40 41  2  0  0  0  0
 41 45  1  0  0  0  0
 42 44  1  0  0  0  0
 43 46  2  0  0  0  0
 45 46  1  0  0  0  0
 46 42  1  0  0  0  0
M  END
>  <MODEL>
2

>  <REMARK>
 VINA RESULT:      -6.2      3.336      6.254
  Name = 
  15 active torsions:
  status: ('A' for Active; 'I' for Inactive)
    1  A    between atoms: N_1  and  C_15
    2  A    between atoms: C_2  and  C_17
    3  A    between atoms: C_3  and  C_36
    4  A    between atoms: C_3  and  C_42
    5  A    between atoms: C_7  and  C_20
    6  A    between atoms: N_8  and  C_30
    7  A    between atoms: C_9  and  C_41
    8  A    between atoms: O_13  and  C_17
    9  A    between atoms: O_13  and  C_41
   10  A    between atoms: C_15  and  C_16
   11  A    between atoms: C_18  and  C_19
   12  A    between atoms: C_24  and  C_28
   13  A    between atoms: C_28  and  C_39
   14  A    between atoms: N_34  and  C_38
   15  A    between atoms: C_36  and  C_39
                            x       y       z     vdW  Elec       q    Type
                         _______ _______ _______ _____ _____    ______ ____

>  <TORSDO>
F 15

$$$$
=
 OpenBabel11042422003D

 46 48  0  0  1  0  0  0  0  0999 V2000
  161.6320  210.0620  151.9890 N   0  0  0  0  0  2  0  0  0  0  0  0
  161.3890  209.8950  150.5620 C   0  0  2  0  0  3  0  0  0  0  0  0
  160.7720  207.8030  152.3370 C   0  0  0  0  0  2  0  0  0  0  0  0
  160.6340  209.2610  152.6940 C   0  0  1  0  0  3  0  0  0  0  0  0
  161.7310  208.4590  150.1450 C   0  0  0  0  0  2  0  0  0  0  0  0
  161.2170  207.4290  151.1330 C   0  0  0  0  0  0  0  0  0  0  0  0
  159.6600  210.0090  154.7590 N   0  0  0  0  0  0  0  0  0  0  0  0
  161.1070  211.9060  157.0920 N   0  0  0  0  0  0  0  0  0  0  0  0
  158.9560  211.6370  156.4510 C   0  0  0  0  0  0  0  0  0  0  0  0
  160.7160  209.5270  154.1640 C   0  0  0  0  0  0  0  0  0  0  0  0
  159.6410  210.3410  156.1850 C   0  0  2  0  0  3  0  0  0  0  0  0
  159.8130  212.4890  157.0030 C   0  0  0  0  0  3  0  0  0  0  0  0
  161.0170  210.7050  156.6270 C   0  0  0  0  0  0  0  0  0  0  0  0
  162.1440  210.0350  156.0630 N   0  0  0  0  0  0  0  0  0  0  0  0
  162.0130  209.4620  154.9000 C   0  0  0  0  0  3  0  0  0  0  0  0
  157.5450  211.9560  156.0490 C   0  0  1  0  0  3  0  0  0  0  0  0
  156.6380  212.1330  157.2550 C   0  0  0  0  0  1  0  0  0  0  0  0
  157.5250  213.1480  155.2380 N   0  0  0  0  0  0  0  0  0  0  0  0
  157.0330  213.1110  154.0530 C   0  0  0  0  0  3  0  0  0  0  0  0
  157.0660  214.3180  153.1750 C   0  0  0  0  0  2  0  0  0  0  0  0
  156.7180  213.9810  151.8650 O   0  0  0  0  0  0  0  0  0  0  0  0
  157.8180  214.3820  151.1010 C   0  0  0  0  0  2  0  0  0  0  0  0
  157.6620  213.9030  149.6990 C   0  0  0  0  0  0  0  0  0  0  0  0
  156.4610  213.3410  149.2860 O   0  0  0  0  0  1  0  0  0  0  0  0
  158.6270  213.9870  148.8950 O   0  0  0  0  0  0  0  0  0  0  0  0
  161.3320  206.0260  150.8620 N   0  0  0  0  0  0  0  0  0  0  0  0
  160.9560  204.9580  151.7410 C   0  0  0  0  0  0  0  0  0  0  0  0
  160.6400  205.1940  152.9370 O   0  0  0  0  0  0  0  0  0  0  0  0
  161.2770  204.0270  149.0000 O   0  0  0  0  0  0  0  0  0  0  0  0
  161.1760  203.1790  149.9300 C   0  0  0  0  0  0  0  0  0  0  0  0
  160.9680  203.6010  151.2850 N   0  0  0  0  0  2  0  0  0  0  0  0
  161.2610  201.7410  149.6190 C   0  0  0  0  0  0  0  0  0  0  0  0
  161.2640  200.8730  150.5770 N   0  0  0  0  0  2  0  0  0  0  0  0
  161.4330  201.2710  148.2090 C   0  0  0  0  0  2  0  0  0  0  0  0
  160.5140  202.0230  147.2390 C   0  0  0  0  0  2  0  0  0  0  0  0
  159.9190  201.2930  144.8930 C   0  0  0  0  0  1  0  0  0  0  0  0
  160.9610  201.9650  145.7740 C   0  0  1  0  0  3  0  0  0  0  0  0
  160.4100  204.2290  144.9730 C   0  0  0  0  0  2  0  0  0  0  0  0
  161.3380  203.3170  145.2490 C   0  0  0  0  0  3  0  0  0  0  0  0
  162.2110  210.8800  149.8060 C   0  0  0  0  0  3  0  0  0  0  0  0
  161.6610  211.6820  148.9040 C   0  0  0  0  0  3  0  0  0  0  0  0
  163.0400  214.0000  146.2500 N   0  0  0  0  0  2  0  0  0  0  0  0
  161.3040  212.4410  146.2030 O   0  0  0  0  0  0  0  0  0  0  0  0
  162.8490  214.4160  144.8700 C   0  0  0  0  0  1  0  0  0  0  0  0
  162.4710  212.6300  148.2160 N   0  0  0  0  0  2  0  0  0  0  0  0
  162.2280  212.9980  146.8580 C   0  0  0  0  0  0  0  0  0  0  0  0
  1  4  1  0  0  0  0
  2 40  1  6  0  0  0
  2  1  1  0  0  0  0
  3  4  1  0  0  0  0
  4 10  1  1  0  0  0
  5  2  1  0  0  0  0
  5  6  1  0  0  0  0
  6  3  1  0  0  0  0
  9 12  2  0  0  0  0
 10  7  2  0  0  0  0
 10 15  1  0  0  0  0
 11  7  1  6  0  0  0
 11  9  1  0  0  0  0
 11 13  1  0  0  0  0
 12  8  1  0  0  0  0
 13  8  2  0  0  0  0
 14 13  1  0  0  0  0
 15 14  2  0  0  0  0
 16  9  1  0  0  0  0
 16 17  1  1  0  0  0
 18 16  1  0  0  0  0
 19 18  2  0  0  0  0
 20 19  1  0  0  0  0
 21 20  1  0  0  0  0
 22 21  1  0  0  0  0
 23 22  1  0  0  0  0
 24 23  1  0  0  0  0
 25 23  2  0  0  0  0
 26  6  2  0  0  0  0
 26 27  1  0  0  0  0
 27 28  2  0  0  0  0
 29 30  2  0  0  0  0
 30 31  1  0  0  0  0
 31 27  1  0  0  0  0
 32 30  1  0  0  0  0
 32 33  2  0  0  0  0
 34 32  1  0  0  0  0
 35 34  1  0  0  0  0
 37 36  1  6  0  0  0
 37 35  1  0  0  0  0
 38 39  2  0  0  0  0
 39 37  1  0  0  0  0
 41 40  2  0  0  0  0
 42 46  1  0  0  0  0
 43 46  2  0  0  0  0
 44 42  1  0  0  0  0
 45 41  1  0  0  0  0
 46 45  1  0  0  0  0
M  END
>  <MODEL>
3

>  <REMARK>
 VINA RESULT:      -6.0      2.369      6.451
  Name = 
  15 active torsions:
  status: ('A' for Active; 'I' for Inactive)
    1  A    between atoms: N_1  and  C_15
    2  A    between atoms: C_2  and  C_17
    3  A    between atoms: C_3  and  C_36
    4  A    between atoms: C_3  and  C_42
    5  A    between atoms: C_7  and  C_20
    6  A    between atoms: N_8  and  C_30
    7  A    between atoms: C_9  and  C_41
    8  A    between atoms: O_13  and  C_17
    9  A    between atoms: O_13  and  C_41
   10  A    between atoms: C_15  and  C_16
   11  A    between atoms: C_18  and  C_19
   12  A    between atoms: C_24  and  C_28
   13  A    between atoms: C_28  and  C_39
   14  A    between atoms: N_34  and  C_38
   15  A    between atoms: C_36  and  C_39
                            x       y       z     vdW  Elec       q    Type
                         _______ _______ _______ _____ _____    ______ ____

>  <TORSDO>
F 15

$$$$
=
 OpenBabel11042422003D

 46 48  0  0  1  0  0  0  0  0999 V2000
  161.6890  209.4010  152.0720 N   0  0  0  0  0  2  0  0  0  0  0  0
  161.3920  209.3080  150.6480 C   0  0  2  0  0  3  0  0  0  0  0  0
  160.8430  207.1240  152.3330 C   0  0  0  0  0  2  0  0  0  0  0  0
  160.7180  208.5610  152.7710 C   0  0  1  0  0  3  0  0  0  0  0  0
  161.7180  207.8960  150.1440 C   0  0  0  0  0  2  0  0  0  0  0  0
  161.2420  206.8150  151.0950 C   0  0  0  0  0  0  0  0  0  0  0  0
  160.3980  209.8530  154.7710 N   0  0  0  0  0  0  0  0  0  0  0  0
  162.5840  210.2880  157.2540 N   0  0  0  0  0  0  0  0  0  0  0  0
  160.9120  211.5740  156.4400 C   0  0  0  0  0  0  0  0  0  0  0  0
  160.8560  208.7500  154.2490 C   0  0  0  0  0  0  0  0  0  0  0  0
  160.5140  210.1590  156.1990 C   0  0  2  0  0  3  0  0  0  0  0  0
  162.0780  211.6050  157.0780 C   0  0  0  0  0  3  0  0  0  0  0  0
  161.7150  209.4740  156.7550 C   0  0  0  0  0  0  0  0  0  0  0  0
  162.0900  208.1880  156.2650 N   0  0  0  0  0  0  0  0  0  0  0  0
  161.6800  207.8260  155.0830 C   0  0  0  0  0  3  0  0  0  0  0  0
  160.1600  212.7710  155.9370 C   0  0  1  0  0  3  0  0  0  0  0  0
  159.6700  212.5750  154.5120 C   0  0  0  0  0  1  0  0  0  0  0  0
  159.0460  213.0510  156.8080 N   0  0  0  0  0  0  0  0  0  0  0  0
  157.9630  213.5430  156.3290 C   0  0  0  0  0  3  0  0  0  0  0  0
  156.8250  213.9020  157.2270 C   0  0  0  0  0  2  0  0  0  0  0  0
  155.6040  213.6130  156.6110 O   0  0  0  0  0  0  0  0  0  0  0  0
  155.3620  212.2750  156.9380 C   0  0  0  0  0  2  0  0  0  0  0  0
  155.5200  211.4220  155.7270 C   0  0  0  0  0  0  0  0  0  0  0  0
  155.9910  211.9760  154.5430 O   0  0  0  0  0  0  0  0  0  0  0  0
  155.2050  210.2040  155.7690 O   0  0  0  0  0  1  0  0  0  0  0  0
  161.3470  205.4290  150.7470 N   0  0  0  0  0  0  0  0  0  0  0  0
  161.0710  204.3140  151.6040 C   0  0  0  0  0  0  0  0  0  0  0  0
  160.8710  204.4880  152.8360 O   0  0  0  0  0  0  0  0  0  0  0  0
  161.1340  203.5190  148.8040 O   0  0  0  0  0  0  0  0  0  0  0  0
  161.1340  202.6260  149.6960 C   0  0  0  0  0  0  0  0  0  0  0  0
  161.0550  202.9800  151.0850 N   0  0  0  0  0  2  0  0  0  0  0  0
  161.2060  201.2070  149.3100 C   0  0  0  0  0  0  0  0  0  0  0  0
  161.3550  200.2970  150.2160 N   0  0  0  0  0  2  0  0  0  0  0  0
  161.1950  200.8030  147.8680 C   0  0  0  0  0  2  0  0  0  0  0  0
  160.4500  201.8200  146.9960 C   0  0  0  0  0  2  0  0  0  0  0  0
  160.1440  200.1920  145.0860 C   0  0  0  0  0  1  0  0  0  0  0  0
  160.5990  201.5870  145.4880 C   0  0  1  0  0  3  0  0  0  0  0  0
  160.3370  203.9060  144.7010 C   0  0  0  0  0  2  0  0  0  0  0  0
  159.9080  202.6470  144.6860 C   0  0  0  0  0  3  0  0  0  0  0  0
  162.1850  210.3330  149.9150 C   0  0  0  0  0  3  0  0  0  0  0  0
  161.5880  211.2850  149.2090 C   0  0  0  0  0  3  0  0  0  0  0  0
  162.8090  213.8230  146.6810 N   0  0  0  0  0  2  0  0  0  0  0  0
  160.9840  212.3670  146.6670 O   0  0  0  0  0  0  0  0  0  0  0  0
  162.4930  214.4040  145.3870 C   0  0  0  0  0  1  0  0  0  0  0  0
  162.3750  212.2640  148.5380 N   0  0  0  0  0  2  0  0  0  0  0  0
  162.0070  212.7980  147.2670 C   0  0  0  0  0  0  0  0  0  0  0  0
  1  4  1  0  0  0  0
  2 40  1  6  0  0  0
  2  1  1  0  0  0  0
  3  4  1  0  0  0  0
  4 10  1  1  0  0  0
  5  2  1  0  0  0  0
  5  6  1  0  0  0  0
  6  3  1  0  0  0  0
  9 12  2  0  0  0  0
 10  7  2  0  0  0  0
 10 15  1  0  0  0  0
 11  7  1  6  0  0  0
 11  9  1  0  0  0  0
 11 13  1  0  0  0  0
 12  8  1  0  0  0  0
 13  8  2  0  0  0  0
 14 13  1  0  0  0  0
 15 14  2  0  0  0  0
 16 17  1  6  0  0  0
 16  9  1  0  0  0  0
 16 18  1  0  0  0  0
 19 18  2  0  0  0  0
 19 20  1  0  0  0  0
 21 22  1  0  0  0  0
 21 20  1  0  0  0  0
 23 25  1  0  0  0  0
 23 22  1  0  0  0  0
 24 23  2  0  0  0  0
 26  6  2  0  0  0  0
 26 27  1  0  0  0  0
 27 28  2  0  0  0  0
 29 30  2  0  0  0  0
 30 31  1  0  0  0  0
 31 27  1  0  0  0  0
 32 30  1  0  0  0  0
 32 33  2  0  0  0  0
 34 32  1  0  0  0  0
 35 34  1  0  0  0  0
 37 36  1  1  0  0  0
 37 35  1  0  0  0  0
 39 38  2  0  0  0  0
 39 37  1  0  0  0  0
 41 40  2  0  0  0  0
 42 46  1  0  0  0  0
 43 46  2  0  0  0  0
 44 42  1  0  0  0  0
 45 41  1  0  0  0  0
 46 45  1  0  0  0  0
M  END
>  <MODEL>
4

>  <REMARK>
 VINA RESULT:      -4.9      2.530      6.402
  Name = 
  15 active torsions:
  status: ('A' for Active; 'I' for Inactive)
    1  A    between atoms: N_1  and  C_15
    2  A    between atoms: C_2  and  C_17
    3  A    between atoms: C_3  and  C_36
    4  A    between atoms: C_3  and  C_42
    5  A    between atoms: C_7  and  C_20
    6  A    between atoms: N_8  and  C_30
    7  A    between atoms: C_9  and  C_41
    8  A    between atoms: O_13  and  C_17
    9  A    between atoms: O_13  and  C_41
   10  A    between atoms: C_15  and  C_16
   11  A    between atoms: C_18  and  C_19
   12  A    between atoms: C_24  and  C_28
   13  A    between atoms: C_28  and  C_39
   14  A    between atoms: N_34  and  C_38
   15  A    between atoms: C_36  and  C_39
                            x       y       z     vdW  Elec       q    Type
                         _______ _______ _______ _____ _____    ______ ____

>  <TORSDO>
F 15

$$$$
=
 OpenBabel11042422003D

 46 48  0  0  1  0  0  0  0  0999 V2000
  160.8310  206.3720  151.3930 N   0  0  0  0  0  2  0  0  0  0  0  0
  161.4730  206.1320  150.1060 C   0  0  2  0  0  3  0  0  0  0  0  0
  161.5380  208.7040  151.2400 C   0  0  0  0  0  3  0  0  0  0  0  0
  161.5800  207.4380  152.0560 C   0  0  1  0  0  3  0  0  0  0  0  0
  161.2530  207.3410  149.1870 C   0  0  0  0  0  2  0  0  0  0  0  0
  161.4550  208.6610  149.9060 C   0  0  0  0  0  0  0  0  0  0  0  0
  160.7450  208.8110  153.8420 N   0  0  0  0  0  0  0  0  0  0  0  0
  161.6070  208.6640  157.0620 N   0  0  0  0  0  0  0  0  0  0  0  0
  160.8830  210.3520  155.7430 C   0  0  0  0  0  0  0  0  0  0  0  0
  161.0810  207.6120  153.4560 C   0  0  0  0  0  0  0  0  0  0  0  0
  160.2810  209.1030  155.2000 C   0  0  2  0  0  3  0  0  0  0  0  0
  161.5990  210.0660  156.8260 C   0  0  0  0  0  3  0  0  0  0  0  0
  160.8760  208.1190  156.1470 C   0  0  0  0  0  0  0  0  0  0  0  0
  161.0800  206.7680  155.7340 N   0  0  0  0  0  0  0  0  0  0  0  0
  161.1670  206.5110  154.4600 C   0  0  0  0  0  3  0  0  0  0  0  0
  160.7810  211.7020  155.0950 C   0  0  1  0  0  3  0  0  0  0  0  0
  160.0740  211.6340  153.7520 C   0  0  0  0  0  1  0  0  0  0  0  0
  160.0890  212.6140  155.9720 N   0  0  0  0  0  0  0  0  0  0  0  0
  158.8400  212.4510  156.2120 C   0  0  0  0  0  3  0  0  0  0  0  0
  158.0920  213.4250  157.0620 C   0  0  0  0  0  2  0  0  0  0  0  0
  156.9400  213.8650  156.4060 O   0  0  0  0  0  0  0  0  0  0  0  0
  156.9240  213.1380  155.2120 C   0  0  0  0  0  2  0  0  0  0  0  0
  156.0110  213.7910  154.2340 C   0  0  0  0  0  0  0  0  0  0  0  0
  154.8720  214.4520  154.6790 O   0  0  0  0  0  1  0  0  0  0  0  0
  156.2580  213.7260  153.0010 O   0  0  0  0  0  0  0  0  0  0  0  0
  161.4110  209.9030  149.1930 N   0  0  0  0  0  2  0  0  0  0  0  0
  162.3010  211.0140  149.3650 C   0  0  0  0  0  0  0  0  0  0  0  0
  163.1170  211.0370  150.3240 O   0  0  0  0  0  0  0  0  0  0  0  0
  160.8320  211.2000  146.8580 O   0  0  0  0  0  0  0  0  0  0  0  0
  161.4780  212.2040  147.2670 C   0  0  0  0  0  0  0  0  0  0  0  0
  162.2520  212.1330  148.4730 N   0  0  0  0  0  2  0  0  0  0  0  0
  161.4450  213.4580  146.4950 C   0  0  0  0  0  0  0  0  0  0  0  0
  162.2590  214.4180  146.7900 N   0  0  0  0  0  2  0  0  0  0  0  0
  160.4230  213.6720  145.4230 C   0  0  0  0  0  2  0  0  0  0  0  0
  160.5240  212.6150  144.3170 C   0  0  0  0  0  2  0  0  0  0  0  0
  162.8530  212.9670  143.3960 C   0  0  0  0  0  1  0  0  0  0  0  0
  161.3610  213.0460  143.1080 C   0  0  1  0  0  3  0  0  0  0  0  0
  161.8090  212.2510  140.8190 C   0  0  0  0  0  2  0  0  0  0  0  0
  160.9960  212.2810  141.8720 C   0  0  0  0  0  3  0  0  0  0  0  0
  160.9100  204.8930  149.5010 C   0  0  0  0  0  3  0  0  0  0  0  0
  161.6490  204.1130  148.7240 C   0  0  0  0  0  3  0  0  0  0  0  0
  160.3470  201.5160  146.2990 N   0  0  0  0  0  2  0  0  0  0  0  0
  161.0930  203.7050  145.9810 O   0  0  0  0  0  0  0  0  0  0  0  0
  160.0820  201.2860  144.8880 C   0  0  0  0  0  1  0  0  0  0  0  0
  161.0870  202.9220  148.1800 N   0  0  0  0  0  2  0  0  0  0  0  0
  160.8540  202.7590  146.7820 C   0  0  0  0  0  0  0  0  0  0  0  0
  1  4  1  0  0  0  0
  2 40  1  6  0  0  0
  2  1  1  0  0  0  0
  3  4  1  0  0  0  0
  4 10  1  1  0  0  0
  5  6  1  0  0  0  0
  5  2  1  0  0  0  0
  6  3  2  0  0  0  0
  9 12  2  0  0  0  0
 10  7  2  0  0  0  0
 10 15  1  0  0  0  0
 11  7  1  6  0  0  0
 11  9  1  0  0  0  0
 11 13  1  0  0  0  0
 12  8  1  0  0  0  0
 13  8  2  0  0  0  0
 14 13  1  0  0  0  0
 15 14  2  0  0  0  0
 16 17  1  6  0  0  0
 16  9  1  0  0  0  0
 16 18  1  0  0  0  0
 18 19  2  0  0  0  0
 19 20  1  0  0  0  0
 21 20  1  0  0  0  0
 22 21  1  0  0  0  0
 23 24  1  0  0  0  0
 23 22  1  0  0  0  0
 25 23  2  0  0  0  0
 26 27  1  0  0  0  0
 26  6  1  0  0  0  0
 27 28  2  0  0  0  0
 29 30  2  0  0  0  0
 30 31  1  0  0  0  0
 31 27  1  0  0  0  0
 32 33  2  0  0  0  0
 32 30  1  0  0  0  0
 34 32  1  0  0  0  0
 35 34  1  0  0  0  0
 37 36  1  1  0  0  0
 37 35  1  0  0  0  0
 38 39  2  0  0  0  0
 39 37  1  0  0  0  0
 41 40  2  0  0  0  0
 42 46  1  0  0  0  0
 43 46  2  0  0  0  0
 44 42  1  0  0  0  0
 45 41  1  0  0  0  0
 46 45  1  0  0  0  0
M  END
>  <MODEL>
5

>  <REMARK>
 VINA RESULT:      -4.8      2.588      8.656
  Name = 
  15 active torsions:
  status: ('A' for Active; 'I' for Inactive)
    1  A    between atoms: N_1  and  C_15
    2  A    between atoms: C_2  and  C_17
    3  A    between atoms: C_3  and  C_36
    4  A    between atoms: C_3  and  C_42
    5  A    between atoms: C_7  and  C_20
    6  A    between atoms: N_8  and  C_30
    7  A    between atoms: C_9  and  C_41
    8  A    between atoms: O_13  and  C_17
    9  A    between atoms: O_13  and  C_41
   10  A    between atoms: C_15  and  C_16
   11  A    between atoms: C_18  and  C_19
   12  A    between atoms: C_24  and  C_28
   13  A    between atoms: C_28  and  C_39
   14  A    between atoms: N_34  and  C_38
   15  A    between atoms: C_36  and  C_39
                            x       y       z     vdW  Elec       q    Type
                         _______ _______ _______ _____ _____    ______ ____

>  <TORSDO>
F 15

$$$$
=
 OpenBabel11042422003D

 46 48  0  0  1  0  0  0  0  0999 V2000
  161.8970  209.8830  149.7010 N   0  0  0  0  0  2  0  0  0  0  0  0
  162.1480  211.3100  149.5470 C   0  0  2  0  0  3  0  0  0  0  0  0
  161.4840  210.2750  152.0760 C   0  0  0  0  0  3  0  0  0  0  0  0
  162.2990  209.5190  151.0580 C   0  0  1  0  0  3  0  0  0  0  0  0
  161.1740  212.1030  150.4270 C   0  0  0  0  0  2  0  0  0  0  0  0
  161.0190  211.5010  151.8110 C   0  0  0  0  0  0  0  0  0  0  0  0
  162.2270  207.2950  150.1490 N   0  0  0  0  0  0  0  0  0  0  0  0
  160.3040  204.7670  151.1710 N   0  0  0  0  0  0  0  0  0  0  0  0
  161.1920  205.3040  149.1630 C   0  0  0  0  0  0  0  0  0  0  0  0
  162.2320  208.0320  151.2250 C   0  0  0  0  0  0  0  0  0  0  0  0
  162.1270  205.8350  150.1940 C   0  0  2  0  0  3  0  0  0  0  0  0
  160.1870  204.6690  149.7570 C   0  0  0  0  0  3  0  0  0  0  0  0
  161.3850  205.4280  151.4200 C   0  0  0  0  0  0  0  0  0  0  0  0
  161.5450  206.1720  152.6270 N   0  0  0  0  0  0  0  0  0  0  0  0
  161.9580  207.4050  152.5510 C   0  0  0  0  0  3  0  0  0  0  0  0
  161.3170  205.5520  147.6870 C   0  0  1  0  0  3  0  0  0  0  0  0
  162.7500  205.8510  147.2820 C   0  0  0  0  0  1  0  0  0  0  0  0
  160.8250  204.4100  146.9570 N   0  0  0  0  0  0  0  0  0  0  0  0
  161.5740  203.8290  146.0920 C   0  0  0  0  0  3  0  0  0  0  0  0
  161.0580  202.6890  145.2780 C   0  0  0  0  0  2  0  0  0  0  0  0
  160.3930  201.7670  146.0910 O   0  0  0  0  0  0  0  0  0  0  0  0
  161.0250  201.8850  147.3330 C   0  0  0  0  0  2  0  0  0  0  0  0
  161.3310  200.5320  147.8750 C   0  0  0  0  0  0  0  0  0  0  0  0
  161.8120  199.5370  147.0320 O   0  0  0  0  0  0  0  0  0  0  0  0
  161.1320  200.2820  149.0920 O   0  0  0  0  0  1  0  0  0  0  0  0
  160.2450  212.1610  152.8200 N   0  0  0  0  0  2  0  0  0  0  0  0
  158.9070  212.6550  152.6770 C   0  0  0  0  0  0  0  0  0  0  0  0
  158.3570  212.6940  151.5450 O   0  0  0  0  0  0  0  0  0  0  0  0
  159.6670  212.4200  155.4780 O   0  0  0  0  0  0  0  0  0  0  0  0
  158.6170  213.0520  155.1770 C   0  0  0  0  0  0  0  0  0  0  0  0
  158.1860  213.1470  153.8120 N   0  0  0  0  0  2  0  0  0  0  0  0
  157.8190  213.6910  156.2390 C   0  0  0  0  0  0  0  0  0  0  0  0
  158.3970  214.4480  157.1130 N   0  0  0  0  0  2  0  0  0  0  0  0
  156.3560  213.4100  156.3720 C   0  0  0  0  0  2  0  0  0  0  0  0
  156.0930  212.0610  157.0520 C   0  0  0  0  0  2  0  0  0  0  0  0
  155.7540  210.3440  155.2270 C   0  0  0  0  0  1  0  0  0  0  0  0
  155.0860  211.1700  156.3160 C   0  0  1  0  0  3  0  0  0  0  0  0
  153.3050  209.5450  156.8260 C   0  0  0  0  0  2  0  0  0  0  0  0
  154.3050  210.3080  157.2610 C   0  0  0  0  0  3  0  0  0  0  0  0
  161.9950  211.6830  148.1130 C   0  0  0  0  0  3  0  0  0  0  0  0
  161.5480  212.8810  147.7610 C   0  0  0  0  0  3  0  0  0  0  0  0
  160.1430  213.5450  144.3100 N   0  0  0  0  0  2  0  0  0  0  0  0
  159.1600  212.7090  146.2550 O   0  0  0  0  0  0  0  0  0  0  0  0
  158.9160  213.4860  143.5340 C   0  0  0  0  0  1  0  0  0  0  0  0
  161.4360  213.2140  146.3800 N   0  0  0  0  0  2  0  0  0  0  0  0
  160.1970  213.1360  145.6760 C   0  0  0  0  0  0  0  0  0  0  0  0
  1  4  1  0  0  0  0
  2 40  1  6  0  0  0
  2  1  1  0  0  0  0
  2  5  1  0  0  0  0
  4 10  1  1  0  0  0
  4  3  1  0  0  0  0
  5  6  1  0  0  0  0
  6  3  2  0  0  0  0
  6 26  1  0  0  0  0
  7 11  1  0  0  0  0
  7 10  2  0  0  0  0
  8 13  2  0  0  0  0
  9 12  2  0  0  0  0
 10 15  1  0  0  0  0
 11  9  1  6  0  0  0
 11 13  1  0  0  0  0
 12  8  1  0  0  0  0
 13 14  1  0  0  0  0
 15 14  2  0  0  0  0
 16 17  1  1  0  0  0
 16  9  1  0  0  0  0
 18 16  1  0  0  0  0
 19 18  2  0  0  0  0
 20 21  1  0  0  0  0
 20 19  1  0  0  0  0
 21 22  1  0  0  0  0
 22 23  1  0  0  0  0
 23 25  1  0  0  0  0
 24 23  2  0  0  0  0
 27 26  1  0  0  0  0
 27 31  1  0  0  0  0
 28 27  2  0  0  0  0
 30 29  2  0  0  0  0
 30 32  1  0  0  0  0
 31 30  1  0  0  0  0
 32 34  1  0  0  0  0
 32 33  2  0  0  0  0
 34 35  1  0  0  0  0
 37 36  1  6  0  0  0
 37 35  1  0  0  0  0
 37 39  1  0  0  0  0
 38 39  2  0  0  0  0
 41 40  2  0  0  0  0
 42 46  1  0  0  0  0
 44 42  1  0  0  0  0
 45 41  1  0  0  0  0
 46 43  2  0  0  0  0
 46 45  1  0  0  0  0
M  END
>  <MODEL>
6

>  <REMARK>
 VINA RESULT:      -4.6      2.771     10.817
  Name = 
  15 active torsions:
  status: ('A' for Active; 'I' for Inactive)
    1  A    between atoms: N_1  and  C_15
    2  A    between atoms: C_2  and  C_17
    3  A    between atoms: C_3  and  C_36
    4  A    between atoms: C_3  and  C_42
    5  A    between atoms: C_7  and  C_20
    6  A    between atoms: N_8  and  C_30
    7  A    between atoms: C_9  and  C_41
    8  A    between atoms: O_13  and  C_17
    9  A    between atoms: O_13  and  C_41
   10  A    between atoms: C_15  and  C_16
   11  A    between atoms: C_18  and  C_19
   12  A    between atoms: C_24  and  C_28
   13  A    between atoms: C_28  and  C_39
   14  A    between atoms: N_34  and  C_38
   15  A    between atoms: C_36  and  C_39
                            x       y       z     vdW  Elec       q    Type
                         _______ _______ _______ _____ _____    ______ ____

>  <TORSDO>
F 15

$$$$
=
 OpenBabel11042422003D

 46 48  0  0  1  0  0  0  0  0999 V2000
  160.9190  206.2560  150.6860 N   0  0  0  0  0  2  0  0  0  0  0  0
  161.6500  206.1510  149.4300 C   0  0  2  0  0  3  0  0  0  0  0  0
  161.5410  208.6160  150.7790 C   0  0  0  0  0  3  0  0  0  0  0  0
  161.5810  207.2850  151.4860 C   0  0  1  0  0  3  0  0  0  0  0  0
  161.4410  207.4270  148.6040 C   0  0  0  0  0  2  0  0  0  0  0  0
  161.5440  208.6860  149.4440 C   0  0  0  0  0  0  0  0  0  0  0  0
  160.6410  208.4770  153.3480 N   0  0  0  0  0  0  0  0  0  0  0  0
  161.2730  207.9700  156.5850 N   0  0  0  0  0  0  0  0  0  0  0  0
  160.6660  209.8030  155.4100 C   0  0  0  0  0  0  0  0  0  0  0  0
  160.9870  207.3190  152.8600 C   0  0  0  0  0  0  0  0  0  0  0  0
  160.0860  208.6320  154.6950 C   0  0  2  0  0  3  0  0  0  0  0  0
  161.3000  209.3900  156.5020 C   0  0  0  0  0  3  0  0  0  0  0  0
  160.6010  207.5410  155.5690 C   0  0  0  0  0  0  0  0  0  0  0  0
  160.8160  206.2380  155.0280 N   0  0  0  0  0  0  0  0  0  0  0  0
  160.9890  206.1160  153.7430 C   0  0  0  0  0  3  0  0  0  0  0  0
  160.6270  211.2170  154.9050 C   0  0  1  0  0  3  0  0  0  0  0  0
  161.1200  211.3210  153.4720 C   0  0  0  0  0  1  0  0  0  0  0  0
  159.2850  211.7350  155.0050 N   0  0  0  0  0  0  0  0  0  0  0  0
  158.9920  212.8660  154.4750 C   0  0  0  0  0  3  0  0  0  0  0  0
  157.6260  213.4500  154.6270 C   0  0  0  0  0  2  0  0  0  0  0  0
  157.3980  214.4260  153.6540 O   0  0  0  0  0  0  0  0  0  0  0  0
  158.5070  214.3350  152.8070 C   0  0  0  0  0  2  0  0  0  0  0  0
  158.0560  214.2540  151.3910 C   0  0  0  0  0  0  0  0  0  0  0  0
  158.9900  214.1400  150.3680 O   0  0  0  0  0  0  0  0  0  0  0  0
  156.8280  214.3130  151.1160 O   0  0  0  0  0  1  0  0  0  0  0  0
  161.4970  209.9830  148.8370 N   0  0  0  0  0  2  0  0  0  0  0  0
  162.2480  211.1370  149.2380 C   0  0  0  0  0  0  0  0  0  0  0  0
  162.9070  211.1300  150.3120 O   0  0  0  0  0  0  0  0  0  0  0  0
  161.1590  211.4480  146.5550 O   0  0  0  0  0  0  0  0  0  0  0  0
  161.6450  212.4550  147.1420 C   0  0  0  0  0  0  0  0  0  0  0  0
  162.2340  212.3280  148.4450 N   0  0  0  0  0  2  0  0  0  0  0  0
  161.6160  213.7700  146.4800 C   0  0  0  0  0  0  0  0  0  0  0  0
  162.7070  214.4530  146.3540 N   0  0  0  0  0  2  0  0  0  0  0  0
  160.3240  214.3710  146.0250 C   0  0  0  0  0  2  0  0  0  0  0  0
  159.2480  214.3080  147.1150 C   0  0  0  0  0  2  0  0  0  0  0  0
  156.7910  213.8600  147.5140 C   0  0  0  0  0  1  0  0  0  0  0  0
  158.0410  213.4320  146.7590 C   0  0  1  0  0  3  0  0  0  0  0  0
  156.9810  214.2450  144.6890 C   0  0  0  0  0  2  0  0  0  0  0  0
  157.8020  213.3810  145.2810 C   0  0  0  0  0  3  0  0  0  0  0  0
  161.1750  204.9510  148.6860 C   0  0  0  0  0  3  0  0  0  0  0  0
  161.1820  203.7500  149.2480 C   0  0  0  0  0  3  0  0  0  0  0  0
  160.3450  201.3630  146.4330 N   0  0  0  0  0  2  0  0  0  0  0  0
  161.2620  203.5100  146.4310 O   0  0  0  0  0  0  0  0  0  0  0  0
  160.4050  201.2190  144.9870 C   0  0  0  0  0  1  0  0  0  0  0  0
  160.6990  202.6270  148.5170 N   0  0  0  0  0  2  0  0  0  0  0  0
  160.7910  202.5460  147.0950 C   0  0  0  0  0  0  0  0  0  0  0  0
  1  4  1  0  0  0  0
  2 40  1  6  0  0  0
  2  1  1  0  0  0  0
  3  4  1  0  0  0  0
  4 10  1  1  0  0  0
  5  2  1  0  0  0  0
  5  6  1  0  0  0  0
  6  3  2  0  0  0  0
  9 12  2  0  0  0  0
 10  7  2  0  0  0  0
 10 15  1  0  0  0  0
 11  7  1  6  0  0  0
 11  9  1  0  0  0  0
 11 13  1  0  0  0  0
 12  8  1  0  0  0  0
 13  8  2  0  0  0  0
 14 13  1  0  0  0  0
 15 14  2  0  0  0  0
 16 17  1  6  0  0  0
 16 18  1  0  0  0  0
 16  9  1  0  0  0  0
 19 20  1  0  0  0  0
 19 18  2  0  0  0  0
 21 20  1  0  0  0  0
 22 21  1  0  0  0  0
 23 22  1  0  0  0  0
 24 23  2  0  0  0  0
 25 23  1  0  0  0  0
 26 27  1  0  0  0  0
 26  6  1  0  0  0  0
 27 28  2  0  0  0  0
 29 30  2  0  0  0  0
 30 31  1  0  0  0  0
 31 27  1  0  0  0  0
 32 30  1  0  0  0  0
 33 32  2  0  0  0  0
 34 32  1  0  0  0  0
 34 35  1  0  0  0  0
 37 35  1  0  0  0  0
 37 36  1  1  0  0  0
 38 39  2  0  0  0  0
 39 37  1  0  0  0  0
 40 41  2  0  0  0  0
 42 46  1  0  0  0  0
 43 46  2  0  0  0  0
 44 42  1  0  0  0  0
 45 41  1  0  0  0  0
 46 45  1  0  0  0  0
M  END
>  <MODEL>
7

>  <REMARK>
 VINA RESULT:      -4.6      2.265      8.795
  Name = 
  15 active torsions:
  status: ('A' for Active; 'I' for Inactive)
    1  A    between atoms: N_1  and  C_15
    2  A    between atoms: C_2  and  C_17
    3  A    between atoms: C_3  and  C_36
    4  A    between atoms: C_3  and  C_42
    5  A    between atoms: C_7  and  C_20
    6  A    between atoms: N_8  and  C_30
    7  A    between atoms: C_9  and  C_41
    8  A    between atoms: O_13  and  C_17
    9  A    between atoms: O_13  and  C_41
   10  A    between atoms: C_15  and  C_16
   11  A    between atoms: C_18  and  C_19
   12  A    between atoms: C_24  and  C_28
   13  A    between atoms: C_28  and  C_39
   14  A    between atoms: N_34  and  C_38
   15  A    between atoms: C_36  and  C_39
                            x       y       z     vdW  Elec       q    Type
                         _______ _______ _______ _____ _____    ______ ____

>  <TORSDO>
F 15

$$$$
=
 OpenBabel11042422003D

 46 48  0  0  1  0  0  0  0  0999 V2000
  161.9360  209.2630  148.0910 N   0  0  0  0  0  2  0  0  0  0  0  0
  161.2600  208.1340  148.7190 C   0  0  2  0  0  3  0  0  0  0  0  0
  161.3270  210.6230  150.0270 C   0  0  0  0  0  3  0  0  0  0  0  0
  161.2470  210.4750  148.5290 C   0  0  1  0  0  3  0  0  0  0  0  0
  161.5140  208.1570  150.2320 C   0  0  0  0  0  2  0  0  0  0  0  0
  161.3840  209.5490  150.8220 C   0  0  0  0  0  0  0  0  0  0  0  0
  161.0820  212.1110  146.7770 N   0  0  0  0  0  0  0  0  0  0  0  0
  163.5380  213.1770  144.7860 N   0  0  0  0  0  0  0  0  0  0  0  0
  161.3030  212.9950  144.5010 C   0  0  0  0  0  0  0  0  0  0  0  0
  161.7780  211.6580  147.7820 C   0  0  0  0  0  0  0  0  0  0  0  0
  161.5260  213.2380  145.9540 C   0  0  2  0  0  3  0  0  0  0  0  0
  162.4690  213.0060  143.8640 C   0  0  0  0  0  3  0  0  0  0  0  0
  163.0150  213.2980  145.9600 C   0  0  0  0  0  0  0  0  0  0  0  0
  163.7360  212.9460  147.1400 N   0  0  0  0  0  0  0  0  0  0  0  0
  163.1580  212.1770  148.0190 C   0  0  0  0  0  3  0  0  0  0  0  0
  159.9730  212.6770  143.8830 C   0  0  1  0  0  3  0  0  0  0  0  0
  158.9610  213.7880  144.1100 C   0  0  0  0  0  1  0  0  0  0  0  0
  160.1350  212.4390  142.4700 N   0  0  0  0  0  0  0  0  0  0  0  0
  160.3520  211.2500  142.0390 C   0  0  0  0  0  3  0  0  0  0  0  0
  160.5900  210.9970  140.5860 C   0  0  0  0  0  2  0  0  0  0  0  0
  161.8810  210.5040  140.3800 O   0  0  0  0  0  0  0  0  0  0  0  0
  161.6990  209.3980  139.5450 C   0  0  0  0  0  2  0  0  0  0  0  0
  161.9690  209.7810  138.1310 C   0  0  0  0  0  0  0  0  0  0  0  0
  161.4300  209.0330  137.0930 O   0  0  0  0  0  0  0  0  0  0  0  0
  162.7060  210.7690  137.8770 O   0  0  0  0  0  1  0  0  0  0  0  0
  161.4670  209.7610  152.2360 N   0  0  0  0  0  2  0  0  0  0  0  0
  161.1790  208.7980  153.2590 C   0  0  0  0  0  0  0  0  0  0  0  0
  160.6430  207.6960  152.9670 O   0  0  0  0  0  0  0  0  0  0  0  0
  162.7120  211.0420  154.3050 O   0  0  0  0  0  0  0  0  0  0  0  0
  162.1830  210.2290  155.1130 C   0  0  0  0  0  0  0  0  0  0  0  0
  161.4610  209.0860  154.6320 N   0  0  0  0  0  2  0  0  0  0  0  0
  162.3150  210.4510  156.5630 C   0  0  0  0  0  0  0  0  0  0  0  0
  163.1060  209.7040  157.2610 N   0  0  0  0  0  2  0  0  0  0  0  0
  161.4790  211.4780  157.2610 C   0  0  0  0  0  2  0  0  0  0  0  0
  160.6720  212.3260  156.2710 C   0  0  0  0  0  2  0  0  0  0  0  0
  158.4060  211.3990  156.9030 C   0  0  0  0  0  1  0  0  0  0  0  0
  159.3870  211.6580  155.7700 C   0  0  1  0  0  3  0  0  0  0  0  0
  158.9000  212.0570  153.3880 C   0  0  0  0  0  2  0  0  0  0  0  0
  158.7510  212.4320  154.6550 C   0  0  0  0  0  3  0  0  0  0  0  0
  161.7580  206.8670  148.1150 C   0  0  0  0  0  3  0  0  0  0  0  0
  161.0980  205.7280  148.2720 C   0  0  0  0  0  3  0  0  0  0  0  0
  161.6860  202.0900  147.4090 N   0  0  0  0  0  2  0  0  0  0  0  0
  160.4530  203.1050  149.1110 O   0  0  0  0  0  0  0  0  0  0  0  0
  161.3400  200.7380  147.8160 C   0  0  0  0  0  1  0  0  0  0  0  0
  161.5880  204.5380  147.6600 N   0  0  0  0  0  2  0  0  0  0  0  0
  161.2060  203.2380  148.1080 C   0  0  0  0  0  0  0  0  0  0  0  0
  1  4  1  0  0  0  0
  1  2  1  0  0  0  0
  2 40  1  6  0  0  0
  2  5  1  0  0  0  0
  3  6  2  0  0  0  0
  4 10  1  6  0  0  0
  4  3  1  0  0  0  0
  5  6  1  0  0  0  0
  6 26  1  0  0  0  0
  7 10  2  0  0  0  0
  8 13  2  0  0  0  0
 10 15  1  0  0  0  0
 11  9  1  6  0  0  0
 11 13  1  0  0  0  0
 11  7  1  0  0  0  0
 12  9  2  0  0  0  0
 12  8  1  0  0  0  0
 13 14  1  0  0  0  0
 14 15  2  0  0  0  0
 16 17  1  6  0  0  0
 16  9  1  0  0  0  0
 18 16  1  0  0  0  0
 19 18  2  0  0  0  0
 20 19  1  0  0  0  0
 21 20  1  0  0  0  0
 22 21  1  0  0  0  0
 23 22  1  0  0  0  0
 24 23  2  0  0  0  0
 25 23  1  0  0  0  0
 26 27  1  0  0  0  0
 27 31  1  0  0  0  0
 28 27  2  0  0  0  0
 29 30  2  0  0  0  0
 30 32  1  0  0  0  0
 31 30  1  0  0  0  0
 32 34  1  0  0  0  0
 32 33  2  0  0  0  0
 35 34  1  0  0  0  0
 37 35  1  0  0  0  0
 37 36  1  1  0  0  0
 38 39  2  0  0  0  0
 39 37  1  0  0  0  0
 40 41  2  0  0  0  0
 42 44  1  0  0  0  0
 42 46  1  0  0  0  0
 45 46  1  0  0  0  0
 45 41  1  0  0  0  0
 46 43  2  0  0  0  0
M  END
>  <MODEL>
8

>  <REMARK>
 VINA RESULT:      -4.3      3.640      9.969
  Name = 
  15 active torsions:
  status: ('A' for Active; 'I' for Inactive)
    1  A    between atoms: N_1  and  C_15
    2  A    between atoms: C_2  and  C_17
    3  A    between atoms: C_3  and  C_36
    4  A    between atoms: C_3  and  C_42
    5  A    between atoms: C_7  and  C_20
    6  A    between atoms: N_8  and  C_30
    7  A    between atoms: C_9  and  C_41
    8  A    between atoms: O_13  and  C_17
    9  A    between atoms: O_13  and  C_41
   10  A    between atoms: C_15  and  C_16
   11  A    between atoms: C_18  and  C_19
   12  A    between atoms: C_24  and  C_28
   13  A    between atoms: C_28  and  C_39
   14  A    between atoms: N_34  and  C_38
   15  A    between atoms: C_36  and  C_39
                            x       y       z     vdW  Elec       q    Type
                         _______ _______ _______ _____ _____    ______ ____

>  <TORSDO>
F 15

$$$$
