=
 OpenBabel11052411183D

 31 34  0  0  1  0  0  0  0  0999 V2000
  161.2110  208.2970  150.9000 C   0  0  1  0  0  3  0  0  0  0  0  0
  161.8370  207.6340  151.9390 C   0  0  1  0  0  3  0  0  0  0  0  0
  160.9570  208.7910  152.2870 N   0  0  0  0  0  0  0  0  0  0  0  0
  160.3400  209.6780  153.2160 C   0  0  0  0  0  0  0  0  0  0  0  0
  159.3350  210.7150  152.8710 C   0  0  0  0  0  2  0  0  0  0  0  0
  159.1090  211.2830  154.2430 C   0  0  0  0  0  0  0  0  0  0  0  0
  160.5810  209.7120  154.5120 C   0  0  0  0  0  0  0  0  0  0  0  0
  159.8160  210.7130  155.1640 N   0  0  0  0  0  0  0  0  0  0  0  0
  158.2310  212.3250  154.5350 O   0  0  0  0  0  0  0  0  0  0  0  0
  156.8470  212.0980  154.7490 C   0  0  0  0  0  1  0  0  0  0  0  0
  161.5160  208.8710  155.1840 N   0  0  0  0  0  2  0  0  0  0  0  0
  161.8290  209.0870  156.4820 O   0  0  0  0  0  1  0  0  0  0  0  0
  161.3070  205.9660  153.7040 C   0  0  0  0  0  1  0  0  0  0  0  0
  161.1150  206.3270  152.2450 C   0  0  2  0  0  3  0  0  0  0  0  0
  161.6750  205.1990  151.3890 C   0  0  0  0  0  2  0  0  0  0  0  0
  161.0780  202.5470  149.2800 N   0  0  0  0  0  2  0  0  0  0  0  0
  161.1450  205.6950  146.1390 C   0  0  0  0  0  3  0  0  0  0  0  0
  161.2430  203.6570  148.4220 C   0  0  0  0  0  0  0  0  0  0  0  0
  161.8380  203.5550  147.2350 C   0  0  0  0  0  3  0  0  0  0  0  0
  160.4090  206.0060  148.5150 C   0  0  0  0  0  3  0  0  0  0  0  0
  160.3800  206.2770  147.0640 C   0  0  0  0  0  3  0  0  0  0  0  0
  160.5860  204.5660  150.5250 C   0  0  2  0  0  3  0  0  0  0  0  0
  161.3840  202.5060  151.5880 F   0  0  0  0  0  0  0  0  0  0  0  0
  160.5910  203.0150  150.5720 C   0  0  2  0  0  3  0  0  0  0  0  0
  162.2620  204.7480  146.4410 C   0  0  0  0  0  2  0  0  0  0  0  0
  160.8440  204.8800  149.0930 C   0  0  0  0  0  0  0  0  0  0  0  0
  162.1890  209.2290  150.1930 C   0  0  2  0  0  3  0  0  0  0  0  0
  161.8540  210.6630  150.4620 C   0  0  0  0  0  3  0  0  0  0  0  0
  161.8300  211.4760  149.5520 O   0  0  0  0  0  0  0  0  0  0  0  0
  162.9790  207.8450  148.3830 O   0  0  0  0  0  1  0  0  0  0  0  0
  162.2040  208.9670  148.6890 C   0  0  0  0  0  2  0  0  0  0  0  0
  1 27  1  6  0  0  0
  1  2  1  0  0  0  0
  1  3  1  0  0  0  0
  2 14  1  1  0  0  0
  2  3  1  0  0  0  0
  3  4  1  0  0  0  0
  4  7  2  0  0  0  0
  5  4  1  0  0  0  0
  5  6  1  0  0  0  0
  6  9  1  0  0  0  0
  6  8  2  0  0  0  0
  7  8  1  0  0  0  0
  7 11  1  0  0  0  0
  9 10  1  0  0  0  0
 11 12  1  0  0  0  0
 14 13  1  1  0  0  0
 15 14  1  0  0  0  0
 16 24  1  0  0  0  0
 17 25  1  0  0  0  0
 17 21  2  0  0  0  0
 18 26  1  0  0  0  0
 18 16  1  0  0  0  0
 19 18  2  0  0  0  0
 20 26  2  0  0  0  0
 21 20  1  0  0  0  0
 22 24  1  0  0  0  0
 22 15  1  1  0  0  0
 24 23  1  1  0  0  0
 25 19  1  0  0  0  0
 26 22  1  0  0  0  0
 27 31  1  6  0  0  0
 27 28  1  0  0  0  0
 29 28  2  0  0  0  0
 30 31  1  0  0  0  0
M  END
>  <MODEL>
1

>  <REMARK>
 VINA RESULT:      -8.5      0.000      0.000
  Name = 
  9 active torsions:
  status: ('A' for Active; 'I' for Inactive)
    1  A    between atoms: O_2  and  C_11
    2  A    between atoms: C_4  and  C_25
    3  A    between atoms: C_5  and  C_25
    4  A    between atoms: C_6  and  N_31
    5  A    between atoms: N_7  and  C_20
    6  A    between atoms: C_14  and  C_25
    7  A    between atoms: C_16  and  C_21
    8  A    between atoms: C_18  and  C_21
    9  A    between atoms: C_18  and  C_22
                            x       y       z     vdW  Elec       q    Type
                         _______ _______ _______ _____ _____    ______ ____

>  <TORSDO>
F 9

$$$$
=
 OpenBabel11052411183D

 31 34  0  0  1  0  0  0  0  0999 V2000
  161.6180  206.0100  149.5080 C   0  0  1  0  0  3  0  0  0  0  0  0
  160.8180  205.5490  150.5360 C   0  0  1  0  0  3  0  0  0  0  0  0
  161.1340  204.5990  149.4270 N   0  0  0  0  0  0  0  0  0  0  0  0
  161.0520  203.3290  148.7850 C   0  0  0  0  0  0  0  0  0  0  0  0
  161.0870  203.1090  147.3170 C   0  0  0  0  0  2  0  0  0  0  0  0
  160.9520  201.6130  147.3050 C   0  0  0  0  0  0  0  0  0  0  0  0
  160.9220  202.1710  149.4020 C   0  0  0  0  0  0  0  0  0  0  0  0
  160.8590  201.0910  148.4850 N   0  0  0  0  0  0  0  0  0  0  0  0
  160.9250  200.8280  146.1540 O   0  0  0  0  0  0  0  0  0  0  0  0
  160.0810  201.1410  145.0580 C   0  0  0  0  0  1  0  0  0  0  0  0
  160.8270  202.0130  150.8160 N   0  0  0  0  0  2  0  0  0  0  0  0
  161.9210  201.7030  151.5490 O   0  0  0  0  0  1  0  0  0  0  0  0
  160.8420  204.4210  152.7500 C   0  0  0  0  0  1  0  0  0  0  0  0
  161.6660  205.2160  151.7580 C   0  0  2  0  0  3  0  0  0  0  0  0
  162.1430  206.4920  152.4370 C   0  0  0  0  0  2  0  0  0  0  0  0
  161.4000  209.7600  153.2180 N   0  0  0  0  0  2  0  0  0  0  0  0
  160.6240  208.0780  157.2610 C   0  0  0  0  0  3  0  0  0  0  0  0
  161.3100  209.0690  154.4460 C   0  0  0  0  0  0  0  0  0  0  0  0
  161.6850  209.6180  155.6000 C   0  0  0  0  0  3  0  0  0  0  0  0
  160.3100  206.8750  155.0840 C   0  0  0  0  0  3  0  0  0  0  0  0
  159.9940  207.1890  156.4920 C   0  0  0  0  0  3  0  0  0  0  0  0
  160.9730  207.4200  152.7590 C   0  0  2  0  0  3  0  0  0  0  0  0
  162.1250  208.8990  151.1790 F   0  0  0  0  0  0  0  0  0  0  0  0
  161.1190  208.8310  152.1300 C   0  0  2  0  0  3  0  0  0  0  0  0
  161.8540  208.8250  156.8550 C   0  0  0  0  0  2  0  0  0  0  0  0
  160.9370  207.6840  154.2230 C   0  0  0  0  0  0  0  0  0  0  0  0
  160.8120  206.8860  148.5530 C   0  0  2  0  0  3  0  0  0  0  0  0
  160.4790  206.1450  147.2960 C   0  0  0  0  0  3  0  0  0  0  0  0
  160.7690  206.6100  146.2060 O   0  0  0  0  0  0  0  0  0  0  0  0
  162.9470  207.9870  148.3390 O   0  0  0  0  0  1  0  0  0  0  0  0
  161.5670  208.1700  148.2210 C   0  0  0  0  0  2  0  0  0  0  0  0
  1 27  1  6  0  0  0
  1  2  1  0  0  0  0
  2 14  1  1  0  0  0
  3  1  1  0  0  0  0
  3  2  1  0  0  0  0
  4  7  2  0  0  0  0
  4  3  1  0  0  0  0
  5  4  1  0  0  0  0
  6  5  1  0  0  0  0
  6  8  2  0  0  0  0
  7 11  1  0  0  0  0
  8  7  1  0  0  0  0
  9  6  1  0  0  0  0
 10  9  1  0  0  0  0
 11 12  1  0  0  0  0
 14 15  1  0  0  0  0
 14 13  1  1  0  0  0
 16 18  1  0  0  0  0
 18 19  2  0  0  0  0
 19 25  1  0  0  0  0
 20 21  1  0  0  0  0
 21 17  2  0  0  0  0
 22 15  1  1  0  0  0
 22 26  1  0  0  0  0
 24 23  1  6  0  0  0
 24 22  1  0  0  0  0
 24 16  1  0  0  0  0
 25 17  1  0  0  0  0
 26 18  1  0  0  0  0
 26 20  2  0  0  0  0
 27 28  1  6  0  0  0
 29 28  2  0  0  0  0
 31 30  1  0  0  0  0
 31 27  1  0  0  0  0
M  END
>  <MODEL>
2

>  <REMARK>
 VINA RESULT:      -8.4      3.138      7.994
  Name = 
  9 active torsions:
  status: ('A' for Active; 'I' for Inactive)
    1  A    between atoms: O_2  and  C_11
    2  A    between atoms: C_4  and  C_25
    3  A    between atoms: C_5  and  C_25
    4  A    between atoms: C_6  and  N_31
    5  A    between atoms: N_7  and  C_20
    6  A    between atoms: C_14  and  C_25
    7  A    between atoms: C_16  and  C_21
    8  A    between atoms: C_18  and  C_21
    9  A    between atoms: C_18  and  C_22
                            x       y       z     vdW  Elec       q    Type
                         _______ _______ _______ _____ _____    ______ ____

>  <TORSDO>
F 9

$$$$
=
 OpenBabel11052411183D

 31 34  0  0  1  0  0  0  0  0999 V2000
  162.2640  210.0290  151.6300 C   0  0  1  0  0  3  0  0  0  0  0  0
  161.5430  209.2340  150.7570 C   0  0  1  0  0  3  0  0  0  0  0  0
  161.8780  210.6220  150.3140 N   0  0  0  0  0  0  0  0  0  0  0  0
  161.8570  211.6890  149.3700 C   0  0  0  0  0  0  0  0  0  0  0  0
  162.6950  211.7650  148.1470 C   0  0  0  0  0  2  0  0  0  0  0  0
  162.2140  213.0880  147.6200 C   0  0  0  0  0  0  0  0  0  0  0  0
  161.0980  212.7640  149.4530 C   0  0  0  0  0  0  0  0  0  0  0  0
  161.3140  213.6470  148.3630 N   0  0  0  0  0  0  0  0  0  0  0  0
  162.6720  213.6890  146.4490 O   0  0  0  0  0  0  0  0  0  0  0  0
  162.1960  213.2950  145.1720 C   0  0  0  0  0  1  0  0  0  0  0  0
  160.1890  213.0340  150.5180 N   0  0  0  0  0  2  0  0  0  0  0  0
  158.9230  213.4340  150.2580 O   0  0  0  0  0  1  0  0  0  0  0  0
  161.9050  207.8830  148.7040 C   0  0  0  0  0  1  0  0  0  0  0  0
  162.4650  208.2360  150.0660 C   0  0  2  0  0  3  0  0  0  0  0  0
  162.5790  206.9610  150.8890 C   0  0  0  0  0  2  0  0  0  0  0  0
  160.9490  204.9650  153.1690 N   0  0  0  0  0  2  0  0  0  0  0  0
  160.8130  202.0880  149.7800 C   0  0  0  0  0  3  0  0  0  0  0  0
  161.0990  204.1520  152.0240 C   0  0  0  0  0  0  0  0  0  0  0  0
  161.3340  202.8440  152.1070 C   0  0  0  0  0  3  0  0  0  0  0  0
  160.7940  204.5870  149.5870 C   0  0  0  0  0  3  0  0  0  0  0  0
  160.4430  203.2150  149.1700 C   0  0  0  0  0  3  0  0  0  0  0  0
  161.2010  206.3970  151.2310 C   0  0  2  0  0  3  0  0  0  0  0  0
  161.8300  207.0960  153.4960 F   0  0  0  0  0  0  0  0  0  0  0  0
  160.9150  206.3630  152.7560 C   0  0  2  0  0  3  0  0  0  0  0  0
  161.7630  202.0240  150.9340 C   0  0  0  0  0  2  0  0  0  0  0  0
  161.1350  204.9670  150.8240 C   0  0  0  0  0  0  0  0  0  0  0  0
  161.3580  210.5770  152.7270 C   0  0  2  0  0  3  0  0  0  0  0  0
  161.9320  210.3080  154.0820 C   0  0  0  0  0  3  0  0  0  0  0  0
  161.7090  211.0640  155.0130 O   0  0  0  0  0  0  0  0  0  0  0  0
  158.9800  210.9800  152.7360 O   0  0  0  0  0  1  0  0  0  0  0  0
  159.9550  209.9850  152.6250 C   0  0  0  0  0  2  0  0  0  0  0  0
  1 27  1  1  0  0  0
  2 14  1  6  0  0  0
  2  1  1  0  0  0  0
  3  2  1  0  0  0  0
  3  1  1  0  0  0  0
  4  7  2  0  0  0  0
  4  3  1  0  0  0  0
  5  4  1  0  0  0  0
  6  5  1  0  0  0  0
  6  8  2  0  0  0  0
  7 11  1  0  0  0  0
  8  7  1  0  0  0  0
  9  6  1  0  0  0  0
 10  9  1  0  0  0  0
 12 11  1  0  0  0  0
 14 13  1  6  0  0  0
 14 15  1  0  0  0  0
 17 25  1  0  0  0  0
 18 19  2  0  0  0  0
 18 16  1  0  0  0  0
 20 26  2  0  0  0  0
 21 20  1  0  0  0  0
 21 17  2  0  0  0  0
 22 15  1  1  0  0  0
 22 24  1  0  0  0  0
 24 16  1  0  0  0  0
 24 23  1  1  0  0  0
 25 19  1  0  0  0  0
 26 22  1  0  0  0  0
 26 18  1  0  0  0  0
 27 31  1  1  0  0  0
 27 28  1  0  0  0  0
 28 29  2  0  0  0  0
 31 30  1  0  0  0  0
M  END
>  <MODEL>
3

>  <REMARK>
 VINA RESULT:      -7.8      2.809      5.321
  Name = 
  9 active torsions:
  status: ('A' for Active; 'I' for Inactive)
    1  A    between atoms: O_2  and  C_11
    2  A    between atoms: C_4  and  C_25
    3  A    between atoms: C_5  and  C_25
    4  A    between atoms: C_6  and  N_31
    5  A    between atoms: N_7  and  C_20
    6  A    between atoms: C_14  and  C_25
    7  A    between atoms: C_16  and  C_21
    8  A    between atoms: C_18  and  C_21
    9  A    between atoms: C_18  and  C_22
                            x       y       z     vdW  Elec       q    Type
                         _______ _______ _______ _____ _____    ______ ____

>  <TORSDO>
F 9

$$$$
=
 OpenBabel11052411183D

 31 34  0  0  1  0  0  0  0  0999 V2000
  161.3830  208.9240  153.6300 C   0  0  1  0  0  3  0  0  0  0  0  0
  160.9010  208.4290  152.4330 C   0  0  1  0  0  3  0  0  0  0  0  0
  160.6730  209.8770  152.7260 N   0  0  0  0  0  0  0  0  0  0  0  0
  160.1750  211.1720  152.3990 C   0  0  0  0  0  0  0  0  0  0  0  0
  160.7280  212.0610  151.3470 C   0  0  0  0  0  2  0  0  0  0  0  0
  159.7950  213.2260  151.5150 C   0  0  0  0  0  0  0  0  0  0  0  0
  159.1580  211.7680  152.9910 C   0  0  0  0  0  0  0  0  0  0  0  0
  158.9120  213.0540  152.4460 N   0  0  0  0  0  0  0  0  0  0  0  0
  159.8450  214.3980  150.7620 O   0  0  0  0  0  0  0  0  0  0  0  0
  160.1770  214.3850  149.3830 C   0  0  0  0  0  1  0  0  0  0  0  0
  158.4080  211.2100  154.0680 N   0  0  0  0  0  2  0  0  0  0  0  0
  157.1410  211.6170  154.3080 O   0  0  0  0  0  1  0  0  0  0  0  0
  161.6870  209.0140  150.1490 C   0  0  0  0  0  1  0  0  0  0  0  0
  162.0370  208.2800  151.4270 C   0  0  2  0  0  3  0  0  0  0  0  0
  162.2620  206.8110  151.0950 C   0  0  0  0  0  2  0  0  0  0  0  0
  160.8930  203.7320  150.4000 N   0  0  0  0  0  2  0  0  0  0  0  0
  161.1720  205.1320  146.1880 C   0  0  0  0  0  3  0  0  0  0  0  0
  161.1600  204.2990  149.1350 C   0  0  0  0  0  0  0  0  0  0  0  0
  161.5670  203.5670  148.0990 C   0  0  0  0  0  3  0  0  0  0  0  0
  160.8210  206.5860  148.1990 C   0  0  0  0  0  3  0  0  0  0  0  0
  160.6600  206.2120  146.7800 C   0  0  0  0  0  3  0  0  0  0  0  0
  160.9690  206.1420  150.6330 C   0  0  2  0  0  3  0  0  0  0  0  0
  161.4780  204.6080  152.4770 F   0  0  0  0  0  0  0  0  0  0  0  0
  160.6770  204.8050  151.3640 C   0  0  2  0  0  3  0  0  0  0  0  0
  162.1110  204.1730  146.8460 C   0  0  0  0  0  2  0  0  0  0  0  0
  161.0970  205.7470  149.2040 C   0  0  0  0  0  0  0  0  0  0  0  0
  160.4650  208.5270  154.7820 C   0  0  2  0  0  3  0  0  0  0  0  0
  160.7640  209.3290  156.0090 C   0  0  0  0  0  3  0  0  0  0  0  0
  161.8570  209.8490  156.1600 O   0  0  0  0  0  0  0  0  0  0  0  0
  160.1210  206.7490  156.3740 O   0  0  0  0  0  1  0  0  0  0  0  0
  160.5850  207.0360  155.0880 C   0  0  0  0  0  2  0  0  0  0  0  0
  1 27  1  1  0  0  0
  2 14  1  6  0  0  0
  2  3  1  0  0  0  0
  2  1  1  0  0  0  0
  3  1  1  0  0  0  0
  4  3  1  0  0  0  0
  4  7  2  0  0  0  0
  5  6  1  0  0  0  0
  5  4  1  0  0  0  0
  6  8  2  0  0  0  0
  7 11  1  0  0  0  0
  8  7  1  0  0  0  0
  9  6  1  0  0  0  0
 10  9  1  0  0  0  0
 11 12  1  0  0  0  0
 14 13  1  6  0  0  0
 15 14  1  0  0  0  0
 16 24  1  0  0  0  0
 17 21  2  0  0  0  0
 17 25  1  0  0  0  0
 18 26  1  0  0  0  0
 18 16  1  0  0  0  0
 19 18  2  0  0  0  0
 20 26  2  0  0  0  0
 21 20  1  0  0  0  0
 22 15  1  1  0  0  0
 22 24  1  0  0  0  0
 24 23  1  1  0  0  0
 25 19  1  0  0  0  0
 26 22  1  0  0  0  0
 27 31  1  1  0  0  0
 27 28  1  0  0  0  0
 28 29  2  0  0  0  0
 31 30  1  0  0  0  0
M  END
>  <MODEL>
4

>  <REMARK>
 VINA RESULT:      -7.4      2.065      3.784
  Name = 
  9 active torsions:
  status: ('A' for Active; 'I' for Inactive)
    1  A    between atoms: O_2  and  C_11
    2  A    between atoms: C_4  and  C_25
    3  A    between atoms: C_5  and  C_25
    4  A    between atoms: C_6  and  N_31
    5  A    between atoms: N_7  and  C_20
    6  A    between atoms: C_14  and  C_25
    7  A    between atoms: C_16  and  C_21
    8  A    between atoms: C_18  and  C_21
    9  A    between atoms: C_18  and  C_22
                            x       y       z     vdW  Elec       q    Type
                         _______ _______ _______ _____ _____    ______ ____

>  <TORSDO>
F 9

$$$$
=
 OpenBabel11052411183D

 31 34  0  0  1  0  0  0  0  0999 V2000
  160.9540  206.7340  151.9290 C   0  0  1  0  0  3  0  0  0  0  0  0
  161.9120  207.6930  151.6590 C   0  0  1  0  0  3  0  0  0  0  0  0
  161.5090  206.7840  150.5430 N   0  0  0  0  0  0  0  0  0  0  0  0
  161.5840  206.3210  149.1970 C   0  0  0  0  0  0  0  0  0  0  0  0
  161.1980  204.9630  148.7370 C   0  0  0  0  0  2  0  0  0  0  0  0
  161.5140  205.1170  147.2770 C   0  0  0  0  0  0  0  0  0  0  0  0
  162.0150  207.0290  148.1710 C   0  0  0  0  0  0  0  0  0  0  0  0
  161.9760  206.2840  146.9650 N   0  0  0  0  0  0  0  0  0  0  0  0
  161.3420  204.1180  146.3190 O   0  0  0  0  0  0  0  0  0  0  0  0
  161.0260  204.4250  144.9710 C   0  0  0  0  0  1  0  0  0  0  0  0
  162.4930  208.3700  148.2560 N   0  0  0  0  0  2  0  0  0  0  0  0
  161.6290  209.4110  148.2350 O   0  0  0  0  0  1  0  0  0  0  0  0
  162.3270  210.1220  151.3360 C   0  0  0  0  0  1  0  0  0  0  0  0
  161.2580  209.0580  151.4740 C   0  0  2  0  0  3  0  0  0  0  0  0
  160.3890  209.3970  152.6760 C   0  0  0  0  0  2  0  0  0  0  0  0
  160.3380  211.2250  155.5910 N   0  0  0  0  0  2  0  0  0  0  0  0
  157.0220  213.3910  153.5700 C   0  0  0  0  0  3  0  0  0  0  0  0
  159.2460  211.7150  154.8420 C   0  0  0  0  0  0  0  0  0  0  0  0
  158.1050  212.0940  155.4140 C   0  0  0  0  0  3  0  0  0  0  0  0
  158.9740  212.3050  152.4340 C   0  0  0  0  0  3  0  0  0  0  0  0
  157.9180  213.3260  152.5850 C   0  0  0  0  0  3  0  0  0  0  0  0
  160.7420  210.7700  153.2460 C   0  0  2  0  0  3  0  0  0  0  0  0
  161.7060  209.4190  155.0510 F   0  0  0  0  0  0  0  0  0  0  0  0
  161.3450  210.7030  154.6750 C   0  0  2  0  0  3  0  0  0  0  0  0
  156.8570  212.3530  154.6330 C   0  0  0  0  0  2  0  0  0  0  0  0
  159.5000  211.5700  153.4210 C   0  0  0  0  0  0  0  0  0  0  0  0
  161.5680  205.5620  152.6870 C   0  0  2  0  0  3  0  0  0  0  0  0
  160.8420  204.2890  152.3870 C   0  0  0  0  0  3  0  0  0  0  0  0
  161.4260  203.3470  151.8770 O   0  0  0  0  0  0  0  0  0  0  0  0
  160.4580  206.5810  154.5700 O   0  0  0  0  0  1  0  0  0  0  0  0
  161.5690  205.8240  154.1910 C   0  0  0  0  0  2  0  0  0  0  0  0
  1 27  1  1  0  0  0
  2 14  1  6  0  0  0
  2  1  1  0  0  0  0
  3  2  1  0  0  0  0
  3  1  1  0  0  0  0
  4  3  1  0  0  0  0
  5  4  1  0  0  0  0
  6  5  1  0  0  0  0
  7 11  1  0  0  0  0
  7  4  2  0  0  0  0
  8  6  2  0  0  0  0
  8  7  1  0  0  0  0
  9  6  1  0  0  0  0
 10  9  1  0  0  0  0
 12 11  1  0  0  0  0
 14 13  1  1  0  0  0
 14 15  1  0  0  0  0
 17 25  1  0  0  0  0
 18 19  2  0  0  0  0
 18 16  1  0  0  0  0
 20 21  1  0  0  0  0
 20 26  2  0  0  0  0
 21 17  2  0  0  0  0
 22 15  1  1  0  0  0
 22 26  1  0  0  0  0
 22 24  1  0  0  0  0
 24 23  1  1  0  0  0
 24 16  1  0  0  0  0
 25 19  1  0  0  0  0
 26 18  1  0  0  0  0
 27 28  1  1  0  0  0
 27 31  1  0  0  0  0
 29 28  2  0  0  0  0
 31 30  1  0  0  0  0
M  END
>  <MODEL>
5

>  <REMARK>
 VINA RESULT:      -7.3      2.637      8.218
  Name = 
  9 active torsions:
  status: ('A' for Active; 'I' for Inactive)
    1  A    between atoms: O_2  and  C_11
    2  A    between atoms: C_4  and  C_25
    3  A    between atoms: C_5  and  C_25
    4  A    between atoms: C_6  and  N_31
    5  A    between atoms: N_7  and  C_20
    6  A    between atoms: C_14  and  C_25
    7  A    between atoms: C_16  and  C_21
    8  A    between atoms: C_18  and  C_21
    9  A    between atoms: C_18  and  C_22
                            x       y       z     vdW  Elec       q    Type
                         _______ _______ _______ _____ _____    ______ ____

>  <TORSDO>
F 9

$$$$
=
 OpenBabel11052411183D

 31 34  0  0  1  0  0  0  0  0999 V2000
  160.9010  206.5020  151.4190 C   0  0  1  0  0  3  0  0  0  0  0  0
  161.8790  207.4360  151.1320 C   0  0  1  0  0  3  0  0  0  0  0  0
  161.4850  206.4900  150.0450 N   0  0  0  0  0  0  0  0  0  0  0  0
  161.5800  205.9730  148.7200 C   0  0  0  0  0  0  0  0  0  0  0  0
  162.0020  206.7510  147.5270 C   0  0  0  0  0  2  0  0  0  0  0  0
  161.8830  205.6680  146.4920 C   0  0  0  0  0  0  0  0  0  0  0  0
  161.2990  204.7350  148.3620 C   0  0  0  0  0  0  0  0  0  0  0  0
  161.4840  204.5340  146.9710 N   0  0  0  0  0  0  0  0  0  0  0  0
  162.1630  205.8320  145.1370 O   0  0  0  0  0  0  0  0  0  0  0  0
  161.2540  205.4160  144.1310 C   0  0  0  0  0  1  0  0  0  0  0  0
  160.8350  203.7220  149.2520 N   0  0  0  0  0  2  0  0  0  0  0  0
  160.6200  202.4620  148.8080 O   0  0  0  0  0  1  0  0  0  0  0  0
  162.3310  209.8110  150.5610 C   0  0  0  0  0  1  0  0  0  0  0  0
  161.2490  208.8010  150.8810 C   0  0  2  0  0  3  0  0  0  0  0  0
  160.4940  209.2730  152.1160 C   0  0  0  0  0  2  0  0  0  0  0  0
  160.6560  211.1720  154.9800 N   0  0  0  0  0  2  0  0  0  0  0  0
  158.0440  213.9390  152.6790 C   0  0  0  0  0  3  0  0  0  0  0  0
  159.7520  211.8620  154.1440 C   0  0  0  0  0  0  0  0  0  0  0  0
  158.6870  212.5030  154.6230 C   0  0  0  0  0  3  0  0  0  0  0  0
  159.7790  212.4100  151.7110 C   0  0  0  0  0  3  0  0  0  0  0  0
  158.9680  213.6430  151.7630 C   0  0  0  0  0  3  0  0  0  0  0  0
  161.1040  210.5550  152.6810 C   0  0  2  0  0  3  0  0  0  0  0  0
  161.6220  209.0910  154.5790 F   0  0  0  0  0  0  0  0  0  0  0  0
  161.5810  210.4090  154.1510 C   0  0  2  0  0  3  0  0  0  0  0  0
  157.5830  213.0010  153.7480 C   0  0  0  0  0  2  0  0  0  0  0  0
  160.0610  211.6140  152.7480 C   0  0  0  0  0  0  0  0  0  0  0  0
  161.4820  205.3520  152.2360 C   0  0  2  0  0  3  0  0  0  0  0  0
  160.4930  204.2370  152.3720 C   0  0  0  0  0  3  0  0  0  0  0  0
  160.8650  203.0750  152.3870 O   0  0  0  0  0  0  0  0  0  0  0  0
  160.8310  206.2070  154.3940 O   0  0  0  0  0  1  0  0  0  0  0  0
  161.9270  205.8300  153.6150 C   0  0  0  0  0  2  0  0  0  0  0  0
  1 27  1  1  0  0  0
  2 14  1  6  0  0  0
  2  1  1  0  0  0  0
  3  2  1  0  0  0  0
  3  1  1  0  0  0  0
  4  3  1  0  0  0  0
  5  4  1  0  0  0  0
  6  8  2  0  0  0  0
  6  5  1  0  0  0  0
  7  4  2  0  0  0  0
  7 11  1  0  0  0  0
  8  7  1  0  0  0  0
  9  6  1  0  0  0  0
 10  9  1  0  0  0  0
 12 11  1  0  0  0  0
 14 13  1  1  0  0  0
 14 15  1  0  0  0  0
 17 25  1  0  0  0  0
 18 19  2  0  0  0  0
 18 16  1  0  0  0  0
 20 21  1  0  0  0  0
 20 26  2  0  0  0  0
 21 17  2  0  0  0  0
 22 15  1  1  0  0  0
 22 26  1  0  0  0  0
 22 24  1  0  0  0  0
 24 23  1  1  0  0  0
 24 16  1  0  0  0  0
 25 19  1  0  0  0  0
 26 18  1  0  0  0  0
 27 28  1  1  0  0  0
 27 31  1  0  0  0  0
 28 29  2  0  0  0  0
 31 30  1  0  0  0  0
M  END
>  <MODEL>
6

>  <REMARK>
 VINA RESULT:      -7.3      2.740      8.242
  Name = 
  9 active torsions:
  status: ('A' for Active; 'I' for Inactive)
    1  A    between atoms: O_2  and  C_11
    2  A    between atoms: C_4  and  C_25
    3  A    between atoms: C_5  and  C_25
    4  A    between atoms: C_6  and  N_31
    5  A    between atoms: N_7  and  C_20
    6  A    between atoms: C_14  and  C_25
    7  A    between atoms: C_16  and  C_21
    8  A    between atoms: C_18  and  C_21
    9  A    between atoms: C_18  and  C_22
                            x       y       z     vdW  Elec       q    Type
                         _______ _______ _______ _____ _____    ______ ____

>  <TORSDO>
F 9

$$$$
=
 OpenBabel11052411183D

 31 34  0  0  1  0  0  0  0  0999 V2000
  160.7430  204.8760  150.3990 C   0  0  1  0  0  3  0  0  0  0  0  0
  161.8300  205.7270  150.3250 C   0  0  1  0  0  3  0  0  0  0  0  0
  161.2430  205.2400  149.0390 N   0  0  0  0  0  0  0  0  0  0  0  0
  161.1900  205.1730  147.6170 C   0  0  0  0  0  0  0  0  0  0  0  0
  160.9380  206.3260  146.7150 C   0  0  0  0  0  2  0  0  0  0  0  0
  160.9990  205.6060  145.3980 C   0  0  0  0  0  0  0  0  0  0  0  0
  161.3480  204.0780  146.8990 C   0  0  0  0  0  0  0  0  0  0  0  0
  161.2290  204.3380  145.5100 N   0  0  0  0  0  0  0  0  0  0  0  0
  160.8270  206.2120  144.1550 O   0  0  0  0  0  0  0  0  0  0  0  0
  161.5930  205.8270  143.0250 C   0  0  0  0  0  1  0  0  0  0  0  0
  161.5790  202.7800  147.4430 N   0  0  0  0  0  2  0  0  0  0  0  0
  161.1740  201.6740  146.7790 O   0  0  0  0  0  1  0  0  0  0  0  0
  162.0030  208.0760  149.5310 C   0  0  0  0  0  1  0  0  0  0  0  0
  161.3930  207.1660  150.5770 C   0  0  2  0  0  3  0  0  0  0  0  0
  161.8560  207.6280  151.9520 C   0  0  0  0  0  2  0  0  0  0  0  0
  161.5280  210.5410  153.7530 N   0  0  0  0  0  2  0  0  0  0  0  0
  160.6510  207.7610  157.1110 C   0  0  0  0  0  3  0  0  0  0  0  0
  161.3850  209.5110  154.7080 C   0  0  0  0  0  0  0  0  0  0  0  0
  161.8490  209.6260  155.9510 C   0  0  0  0  0  3  0  0  0  0  0  0
  160.1440  207.3480  154.6910 C   0  0  0  0  0  3  0  0  0  0  0  0
  159.9010  207.2330  156.1430 C   0  0  0  0  0  3  0  0  0  0  0  0
  160.8130  208.5250  152.6160 C   0  0  2  0  0  3  0  0  0  0  0  0
  162.0960  210.2960  151.5070 F   0  0  0  0  0  0  0  0  0  0  0  0
  161.1120  210.0390  152.4480 C   0  0  2  0  0  3  0  0  0  0  0  0
  161.9520  208.4630  156.8840 C   0  0  0  0  0  2  0  0  0  0  0  0
  160.8430  208.3160  154.0880 C   0  0  0  0  0  0  0  0  0  0  0  0
  161.1940  203.4620  150.7520 C   0  0  2  0  0  3  0  0  0  0  0  0
  160.3020  202.4410  150.1200 C   0  0  0  0  0  3  0  0  0  0  0  0
  160.5230  201.2500  150.2640 O   0  0  0  0  0  0  0  0  0  0  0  0
  160.8290  204.4200  152.9350 O   0  0  0  0  0  1  0  0  0  0  0  0
  161.2310  203.2620  152.2650 C   0  0  0  0  0  2  0  0  0  0  0  0
  1 27  1  1  0  0  0
  2  1  1  0  0  0  0
  2 14  1  6  0  0  0
  3  2  1  0  0  0  0
  3  1  1  0  0  0  0
  4  3  1  0  0  0  0
  5  4  1  0  0  0  0
  6  8  2  0  0  0  0
  6  5  1  0  0  0  0
  7 11  1  0  0  0  0
  7  4  2  0  0  0  0
  8  7  1  0  0  0  0
  9  6  1  0  0  0  0
 10  9  1  0  0  0  0
 12 11  1  0  0  0  0
 14 13  1  6  0  0  0
 14 15  1  0  0  0  0
 16 18  1  0  0  0  0
 18 19  2  0  0  0  0
 19 25  1  0  0  0  0
 20 21  1  0  0  0  0
 21 17  2  0  0  0  0
 22 15  1  6  0  0  0
 22 26  1  0  0  0  0
 24 23  1  6  0  0  0
 24 22  1  0  0  0  0
 24 16  1  0  0  0  0
 25 17  1  0  0  0  0
 26 20  2  0  0  0  0
 26 18  1  0  0  0  0
 27 28  1  6  0  0  0
 27 31  1  0  0  0  0
 28 29  2  0  0  0  0
 31 30  1  0  0  0  0
M  END
>  <MODEL>
7

>  <REMARK>
 VINA RESULT:      -7.3      3.311      8.485
  Name = 
  9 active torsions:
  status: ('A' for Active; 'I' for Inactive)
    1  A    between atoms: O_2  and  C_11
    2  A    between atoms: C_4  and  C_25
    3  A    between atoms: C_5  and  C_25
    4  A    between atoms: C_6  and  N_31
    5  A    between atoms: N_7  and  C_20
    6  A    between atoms: C_14  and  C_25
    7  A    between atoms: C_16  and  C_21
    8  A    between atoms: C_18  and  C_21
    9  A    between atoms: C_18  and  C_22
                            x       y       z     vdW  Elec       q    Type
                         _______ _______ _______ _____ _____    ______ ____

>  <TORSDO>
F 9

$$$$
=
 OpenBabel11052411183D

 31 34  0  0  1  0  0  0  0  0999 V2000
  161.2080  208.0620  150.3520 C   0  0  1  0  0  3  0  0  0  0  0  0
  161.7850  206.8590  150.7160 C   0  0  1  0  0  3  0  0  0  0  0  0
  161.2310  207.7190  151.8060 N   0  0  0  0  0  0  0  0  0  0  0  0
  160.9390  208.0000  153.1720 C   0  0  0  0  0  0  0  0  0  0  0  0
  160.4030  209.2870  153.6850 C   0  0  0  0  0  2  0  0  0  0  0  0
  160.3350  208.9410  155.1460 C   0  0  0  0  0  0  0  0  0  0  0  0
  161.1130  207.1630  154.1760 C   0  0  0  0  0  0  0  0  0  0  0  0
  160.7380  207.7420  155.4160 N   0  0  0  0  0  0  0  0  0  0  0  0
  159.8880  209.8050  156.1450 O   0  0  0  0  0  0  0  0  0  0  0  0
  160.4020  211.1200  156.2800 C   0  0  0  0  0  1  0  0  0  0  0  0
  161.6390  205.8440  154.0480 N   0  0  0  0  0  2  0  0  0  0  0  0
  160.8210  204.7970  153.7940 O   0  0  0  0  0  1  0  0  0  0  0  0
  161.3880  204.4240  151.0140 C   0  0  0  0  0  1  0  0  0  0  0  0
  160.8280  205.7070  150.4330 C   0  0  2  0  0  3  0  0  0  0  0  0
  160.6490  205.5210  148.9330 C   0  0  0  0  0  2  0  0  0  0  0  0
  162.2110  204.9840  145.9150 N   0  0  0  0  0  2  0  0  0  0  0  0
  160.7220  200.8300  146.4680 C   0  0  0  0  0  3  0  0  0  0  0  0
  161.5670  203.7620  146.2080 C   0  0  0  0  0  0  0  0  0  0  0  0
  161.0230  203.0000  145.2600 C   0  0  0  0  0  3  0  0  0  0  0  0
  161.3540  202.4200  148.2990 C   0  0  0  0  0  3  0  0  0  0  0  0
  161.2120  201.0870  147.6820 C   0  0  0  0  0  3  0  0  0  0  0  0
  161.8680  204.8450  148.3090 C   0  0  2  0  0  3  0  0  0  0  0  0
  162.0380  206.9760  147.1090 F   0  0  0  0  0  0  0  0  0  0  0  0
  162.5090  205.6740  147.1640 C   0  0  2  0  0  3  0  0  0  0  0  0
  160.1110  201.8570  145.5680 C   0  0  0  0  0  2  0  0  0  0  0  0
  161.4480  203.5820  147.6430 C   0  0  0  0  0  0  0  0  0  0  0  0
  162.2820  209.1020  150.0510 C   0  0  2  0  0  3  0  0  0  0  0  0
  162.1800  210.2660  150.9860 C   0  0  0  0  0  3  0  0  0  0  0  0
  161.2350  211.0350  150.9190 O   0  0  0  0  0  0  0  0  0  0  0  0
  162.1190  210.9740  148.5400 O   0  0  0  0  0  1  0  0  0  0  0  0
  162.1900  209.5800  148.6050 C   0  0  0  0  0  2  0  0  0  0  0  0
  1 27  1  1  0  0  0
  1  2  1  0  0  0  0
  1  3  1  0  0  0  0
  2 14  1  6  0  0  0
  2  3  1  0  0  0  0
  3  4  1  0  0  0  0
  4  5  1  0  0  0  0
  4  7  2  0  0  0  0
  5  6  1  0  0  0  0
  6  8  2  0  0  0  0
  6  9  1  0  0  0  0
  7  8  1  0  0  0  0
  9 10  1  0  0  0  0
 11  7  1  0  0  0  0
 12 11  1  0  0  0  0
 14 13  1  6  0  0  0
 15 14  1  0  0  0  0
 16 18  1  0  0  0  0
 16 24  1  0  0  0  0
 17 21  2  0  0  0  0
 18 26  1  0  0  0  0
 19 25  1  0  0  0  0
 19 18  2  0  0  0  0
 21 20  1  0  0  0  0
 22 15  1  6  0  0  0
 24 23  1  6  0  0  0
 24 22  1  0  0  0  0
 25 17  1  0  0  0  0
 26 20  2  0  0  0  0
 26 22  1  0  0  0  0
 27 31  1  6  0  0  0
 27 28  1  0  0  0  0
 29 28  2  0  0  0  0
 30 31  1  0  0  0  0
M  END
>  <MODEL>
8

>  <REMARK>
 VINA RESULT:      -7.1      2.273      3.194
  Name = 
  9 active torsions:
  status: ('A' for Active; 'I' for Inactive)
    1  A    between atoms: O_2  and  C_11
    2  A    between atoms: C_4  and  C_25
    3  A    between atoms: C_5  and  C_25
    4  A    between atoms: C_6  and  N_31
    5  A    between atoms: N_7  and  C_20
    6  A    between atoms: C_14  and  C_25
    7  A    between atoms: C_16  and  C_21
    8  A    between atoms: C_18  and  C_21
    9  A    between atoms: C_18  and  C_22
                            x       y       z     vdW  Elec       q    Type
                         _______ _______ _______ _____ _____    ______ ____

>  <TORSDO>
F 9

$$$$
=
 OpenBabel11052411183D

 31 34  0  0  1  0  0  0  0  0999 V2000
  160.6910  208.5300  154.2540 C   0  0  1  0  0  3  0  0  0  0  0  0
  161.6260  209.0530  153.3800 C   0  0  1  0  0  3  0  0  0  0  0  0
  161.1760  207.6460  153.1520 N   0  0  0  0  0  0  0  0  0  0  0  0
  161.1870  206.4120  152.4380 C   0  0  0  0  0  0  0  0  0  0  0  0
  161.2060  205.0640  153.0590 C   0  0  0  0  0  2  0  0  0  0  0  0
  161.2200  204.2340  151.8080 C   0  0  0  0  0  0  0  0  0  0  0  0
  161.1930  206.2930  151.1240 C   0  0  0  0  0  0  0  0  0  0  0  0
  161.2140  204.9340  150.7190 N   0  0  0  0  0  0  0  0  0  0  0  0
  161.2400  202.8400  151.7800 O   0  0  0  0  0  0  0  0  0  0  0  0
  160.8350  202.1100  150.6340 C   0  0  0  0  0  1  0  0  0  0  0  0
  161.2060  207.3890  150.2120 N   0  0  0  0  0  2  0  0  0  0  0  0
  162.1880  207.5040  149.2890 O   0  0  0  0  0  1  0  0  0  0  0  0
  161.9510  210.4030  151.3190 C   0  0  0  0  0  1  0  0  0  0  0  0
  160.9500  209.9780  152.3740 C   0  0  2  0  0  3  0  0  0  0  0  0
  160.4230  211.2250  153.0710 C   0  0  0  0  0  2  0  0  0  0  0  0
  158.1210  213.7060  152.4550 N   0  0  0  0  0  2  0  0  0  0  0  0
  156.6710  212.6640  156.5270 C   0  0  0  0  0  3  0  0  0  0  0  0
  157.8770  213.3160  153.7890 C   0  0  0  0  0  0  0  0  0  0  0  0
  157.5130  214.1860  154.7300 C   0  0  0  0  0  3  0  0  0  0  0  0
  157.7520  211.0880  154.9040 C   0  0  0  0  0  3  0  0  0  0  0  0
  156.8250  211.4500  155.9950 C   0  0  0  0  0  3  0  0  0  0  0  0
  158.9440  211.4490  152.7620 C   0  0  2  0  0  3  0  0  0  0  0  0
  159.8560  212.9820  151.0800 F   0  0  0  0  0  0  0  0  0  0  0  0
  158.6990  212.5820  151.7290 C   0  0  2  0  0  3  0  0  0  0  0  0
  157.5160  213.8490  156.1850 C   0  0  0  0  0  2  0  0  0  0  0  0
  158.2470  211.9260  153.9870 C   0  0  0  0  0  0  0  0  0  0  0  0
  161.3530  208.1260  155.5670 C   0  0  2  0  0  3  0  0  0  0  0  0
  160.4170  207.3270  156.4170 C   0  0  0  0  0  3  0  0  0  0  0  0
  159.3310  206.9770  155.9850 O   0  0  0  0  0  0  0  0  0  0  0  0
  160.7840  210.2250  156.6100 O   0  0  0  0  0  1  0  0  0  0  0  0
  161.8400  209.3530  156.3340 C   0  0  0  0  0  2  0  0  0  0  0  0
  1 27  1  1  0  0  0
  2 14  1  6  0  0  0
  2  1  1  0  0  0  0
  3  2  1  0  0  0  0
  3  1  1  0  0  0  0
  4  5  1  0  0  0  0
  4  3  1  0  0  0  0
  6  5  1  0  0  0  0
  7  4  2  0  0  0  0
  8  7  1  0  0  0  0
  8  6  2  0  0  0  0
  9  6  1  0  0  0  0
 10  9  1  0  0  0  0
 11  7  1  0  0  0  0
 12 11  1  0  0  0  0
 14 13  1  6  0  0  0
 14 15  1  0  0  0  0
 16 18  1  0  0  0  0
 18 26  1  0  0  0  0
 18 19  2  0  0  0  0
 19 25  1  0  0  0  0
 20 21  1  0  0  0  0
 21 17  2  0  0  0  0
 22 15  1  1  0  0  0
 22 26  1  0  0  0  0
 24 23  1  1  0  0  0
 24 16  1  0  0  0  0
 24 22  1  0  0  0  0
 25 17  1  0  0  0  0
 26 20  2  0  0  0  0
 27 31  1  1  0  0  0
 27 28  1  0  0  0  0
 29 28  2  0  0  0  0
 31 30  1  0  0  0  0
M  END
>  <MODEL>
9

>  <REMARK>
 VINA RESULT:      -6.8      3.178      8.552
  Name = 
  9 active torsions:
  status: ('A' for Active; 'I' for Inactive)
    1  A    between atoms: O_2  and  C_11
    2  A    between atoms: C_4  and  C_25
    3  A    between atoms: C_5  and  C_25
    4  A    between atoms: C_6  and  N_31
    5  A    between atoms: N_7  and  C_20
    6  A    between atoms: C_14  and  C_25
    7  A    between atoms: C_16  and  C_21
    8  A    between atoms: C_18  and  C_21
    9  A    between atoms: C_18  and  C_22
                            x       y       z     vdW  Elec       q    Type
                         _______ _______ _______ _____ _____    ______ ____

>  <TORSDO>
F 9

$$$$
