=
 OpenBabel11042420443D

 27 29  0  0  1  0  0  0  0  0999 V2000
  160.5350  203.8470  152.2090 O   0  0  0  0  0  0  0  0  0  0  0  0
  161.1450  204.5420  151.3500 C   0  0  0  0  0  0  0  0  0  0  0  0
  161.8020  205.7480  151.7510 N   0  0  0  0  0  2  0  0  0  0  0  0
  161.1390  202.7270  149.6310 C   0  0  0  0  0  3  0  0  0  0  0  0
  161.2990  206.8510  147.6930 C   0  0  0  0  0  3  0  0  0  0  0  0
  161.1610  202.2780  148.2970 C   0  0  0  0  0  0  0  0  0  0  0  0
  161.2500  204.5670  147.5610 C   0  0  0  0  0  0  0  0  0  0  0  0
  161.3050  205.7500  146.6630 C   0  0  2  0  0  3  0  0  0  0  0  0
  161.2260  205.0000  148.8590 C   0  0  0  0  0  0  0  0  0  0  0  0
  161.2350  202.7920  145.9150 O   0  0  0  0  0  1  0  0  0  0  0  0
  161.2570  206.4160  148.9160 N   0  0  0  0  0  0  0  0  0  0  0  0
  161.1700  204.1030  149.9380 C   0  0  0  0  0  0  0  0  0  0  0  0
  161.2160  203.2080  147.2420 C   0  0  0  0  0  0  0  0  0  0  0  0
  161.1250  200.8150  148.0220 C   0  0  0  0  0  1  0  0  0  0  0  0
  162.5190  205.7640  145.9760 O   0  0  0  0  0  1  0  0  0  0  0  0
  161.8440  206.2030  153.1330 C   0  0  0  0  0  2  0  0  0  0  0  0
  161.4750  208.6010  153.5710 C   0  0  2  0  0  3  0  0  0  0  0  0
  160.8410  208.2780  152.2360 C   0  0  0  0  0  2  0  0  0  0  0  0
  160.7880  207.2660  153.3630 C   0  0  1  0  0  3  0  0  0  0  0  0
  162.3310  210.8100  155.1350 O   0  0  0  0  0  0  0  0  0  0  0  0
  160.5950  209.4790  154.3230 N   0  0  0  0  0  2  0  0  0  0  0  0
  161.0930  210.5750  155.0930 C   0  0  0  0  0  0  0  0  0  0  0  0
  157.8120  211.9570  156.5010 C   0  0  0  0  0  3  0  0  0  0  0  0
  158.7580  211.1590  155.7960 N   0  0  0  0  0  2  0  0  0  0  0  0
  160.1610  211.4290  155.8380 C   0  0  0  0  0  0  0  0  0  0  0  0
  156.5870  211.6850  156.4360 O   0  0  0  0  0  0  0  0  0  0  0  0
  160.6020  212.3980  156.5140 O   0  0  0  0  0  0  0  0  0  0  0  0
  2  3  1  0  0  0  0
  2  1  2  0  0  0  0
  3 16  1  0  0  0  0
  4 12  1  0  0  0  0
  5 11  2  0  0  0  0
  6  4  2  0  0  0  0
  7  9  1  0  0  0  0
  8 15  1  1  0  0  0
  8  7  1  0  0  0  0
  8  5  1  0  0  0  0
  9 11  1  0  0  0  0
  9 12  2  0  0  0  0
 10 13  1  0  0  0  0
 12  2  1  0  0  0  0
 13  7  2  0  0  0  0
 13  6  1  0  0  0  0
 14  6  1  0  0  0  0
 17 21  1  1  0  0  0
 18 19  1  0  0  0  0
 18 17  1  0  0  0  0
 19 16  1  6  0  0  0
 19 17  1  0  0  0  0
 21 22  1  0  0  0  0
 22 20  2  0  0  0  0
 22 25  1  0  0  0  0
 24 25  1  0  0  0  0
 24 23  1  0  0  0  0
 25 27  2  0  0  0  0
 26 23  2  0  0  0  0
M  END
>  <MODEL>
1

>  <REMARK>
 VINA RESULT:      -8.7      0.000      0.000
  Name = 
  5 active torsions:
  status: ('A' for Active; 'I' for Inactive)
    1  A    between atoms: C_1  and  N_11
    2  A    between atoms: C_10  and  C_21
    3  A    between atoms: C_15  and  C_16
    4  A    between atoms: C_18  and  N_22
    5  A    between atoms: C_18  and  C_26
                            x       y       z     vdW  Elec       q    Type
                         _______ _______ _______ _____ _____    ______ ____

>  <TORSDO>
F 5

$$$$
=
 OpenBabel11042420443D

 27 29  0  0  1  0  0  0  0  0999 V2000
  161.3830  204.9840  152.6560 O   0  0  0  0  0  0  0  0  0  0  0  0
  161.1610  205.5510  151.5510 C   0  0  0  0  0  0  0  0  0  0  0  0
  160.9070  206.9590  151.5150 N   0  0  0  0  0  2  0  0  0  0  0  0
  160.8360  203.3820  150.3510 C   0  0  0  0  0  3  0  0  0  0  0  0
  162.0250  206.7110  147.4730 C   0  0  0  0  0  3  0  0  0  0  0  0
  160.8260  202.5960  149.1830 C   0  0  0  0  0  0  0  0  0  0  0  0
  161.4690  204.5350  147.9120 C   0  0  0  0  0  0  0  0  0  0  0  0
  161.8370  205.3970  146.7580 C   0  0  2  0  0  3  0  0  0  0  0  0
  161.4750  205.2970  149.0490 C   0  0  0  0  0  0  0  0  0  0  0  0
  161.1410  202.4260  146.7710 O   0  0  0  0  0  1  0  0  0  0  0  0
  161.8210  206.6390  148.7530 N   0  0  0  0  0  0  0  0  0  0  0  0
  161.1610  204.7530  150.3050 C   0  0  0  0  0  0  0  0  0  0  0  0
  161.1460  203.1780  147.9410 C   0  0  0  0  0  0  0  0  0  0  0  0
  160.4750  201.1530  149.2810 C   0  0  0  0  0  1  0  0  0  0  0  0
  163.0570  204.9780  146.2280 O   0  0  0  0  0  1  0  0  0  0  0  0
  160.9370  207.7970  152.7050 C   0  0  0  0  0  2  0  0  0  0  0  0
  160.4150  210.0400  153.5860 C   0  0  2  0  0  3  0  0  0  0  0  0
  161.7780  210.1120  152.9350 C   0  0  0  0  0  2  0  0  0  0  0  0
  160.6950  209.2450  152.3260 C   0  0  1  0  0  3  0  0  0  0  0  0
  158.4080  211.2130  155.2150 O   0  0  0  0  0  0  0  0  0  0  0  0
  159.6520  211.2280  153.2410 N   0  0  0  0  0  2  0  0  0  0  0  0
  158.6530  211.7670  154.1090 C   0  0  0  0  0  0  0  0  0  0  0  0
  155.7140  214.1260  153.4390 C   0  0  0  0  0  3  0  0  0  0  0  0
  156.4830  212.9870  153.8120 N   0  0  0  0  0  2  0  0  0  0  0  0
  157.9090  212.9670  153.7110 C   0  0  0  0  0  0  0  0  0  0  0  0
  154.4610  214.1010  153.5430 O   0  0  0  0  0  0  0  0  0  0  0  0
  158.5300  213.9770  153.2820 O   0  0  0  0  0  0  0  0  0  0  0  0
  2  1  2  0  0  0  0
  3  2  1  0  0  0  0
  3 16  1  0  0  0  0
  5 11  2  0  0  0  0
  6 14  1  0  0  0  0
  6  4  2  0  0  0  0
  7 13  2  0  0  0  0
  7  9  1  0  0  0  0
  8 15  1  1  0  0  0
  8  5  1  0  0  0  0
  8  7  1  0  0  0  0
  9 12  2  0  0  0  0
 10 13  1  0  0  0  0
 11  9  1  0  0  0  0
 12  4  1  0  0  0  0
 12  2  1  0  0  0  0
 13  6  1  0  0  0  0
 17 21  1  6  0  0  0
 18 17  1  0  0  0  0
 19 16  1  1  0  0  0
 19 18  1  0  0  0  0
 19 17  1  0  0  0  0
 21 22  1  0  0  0  0
 22 20  2  0  0  0  0
 23 26  2  0  0  0  0
 23 24  1  0  0  0  0
 25 24  1  0  0  0  0
 25 22  1  0  0  0  0
 27 25  2  0  0  0  0
M  END
>  <MODEL>
2

>  <REMARK>
 VINA RESULT:      -8.4      2.036      2.267
  Name = 
  5 active torsions:
  status: ('A' for Active; 'I' for Inactive)
    1  A    between atoms: C_1  and  N_11
    2  A    between atoms: C_10  and  C_21
    3  A    between atoms: C_15  and  C_16
    4  A    between atoms: C_18  and  N_22
    5  A    between atoms: C_18  and  C_26
                            x       y       z     vdW  Elec       q    Type
                         _______ _______ _______ _____ _____    ______ ____

>  <TORSDO>
F 5

$$$$
=
 OpenBabel11042420443D

 27 29  0  0  1  0  0  0  0  0999 V2000
  162.6460  205.9210  152.3540 O   0  0  0  0  0  0  0  0  0  0  0  0
  161.6420  206.0510  151.6030 C   0  0  0  0  0  0  0  0  0  0  0  0
  160.7010  207.1010  151.8510 N   0  0  0  0  0  2  0  0  0  0  0  0
  161.0900  203.7730  150.7320 C   0  0  0  0  0  3  0  0  0  0  0  0
  161.9600  206.6860  147.3340 C   0  0  0  0  0  3  0  0  0  0  0  0
  160.8940  202.8580  149.6800 C   0  0  0  0  0  0  0  0  0  0  0  0
  161.4080  204.6030  148.1060 C   0  0  0  0  0  0  0  0  0  0  0  0
  161.6350  205.3070  146.8170 C   0  0  2  0  0  3  0  0  0  0  0  0
  161.5950  205.4920  149.1310 C   0  0  0  0  0  0  0  0  0  0  0  0
  160.8620  202.3930  147.2870 O   0  0  0  0  0  1  0  0  0  0  0  0
  161.9350  206.7730  148.6290 N   0  0  0  0  0  0  0  0  0  0  0  0
  161.4450  205.1130  150.4750 C   0  0  0  0  0  0  0  0  0  0  0  0
  161.0530  203.2750  148.3450 C   0  0  0  0  0  0  0  0  0  0  0  0
  160.5190  201.4530  150.0010 C   0  0  0  0  0  1  0  0  0  0  0  0
  162.7570  204.7740  146.1810 O   0  0  0  0  0  1  0  0  0  0  0  0
  160.8700  208.0760  152.9180 C   0  0  0  0  0  2  0  0  0  0  0  0
  160.1650  210.4070  153.3000 C   0  0  2  0  0  3  0  0  0  0  0  0
  161.6770  210.3880  153.2600 C   0  0  0  0  0  2  0  0  0  0  0  0
  160.8860  209.4780  152.3430 C   0  0  1  0  0  3  0  0  0  0  0  0
  157.7930  211.8410  153.9140 O   0  0  0  0  0  0  0  0  0  0  0  0
  159.6780  211.5630  152.5660 N   0  0  0  0  0  2  0  0  0  0  0  0
  158.4730  212.2400  152.9290 C   0  0  0  0  0  0  0  0  0  0  0  0
  157.6180  214.4520  149.9240 C   0  0  0  0  0  3  0  0  0  0  0  0
  158.0440  213.3530  150.7240 N   0  0  0  0  0  2  0  0  0  0  0  0
  158.0230  213.4000  152.1530 C   0  0  0  0  0  0  0  0  0  0  0  0
  157.6530  214.3690  148.6700 O   0  0  0  0  0  0  0  0  0  0  0  0
  157.6180  214.4350  152.7490 O   0  0  0  0  0  0  0  0  0  0  0  0
  2  3  1  0  0  0  0
  2  1  2  0  0  0  0
  3 16  1  0  0  0  0
  5 11  2  0  0  0  0
  6 14  1  0  0  0  0
  6  4  2  0  0  0  0
  7 13  2  0  0  0  0
  7  9  1  0  0  0  0
  8 15  1  1  0  0  0
  8  5  1  0  0  0  0
  8  7  1  0  0  0  0
  9 12  2  0  0  0  0
 10 13  1  0  0  0  0
 11  9  1  0  0  0  0
 12  4  1  0  0  0  0
 12  2  1  0  0  0  0
 13  6  1  0  0  0  0
 17 21  1  6  0  0  0
 18 17  1  0  0  0  0
 19 16  1  1  0  0  0
 19 18  1  0  0  0  0
 19 17  1  0  0  0  0
 21 22  1  0  0  0  0
 22 20  2  0  0  0  0
 23 24  1  0  0  0  0
 24 25  1  0  0  0  0
 25 27  2  0  0  0  0
 25 22  1  0  0  0  0
 26 23  2  0  0  0  0
M  END
>  <MODEL>
3

>  <REMARK>
 VINA RESULT:      -8.2      3.073      3.322
  Name = 
  5 active torsions:
  status: ('A' for Active; 'I' for Inactive)
    1  A    between atoms: C_1  and  N_11
    2  A    between atoms: C_10  and  C_21
    3  A    between atoms: C_15  and  C_16
    4  A    between atoms: C_18  and  N_22
    5  A    between atoms: C_18  and  C_26
                            x       y       z     vdW  Elec       q    Type
                         _______ _______ _______ _____ _____    ______ ____

>  <TORSDO>
F 5

$$$$
=
 OpenBabel11042420443D

 27 29  0  0  1  0  0  0  0  0999 V2000
  162.5480  205.8290  151.8010 O   0  0  0  0  0  0  0  0  0  0  0  0
  161.5900  205.7060  152.6110 C   0  0  0  0  0  0  0  0  0  0  0  0
  160.8880  204.4620  152.6960 N   0  0  0  0  0  2  0  0  0  0  0  0
  160.8400  206.6320  154.8090 C   0  0  0  0  0  3  0  0  0  0  0  0
  161.3360  209.9290  151.7000 C   0  0  0  0  0  3  0  0  0  0  0  0
  160.4660  207.7000  155.6460 C   0  0  0  0  0  0  0  0  0  0  0  0
  160.8030  209.2160  153.8090 C   0  0  0  0  0  0  0  0  0  0  0  0
  160.8750  210.4780  153.0270 C   0  0  2  0  0  3  0  0  0  0  0  0
  161.1690  208.1750  152.9980 C   0  0  0  0  0  0  0  0  0  0  0  0
  160.0850  210.0890  155.9480 O   0  0  0  0  0  1  0  0  0  0  0  0
  161.4940  208.6400  151.7000 N   0  0  0  0  0  0  0  0  0  0  0  0
  161.2010  206.8510  153.4640 C   0  0  0  0  0  0  0  0  0  0  0  0
  160.4480  209.0150  155.1430 C   0  0  0  0  0  0  0  0  0  0  0  0
  160.0950  207.4200  157.0600 C   0  0  0  0  0  1  0  0  0  0  0  0
  159.5960  211.0180  152.8860 O   0  0  0  0  0  1  0  0  0  0  0  0
  161.2580  203.2920  151.9120 C   0  0  0  0  0  2  0  0  0  0  0  0
  161.4570  202.5690  149.5630 C   0  0  2  0  0  3  0  0  0  0  0  0
  160.1850  201.9690  150.1200 C   0  0  0  0  0  2  0  0  0  0  0  0
  160.6110  203.3600  150.5420 C   0  0  1  0  0  3  0  0  0  0  0  0
  161.1840  200.9290  147.2620 O   0  0  0  0  0  0  0  0  0  0  0  0
  161.2110  203.0580  148.2180 N   0  0  0  0  0  2  0  0  0  0  0  0
  161.0850  202.1760  147.1000 C   0  0  0  0  0  0  0  0  0  0  0  0
  161.0160  204.6400  144.1710 C   0  0  0  0  0  3  0  0  0  0  0  0
  161.2300  204.0630  145.4560 N   0  0  0  0  0  2  0  0  0  0  0  0
  160.8410  202.7220  145.7610 C   0  0  0  0  0  0  0  0  0  0  0  0
  161.3740  205.8240  143.9460 O   0  0  0  0  0  0  0  0  0  0  0  0
  160.2890  202.0050  144.8820 O   0  0  0  0  0  0  0  0  0  0  0  0
  1  2  2  0  0  0  0
  2  3  1  0  0  0  0
  2 12  1  0  0  0  0
  4  6  1  0  0  0  0
  5 11  2  0  0  0  0
  5  8  1  0  0  0  0
  6 14  1  0  0  0  0
  7 13  1  0  0  0  0
  8 15  1  6  0  0  0
  8  7  1  0  0  0  0
  9 12  1  0  0  0  0
  9  7  2  0  0  0  0
 11  9  1  0  0  0  0
 12  4  2  0  0  0  0
 13  6  2  0  0  0  0
 13 10  1  0  0  0  0
 16  3  1  0  0  0  0
 17 21  1  6  0  0  0
 17 18  1  0  0  0  0
 17 19  1  0  0  0  0
 18 19  1  0  0  0  0
 19 16  1  1  0  0  0
 22 20  2  0  0  0  0
 22 21  1  0  0  0  0
 23 24  1  0  0  0  0
 24 25  1  0  0  0  0
 25 22  1  0  0  0  0
 26 23  2  0  0  0  0
 27 25  2  0  0  0  0
M  END
>  <MODEL>
4

>  <REMARK>
 VINA RESULT:      -8.1      2.521      9.291
  Name = 
  5 active torsions:
  status: ('A' for Active; 'I' for Inactive)
    1  A    between atoms: C_1  and  N_11
    2  A    between atoms: C_10  and  C_21
    3  A    between atoms: C_15  and  C_16
    4  A    between atoms: C_18  and  N_22
    5  A    between atoms: C_18  and  C_26
                            x       y       z     vdW  Elec       q    Type
                         _______ _______ _______ _____ _____    ______ ____

>  <TORSDO>
F 5

$$$$
=
 OpenBabel11042420443D

 27 29  0  0  1  0  0  0  0  0999 V2000
  161.9430  209.1020  151.7040 O   0  0  0  0  0  0  0  0  0  0  0  0
  161.8240  208.6720  150.5240 C   0  0  0  0  0  0  0  0  0  0  0  0
  161.9530  209.5770  149.4230 N   0  0  0  0  0  2  0  0  0  0  0  0
  161.3520  206.3750  151.3890 C   0  0  0  0  0  3  0  0  0  0  0  0
  161.4700  206.4420  146.8320 C   0  0  0  0  0  3  0  0  0  0  0  0
  161.0870  205.0050  151.2010 C   0  0  0  0  0  0  0  0  0  0  0  0
  161.2170  205.3400  148.8210 C   0  0  0  0  0  0  0  0  0  0  0  0
  161.1950  205.0580  147.3630 C   0  0  2  0  0  3  0  0  0  0  0  0
  161.4720  206.6720  149.0080 C   0  0  0  0  0  0  0  0  0  0  0  0
  160.7530  203.1260  149.6830 O   0  0  0  0  0  1  0  0  0  0  0  0
  161.6240  207.3330  147.7640 N   0  0  0  0  0  0  0  0  0  0  0  0
  161.5490  207.2370  150.2910 C   0  0  0  0  0  0  0  0  0  0  0  0
  161.0160  204.4750  149.8980 C   0  0  0  0  0  0  0  0  0  0  0  0
  160.8840  204.1340  152.3910 C   0  0  0  0  0  1  0  0  0  0  0  0
  162.2560  204.2140  147.0300 O   0  0  0  0  0  1  0  0  0  0  0  0
  162.2660  210.9890  149.5940 C   0  0  0  0  0  2  0  0  0  0  0  0
  160.9590  212.2110  147.8980 C   0  0  2  0  0  3  0  0  0  0  0  0
  162.0300  213.1480  148.4110 C   0  0  0  0  0  2  0  0  0  0  0  0
  162.3330  211.6730  148.2420 C   0  0  1  0  0  3  0  0  0  0  0  0
  158.5370  212.6720  146.4900 O   0  0  0  0  0  0  0  0  0  0  0  0
  160.8480  212.3490  146.4560 N   0  0  0  0  0  2  0  0  0  0  0  0
  159.5940  212.5790  145.8100 C   0  0  0  0  0  0  0  0  0  0  0  0
  160.2890  211.9130  142.1040 C   0  0  0  0  0  3  0  0  0  0  0  0
  160.3100  211.8310  143.5270 N   0  0  0  0  0  2  0  0  0  0  0  0
  159.5360  212.7070  144.3490 C   0  0  0  0  0  0  0  0  0  0  0  0
  160.9860  211.1220  141.4180 O   0  0  0  0  0  0  0  0  0  0  0  0
  158.8030  213.5890  143.8250 O   0  0  0  0  0  0  0  0  0  0  0  0
  2  1  2  0  0  0  0
  3 16  1  0  0  0  0
  3  2  1  0  0  0  0
  5  8  1  0  0  0  0
  5 11  2  0  0  0  0
  6  4  1  0  0  0  0
  6 14  1  0  0  0  0
  7  9  2  0  0  0  0
  7 13  1  0  0  0  0
  8 15  1  1  0  0  0
  8  7  1  0  0  0  0
  9 12  1  0  0  0  0
 10 13  1  0  0  0  0
 11  9  1  0  0  0  0
 12  2  1  0  0  0  0
 12  4  2  0  0  0  0
 13  6  2  0  0  0  0
 17 21  1  6  0  0  0
 17 19  1  0  0  0  0
 17 18  1  0  0  0  0
 19 18  1  0  0  0  0
 19 16  1  1  0  0  0
 22 21  1  0  0  0  0
 22 20  2  0  0  0  0
 23 24  1  0  0  0  0
 24 25  1  0  0  0  0
 25 22  1  0  0  0  0
 26 23  2  0  0  0  0
 27 25  2  0  0  0  0
M  END
>  <MODEL>
5

>  <REMARK>
 VINA RESULT:      -7.8      4.742      7.485
  Name = 
  5 active torsions:
  status: ('A' for Active; 'I' for Inactive)
    1  A    between atoms: C_1  and  N_11
    2  A    between atoms: C_10  and  C_21
    3  A    between atoms: C_15  and  C_16
    4  A    between atoms: C_18  and  N_22
    5  A    between atoms: C_18  and  C_26
                            x       y       z     vdW  Elec       q    Type
                         _______ _______ _______ _____ _____    ______ ____

>  <TORSDO>
F 5

$$$$
=
 OpenBabel11042420443D

 27 29  0  0  1  0  0  0  0  0999 V2000
  160.9520  204.8340  152.1910 O   0  0  0  0  0  0  0  0  0  0  0  0
  161.0830  205.5560  151.1650 C   0  0  0  0  0  0  0  0  0  0  0  0
  161.1270  206.9790  151.3010 N   0  0  0  0  0  2  0  0  0  0  0  0
  161.3800  205.7240  148.6890 C   0  0  0  0  0  3  0  0  0  0  0  0
  160.8980  201.3880  150.0130 C   0  0  0  0  0  3  0  0  0  0  0  0
  161.4840  205.1510  147.4070 C   0  0  0  0  0  0  0  0  0  0  0  0
  161.1960  202.9740  148.3910 C   0  0  0  0  0  0  0  0  0  0  0  0
  161.0690  201.4990  148.5190 C   0  0  2  0  0  3  0  0  0  0  0  0
  161.0980  203.5340  149.6360 C   0  0  0  0  0  0  0  0  0  0  0  0
  161.4950  203.1620  145.9970 O   0  0  0  0  0  1  0  0  0  0  0  0
  160.9150  202.5350  150.6230 N   0  0  0  0  0  0  0  0  0  0  0  0
  161.1860  204.9220  149.8320 C   0  0  0  0  0  0  0  0  0  0  0  0
  161.3930  203.7540  147.2510 C   0  0  0  0  0  0  0  0  0  0  0  0
  161.6910  206.0380  146.2290 C   0  0  0  0  0  1  0  0  0  0  0  0
  159.9020  201.0700  147.8860 O   0  0  0  0  0  1  0  0  0  0  0  0
  161.0740  207.6520  152.5910 C   0  0  0  0  0  2  0  0  0  0  0  0
  160.7240  209.8060  153.7370 C   0  0  2  0  0  3  0  0  0  0  0  0
  161.7490  210.0300  152.6480 C   0  0  0  0  0  2  0  0  0  0  0  0
  160.5940  209.0790  152.4140 C   0  0  1  0  0  3  0  0  0  0  0  0
  160.7580  211.9100  155.6440 O   0  0  0  0  0  0  0  0  0  0  0  0
  159.7950  210.9230  153.7610 N   0  0  0  0  0  2  0  0  0  0  0  0
  159.8670  211.9500  154.7520 C   0  0  0  0  0  0  0  0  0  0  0  0
  156.6740  213.9320  154.0250 C   0  0  0  0  0  3  0  0  0  0  0  0
  157.6460  212.8910  154.0710 N   0  0  0  0  0  2  0  0  0  0  0  0
  158.9010  213.0540  154.7340 C   0  0  0  0  0  0  0  0  0  0  0  0
  155.5810  213.7460  153.4310 O   0  0  0  0  0  0  0  0  0  0  0  0
  159.1830  214.1430  155.3040 O   0  0  0  0  0  0  0  0  0  0  0  0
  2  3  1  0  0  0  0
  2  1  2  0  0  0  0
  3 16  1  0  0  0  0
  4 12  1  0  0  0  0
  5 11  2  0  0  0  0
  6  4  2  0  0  0  0
  7  8  1  0  0  0  0
  7  9  1  0  0  0  0
  8 15  1  6  0  0  0
  8  5  1  0  0  0  0
  9 12  2  0  0  0  0
  9 11  1  0  0  0  0
 10 13  1  0  0  0  0
 12  2  1  0  0  0  0
 13  6  1  0  0  0  0
 13  7  2  0  0  0  0
 14  6  1  0  0  0  0
 17 21  1  6  0  0  0
 18 17  1  0  0  0  0
 19 16  1  1  0  0  0
 19 18  1  0  0  0  0
 19 17  1  0  0  0  0
 21 22  1  0  0  0  0
 22 20  2  0  0  0  0
 23 24  1  0  0  0  0
 24 25  1  0  0  0  0
 25 22  1  0  0  0  0
 25 27  2  0  0  0  0
 26 23  2  0  0  0  0
M  END
>  <MODEL>
6

>  <REMARK>
 VINA RESULT:      -7.7      1.809      2.967
  Name = 
  5 active torsions:
  status: ('A' for Active; 'I' for Inactive)
    1  A    between atoms: C_1  and  N_11
    2  A    between atoms: C_10  and  C_21
    3  A    between atoms: C_15  and  C_16
    4  A    between atoms: C_18  and  N_22
    5  A    between atoms: C_18  and  C_26
                            x       y       z     vdW  Elec       q    Type
                         _______ _______ _______ _____ _____    ______ ____

>  <TORSDO>
F 5

$$$$
=
 OpenBabel11042420443D

 27 29  0  0  1  0  0  0  0  0999 V2000
  161.8820  208.8360  149.7320 O   0  0  0  0  0  0  0  0  0  0  0  0
  161.5810  207.9670  150.5940 C   0  0  0  0  0  0  0  0  0  0  0  0
  161.4310  208.3500  151.9650 N   0  0  0  0  0  2  0  0  0  0  0  0
  161.2200  205.5580  151.1570 C   0  0  0  0  0  3  0  0  0  0  0  0
  161.4190  206.1990  146.6480 C   0  0  0  0  0  3  0  0  0  0  0  0
  161.0340  204.2110  150.7940 C   0  0  0  0  0  0  0  0  0  0  0  0
  161.1890  204.8450  148.4790 C   0  0  0  0  0  0  0  0  0  0  0  0
  161.2100  204.7470  146.9960 C   0  0  2  0  0  3  0  0  0  0  0  0
  161.3670  206.1550  148.8350 C   0  0  0  0  0  0  0  0  0  0  0  0
  160.8310  202.5210  149.0480 O   0  0  0  0  0  1  0  0  0  0  0  0
  161.5070  206.9730  147.6860 N   0  0  0  0  0  0  0  0  0  0  0  0
  161.3890  206.5600  150.1800 C   0  0  0  0  0  0  0  0  0  0  0  0
  161.0160  203.8440  149.4350 C   0  0  0  0  0  0  0  0  0  0  0  0
  160.8570  203.1880  151.8620 C   0  0  0  0  0  1  0  0  0  0  0  0
  162.3210  204.0080  146.5890 O   0  0  0  0  0  1  0  0  0  0  0  0
  161.5650  209.7260  152.4200 C   0  0  0  0  0  2  0  0  0  0  0  0
  160.3840  211.4760  153.6930 C   0  0  2  0  0  3  0  0  0  0  0  0
  160.1040  211.7120  152.2250 C   0  0  0  0  0  2  0  0  0  0  0  0
  160.2020  210.2970  152.7570 C   0  0  1  0  0  3  0  0  0  0  0  0
  160.0810  213.3190  155.8310 O   0  0  0  0  0  0  0  0  0  0  0  0
  159.1620  211.6730  154.4540 N   0  0  0  0  0  2  0  0  0  0  0  0
  159.0780  212.6190  155.5220 C   0  0  0  0  0  0  0  0  0  0  0  0
  155.6120  211.8340  156.9460 C   0  0  0  0  0  3  0  0  0  0  0  0
  156.8470  211.7310  156.2440 N   0  0  0  0  0  2  0  0  0  0  0  0
  157.8210  212.7770  156.2620 C   0  0  0  0  0  0  0  0  0  0  0  0
  154.7830  210.8900  156.9030 O   0  0  0  0  0  0  0  0  0  0  0  0
  157.6050  213.8350  156.9130 O   0  0  0  0  0  0  0  0  0  0  0  0
  1  2  2  0  0  0  0
  2  3  1  0  0  0  0
  3 16  1  0  0  0  0
  5  8  1  0  0  0  0
  5 11  2  0  0  0  0
  6  4  1  0  0  0  0
  6 14  1  0  0  0  0
  7  9  2  0  0  0  0
  7 13  1  0  0  0  0
  8 15  1  1  0  0  0
  8  7  1  0  0  0  0
  9 12  1  0  0  0  0
 10 13  1  0  0  0  0
 11  9  1  0  0  0  0
 12  2  1  0  0  0  0
 12  4  2  0  0  0  0
 13  6  2  0  0  0  0
 17 21  1  1  0  0  0
 18 19  1  0  0  0  0
 18 17  1  0  0  0  0
 19 16  1  6  0  0  0
 19 17  1  0  0  0  0
 21 22  1  0  0  0  0
 22 20  2  0  0  0  0
 22 25  1  0  0  0  0
 24 25  1  0  0  0  0
 24 23  1  0  0  0  0
 25 27  2  0  0  0  0
 26 23  2  0  0  0  0
M  END
>  <MODEL>
7

>  <REMARK>
 VINA RESULT:      -7.7      1.993      2.910
  Name = 
  5 active torsions:
  status: ('A' for Active; 'I' for Inactive)
    1  A    between atoms: C_1  and  N_11
    2  A    between atoms: C_10  and  C_21
    3  A    between atoms: C_15  and  C_16
    4  A    between atoms: C_18  and  N_22
    5  A    between atoms: C_18  and  C_26
                            x       y       z     vdW  Elec       q    Type
                         _______ _______ _______ _____ _____    ______ ____

>  <TORSDO>
F 5

$$$$
=
 OpenBabel11042420443D

 27 29  0  0  1  0  0  0  0  0999 V2000
  160.0120  206.3870  147.7510 O   0  0  0  0  0  0  0  0  0  0  0  0
  161.1530  206.3780  148.2880 C   0  0  0  0  0  0  0  0  0  0  0  0
  162.3230  206.3050  147.4670 N   0  0  0  0  0  2  0  0  0  0  0  0
  161.0920  205.2690  150.5280 C   0  0  0  0  0  3  0  0  0  0  0  0
  162.0140  209.7190  150.9020 C   0  0  0  0  0  3  0  0  0  0  0  0
  161.1990  205.2950  151.9310 C   0  0  0  0  0  0  0  0  0  0  0  0
  161.6560  207.6540  151.8230 C   0  0  0  0  0  0  0  0  0  0  0  0
  161.9660  209.0440  152.2490 C   0  0  2  0  0  3  0  0  0  0  0  0
  161.5540  207.6260  150.4570 C   0  0  0  0  0  0  0  0  0  0  0  0
  161.6000  206.5570  153.9790 O   0  0  0  0  0  1  0  0  0  0  0  0
  161.7800  208.9130  149.9100 N   0  0  0  0  0  0  0  0  0  0  0  0
  161.2700  206.4390  149.7620 C   0  0  0  0  0  0  0  0  0  0  0  0
  161.4860  206.5040  152.5930 C   0  0  0  0  0  0  0  0  0  0  0  0
  161.0040  204.0330  152.6980 C   0  0  0  0  0  1  0  0  0  0  0  0
  160.9000  209.5580  152.9880 O   0  0  0  0  0  1  0  0  0  0  0  0
  162.2660  206.2870  146.0120 C   0  0  0  0  0  2  0  0  0  0  0  0
  161.0010  204.2090  145.6080 C   0  0  2  0  0  3  0  0  0  0  0  0
  161.5050  204.7050  144.2710 C   0  0  0  0  0  2  0  0  0  0  0  0
  162.3660  204.8610  145.5070 C   0  0  1  0  0  3  0  0  0  0  0  0
  160.9060  202.6810  147.9990 O   0  0  0  0  0  0  0  0  0  0  0  0
  161.1650  202.7680  145.6810 N   0  0  0  0  0  2  0  0  0  0  0  0
  161.1060  202.0590  146.9200 C   0  0  0  0  0  0  0  0  0  0  0  0
  161.3740  198.4450  145.6850 C   0  0  0  0  0  3  0  0  0  0  0  0
  161.2100  199.8600  145.7200 N   0  0  0  0  0  2  0  0  0  0  0  0
  161.2820  200.6020  146.9390 C   0  0  0  0  0  0  0  0  0  0  0  0
  161.3030  197.8310  144.5900 O   0  0  0  0  0  0  0  0  0  0  0  0
  161.4960  200.0110  148.0320 O   0  0  0  0  0  0  0  0  0  0  0  0
  1  2  2  0  0  0  0
  2 12  1  0  0  0  0
  3  2  1  0  0  0  0
  4  6  1  0  0  0  0
  5  8  1  0  0  0  0
  6 13  2  0  0  0  0
  6 14  1  0  0  0  0
  7  8  1  0  0  0  0
  7 13  1  0  0  0  0
  8 15  1  1  0  0  0
  9  7  2  0  0  0  0
 11  9  1  0  0  0  0
 11  5  2  0  0  0  0
 12  9  1  0  0  0  0
 12  4  2  0  0  0  0
 13 10  1  0  0  0  0
 16  3  1  0  0  0  0
 17 21  1  6  0  0  0
 18 19  1  0  0  0  0
 18 17  1  0  0  0  0
 19 17  1  0  0  0  0
 19 16  1  1  0  0  0
 21 22  1  0  0  0  0
 22 25  1  0  0  0  0
 22 20  2  0  0  0  0
 23 24  1  0  0  0  0
 24 25  1  0  0  0  0
 25 27  2  0  0  0  0
 26 23  2  0  0  0  0
M  END
>  <MODEL>
8

>  <REMARK>
 VINA RESULT:      -7.7      3.230      9.432
  Name = 
  5 active torsions:
  status: ('A' for Active; 'I' for Inactive)
    1  A    between atoms: C_1  and  N_11
    2  A    between atoms: C_10  and  C_21
    3  A    between atoms: C_15  and  C_16
    4  A    between atoms: C_18  and  N_22
    5  A    between atoms: C_18  and  C_26
                            x       y       z     vdW  Elec       q    Type
                         _______ _______ _______ _____ _____    ______ ____

>  <TORSDO>
F 5

$$$$
=
 OpenBabel11042420443D

 27 29  0  0  1  0  0  0  0  0999 V2000
  162.2430  208.3040  151.6980 O   0  0  0  0  0  0  0  0  0  0  0  0
  161.3820  208.0650  152.5880 C   0  0  0  0  0  0  0  0  0  0  0  0
  161.0050  206.7120  152.8640 N   0  0  0  0  0  2  0  0  0  0  0  0
  160.0100  210.1540  152.6470 C   0  0  0  0  0  3  0  0  0  0  0  0
  161.4700  209.0080  156.8110 C   0  0  0  0  0  3  0  0  0  0  0  0
  159.4130  211.2310  153.3290 C   0  0  0  0  0  0  0  0  0  0  0  0
  160.3270  210.3910  155.3900 C   0  0  0  0  0  0  0  0  0  0  0  0
  160.6500  210.2720  156.8360 C   0  0  2  0  0  3  0  0  0  0  0  0
  160.9040  209.3430  154.7240 C   0  0  0  0  0  0  0  0  0  0  0  0
  158.9890  212.4070  155.4230 O   0  0  0  0  0  1  0  0  0  0  0  0
  161.6050  208.5010  155.6230 N   0  0  0  0  0  0  0  0  0  0  0  0
  160.7690  209.1850  153.3350 C   0  0  0  0  0  0  0  0  0  0  0  0
  159.5700  211.3540  154.7230 C   0  0  0  0  0  0  0  0  0  0  0  0
  158.6200  212.2280  152.5600 C   0  0  0  0  0  1  0  0  0  0  0  0
  161.4560  211.3410  157.2280 O   0  0  0  0  0  1  0  0  0  0  0  0
  161.6070  205.5710  152.1900 C   0  0  0  0  0  2  0  0  0  0  0  0
  161.5360  204.1170  150.2010 C   0  0  2  0  0  3  0  0  0  0  0  0
  160.1690  204.0740  150.8460 C   0  0  0  0  0  2  0  0  0  0  0  0
  160.9590  205.3670  150.8350 C   0  0  1  0  0  3  0  0  0  0  0  0
  161.3750  201.8880  148.4500 O   0  0  0  0  0  0  0  0  0  0  0  0
  161.3860  204.2010  148.7580 N   0  0  0  0  0  2  0  0  0  0  0  0
  161.3120  203.0370  147.9330 C   0  0  0  0  0  0  0  0  0  0  0  0
  161.1770  204.6510  144.4650 C   0  0  0  0  0  3  0  0  0  0  0  0
  161.3100  204.4610  145.8700 N   0  0  0  0  0  2  0  0  0  0  0  0
  161.1640  203.1770  146.4800 C   0  0  0  0  0  0  0  0  0  0  0  0
  161.3130  205.7980  143.9690 O   0  0  0  0  0  0  0  0  0  0  0  0
  160.9090  202.1630  145.7750 O   0  0  0  0  0  0  0  0  0  0  0  0
  1  2  2  0  0  0  0
  2  3  1  0  0  0  0
  2 12  1  0  0  0  0
  4  6  2  0  0  0  0
  4 12  1  0  0  0  0
  5  8  1  0  0  0  0
  6 13  1  0  0  0  0
  7  8  1  0  0  0  0
  8 15  1  6  0  0  0
  9  7  1  0  0  0  0
  9 11  1  0  0  0  0
 11  5  2  0  0  0  0
 12  9  2  0  0  0  0
 13  7  2  0  0  0  0
 13 10  1  0  0  0  0
 14  6  1  0  0  0  0
 16  3  1  0  0  0  0
 17 21  1  6  0  0  0
 17 19  1  0  0  0  0
 17 18  1  0  0  0  0
 19 18  1  0  0  0  0
 19 16  1  1  0  0  0
 22 20  2  0  0  0  0
 22 21  1  0  0  0  0
 23 24  1  0  0  0  0
 24 25  1  0  0  0  0
 25 22  1  0  0  0  0
 26 23  2  0  0  0  0
 27 25  2  0  0  0  0
M  END
>  <MODEL>
9

>  <REMARK>
 VINA RESULT:      -7.5      2.042      9.805
  Name = 
  5 active torsions:
  status: ('A' for Active; 'I' for Inactive)
    1  A    between atoms: C_1  and  N_11
    2  A    between atoms: C_10  and  C_21
    3  A    between atoms: C_15  and  C_16
    4  A    between atoms: C_18  and  N_22
    5  A    between atoms: C_18  and  C_26
                            x       y       z     vdW  Elec       q    Type
                         _______ _______ _______ _____ _____    ______ ____

>  <TORSDO>
F 5

$$$$
