=
 OpenBabel11042420123D

 30 32  0  0  1  0  0  0  0  0999 V2000
  162.1730  210.4880  149.1800 C   0  0  0  0  0  0  0  0  0  0  0  0
  161.2030  206.1760  150.2480 C   0  0  0  0  0  0  0  0  0  0  0  0
  160.7840  204.7390  150.3230 C   0  0  2  0  0  3  0  0  0  0  0  0
  161.2110  207.0490  149.0450 C   0  0  0  0  0  3  0  0  0  0  0  0
  161.7000  209.4180  148.2400 C   0  0  0  0  0  2  0  0  0  0  0  0
  161.9520  207.9790  151.6560 O   0  0  0  0  0  0  0  0  0  0  0  0
  160.9450  204.5140  151.7990 C   0  0  0  0  0  0  0  0  0  0  0  0
  161.9720  208.8140  150.5330 C   0  0  0  0  0  0  0  0  0  0  0  0
  160.6410  203.4480  152.3950 O   0  0  0  0  0  0  0  0  0  0  0  0
  161.5520  206.6460  151.4520 C   0  0  0  0  0  0  0  0  0  0  0  0
  162.3980  211.7060  148.8170 N   0  0  0  0  0  2  0  0  0  0  0  0
  161.4470  205.6660  152.4660 N   0  0  0  0  0  0  0  0  0  0  0  0
  161.5920  208.3170  149.2240 C   0  0  0  0  0  0  0  0  0  0  0  0
  162.3080  210.0570  150.5360 N   0  0  0  0  0  0  0  0  0  0  0  0
  161.7640  203.8760  149.5430 C   0  0  0  0  0  2  0  0  0  0  0  0
  162.7300  204.3840  146.9310 O   0  0  0  0  0  0  0  0  0  0  0  0
  161.1390  203.4000  148.3190 N   0  0  0  0  0  2  0  0  0  0  0  0
  161.6940  203.6710  147.0320 C   0  0  0  0  0  0  0  0  0  0  0  0
  160.5370  203.9090  144.8760 C   0  0  0  0  0  3  0  0  0  0  0  0
  161.0050  203.2030  145.8660 N   0  0  0  0  0  0  0  0  0  0  0  0
  161.5830  205.7280  143.8020 O   0  0  0  0  0  0  0  0  0  0  0  0
  160.1340  206.3000  145.4740 O   0  0  0  0  0  1  0  0  0  0  0  0
  160.7530  205.3510  144.6690 C   0  0  0  0  0  0  0  0  0  0  0  0
  161.4510  205.9040  153.9040 C   0  0  0  0  0  2  0  0  0  0  0  0
  160.3580  206.8910  154.2980 C   0  0  0  0  0  2  0  0  0  0  0  0
  160.6100  207.4670  155.6550 C   0  0  0  0  0  0  0  0  0  0  0  0
  160.1170  206.8940  156.6630 O   0  0  0  0  0  0  0  0  0  0  0  0
  162.2100  208.8360  157.0170 N   0  0  0  0  0  1  0  0  0  0  0  0
  161.4410  208.6680  155.8300 C   0  0  0  0  0  0  0  0  0  0  0  0
  161.4810  209.5790  154.9140 N   0  0  0  0  0  2  0  0  0  0  0  0
  1 14  1  0  0  0  0
  2  3  1  0  0  0  0
  2 10  2  0  0  0  0
  3 15  1  6  0  0  0
  3  7  1  0  0  0  0
  4 13  2  0  0  0  0
  4  2  1  0  0  0  0
  5  1  1  0  0  0  0
  5 13  1  0  0  0  0
  7  9  2  0  0  0  0
  7 12  1  0  0  0  0
  8 14  2  0  0  0  0
  8  6  1  0  0  0  0
 10  6  1  0  0  0  0
 10 12  1  0  0  0  0
 11  1  2  0  0  0  0
 12 24  1  0  0  0  0
 13  8  1  0  0  0  0
 16 18  2  0  0  0  0
 17 15  1  0  0  0  0
 18 17  1  0  0  0  0
 19 20  2  0  0  0  0
 20 18  1  0  0  0  0
 21 23  2  0  0  0  0
 23 19  1  0  0  0  0
 23 22  1  0  0  0  0
 24 25  1  0  0  0  0
 25 26  1  0  0  0  0
 26 29  1  0  0  0  0
 26 27  2  0  0  0  0
 29 28  1  0  0  0  0
 30 29  2  0  0  0  0
M  END
>  <MODEL>
1

>  <REMARK>
 VINA RESULT:      -7.7      0.000      0.000
  Name = 
  8 active torsions:
  status: ('A' for Active; 'I' for Inactive)
    1  A    between atoms: C_3  and  C_11
    2  A    between atoms: C_8  and  C_17
    3  A    between atoms: C_9  and  C_24
    4  A    between atoms: C_10  and  C_17
    5  A    between atoms: C_10  and  C_21
    6  A    between atoms: C_11  and  N_16
    7  A    between atoms: N_14  and  C_25
    8  A    between atoms: C_21  and  N_28
                            x       y       z     vdW  Elec       q    Type
                         _______ _______ _______ _____ _____    ______ ____

>  <TORSDO>
F 8

$$$$
=
 OpenBabel11042420123D

 30 32  0  0  1  0  0  0  0  0999 V2000
  162.0260  210.3790  148.8320 C   0  0  0  0  0  0  0  0  0  0  0  0
  161.8360  206.5530  151.2810 C   0  0  0  0  0  0  0  0  0  0  0  0
  161.9170  205.4490  152.2920 C   0  0  2  0  0  3  0  0  0  0  0  0
  162.2390  207.9710  151.4650 C   0  0  0  0  0  3  0  0  0  0  0  0
  162.4260  210.2160  150.2690 C   0  0  0  0  0  2  0  0  0  0  0  0
  161.2410  206.9390  148.9820 O   0  0  0  0  0  0  0  0  0  0  0  0
  161.4390  204.3060  151.4450 C   0  0  0  0  0  0  0  0  0  0  0  0
  161.6090  208.2790  149.1370 C   0  0  0  0  0  0  0  0  0  0  0  0
  161.3920  203.1060  151.8260 O   0  0  0  0  0  0  0  0  0  0  0  0
  161.3780  206.1050  150.1060 C   0  0  0  0  0  0  0  0  0  0  0  0
  162.1380  211.4900  148.1840 N   0  0  0  0  0  2  0  0  0  0  0  0
  161.0800  204.7230  150.1330 N   0  0  0  0  0  0  0  0  0  0  0  0
  162.1120  208.7750  150.4050 C   0  0  0  0  0  0  0  0  0  0  0  0
  161.5520  209.1790  148.2170 N   0  0  0  0  0  0  0  0  0  0  0  0
  160.9380  205.7170  153.4250 C   0  0  0  0  0  2  0  0  0  0  0  0
  159.5060  206.9680  155.5230 O   0  0  0  0  0  0  0  0  0  0  0  0
  161.4950  206.7040  154.3380 N   0  0  0  0  0  2  0  0  0  0  0  0
  160.7230  207.2780  155.3920 C   0  0  0  0  0  0  0  0  0  0  0  0
  161.5810  209.5160  155.9380 C   0  0  0  0  0  3  0  0  0  0  0  0
  161.3230  208.2730  156.2300 N   0  0  0  0  0  0  0  0  0  0  0  0
  162.0390  210.5390  153.8640 O   0  0  0  0  0  0  0  0  0  0  0  0
  159.8490  210.6150  154.5120 O   0  0  0  0  0  1  0  0  0  0  0  0
  161.1650  210.2160  154.7110 C   0  0  0  0  0  0  0  0  0  0  0  0
  160.8580  203.8620  148.9780 C   0  0  0  0  0  2  0  0  0  0  0  0
  161.9810  204.0170  147.9580 C   0  0  0  0  0  2  0  0  0  0  0  0
  161.5070  203.6950  146.5760 C   0  0  0  0  0  0  0  0  0  0  0  0
  161.0680  202.5400  146.3350 O   0  0  0  0  0  0  0  0  0  0  0  0
  162.3360  205.8700  145.6440 N   0  0  0  0  0  1  0  0  0  0  0  0
  161.5230  204.7090  145.5100 C   0  0  0  0  0  0  0  0  0  0  0  0
  160.8020  204.5570  144.4480 N   0  0  0  0  0  2  0  0  0  0  0  0
  1  5  1  0  0  0  0
  2  4  1  0  0  0  0
  2  3  1  0  0  0  0
  3 15  1  1  0  0  0
  5 13  1  0  0  0  0
  6  8  1  0  0  0  0
  6 10  1  0  0  0  0
  7  9  2  0  0  0  0
  7  3  1  0  0  0  0
  8 13  1  0  0  0  0
 10 12  1  0  0  0  0
 10  2  2  0  0  0  0
 11  1  2  0  0  0  0
 12  7  1  0  0  0  0
 13  4  2  0  0  0  0
 14  1  1  0  0  0  0
 14  8  2  0  0  0  0
 15 17  1  0  0  0  0
 17 18  1  0  0  0  0
 18 16  2  0  0  0  0
 18 20  1  0  0  0  0
 19 20  2  0  0  0  0
 21 23  2  0  0  0  0
 22 23  1  0  0  0  0
 23 19  1  0  0  0  0
 24 12  1  0  0  0  0
 25 24  1  0  0  0  0
 26 25  1  0  0  0  0
 27 26  2  0  0  0  0
 29 28  1  0  0  0  0
 29 26  1  0  0  0  0
 30 29  2  0  0  0  0
M  END
>  <MODEL>
2

>  <REMARK>
 VINA RESULT:      -7.5      1.774      7.369
  Name = 
  8 active torsions:
  status: ('A' for Active; 'I' for Inactive)
    1  A    between atoms: C_3  and  C_11
    2  A    between atoms: C_8  and  C_17
    3  A    between atoms: C_9  and  C_24
    4  A    between atoms: C_10  and  C_17
    5  A    between atoms: C_10  and  C_21
    6  A    between atoms: C_11  and  N_16
    7  A    between atoms: N_14  and  C_25
    8  A    between atoms: C_21  and  N_28
                            x       y       z     vdW  Elec       q    Type
                         _______ _______ _______ _____ _____    ______ ____

>  <TORSDO>
F 8

$$$$
=
 OpenBabel11042420123D

 30 32  0  0  1  0  0  0  0  0999 V2000
  160.6030  208.2200  154.9300 C   0  0  0  0  0  0  0  0  0  0  0  0
  161.5280  206.5850  150.7890 C   0  0  0  0  0  0  0  0  0  0  0  0
  161.8810  205.7920  149.5660 C   0  0  2  0  0  3  0  0  0  0  0  0
  161.3530  206.0730  152.1720 C   0  0  0  0  0  3  0  0  0  0  0  0
  160.8490  206.7840  154.5690 C   0  0  0  0  0  2  0  0  0  0  0  0
  161.1300  208.8510  151.4940 O   0  0  0  0  0  0  0  0  0  0  0  0
  161.9710  206.9100  148.5680 C   0  0  0  0  0  0  0  0  0  0  0  0
  160.9550  208.3870  152.8020 C   0  0  0  0  0  0  0  0  0  0  0  0
  162.3210  206.7670  147.3670 O   0  0  0  0  0  0  0  0  0  0  0  0
  161.4200  207.8900  150.5100 C   0  0  0  0  0  0  0  0  0  0  0  0
  160.3790  208.6230  156.1350 N   0  0  0  0  0  2  0  0  0  0  0  0
  161.6520  208.1710  149.1440 N   0  0  0  0  0  0  0  0  0  0  0  0
  161.0730  206.9750  153.1170 C   0  0  0  0  0  0  0  0  0  0  0  0
  160.6870  209.1230  153.8240 N   0  0  0  0  0  0  0  0  0  0  0  0
  160.7370  204.8540  149.2140 C   0  0  0  0  0  2  0  0  0  0  0  0
  159.7780  202.2160  149.5850 O   0  0  0  0  0  0  0  0  0  0  0  0
  161.2530  203.6780  148.5300 N   0  0  0  0  0  2  0  0  0  0  0  0
  160.7050  202.3780  148.7450 C   0  0  0  0  0  0  0  0  0  0  0  0
  161.2370  200.9800  146.7940 C   0  0  0  0  0  3  0  0  0  0  0  0
  161.2870  201.2580  148.0660 N   0  0  0  0  0  0  0  0  0  0  0  0
  159.6660  201.4780  145.1100 O   0  0  0  0  0  0  0  0  0  0  0  0
  161.3270  203.0270  145.3660 O   0  0  0  0  0  1  0  0  0  0  0  0
  160.6880  201.8520  145.7420 C   0  0  0  0  0  0  0  0  0  0  0  0
  161.9130  209.4820  148.5620 C   0  0  0  0  0  2  0  0  0  0  0  0
  162.0190  210.5500  149.6450 C   0  0  0  0  0  2  0  0  0  0  0  0
  161.6600  211.9010  149.1130 C   0  0  0  0  0  0  0  0  0  0  0  0
  160.9190  212.6500  149.8020 O   0  0  0  0  0  0  0  0  0  0  0  0
  161.2840  212.5760  146.7280 N   0  0  0  0  0  2  0  0  0  0  0  0
  162.1760  212.3720  147.8180 C   0  0  0  0  0  0  0  0  0  0  0  0
  163.4380  212.6020  147.6590 N   0  0  0  0  0  1  0  0  0  0  0  0
  1 11  2  0  0  0  0
  2  4  1  0  0  0  0
  3 15  1  6  0  0  0
  3  2  1  0  0  0  0
  4 13  2  0  0  0  0
  5  1  1  0  0  0  0
  6  8  1  0  0  0  0
  7 12  1  0  0  0  0
  7  3  1  0  0  0  0
  8 13  1  0  0  0  0
  8 14  2  0  0  0  0
  9  7  2  0  0  0  0
 10  2  2  0  0  0  0
 10  6  1  0  0  0  0
 12 10  1  0  0  0  0
 13  5  1  0  0  0  0
 14  1  1  0  0  0  0
 17 18  1  0  0  0  0
 17 15  1  0  0  0  0
 18 16  2  0  0  0  0
 19 20  2  0  0  0  0
 20 18  1  0  0  0  0
 21 23  2  0  0  0  0
 22 23  1  0  0  0  0
 23 19  1  0  0  0  0
 24 12  1  0  0  0  0
 24 25  1  0  0  0  0
 26 25  1  0  0  0  0
 26 27  2  0  0  0  0
 28 29  2  0  0  0  0
 29 26  1  0  0  0  0
 30 29  1  0  0  0  0
M  END
>  <MODEL>
3

>  <REMARK>
 VINA RESULT:      -7.4      2.198      5.393
  Name = 
  8 active torsions:
  status: ('A' for Active; 'I' for Inactive)
    1  A    between atoms: C_3  and  C_11
    2  A    between atoms: C_8  and  C_17
    3  A    between atoms: C_9  and  C_24
    4  A    between atoms: C_10  and  C_17
    5  A    between atoms: C_10  and  C_21
    6  A    between atoms: C_11  and  N_16
    7  A    between atoms: N_14  and  C_25
    8  A    between atoms: C_21  and  N_28
                            x       y       z     vdW  Elec       q    Type
                         _______ _______ _______ _____ _____    ______ ____

>  <TORSDO>
F 8

$$$$
=
 OpenBabel11042420123D

 30 32  0  0  1  0  0  0  0  0999 V2000
  160.6820  202.4390  148.9660 C   0  0  0  0  0  0  0  0  0  0  0  0
  161.8350  206.7390  149.8940 C   0  0  0  0  0  0  0  0  0  0  0  0
  162.3280  208.1550  149.9280 C   0  0  2  0  0  3  0  0  0  0  0  0
  161.8330  205.8150  148.7300 C   0  0  0  0  0  3  0  0  0  0  0  0
  161.2530  203.4400  148.0040 C   0  0  0  0  0  2  0  0  0  0  0  0
  160.9290  205.0420  151.3400 O   0  0  0  0  0  0  0  0  0  0  0  0
  162.1140  208.4530  151.3830 C   0  0  0  0  0  0  0  0  0  0  0  0
  160.9130  204.1600  150.2550 C   0  0  0  0  0  0  0  0  0  0  0  0
  162.4480  209.5280  151.9480 O   0  0  0  0  0  0  0  0  0  0  0  0
  161.4090  206.3420  151.1000 C   0  0  0  0  0  0  0  0  0  0  0  0
  160.4080  201.2200  148.6440 N   0  0  0  0  0  2  0  0  0  0  0  0
  161.5210  207.3600  152.0750 N   0  0  0  0  0  0  0  0  0  0  0  0
  161.3770  204.5770  148.9450 C   0  0  0  0  0  0  0  0  0  0  0  0
  160.5110  202.9380  150.2950 N   0  0  0  0  0  0  0  0  0  0  0  0
  161.4310  209.0310  149.0670 C   0  0  0  0  0  2  0  0  0  0  0  0
  161.3630  211.7840  149.7250 O   0  0  0  0  0  0  0  0  0  0  0  0
  162.2230  210.0610  148.4140 N   0  0  0  0  0  2  0  0  0  0  0  0
  162.1600  211.4300  148.8130 C   0  0  0  0  0  0  0  0  0  0  0  0
  162.5810  213.1150  147.0730 C   0  0  0  0  0  3  0  0  0  0  0  0
  162.9400  212.3980  148.1000 N   0  0  0  0  0  0  0  0  0  0  0  0
  160.9930  212.6590  145.3930 O   0  0  0  0  0  0  0  0  0  0  0  0
  160.2180  213.9230  147.1320 O   0  0  0  0  0  1  0  0  0  0  0  0
  161.2230  213.1930  146.5090 C   0  0  0  0  0  0  0  0  0  0  0  0
  161.4410  207.1870  153.5200 C   0  0  0  0  0  2  0  0  0  0  0  0
  160.5760  208.2720  154.1530 C   0  0  0  0  0  2  0  0  0  0  0  0
  161.2780  208.9250  155.3000 C   0  0  0  0  0  0  0  0  0  0  0  0
  161.5160  208.2480  156.3350 O   0  0  0  0  0  0  0  0  0  0  0  0
  160.9570  211.2710  154.4730 N   0  0  0  0  0  2  0  0  0  0  0  0
  161.7130  210.3290  155.2280 C   0  0  0  0  0  0  0  0  0  0  0  0
  162.7800  210.7190  155.8440 N   0  0  0  0  0  1  0  0  0  0  0  0
  1 14  1  0  0  0  0
  2  3  1  0  0  0  0
  2 10  2  0  0  0  0
  3 15  1  6  0  0  0
  3  7  1  0  0  0  0
  4 13  2  0  0  0  0
  4  2  1  0  0  0  0
  5 13  1  0  0  0  0
  5  1  1  0  0  0  0
  7  9  2  0  0  0  0
  7 12  1  0  0  0  0
  8 14  2  0  0  0  0
  8  6  1  0  0  0  0
 10  6  1  0  0  0  0
 10 12  1  0  0  0  0
 11  1  2  0  0  0  0
 12 24  1  0  0  0  0
 13  8  1  0  0  0  0
 17 18  1  0  0  0  0
 17 15  1  0  0  0  0
 18 16  2  0  0  0  0
 19 20  2  0  0  0  0
 20 18  1  0  0  0  0
 21 23  2  0  0  0  0
 23 19  1  0  0  0  0
 23 22  1  0  0  0  0
 24 25  1  0  0  0  0
 25 26  1  0  0  0  0
 26 27  2  0  0  0  0
 28 29  2  0  0  0  0
 29 26  1  0  0  0  0
 29 30  1  0  0  0  0
M  END
>  <MODEL>
4

>  <REMARK>
 VINA RESULT:      -7.3      2.582      5.748
  Name = 
  8 active torsions:
  status: ('A' for Active; 'I' for Inactive)
    1  A    between atoms: C_3  and  C_11
    2  A    between atoms: C_8  and  C_17
    3  A    between atoms: C_9  and  C_24
    4  A    between atoms: C_10  and  C_17
    5  A    between atoms: C_10  and  C_21
    6  A    between atoms: C_11  and  N_16
    7  A    between atoms: N_14  and  C_25
    8  A    between atoms: C_21  and  N_28
                            x       y       z     vdW  Elec       q    Type
                         _______ _______ _______ _____ _____    ______ ____

>  <TORSDO>
F 8

$$$$
=
 OpenBabel11042420123D

 30 32  0  0  1  0  0  0  0  0999 V2000
  160.3760  208.3260  155.8530 C   0  0  0  0  0  0  0  0  0  0  0  0
  161.5320  207.3460  151.5660 C   0  0  0  0  0  0  0  0  0  0  0  0
  161.9290  206.7450  150.2510 C   0  0  2  0  0  3  0  0  0  0  0  0
  161.1940  206.6230  152.8190 C   0  0  0  0  0  3  0  0  0  0  0  0
  160.5380  206.9560  155.2610 C   0  0  0  0  0  2  0  0  0  0  0  0
  161.2550  209.4840  152.6340 O   0  0  0  0  0  0  0  0  0  0  0  0
  162.1960  208.0040  149.4780 C   0  0  0  0  0  0  0  0  0  0  0  0
  160.9280  208.8210  153.8220 C   0  0  0  0  0  0  0  0  0  0  0  0
  162.6390  208.0370  148.3000 O   0  0  0  0  0  0  0  0  0  0  0  0
  161.5540  208.6840  151.5180 C   0  0  0  0  0  0  0  0  0  0  0  0
  160.0780  208.5350  157.0910 N   0  0  0  0  0  2  0  0  0  0  0  0
  161.9290  209.1720  150.2450 N   0  0  0  0  0  0  0  0  0  0  0  0
  160.9050  207.3720  153.8870 C   0  0  0  0  0  0  0  0  0  0  0  0
  160.6300  209.3940  154.9360 N   0  0  0  0  0  0  0  0  0  0  0  0
  160.7500  205.9930  149.6540 C   0  0  0  0  0  2  0  0  0  0  0  0
  160.5990  203.1940  149.2570 O   0  0  0  0  0  0  0  0  0  0  0  0
  161.1640  205.3020  148.4430 N   0  0  0  0  0  2  0  0  0  0  0  0
  161.0380  203.8880  148.2990 C   0  0  0  0  0  0  0  0  0  0  0  0
  161.6240  203.8060  145.9130 C   0  0  0  0  0  3  0  0  0  0  0  0
  161.5020  203.2680  147.0930 N   0  0  0  0  0  0  0  0  0  0  0  0
  162.4340  206.0090  145.7050 O   0  0  0  0  0  1  0  0  0  0  0  0
  160.2050  205.7580  145.2710 O   0  0  0  0  0  0  0  0  0  0  0  0
  161.4500  205.2330  145.5940 C   0  0  0  0  0  0  0  0  0  0  0  0
  162.3440  210.5330  149.9270 C   0  0  0  0  0  2  0  0  0  0  0  0
  161.8200  210.9600  148.5600 C   0  0  0  0  0  2  0  0  0  0  0  0
  162.2400  212.3560  148.2300 C   0  0  0  0  0  0  0  0  0  0  0  0
  163.4280  212.5670  147.8690 O   0  0  0  0  0  0  0  0  0  0  0  0
  161.0100  214.2440  147.1300 N   0  0  0  0  0  2  0  0  0  0  0  0
  161.2850  213.4740  148.2950 C   0  0  0  0  0  0  0  0  0  0  0  0
  160.6910  213.7670  149.4050 N   0  0  0  0  0  1  0  0  0  0  0  0
  1 11  2  0  0  0  0
  2  4  1  0  0  0  0
  3 15  1  6  0  0  0
  3  2  1  0  0  0  0
  4 13  2  0  0  0  0
  5  1  1  0  0  0  0
  6  8  1  0  0  0  0
  7 12  1  0  0  0  0
  7  3  1  0  0  0  0
  8 13  1  0  0  0  0
  8 14  2  0  0  0  0
  9  7  2  0  0  0  0
 10  2  2  0  0  0  0
 10  6  1  0  0  0  0
 12 10  1  0  0  0  0
 13  5  1  0  0  0  0
 14  1  1  0  0  0  0
 17 15  1  0  0  0  0
 18 17  1  0  0  0  0
 18 16  2  0  0  0  0
 19 20  2  0  0  0  0
 20 18  1  0  0  0  0
 22 23  2  0  0  0  0
 23 21  1  0  0  0  0
 23 19  1  0  0  0  0
 24 12  1  0  0  0  0
 25 24  1  0  0  0  0
 26 29  1  0  0  0  0
 26 25  1  0  0  0  0
 27 26  2  0  0  0  0
 28 29  2  0  0  0  0
 29 30  1  0  0  0  0
M  END
>  <MODEL>
5

>  <REMARK>
 VINA RESULT:      -7.2      2.085      5.602
  Name = 
  8 active torsions:
  status: ('A' for Active; 'I' for Inactive)
    1  A    between atoms: C_3  and  C_11
    2  A    between atoms: C_8  and  C_17
    3  A    between atoms: C_9  and  C_24
    4  A    between atoms: C_10  and  C_17
    5  A    between atoms: C_10  and  C_21
    6  A    between atoms: C_11  and  N_16
    7  A    between atoms: N_14  and  C_25
    8  A    between atoms: C_21  and  N_28
                            x       y       z     vdW  Elec       q    Type
                         _______ _______ _______ _____ _____    ______ ____

>  <TORSDO>
F 8

$$$$
=
 OpenBabel11042420123D

 30 32  0  0  1  0  0  0  0  0999 V2000
  160.1860  208.8690  156.0730 C   0  0  0  0  0  0  0  0  0  0  0  0
  161.5150  207.3440  152.0010 C   0  0  0  0  0  0  0  0  0  0  0  0
  161.9720  206.5800  150.7940 C   0  0  2  0  0  3  0  0  0  0  0  0
  161.1500  206.7900  153.3300 C   0  0  0  0  0  3  0  0  0  0  0  0
  160.4000  207.4360  155.6810 C   0  0  0  0  0  2  0  0  0  0  0  0
  161.1520  209.6000  152.7560 O   0  0  0  0  0  0  0  0  0  0  0  0
  162.2370  207.7290  149.8650 C   0  0  0  0  0  0  0  0  0  0  0  0
  160.7980  209.0960  154.0120 C   0  0  0  0  0  0  0  0  0  0  0  0
  162.7210  207.6130  148.7080 O   0  0  0  0  0  0  0  0  0  0  0  0
  161.5090  208.6630  151.7700 C   0  0  0  0  0  0  0  0  0  0  0  0
  159.8400  209.2370  157.2610 N   0  0  0  0  0  2  0  0  0  0  0  0
  161.9170  208.9830  150.4550 N   0  0  0  0  0  0  0  0  0  0  0  0
  160.8060  207.6700  154.2750 C   0  0  0  0  0  0  0  0  0  0  0  0
  160.4480  209.8070  155.0270 N   0  0  0  0  0  0  0  0  0  0  0  0
  160.8320  205.7220  150.2680 C   0  0  0  0  0  2  0  0  0  0  0  0
  160.4140  203.7330  152.2400 O   0  0  0  0  0  0  0  0  0  0  0  0
  161.2650  204.3370  150.1570 N   0  0  0  0  0  2  0  0  0  0  0  0
  160.9990  203.3780  151.1790 C   0  0  0  0  0  0  0  0  0  0  0  0
  161.1380  201.1620  150.1240 C   0  0  0  0  0  3  0  0  0  0  0  0
  161.4880  202.0400  151.0210 N   0  0  0  0  0  0  0  0  0  0  0  0
  160.7700  201.7790  147.8800 O   0  0  0  0  0  0  0  0  0  0  0  0
  158.8760  201.3480  149.0830 O   0  0  0  0  0  1  0  0  0  0  0  0
  160.2590  201.4120  148.9700 C   0  0  0  0  0  0  0  0  0  0  0  0
  162.3120  210.2990  149.9660 C   0  0  0  0  0  2  0  0  0  0  0  0
  161.8290  210.5190  148.5370 C   0  0  0  0  0  2  0  0  0  0  0  0
  161.9520  211.9550  148.1380 C   0  0  0  0  0  0  0  0  0  0  0  0
  163.0680  212.3860  147.7460 O   0  0  0  0  0  0  0  0  0  0  0  0
  159.9720  213.0100  147.0180 N   0  0  0  0  0  2  0  0  0  0  0  0
  160.7900  212.8570  148.1730 C   0  0  0  0  0  0  0  0  0  0  0  0
  160.5030  213.5180  149.2470 N   0  0  0  0  0  1  0  0  0  0  0  0
  1 11  2  0  0  0  0
  2  4  1  0  0  0  0
  3 15  1  6  0  0  0
  3  2  1  0  0  0  0
  4 13  2  0  0  0  0
  5  1  1  0  0  0  0
  6  8  1  0  0  0  0
  7 12  1  0  0  0  0
  7  3  1  0  0  0  0
  8 13  1  0  0  0  0
  8 14  2  0  0  0  0
  9  7  2  0  0  0  0
 10  2  2  0  0  0  0
 10  6  1  0  0  0  0
 12 10  1  0  0  0  0
 13  5  1  0  0  0  0
 14  1  1  0  0  0  0
 17 15  1  0  0  0  0
 17 18  1  0  0  0  0
 18 16  2  0  0  0  0
 19 20  2  0  0  0  0
 20 18  1  0  0  0  0
 21 23  2  0  0  0  0
 23 22  1  0  0  0  0
 23 19  1  0  0  0  0
 24 12  1  0  0  0  0
 25 24  1  0  0  0  0
 26 29  1  0  0  0  0
 26 25  1  0  0  0  0
 27 26  2  0  0  0  0
 28 29  2  0  0  0  0
 29 30  1  0  0  0  0
M  END
>  <MODEL>
6

>  <REMARK>
 VINA RESULT:      -7.2      2.692      6.124
  Name = 
  8 active torsions:
  status: ('A' for Active; 'I' for Inactive)
    1  A    between atoms: C_3  and  C_11
    2  A    between atoms: C_8  and  C_17
    3  A    between atoms: C_9  and  C_24
    4  A    between atoms: C_10  and  C_17
    5  A    between atoms: C_10  and  C_21
    6  A    between atoms: C_11  and  N_16
    7  A    between atoms: N_14  and  C_25
    8  A    between atoms: C_21  and  N_28
                            x       y       z     vdW  Elec       q    Type
                         _______ _______ _______ _____ _____    ______ ____

>  <TORSDO>
F 8

$$$$
=
 OpenBabel11042420123D

 30 32  0  0  1  0  0  0  0  0999 V2000
  160.8320  201.7140  150.4030 C   0  0  0  0  0  0  0  0  0  0  0  0
  161.2090  206.2270  149.9850 C   0  0  0  0  0  0  0  0  0  0  0  0
  161.2260  207.7200  150.1220 C   0  0  2  0  0  3  0  0  0  0  0  0
  160.8950  205.2310  151.0420 C   0  0  0  0  0  3  0  0  0  0  0  0
  160.6340  202.7330  151.4880 C   0  0  0  0  0  2  0  0  0  0  0  0
  161.4860  204.5000  148.3320 O   0  0  0  0  0  0  0  0  0  0  0  0
  161.5300  208.0920  148.7000 C   0  0  0  0  0  0  0  0  0  0  0  0
  161.2000  203.5470  149.3150 C   0  0  0  0  0  0  0  0  0  0  0  0
  161.5800  209.2730  148.2670 O   0  0  0  0  0  0  0  0  0  0  0  0
  161.4760  205.8490  148.7290 C   0  0  0  0  0  0  0  0  0  0  0  0
  160.6760  200.4460  150.5820 N   0  0  0  0  0  2  0  0  0  0  0  0
  161.7160  206.9490  147.8730 N   0  0  0  0  0  0  0  0  0  0  0  0
  160.9040  203.9450  150.6790 C   0  0  0  0  0  0  0  0  0  0  0  0
  161.1640  202.2730  149.1290 N   0  0  0  0  0  0  0  0  0  0  0  0
  162.3660  208.1380  151.0370 C   0  0  0  0  0  2  0  0  0  0  0  0
  160.8260  208.0430  153.4110 O   0  0  0  0  0  0  0  0  0  0  0  0
  161.9730  209.3000  151.8200 N   0  0  0  0  0  2  0  0  0  0  0  0
  161.2160  209.1780  153.0240 C   0  0  0  0  0  0  0  0  0  0  0  0
  161.1980  210.7500  154.9150 C   0  0  0  0  0  3  0  0  0  0  0  0
  160.8300  210.3680  153.7240 N   0  0  0  0  0  0  0  0  0  0  0  0
  161.9470  209.0190  156.3280 O   0  0  0  0  0  1  0  0  0  0  0  0
  163.4510  210.7050  155.9900 O   0  0  0  0  0  0  0  0  0  0  0  0
  162.2230  210.1010  155.7490 C   0  0  0  0  0  0  0  0  0  0  0  0
  161.7350  206.9250  146.4160 C   0  0  0  0  0  2  0  0  0  0  0  0
  160.5590  206.1230  145.8680 C   0  0  0  0  0  2  0  0  0  0  0  0
  161.0090  205.1350  144.8390 C   0  0  0  0  0  0  0  0  0  0  0  0
  161.8140  205.5080  143.9450 O   0  0  0  0  0  0  0  0  0  0  0  0
  159.3680  203.3610  144.1690 N   0  0  0  0  0  2  0  0  0  0  0  0
  160.5480  203.7380  144.8720 C   0  0  0  0  0  0  0  0  0  0  0  0
  161.2050  202.8450  145.5360 N   0  0  0  0  0  1  0  0  0  0  0  0
  1 11  2  0  0  0  0
  1  5  1  0  0  0  0
  2  3  1  0  0  0  0
  2  4  1  0  0  0  0
  3 15  1  1  0  0  0
  6 10  1  0  0  0  0
  6  8  1  0  0  0  0
  7  3  1  0  0  0  0
  8 13  1  0  0  0  0
  9  7  2  0  0  0  0
 10  2  2  0  0  0  0
 12  7  1  0  0  0  0
 12 10  1  0  0  0  0
 13  4  2  0  0  0  0
 13  5  1  0  0  0  0
 14  8  2  0  0  0  0
 14  1  1  0  0  0  0
 15 17  1  0  0  0  0
 17 18  1  0  0  0  0
 18 16  2  0  0  0  0
 18 20  1  0  0  0  0
 19 23  1  0  0  0  0
 20 19  2  0  0  0  0
 23 22  2  0  0  0  0
 23 21  1  0  0  0  0
 24 12  1  0  0  0  0
 25 24  1  0  0  0  0
 26 29  1  0  0  0  0
 26 25  1  0  0  0  0
 27 26  2  0  0  0  0
 28 29  2  0  0  0  0
 29 30  1  0  0  0  0
M  END
>  <MODEL>
7

>  <REMARK>
 VINA RESULT:      -7.0      2.170      8.835
  Name = 
  8 active torsions:
  status: ('A' for Active; 'I' for Inactive)
    1  A    between atoms: C_3  and  C_11
    2  A    between atoms: C_8  and  C_17
    3  A    between atoms: C_9  and  C_24
    4  A    between atoms: C_10  and  C_17
    5  A    between atoms: C_10  and  C_21
    6  A    between atoms: C_11  and  N_16
    7  A    between atoms: N_14  and  C_25
    8  A    between atoms: C_21  and  N_28
                            x       y       z     vdW  Elec       q    Type
                         _______ _______ _______ _____ _____    ______ ____

>  <TORSDO>
F 8

$$$$
=
 OpenBabel11042420123D

 30 32  0  0  1  0  0  0  0  0999 V2000
  160.5220  208.3230  155.8370 C   0  0  0  0  0  0  0  0  0  0  0  0
  161.0780  207.6010  151.3820 C   0  0  0  0  0  0  0  0  0  0  0  0
  161.1620  207.6390  149.8850 C   0  0  2  0  0  3  0  0  0  0  0  0
  160.7540  208.7290  152.2930 C   0  0  0  0  0  3  0  0  0  0  0  0
  160.4010  209.3430  154.7430 C   0  0  0  0  0  2  0  0  0  0  0  0
  161.2310  206.0570  153.2210 O   0  0  0  0  0  0  0  0  0  0  0  0
  161.4390  206.1880  149.6190 C   0  0  0  0  0  0  0  0  0  0  0  0
  160.9350  207.1080  154.0960 C   0  0  0  0  0  0  0  0  0  0  0  0
  161.5270  205.6780  148.4710 O   0  0  0  0  0  0  0  0  0  0  0  0
  161.2900  206.3650  151.8510 C   0  0  0  0  0  0  0  0  0  0  0  0
  160.3170  208.5880  157.0830 N   0  0  0  0  0  2  0  0  0  0  0  0
  161.5520  205.4330  150.8200 N   0  0  0  0  0  0  0  0  0  0  0  0
  160.6980  208.4500  153.5990 C   0  0  0  0  0  0  0  0  0  0  0  0
  160.8380  207.0060  155.3760 N   0  0  0  0  0  0  0  0  0  0  0  0
  162.3470  208.4940  149.4600 C   0  0  0  0  0  2  0  0  0  0  0  0
  162.1090  211.2960  149.7840 O   0  0  0  0  0  0  0  0  0  0  0  0
  161.9400  209.4190  148.4140 N   0  0  0  0  0  2  0  0  0  0  0  0
  161.8650  210.8270  148.6390 C   0  0  0  0  0  0  0  0  0  0  0  0
  160.8300  212.8350  147.6690 C   0  0  0  0  0  3  0  0  0  0  0  0
  161.4200  211.6770  147.5740 N   0  0  0  0  0  0  0  0  0  0  0  0
  161.4830  214.4530  149.2520 O   0  0  0  0  0  0  0  0  0  0  0  0
  159.5610  213.3290  149.7620 O   0  0  0  0  0  1  0  0  0  0  0  0
  160.6250  213.5980  148.9110 C   0  0  0  0  0  0  0  0  0  0  0  0
  161.5250  203.9800  150.9380 C   0  0  0  0  0  2  0  0  0  0  0  0
  160.3200  203.3950  150.2100 C   0  0  0  0  0  2  0  0  0  0  0  0
  160.5790  201.9870  149.7770 C   0  0  0  0  0  0  0  0  0  0  0  0
  160.3580  201.0490  150.5870 O   0  0  0  0  0  0  0  0  0  0  0  0
  161.0690  202.7020  147.4240 N   0  0  0  0  0  2  0  0  0  0  0  0
  161.0590  201.6840  148.4190 C   0  0  0  0  0  0  0  0  0  0  0  0
  161.4740  200.4970  148.1190 N   0  0  0  0  0  1  0  0  0  0  0  0
  1 11  2  0  0  0  0
  2 10  2  0  0  0  0
  2  4  1  0  0  0  0
  3 15  1  1  0  0  0
  3  2  1  0  0  0  0
  4 13  2  0  0  0  0
  5  1  1  0  0  0  0
  6  8  1  0  0  0  0
  7  3  1  0  0  0  0
  7 12  1  0  0  0  0
  8 14  2  0  0  0  0
  9  7  2  0  0  0  0
 10  6  1  0  0  0  0
 12 24  1  0  0  0  0
 12 10  1  0  0  0  0
 13  8  1  0  0  0  0
 13  5  1  0  0  0  0
 14  1  1  0  0  0  0
 17 18  1  0  0  0  0
 17 15  1  0  0  0  0
 18 16  2  0  0  0  0
 19 23  1  0  0  0  0
 20 19  2  0  0  0  0
 20 18  1  0  0  0  0
 23 21  2  0  0  0  0
 23 22  1  0  0  0  0
 25 24  1  0  0  0  0
 26 25  1  0  0  0  0
 26 27  2  0  0  0  0
 28 29  2  0  0  0  0
 29 26  1  0  0  0  0
 30 29  1  0  0  0  0
M  END
>  <MODEL>
8

>  <REMARK>
 VINA RESULT:      -7.0      2.613      6.942
  Name = 
  8 active torsions:
  status: ('A' for Active; 'I' for Inactive)
    1  A    between atoms: C_3  and  C_11
    2  A    between atoms: C_8  and  C_17
    3  A    between atoms: C_9  and  C_24
    4  A    between atoms: C_10  and  C_17
    5  A    between atoms: C_10  and  C_21
    6  A    between atoms: C_11  and  N_16
    7  A    between atoms: N_14  and  C_25
    8  A    between atoms: C_21  and  N_28
                            x       y       z     vdW  Elec       q    Type
                         _______ _______ _______ _____ _____    ______ ____

>  <TORSDO>
F 8

$$$$
=
 OpenBabel11042420123D

 30 32  0  0  1  0  0  0  0  0999 V2000
  161.2270  202.9360  147.1960 C   0  0  0  0  0  0  0  0  0  0  0  0
  161.1400  206.2110  150.3480 C   0  0  0  0  0  0  0  0  0  0  0  0
  160.9770  207.0880  151.5540 C   0  0  2  0  0  3  0  0  0  0  0  0
  160.8320  204.7620  150.2430 C   0  0  0  0  0  3  0  0  0  0  0  0
  160.8050  202.7880  148.6290 C   0  0  0  0  0  2  0  0  0  0  0  0
  161.7790  206.3230  148.0310 O   0  0  0  0  0  0  0  0  0  0  0  0
  161.3840  208.4030  150.9560 C   0  0  0  0  0  0  0  0  0  0  0  0
  161.5000  204.9570  147.9140 C   0  0  0  0  0  0  0  0  0  0  0  0
  161.3470  209.5050  151.5650 O   0  0  0  0  0  0  0  0  0  0  0  0
  161.5770  206.9100  149.2930 C   0  0  0  0  0  0  0  0  0  0  0  0
  161.1960  201.9690  146.3410 N   0  0  0  0  0  2  0  0  0  0  0  0
  161.7820  208.2750  149.5960 N   0  0  0  0  0  0  0  0  0  0  0  0
  161.0220  204.1910  149.0490 C   0  0  0  0  0  0  0  0  0  0  0  0
  161.6250  204.2620  146.8370 N   0  0  0  0  0  0  0  0  0  0  0  0
  161.9620  206.6660  152.6330 C   0  0  0  0  0  2  0  0  0  0  0  0
  161.7520  208.7040  154.5870 O   0  0  0  0  0  0  0  0  0  0  0  0
  161.2730  206.5280  153.9070 N   0  0  0  0  0  2  0  0  0  0  0  0
  161.1830  207.6060  154.8370 C   0  0  0  0  0  0  0  0  0  0  0  0
  160.0770  208.2830  156.9270 C   0  0  0  0  0  3  0  0  0  0  0  0
  160.5220  207.3880  156.0910 N   0  0  0  0  0  0  0  0  0  0  0  0
  159.1250  210.2000  155.9410 O   0  0  0  0  0  0  0  0  0  0  0  0
  161.0030  210.5880  157.1850 O   0  0  0  0  0  1  0  0  0  0  0  0
  160.0260  209.7350  156.6870 C   0  0  0  0  0  0  0  0  0  0  0  0
  161.9540  209.3590  148.6360 C   0  0  0  0  0  2  0  0  0  0  0  0
  162.3320  210.6580  149.3400 C   0  0  0  0  0  2  0  0  0  0  0  0
  162.3270  211.8120  148.3880 C   0  0  0  0  0  0  0  0  0  0  0  0
  163.4180  212.1950  147.8890 O   0  0  0  0  0  0  0  0  0  0  0  0
  160.4670  212.2050  146.7530 N   0  0  0  0  0  2  0  0  0  0  0  0
  161.0740  212.4830  148.0110 C   0  0  0  0  0  0  0  0  0  0  0  0
  160.5140  213.3290  148.8130 N   0  0  0  0  0  1  0  0  0  0  0  0
  1  5  1  0  0  0  0
  2  3  1  0  0  0  0
  3 15  1  1  0  0  0
  4  2  1  0  0  0  0
  5 13  1  0  0  0  0
  6 10  1  0  0  0  0
  7  3  1  0  0  0  0
  7  9  2  0  0  0  0
  8  6  1  0  0  0  0
  8 13  1  0  0  0  0
 10 12  1  0  0  0  0
 10  2  2  0  0  0  0
 11  1  2  0  0  0  0
 12  7  1  0  0  0  0
 13  4  2  0  0  0  0
 14  1  1  0  0  0  0
 14  8  2  0  0  0  0
 15 17  1  0  0  0  0
 16 18  2  0  0  0  0
 17 18  1  0  0  0  0
 18 20  1  0  0  0  0
 20 19  2  0  0  0  0
 21 23  2  0  0  0  0
 23 19  1  0  0  0  0
 23 22  1  0  0  0  0
 24 25  1  0  0  0  0
 24 12  1  0  0  0  0
 26 25  1  0  0  0  0
 27 26  2  0  0  0  0
 28 29  2  0  0  0  0
 29 26  1  0  0  0  0
 29 30  1  0  0  0  0
M  END
>  <MODEL>
9

>  <REMARK>
 VINA RESULT:      -6.9      2.152      7.989
  Name = 
  8 active torsions:
  status: ('A' for Active; 'I' for Inactive)
    1  A    between atoms: C_3  and  C_11
    2  A    between atoms: C_8  and  C_17
    3  A    between atoms: C_9  and  C_24
    4  A    between atoms: C_10  and  C_17
    5  A    between atoms: C_10  and  C_21
    6  A    between atoms: C_11  and  N_16
    7  A    between atoms: N_14  and  C_25
    8  A    between atoms: C_21  and  N_28
                            x       y       z     vdW  Elec       q    Type
                         _______ _______ _______ _____ _____    ______ ____

>  <TORSDO>
F 8

$$$$
