=
 OpenBabel11042420533D

 52 57  0  0  1  0  0  0  0  0999 V2000
  160.2200  213.3660  149.8960 C   0  0  0  0  0  3  0  0  0  0  0  0
  161.7760  214.3380  147.0200 O   0  0  0  0  0  0  0  0  0  0  0  0
  160.6430  214.0550  146.2640 N   0  0  0  0  0  0  0  0  0  0  0  0
  162.2050  210.2390  149.5210 C   0  0  2  0  0  3  0  0  0  0  0  0
  161.2160  211.3350  151.2150 C   0  0  0  0  0  0  0  0  0  0  0  0
  161.0270  212.1480  150.0370 C   0  0  0  0  0  0  0  0  0  0  0  0
  161.8680  210.2530  150.9440 N   0  0  0  0  0  0  0  0  0  0  0  0
  160.9200  213.4230  147.5400 C   0  0  2  0  0  0  0  0  0  0  0  0
  161.6040  211.5210  149.0260 C   0  0  0  0  0  0  0  0  0  0  0  0
  160.1500  213.9760  148.7070 C   0  0  0  0  0  3  0  0  0  0  0  0
  161.5090  211.9900  147.5980 C   0  0  0  0  0  2  0  0  0  0  0  0
  161.2160  213.1240  144.8680 S   0  0  0  0  0  0  0  0  0  0  0  0
  159.6350  212.5560  144.5100 O   0  0  0  0  0  0  0  0  0  0  0  0
  159.6120  212.4230  143.1990 O   0  0  0  0  0  0  0  0  0  0  0  0
  159.4910  213.7240  142.6970 C   0  0  1  0  0  3  0  0  0  0  0  0
  159.6340  213.8320  141.2090 C   0  0  2  0  0  3  0  0  0  0  0  0
  158.3750  213.7850  141.8430 O   0  0  0  0  0  0  0  0  0  0  0  0
  159.8340  212.5720  140.3910 C   0  0  0  0  0  0  0  0  0  0  0  0
  158.9380  211.7590  140.2190 O   0  0  0  0  0  0  0  0  0  0  0  0
  161.1940  212.3140  139.8200 C   0  0  2  0  0  3  0  0  0  0  0  0
  161.0870  211.7900  138.4670 N   0  0  0  0  0  1  0  0  0  0  0  0
  162.4220  211.7540  141.7490 O   0  0  0  0  0  0  0  0  0  0  0  0
  161.9700  211.3690  140.6830 C   0  0  0  0  0  0  0  0  0  0  0  0
  162.1620  210.0800  140.2950 F   0  0  0  0  0  0  0  0  0  0  0  0
  160.8060  211.6860  152.5040 O   0  0  0  0  0  0  0  0  0  0  0  0
  159.8190  210.9990  153.2160 C   0  0  0  0  0  0  0  0  0  0  0  0
  158.6170  211.0810  152.8320 O   0  0  0  0  0  0  0  0  0  0  0  0
  160.1930  210.1250  154.3780 C   0  0  1  0  0  3  0  0  0  0  0  0
  160.9040  208.8660  153.9070 C   0  0  0  0  0  1  0  0  0  0  0  0
  162.3880  210.6870  155.5520 N   0  0  0  0  0  1  0  0  0  0  0  0
  160.9850  210.8900  155.4030 C   0  0  0  0  0  0  0  0  0  0  0  0
  160.4270  211.8190  156.0500 O   0  0  0  0  0  0  0  0  0  0  0  0
  161.5720  209.0370  148.8360 C   0  0  0  0  0  2  0  0  0  0  0  0
  162.6160  207.9490  148.6270 C   0  0  0  0  0  2  0  0  0  0  0  0
  162.6270  207.0520  149.7730 N   0  0  0  0  0  2  0  0  0  0  0  0
  161.2400  206.8080  150.1280 C   0  0  0  0  0  2  0  0  0  0  0  0
  160.7950  202.7930  151.5840 C   0  0  0  0  0  3  0  0  0  0  0  0
  161.1400  203.8220  152.4700 C   0  0  0  0  0  3  0  0  0  0  0  0
  160.7370  204.3880  149.7590 C   0  0  0  0  0  3  0  0  0  0  0  0
  161.2850  205.1340  152.0000 C   0  0  0  0  0  3  0  0  0  0  0  0
  161.0790  205.4180  150.6430 C   0  0  0  0  0  0  0  0  0  0  0  0
  160.5940  203.0740  150.2270 C   0  0  0  0  0  0  0  0  0  0  0  0
  161.1450  201.6300  148.2910 C   0  0  0  0  0  0  0  0  0  0  0  0
  158.9810  201.5280  149.3390 O   0  0  0  0  0  1  0  0  0  0  0  0
  160.2400  202.0230  149.3260 N   0  0  0  0  0  0  0  0  0  0  0  0
  162.1080  200.8650  148.5710 O   0  0  0  0  0  0  0  0  0  0  0  0
  161.3910  203.3770  146.6010 C   0  0  0  0  0  3  0  0  0  0  0  0
  161.2090  203.9370  145.2170 C   0  0  0  0  0  2  0  0  0  0  0  0
  160.9760  202.1440  146.9210 C   0  0  0  0  0  0  0  0  0  0  0  0
  159.9140  201.8700  144.7510 C   0  0  0  0  0  3  0  0  0  0  0  0
  160.2200  203.2100  144.4780 O   0  0  0  0  0  0  0  0  0  0  0  0
  160.2730  201.3270  145.9130 C   0  0  0  0  0  3  0  0  0  0  0  0
  1  6  1  0  0  0  0
  2  8  1  0  0  0  0
  3  2  1  0  0  0  0
  3  8  1  0  0  0  0
  4 33  1  6  0  0  0
  4  7  1  0  0  0  0
  5 25  1  0  0  0  0
  6  5  1  0  0  0  0
  7  5  2  0  0  0  0
  8 11  1  1  0  0  0
  8 10  1  0  0  0  0
  9  4  1  0  0  0  0
  9  6  2  0  0  0  0
 10  1  2  0  0  0  0
 11  9  1  0  0  0  0
 12  3  1  0  0  0  0
 13 12  1  0  0  0  0
 14 13  1  0  0  0  0
 15 14  1  6  0  0  0
 16 18  1  6  0  0  0
 16 17  1  0  0  0  0
 16 15  1  0  0  0  0
 17 15  1  0  0  0  0
 19 18  2  0  0  0  0
 20 21  1  6  0  0  0
 20 18  1  0  0  0  0
 20 23  1  0  0  0  0
 23 22  2  0  0  0  0
 24 23  1  0  0  0  0
 25 26  1  0  0  0  0
 26 28  1  0  0  0  0
 27 26  2  0  0  0  0
 28 29  1  6  0  0  0
 28 31  1  0  0  0  0
 31 30  1  0  0  0  0
 31 32  2  0  0  0  0
 34 33  1  0  0  0  0
 34 35  1  0  0  0  0
 35 36  1  0  0  0  0
 36 41  1  0  0  0  0
 37 38  1  0  0  0  0
 39 42  1  0  0  0  0
 39 41  2  0  0  0  0
 40 38  2  0  0  0  0
 41 40  1  0  0  0  0
 42 37  2  0  0  0  0
 43 46  2  0  0  0  0
 43 45  1  0  0  0  0
 45 44  1  0  0  0  0
 45 42  1  0  0  0  0
 47 49  2  0  0  0  0
 48 47  1  0  0  0  0
 49 43  1  0  0  0  0
 50 52  2  0  0  0  0
 51 50  1  0  0  0  0
 51 48  1  0  0  0  0
 52 49  1  0  0  0  0
M  END
>  <MODEL>
1

>  <REMARK>
 VINA RESULT:      -7.2      0.000      0.000
  Name = 
  18 active torsions:
  status: ('A' for Active; 'I' for Inactive)
    1  A    between atoms: S_1  and  N_11
    2  A    between atoms: S_1  and  O_21
    3  A    between atoms: C_3  and  O_47
    4  A    between atoms: C_9  and  C_32
    5  A    between atoms: C_12  and  C_38
    6  A    between atoms: C_13  and  C_18
    7  A    between atoms: C_14  and  O_30
    8  A    between atoms: C_17  and  C_18
    9  A    between atoms: C_17  and  C_25
   10  A    between atoms: C_19  and  C_34
   11  A    between atoms: C_19  and  C_43
   12  A    between atoms: O_21  and  O_47
   13  A    between atoms: C_22  and  C_52
   14  A    between atoms: N_29  and  C_40
   15  A    between atoms: O_30  and  C_43
   16  A    between atoms: C_38  and  C_41
   17  A    between atoms: C_41  and  N_49
   18  A    between atoms: N_49  and  C_52
                            x       y       z     vdW  Elec       q    Type
                         _______ _______ _______ _____ _____    ______ ____

>  <TORSDO>
F 18

$$$$
=
 OpenBabel11042420533D

 52 57  0  0  1  0  0  0  0  0999 V2000
  159.4930  212.8280  151.9850 C   0  0  0  0  0  3  0  0  0  0  0  0
  160.9290  214.1090  149.1680 O   0  0  0  0  0  0  0  0  0  0  0  0
  159.9660  213.5150  148.3590 N   0  0  0  0  0  0  0  0  0  0  0  0
  162.2560  210.3370  151.8600 C   0  0  2  0  0  3  0  0  0  0  0  0
  160.8990  211.1700  153.4450 C   0  0  0  0  0  0  0  0  0  0  0  0
  160.5820  211.8740  152.2250 C   0  0  0  0  0  0  0  0  0  0  0  0
  161.8310  210.2960  153.2590 N   0  0  0  0  0  0  0  0  0  0  0  0
  160.3130  213.0120  149.6740 C   0  0  2  0  0  0  0  0  0  0  0  0
  161.3720  211.3990  151.2770 C   0  0  0  0  0  0  0  0  0  0  0  0
  159.3450  213.3680  150.7700 C   0  0  0  0  0  3  0  0  0  0  0  0
  161.2550  211.7900  149.8280 C   0  0  0  0  0  2  0  0  0  0  0  0
  160.8590  212.7370  147.0390 S   0  0  0  0  0  0  0  0  0  0  0  0
  161.5010  214.2350  146.4960 O   0  0  0  0  0  0  0  0  0  0  0  0
  161.3980  214.1910  145.1840 O   0  0  0  0  0  0  0  0  0  0  0  0
  162.6470  213.7540  144.7280 C   0  0  1  0  0  3  0  0  0  0  0  0
  162.5900  212.8020  143.5720 C   0  0  2  0  0  3  0  0  0  0  0  0
  162.8280  214.1810  143.4000 O   0  0  0  0  0  0  0  0  0  0  0  0
  161.2450  212.4440  142.9740 C   0  0  0  0  0  0  0  0  0  0  0  0
  160.3850  211.8550  143.6120 O   0  0  0  0  0  0  0  0  0  0  0  0
  160.9980  212.7940  141.5380 C   0  0  2  0  0  3  0  0  0  0  0  0
  159.8960  213.7360  141.4270 N   0  0  0  0  0  1  0  0  0  0  0  0
  161.6390  210.8450  140.3840 O   0  0  0  0  0  0  0  0  0  0  0  0
  160.7180  211.5680  140.7250 C   0  0  0  0  0  0  0  0  0  0  0  0
  159.4430  211.2480  140.3790 F   0  0  0  0  0  0  0  0  0  0  0  0
  160.3230  211.4310  154.6920 O   0  0  0  0  0  0  0  0  0  0  0  0
  159.3670  210.6050  155.2900 C   0  0  0  0  0  0  0  0  0  0  0  0
  159.5380  209.3520  155.2660 O   0  0  0  0  0  0  0  0  0  0  0  0
  158.1910  211.2050  156.0050 C   0  0  1  0  0  3  0  0  0  0  0  0
  158.5500  212.5570  156.6050 C   0  0  0  0  0  1  0  0  0  0  0  0
  155.7710  210.6040  155.4660 N   0  0  0  0  0  1  0  0  0  0  0  0
  156.9830  211.2680  155.1130 C   0  0  0  0  0  0  0  0  0  0  0  0
  156.9960  212.0260  154.1050 O   0  0  0  0  0  0  0  0  0  0  0  0
  162.0130  208.9930  151.1900 C   0  0  0  0  0  2  0  0  0  0  0  0
  160.7480  208.3550  151.7480 C   0  0  0  0  0  2  0  0  0  0  0  0
  160.9890  206.9460  152.0210 N   0  0  0  0  0  2  0  0  0  0  0  0
  161.1330  206.2880  150.7340 C   0  0  0  0  0  2  0  0  0  0  0  0
  161.0750  202.0200  151.2060 C   0  0  0  0  0  3  0  0  0  0  0  0
  161.5570  202.8300  152.2430 C   0  0  0  0  0  3  0  0  0  0  0  0
  160.6300  203.9960  149.8740 C   0  0  0  0  0  3  0  0  0  0  0  0
  161.5760  204.2230  152.0950 C   0  0  0  0  0  3  0  0  0  0  0  0
  161.1080  204.8070  150.9100 C   0  0  0  0  0  0  0  0  0  0  0  0
  160.6110  202.6010  150.0200 C   0  0  0  0  0  0  0  0  0  0  0  0
  160.9650  201.4320  147.8650 C   0  0  0  0  0  0  0  0  0  0  0  0
  158.8010  201.4660  148.9170 O   0  0  0  0  0  1  0  0  0  0  0  0
  160.1190  201.7730  148.9650 N   0  0  0  0  0  0  0  0  0  0  0  0
  161.8080  200.5040  148.0000 O   0  0  0  0  0  0  0  0  0  0  0  0
  161.5060  203.3600  146.4650 C   0  0  0  0  0  3  0  0  0  0  0  0
  161.4170  204.1610  145.1950 C   0  0  0  0  0  2  0  0  0  0  0  0
  160.8810  202.1830  146.6000 C   0  0  0  0  0  0  0  0  0  0  0  0
  159.7730  202.4530  144.4530 C   0  0  0  0  0  3  0  0  0  0  0  0
  160.3100  203.7450  144.3850 O   0  0  0  0  0  0  0  0  0  0  0  0
  160.0390  201.6740  145.5010 C   0  0  0  0  0  3  0  0  0  0  0  0
  1  6  1  0  0  0  0
  2  8  1  0  0  0  0
  3  2  1  0  0  0  0
  3  8  1  0  0  0  0
  4 33  1  6  0  0  0
  4  7  1  0  0  0  0
  5 25  1  0  0  0  0
  6  5  1  0  0  0  0
  7  5  2  0  0  0  0
  8 11  1  1  0  0  0
  8 10  1  0  0  0  0
  9  4  1  0  0  0  0
  9  6  2  0  0  0  0
 10  1  2  0  0  0  0
 11  9  1  0  0  0  0
 12  3  1  0  0  0  0
 13 12  1  0  0  0  0
 14 13  1  0  0  0  0
 15 14  1  6  0  0  0
 16 18  1  6  0  0  0
 16 15  1  0  0  0  0
 17 16  1  0  0  0  0
 17 15  1  0  0  0  0
 18 19  2  0  0  0  0
 20 21  1  1  0  0  0
 20 18  1  0  0  0  0
 22 23  2  0  0  0  0
 23 20  1  0  0  0  0
 24 23  1  0  0  0  0
 25 26  1  0  0  0  0
 26 28  1  0  0  0  0
 27 26  2  0  0  0  0
 28 29  1  6  0  0  0
 31 30  1  0  0  0  0
 31 28  1  0  0  0  0
 32 31  2  0  0  0  0
 33 34  1  0  0  0  0
 34 35  1  0  0  0  0
 36 41  1  0  0  0  0
 36 35  1  0  0  0  0
 37 38  1  0  0  0  0
 39 42  1  0  0  0  0
 39 41  2  0  0  0  0
 40 38  2  0  0  0  0
 41 40  1  0  0  0  0
 42 37  2  0  0  0  0
 43 46  2  0  0  0  0
 43 45  1  0  0  0  0
 44 45  1  0  0  0  0
 45 42  1  0  0  0  0
 47 49  2  0  0  0  0
 48 47  1  0  0  0  0
 49 43  1  0  0  0  0
 50 52  2  0  0  0  0
 51 50  1  0  0  0  0
 51 48  1  0  0  0  0
 52 49  1  0  0  0  0
M  END
>  <MODEL>
2

>  <REMARK>
 VINA RESULT:      -6.8      2.044      2.599
  Name = 
  18 active torsions:
  status: ('A' for Active; 'I' for Inactive)
    1  A    between atoms: S_1  and  N_11
    2  A    between atoms: S_1  and  O_21
    3  A    between atoms: C_3  and  O_47
    4  A    between atoms: C_9  and  C_32
    5  A    between atoms: C_12  and  C_38
    6  A    between atoms: C_13  and  C_18
    7  A    between atoms: C_14  and  O_30
    8  A    between atoms: C_17  and  C_18
    9  A    between atoms: C_17  and  C_25
   10  A    between atoms: C_19  and  C_34
   11  A    between atoms: C_19  and  C_43
   12  A    between atoms: O_21  and  O_47
   13  A    between atoms: C_22  and  C_52
   14  A    between atoms: N_29  and  C_40
   15  A    between atoms: O_30  and  C_43
   16  A    between atoms: C_38  and  C_41
   17  A    between atoms: C_41  and  N_49
   18  A    between atoms: N_49  and  C_52
                            x       y       z     vdW  Elec       q    Type
                         _______ _______ _______ _____ _____    ______ ____

>  <TORSDO>
F 18

$$$$
=
 OpenBabel11042420533D

 52 57  0  0  1  0  0  0  0  0999 V2000
  160.7660  203.4840  152.2220 C   0  0  0  0  0  3  0  0  0  0  0  0
  162.0960  206.0970  153.9660 O   0  0  0  0  0  0  0  0  0  0  0  0
  160.8320  206.5570  154.3190 N   0  0  0  0  0  0  0  0  0  0  0  0
  161.5270  205.5360  149.2120 C   0  0  2  0  0  3  0  0  0  0  0  0
  161.2270  203.3530  149.6480 C   0  0  0  0  0  0  0  0  0  0  0  0
  161.1380  204.0380  150.9160 C   0  0  0  0  0  0  0  0  0  0  0  0
  161.4360  204.1780  148.6770 N   0  0  0  0  0  0  0  0  0  0  0  0
  161.0770  205.7420  153.1450 C   0  0  2  0  0  0  0  0  0  0  0  0
  161.3140  205.3280  150.6820 C   0  0  0  0  0  0  0  0  0  0  0  0
  160.7200  204.2880  153.2910 C   0  0  0  0  0  3  0  0  0  0  0  0
  161.1620  206.3890  151.7380 C   0  0  0  0  0  2  0  0  0  0  0  0
  160.8450  208.3000  153.9920 S   0  0  0  0  0  0  0  0  0  0  0  0
  160.1280  208.6610  155.5100 O   0  0  0  0  0  0  0  0  0  0  0  0
  159.5710  209.8440  155.3490 O   0  0  0  0  0  0  0  0  0  0  0  0
  160.4430  210.5540  154.5150 C   0  0  1  0  0  3  0  0  0  0  0  0
  159.9930  211.9450  154.1840 C   0  0  2  0  0  3  0  0  0  0  0  0
  160.9260  211.6790  155.2070 O   0  0  0  0  0  0  0  0  0  0  0  0
  158.7110  212.4730  154.7950 C   0  0  0  0  0  0  0  0  0  0  0  0
  158.6800  212.9750  155.9080 O   0  0  0  0  0  0  0  0  0  0  0  0
  157.4450  212.3250  154.0090 C   0  0  2  0  0  3  0  0  0  0  0  0
  157.1140  213.5720  153.3370 N   0  0  0  0  0  1  0  0  0  0  0  0
  156.1150  210.7040  155.0800 O   0  0  0  0  0  0  0  0  0  0  0  0
  156.3120  211.8930  154.8880 C   0  0  0  0  0  0  0  0  0  0  0  0
  155.5120  212.8160  155.4840 F   0  0  0  0  0  0  0  0  0  0  0  0
  161.1580  201.9670  149.4810 O   0  0  0  0  0  0  0  0  0  0  0  0
  160.5560  201.3490  148.3820 C   0  0  0  0  0  0  0  0  0  0  0  0
  159.3180  201.0930  148.4230 O   0  0  0  0  0  0  0  0  0  0  0  0
  161.3580  201.0550  147.1470 C   0  0  1  0  0  3  0  0  0  0  0  0
  161.4170  199.5580  146.8780 C   0  0  0  0  0  1  0  0  0  0  0  0
  159.8750  201.2880  145.0840 N   0  0  0  0  0  1  0  0  0  0  0  0
  160.8510  201.8370  145.9670 C   0  0  0  0  0  0  0  0  0  0  0  0
  161.1930  203.0440  145.8310 O   0  0  0  0  0  0  0  0  0  0  0  0
  160.4370  206.4160  148.6200 C   0  0  0  0  0  2  0  0  0  0  0  0
  160.7780  206.7670  147.1780 C   0  0  0  0  0  2  0  0  0  0  0  0
  161.4090  208.0770  147.1280 N   0  0  0  0  0  2  0  0  0  0  0  0
  162.2910  208.1620  148.2790 C   0  0  0  0  0  2  0  0  0  0  0  0
  161.5940  211.8490  150.3650 C   0  0  0  0  0  3  0  0  0  0  0  0
  161.7580  210.6600  151.0870 C   0  0  0  0  0  3  0  0  0  0  0  0
  161.8910  210.6280  148.2910 C   0  0  0  0  0  3  0  0  0  0  0  0
  161.9880  209.4550  150.4110 C   0  0  0  0  0  3  0  0  0  0  0  0
  162.0580  209.4400  149.0110 C   0  0  0  0  0  0  0  0  0  0  0  0
  161.6590  211.8360  148.9670 C   0  0  0  0  0  0  0  0  0  0  0  0
  160.6540  213.0820  147.0770 C   0  0  0  0  0  0  0  0  0  0  0  0
  162.2710  214.1190  148.5260 O   0  0  0  0  0  1  0  0  0  0  0  0
  161.4930  213.0510  148.2340 N   0  0  0  0  0  0  0  0  0  0  0  0
  159.4050  213.1730  147.2230 O   0  0  0  0  0  0  0  0  0  0  0  0
  162.5030  213.3540  145.5030 C   0  0  0  0  0  3  0  0  0  0  0  0
  163.1190  213.2760  144.1330 C   0  0  0  0  0  2  0  0  0  0  0  0
  161.2390  212.9690  145.7290 C   0  0  0  0  0  0  0  0  0  0  0  0
  160.8530  212.6210  143.3540 C   0  0  0  0  0  3  0  0  0  0  0  0
  162.1210  213.1640  143.1100 O   0  0  0  0  0  0  0  0  0  0  0  0
  160.4060  212.5050  144.6040 C   0  0  0  0  0  3  0  0  0  0  0  0
  1 10  2  0  0  0  0
  2  3  1  0  0  0  0
  4 33  1  6  0  0  0
  4  9  1  0  0  0  0
  5  6  1  0  0  0  0
  6  1  1  0  0  0  0
  7  4  1  0  0  0  0
  7  5  2  0  0  0  0
  8 11  1  6  0  0  0
  8 10  1  0  0  0  0
  8  2  1  0  0  0  0
  8  3  1  0  0  0  0
  9  6  2  0  0  0  0
  9 11  1  0  0  0  0
 12  3  1  0  0  0  0
 12 13  1  0  0  0  0
 14 13  1  0  0  0  0
 15 17  1  0  0  0  0
 15 14  1  1  0  0  0
 16 15  1  0  0  0  0
 16 18  1  1  0  0  0
 16 17  1  0  0  0  0
 18 19  2  0  0  0  0
 20 21  1  1  0  0  0
 20 18  1  0  0  0  0
 20 23  1  0  0  0  0
 23 22  2  0  0  0  0
 23 24  1  0  0  0  0
 25  5  1  0  0  0  0
 26 27  2  0  0  0  0
 26 25  1  0  0  0  0
 28 29  1  6  0  0  0
 28 26  1  0  0  0  0
 30 31  1  0  0  0  0
 31 28  1  0  0  0  0
 32 31  2  0  0  0  0
 34 33  1  0  0  0  0
 35 34  1  0  0  0  0
 35 36  1  0  0  0  0
 36 41  1  0  0  0  0
 37 38  1  0  0  0  0
 39 42  1  0  0  0  0
 39 41  2  0  0  0  0
 40 38  2  0  0  0  0
 41 40  1  0  0  0  0
 42 37  2  0  0  0  0
 43 46  2  0  0  0  0
 43 45  1  0  0  0  0
 45 44  1  0  0  0  0
 45 42  1  0  0  0  0
 47 49  2  0  0  0  0
 48 47  1  0  0  0  0
 49 43  1  0  0  0  0
 50 52  2  0  0  0  0
 51 50  1  0  0  0  0
 51 48  1  0  0  0  0
 52 49  1  0  0  0  0
M  END
>  <MODEL>
3

>  <REMARK>
 VINA RESULT:      -6.6      3.673     10.865
  Name = 
  18 active torsions:
  status: ('A' for Active; 'I' for Inactive)
    1  A    between atoms: S_1  and  N_11
    2  A    between atoms: S_1  and  O_21
    3  A    between atoms: C_3  and  O_47
    4  A    between atoms: C_9  and  C_32
    5  A    between atoms: C_12  and  C_38
    6  A    between atoms: C_13  and  C_18
    7  A    between atoms: C_14  and  O_30
    8  A    between atoms: C_17  and  C_18
    9  A    between atoms: C_17  and  C_25
   10  A    between atoms: C_19  and  C_34
   11  A    between atoms: C_19  and  C_43
   12  A    between atoms: O_21  and  O_47
   13  A    between atoms: C_22  and  C_52
   14  A    between atoms: N_29  and  C_40
   15  A    between atoms: O_30  and  C_43
   16  A    between atoms: C_38  and  C_41
   17  A    between atoms: C_41  and  N_49
   18  A    between atoms: N_49  and  C_52
                            x       y       z     vdW  Elec       q    Type
                         _______ _______ _______ _____ _____    ______ ____

>  <TORSDO>
F 18

$$$$
=
 OpenBabel11042420533D

 52 57  0  0  1  0  0  0  0  0999 V2000
  159.7400  213.6430  149.0300 C   0  0  0  0  0  3  0  0  0  0  0  0
  161.4010  214.3450  146.1340 O   0  0  0  0  0  0  0  0  0  0  0  0
  160.4020  213.7510  145.3700 N   0  0  0  0  0  0  0  0  0  0  0  0
  162.2020  210.8730  149.3800 C   0  0  2  0  0  3  0  0  0  0  0  0
  160.9010  212.0670  150.7700 C   0  0  0  0  0  0  0  0  0  0  0  0
  160.7050  212.6200  149.4500 C   0  0  0  0  0  0  0  0  0  0  0  0
  161.7320  211.0780  150.7500 N   0  0  0  0  0  0  0  0  0  0  0  0
  160.6480  213.4050  146.7570 C   0  0  2  0  0  0  0  0  0  0  0  0
  161.4650  211.9310  148.6150 C   0  0  0  0  0  0  0  0  0  0  0  0
  159.6940  214.0170  147.7460 C   0  0  0  0  0  3  0  0  0  0  0  0
  161.4380  212.1220  147.1220 C   0  0  0  0  0  2  0  0  0  0  0  0
  161.2400  212.7000  144.2140 S   0  0  0  0  0  0  0  0  0  0  0  0
  159.7670  212.2250  143.4700 O   0  0  0  0  0  0  0  0  0  0  0  0
  159.8930  212.5850  142.2090 O   0  0  0  0  0  0  0  0  0  0  0  0
  160.8160  211.6890  141.6580 C   0  0  1  0  0  3  0  0  0  0  0  0
  160.5820  211.3640  140.2140 C   0  0  2  0  0  3  0  0  0  0  0  0
  161.5210  212.3330  140.6240 O   0  0  0  0  0  0  0  0  0  0  0  0
  159.4450  212.0420  139.4770 C   0  0  0  0  0  0  0  0  0  0  0  0
  159.3570  213.2580  139.3960 O   0  0  0  0  0  0  0  0  0  0  0  0
  158.3820  211.1760  138.8750 C   0  0  2  0  0  3  0  0  0  0  0  0
  158.5580  211.0810  137.4350 N   0  0  0  0  0  1  0  0  0  0  0  0
  156.0460  211.2650  138.5950 O   0  0  0  0  0  0  0  0  0  0  0  0
  157.0150  211.6970  139.1970 C   0  0  0  0  0  0  0  0  0  0  0  0
  156.8460  212.6350  140.1670 F   0  0  0  0  0  0  0  0  0  0  0  0
  160.3200  212.5630  151.9400 O   0  0  0  0  0  0  0  0  0  0  0  0
  159.0630  212.1710  152.4070 C   0  0  0  0  0  0  0  0  0  0  0  0
  158.0290  212.5950  151.8150 O   0  0  0  0  0  0  0  0  0  0  0  0
  158.9490  211.2070  153.5530 C   0  0  1  0  0  3  0  0  0  0  0  0
  160.0290  210.1380  153.4750 C   0  0  0  0  0  1  0  0  0  0  0  0
  160.1130  212.5540  155.3800 N   0  0  0  0  0  1  0  0  0  0  0  0
  158.9370  211.9270  154.8730 C   0  0  0  0  0  0  0  0  0  0  0  0
  157.8420  212.0930  155.4780 O   0  0  0  0  0  0  0  0  0  0  0  0
  161.8280  209.4820  148.8920 C   0  0  0  0  0  2  0  0  0  0  0  0
  162.5230  208.4270  149.7420 C   0  0  0  0  0  2  0  0  0  0  0  0
  161.5600  207.8070  150.6390 N   0  0  0  0  0  2  0  0  0  0  0  0
  160.7650  206.8950  149.8350 C   0  0  0  0  0  2  0  0  0  0  0  0
  160.9230  202.9320  151.4810 C   0  0  0  0  0  3  0  0  0  0  0  0
  161.2260  204.0360  152.2900 C   0  0  0  0  0  3  0  0  0  0  0  0
  160.5140  204.4190  149.6100 C   0  0  0  0  0  3  0  0  0  0  0  0
  161.1740  205.3300  151.7580 C   0  0  0  0  0  3  0  0  0  0  0  0
  160.8140  205.5220  150.4170 C   0  0  0  0  0  0  0  0  0  0  0  0
  160.5680  203.1210  150.1410 C   0  0  0  0  0  0  0  0  0  0  0  0
  161.1590  201.5890  148.2860 C   0  0  0  0  0  0  0  0  0  0  0  0
  159.0310  201.4280  149.3980 O   0  0  0  0  0  1  0  0  0  0  0  0
  160.2580  201.9940  149.3190 N   0  0  0  0  0  0  0  0  0  0  0  0
  162.1730  200.9030  148.5870 O   0  0  0  0  0  0  0  0  0  0  0  0
  161.2500  203.2350  146.4830 C   0  0  0  0  0  3  0  0  0  0  0  0
  161.0000  203.6920  145.0720 C   0  0  0  0  0  2  0  0  0  0  0  0
  160.9260  202.0010  146.8910 C   0  0  0  0  0  0  0  0  0  0  0  0
  159.8380  201.5170  144.7710 C   0  0  0  0  0  3  0  0  0  0  0  0
  160.0470  202.8540  144.4060 O   0  0  0  0  0  0  0  0  0  0  0  0
  160.2580  201.0750  145.9550 C   0  0  0  0  0  3  0  0  0  0  0  0
  1  6  1  0  0  0  0
  2  8  1  0  0  0  0
  3  2  1  0  0  0  0
  3  8  1  0  0  0  0
  4 33  1  6  0  0  0
  4  7  1  0  0  0  0
  5 25  1  0  0  0  0
  6  5  1  0  0  0  0
  7  5  2  0  0  0  0
  8 11  1  1  0  0  0
  8 10  1  0  0  0  0
  9  4  1  0  0  0  0
  9  6  2  0  0  0  0
 10  1  2  0  0  0  0
 11  9  1  0  0  0  0
 12  3  1  0  0  0  0
 13 12  1  0  0  0  0
 14 13  1  0  0  0  0
 15 14  1  6  0  0  0
 16 18  1  6  0  0  0
 16 17  1  0  0  0  0
 16 15  1  0  0  0  0
 17 15  1  0  0  0  0
 19 18  2  0  0  0  0
 20 21  1  6  0  0  0
 20 23  1  0  0  0  0
 20 18  1  0  0  0  0
 22 23  2  0  0  0  0
 23 24  1  0  0  0  0
 25 26  1  0  0  0  0
 26 28  1  0  0  0  0
 27 26  2  0  0  0  0
 28 29  1  1  0  0  0
 28 31  1  0  0  0  0
 31 30  1  0  0  0  0
 31 32  2  0  0  0  0
 33 34  1  0  0  0  0
 34 35  1  0  0  0  0
 36 41  1  0  0  0  0
 36 35  1  0  0  0  0
 37 38  1  0  0  0  0
 39 42  1  0  0  0  0
 39 41  2  0  0  0  0
 40 38  2  0  0  0  0
 41 40  1  0  0  0  0
 42 37  2  0  0  0  0
 43 46  2  0  0  0  0
 43 45  1  0  0  0  0
 45 44  1  0  0  0  0
 45 42  1  0  0  0  0
 47 49  2  0  0  0  0
 48 47  1  0  0  0  0
 49 43  1  0  0  0  0
 50 52  2  0  0  0  0
 51 50  1  0  0  0  0
 51 48  1  0  0  0  0
 52 49  1  0  0  0  0
M  END
>  <MODEL>
4

>  <REMARK>
 VINA RESULT:      -5.9      1.551      2.032
  Name = 
  18 active torsions:
  status: ('A' for Active; 'I' for Inactive)
    1  A    between atoms: S_1  and  N_11
    2  A    between atoms: S_1  and  O_21
    3  A    between atoms: C_3  and  O_47
    4  A    between atoms: C_9  and  C_32
    5  A    between atoms: C_12  and  C_38
    6  A    between atoms: C_13  and  C_18
    7  A    between atoms: C_14  and  O_30
    8  A    between atoms: C_17  and  C_18
    9  A    between atoms: C_17  and  C_25
   10  A    between atoms: C_19  and  C_34
   11  A    between atoms: C_19  and  C_43
   12  A    between atoms: O_21  and  O_47
   13  A    between atoms: C_22  and  C_52
   14  A    between atoms: N_29  and  C_40
   15  A    between atoms: O_30  and  C_43
   16  A    between atoms: C_38  and  C_41
   17  A    between atoms: C_41  and  N_49
   18  A    between atoms: N_49  and  C_52
                            x       y       z     vdW  Elec       q    Type
                         _______ _______ _______ _____ _____    ______ ____

>  <TORSDO>
F 18

$$$$
=
 OpenBabel11042420533D

 52 57  0  0  1  0  0  0  0  0999 V2000
  160.6760  204.6360  148.6850 C   0  0  0  0  0  3  0  0  0  0  0  0
  162.6760  207.2490  149.5850 O   0  0  0  0  0  0  0  0  0  0  0  0
  161.6110  208.1420  149.5110 N   0  0  0  0  0  0  0  0  0  0  0  0
  162.2490  205.0200  145.3330 C   0  0  2  0  0  3  0  0  0  0  0  0
  161.2270  203.3680  146.4610 C   0  0  0  0  0  0  0  0  0  0  0  0
  161.2880  204.4970  147.3590 C   0  0  0  0  0  0  0  0  0  0  0  0
  161.7530  203.6440  145.3150 N   0  0  0  0  0  0  0  0  0  0  0  0
  161.6490  206.8930  148.7750 C   0  0  2  0  0  0  0  0  0  0  0  0
  161.8890  205.4830  146.7130 C   0  0  0  0  0  0  0  0  0  0  0  0
  160.8300  205.7780  149.3650 C   0  0  0  0  0  3  0  0  0  0  0  0
  162.0270  206.8750  147.2710 C   0  0  0  0  0  2  0  0  0  0  0  0
  162.2120  209.5320  148.5880 S   0  0  0  0  0  0  0  0  0  0  0  0
  162.1680  210.5550  149.9660 O   0  0  0  0  0  0  0  0  0  0  0  0
  161.9410  209.7470  150.9810 O   0  0  0  0  0  0  0  0  0  0  0  0
  161.3750  210.5510  151.9770 C   0  0  1  0  0  3  0  0  0  0  0  0
  160.7520  209.7920  153.1090 C   0  0  2  0  0  3  0  0  0  0  0  0
  162.0530  210.3290  153.1890 O   0  0  0  0  0  0  0  0  0  0  0  0
  160.8280  208.2790  153.1180 C   0  0  0  0  0  0  0  0  0  0  0  0
  160.4560  207.6040  152.1700 O   0  0  0  0  0  0  0  0  0  0  0  0
  161.3370  207.6080  154.3560 C   0  0  2  0  0  3  0  0  0  0  0  0
  161.1900  206.1650  154.2500 N   0  0  0  0  0  1  0  0  0  0  0  0
  161.2180  208.8260  156.3680 O   0  0  0  0  0  0  0  0  0  0  0  0
  160.6260  208.1140  155.5740 C   0  0  0  0  0  0  0  0  0  0  0  0
  159.3220  207.7970  155.7920 F   0  0  0  0  0  0  0  0  0  0  0  0
  160.7200  202.1080  146.7940 O   0  0  0  0  0  0  0  0  0  0  0  0
  160.9460  201.4830  148.0230 C   0  0  0  0  0  0  0  0  0  0  0  0
  161.8860  200.6440  148.1210 O   0  0  0  0  0  0  0  0  0  0  0  0
  160.1230  201.8550  149.2230 C   0  0  1  0  0  3  0  0  0  0  0  0
  158.7920  201.1180  149.2210 C   0  0  0  0  0  1  0  0  0  0  0  0
  161.1550  202.7450  151.3800 N   0  0  0  0  0  1  0  0  0  0  0  0
  160.8950  201.6560  150.4980 C   0  0  0  0  0  0  0  0  0  0  0  0
  161.2030  200.4860  150.8590 O   0  0  0  0  0  0  0  0  0  0  0  0
  161.5440  205.8540  144.2740 C   0  0  0  0  0  2  0  0  0  0  0  0
  162.0320  205.4570  142.8880 C   0  0  0  0  0  2  0  0  0  0  0  0
  161.5790  206.4340  141.9090 N   0  0  0  0  0  2  0  0  0  0  0  0
  162.4740  206.3300  140.7690 C   0  0  0  0  0  2  0  0  0  0  0  0
  161.1260  208.9010  137.6040 C   0  0  0  0  0  3  0  0  0  0  0  0
  161.7690  207.6950  137.2970 C   0  0  0  0  0  3  0  0  0  0  0  0
  161.3610  208.4200  139.9690 C   0  0  0  0  0  3  0  0  0  0  0  0
  162.2090  206.8520  138.3250 C   0  0  0  0  0  3  0  0  0  0  0  0
  162.0010  207.2130  139.6640 C   0  0  0  0  0  0  0  0  0  0  0  0
  160.9210  209.2660  138.9400 C   0  0  0  0  0  0  0  0  0  0  0  0
  161.0090  211.5970  139.7730 C   0  0  0  0  0  0  0  0  0  0  0  0
  158.9110  210.5550  139.2240 O   0  0  0  0  0  1  0  0  0  0  0  0
  160.2630  210.4950  139.2510 N   0  0  0  0  0  0  0  0  0  0  0  0
  161.6720  212.3230  138.9830 O   0  0  0  0  0  0  0  0  0  0  0  0
  159.8930  211.9330  141.9200 C   0  0  0  0  0  3  0  0  0  0  0  0
  159.8870  212.2240  143.3960 C   0  0  0  0  0  2  0  0  0  0  0  0
  161.0350  211.8580  141.2230 C   0  0  0  0  0  0  0  0  0  0  0  0
  162.3330  212.5800  143.1480 C   0  0  0  0  0  3  0  0  0  0  0  0
  161.1260  212.8000  143.8270 O   0  0  0  0  0  0  0  0  0  0  0  0
  162.3210  212.1180  141.8980 C   0  0  0  0  0  3  0  0  0  0  0  0
  1 10  2  0  0  0  0
  3  2  1  0  0  0  0
  4 33  1  6  0  0  0
  4  9  1  0  0  0  0
  5 25  1  0  0  0  0
  5  6  1  0  0  0  0
  6  1  1  0  0  0  0
  7  4  1  0  0  0  0
  7  5  2  0  0  0  0
  8 11  1  6  0  0  0
  8 10  1  0  0  0  0
  8  3  1  0  0  0  0
  8  2  1  0  0  0  0
  9 11  1  0  0  0  0
  9  6  2  0  0  0  0
 12  3  1  0  0  0  0
 12 13  1  0  0  0  0
 13 14  1  0  0  0  0
 15 14  1  6  0  0  0
 15 16  1  0  0  0  0
 15 17  1  0  0  0  0
 16 18  1  6  0  0  0
 16 17  1  0  0  0  0
 18 20  1  0  0  0  0
 19 18  2  0  0  0  0
 20 21  1  6  0  0  0
 20 23  1  0  0  0  0
 23 24  1  0  0  0  0
 23 22  2  0  0  0  0
 25 26  1  0  0  0  0
 26 27  2  0  0  0  0
 26 28  1  0  0  0  0
 28 29  1  1  0  0  0
 28 31  1  0  0  0  0
 31 32  2  0  0  0  0
 31 30  1  0  0  0  0
 34 33  1  0  0  0  0
 35 34  1  0  0  0  0
 36 35  1  0  0  0  0
 37 42  1  0  0  0  0
 38 37  2  0  0  0  0
 38 40  1  0  0  0  0
 40 41  2  0  0  0  0
 41 39  1  0  0  0  0
 41 36  1  0  0  0  0
 42 45  1  0  0  0  0
 42 39  2  0  0  0  0
 43 49  1  0  0  0  0
 44 45  1  0  0  0  0
 45 43  1  0  0  0  0
 46 43  2  0  0  0  0
 47 48  1  0  0  0  0
 48 51  1  0  0  0  0
 49 52  1  0  0  0  0
 49 47  2  0  0  0  0
 50 51  1  0  0  0  0
 52 50  2  0  0  0  0
M  END
>  <MODEL>
5

>  <REMARK>
 VINA RESULT:      -5.8      3.613     11.069
  Name = 
  18 active torsions:
  status: ('A' for Active; 'I' for Inactive)
    1  A    between atoms: S_1  and  N_11
    2  A    between atoms: S_1  and  O_21
    3  A    between atoms: C_3  and  O_47
    4  A    between atoms: C_9  and  C_32
    5  A    between atoms: C_12  and  C_38
    6  A    between atoms: C_13  and  C_18
    7  A    between atoms: C_14  and  O_30
    8  A    between atoms: C_17  and  C_18
    9  A    between atoms: C_17  and  C_25
   10  A    between atoms: C_19  and  C_34
   11  A    between atoms: C_19  and  C_43
   12  A    between atoms: O_21  and  O_47
   13  A    between atoms: C_22  and  C_52
   14  A    between atoms: N_29  and  C_40
   15  A    between atoms: O_30  and  C_43
   16  A    between atoms: C_38  and  C_41
   17  A    between atoms: C_41  and  N_49
   18  A    between atoms: N_49  and  C_52
                            x       y       z     vdW  Elec       q    Type
                         _______ _______ _______ _____ _____    ______ ____

>  <TORSDO>
F 18

$$$$
=
 OpenBabel11042420533D

 52 57  0  0  1  0  0  0  0  0999 V2000
  162.2990  211.0510  151.2120 C   0  0  0  0  0  3  0  0  0  0  0  0
  160.1310  209.2830  153.1640 O   0  0  0  0  0  0  0  0  0  0  0  0
  161.1780  208.7060  153.8750 N   0  0  0  0  0  0  0  0  0  0  0  0
  161.5790  208.4570  148.6420 C   0  0  2  0  0  3  0  0  0  0  0  0
  162.3060  210.5830  148.6360 C   0  0  0  0  0  0  0  0  0  0  0  0
  162.0250  210.2510  150.0130 C   0  0  0  0  0  0  0  0  0  0  0  0
  162.0710  209.5850  147.8510 N   0  0  0  0  0  0  0  0  0  0  0  0
  161.3240  209.2140  152.5240 C   0  0  2  0  0  0  0  0  0  0  0  0
  161.5930  209.0020  150.0390 C   0  0  0  0  0  0  0  0  0  0  0  0
  161.9820  210.5630  152.4170 C   0  0  0  0  0  3  0  0  0  0  0  0
  161.3200  208.2460  151.3120 C   0  0  0  0  0  2  0  0  0  0  0  0
  160.8120  206.9720  153.9480 S   0  0  0  0  0  0  0  0  0  0  0  0
  160.8500  206.9650  155.6650 O   0  0  0  0  0  0  0  0  0  0  0  0
  161.1020  208.2130  156.0030 O   0  0  0  0  0  0  0  0  0  0  0  0
  160.1590  208.5280  156.9870 C   0  0  1  0  0  3  0  0  0  0  0  0
  160.0020  209.9950  157.2530 C   0  0  2  0  0  3  0  0  0  0  0  0
  159.1240  209.2860  156.4080 O   0  0  0  0  0  0  0  0  0  0  0  0
  160.8040  210.9850  156.4330 C   0  0  0  0  0  0  0  0  0  0  0  0
  161.9430  210.7490  156.0600 O   0  0  0  0  0  0  0  0  0  0  0  0
  160.1750  212.3080  156.1190 C   0  0  2  0  0  3  0  0  0  0  0  0
  159.2120  212.6710  157.1470 N   0  0  0  0  0  1  0  0  0  0  0  0
  158.3150  212.0760  154.6940 O   0  0  0  0  0  0  0  0  0  0  0  0
  159.5140  212.2850  154.7750 C   0  0  0  0  0  0  0  0  0  0  0  0
  160.2390  212.5100  153.6470 F   0  0  0  0  0  0  0  0  0  0  0  0
  162.7230  211.8380  148.1840 O   0  0  0  0  0  0  0  0  0  0  0  0
  161.8480  212.8230  147.7190 C   0  0  0  0  0  0  0  0  0  0  0  0
  162.2610  213.6560  146.8620 O   0  0  0  0  0  0  0  0  0  0  0  0
  160.4200  212.8470  148.1830 C   0  0  1  0  0  3  0  0  0  0  0  0
  160.1140  214.1310  148.9390 C   0  0  0  0  0  1  0  0  0  0  0  0
  159.9460  212.1900  145.7630 N   0  0  0  0  0  1  0  0  0  0  0  0
  159.4700  212.6030  147.0420 C   0  0  0  0  0  0  0  0  0  0  0  0
  158.2270  212.6360  147.2540 O   0  0  0  0  0  0  0  0  0  0  0  0
  162.5150  207.2650  148.5080 C   0  0  0  0  0  2  0  0  0  0  0  0
  161.8110  206.1300  147.7770 C   0  0  0  0  0  2  0  0  0  0  0  0
  161.5510  206.5200  146.4000 N   0  0  0  0  0  2  0  0  0  0  0  0
  162.2170  205.5440  145.5550 C   0  0  0  0  0  2  0  0  0  0  0  0
  160.0280  201.8500  145.6090 C   0  0  0  0  0  3  0  0  0  0  0  0
  159.9680  202.6790  144.4810 C   0  0  0  0  0  3  0  0  0  0  0  0
  161.5170  203.4300  146.6890 C   0  0  0  0  0  3  0  0  0  0  0  0
  160.6820  203.8840  144.4580 C   0  0  0  0  0  3  0  0  0  0  0  0
  161.4610  204.2580  145.5620 C   0  0  0  0  0  0  0  0  0  0  0  0
  160.8020  202.2230  146.7150 C   0  0  0  0  0  0  0  0  0  0  0  0
  160.0570  201.6590  149.0090 C   0  0  0  0  0  0  0  0  0  0  0  0
  161.8120  200.4130  147.9320 O   0  0  0  0  0  1  0  0  0  0  0  0
  160.8620  201.3740  147.8620 N   0  0  0  0  0  0  0  0  0  0  0  0
  158.8420  201.3230  149.0080 O   0  0  0  0  0  0  0  0  0  0  0  0
  160.4390  203.6890  150.3130 C   0  0  0  0  0  3  0  0  0  0  0  0
  161.0350  204.4480  151.4670 C   0  0  0  0  0  2  0  0  0  0  0  0
  160.6320  202.3720  150.1630 C   0  0  0  0  0  0  0  0  0  0  0  0
  162.1960  202.3240  152.0240 C   0  0  0  0  0  3  0  0  0  0  0  0
  162.1070  203.7220  152.0810 O   0  0  0  0  0  0  0  0  0  0  0  0
  161.4910  201.6470  151.1190 C   0  0  0  0  0  3  0  0  0  0  0  0
  1 10  2  0  0  0  0
  2  3  1  0  0  0  0
  3 12  1  0  0  0  0
  4 33  1  1  0  0  0
  4  9  1  0  0  0  0
  5  6  1  0  0  0  0
  6  9  2  0  0  0  0
  6  1  1  0  0  0  0
  7  5  2  0  0  0  0
  7  4  1  0  0  0  0
  8 11  1  6  0  0  0
  8  2  1  0  0  0  0
  8  3  1  0  0  0  0
  9 11  1  0  0  0  0
 10  8  1  0  0  0  0
 12 13  1  0  0  0  0
 13 14  1  0  0  0  0
 15 14  1  6  0  0  0
 15 16  1  0  0  0  0
 16 18  1  6  0  0  0
 17 15  1  0  0  0  0
 17 16  1  0  0  0  0
 19 18  2  0  0  0  0
 20 18  1  0  0  0  0
 20 21  1  1  0  0  0
 22 23  2  0  0  0  0
 23 20  1  0  0  0  0
 24 23  1  0  0  0  0
 25  5  1  0  0  0  0
 26 28  1  0  0  0  0
 26 25  1  0  0  0  0
 27 26  2  0  0  0  0
 28 29  1  6  0  0  0
 30 31  1  0  0  0  0
 31 32  2  0  0  0  0
 31 28  1  0  0  0  0
 34 33  1  0  0  0  0
 35 34  1  0  0  0  0
 36 41  1  0  0  0  0
 36 35  1  0  0  0  0
 37 42  1  0  0  0  0
 38 37  2  0  0  0  0
 39 42  2  0  0  0  0
 40 38  1  0  0  0  0
 40 41  2  0  0  0  0
 41 39  1  0  0  0  0
 42 45  1  0  0  0  0
 43 49  1  0  0  0  0
 45 44  1  0  0  0  0
 45 43  1  0  0  0  0
 46 43  2  0  0  0  0
 47 48  1  0  0  0  0
 48 51  1  0  0  0  0
 49 47  2  0  0  0  0
 49 52  1  0  0  0  0
 50 51  1  0  0  0  0
 52 50  2  0  0  0  0
M  END
>  <MODEL>
6

>  <REMARK>
 VINA RESULT:      -5.5      3.967      8.979
  Name = 
  18 active torsions:
  status: ('A' for Active; 'I' for Inactive)
    1  A    between atoms: S_1  and  N_11
    2  A    between atoms: S_1  and  O_21
    3  A    between atoms: C_3  and  O_47
    4  A    between atoms: C_9  and  C_32
    5  A    between atoms: C_12  and  C_38
    6  A    between atoms: C_13  and  C_18
    7  A    between atoms: C_14  and  O_30
    8  A    between atoms: C_17  and  C_18
    9  A    between atoms: C_17  and  C_25
   10  A    between atoms: C_19  and  C_34
   11  A    between atoms: C_19  and  C_43
   12  A    between atoms: O_21  and  O_47
   13  A    between atoms: C_22  and  C_52
   14  A    between atoms: N_29  and  C_40
   15  A    between atoms: O_30  and  C_43
   16  A    between atoms: C_38  and  C_41
   17  A    between atoms: C_41  and  N_49
   18  A    between atoms: N_49  and  C_52
                            x       y       z     vdW  Elec       q    Type
                         _______ _______ _______ _____ _____    ______ ____

>  <TORSDO>
F 18

$$$$
=
 OpenBabel11042420533D

 52 57  0  0  1  0  0  0  0  0999 V2000
  160.7060  204.8120  149.0520 C   0  0  0  0  0  3  0  0  0  0  0  0
  162.6760  207.4270  150.0070 O   0  0  0  0  0  0  0  0  0  0  0  0
  161.6100  208.3160  149.9180 N   0  0  0  0  0  0  0  0  0  0  0  0
  162.3410  205.2230  145.7330 C   0  0  2  0  0  3  0  0  0  0  0  0
  161.3040  203.5600  146.8320 C   0  0  0  0  0  0  0  0  0  0  0  0
  161.3440  204.6840  147.7370 C   0  0  0  0  0  0  0  0  0  0  0  0
  161.8510  203.8460  145.6970 N   0  0  0  0  0  0  0  0  0  0  0  0
  161.6670  207.0720  149.1750 C   0  0  2  0  0  0  0  0  0  0  0  0
  161.9530  205.6760  147.1100 C   0  0  0  0  0  0  0  0  0  0  0  0
  160.8410  205.9500  149.7420 C   0  0  0  0  0  3  0  0  0  0  0  0
  162.0740  207.0650  147.6780 C   0  0  0  0  0  2  0  0  0  0  0  0
  162.2220  209.7140  149.0150 S   0  0  0  0  0  0  0  0  0  0  0  0
  162.2880  210.6870  150.4290 O   0  0  0  0  0  0  0  0  0  0  0  0
  161.8740  209.8990  151.4010 O   0  0  0  0  0  0  0  0  0  0  0  0
  160.6180  210.3930  151.7690 C   0  0  1  0  0  3  0  0  0  0  0  0
  160.3050  210.2730  153.2290 C   0  0  2  0  0  3  0  0  0  0  0  0
  160.7890  211.4690  152.6590 O   0  0  0  0  0  0  0  0  0  0  0  0
  161.3490  209.7010  154.1660 C   0  0  0  0  0  0  0  0  0  0  0  0
  162.3130  210.3520  154.5400 O   0  0  0  0  0  0  0  0  0  0  0  0
  161.1990  208.2750  154.5990 C   0  0  2  0  0  3  0  0  0  0  0  0
  160.8320  207.4360  153.4690 N   0  0  0  0  0  1  0  0  0  0  0  0
  159.7960  209.1470  156.2770 O   0  0  0  0  0  0  0  0  0  0  0  0
  160.1820  208.1490  155.6910 C   0  0  0  0  0  0  0  0  0  0  0  0
  159.6750  206.9310  156.0220 F   0  0  0  0  0  0  0  0  0  0  0  0
  160.7960  202.2960  147.1460 O   0  0  0  0  0  0  0  0  0  0  0  0
  161.0190  201.6550  148.3680 C   0  0  0  0  0  0  0  0  0  0  0  0
  161.9170  200.7680  148.4410 O   0  0  0  0  0  0  0  0  0  0  0  0
  160.2450  202.0640  149.5880 C   0  0  1  0  0  3  0  0  0  0  0  0
  158.9970  201.2080  149.7540 C   0  0  0  0  0  1  0  0  0  0  0  0
  160.8010  202.8760  151.9420 N   0  0  0  0  0  1  0  0  0  0  0  0
  161.1160  202.0630  150.8140 C   0  0  0  0  0  0  0  0  0  0  0  0
  162.0640  201.2350  150.8990 O   0  0  0  0  0  0  0  0  0  0  0  0
  161.6530  206.0610  144.6670 C   0  0  0  0  0  2  0  0  0  0  0  0
  161.8310  205.4130  143.3000 C   0  0  0  0  0  2  0  0  0  0  0  0
  161.5320  206.3810  142.2550 N   0  0  0  0  0  2  0  0  0  0  0  0
  162.5340  206.2010  141.2190 C   0  0  0  0  0  2  0  0  0  0  0  0
  161.7000  208.7830  137.8900 C   0  0  0  0  0  3  0  0  0  0  0  0
  161.9530  207.4230  137.6710 C   0  0  0  0  0  3  0  0  0  0  0  0
  161.9860  208.4490  140.2750 C   0  0  0  0  0  3  0  0  0  0  0  0
  162.2240  206.5760  138.7540 C   0  0  0  0  0  3  0  0  0  0  0  0
  162.2360  207.0890  140.0580 C   0  0  0  0  0  0  0  0  0  0  0  0
  161.7160  209.2990  139.1920 C   0  0  0  0  0  0  0  0  0  0  0  0
  160.4730  211.0880  140.3700 C   0  0  0  0  0  0  0  0  0  0  0  0
  162.0040  211.6080  138.5880 O   0  0  0  0  0  1  0  0  0  0  0  0
  161.4550  210.6860  139.4130 N   0  0  0  0  0  0  0  0  0  0  0  0
  160.7750  211.1030  141.5940 O   0  0  0  0  0  0  0  0  0  0  0  0
  158.5430  212.5860  140.3490 C   0  0  0  0  0  3  0  0  0  0  0  0
  157.1460  212.9650  139.9430 C   0  0  0  0  0  2  0  0  0  0  0  0
  159.1120  211.4460  139.9350 C   0  0  0  0  0  0  0  0  0  0  0  0
  157.0380  210.7130  138.8990 C   0  0  0  0  0  3  0  0  0  0  0  0
  156.4100  211.8330  139.4610 O   0  0  0  0  0  0  0  0  0  0  0  0
  158.3380  210.5060  139.1010 C   0  0  0  0  0  3  0  0  0  0  0  0
  1 10  2  0  0  0  0
  3  2  1  0  0  0  0
  4 33  1  6  0  0  0
  4  9  1  0  0  0  0
  5 25  1  0  0  0  0
  5  6  1  0  0  0  0
  6  1  1  0  0  0  0
  7  4  1  0  0  0  0
  7  5  2  0  0  0  0
  8 11  1  6  0  0  0
  8 10  1  0  0  0  0
  8  3  1  0  0  0  0
  8  2  1  0  0  0  0
  9 11  1  0  0  0  0
  9  6  2  0  0  0  0
 12  3  1  0  0  0  0
 12 13  1  0  0  0  0
 13 14  1  0  0  0  0
 15 14  1  1  0  0  0
 15 17  1  0  0  0  0
 15 16  1  0  0  0  0
 16 18  1  1  0  0  0
 17 16  1  0  0  0  0
 18 19  2  0  0  0  0
 18 20  1  0  0  0  0
 20 21  1  6  0  0  0
 20 23  1  0  0  0  0
 23 24  1  0  0  0  0
 23 22  2  0  0  0  0
 25 26  1  0  0  0  0
 26 27  2  0  0  0  0
 26 28  1  0  0  0  0
 28 29  1  1  0  0  0
 28 31  1  0  0  0  0
 31 32  2  0  0  0  0
 31 30  1  0  0  0  0
 34 33  1  0  0  0  0
 35 34  1  0  0  0  0
 36 35  1  0  0  0  0
 37 42  1  0  0  0  0
 38 37  2  0  0  0  0
 38 40  1  0  0  0  0
 40 41  2  0  0  0  0
 41 39  1  0  0  0  0
 41 36  1  0  0  0  0
 42 45  1  0  0  0  0
 42 39  2  0  0  0  0
 43 46  2  0  0  0  0
 44 45  1  0  0  0  0
 45 43  1  0  0  0  0
 48 47  1  0  0  0  0
 49 47  2  0  0  0  0
 49 43  1  0  0  0  0
 50 52  2  0  0  0  0
 50 51  1  0  0  0  0
 51 48  1  0  0  0  0
 52 49  1  0  0  0  0
M  END
>  <MODEL>
7

>  <REMARK>
 VINA RESULT:      -5.3      3.607     11.013
  Name = 
  18 active torsions:
  status: ('A' for Active; 'I' for Inactive)
    1  A    between atoms: S_1  and  N_11
    2  A    between atoms: S_1  and  O_21
    3  A    between atoms: C_3  and  O_47
    4  A    between atoms: C_9  and  C_32
    5  A    between atoms: C_12  and  C_38
    6  A    between atoms: C_13  and  C_18
    7  A    between atoms: C_14  and  O_30
    8  A    between atoms: C_17  and  C_18
    9  A    between atoms: C_17  and  C_25
   10  A    between atoms: C_19  and  C_34
   11  A    between atoms: C_19  and  C_43
   12  A    between atoms: O_21  and  O_47
   13  A    between atoms: C_22  and  C_52
   14  A    between atoms: N_29  and  C_40
   15  A    between atoms: O_30  and  C_43
   16  A    between atoms: C_38  and  C_41
   17  A    between atoms: C_41  and  N_49
   18  A    between atoms: N_49  and  C_52
                            x       y       z     vdW  Elec       q    Type
                         _______ _______ _______ _____ _____    ______ ____

>  <TORSDO>
F 18

$$$$
=
 OpenBabel11042420533D

 52 57  0  0  1  0  0  0  0  0999 V2000
  160.8470  214.2910  149.8280 C   0  0  0  0  0  3  0  0  0  0  0  0
  158.1550  213.3740  151.7110 O   0  0  0  0  0  0  0  0  0  0  0  0
  158.8800  213.5170  152.8890 N   0  0  0  0  0  0  0  0  0  0  0  0
  161.1890  210.6490  149.1400 C   0  0  2  0  0  3  0  0  0  0  0  0
  161.8150  212.5530  148.1250 C   0  0  0  0  0  0  0  0  0  0  0  0
  161.0540  212.9420  149.2890 C   0  0  0  0  0  0  0  0  0  0  0  0
  161.9100  211.2690  148.0290 N   0  0  0  0  0  0  0  0  0  0  0  0
  159.5010  213.2550  151.6050 C   0  0  2  0  0  0  0  0  0  0  0  0
  160.6730  211.8340  149.9020 C   0  0  0  0  0  0  0  0  0  0  0  0
  160.1200  214.4530  150.9390 C   0  0  0  0  0  3  0  0  0  0  0  0
  159.9680  211.8240  151.2320 C   0  0  0  0  0  2  0  0  0  0  0  0
  158.5540  212.0530  153.8350 S   0  0  0  0  0  0  0  0  0  0  0  0
  159.7030  212.4880  155.0350 O   0  0  0  0  0  0  0  0  0  0  0  0
  160.5030  211.4460  155.1310 O   0  0  0  0  0  0  0  0  0  0  0  0
  160.4490  211.0590  156.4750 C   0  0  1  0  0  3  0  0  0  0  0  0
  161.1520  209.7710  156.7800 C   0  0  2  0  0  3  0  0  0  0  0  0
  161.7550  211.0270  156.9970 O   0  0  0  0  0  0  0  0  0  0  0  0
  161.8840  209.0450  155.6690 C   0  0  0  0  0  0  0  0  0  0  0  0
  162.9300  209.4640  155.1980 O   0  0  0  0  0  0  0  0  0  0  0  0
  161.2630  207.8000  155.1160 C   0  0  2  0  0  3  0  0  0  0  0  0
  160.5790  208.0850  153.8640 N   0  0  0  0  0  1  0  0  0  0  0  0
  160.7390  206.7160  157.1400 O   0  0  0  0  0  0  0  0  0  0  0  0
  160.3120  207.1890  156.0990 C   0  0  0  0  0  0  0  0  0  0  0  0
  158.9760  207.1720  155.8460 F   0  0  0  0  0  0  0  0  0  0  0  0
  162.3390  213.4380  147.1790 O   0  0  0  0  0  0  0  0  0  0  0  0
  162.0130  213.4010  145.8210 C   0  0  0  0  0  0  0  0  0  0  0  0
  162.8220  212.8660  145.0100 O   0  0  0  0  0  0  0  0  0  0  0  0
  160.6910  213.9320  145.3460 C   0  0  1  0  0  3  0  0  0  0  0  0
  160.7870  214.4320  143.9130 C   0  0  0  0  0  1  0  0  0  0  0  0
  158.7370  212.9650  146.6720 N   0  0  0  0  0  1  0  0  0  0  0  0
  159.5960  212.9190  145.5350 C   0  0  0  0  0  0  0  0  0  0  0  0
  159.3460  212.0970  144.6100 O   0  0  0  0  0  0  0  0  0  0  0  0
  162.1360  209.8190  149.9940 C   0  0  0  0  0  2  0  0  0  0  0  0
  162.3920  208.4740  149.3280 C   0  0  0  0  0  2  0  0  0  0  0  0
  162.0840  207.3990  150.2590 N   0  0  0  0  0  2  0  0  0  0  0  0
  160.9410  206.6870  149.7130 C   0  0  0  0  0  2  0  0  0  0  0  0
  160.4950  202.8910  151.6690 C   0  0  0  0  0  3  0  0  0  0  0  0
  160.6830  204.0500  152.4320 C   0  0  0  0  0  3  0  0  0  0  0  0
  160.5930  204.2130  149.6390 C   0  0  0  0  0  3  0  0  0  0  0  0
  160.8270  205.2910  151.7990 C   0  0  0  0  0  3  0  0  0  0  0  0
  160.7780  205.3730  150.4000 C   0  0  0  0  0  0  0  0  0  0  0  0
  160.4500  202.9700  150.2720 C   0  0  0  0  0  0  0  0  0  0  0  0
  161.2220  201.4050  148.5140 C   0  0  0  0  0  0  0  0  0  0  0  0
  159.0760  201.1290  149.5650 O   0  0  0  0  0  1  0  0  0  0  0  0
  160.2570  201.7850  149.4970 N   0  0  0  0  0  0  0  0  0  0  0  0
  162.2750  200.8150  148.8790 O   0  0  0  0  0  0  0  0  0  0  0  0
  160.9730  203.0100  146.6880 C   0  0  0  0  0  3  0  0  0  0  0  0
  160.7300  203.3760  145.2500 C   0  0  0  0  0  2  0  0  0  0  0  0
  161.0080  201.7330  147.0940 C   0  0  0  0  0  0  0  0  0  0  0  0
  160.3270  200.9510  144.8940 C   0  0  0  0  0  3  0  0  0  0  0  0
  160.1490  202.2890  144.5190 O   0  0  0  0  0  0  0  0  0  0  0  0
  160.7490  200.6530  146.1220 C   0  0  0  0  0  3  0  0  0  0  0  0
  1 10  2  0  0  0  0
  2  3  1  0  0  0  0
  3 12  1  0  0  0  0
  4  9  1  0  0  0  0
  4 33  1  1  0  0  0
  5  6  1  0  0  0  0
  6  1  1  0  0  0  0
  6  9  2  0  0  0  0
  7  5  2  0  0  0  0
  7  4  1  0  0  0  0
  8 10  1  6  0  0  0
  8  2  1  0  0  0  0
  8  3  1  0  0  0  0
  9 11  1  0  0  0  0
 11  8  1  0  0  0  0
 12 13  1  0  0  0  0
 13 14  1  0  0  0  0
 15 14  1  6  0  0  0
 15 16  1  0  0  0  0
 15 17  1  0  0  0  0
 16 18  1  6  0  0  0
 16 17  1  0  0  0  0
 19 18  2  0  0  0  0
 20 21  1  6  0  0  0
 20 18  1  0  0  0  0
 20 23  1  0  0  0  0
 23 22  2  0  0  0  0
 24 23  1  0  0  0  0
 25  5  1  0  0  0  0
 26 25  1  0  0  0  0
 27 26  2  0  0  0  0
 28 29  1  6  0  0  0
 28 31  1  0  0  0  0
 28 26  1  0  0  0  0
 31 30  1  0  0  0  0
 32 31  2  0  0  0  0
 34 33  1  0  0  0  0
 34 35  1  0  0  0  0
 36 35  1  0  0  0  0
 36 41  1  0  0  0  0
 37 38  1  0  0  0  0
 39 42  1  0  0  0  0
 39 41  2  0  0  0  0
 40 38  2  0  0  0  0
 41 40  1  0  0  0  0
 42 37  2  0  0  0  0
 43 46  2  0  0  0  0
 43 45  1  0  0  0  0
 45 44  1  0  0  0  0
 45 42  1  0  0  0  0
 47 49  2  0  0  0  0
 48 47  1  0  0  0  0
 49 43  1  0  0  0  0
 50 52  2  0  0  0  0
 51 50  1  0  0  0  0
 51 48  1  0  0  0  0
 52 49  1  0  0  0  0
M  END
>  <MODEL>
8

>  <REMARK>
 VINA RESULT:      -4.9      3.438      8.475
  Name = 
  18 active torsions:
  status: ('A' for Active; 'I' for Inactive)
    1  A    between atoms: S_1  and  N_11
    2  A    between atoms: S_1  and  O_21
    3  A    between atoms: C_3  and  O_47
    4  A    between atoms: C_9  and  C_32
    5  A    between atoms: C_12  and  C_38
    6  A    between atoms: C_13  and  C_18
    7  A    between atoms: C_14  and  O_30
    8  A    between atoms: C_17  and  C_18
    9  A    between atoms: C_17  and  C_25
   10  A    between atoms: C_19  and  C_34
   11  A    between atoms: C_19  and  C_43
   12  A    between atoms: O_21  and  O_47
   13  A    between atoms: C_22  and  C_52
   14  A    between atoms: N_29  and  C_40
   15  A    between atoms: O_30  and  C_43
   16  A    between atoms: C_38  and  C_41
   17  A    between atoms: C_41  and  N_49
   18  A    between atoms: N_49  and  C_52
                            x       y       z     vdW  Elec       q    Type
                         _______ _______ _______ _____ _____    ______ ____

>  <TORSDO>
F 18

$$$$
=
 OpenBabel11042420533D

 52 57  0  0  1  0  0  0  0  0999 V2000
  161.0520  203.9600  148.1190 C   0  0  0  0  0  3  0  0  0  0  0  0
  160.5010  204.9240  144.8940 O   0  0  0  0  0  0  0  0  0  0  0  0
  161.8370  204.7220  144.5630 N   0  0  0  0  0  0  0  0  0  0  0  0
  160.9810  207.6050  148.8720 C   0  0  2  0  0  3  0  0  0  0  0  0
  160.6270  205.7080  150.0220 C   0  0  0  0  0  0  0  0  0  0  0  0
  160.8840  205.3150  148.6570 C   0  0  0  0  0  0  0  0  0  0  0  0
  160.6860  206.9900  150.1650 N   0  0  0  0  0  0  0  0  0  0  0  0
  161.3900  204.9960  145.9150 C   0  0  2  0  0  0  0  0  0  0  0  0
  161.0940  206.4190  147.9600 C   0  0  0  0  0  0  0  0  0  0  0  0
  161.3070  203.7940  146.8160 C   0  0  0  0  0  3  0  0  0  0  0  0
  161.5260  206.4190  146.5180 C   0  0  0  0  0  2  0  0  0  0  0  0
  162.3370  206.1700  143.6700 S   0  0  0  0  0  0  0  0  0  0  0  0
  161.5610  205.6380  142.2330 O   0  0  0  0  0  0  0  0  0  0  0  0
  161.6010  206.6750  141.4220 O   0  0  0  0  0  0  0  0  0  0  0  0
  162.2330  206.2140  140.2620 C   0  0  1  0  0  3  0  0  0  0  0  0
  162.0460  207.0920  139.0610 C   0  0  2  0  0  3  0  0  0  0  0  0
  163.2040  207.1510  139.8630 O   0  0  0  0  0  0  0  0  0  0  0  0
  161.2670  208.3830  139.2020 C   0  0  0  0  0  0  0  0  0  0  0  0
  160.0780  208.4590  138.9320 O   0  0  0  0  0  0  0  0  0  0  0  0
  162.0090  209.6060  139.6480 C   0  0  2  0  0  3  0  0  0  0  0  0
  161.2510  210.3180  140.6650 N   0  0  0  0  0  1  0  0  0  0  0  0
  162.3180  210.0570  137.3580 O   0  0  0  0  0  0  0  0  0  0  0  0
  162.3020  210.5100  138.4910 C   0  0  0  0  0  0  0  0  0  0  0  0
  162.5350  211.8340  138.6930 F   0  0  0  0  0  0  0  0  0  0  0  0
  160.2950  204.8300  151.0580 O   0  0  0  0  0  0  0  0  0  0  0  0
  161.1990  204.4130  152.0390 C   0  0  0  0  0  0  0  0  0  0  0  0
  161.2830  203.1820  152.3120 O   0  0  0  0  0  0  0  0  0  0  0  0
  162.1010  205.4100  152.7080 C   0  0  1  0  0  3  0  0  0  0  0  0
  163.1340  205.9520  151.7310 C   0  0  0  0  0  1  0  0  0  0  0  0
  160.4530  206.2110  154.4840 N   0  0  0  0  0  1  0  0  0  0  0  0
  161.3100  206.4980  153.3810 C   0  0  0  0  0  0  0  0  0  0  0  0
  161.5080  207.7000  153.0520 O   0  0  0  0  0  0  0  0  0  0  0  0
  162.2920  208.3740  148.9340 C   0  0  0  0  0  2  0  0  0  0  0  0
  162.0170  209.8720  148.9040 C   0  0  0  0  0  2  0  0  0  0  0  0
  161.7300  210.3460  150.2500 N   0  0  0  0  0  2  0  0  0  0  0  0
  161.7530  211.7970  150.1970 C   0  0  0  0  0  2  0  0  0  0  0  0
  158.1140  213.4000  151.8180 C   0  0  0  0  0  3  0  0  0  0  0  0
  158.5210  213.7610  150.5260 C   0  0  0  0  0  3  0  0  0  0  0  0
  160.0770  211.9940  152.0400 C   0  0  0  0  0  3  0  0  0  0  0  0
  159.7060  213.2390  149.9930 C   0  0  0  0  0  3  0  0  0  0  0  0
  160.4830  212.3520  150.7490 C   0  0  0  0  0  0  0  0  0  0  0  0
  158.8910  212.5170  152.5770 C   0  0  0  0  0  0  0  0  0  0  0  0
  159.3470  212.3490  155.0060 C   0  0  0  0  0  0  0  0  0  0  0  0
  157.3290  211.4450  154.0570 O   0  0  0  0  0  1  0  0  0  0  0  0
  158.4730  212.1490  153.8920 N   0  0  0  0  0  0  0  0  0  0  0  0
  159.4410  213.4980  155.5170 O   0  0  0  0  0  0  0  0  0  0  0  0
  161.4410  211.1010  155.1630 C   0  0  0  0  0  3  0  0  0  0  0  0
  162.2870  209.9600  155.6570 C   0  0  0  0  0  2  0  0  0  0  0  0
  160.1580  211.2350  155.5250 C   0  0  0  0  0  0  0  0  0  0  0  0
  160.1920  209.0890  156.6690 C   0  0  0  0  0  3  0  0  0  0  0  0
  161.4830  208.8870  156.1630 O   0  0  0  0  0  0  0  0  0  0  0  0
  159.5340  210.2130  156.3880 C   0  0  0  0  0  3  0  0  0  0  0  0
  1  6  1  0  0  0  0
  2  8  1  0  0  0  0
  3  2  1  0  0  0  0
  3  8  1  0  0  0  0
  4 33  1  1  0  0  0
  4  7  1  0  0  0  0
  5  7  2  0  0  0  0
  5 25  1  0  0  0  0
  6  5  1  0  0  0  0
  8 11  1  1  0  0  0
  8 10  1  0  0  0  0
  9  6  2  0  0  0  0
  9  4  1  0  0  0  0
 10  1  2  0  0  0  0
 11  9  1  0  0  0  0
 12  3  1  0  0  0  0
 13 12  1  0  0  0  0
 14 13  1  0  0  0  0
 15 14  1  1  0  0  0
 16 18  1  1  0  0  0
 16 17  1  0  0  0  0
 16 15  1  0  0  0  0
 17 15  1  0  0  0  0
 18 20  1  0  0  0  0
 19 18  2  0  0  0  0
 20 21  1  1  0  0  0
 22 23  2  0  0  0  0
 23 24  1  0  0  0  0
 23 20  1  0  0  0  0
 25 26  1  0  0  0  0
 26 27  2  0  0  0  0
 26 28  1  0  0  0  0
 28 29  1  6  0  0  0
 28 31  1  0  0  0  0
 31 30  1  0  0  0  0
 32 31  2  0  0  0  0
 34 33  1  0  0  0  0
 34 35  1  0  0  0  0
 36 35  1  0  0  0  0
 36 41  1  0  0  0  0
 37 42  1  0  0  0  0
 38 37  2  0  0  0  0
 39 42  2  0  0  0  0
 40 38  1  0  0  0  0
 40 41  2  0  0  0  0
 41 39  1  0  0  0  0
 42 45  1  0  0  0  0
 43 46  2  0  0  0  0
 43 49  1  0  0  0  0
 45 44  1  0  0  0  0
 45 43  1  0  0  0  0
 47 49  2  0  0  0  0
 47 48  1  0  0  0  0
 48 51  1  0  0  0  0
 49 52  1  0  0  0  0
 51 50  1  0  0  0  0
 52 50  2  0  0  0  0
M  END
>  <MODEL>
9

>  <REMARK>
 VINA RESULT:      -4.9      3.393      8.219
  Name = 
  18 active torsions:
  status: ('A' for Active; 'I' for Inactive)
    1  A    between atoms: S_1  and  N_11
    2  A    between atoms: S_1  and  O_21
    3  A    between atoms: C_3  and  O_47
    4  A    between atoms: C_9  and  C_32
    5  A    between atoms: C_12  and  C_38
    6  A    between atoms: C_13  and  C_18
    7  A    between atoms: C_14  and  O_30
    8  A    between atoms: C_17  and  C_18
    9  A    between atoms: C_17  and  C_25
   10  A    between atoms: C_19  and  C_34
   11  A    between atoms: C_19  and  C_43
   12  A    between atoms: O_21  and  O_47
   13  A    between atoms: C_22  and  C_52
   14  A    between atoms: N_29  and  C_40
   15  A    between atoms: O_30  and  C_43
   16  A    between atoms: C_38  and  C_41
   17  A    between atoms: C_41  and  N_49
   18  A    between atoms: N_49  and  C_52
                            x       y       z     vdW  Elec       q    Type
                         _______ _______ _______ _____ _____    ______ ____

>  <TORSDO>
F 18

$$$$
