=
 OpenBabel11052411563D

 32 36  0  0  1  0  0  0  0  0999 V2000
  156.7870  213.3690  153.2510 O   0  0  0  0  0  1  0  0  0  0  0  0
  161.3450  210.3300  151.9160 N   0  0  0  0  0  0  0  0  0  0  0  0
  161.1240  208.0500  151.0420 C   0  0  0  0  0  0  0  0  0  0  0  0
  161.4870  209.1330  155.4440 C   0  0  0  0  0  2  0  0  0  0  0  0
  157.9580  212.7610  153.7160 C   0  0  2  0  0  0  0  0  0  0  0  0
  157.8260  211.8760  154.8630 C   0  0  2  0  0  3  0  0  0  0  0  0
  159.7370  210.9800  153.5600 C   0  0  0  0  0  0  0  0  0  0  0  0
  160.6670  210.0950  153.1500 C   0  0  0  0  0  0  0  0  0  0  0  0
  158.4280  213.2210  155.0380 N   0  0  0  0  0  0  0  0  0  0  0  0
  159.7310  210.7500  156.0720 C   0  0  0  0  0  0  0  0  0  0  0  0
  157.2280  214.1800  155.8710 Cl  0  0  0  0  0  0  0  0  0  0  0  0
  161.2130  207.7610  153.5080 N   0  0  0  0  0  0  0  0  0  0  0  0
  161.6320  209.4420  151.0140 C   0  0  0  0  0  0  0  0  0  0  0  0
  161.2050  210.5150  156.0190 C   0  0  0  0  0  2  0  0  0  0  0  0
  161.1010  208.9570  153.9960 C   0  0  0  0  0  0  0  0  0  0  0  0
  160.9660  207.3280  152.1640 C   0  0  0  0  0  3  0  0  0  0  0  0
  158.9110  210.7950  154.8050 C   0  0  1  0  0  3  0  0  0  0  0  0
  159.2880  212.3850  152.5480 S   0  0  0  0  0  0  0  0  0  0  0  0
  159.1820  210.8260  157.1580 O   0  0  0  0  0  0  0  0  0  0  0  0
  162.3040  209.9210  149.7700 C   0  0  0  0  0  2  0  0  0  0  0  0
  162.1970  211.3100  149.6790 O   0  0  0  0  0  0  0  0  0  0  0  0
  162.2060  211.5790  148.3090 C   0  0  0  0  0  2  0  0  0  0  0  0
  160.2320  212.1480  147.1160 O   0  0  0  0  0  1  0  0  0  0  0  0
  161.1890  212.6570  147.9920 C   0  0  0  0  0  3  0  0  0  0  0  0
  160.5650  213.0760  149.1660 O   0  0  0  0  0  1  0  0  0  0  0  0
  160.8410  207.4580  149.8020 O   0  0  0  0  0  0  0  0  0  0  0  0
  161.5840  206.3800  149.2410 C   0  0  1  0  0  3  0  0  0  0  0  0
  160.6980  205.1400  149.1460 C   0  0  0  0  0  2  0  0  0  0  0  0
  161.6240  204.5450  146.9170 C   0  0  0  0  0  2  0  0  0  0  0  0
  162.1520  206.7790  147.8980 C   0  0  0  0  0  3  0  0  0  0  0  0
  161.4200  204.0610  148.3500 C   0  0  0  0  0  2  0  0  0  0  0  0
  162.2130  205.9310  146.8610 C   0  0  0  0  0  3  0  0  0  0  0  0
  2  8  1  0  0  0  0
  3 16  2  0  0  0  0
  4 14  1  0  0  0  0
  5  1  1  6  0  0  0
  5  6  1  0  0  0  0
  5  9  1  0  0  0  0
  6  9  1  1  0  0  0
  8  7  2  0  0  0  0
  8 15  1  0  0  0  0
  9 11  1  0  0  0  0
 10 19  2  0  0  0  0
 12 15  2  0  0  0  0
 13  3  1  0  0  0  0
 13  2  2  0  0  0  0
 14 10  1  0  0  0  0
 15  4  1  0  0  0  0
 16 12  1  0  0  0  0
 17  7  1  6  0  0  0
 17  6  1  0  0  0  0
 17 10  1  0  0  0  0
 18  7  1  0  0  0  0
 18  5  1  0  0  0  0
 20 13  1  0  0  0  0
 21 20  1  0  0  0  0
 22 21  1  0  0  0  0
 23 24  1  0  0  0  0
 24 22  1  0  0  0  0
 24 25  1  0  0  0  0
 26  3  1  0  0  0  0
 27 26  1  6  0  0  0
 28 27  1  0  0  0  0
 29 31  1  0  0  0  0
 30 27  1  0  0  0  0
 31 28  1  0  0  0  0
 32 29  1  0  0  0  0
 32 30  2  0  0  0  0
M  END
>  <MODEL>
1

>  <REMARK>
 VINA RESULT:      -7.7      0.000      0.000
  Name = 
  6 active torsions:
  status: ('A' for Active; 'I' for Inactive)
    1  A    between atoms: C_2  and  O_28
    2  A    between atoms: C_3  and  O_14
    3  A    between atoms: C_3  and  C_23
    4  A    between atoms: C_5  and  O_28
    5  A    between atoms: O_14  and  C_16
    6  A    between atoms: C_16  and  C_24
                            x       y       z     vdW  Elec       q    Type
                         _______ _______ _______ _____ _____    ______ ____

>  <TORSDO>
F 6

$$$$
=
 OpenBabel11052411563D

 32 36  0  0  1  0  0  0  0  0999 V2000
  157.7240  212.9780  152.3410 O   0  0  0  0  0  1  0  0  0  0  0  0
  161.6840  208.9640  152.2760 N   0  0  0  0  0  0  0  0  0  0  0  0
  161.0720  206.5970  152.0940 C   0  0  0  0  0  0  0  0  0  0  0  0
  161.5470  208.8760  156.0010 C   0  0  0  0  0  2  0  0  0  0  0  0
  158.7580  212.3520  153.0440 C   0  0  2  0  0  0  0  0  0  0  0  0
  158.4490  211.8870  154.3880 C   0  0  2  0  0  3  0  0  0  0  0  0
  160.1910  210.3360  153.5410 C   0  0  0  0  0  0  0  0  0  0  0  0
  160.9530  209.2270  153.4740 C   0  0  0  0  0  0  0  0  0  0  0  0
  159.2810  213.1030  154.2040 N   0  0  0  0  0  0  0  0  0  0  0  0
  160.1000  210.8750  156.0040 C   0  0  0  0  0  0  0  0  0  0  0  0
  158.2580  214.4530  154.6330 Cl  0  0  0  0  0  0  0  0  0  0  0  0
  161.0650  207.0510  154.5370 N   0  0  0  0  0  0  0  0  0  0  0  0
  161.8220  207.8120  151.6960 C   0  0  0  0  0  0  0  0  0  0  0  0
  161.5080  210.3930  156.1260 C   0  0  0  0  0  2  0  0  0  0  0  0
  161.1610  208.3400  154.6450 C   0  0  0  0  0  0  0  0  0  0  0  0
  160.7670  206.2820  153.3650 C   0  0  0  0  0  3  0  0  0  0  0  0
  159.3230  210.6740  154.7250 C   0  0  1  0  0  3  0  0  0  0  0  0
  160.0200  211.4270  152.1340 S   0  0  0  0  0  0  0  0  0  0  0  0
  159.5550  211.3640  156.9780 O   0  0  0  0  0  0  0  0  0  0  0  0
  162.5900  207.7760  150.4160 C   0  0  0  0  0  2  0  0  0  0  0  0
  161.7090  207.7980  149.3340 O   0  0  0  0  0  0  0  0  0  0  0  0
  162.4300  207.2400  148.2770 C   0  0  0  0  0  2  0  0  0  0  0  0
  160.2000  206.6210  147.7430 O   0  0  0  0  0  1  0  0  0  0  0  0
  161.5330  206.3180  147.4760 C   0  0  0  0  0  3  0  0  0  0  0  0
  161.7810  206.4850  146.1130 O   0  0  0  0  0  1  0  0  0  0  0  0
  160.7080  205.7160  151.0640 O   0  0  0  0  0  0  0  0  0  0  0  0
  161.3530  204.4720  150.8100 C   0  0  1  0  0  3  0  0  0  0  0  0
  160.9920  203.4720  151.9060 C   0  0  0  0  0  2  0  0  0  0  0  0
  160.7720  201.6210  150.2620 C   0  0  0  0  0  2  0  0  0  0  0  0
  160.9890  203.9650  149.4330 C   0  0  0  0  0  3  0  0  0  0  0  0
  161.5000  202.0900  151.5190 C   0  0  0  0  0  2  0  0  0  0  0  0
  160.7730  202.6670  149.1780 C   0  0  0  0  0  3  0  0  0  0  0  0
  2  8  1  0  0  0  0
  3 16  2  0  0  0  0
  4 14  1  0  0  0  0
  5  1  1  6  0  0  0
  5  9  1  0  0  0  0
  5  6  1  0  0  0  0
  6  9  1  1  0  0  0
  6 17  1  0  0  0  0
  8  7  2  0  0  0  0
  8 15  1  0  0  0  0
  9 11  1  0  0  0  0
 10 14  1  0  0  0  0
 10 19  2  0  0  0  0
 12 15  2  0  0  0  0
 13  3  1  0  0  0  0
 13  2  2  0  0  0  0
 15  4  1  0  0  0  0
 16 12  1  0  0  0  0
 17  7  1  6  0  0  0
 17 10  1  0  0  0  0
 18  5  1  0  0  0  0
 18  7  1  0  0  0  0
 20 13  1  0  0  0  0
 21 20  1  0  0  0  0
 22 21  1  0  0  0  0
 24 23  1  0  0  0  0
 24 22  1  0  0  0  0
 25 24  1  0  0  0  0
 26  3  1  0  0  0  0
 27 26  1  1  0  0  0
 27 28  1  0  0  0  0
 29 31  1  0  0  0  0
 30 27  1  0  0  0  0
 31 28  1  0  0  0  0
 32 30  2  0  0  0  0
 32 29  1  0  0  0  0
M  END
>  <MODEL>
2

>  <REMARK>
 VINA RESULT:      -7.4      2.119      2.924
  Name = 
  6 active torsions:
  status: ('A' for Active; 'I' for Inactive)
    1  A    between atoms: C_2  and  O_28
    2  A    between atoms: C_3  and  O_14
    3  A    between atoms: C_3  and  C_23
    4  A    between atoms: C_5  and  O_28
    5  A    between atoms: O_14  and  C_16
    6  A    between atoms: C_16  and  C_24
                            x       y       z     vdW  Elec       q    Type
                         _______ _______ _______ _____ _____    ______ ____

>  <TORSDO>
F 6

$$$$
=
 OpenBabel11052411563D

 32 36  0  0  1  0  0  0  0  0999 V2000
  160.3360  203.8260  152.7750 O   0  0  0  0  0  1  0  0  0  0  0  0
  162.0490  209.1290  153.6350 N   0  0  0  0  0  0  0  0  0  0  0  0
  160.4270  210.9260  154.0210 C   0  0  0  0  0  0  0  0  0  0  0  0
  162.0000  209.6620  149.9460 C   0  0  0  0  0  2  0  0  0  0  0  0
  160.9960  204.9370  152.2400 C   0  0  2  0  0  0  0  0  0  0  0  0
  160.5510  205.3970  150.9340 C   0  0  2  0  0  3  0  0  0  0  0  0
  161.3770  207.4260  152.0980 C   0  0  2  0  0  3  0  0  0  0  0  0
  161.5520  208.7370  152.3550 C   0  0  0  0  0  0  0  0  0  0  0  0
  161.8360  204.6650  151.0560 N   0  0  0  0  0  0  0  0  0  0  0  0
  161.6140  207.2500  149.5930 C   0  0  0  0  0  0  0  0  0  0  0  0
  161.5480  203.0750  150.3910 Cl  0  0  0  0  0  0  0  0  0  0  0  0
  160.7000  210.8600  151.5530 N   0  0  0  0  0  0  0  0  0  0  0  0
  161.6330  210.1290  154.3490 C   0  0  1  0  0  3  0  0  0  0  0  0
  162.6550  208.3190  149.6520 C   0  0  0  0  0  2  0  0  0  0  0  0
  161.3720  209.7770  151.3130 C   0  0  0  0  0  0  0  0  0  0  0  0
  160.0520  211.2460  152.7710 C   0  0  0  0  0  3  0  0  0  0  0  0
  160.7920  206.9060  150.8120 C   0  0  1  0  0  3  0  0  0  0  0  0
  161.6750  206.1900  153.3560 S   0  0  0  0  0  0  0  0  0  0  0  0
  161.3780  206.7100  148.5260 O   0  0  0  0  0  0  0  0  0  0  0  0
  162.2640  210.3250  155.6880 C   0  0  0  0  0  2  0  0  0  0  0  0
  162.1910  209.1400  156.4230 O   0  0  0  0  0  0  0  0  0  0  0  0
  161.0860  209.3080  157.2600 C   0  0  0  0  0  2  0  0  0  0  0  0
  159.4830  208.0900  156.0000 O   0  0  0  0  0  1  0  0  0  0  0  0
  160.2010  208.0800  157.1940 C   0  0  0  0  0  3  0  0  0  0  0  0
  160.9870  206.9290  157.2500 O   0  0  0  0  0  1  0  0  0  0  0  0
  159.6740  211.4020  155.1050 O   0  0  0  0  0  0  0  0  0  0  0  0
  158.4050  212.0380  154.9810 C   0  0  1  0  0  3  0  0  0  0  0  0
  157.3010  211.0690  155.3970 C   0  0  0  0  0  2  0  0  0  0  0  0
  156.0520  212.8640  156.5780 C   0  0  0  0  0  2  0  0  0  0  0  0
  158.3780  213.3140  155.7910 C   0  0  0  0  0  3  0  0  0  0  0  0
  155.9760  211.8130  155.4740 C   0  0  0  0  0  2  0  0  0  0  0  0
  157.2950  213.7100  156.4750 C   0  0  0  0  0  3  0  0  0  0  0  0
  2 13  1  0  0  0  0
  3 13  1  0  0  0  0
  3 26  1  0  0  0  0
  4 15  1  0  0  0  0
  5  1  1  1  0  0  0
  5 18  1  0  0  0  0
  6  9  1  6  0  0  0
  6  5  1  0  0  0  0
  7  8  1  1  0  0  0
  7 18  1  0  0  0  0
  8  2  2  0  0  0  0
  9  5  1  0  0  0  0
 10 14  1  0  0  0  0
 11  9  1  0  0  0  0
 12 16  1  0  0  0  0
 13 20  1  1  0  0  0
 14  4  1  0  0  0  0
 15 12  2  0  0  0  0
 15  8  1  0  0  0  0
 16  3  2  0  0  0  0
 17 10  1  6  0  0  0
 17  6  1  0  0  0  0
 17  7  1  0  0  0  0
 19 10  2  0  0  0  0
 20 21  1  0  0  0  0
 21 22  1  0  0  0  0
 23 24  1  0  0  0  0
 24 25  1  0  0  0  0
 24 22  1  0  0  0  0
 27 26  1  1  0  0  0
 27 28  1  0  0  0  0
 27 30  1  0  0  0  0
 28 31  1  0  0  0  0
 30 32  2  0  0  0  0
 31 29  1  0  0  0  0
 32 29  1  0  0  0  0
M  END
>  <MODEL>
3

>  <REMARK>
 VINA RESULT:      -5.8      3.708      8.353
  Name = 
  6 active torsions:
  status: ('A' for Active; 'I' for Inactive)
    1  A    between atoms: C_2  and  O_28
    2  A    between atoms: C_3  and  O_14
    3  A    between atoms: C_3  and  C_23
    4  A    between atoms: C_5  and  O_28
    5  A    between atoms: O_14  and  C_16
    6  A    between atoms: C_16  and  C_24
                            x       y       z     vdW  Elec       q    Type
                         _______ _______ _______ _____ _____    ______ ____

>  <TORSDO>
F 6

$$$$
=
 OpenBabel11052411563D

 32 36  0  0  1  0  0  0  0  0999 V2000
  160.0360  203.9290  151.5220 O   0  0  0  0  0  1  0  0  0  0  0  0
  162.2730  209.0410  152.3320 N   0  0  0  0  0  0  0  0  0  0  0  0
  160.8400  210.9990  152.6810 C   0  0  0  0  0  0  0  0  0  0  0  0
  162.3080  209.5280  148.6360 C   0  0  0  0  0  2  0  0  0  0  0  0
  160.8100  204.9600  150.9790 C   0  0  2  0  0  0  0  0  0  0  0  0
  160.4250  205.4460  149.6630 C   0  0  2  0  0  3  0  0  0  0  0  0
  161.4440  207.3960  150.8100 C   0  0  2  0  0  3  0  0  0  0  0  0
  161.7500  208.6860  151.0530 C   0  0  0  0  0  0  0  0  0  0  0  0
  161.6270  204.5890  149.8070 N   0  0  0  0  0  0  0  0  0  0  0  0
  161.6810  207.1630  148.3100 C   0  0  0  0  0  0  0  0  0  0  0  0
  161.1840  203.0270  149.1590 Cl  0  0  0  0  0  0  0  0  0  0  0  0
  161.1250  210.8730  150.2160 N   0  0  0  0  0  0  0  0  0  0  0  0
  161.9560  210.0880  153.0300 C   0  0  1  0  0  3  0  0  0  0  0  0
  162.8250  208.1210  148.3650 C   0  0  0  0  0  2  0  0  0  0  0  0
  161.6840  209.7250  149.9960 C   0  0  0  0  0  0  0  0  0  0  0  0
  160.5090  211.3390  151.4240 C   0  0  0  0  0  3  0  0  0  0  0  0
  160.8190  206.9210  149.5250 C   0  0  1  0  0  3  0  0  0  0  0  0
  161.6040  206.1520  152.0860 S   0  0  0  0  0  0  0  0  0  0  0  0
  161.4000  206.6360  147.2470 O   0  0  0  0  0  0  0  0  0  0  0  0
  162.5930  210.2360  154.3720 C   0  0  0  0  0  2  0  0  0  0  0  0
  161.8670  209.5160  155.3220 O   0  0  0  0  0  0  0  0  0  0  0  0
  162.2120  210.0920  156.5460 C   0  0  0  0  0  2  0  0  0  0  0  0
  160.9190  211.9580  157.2430 O   0  0  0  0  0  1  0  0  0  0  0  0
  160.9620  210.5660  157.2600 C   0  0  0  0  0  3  0  0  0  0  0  0
  159.8320  210.0600  156.6170 O   0  0  0  0  0  1  0  0  0  0  0  0
  160.1310  211.5640  153.7520 O   0  0  0  0  0  0  0  0  0  0  0  0
  158.8780  212.2290  153.6210 C   0  0  1  0  0  3  0  0  0  0  0  0
  157.7990  211.4430  154.3610 C   0  0  0  0  0  2  0  0  0  0  0  0
  156.7550  213.5260  155.2270 C   0  0  0  0  0  2  0  0  0  0  0  0
  158.9870  213.6530  154.1160 C   0  0  0  0  0  3  0  0  0  0  0  0
  156.5160  212.2620  154.4060 C   0  0  0  0  0  2  0  0  0  0  0  0
  158.0050  214.2540  154.8020 C   0  0  0  0  0  3  0  0  0  0  0  0
  2 13  1  0  0  0  0
  3 13  1  0  0  0  0
  3 26  1  0  0  0  0
  4 15  1  0  0  0  0
  5  1  1  1  0  0  0
  5 18  1  0  0  0  0
  6  9  1  6  0  0  0
  6  5  1  0  0  0  0
  7  8  1  1  0  0  0
  7 18  1  0  0  0  0
  8  2  2  0  0  0  0
  9  5  1  0  0  0  0
 10 14  1  0  0  0  0
 11  9  1  0  0  0  0
 12 16  1  0  0  0  0
 13 20  1  1  0  0  0
 14  4  1  0  0  0  0
 15 12  2  0  0  0  0
 15  8  1  0  0  0  0
 16  3  2  0  0  0  0
 17 10  1  6  0  0  0
 17  6  1  0  0  0  0
 17  7  1  0  0  0  0
 19 10  2  0  0  0  0
 20 21  1  0  0  0  0
 21 22  1  0  0  0  0
 22 24  1  0  0  0  0
 23 24  1  0  0  0  0
 25 24  1  0  0  0  0
 27 26  1  1  0  0  0
 27 30  1  0  0  0  0
 27 28  1  0  0  0  0
 28 31  1  0  0  0  0
 30 32  2  0  0  0  0
 31 29  1  0  0  0  0
 32 29  1  0  0  0  0
M  END
>  <MODEL>
4

>  <REMARK>
 VINA RESULT:      -5.1      3.654      8.215
  Name = 
  6 active torsions:
  status: ('A' for Active; 'I' for Inactive)
    1  A    between atoms: C_2  and  O_28
    2  A    between atoms: C_3  and  O_14
    3  A    between atoms: C_3  and  C_23
    4  A    between atoms: C_5  and  O_28
    5  A    between atoms: O_14  and  C_16
    6  A    between atoms: C_16  and  C_24
                            x       y       z     vdW  Elec       q    Type
                         _______ _______ _______ _____ _____    ______ ____

>  <TORSDO>
F 6

$$$$
