=
 OpenBabel11042421053D

 36 39  0  0  1  0  0  0  0  0999 V2000
  160.9740  207.1490  151.5850 C   0  0  1  0  0  3  0  0  0  0  0  0
  160.4630  206.5100  153.8310 O   0  0  0  0  0  0  0  0  0  0  0  0
  161.7030  204.9530  152.6470 N   0  0  0  0  0  2  0  0  0  0  0  0
  161.0020  206.1930  152.7430 C   0  0  0  0  0  0  0  0  0  0  0  0
  161.8020  204.2250  151.4270 C   0  0  0  0  0  3  0  0  0  0  0  0
  160.9550  203.2400  151.1490 C   0  0  0  0  0  3  0  0  0  0  0  0
  161.0160  201.1360  149.8020 C   0  0  0  0  0  3  0  0  0  0  0  0
  161.0630  203.2760  148.6750 C   0  0  0  0  0  3  0  0  0  0  0  0
  161.2140  202.6220  147.4470 C   0  0  0  0  0  3  0  0  0  0  0  0
  161.2550  201.2310  147.3950 C   0  0  0  0  0  3  0  0  0  0  0  0
  160.9880  202.5350  149.8590 C   0  0  0  0  0  0  0  0  0  0  0  0
  161.1360  200.4850  148.5730 C   0  0  0  0  0  3  0  0  0  0  0  0
  162.1590  208.1240  151.5200 C   0  0  0  0  0  2  0  0  0  0  0  0
  162.1180  211.0710  155.1650 C   0  0  0  0  0  1  0  0  0  0  0  0
  160.0060  211.3850  153.8090 C   0  0  0  0  0  0  0  0  0  0  0  0
  158.0010  212.3210  154.0490 C   0  0  0  0  0  0  0  0  0  0  0  0
  159.2750  211.2980  152.5190 C   0  0  1  0  0  3  0  0  0  0  0  0
  161.7280  209.4540  152.0470 C   0  0  0  0  0  0  0  0  0  0  0  0
  161.2770  210.7470  154.0230 N   0  0  0  0  0  0  0  0  0  0  0  0
  156.8370  213.0030  154.6770 C   0  0  0  0  0  1  0  0  0  0  0  0
  161.1660  211.8080  150.9690 C   0  0  0  0  0  3  0  0  0  0  0  0
  161.5610  209.5600  153.3350 N   0  0  0  0  0  0  0  0  0  0  0  0
  159.2550  212.0180  154.7040 C   0  0  0  0  0  0  0  0  0  0  0  0
  157.9910  211.9100  152.8280 N   0  0  0  0  0  0  0  0  0  0  0  0
  161.8970  210.5850  151.1700 N   0  0  0  0  0  2  0  0  0  0  0  0
  160.0020  212.1380  151.5310 C   0  0  0  0  0  3  0  0  0  0  0  0
  159.8080  212.4420  157.2570 C   0  0  0  0  0  3  0  0  0  0  0  0
  159.5530  212.2520  156.0950 C   0  0  0  0  0  0  0  0  0  0  0  0
  160.5540  206.5470  150.3710 O   0  0  0  0  0  0  0  0  0  0  0  0
  161.0870  207.2260  149.2550 C   0  0  0  0  0  2  0  0  0  0  0  0
  161.0050  206.4430  148.1000 O   0  0  0  0  0  0  0  0  0  0  0  0
  162.2320  206.6130  147.4480 C   0  0  0  0  0  2  0  0  0  0  0  0
  162.2550  205.8550  146.1260 C   0  0  0  0  0  2  0  0  0  0  0  0
  161.0620  205.8790  144.0800 O   0  0  0  0  0  0  0  0  0  0  0  0
  160.8840  205.8810  145.4750 C   0  0  1  0  0  3  0  0  0  0  0  0
  160.6870  204.6620  144.6670 C   0  0  0  0  0  2  0  0  0  0  0  0
  1 13  1  6  0  0  0
  1  4  1  0  0  0  0
  3  4  1  0  0  0  0
  4  2  2  0  0  0  0
  5  3  1  0  0  0  0
  6  5  2  0  0  0  0
  7 11  1  0  0  0  0
  8 11  2  0  0  0  0
  9  8  1  0  0  0  0
 10  9  2  0  0  0  0
 10 12  1  0  0  0  0
 11  6  1  0  0  0  0
 12  7  2  0  0  0  0
 13 18  1  0  0  0  0
 15 19  1  0  0  0  0
 15 23  2  0  0  0  0
 16 20  1  0  0  0  0
 16 23  1  0  0  0  0
 17 26  1  6  0  0  0
 17 24  1  0  0  0  0
 17 15  1  0  0  0  0
 18 22  2  0  0  0  0
 19 14  1  0  0  0  0
 21 25  1  0  0  0  0
 21 26  2  0  0  0  0
 22 19  1  0  0  0  0
 23 28  1  0  0  0  0
 24 16  2  0  0  0  0
 25 18  1  0  0  0  0
 28 27  3  0  0  0  0
 29  1  1  0  0  0  0
 30 29  1  0  0  0  0
 31 30  1  0  0  0  0
 32 31  1  0  0  0  0
 33 32  1  0  0  0  0
 34 36  1  0  0  0  0
 34 35  1  0  0  0  0
 35 33  1  1  0  0  0
 36 35  1  0  0  0  0
M  END
>  <MODEL>
1

>  <REMARK>
 VINA RESULT:      -7.1      0.000      0.000
  Name = 
  12 active torsions:
  status: ('A' for Active; 'I' for Inactive)
    1  A    between atoms: C_3  and  C_12
    2  A    between atoms: C_3  and  C_17
    3  A    between atoms: C_6  and  N_26
    4  A    between atoms: C_7  and  C_34
    5  A    between atoms: O_8  and  C_22
    6  A    between atoms: O_8  and  C_30
    7  A    between atoms: C_17  and  C_28
    8  A    between atoms: C_17  and  O_31
    9  A    between atoms: C_18  and  C_25
   10  A    between atoms: C_22  and  O_31
   11  A    between atoms: C_25  and  C_30
   12  A    between atoms: C_27  and  C_32
                            x       y       z     vdW  Elec       q    Type
                         _______ _______ _______ _____ _____    ______ ____

>  <TORSDO>
F 12

$$$$
=
 OpenBabel11042421053D

 36 39  0  0  1  0  0  0  0  0999 V2000
  161.3650  210.0800  152.1150 C   0  0  1  0  0  3  0  0  0  0  0  0
  162.7840  210.4290  154.0060 O   0  0  0  0  0  0  0  0  0  0  0  0
  160.6400  211.2680  154.2460 N   0  0  0  0  0  2  0  0  0  0  0  0
  161.6560  210.6150  153.4880 C   0  0  0  0  0  0  0  0  0  0  0  0
  159.6200  212.0540  153.6380 C   0  0  0  0  0  3  0  0  0  0  0  0
  158.3850  212.0680  154.1270 C   0  0  0  0  0  3  0  0  0  0  0  0
  156.0710  213.0130  154.1490 C   0  0  0  0  0  3  0  0  0  0  0  0
  157.6040  213.6510  152.3890 C   0  0  0  0  0  3  0  0  0  0  0  0
  156.5870  214.3900  151.7760 C   0  0  0  0  0  3  0  0  0  0  0  0
  155.3210  214.4510  152.3520 C   0  0  0  0  0  3  0  0  0  0  0  0
  157.3420  212.9400  153.5650 C   0  0  0  0  0  0  0  0  0  0  0  0
  155.0670  213.7770  153.5530 C   0  0  0  0  0  3  0  0  0  0  0  0
  160.4010  208.8850  152.0740 C   0  0  0  0  0  2  0  0  0  0  0  0
  162.3750  207.0900  148.2200 C   0  0  0  0  0  1  0  0  0  0  0  0
  161.3290  205.2260  149.5730 C   0  0  0  0  0  0  0  0  0  0  0  0
  160.7220  203.1040  149.2860 C   0  0  0  0  0  0  0  0  0  0  0  0
  160.8720  204.6760  150.8740 C   0  0  1  0  0  3  0  0  0  0  0  0
  161.0960  207.7160  151.4550 C   0  0  0  0  0  0  0  0  0  0  0  0
  161.6560  206.6150  149.3930 N   0  0  0  0  0  0  0  0  0  0  0  0
  160.4440  201.8020  148.6220 C   0  0  0  0  0  1  0  0  0  0  0  0
  162.5850  205.7220  152.3600 C   0  0  0  0  0  3  0  0  0  0  0  0
  160.9850  207.5720  150.1640 N   0  0  0  0  0  0  0  0  0  0  0  0
  161.2650  204.2800  148.6420 C   0  0  0  0  0  0  0  0  0  0  0  0
  160.4820  203.3140  150.5340 N   0  0  0  0  0  0  0  0  0  0  0  0
  162.1200  207.0780  152.2430 N   0  0  0  0  0  2  0  0  0  0  0  0
  162.0440  204.6440  151.7880 C   0  0  0  0  0  3  0  0  0  0  0  0
  161.7900  204.5170  146.0580 C   0  0  0  0  0  3  0  0  0  0  0  0
  161.5460  204.4100  147.2340 C   0  0  0  0  0  0  0  0  0  0  0  0
  161.1860  211.0990  151.1440 O   0  0  0  0  0  0  0  0  0  0  0  0
  162.0350  210.8990  150.0340 C   0  0  0  0  0  2  0  0  0  0  0  0
  161.6410  211.6850  148.9480 O   0  0  0  0  0  0  0  0  0  0  0  0
  162.8310  212.1530  148.3770 C   0  0  0  0  0  2  0  0  0  0  0  0
  162.5620  212.8290  147.0380 C   0  0  0  0  0  2  0  0  0  0  0  0
  160.5880  214.0340  146.5280 O   0  0  0  0  0  0  0  0  0  0  0  0
  161.0910  212.7300  146.6780 C   0  0  1  0  0  3  0  0  0  0  0  0
  160.8570  213.3240  145.3480 C   0  0  0  0  0  2  0  0  0  0  0  0
  1 13  1  1  0  0  0
  1  4  1  0  0  0  0
  4  2  2  0  0  0  0
  4  3  1  0  0  0  0
  5  6  2  0  0  0  0
  5  3  1  0  0  0  0
  8 11  2  0  0  0  0
  9 10  2  0  0  0  0
  9  8  1  0  0  0  0
 10 12  1  0  0  0  0
 11  6  1  0  0  0  0
 11  7  1  0  0  0  0
 12  7  2  0  0  0  0
 14 19  1  0  0  0  0
 15 17  1  0  0  0  0
 16 24  2  0  0  0  0
 17 26  1  1  0  0  0
 18 13  1  0  0  0  0
 18 25  1  0  0  0  0
 19 15  1  0  0  0  0
 19 22  1  0  0  0  0
 20 16  1  0  0  0  0
 22 18  2  0  0  0  0
 23 16  1  0  0  0  0
 23 15  2  0  0  0  0
 24 17  1  0  0  0  0
 25 21  1  0  0  0  0
 26 21  2  0  0  0  0
 27 28  3  0  0  0  0
 28 23  1  0  0  0  0
 29  1  1  0  0  0  0
 30 29  1  0  0  0  0
 31 30  1  0  0  0  0
 32 31  1  0  0  0  0
 33 32  1  0  0  0  0
 34 35  1  0  0  0  0
 35 33  1  6  0  0  0
 36 34  1  0  0  0  0
 36 35  1  0  0  0  0
M  END
>  <MODEL>
2

>  <REMARK>
 VINA RESULT:      -6.9      2.940      8.921
  Name = 
  12 active torsions:
  status: ('A' for Active; 'I' for Inactive)
    1  A    between atoms: C_3  and  C_12
    2  A    between atoms: C_3  and  C_17
    3  A    between atoms: C_6  and  N_26
    4  A    between atoms: C_7  and  C_34
    5  A    between atoms: O_8  and  C_22
    6  A    between atoms: O_8  and  C_30
    7  A    between atoms: C_17  and  C_28
    8  A    between atoms: C_17  and  O_31
    9  A    between atoms: C_18  and  C_25
   10  A    between atoms: C_22  and  O_31
   11  A    between atoms: C_25  and  C_30
   12  A    between atoms: C_27  and  C_32
                            x       y       z     vdW  Elec       q    Type
                         _______ _______ _______ _____ _____    ______ ____

>  <TORSDO>
F 12

$$$$
=
 OpenBabel11042421053D

 36 39  0  0  1  0  0  0  0  0999 V2000
  161.6530  210.0240  149.6340 C   0  0  1  0  0  3  0  0  0  0  0  0
  161.1400  211.0620  151.7250 O   0  0  0  0  0  0  0  0  0  0  0  0
  162.0690  208.9490  151.9040 N   0  0  0  0  0  2  0  0  0  0  0  0
  161.5770  210.0450  151.1340 C   0  0  0  0  0  0  0  0  0  0  0  0
  162.0020  207.6020  151.4450 C   0  0  0  0  0  3  0  0  0  0  0  0
  161.1770  206.7290  152.0100 C   0  0  0  0  0  3  0  0  0  0  0  0
  161.1310  204.2520  152.3460 C   0  0  0  0  0  3  0  0  0  0  0  0
  160.8610  205.1590  150.1200 C   0  0  0  0  0  3  0  0  0  0  0  0
  160.8390  203.8610  149.5980 C   0  0  0  0  0  3  0  0  0  0  0  0
  160.9510  202.7630  150.4460 C   0  0  0  0  0  3  0  0  0  0  0  0
  161.0310  205.3590  151.4940 C   0  0  0  0  0  0  0  0  0  0  0  0
  161.0780  202.9580  151.8270 C   0  0  0  0  0  3  0  0  0  0  0  0
  162.7170  210.9490  149.0240 C   0  0  0  0  0  2  0  0  0  0  0  0
  158.7770  213.4040  148.3700 C   0  0  0  0  0  1  0  0  0  0  0  0
  160.0280  213.2250  146.1790 C   0  0  0  0  0  0  0  0  0  0  0  0
  159.6290  213.5200  144.0090 C   0  0  0  0  0  0  0  0  0  0  0  0
  161.2980  213.0540  145.4280 C   0  0  1  0  0  3  0  0  0  0  0  0
  162.0380  212.0440  148.2680 C   0  0  0  0  0  0  0  0  0  0  0  0
  159.9220  212.9600  147.5890 N   0  0  0  0  0  0  0  0  0  0  0  0
  158.8970  213.7780  142.7400 C   0  0  0  0  0  1  0  0  0  0  0  0
  162.8390  214.2280  147.0030 C   0  0  0  0  0  3  0  0  0  0  0  0
  160.7410  211.9760  148.1550 N   0  0  0  0  0  0  0  0  0  0  0  0
  159.0480  213.5290  145.3340 C   0  0  0  0  0  0  0  0  0  0  0  0
  160.8860  213.2400  144.0430 N   0  0  0  0  0  0  0  0  0  0  0  0
  162.7930  213.2530  148.0600 N   0  0  0  0  0  2  0  0  0  0  0  0
  162.2110  214.1570  145.8280 C   0  0  0  0  0  3  0  0  0  0  0  0
  156.4800  213.8630  145.8830 C   0  0  0  0  0  3  0  0  0  0  0  0
  157.6500  213.7070  145.6360 C   0  0  0  0  0  0  0  0  0  0  0  0
  161.5250  208.7220  149.0850 O   0  0  0  0  0  0  0  0  0  0  0  0
  162.6260  208.4070  148.2600 C   0  0  0  0  0  2  0  0  0  0  0  0
  162.6740  207.0380  147.9810 O   0  0  0  0  0  0  0  0  0  0  0  0
  161.5640  206.7860  147.1670 C   0  0  0  0  0  2  0  0  0  0  0  0
  161.9060  205.7720  146.0810 C   0  0  0  0  0  2  0  0  0  0  0  0
  161.3390  205.2610  143.8390 O   0  0  0  0  0  0  0  0  0  0  0  0
  160.7870  205.6910  145.0590 C   0  0  1  0  0  3  0  0  0  0  0  0
  160.6380  204.3020  144.5850 C   0  0  0  0  0  2  0  0  0  0  0  0
  1 13  1  1  0  0  0
  1  4  1  0  0  0  0
  4  2  2  0  0  0  0
  4  3  1  0  0  0  0
  5  3  1  0  0  0  0
  5  6  2  0  0  0  0
  8 11  1  0  0  0  0
  9  8  2  0  0  0  0
  9 10  1  0  0  0  0
 10 12  2  0  0  0  0
 11  6  1  0  0  0  0
 11  7  2  0  0  0  0
 12  7  1  0  0  0  0
 15 19  1  0  0  0  0
 16 24  2  0  0  0  0
 16 23  1  0  0  0  0
 17 26  1  1  0  0  0
 17 15  1  0  0  0  0
 18 13  1  0  0  0  0
 19 22  1  0  0  0  0
 19 14  1  0  0  0  0
 20 16  1  0  0  0  0
 21 25  1  0  0  0  0
 22 18  2  0  0  0  0
 23 28  1  0  0  0  0
 23 15  2  0  0  0  0
 24 17  1  0  0  0  0
 25 18  1  0  0  0  0
 26 21  2  0  0  0  0
 28 27  3  0  0  0  0
 29  1  1  0  0  0  0
 30 29  1  0  0  0  0
 31 30  1  0  0  0  0
 32 31  1  0  0  0  0
 33 32  1  0  0  0  0
 34 36  1  0  0  0  0
 34 35  1  0  0  0  0
 35 33  1  1  0  0  0
 36 35  1  0  0  0  0
M  END
>  <MODEL>
3

>  <REMARK>
 VINA RESULT:      -6.9      3.973      5.894
  Name = 
  12 active torsions:
  status: ('A' for Active; 'I' for Inactive)
    1  A    between atoms: C_3  and  C_12
    2  A    between atoms: C_3  and  C_17
    3  A    between atoms: C_6  and  N_26
    4  A    between atoms: C_7  and  C_34
    5  A    between atoms: O_8  and  C_22
    6  A    between atoms: O_8  and  C_30
    7  A    between atoms: C_17  and  C_28
    8  A    between atoms: C_17  and  O_31
    9  A    between atoms: C_18  and  C_25
   10  A    between atoms: C_22  and  O_31
   11  A    between atoms: C_25  and  C_30
   12  A    between atoms: C_27  and  C_32
                            x       y       z     vdW  Elec       q    Type
                         _______ _______ _______ _____ _____    ______ ____

>  <TORSDO>
F 12

$$$$
=
 OpenBabel11042421053D

 36 39  0  0  1  0  0  0  0  0999 V2000
  161.0830  209.6870  153.5400 C   0  0  1  0  0  3  0  0  0  0  0  0
  161.8280  208.7720  155.6190 O   0  0  0  0  0  0  0  0  0  0  0  0
  159.7070  209.6980  155.6820 N   0  0  0  0  0  2  0  0  0  0  0  0
  160.9190  209.3780  155.0010 C   0  0  0  0  0  0  0  0  0  0  0  0
  158.9220  210.8380  155.3480 C   0  0  0  0  0  3  0  0  0  0  0  0
  157.6380  210.9050  155.6820 C   0  0  0  0  0  3  0  0  0  0  0  0
  156.1060  212.7260  156.4460 C   0  0  0  0  0  3  0  0  0  0  0  0
  156.7430  212.6030  154.1160 C   0  0  0  0  0  3  0  0  0  0  0  0
  155.8910  213.6750  153.8300 C   0  0  0  0  0  3  0  0  0  0  0  0
  155.1570  214.2780  154.8490 C   0  0  0  0  0  3  0  0  0  0  0  0
  156.8350  212.1100  155.4220 C   0  0  0  0  0  0  0  0  0  0  0  0
  155.2800  213.8140  156.1640 C   0  0  0  0  0  3  0  0  0  0  0  0
  160.1420  208.9130  152.6040 C   0  0  0  0  0  2  0  0  0  0  0  0
  162.4410  207.6530  148.7180 C   0  0  0  0  0  1  0  0  0  0  0  0
  161.3700  205.6110  149.7580 C   0  0  0  0  0  0  0  0  0  0  0  0
  160.8590  203.5240  149.1770 C   0  0  0  0  0  0  0  0  0  0  0  0
  160.8430  204.8950  150.9480 C   0  0  1  0  0  3  0  0  0  0  0  0
  160.9190  207.8470  151.9020 C   0  0  0  0  0  0  0  0  0  0  0  0
  161.6600  207.0200  149.7700 N   0  0  0  0  0  0  0  0  0  0  0  0
  160.6730  202.3050  148.3440 C   0  0  0  0  0  1  0  0  0  0  0  0
  162.4110  205.7970  152.6690 C   0  0  0  0  0  3  0  0  0  0  0  0
  160.9040  207.8580  150.5990 N   0  0  0  0  0  0  0  0  0  0  0  0
  161.4030  204.7840  148.7190 C   0  0  0  0  0  0  0  0  0  0  0  0
  160.5260  203.5740  150.4200 N   0  0  0  0  0  0  0  0  0  0  0  0
  161.9080  207.1450  152.6810 N   0  0  0  0  0  2  0  0  0  0  0  0
  161.9490  204.7830  151.9350 C   0  0  0  0  0  3  0  0  0  0  0  0
  162.0940  205.3410  146.2250 C   0  0  0  0  0  3  0  0  0  0  0  0
  161.7770  205.0920  147.3610 C   0  0  0  0  0  0  0  0  0  0  0  0
  161.2770  211.0670  153.2780 O   0  0  0  0  0  0  0  0  0  0  0  0
  160.4050  211.5210  152.2660 C   0  0  0  0  0  2  0  0  0  0  0  0
  159.8910  212.7840  152.5690 O   0  0  0  0  0  0  0  0  0  0  0  0
  159.6710  213.4030  151.3320 C   0  0  0  0  0  2  0  0  0  0  0  0
  158.2100  213.2800  150.9160 C   0  0  0  0  0  2  0  0  0  0  0  0
  156.9960  212.8070  148.9380 O   0  0  0  0  0  0  0  0  0  0  0  0
  158.0510  213.5900  149.4390 C   0  0  1  0  0  3  0  0  0  0  0  0
  156.7140  214.1590  149.1840 C   0  0  0  0  0  2  0  0  0  0  0  0
  1 13  1  6  0  0  0
  1  4  1  0  0  0  0
  4  2  2  0  0  0  0
  4  3  1  0  0  0  0
  5  6  2  0  0  0  0
  5  3  1  0  0  0  0
  8 11  1  0  0  0  0
  9  8  2  0  0  0  0
  9 10  1  0  0  0  0
 10 12  2  0  0  0  0
 11  6  1  0  0  0  0
 11  7  2  0  0  0  0
 12  7  1  0  0  0  0
 14 19  1  0  0  0  0
 15 19  1  0  0  0  0
 15 17  1  0  0  0  0
 16 24  2  0  0  0  0
 17 26  1  1  0  0  0
 18 13  1  0  0  0  0
 18 25  1  0  0  0  0
 19 22  1  0  0  0  0
 20 16  1  0  0  0  0
 21 25  1  0  0  0  0
 22 18  2  0  0  0  0
 23 16  1  0  0  0  0
 23 15  2  0  0  0  0
 24 17  1  0  0  0  0
 26 21  2  0  0  0  0
 27 28  3  0  0  0  0
 28 23  1  0  0  0  0
 29  1  1  0  0  0  0
 30 31  1  0  0  0  0
 30 29  1  0  0  0  0
 32 31  1  0  0  0  0
 33 32  1  0  0  0  0
 34 36  1  0  0  0  0
 34 35  1  0  0  0  0
 35 33  1  1  0  0  0
 36 35  1  0  0  0  0
M  END
>  <MODEL>
4

>  <REMARK>
 VINA RESULT:      -6.7      2.786      9.261
  Name = 
  12 active torsions:
  status: ('A' for Active; 'I' for Inactive)
    1  A    between atoms: C_3  and  C_12
    2  A    between atoms: C_3  and  C_17
    3  A    between atoms: C_6  and  N_26
    4  A    between atoms: C_7  and  C_34
    5  A    between atoms: O_8  and  C_22
    6  A    between atoms: O_8  and  C_30
    7  A    between atoms: C_17  and  C_28
    8  A    between atoms: C_17  and  O_31
    9  A    between atoms: C_18  and  C_25
   10  A    between atoms: C_22  and  O_31
   11  A    between atoms: C_25  and  C_30
   12  A    between atoms: C_27  and  C_32
                            x       y       z     vdW  Elec       q    Type
                         _______ _______ _______ _____ _____    ______ ____

>  <TORSDO>
F 12

$$$$
=
 OpenBabel11042421053D

 36 39  0  0  1  0  0  0  0  0999 V2000
  161.0830  209.7240  153.2970 C   0  0  1  0  0  3  0  0  0  0  0  0
  161.8370  208.8870  155.4060 O   0  0  0  0  0  0  0  0  0  0  0  0
  159.6870  209.7460  155.4260 N   0  0  0  0  0  0  0  0  0  0  0  0
  160.9150  209.4480  154.7640 C   0  0  0  0  0  0  0  0  0  0  0  0
  158.8680  210.8510  155.0550 C   0  0  0  0  0  3  0  0  0  0  0  0
  157.7040  211.0700  155.6540 C   0  0  0  0  0  2  0  0  0  0  0  0
  156.0240  212.8040  156.3010 C   0  0  0  0  0  3  0  0  0  0  0  0
  156.9210  212.7910  154.0540 C   0  0  0  0  0  3  0  0  0  0  0  0
  156.0640  213.8410  153.7100 C   0  0  0  0  0  3  0  0  0  0  0  0
  155.1980  214.3790  154.6590 C   0  0  0  0  0  3  0  0  0  0  0  0
  156.8870  212.2530  155.3450 C   0  0  0  0  0  0  0  0  0  0  0  0
  155.1920  213.8720  155.9630 C   0  0  0  0  0  3  0  0  0  0  0  0
  160.1470  208.9270  152.3760 C   0  0  0  0  0  2  0  0  0  0  0  0
  162.4020  207.4520  148.5390 C   0  0  0  0  0  1  0  0  0  0  0  0
  161.3560  205.4700  149.7130 C   0  0  0  0  0  0  0  0  0  0  0  0
  160.8490  203.3500  149.2620 C   0  0  0  0  0  0  0  0  0  0  0  0
  160.8490  204.8220  150.9490 C   0  0  1  0  0  3  0  0  0  0  0  0
  160.9210  207.8260  151.7270 C   0  0  0  0  0  0  0  0  0  0  0  0
  161.6380  206.8780  149.6380 N   0  0  0  0  0  0  0  0  0  0  0  0
  160.6600  202.0830  148.5040 C   0  0  0  0  0  1  0  0  0  0  0  0
  162.4340  205.8320  152.5930 C   0  0  0  0  0  3  0  0  0  0  0  0
  160.8880  207.7600  150.4260 N   0  0  0  0  0  0  0  0  0  0  0  0
  161.3800  204.5830  148.7230 C   0  0  0  0  0  0  0  0  0  0  0  0
  160.5320  203.4720  150.5040 N   0  0  0  0  0  0  0  0  0  0  0  0
  161.9240  207.1760  152.5320 N   0  0  0  0  0  2  0  0  0  0  0  0
  161.9690  204.7740  151.9260 C   0  0  0  0  0  3  0  0  0  0  0  0
  162.0350  205.0110  146.1940 C   0  0  0  0  0  3  0  0  0  0  0  0
  161.7340  204.8120  147.3450 C   0  0  0  0  0  0  0  0  0  0  0  0
  161.2750  211.0990  153.0050 O   0  0  0  0  0  0  0  0  0  0  0  0
  160.5960  211.4680  151.8250 C   0  0  0  0  0  2  0  0  0  0  0  0
  159.7980  212.5970  152.0320 O   0  0  0  0  0  0  0  0  0  0  0  0
  160.0670  213.4450  150.9510 C   0  0  0  0  0  2  0  0  0  0  0  0
  160.7710  212.6900  149.8300 C   0  0  0  0  0  2  0  0  0  0  0  0
  162.1920  213.9630  148.4270 O   0  0  0  0  0  0  0  0  0  0  0  0
  160.8570  213.5500  148.5830 C   0  0  1  0  0  3  0  0  0  0  0  0
  161.7560  212.9200  147.5970 C   0  0  0  0  0  2  0  0  0  0  0  0
  1 13  1  6  0  0  0
  1  4  1  0  0  0  0
  4  2  2  0  0  0  0
  4  3  1  0  0  0  0
  5  3  2  0  0  0  0
  5  6  1  0  0  0  0
  8 11  1  0  0  0  0
  9  8  2  0  0  0  0
  9 10  1  0  0  0  0
 10 12  2  0  0  0  0
 11  6  1  0  0  0  0
 11  7  2  0  0  0  0
 12  7  1  0  0  0  0
 14 19  1  0  0  0  0
 15 17  1  0  0  0  0
 16 24  2  0  0  0  0
 17 26  1  1  0  0  0
 18 13  1  0  0  0  0
 18 25  1  0  0  0  0
 19 15  1  0  0  0  0
 19 22  1  0  0  0  0
 20 16  1  0  0  0  0
 22 18  2  0  0  0  0
 23 16  1  0  0  0  0
 23 15  2  0  0  0  0
 24 17  1  0  0  0  0
 25 21  1  0  0  0  0
 26 21  2  0  0  0  0
 27 28  3  0  0  0  0
 28 23  1  0  0  0  0
 29  1  1  0  0  0  0
 30 31  1  0  0  0  0
 30 29  1  0  0  0  0
 32 31  1  0  0  0  0
 33 32  1  0  0  0  0
 34 35  1  0  0  0  0
 35 33  1  1  0  0  0
 36 34  1  0  0  0  0
 36 35  1  0  0  0  0
M  END
>  <MODEL>
5

>  <REMARK>
 VINA RESULT:      -6.5      2.737      9.133
  Name = 
  12 active torsions:
  status: ('A' for Active; 'I' for Inactive)
    1  A    between atoms: C_3  and  C_12
    2  A    between atoms: C_3  and  C_17
    3  A    between atoms: C_6  and  N_26
    4  A    between atoms: C_7  and  C_34
    5  A    between atoms: O_8  and  C_22
    6  A    between atoms: O_8  and  C_30
    7  A    between atoms: C_17  and  C_28
    8  A    between atoms: C_17  and  O_31
    9  A    between atoms: C_18  and  C_25
   10  A    between atoms: C_22  and  O_31
   11  A    between atoms: C_25  and  C_30
   12  A    between atoms: C_27  and  C_32
                            x       y       z     vdW  Elec       q    Type
                         _______ _______ _______ _____ _____    ______ ____

>  <TORSDO>
F 12

$$$$
=
 OpenBabel11042421053D

 36 39  0  0  1  0  0  0  0  0999 V2000
  161.5880  209.0190  150.6580 C   0  0  1  0  0  3  0  0  0  0  0  0
  160.8140  209.3720  152.8920 O   0  0  0  0  0  0  0  0  0  0  0  0
  161.8480  207.3290  152.5450 N   0  0  0  0  0  2  0  0  0  0  0  0
  161.3670  208.5900  152.0800 C   0  0  0  0  0  0  0  0  0  0  0  0
  161.9070  206.1790  151.7070 C   0  0  0  0  0  3  0  0  0  0  0  0
  161.1780  205.1020  151.9730 C   0  0  0  0  0  3  0  0  0  0  0  0
  161.1140  204.1040  149.6820 C   0  0  0  0  0  3  0  0  0  0  0  0
  161.1190  202.6510  151.6160 C   0  0  0  0  0  3  0  0  0  0  0  0
  160.9830  201.5400  150.7770 C   0  0  0  0  0  3  0  0  0  0  0  0
  160.9240  201.7080  149.3960 C   0  0  0  0  0  3  0  0  0  0  0  0
  161.1610  203.9390  151.0720 C   0  0  0  0  0  0  0  0  0  0  0  0
  161.0090  202.9920  148.8460 C   0  0  0  0  0  3  0  0  0  0  0  0
  162.6360  210.1250  150.4700 C   0  0  0  0  0  2  0  0  0  0  0  0
  159.4820  213.5930  150.4690 C   0  0  0  0  0  1  0  0  0  0  0  0
  159.7480  212.7000  148.1170 C   0  0  0  0  0  0  0  0  0  0  0  0
  158.6630  212.7840  146.1760 C   0  0  0  0  0  0  0  0  0  0  0  0
  160.5640  212.0200  147.0790 C   0  0  1  0  0  3  0  0  0  0  0  0
  162.0230  211.2570  149.7100 C   0  0  0  0  0  0  0  0  0  0  0  0
  160.1080  212.6950  149.5100 N   0  0  0  0  0  0  0  0  0  0  0  0
  157.6030  213.0740  145.1720 C   0  0  0  0  0  1  0  0  0  0  0  0
  162.8190  212.8540  147.7530 C   0  0  0  0  0  3  0  0  0  0  0  0
  160.8040  211.5940  150.0240 N   0  0  0  0  0  0  0  0  0  0  0  0
  158.6350  213.1760  147.5680 C   0  0  0  0  0  0  0  0  0  0  0  0
  159.7300  212.1230  145.8890 N   0  0  0  0  0  0  0  0  0  0  0  0
  162.9240  212.1140  148.9820 N   0  0  0  0  0  2  0  0  0  0  0  0
  161.8050  212.8170  146.8870 C   0  0  0  0  0  3  0  0  0  0  0  0
  156.6280  214.3960  148.7880 C   0  0  0  0  0  3  0  0  0  0  0  0
  157.5390  213.8360  148.2320 C   0  0  0  0  0  0  0  0  0  0  0  0
  161.6090  207.9350  149.7430 O   0  0  0  0  0  0  0  0  0  0  0  0
  162.1420  208.3300  148.4980 C   0  0  0  0  0  2  0  0  0  0  0  0
  162.7390  207.2520  147.8380 O   0  0  0  0  0  0  0  0  0  0  0  0
  161.6870  206.5700  147.2150 C   0  0  0  0  0  2  0  0  0  0  0  0
  162.1520  205.9260  145.9140 C   0  0  0  0  0  2  0  0  0  0  0  0
  161.4740  205.2080  143.7620 O   0  0  0  0  0  0  0  0  0  0  0  0
  160.9790  205.7220  144.9730 C   0  0  1  0  0  3  0  0  0  0  0  0
  160.8540  204.2940  144.6260 C   0  0  0  0  0  2  0  0  0  0  0  0
  1 13  1  1  0  0  0
  1  4  1  0  0  0  0
  4  3  1  0  0  0  0
  4  2  2  0  0  0  0
  5  6  2  0  0  0  0
  5  3  1  0  0  0  0
  7 11  1  0  0  0  0
  9  8  1  0  0  0  0
 10  9  2  0  0  0  0
 11  8  2  0  0  0  0
 11  6  1  0  0  0  0
 12 10  1  0  0  0  0
 12  7  2  0  0  0  0
 15 19  1  0  0  0  0
 16 23  1  0  0  0  0
 17 26  1  6  0  0  0
 17 15  1  0  0  0  0
 18 22  2  0  0  0  0
 18 13  1  0  0  0  0
 19 22  1  0  0  0  0
 19 14  1  0  0  0  0
 20 16  1  0  0  0  0
 21 25  1  0  0  0  0
 23 15  2  0  0  0  0
 23 28  1  0  0  0  0
 24 16  2  0  0  0  0
 24 17  1  0  0  0  0
 25 18  1  0  0  0  0
 26 21  2  0  0  0  0
 28 27  3  0  0  0  0
 29  1  1  0  0  0  0
 30 29  1  0  0  0  0
 31 30  1  0  0  0  0
 32 31  1  0  0  0  0
 33 32  1  0  0  0  0
 34 36  1  0  0  0  0
 34 35  1  0  0  0  0
 35 33  1  1  0  0  0
 36 35  1  0  0  0  0
M  END
>  <MODEL>
6

>  <REMARK>
 VINA RESULT:      -6.4      2.899      4.428
  Name = 
  12 active torsions:
  status: ('A' for Active; 'I' for Inactive)
    1  A    between atoms: C_3  and  C_12
    2  A    between atoms: C_3  and  C_17
    3  A    between atoms: C_6  and  N_26
    4  A    between atoms: C_7  and  C_34
    5  A    between atoms: O_8  and  C_22
    6  A    between atoms: O_8  and  C_30
    7  A    between atoms: C_17  and  C_28
    8  A    between atoms: C_17  and  O_31
    9  A    between atoms: C_18  and  C_25
   10  A    between atoms: C_22  and  O_31
   11  A    between atoms: C_25  and  C_30
   12  A    between atoms: C_27  and  C_32
                            x       y       z     vdW  Elec       q    Type
                         _______ _______ _______ _____ _____    ______ ____

>  <TORSDO>
F 12

$$$$
=
 OpenBabel11042421053D

 36 39  0  0  1  0  0  0  0  0999 V2000
  160.7480  210.2760  151.4330 C   0  0  1  0  0  3  0  0  0  0  0  0
  163.0990  209.9510  151.7150 O   0  0  0  0  0  0  0  0  0  0  0  0
  162.5200  211.2310  149.8740 N   0  0  0  0  0  2  0  0  0  0  0  0
  162.1810  210.4460  151.0160 C   0  0  0  0  0  0  0  0  0  0  0  0
  161.6800  211.3110  148.7270 C   0  0  0  0  0  3  0  0  0  0  0  0
  161.2180  212.4800  148.2980 C   0  0  0  0  0  3  0  0  0  0  0  0
  159.0220  212.5770  147.1080 C   0  0  0  0  0  3  0  0  0  0  0  0
  161.0750  212.6400  145.8310 C   0  0  0  0  0  3  0  0  0  0  0  0
  160.3340  212.6260  144.6440 C   0  0  0  0  0  3  0  0  0  0  0  0
  158.9420  212.5990  144.6890 C   0  0  0  0  0  3  0  0  0  0  0  0
  160.4220  212.5900  147.0660 C   0  0  0  0  0  0  0  0  0  0  0  0
  158.2840  212.5940  145.9250 C   0  0  0  0  0  3  0  0  0  0  0  0
  160.4510  208.9970  152.2300 C   0  0  0  0  0  2  0  0  0  0  0  0
  162.3310  207.2870  148.2910 C   0  0  0  0  0  1  0  0  0  0  0  0
  161.2990  205.3970  149.6170 C   0  0  0  0  0  0  0  0  0  0  0  0
  160.6700  203.2870  149.2900 C   0  0  0  0  0  0  0  0  0  0  0  0
  160.8640  204.8160  150.9140 C   0  0  1  0  0  3  0  0  0  0  0  0
  161.1240  207.8400  151.5660 C   0  0  0  0  0  0  0  0  0  0  0  0
  161.6330  206.7870  149.4660 N   0  0  0  0  0  0  0  0  0  0  0  0
  160.3680  202.0040  148.5990 C   0  0  0  0  0  1  0  0  0  0  0  0
  162.6160  205.8120  152.3890 C   0  0  0  0  0  3  0  0  0  0  0  0
  160.9860  207.7290  150.2750 N   0  0  0  0  0  0  0  0  0  0  0  0
  161.2080  204.4750  148.6640 C   0  0  0  0  0  0  0  0  0  0  0  0
  160.4570  203.4670  150.5480 N   0  0  0  0  0  0  0  0  0  0  0  0
  162.1590  207.1740  152.3160 N   0  0  0  0  0  2  0  0  0  0  0  0
  162.0550  204.7530  151.8020 C   0  0  0  0  0  3  0  0  0  0  0  0
  161.6740  204.7670  146.0750 C   0  0  0  0  0  3  0  0  0  0  0  0
  161.4610  204.6390  147.2550 C   0  0  0  0  0  0  0  0  0  0  0  0
  160.1490  211.4810  151.8810 O   0  0  0  0  0  0  0  0  0  0  0  0
  159.1200  211.2220  152.8120 C   0  0  0  0  0  2  0  0  0  0  0  0
  159.2890  211.9760  153.9760 O   0  0  0  0  0  0  0  0  0  0  0  0
  159.1440  211.0680  155.0310 C   0  0  0  0  0  2  0  0  0  0  0  0
  160.2950  211.2000  156.0230 C   0  0  0  0  0  2  0  0  0  0  0  0
  162.2410  210.7060  154.7670 O   0  0  0  0  0  0  0  0  0  0  0  0
  161.3690  210.1690  155.7300 C   0  0  1  0  0  3  0  0  0  0  0  0
  162.6940  210.7060  156.0940 C   0  0  0  0  0  2  0  0  0  0  0  0
  1 29  1  0  0  0  0
  1 13  1  1  0  0  0
  3  4  1  0  0  0  0
  4  1  1  0  0  0  0
  4  2  2  0  0  0  0
  5  3  1  0  0  0  0
  6  5  2  0  0  0  0
  8 11  2  0  0  0  0
  9 10  2  0  0  0  0
  9  8  1  0  0  0  0
 10 12  1  0  0  0  0
 11  7  1  0  0  0  0
 11  6  1  0  0  0  0
 12  7  2  0  0  0  0
 14 19  1  0  0  0  0
 15 17  1  0  0  0  0
 16 24  2  0  0  0  0
 17 26  1  1  0  0  0
 18 13  1  0  0  0  0
 18 25  1  0  0  0  0
 19 15  1  0  0  0  0
 19 22  1  0  0  0  0
 20 16  1  0  0  0  0
 22 18  2  0  0  0  0
 23 16  1  0  0  0  0
 23 15  2  0  0  0  0
 24 17  1  0  0  0  0
 25 21  1  0  0  0  0
 26 21  2  0  0  0  0
 27 28  3  0  0  0  0
 28 23  1  0  0  0  0
 29 30  1  0  0  0  0
 30 31  1  0  0  0  0
 31 32  1  0  0  0  0
 32 33  1  0  0  0  0
 34 35  1  0  0  0  0
 34 36  1  0  0  0  0
 35 33  1  1  0  0  0
 35 36  1  0  0  0  0
M  END
>  <MODEL>
7

>  <REMARK>
 VINA RESULT:      -6.4      3.194      8.997
  Name = 
  12 active torsions:
  status: ('A' for Active; 'I' for Inactive)
    1  A    between atoms: C_3  and  C_12
    2  A    between atoms: C_3  and  C_17
    3  A    between atoms: C_6  and  N_26
    4  A    between atoms: C_7  and  C_34
    5  A    between atoms: O_8  and  C_22
    6  A    between atoms: O_8  and  C_30
    7  A    between atoms: C_17  and  C_28
    8  A    between atoms: C_17  and  O_31
    9  A    between atoms: C_18  and  C_25
   10  A    between atoms: C_22  and  O_31
   11  A    between atoms: C_25  and  C_30
   12  A    between atoms: C_27  and  C_32
                            x       y       z     vdW  Elec       q    Type
                         _______ _______ _______ _____ _____    ______ ____

>  <TORSDO>
F 12

$$$$
=
 OpenBabel11042421053D

 36 39  0  0  1  0  0  0  0  0999 V2000
  161.0030  210.0770  152.7040 C   0  0  1  0  0  3  0  0  0  0  0  0
  161.9420  210.6840  150.5910 O   0  0  0  0  0  0  0  0  0  0  0  0
  160.4960  212.2550  151.4870 N   0  0  0  0  0  0  0  0  0  0  0  0
  161.1630  210.9940  151.5250 C   0  0  0  0  0  0  0  0  0  0  0  0
  159.2160  212.4600  152.0760 C   0  0  0  0  0  3  0  0  0  0  0  0
  158.6650  213.6670  152.1100 C   0  0  0  0  0  2  0  0  0  0  0  0
  156.9870  213.5560  153.9600 C   0  0  0  0  0  3  0  0  0  0  0  0
  156.3080  214.3550  151.7790 C   0  0  0  0  0  3  0  0  0  0  0  0
  154.9880  214.4530  152.2310 C   0  0  0  0  0  3  0  0  0  0  0  0
  154.6690  214.1150  153.5440 C   0  0  0  0  0  3  0  0  0  0  0  0
  157.3080  213.8830  152.6360 C   0  0  0  0  0  0  0  0  0  0  0  0
  155.6750  213.6840  154.4160 C   0  0  0  0  0  3  0  0  0  0  0  0
  160.0820  208.8710  152.4680 C   0  0  0  0  0  2  0  0  0  0  0  0
  162.3280  207.4180  148.6180 C   0  0  0  0  0  1  0  0  0  0  0  0
  161.3140  205.4250  149.8010 C   0  0  0  0  0  0  0  0  0  0  0  0
  160.8310  203.2980  149.3570 C   0  0  0  0  0  0  0  0  0  0  0  0
  160.8240  204.7730  151.0420 C   0  0  1  0  0  3  0  0  0  0  0  0
  160.8650  207.7780  151.8150 C   0  0  0  0  0  0  0  0  0  0  0  0
  161.5790  206.8370  149.7220 N   0  0  0  0  0  0  0  0  0  0  0  0
  160.6520  202.0280  148.6020 C   0  0  0  0  0  1  0  0  0  0  0  0
  162.4080  205.8040  152.6730 C   0  0  0  0  0  3  0  0  0  0  0  0
  160.8240  207.7100  150.5140 N   0  0  0  0  0  0  0  0  0  0  0  0
  161.3430  204.5370  148.8130 C   0  0  0  0  0  0  0  0  0  0  0  0
  160.5210  203.4180  150.6010 N   0  0  0  0  0  0  0  0  0  0  0  0
  161.8810  207.1420  152.6150 N   0  0  0  0  0  2  0  0  0  0  0  0
  161.9510  204.7400  152.0110 C   0  0  0  0  0  3  0  0  0  0  0  0
  161.9770  204.9570  146.2770 C   0  0  0  0  0  3  0  0  0  0  0  0
  161.6850  204.7690  147.4320 C   0  0  0  0  0  0  0  0  0  0  0  0
  162.2160  209.8490  153.4040 O   0  0  0  0  0  0  0  0  0  0  0  0
  162.3270  210.7030  154.5210 C   0  0  0  0  0  2  0  0  0  0  0  0
  161.1030  210.8350  155.1830 O   0  0  0  0  0  0  0  0  0  0  0  0
  161.3750  210.5540  156.5270 C   0  0  0  0  0  2  0  0  0  0  0  0
  160.3650  209.5610  157.0890 C   0  0  0  0  0  2  0  0  0  0  0  0
  161.1640  207.6470  155.9460 O   0  0  0  0  0  0  0  0  0  0  0  0
  160.0450  208.4900  156.0630 C   0  0  1  0  0  3  0  0  0  0  0  0
  160.0850  207.1580  156.6970 C   0  0  0  0  0  2  0  0  0  0  0  0
  1 13  1  6  0  0  0
  1 29  1  0  0  0  0
  2  4  2  0  0  0  0
  3  4  1  0  0  0  0
  3  5  2  0  0  0  0
  4  1  1  0  0  0  0
  5  6  1  0  0  0  0
  6 11  1  0  0  0  0
  7 12  1  0  0  0  0
  8  9  2  0  0  0  0
  8 11  1  0  0  0  0
  9 10  1  0  0  0  0
 10 12  2  0  0  0  0
 11  7  2  0  0  0  0
 14 19  1  0  0  0  0
 15 17  1  0  0  0  0
 16 24  2  0  0  0  0
 17 26  1  1  0  0  0
 18 13  1  0  0  0  0
 18 25  1  0  0  0  0
 19 15  1  0  0  0  0
 19 22  1  0  0  0  0
 20 16  1  0  0  0  0
 22 18  2  0  0  0  0
 23 16  1  0  0  0  0
 23 15  2  0  0  0  0
 24 17  1  0  0  0  0
 25 21  1  0  0  0  0
 26 21  2  0  0  0  0
 27 28  3  0  0  0  0
 28 23  1  0  0  0  0
 29 30  1  0  0  0  0
 30 31  1  0  0  0  0
 31 32  1  0  0  0  0
 32 33  1  0  0  0  0
 34 35  1  0  0  0  0
 34 36  1  0  0  0  0
 35 36  1  0  0  0  0
 35 33  1  1  0  0  0
M  END
>  <MODEL>
8

>  <REMARK>
 VINA RESULT:      -6.3      2.435      9.688
  Name = 
  12 active torsions:
  status: ('A' for Active; 'I' for Inactive)
    1  A    between atoms: C_3  and  C_12
    2  A    between atoms: C_3  and  C_17
    3  A    between atoms: C_6  and  N_26
    4  A    between atoms: C_7  and  C_34
    5  A    between atoms: O_8  and  C_22
    6  A    between atoms: O_8  and  C_30
    7  A    between atoms: C_17  and  C_28
    8  A    between atoms: C_17  and  O_31
    9  A    between atoms: C_18  and  C_25
   10  A    between atoms: C_22  and  O_31
   11  A    between atoms: C_25  and  C_30
   12  A    between atoms: C_27  and  C_32
                            x       y       z     vdW  Elec       q    Type
                         _______ _______ _______ _____ _____    ______ ____

>  <TORSDO>
F 12

$$$$
=
 OpenBabel11042421053D

 36 39  0  0  1  0  0  0  0  0999 V2000
  161.0050  210.0150  152.7080 C   0  0  1  0  0  3  0  0  0  0  0  0
  162.4790  210.1190  150.8290 O   0  0  0  0  0  0  0  0  0  0  0  0
  161.1200  211.9750  151.0880 N   0  0  0  0  0  2  0  0  0  0  0  0
  161.5640  210.6780  151.4810 C   0  0  0  0  0  0  0  0  0  0  0  0
  159.7840  212.4230  151.3020 C   0  0  0  0  0  3  0  0  0  0  0  0
  159.2620  213.3930  150.5610 C   0  0  0  0  0  3  0  0  0  0  0  0
  157.3320  214.1330  151.9670 C   0  0  0  0  0  3  0  0  0  0  0  0
  157.0220  213.8100  149.5890 C   0  0  0  0  0  3  0  0  0  0  0  0
  155.6590  214.0870  149.7330 C   0  0  0  0  0  3  0  0  0  0  0  0
  155.1350  214.3970  150.9850 C   0  0  0  0  0  3  0  0  0  0  0  0
  157.8590  213.8080  150.7100 C   0  0  0  0  0  0  0  0  0  0  0  0
  155.9780  214.4390  152.1030 C   0  0  0  0  0  3  0  0  0  0  0  0
  160.0750  208.8240  152.4370 C   0  0  0  0  0  2  0  0  0  0  0  0
  162.3400  207.3530  148.6050 C   0  0  0  0  0  1  0  0  0  0  0  0
  161.3180  205.3660  149.7900 C   0  0  0  0  0  0  0  0  0  0  0  0
  160.8350  203.2380  149.3520 C   0  0  0  0  0  0  0  0  0  0  0  0
  160.8200  204.7190  151.0310 C   0  0  1  0  0  3  0  0  0  0  0  0
  160.8600  207.7270  151.7930 C   0  0  0  0  0  0  0  0  0  0  0  0
  161.5840  206.7760  149.7070 N   0  0  0  0  0  0  0  0  0  0  0  0
  160.6580  201.9650  148.6020 C   0  0  0  0  0  1  0  0  0  0  0  0
  162.3970  205.7550  152.6670 C   0  0  0  0  0  3  0  0  0  0  0  0
  160.8260  207.6540  150.4920 N   0  0  0  0  0  0  0  0  0  0  0  0
  161.3510  204.4740  148.8060 C   0  0  0  0  0  0  0  0  0  0  0  0
  160.5180  203.3630  150.5940 N   0  0  0  0  0  0  0  0  0  0  0  0
  161.8710  207.0930  152.6000 N   0  0  0  0  0  2  0  0  0  0  0  0
  161.9420  204.6890  152.0060 C   0  0  0  0  0  3  0  0  0  0  0  0
  161.9940  204.8960  146.2730 C   0  0  0  0  0  3  0  0  0  0  0  0
  161.7000  204.6990  147.4260 C   0  0  0  0  0  0  0  0  0  0  0  0
  161.9560  209.8800  153.7530 O   0  0  0  0  0  0  0  0  0  0  0  0
  161.5030  210.4990  154.9370 C   0  0  0  0  0  2  0  0  0  0  0  0
  160.8170  211.6840  154.6590 O   0  0  0  0  0  0  0  0  0  0  0  0
  159.7290  211.7000  155.5390 C   0  0  0  0  0  2  0  0  0  0  0  0
  158.4170  211.5170  154.7840 C   0  0  0  0  0  2  0  0  0  0  0  0
  156.7660  212.5740  156.1130 O   0  0  0  0  0  0  0  0  0  0  0  0
  157.2700  211.3110  155.7560 C   0  0  1  0  0  3  0  0  0  0  0  0
  156.0200  211.8410  155.1790 C   0  0  0  0  0  2  0  0  0  0  0  0
  1 13  1  6  0  0  0
  1 29  1  0  0  0  0
  2  4  2  0  0  0  0
  3  5  1  0  0  0  0
  3  4  1  0  0  0  0
  4  1  1  0  0  0  0
  6 11  1  0  0  0  0
  6  5  2  0  0  0  0
  7 12  1  0  0  0  0
  8  9  2  0  0  0  0
  8 11  1  0  0  0  0
  9 10  1  0  0  0  0
 10 12  2  0  0  0  0
 11  7  2  0  0  0  0
 14 19  1  0  0  0  0
 15 17  1  0  0  0  0
 16 24  2  0  0  0  0
 17 26  1  1  0  0  0
 18 13  1  0  0  0  0
 18 25  1  0  0  0  0
 19 15  1  0  0  0  0
 19 22  1  0  0  0  0
 20 16  1  0  0  0  0
 22 18  2  0  0  0  0
 23 16  1  0  0  0  0
 23 15  2  0  0  0  0
 24 17  1  0  0  0  0
 25 21  1  0  0  0  0
 26 21  2  0  0  0  0
 27 28  3  0  0  0  0
 28 23  1  0  0  0  0
 29 30  1  0  0  0  0
 31 30  1  0  0  0  0
 31 32  1  0  0  0  0
 33 32  1  0  0  0  0
 35 33  1  6  0  0  0
 35 34  1  0  0  0  0
 36 35  1  0  0  0  0
 36 34  1  0  0  0  0
M  END
>  <MODEL>
9

>  <REMARK>
 VINA RESULT:      -6.1      2.754      9.687
  Name = 
  12 active torsions:
  status: ('A' for Active; 'I' for Inactive)
    1  A    between atoms: C_3  and  C_12
    2  A    between atoms: C_3  and  C_17
    3  A    between atoms: C_6  and  N_26
    4  A    between atoms: C_7  and  C_34
    5  A    between atoms: O_8  and  C_22
    6  A    between atoms: O_8  and  C_30
    7  A    between atoms: C_17  and  C_28
    8  A    between atoms: C_17  and  O_31
    9  A    between atoms: C_18  and  C_25
   10  A    between atoms: C_22  and  O_31
   11  A    between atoms: C_25  and  C_30
   12  A    between atoms: C_27  and  C_32
                            x       y       z     vdW  Elec       q    Type
                         _______ _______ _______ _____ _____    ______ ____

>  <TORSDO>
F 12

$$$$
