=
 OpenBabel11052411423D

 42 47  0  0  1  0  0  0  0  0999 V2000
  162.6600  208.8350  148.6130 C   0  0  2  0  0  3  0  0  0  0  0  0
  162.7240  207.6760  149.5340 C   0  0  1  0  0  3  0  0  0  0  0  0
  161.7110  209.0330  151.3090 C   0  0  0  0  0  0  0  0  0  0  0  0
  162.0690  207.8790  150.8380 N   0  0  0  0  0  0  0  0  0  0  0  0
  161.8420  210.0420  149.0660 C   0  0  1  0  0  3  0  0  0  0  0  0
  161.7230  207.7080  148.4560 N   0  0  0  0  0  0  0  0  0  0  0  0
  161.8470  210.2000  150.5100 N   0  0  0  0  0  2  0  0  0  0  0  0
  160.9800  209.1400  152.9390 S   0  0  0  0  0  0  0  0  0  0  0  0
  160.8560  207.3360  153.1270 C   0  0  0  0  0  2  0  0  0  0  0  0
  161.2680  208.1140  155.4440 C   0  0  0  0  0  1  0  0  0  0  0  0
  160.7480  206.9710  154.5950 C   0  0  0  0  0  2  0  0  0  0  0  0
  162.2240  206.8520  147.3800 C   0  0  0  0  0  2  0  0  0  0  0  0
  160.4160  206.1890  145.7040 C   0  0  0  0  0  1  0  0  0  0  0  0
  161.1970  205.7930  146.9520 C   0  0  1  0  0  3  0  0  0  0  0  0
  161.9830  204.1490  146.7790 S   0  0  0  0  0  0  0  0  0  0  0  0
  161.0320  202.0920  149.6510 C   0  0  0  0  0  0  0  0  0  0  0  0
  161.0900  201.1370  148.6180 N   0  0  0  0  0  0  0  0  0  0  0  0
  160.8160  201.7400  147.3720 N   0  0  0  0  0  0  0  0  0  0  0  0
  160.8200  203.3280  149.1330 C   0  0  0  0  0  0  0  0  0  0  0  0
  160.9170  204.2880  151.3300 C   0  0  0  0  0  3  0  0  0  0  0  0
  160.7460  204.4610  149.9440 C   0  0  0  0  0  3  0  0  0  0  0  0
  160.6850  203.1900  147.6550 C   0  0  1  0  0  3  0  0  0  0  0  0
  161.2400  201.8840  151.0140 C   0  0  0  0  0  3  0  0  0  0  0  0
  161.1740  203.0040  151.8620 C   0  0  0  0  0  3  0  0  0  0  0  0
  162.3080  211.3020  148.3690 C   0  0  0  0  0  2  0  0  0  0  0  0
  161.4960  212.4670  148.9100 C   0  0  0  0  0  2  0  0  0  0  0  0
  162.2030  214.2820  146.7850 C   0  0  0  0  0  1  0  0  0  0  0  0
  161.1010  213.2220  146.6560 C   0  0  2  0  0  3  0  0  0  0  0  0
  160.0520  213.6900  145.6260 C   0  0  2  0  0  3  0  0  0  0  0  0
  159.7460  214.0210  148.4730 C   0  0  0  0  0  2  0  0  0  0  0  0
  158.6320  213.6790  146.1980 C   0  0  0  0  0  2  0  0  0  0  0  0
  158.5730  214.3950  147.5560 C   0  0  0  0  0  2  0  0  0  0  0  0
  160.4760  212.8690  147.9460 N   0  0  0  0  0  0  0  0  0  0  0  0
  160.1110  212.8360  144.4020 C   0  0  0  0  0  0  0  0  0  0  0  0
  160.8330  213.2990  143.2510 N   0  0  0  0  0  2  0  0  0  0  0  0
  159.5260  211.7220  144.4010 O   0  0  0  0  0  0  0  0  0  0  0  0
  162.2410  212.1420  141.6350 C   0  0  0  0  0  3  0  0  0  0  0  0
  160.9800  212.6260  141.9960 C   0  0  0  0  0  0  0  0  0  0  0  0
  161.3480  211.3220  139.5390 C   0  0  0  0  0  3  0  0  0  0  0  0
  162.4280  211.4890  140.4130 C   0  0  0  0  0  3  0  0  0  0  0  0
  160.0870  211.8100  139.8880 C   0  0  0  0  0  3  0  0  0  0  0  0
  159.9020  212.4650  141.1100 C   0  0  0  0  0  3  0  0  0  0  0  0
  1  6  1  6  0  0  0
  1  5  1  0  0  0  0
  1  2  1  0  0  0  0
  2  4  1  1  0  0  0
  3  8  1  0  0  0  0
  4  3  2  0  0  0  0
  5 25  1  6  0  0  0
  5  7  1  0  0  0  0
  6  2  1  0  0  0  0
  7  3  1  0  0  0  0
  8  9  1  0  0  0  0
  9 11  1  0  0  0  0
 11 10  1  0  0  0  0
 12  6  1  0  0  0  0
 14 13  1  6  0  0  0
 14 12  1  0  0  0  0
 15 14  1  0  0  0  0
 16 23  1  0  0  0  0
 17 16  1  0  0  0  0
 18 22  1  0  0  0  0
 18 17  2  0  0  0  0
 19 16  2  0  0  0  0
 19 21  1  0  0  0  0
 20 24  1  0  0  0  0
 21 20  2  0  0  0  0
 22 15  1  6  0  0  0
 22 19  1  0  0  0  0
 23 24  2  0  0  0  0
 25 26  1  0  0  0  0
 28 27  1  1  0  0  0
 28 33  1  0  0  0  0
 29 34  1  6  0  0  0
 29 31  1  0  0  0  0
 29 28  1  0  0  0  0
 31 32  1  0  0  0  0
 32 30  1  0  0  0  0
 33 30  1  0  0  0  0
 33 26  1  0  0  0  0
 35 34  1  0  0  0  0
 36 34  2  0  0  0  0
 37 38  1  0  0  0  0
 38 35  1  0  0  0  0
 39 41  2  0  0  0  0
 39 40  1  0  0  0  0
 40 37  2  0  0  0  0
 41 42  1  0  0  0  0
 42 38  2  0  0  0  0
M  END
>  <MODEL>
1

>  <REMARK>
 VINA RESULT:      -8.3      0.000      0.000
  Name = 
  12 active torsions:
  status: ('A' for Active; 'I' for Inactive)
    1  A    between atoms: C_7  and  C_8
    2  A    between atoms: N_11  and  C_19
    3  A    between atoms: C_12  and  C_29
    4  A    between atoms: S_15  and  C_29
    5  A    between atoms: S_15  and  C_32
    6  A    between atoms: C_18  and  C_26
    7  A    between atoms: C_18  and  N_35
    8  A    between atoms: S_22  and  C_26
    9  A    between atoms: S_22  and  C_31
   10  A    between atoms: N_30  and  C_40
   11  A    between atoms: C_34  and  C_39
   12  A    between atoms: C_39  and  C_40
                            x       y       z     vdW  Elec       q    Type
                         _______ _______ _______ _____ _____    ______ ____

>  <TORSDO>
F 12

$$$$
=
 OpenBabel11052411423D

 42 47  0  0  1  0  0  0  0  0999 V2000
  161.9560  210.3580  150.8410 C   0  0  2  0  0  3  0  0  0  0  0  0
  162.3140  209.4640  151.9670 C   0  0  1  0  0  3  0  0  0  0  0  0
  160.7760  210.6940  153.4290 C   0  0  0  0  0  0  0  0  0  0  0  0
  161.5240  209.6610  153.1950 N   0  0  0  0  0  0  0  0  0  0  0  0
  160.7590  211.2840  151.0390 C   0  0  1  0  0  3  0  0  0  0  0  0
  161.4490  208.9750  150.8820 N   0  0  0  0  0  0  0  0  0  0  0  0
  160.5940  211.6830  152.4260 N   0  0  0  0  0  2  0  0  0  0  0  0
  159.9180  210.8320  154.9940 S   0  0  0  0  0  0  0  0  0  0  0  0
  161.0190  209.6520  155.8330 C   0  0  0  0  0  2  0  0  0  0  0  0
  160.2280  207.3140  155.6010 C   0  0  0  0  0  1  0  0  0  0  0  0
  160.2040  208.5490  156.4800 C   0  0  0  0  0  2  0  0  0  0  0  0
  162.2840  208.1610  149.9990 C   0  0  0  0  0  2  0  0  0  0  0  0
  162.3800  206.9760  147.7400 C   0  0  0  0  0  1  0  0  0  0  0  0
  161.4880  207.5650  148.8290 C   0  0  1  0  0  3  0  0  0  0  0  0
  160.2450  206.3620  149.4250 S   0  0  0  0  0  0  0  0  0  0  0  0
  160.9130  202.9110  150.4410 C   0  0  0  0  0  0  0  0  0  0  0  0
  160.8480  203.5700  151.6830 N   0  0  0  0  0  0  0  0  0  0  0  0
  161.2240  204.9240  151.5440 N   0  0  0  0  0  0  0  0  0  0  0  0
  161.2300  203.7930  149.4600 C   0  0  0  0  0  0  0  0  0  0  0  0
  161.0800  202.0510  147.8170 C   0  0  0  0  0  3  0  0  0  0  0  0
  161.3340  203.4000  148.1250 C   0  0  0  0  0  3  0  0  0  0  0  0
  161.4330  205.1290  150.0900 C   0  0  1  0  0  3  0  0  0  0  0  0
  160.6220  201.5740  150.1720 C   0  0  0  0  0  3  0  0  0  0  0  0
  160.7140  201.1430  148.8360 C   0  0  0  0  0  3  0  0  0  0  0  0
  160.8500  212.4860  150.1240 C   0  0  0  0  0  2  0  0  0  0  0  0
  161.6500  212.0830  148.8960 C   0  0  0  0  0  2  0  0  0  0  0  0
  162.7760  214.3870  147.5800 C   0  0  0  0  0  1  0  0  0  0  0  0
  162.0080  213.2850  146.8390 C   0  0  2  0  0  3  0  0  0  0  0  0
  161.3600  213.8720  145.5680 C   0  0  2  0  0  3  0  0  0  0  0  0
  159.9500  213.5250  148.0580 C   0  0  0  0  0  2  0  0  0  0  0  0
  159.8550  213.6010  145.5040 C   0  0  0  0  0  2  0  0  0  0  0  0
  159.1640  213.9850  146.8220 C   0  0  0  0  0  2  0  0  0  0  0  0
  161.0150  212.5940  147.6840 N   0  0  0  0  0  0  0  0  0  0  0  0
  162.0240  213.3250  144.3470 C   0  0  0  0  0  0  0  0  0  0  0  0
  161.2460  213.0930  143.1630 N   0  0  0  0  0  2  0  0  0  0  0  0
  163.2580  213.0790  144.3750 O   0  0  0  0  0  0  0  0  0  0  0  0
  161.2720  211.2940  141.5210 C   0  0  0  0  0  3  0  0  0  0  0  0
  161.7090  212.5620  141.9170 C   0  0  0  0  0  0  0  0  0  0  0  0
  162.5980  211.4450  139.5010 C   0  0  0  0  0  3  0  0  0  0  0  0
  161.7100  210.7350  140.3170 C   0  0  0  0  0  3  0  0  0  0  0  0
  163.0460  212.7080  139.8920 C   0  0  0  0  0  3  0  0  0  0  0  0
  162.6090  213.2650  141.0990 C   0  0  0  0  0  3  0  0  0  0  0  0
  1  6  1  6  0  0  0
  1  5  1  0  0  0  0
  1  2  1  0  0  0  0
  2  4  1  1  0  0  0
  3  8  1  0  0  0  0
  4  3  2  0  0  0  0
  5 25  1  6  0  0  0
  5  7  1  0  0  0  0
  6  2  1  0  0  0  0
  7  3  1  0  0  0  0
  8  9  1  0  0  0  0
  9 11  1  0  0  0  0
 10 11  1  0  0  0  0
 12  6  1  0  0  0  0
 14 13  1  6  0  0  0
 14 15  1  0  0  0  0
 14 12  1  0  0  0  0
 16 17  1  0  0  0  0
 18 17  2  0  0  0  0
 19 22  1  0  0  0  0
 19 16  2  0  0  0  0
 20 21  2  0  0  0  0
 20 24  1  0  0  0  0
 21 19  1  0  0  0  0
 22 15  1  6  0  0  0
 22 18  1  0  0  0  0
 23 16  1  0  0  0  0
 24 23  2  0  0  0  0
 26 25  1  0  0  0  0
 28 27  1  1  0  0  0
 28 33  1  0  0  0  0
 29 34  1  6  0  0  0
 29 28  1  0  0  0  0
 31 29  1  0  0  0  0
 31 32  1  0  0  0  0
 32 30  1  0  0  0  0
 33 30  1  0  0  0  0
 33 26  1  0  0  0  0
 34 36  2  0  0  0  0
 35 34  1  0  0  0  0
 37 38  1  0  0  0  0
 38 35  1  0  0  0  0
 39 41  2  0  0  0  0
 39 40  1  0  0  0  0
 40 37  2  0  0  0  0
 41 42  1  0  0  0  0
 42 38  2  0  0  0  0
M  END
>  <MODEL>
2

>  <REMARK>
 VINA RESULT:      -8.0      1.849      2.543
  Name = 
  12 active torsions:
  status: ('A' for Active; 'I' for Inactive)
    1  A    between atoms: C_7  and  C_8
    2  A    between atoms: N_11  and  C_19
    3  A    between atoms: C_12  and  C_29
    4  A    between atoms: S_15  and  C_29
    5  A    between atoms: S_15  and  C_32
    6  A    between atoms: C_18  and  C_26
    7  A    between atoms: C_18  and  N_35
    8  A    between atoms: S_22  and  C_26
    9  A    between atoms: S_22  and  C_31
   10  A    between atoms: N_30  and  C_40
   11  A    between atoms: C_34  and  C_39
   12  A    between atoms: C_39  and  C_40
                            x       y       z     vdW  Elec       q    Type
                         _______ _______ _______ _____ _____    ______ ____

>  <TORSDO>
F 12

$$$$
=
 OpenBabel11052411423D

 42 47  0  0  1  0  0  0  0  0999 V2000
  160.8810  211.0820  152.3080 C   0  0  2  0  0  3  0  0  0  0  0  0
  161.4390  210.3010  153.4370 C   0  0  1  0  0  3  0  0  0  0  0  0
  160.3290  211.8090  155.0220 C   0  0  0  0  0  0  0  0  0  0  0  0
  160.9540  210.7010  154.7700 N   0  0  0  0  0  0  0  0  0  0  0  0
  159.8050  212.1150  152.6360 C   0  0  1  0  0  3  0  0  0  0  0  0
  160.3290  209.7560  152.6390 N   0  0  0  0  0  0  0  0  0  0  0  0
  159.9760  212.6840  153.9610 N   0  0  0  0  0  2  0  0  0  0  0  0
  159.8510  212.1960  156.7040 S   0  0  0  0  0  0  0  0  0  0  0  0
  158.1290  212.5640  156.2510 C   0  0  0  0  0  2  0  0  0  0  0  0
  156.5350  211.3630  154.7810 C   0  0  0  0  0  1  0  0  0  0  0  0
  157.3560  211.2740  156.0520 C   0  0  0  0  0  2  0  0  0  0  0  0
  160.9050  208.7830  151.7110 C   0  0  0  0  0  2  0  0  0  0  0  0
  160.7660  206.8520  153.3750 C   0  0  0  0  0  1  0  0  0  0  0  0
  161.6590  207.6600  152.4390 C   0  0  1  0  0  3  0  0  0  0  0  0
  162.5530  206.5930  151.2510 S   0  0  0  0  0  0  0  0  0  0  0  0
  161.0790  204.3120  148.8000 C   0  0  0  0  0  0  0  0  0  0  0  0
  161.2450  205.4850  148.0390 N   0  0  0  0  0  0  0  0  0  0  0  0
  161.1920  206.6240  148.8710 N   0  0  0  0  0  0  0  0  0  0  0  0
  161.0100  204.6160  150.1190 C   0  0  0  0  0  0  0  0  0  0  0  0
  160.8230  202.2880  150.6680 C   0  0  0  0  0  3  0  0  0  0  0  0
  160.8710  203.6270  151.0950 C   0  0  0  0  0  3  0  0  0  0  0  0
  161.0910  206.0980  150.2540 C   0  0  1  0  0  3  0  0  0  0  0  0
  161.0700  202.9950  148.3390 C   0  0  0  0  0  3  0  0  0  0  0  0
  160.9330  201.9710  149.2950 C   0  0  0  0  0  3  0  0  0  0  0  0
  159.7480  213.1900  151.5730 C   0  0  0  0  0  2  0  0  0  0  0  0
  160.3690  212.6310  150.3040 C   0  0  0  0  0  2  0  0  0  0  0  0
  161.4550  214.4470  148.3470 C   0  0  0  0  0  1  0  0  0  0  0  0
  160.4360  213.3520  148.0060 C   0  0  2  0  0  3  0  0  0  0  0  0
  159.6140  213.7770  146.7710 C   0  0  2  0  0  3  0  0  0  0  0  0
  158.7060  214.1250  149.4850 C   0  0  0  0  0  2  0  0  0  0  0  0
  158.1070  213.7270  147.0310 C   0  0  0  0  0  2  0  0  0  0  0  0
  157.7420  214.4530  148.3360 C   0  0  0  0  0  2  0  0  0  0  0  0
  159.5630  212.9910  149.1400 N   0  0  0  0  0  0  0  0  0  0  0  0
  159.9540  212.9140  145.6000 C   0  0  0  0  0  0  0  0  0  0  0  0
  160.2950  213.5260  144.3470 N   0  0  0  0  0  2  0  0  0  0  0  0
  159.9370  211.6630  145.7320 O   0  0  0  0  0  0  0  0  0  0  0  0
  161.9730  212.5840  142.8530 C   0  0  0  0  0  3  0  0  0  0  0  0
  160.6290  212.8600  143.1240 C   0  0  0  0  0  0  0  0  0  0  0  0
  161.3600  211.5830  140.7350 C   0  0  0  0  0  3  0  0  0  0  0  0
  162.3410  211.9460  141.6650 C   0  0  0  0  0  3  0  0  0  0  0  0
  160.0170  211.8630  140.9930 C   0  0  0  0  0  3  0  0  0  0  0  0
  159.6500  212.5040  142.1820 C   0  0  0  0  0  3  0  0  0  0  0  0
  1  5  1  0  0  0  0
  1  6  1  6  0  0  0
  1  2  1  0  0  0  0
  2  4  1  1  0  0  0
  3  8  1  0  0  0  0
  4  3  2  0  0  0  0
  5 25  1  6  0  0  0
  5  7  1  0  0  0  0
  6  2  1  0  0  0  0
  7  3  1  0  0  0  0
  9  8  1  0  0  0  0
 10 11  1  0  0  0  0
 11  9  1  0  0  0  0
 12 14  1  0  0  0  0
 12  6  1  0  0  0  0
 14 13  1  6  0  0  0
 15 14  1  0  0  0  0
 16 19  1  0  0  0  0
 17 16  1  0  0  0  0
 17 18  2  0  0  0  0
 18 22  1  0  0  0  0
 19 22  1  0  0  0  0
 19 21  2  0  0  0  0
 20 21  1  0  0  0  0
 22 15  1  1  0  0  0
 23 16  2  0  0  0  0
 23 24  1  0  0  0  0
 24 20  2  0  0  0  0
 26 25  1  0  0  0  0
 28 27  1  1  0  0  0
 28 33  1  0  0  0  0
 29 34  1  6  0  0  0
 29 31  1  0  0  0  0
 29 28  1  0  0  0  0
 31 32  1  0  0  0  0
 32 30  1  0  0  0  0
 33 30  1  0  0  0  0
 33 26  1  0  0  0  0
 34 36  2  0  0  0  0
 35 34  1  0  0  0  0
 37 38  1  0  0  0  0
 38 35  1  0  0  0  0
 39 41  2  0  0  0  0
 39 40  1  0  0  0  0
 40 37  2  0  0  0  0
 41 42  1  0  0  0  0
 42 38  2  0  0  0  0
M  END
>  <MODEL>
3

>  <REMARK>
 VINA RESULT:      -7.5      2.519      3.721
  Name = 
  12 active torsions:
  status: ('A' for Active; 'I' for Inactive)
    1  A    between atoms: C_7  and  C_8
    2  A    between atoms: N_11  and  C_19
    3  A    between atoms: C_12  and  C_29
    4  A    between atoms: S_15  and  C_29
    5  A    between atoms: S_15  and  C_32
    6  A    between atoms: C_18  and  C_26
    7  A    between atoms: C_18  and  N_35
    8  A    between atoms: S_22  and  C_26
    9  A    between atoms: S_22  and  C_31
   10  A    between atoms: N_30  and  C_40
   11  A    between atoms: C_34  and  C_39
   12  A    between atoms: C_39  and  C_40
                            x       y       z     vdW  Elec       q    Type
                         _______ _______ _______ _____ _____    ______ ____

>  <TORSDO>
F 12

$$$$
=
 OpenBabel11052411423D

 42 47  0  0  1  0  0  0  0  0999 V2000
  161.2820  209.4780  151.3690 C   0  0  2  0  0  3  0  0  0  0  0  0
  160.7720  208.6180  152.4620 C   0  0  1  0  0  3  0  0  0  0  0  0
  161.2300  206.6260  151.1070 C   0  0  0  0  0  0  0  0  0  0  0  0
  160.9400  207.1700  152.2470 N   0  0  0  0  0  0  0  0  0  0  0  0
  162.0110  208.7860  150.2190 C   0  0  1  0  0  3  0  0  0  0  0  0
  162.0880  209.2670  152.5850 N   0  0  0  0  0  0  0  0  0  0  0  0
  161.5110  207.4430  149.9790 N   0  0  0  0  0  2  0  0  0  0  0  0
  161.3430  204.8440  150.9760 S   0  0  0  0  0  0  0  0  0  0  0  0
  160.8440  204.8260  149.2270 C   0  0  0  0  0  2  0  0  0  0  0  0
  160.5240  202.3680  149.2110 C   0  0  0  0  0  1  0  0  0  0  0  0
  161.2720  203.5240  148.5770 C   0  0  0  0  0  2  0  0  0  0  0  0
  161.9130  210.4340  153.4500 C   0  0  0  0  0  2  0  0  0  0  0  0
  161.7460  209.4450  155.7970 C   0  0  0  0  0  1  0  0  0  0  0  0
  161.0080  210.1350  154.6550 C   0  0  1  0  0  3  0  0  0  0  0  0
  160.1370  211.6450  155.2110 S   0  0  0  0  0  0  0  0  0  0  0  0
  156.7580  212.6800  154.2630 C   0  0  0  0  0  0  0  0  0  0  0  0
  156.5290  212.0410  155.4960 N   0  0  0  0  0  0  0  0  0  0  0  0
  157.5110  211.0540  155.7320 N   0  0  0  0  0  0  0  0  0  0  0  0
  157.9070  212.2210  153.7060 C   0  0  0  0  0  0  0  0  0  0  0  0
  157.6310  213.7200  151.8520 C   0  0  0  0  0  3  0  0  0  0  0  0
  158.3790  212.7120  152.4870 C   0  0  0  0  0  3  0  0  0  0  0  0
  158.4680  211.1740  154.6050 C   0  0  1  0  0  3  0  0  0  0  0  0
  156.0070  213.7010  153.6820 C   0  0  0  0  0  3  0  0  0  0  0  0
  156.4540  214.2210  152.4540 C   0  0  0  0  0  3  0  0  0  0  0  0
  161.9600  209.6290  148.9630 C   0  0  0  0  0  2  0  0  0  0  0  0
  162.1520  211.0820  149.3640 C   0  0  0  0  0  2  0  0  0  0  0  0
  163.1580  213.1190  147.5900 C   0  0  0  0  0  1  0  0  0  0  0  0
  161.8060  212.4210  147.3910 C   0  0  2  0  0  3  0  0  0  0  0  0
  160.8480  213.3600  146.6300 C   0  0  2  0  0  3  0  0  0  0  0  0
  160.8530  213.0740  149.4980 C   0  0  0  0  0  2  0  0  0  0  0  0
  159.5230  213.5610  147.3700 C   0  0  0  0  0  2  0  0  0  0  0  0
  159.7590  213.9280  148.8430 C   0  0  0  0  0  2  0  0  0  0  0  0
  161.2070  211.9360  148.6490 N   0  0  0  0  0  0  0  0  0  0  0  0
  160.5850  212.8320  145.2580 C   0  0  0  0  0  0  0  0  0  0  0  0
  161.3840  213.2910  144.1580 N   0  0  0  0  0  2  0  0  0  0  0  0
  159.6660  211.9890  145.0880 O   0  0  0  0  0  0  0  0  0  0  0  0
  160.1420  213.3350  142.0630 C   0  0  0  0  0  3  0  0  0  0  0  0
  161.2630  212.9090  142.7830 C   0  0  0  0  0  0  0  0  0  0  0  0
  160.9430  212.1730  140.0950 C   0  0  0  0  0  3  0  0  0  0  0  0
  159.9810  212.9730  140.7220 C   0  0  0  0  0  3  0  0  0  0  0  0
  162.0590  211.7360  140.8090 C   0  0  0  0  0  3  0  0  0  0  0  0
  162.2190  212.0970  142.1510 C   0  0  0  0  0  3  0  0  0  0  0  0
  1  2  1  0  0  0  0
  1  6  1  1  0  0  0
  2  4  1  6  0  0  0
  2  6  1  0  0  0  0
  3  4  2  0  0  0  0
  5 25  1  6  0  0  0
  5  1  1  0  0  0  0
  6 12  1  0  0  0  0
  7  5  1  0  0  0  0
  7  3  1  0  0  0  0
  8  3  1  0  0  0  0
  9  8  1  0  0  0  0
 11 10  1  0  0  0  0
 11  9  1  0  0  0  0
 12 14  1  0  0  0  0
 14 15  1  0  0  0  0
 14 13  1  1  0  0  0
 16 17  1  0  0  0  0
 17 18  2  0  0  0  0
 19 16  1  0  0  0  0
 19 22  1  0  0  0  0
 20 24  2  0  0  0  0
 20 21  1  0  0  0  0
 21 19  2  0  0  0  0
 22 15  1  1  0  0  0
 22 18  1  0  0  0  0
 23 16  2  0  0  0  0
 24 23  1  0  0  0  0
 25 26  1  0  0  0  0
 28 27  1  1  0  0  0
 28 33  1  0  0  0  0
 29 34  1  6  0  0  0
 29 31  1  0  0  0  0
 29 28  1  0  0  0  0
 31 32  1  0  0  0  0
 32 30  1  0  0  0  0
 33 26  1  0  0  0  0
 33 30  1  0  0  0  0
 35 34  1  0  0  0  0
 36 34  2  0  0  0  0
 37 38  1  0  0  0  0
 38 35  1  0  0  0  0
 39 40  1  0  0  0  0
 39 41  2  0  0  0  0
 40 37  2  0  0  0  0
 41 42  1  0  0  0  0
 42 38  2  0  0  0  0
M  END
>  <MODEL>
4

>  <REMARK>
 VINA RESULT:      -7.3      3.005      6.706
  Name = 
  12 active torsions:
  status: ('A' for Active; 'I' for Inactive)
    1  A    between atoms: C_7  and  C_8
    2  A    between atoms: N_11  and  C_19
    3  A    between atoms: C_12  and  C_29
    4  A    between atoms: S_15  and  C_29
    5  A    between atoms: S_15  and  C_32
    6  A    between atoms: C_18  and  C_26
    7  A    between atoms: C_18  and  N_35
    8  A    between atoms: S_22  and  C_26
    9  A    between atoms: S_22  and  C_31
   10  A    between atoms: N_30  and  C_40
   11  A    between atoms: C_34  and  C_39
   12  A    between atoms: C_39  and  C_40
                            x       y       z     vdW  Elec       q    Type
                         _______ _______ _______ _____ _____    ______ ____

>  <TORSDO>
F 12

$$$$
=
 OpenBabel11052411423D

 42 47  0  0  1  0  0  0  0  0999 V2000
  161.7810  210.4680  151.2110 C   0  0  2  0  0  3  0  0  0  0  0  0
  162.0370  209.6870  152.4440 C   0  0  1  0  0  3  0  0  0  0  0  0
  160.4830  211.1300  153.6770 C   0  0  0  0  0  0  0  0  0  0  0  0
  161.1930  210.0480  153.5960 N   0  0  0  0  0  0  0  0  0  0  0  0
  160.6200  211.4590  151.2410 C   0  0  1  0  0  3  0  0  0  0  0  0
  161.2080  209.1200  151.3690 N   0  0  0  0  0  0  0  0  0  0  0  0
  160.4010  212.0110  152.5670 N   0  0  0  0  0  2  0  0  0  0  0  0
  159.5510  211.4720  155.1670 S   0  0  0  0  0  0  0  0  0  0  0  0
  158.5690  212.7880  154.3860 C   0  0  0  0  0  2  0  0  0  0  0  0
  156.8610  211.2550  155.3230 C   0  0  0  0  0  1  0  0  0  0  0  0
  157.1030  212.3970  154.3560 C   0  0  0  0  0  2  0  0  0  0  0  0
  162.0500  208.1820  150.6260 C   0  0  0  0  0  2  0  0  0  0  0  0
  161.2110  206.5140  152.3670 C   0  0  0  0  0  1  0  0  0  0  0  0
  161.7080  206.7170  150.9390 C   0  0  1  0  0  3  0  0  0  0  0  0
  160.5450  206.0360  149.7020 S   0  0  0  0  0  0  0  0  0  0  0  0
  161.2730  203.5350  147.1330 C   0  0  0  0  0  0  0  0  0  0  0  0
  160.8110  202.7330  148.1930 N   0  0  0  0  0  0  0  0  0  0  0  0
  161.0670  203.3580  149.4330 N   0  0  0  0  0  0  0  0  0  0  0  0
  161.7460  204.7140  147.6100 C   0  0  0  0  0  0  0  0  0  0  0  0
  162.2220  205.4500  145.3760 C   0  0  0  0  0  3  0  0  0  0  0  0
  162.2420  205.7040  146.7600 C   0  0  0  0  0  3  0  0  0  0  0  0
  161.6340  204.6860  149.0960 C   0  0  1  0  0  3  0  0  0  0  0  0
  161.2030  203.2610  145.7670 C   0  0  0  0  0  3  0  0  0  0  0  0
  161.6930  204.2370  144.8800 C   0  0  0  0  0  3  0  0  0  0  0  0
  160.8160  212.5510  150.2110 C   0  0  0  0  0  2  0  0  0  0  0  0
  161.4610  211.9280  148.9830 C   0  0  0  0  0  2  0  0  0  0  0  0
  162.8820  214.1860  147.8930 C   0  0  0  0  0  1  0  0  0  0  0  0
  162.0710  213.2060  147.0340 C   0  0  2  0  0  3  0  0  0  0  0  0
  161.5710  213.9250  145.7640 C   0  0  2  0  0  3  0  0  0  0  0  0
  159.9630  213.5710  148.1300 C   0  0  0  0  0  2  0  0  0  0  0  0
  160.0560  213.8020  145.5850 C   0  0  0  0  0  2  0  0  0  0  0  0
  159.3110  214.1740  146.8770 C   0  0  0  0  0  2  0  0  0  0  0  0
  160.9620  212.5660  147.7670 N   0  0  0  0  0  0  0  0  0  0  0  0
  162.2670  213.3880  144.5560 C   0  0  0  0  0  0  0  0  0  0  0  0
  161.5940  213.4000  143.2880 N   0  0  0  0  0  2  0  0  0  0  0  0
  163.4350  212.9340  144.6700 O   0  0  0  0  0  0  0  0  0  0  0  0
  162.7560  213.8070  141.1860 C   0  0  0  0  0  3  0  0  0  0  0  0
  162.0980  212.9150  142.0390 C   0  0  0  0  0  0  0  0  0  0  0  0
  163.0860  212.0420  139.5620 C   0  0  0  0  0  3  0  0  0  0  0  0
  163.2520  213.3750  139.9530 C   0  0  0  0  0  3  0  0  0  0  0  0
  162.4220  211.1470  140.4030 C   0  0  0  0  0  3  0  0  0  0  0  0
  161.9240  211.5810  141.6360 C   0  0  0  0  0  3  0  0  0  0  0  0
  1  5  1  0  0  0  0
  1  6  1  6  0  0  0
  1  2  1  0  0  0  0
  2  4  1  1  0  0  0
  3  8  1  0  0  0  0
  4  3  2  0  0  0  0
  5 25  1  6  0  0  0
  5  7  1  0  0  0  0
  6  2  1  0  0  0  0
  7  3  1  0  0  0  0
  9  8  1  0  0  0  0
 11  9  1  0  0  0  0
 11 10  1  0  0  0  0
 12 14  1  0  0  0  0
 12  6  1  0  0  0  0
 14 13  1  1  0  0  0
 15 14  1  0  0  0  0
 16 19  1  0  0  0  0
 16 17  1  0  0  0  0
 17 18  2  0  0  0  0
 19 22  1  0  0  0  0
 20 21  1  0  0  0  0
 21 19  2  0  0  0  0
 22 18  1  0  0  0  0
 22 15  1  6  0  0  0
 23 16  2  0  0  0  0
 24 20  2  0  0  0  0
 24 23  1  0  0  0  0
 26 25  1  0  0  0  0
 28 33  1  0  0  0  0
 28 27  1  1  0  0  0
 29 34  1  6  0  0  0
 29 28  1  0  0  0  0
 31 29  1  0  0  0  0
 31 32  1  0  0  0  0
 32 30  1  0  0  0  0
 33 30  1  0  0  0  0
 33 26  1  0  0  0  0
 34 36  2  0  0  0  0
 35 34  1  0  0  0  0
 37 38  1  0  0  0  0
 38 35  1  0  0  0  0
 39 40  1  0  0  0  0
 39 41  2  0  0  0  0
 40 37  2  0  0  0  0
 41 42  1  0  0  0  0
 42 38  2  0  0  0  0
M  END
>  <MODEL>
5

>  <REMARK>
 VINA RESULT:      -7.0      2.398      3.485
  Name = 
  12 active torsions:
  status: ('A' for Active; 'I' for Inactive)
    1  A    between atoms: C_7  and  C_8
    2  A    between atoms: N_11  and  C_19
    3  A    between atoms: C_12  and  C_29
    4  A    between atoms: S_15  and  C_29
    5  A    between atoms: S_15  and  C_32
    6  A    between atoms: C_18  and  C_26
    7  A    between atoms: C_18  and  N_35
    8  A    between atoms: S_22  and  C_26
    9  A    between atoms: S_22  and  C_31
   10  A    between atoms: N_30  and  C_40
   11  A    between atoms: C_34  and  C_39
   12  A    between atoms: C_39  and  C_40
                            x       y       z     vdW  Elec       q    Type
                         _______ _______ _______ _____ _____    ______ ____

>  <TORSDO>
F 12

$$$$
=
 OpenBabel11052411423D

 42 47  0  0  1  0  0  0  0  0999 V2000
  162.2060  209.3540  150.3140 C   0  0  2  0  0  3  0  0  0  0  0  0
  162.6160  207.9770  150.6750 C   0  0  1  0  0  3  0  0  0  0  0  0
  161.4640  208.2010  152.8290 C   0  0  0  0  0  0  0  0  0  0  0  0
  162.0410  207.4650  151.9320 N   0  0  0  0  0  0  0  0  0  0  0  0
  161.1680  210.0310  151.2080 C   0  0  1  0  0  3  0  0  0  0  0  0
  161.5490  208.1940  149.6850 N   0  0  0  0  0  0  0  0  0  0  0  0
  161.2560  209.5850  152.5880 N   0  0  0  0  0  2  0  0  0  0  0  0
  160.8650  207.4530  154.3420 S   0  0  0  0  0  0  0  0  0  0  0  0
  161.0640  208.9800  155.3100 C   0  0  0  0  0  2  0  0  0  0  0  0
  159.6970  210.4390  156.7750 C   0  0  0  0  0  1  0  0  0  0  0  0
  159.7250  209.6760  155.4650 C   0  0  0  0  0  2  0  0  0  0  0  0
  162.1450  208.0010  148.3630 C   0  0  0  0  0  2  0  0  0  0  0  0
  162.5890  205.8470  147.0670 C   0  0  0  0  0  1  0  0  0  0  0  0
  161.5370  206.8040  147.6180 C   0  0  1  0  0  3  0  0  0  0  0  0
  160.3020  205.9420  148.6580 S   0  0  0  0  0  0  0  0  0  0  0  0
  160.8610  202.5500  149.9100 C   0  0  0  0  0  0  0  0  0  0  0  0
  160.8330  203.2970  151.1030 N   0  0  0  0  0  0  0  0  0  0  0  0
  161.2540  204.6230  150.8650 N   0  0  0  0  0  0  0  0  0  0  0  0
  161.1970  203.3490  148.8670 C   0  0  0  0  0  0  0  0  0  0  0  0
  160.9690  201.5020  147.3520 C   0  0  0  0  0  3  0  0  0  0  0  0
  161.2720  202.8600  147.5610 C   0  0  0  0  0  3  0  0  0  0  0  0
  161.4540  204.7170  149.3990 C   0  0  1  0  0  3  0  0  0  0  0  0
  160.5200  201.2090  149.7390 C   0  0  0  0  0  3  0  0  0  0  0  0
  160.5830  200.6810  148.4360 C   0  0  0  0  0  3  0  0  0  0  0  0
  161.2670  211.5370  151.1030 C   0  0  0  0  0  2  0  0  0  0  0  0
  161.7990  211.8790  149.7210 C   0  0  0  0  0  2  0  0  0  0  0  0
  162.6380  213.9080  147.8550 C   0  0  0  0  0  1  0  0  0  0  0  0
  161.3620  213.0750  147.6760 C   0  0  2  0  0  3  0  0  0  0  0  0
  160.3320  213.8780  146.8550 C   0  0  2  0  0  3  0  0  0  0  0  0
  160.3160  213.7420  149.7350 C   0  0  0  0  0  2  0  0  0  0  0  0
  158.9820  213.9900  147.5680 C   0  0  0  0  0  2  0  0  0  0  0  0
  159.1570  214.4530  149.0220 C   0  0  0  0  0  2  0  0  0  0  0  0
  160.7900  212.6010  148.9510 N   0  0  0  0  0  0  0  0  0  0  0  0
  160.1430  213.2580  145.5100 C   0  0  0  0  0  0  0  0  0  0  0  0
  160.7990  213.8300  144.3690 N   0  0  0  0  0  2  0  0  0  0  0  0
  159.4130  212.2390  145.3990 O   0  0  0  0  0  0  0  0  0  0  0  0
  161.8700  212.8740  142.4010 C   0  0  0  0  0  3  0  0  0  0  0  0
  160.7180  213.3810  143.0120 C   0  0  0  0  0  0  0  0  0  0  0  0
  160.6430  212.5090  140.3460 C   0  0  0  0  0  3  0  0  0  0  0  0
  161.8360  212.4360  141.0740 C   0  0  0  0  0  3  0  0  0  0  0  0
  159.4910  213.0220  140.9440 C   0  0  0  0  0  3  0  0  0  0  0  0
  159.5270  213.4620  142.2720 C   0  0  0  0  0  3  0  0  0  0  0  0
  1  6  1  6  0  0  0
  1  2  1  0  0  0  0
  1  5  1  0  0  0  0
  2  4  1  1  0  0  0
  3  8  1  0  0  0  0
  4  3  2  0  0  0  0
  5 25  1  1  0  0  0
  5  7  1  0  0  0  0
  6  2  1  0  0  0  0
  7  3  1  0  0  0  0
  8  9  1  0  0  0  0
  9 11  1  0  0  0  0
 11 10  1  0  0  0  0
 12  6  1  0  0  0  0
 14 13  1  1  0  0  0
 14 12  1  0  0  0  0
 14 15  1  0  0  0  0
 16 17  1  0  0  0  0
 18 17  2  0  0  0  0
 19 22  1  0  0  0  0
 19 16  2  0  0  0  0
 20 21  2  0  0  0  0
 20 24  1  0  0  0  0
 21 19  1  0  0  0  0
 22 15  1  6  0  0  0
 22 18  1  0  0  0  0
 23 16  1  0  0  0  0
 24 23  2  0  0  0  0
 26 25  1  0  0  0  0
 28 27  1  1  0  0  0
 28 33  1  0  0  0  0
 29 34  1  6  0  0  0
 29 31  1  0  0  0  0
 29 28  1  0  0  0  0
 31 32  1  0  0  0  0
 32 30  1  0  0  0  0
 33 26  1  0  0  0  0
 33 30  1  0  0  0  0
 35 34  1  0  0  0  0
 36 34  2  0  0  0  0
 37 38  1  0  0  0  0
 38 35  1  0  0  0  0
 39 41  2  0  0  0  0
 39 40  1  0  0  0  0
 40 37  2  0  0  0  0
 41 42  1  0  0  0  0
 42 38  2  0  0  0  0
M  END
>  <MODEL>
6

>  <REMARK>
 VINA RESULT:      -6.8      1.572      2.188
  Name = 
  12 active torsions:
  status: ('A' for Active; 'I' for Inactive)
    1  A    between atoms: C_7  and  C_8
    2  A    between atoms: N_11  and  C_19
    3  A    between atoms: C_12  and  C_29
    4  A    between atoms: S_15  and  C_29
    5  A    between atoms: S_15  and  C_32
    6  A    between atoms: C_18  and  C_26
    7  A    between atoms: C_18  and  N_35
    8  A    between atoms: S_22  and  C_26
    9  A    between atoms: S_22  and  C_31
   10  A    between atoms: N_30  and  C_40
   11  A    between atoms: C_34  and  C_39
   12  A    between atoms: C_39  and  C_40
                            x       y       z     vdW  Elec       q    Type
                         _______ _______ _______ _____ _____    ______ ____

>  <TORSDO>
F 12

$$$$
=
 OpenBabel11052411423D

 42 47  0  0  1  0  0  0  0  0999 V2000
  161.4880  209.3700  149.8210 C   0  0  2  0  0  3  0  0  0  0  0  0
  161.5950  209.5320  148.3530 C   0  0  1  0  0  3  0  0  0  0  0  0
  161.9170  211.9460  148.6460 C   0  0  0  0  0  0  0  0  0  0  0  0
  161.9600  210.8860  147.9010 N   0  0  0  0  0  0  0  0  0  0  0  0
  161.8710  210.5680  150.6870 C   0  0  1  0  0  3  0  0  0  0  0  0
  162.7060  208.9370  149.1130 N   0  0  0  0  0  0  0  0  0  0  0  0
  161.5990  211.8330  150.0260 N   0  0  0  0  0  2  0  0  0  0  0  0
  162.3300  213.5420  147.9470 S   0  0  0  0  0  0  0  0  0  0  0  0
  160.6200  214.1520  148.0390 C   0  0  0  0  0  2  0  0  0  0  0  0
  158.8330  212.9530  146.8080 C   0  0  0  0  0  1  0  0  0  0  0  0
  159.9350  213.9880  146.6950 C   0  0  0  0  0  2  0  0  0  0  0  0
  162.6280  207.4880  148.9240 C   0  0  0  0  0  2  0  0  0  0  0  0
  161.9130  206.3350  146.7620 C   0  0  0  0  0  1  0  0  0  0  0  0
  161.4600  207.0810  148.0130 C   0  0  1  0  0  3  0  0  0  0  0  0
  160.1910  206.1510  148.9470 S   0  0  0  0  0  0  0  0  0  0  0  0
  160.8310  202.8160  150.3080 C   0  0  0  0  0  0  0  0  0  0  0  0
  160.6640  203.5780  151.4790 N   0  0  0  0  0  0  0  0  0  0  0  0
  161.0290  204.9220  151.2500 N   0  0  0  0  0  0  0  0  0  0  0  0
  161.2070  203.6160  149.2790 C   0  0  0  0  0  0  0  0  0  0  0  0
  161.2060  201.7360  147.7890 C   0  0  0  0  0  3  0  0  0  0  0  0
  161.4160  203.1120  147.9950 C   0  0  0  0  0  3  0  0  0  0  0  0
  161.3430  205.0050  149.8030 C   0  0  1  0  0  3  0  0  0  0  0  0
  160.5790  201.4550  150.1370 C   0  0  0  0  0  3  0  0  0  0  0  0
  160.7770  200.9110  148.8540 C   0  0  0  0  0  3  0  0  0  0  0  0
  161.1980  210.4930  152.0400 C   0  0  0  0  0  2  0  0  0  0  0  0
  161.5990  209.1800  152.6920 C   0  0  0  0  0  2  0  0  0  0  0  0
  162.4770  210.3100  155.1940 C   0  0  0  0  0  1  0  0  0  0  0  0
  161.0030  210.0510  154.8580 C   0  0  2  0  0  3  0  0  0  0  0  0
  160.2100  209.8160  156.1610 C   0  0  2  0  0  3  0  0  0  0  0  0
  161.2210  207.6830  154.5050 C   0  0  0  0  0  2  0  0  0  0  0  0
  159.4290  208.5000  156.1360 C   0  0  0  0  0  2  0  0  0  0  0  0
  160.3230  207.3290  155.7000 C   0  0  0  0  0  2  0  0  0  0  0  0
  160.8070  208.9480  153.8970 N   0  0  0  0  0  0  0  0  0  0  0  0
  159.2760  210.9530  156.4120 C   0  0  0  0  0  0  0  0  0  0  0  0
  158.0040  210.9830  155.7480 N   0  0  0  0  0  2  0  0  0  0  0  0
  159.6190  211.8680  157.2050 O   0  0  0  0  0  0  0  0  0  0  0  0
  156.8580  212.9210  154.8160 C   0  0  0  0  0  3  0  0  0  0  0  0
  156.9970  211.9960  155.8570 C   0  0  0  0  0  0  0  0  0  0  0  0
  155.0660  214.0260  156.0130 C   0  0  0  0  0  3  0  0  0  0  0  0
  155.8950  213.9320  154.8890 C   0  0  0  0  0  3  0  0  0  0  0  0
  155.2050  213.1130  157.0600 C   0  0  0  0  0  3  0  0  0  0  0  0
  156.1700  212.1030  156.9870 C   0  0  0  0  0  3  0  0  0  0  0  0
  1  6  1  1  0  0  0
  1  5  1  0  0  0  0
  2  4  1  1  0  0  0
  2  6  1  0  0  0  0
  2  1  1  0  0  0  0
  3  7  1  0  0  0  0
  4  3  2  0  0  0  0
  5 25  1  1  0  0  0
  7  5  1  0  0  0  0
  8  9  1  0  0  0  0
  8  3  1  0  0  0  0
 11 10  1  0  0  0  0
 11  9  1  0  0  0  0
 12  6  1  0  0  0  0
 14 13  1  6  0  0  0
 14 12  1  0  0  0  0
 14 15  1  0  0  0  0
 16 17  1  0  0  0  0
 18 17  2  0  0  0  0
 19 22  1  0  0  0  0
 19 16  2  0  0  0  0
 20 21  2  0  0  0  0
 20 24  1  0  0  0  0
 21 19  1  0  0  0  0
 22 15  1  6  0  0  0
 22 18  1  0  0  0  0
 23 16  1  0  0  0  0
 24 23  2  0  0  0  0
 25 26  1  0  0  0  0
 26 33  1  0  0  0  0
 28 27  1  1  0  0  0
 28 29  1  0  0  0  0
 29 34  1  6  0  0  0
 30 32  1  0  0  0  0
 31 29  1  0  0  0  0
 32 31  1  0  0  0  0
 33 30  1  0  0  0  0
 33 28  1  0  0  0  0
 34 36  2  0  0  0  0
 35 38  1  0  0  0  0
 35 34  1  0  0  0  0
 37 40  2  0  0  0  0
 37 38  1  0  0  0  0
 38 42  2  0  0  0  0
 39 41  2  0  0  0  0
 40 39  1  0  0  0  0
 42 41  1  0  0  0  0
M  END
>  <MODEL>
7

>  <REMARK>
 VINA RESULT:      -6.6      4.041      8.808
  Name = 
  12 active torsions:
  status: ('A' for Active; 'I' for Inactive)
    1  A    between atoms: C_7  and  C_8
    2  A    between atoms: N_11  and  C_19
    3  A    between atoms: C_12  and  C_29
    4  A    between atoms: S_15  and  C_29
    5  A    between atoms: S_15  and  C_32
    6  A    between atoms: C_18  and  C_26
    7  A    between atoms: C_18  and  N_35
    8  A    between atoms: S_22  and  C_26
    9  A    between atoms: S_22  and  C_31
   10  A    between atoms: N_30  and  C_40
   11  A    between atoms: C_34  and  C_39
   12  A    between atoms: C_39  and  C_40
                            x       y       z     vdW  Elec       q    Type
                         _______ _______ _______ _____ _____    ______ ____

>  <TORSDO>
F 12

$$$$
=
 OpenBabel11052411423D

 42 47  0  0  1  0  0  0  0  0999 V2000
  161.4360  209.7170  151.1260 C   0  0  2  0  0  3  0  0  0  0  0  0
  160.7820  208.7840  152.0730 C   0  0  1  0  0  3  0  0  0  0  0  0
  161.0220  206.9650  150.4450 C   0  0  0  0  0  0  0  0  0  0  0  0
  160.7680  207.3730  151.6490 N   0  0  0  0  0  0  0  0  0  0  0  0
  162.1070  209.1070  149.8970 C   0  0  1  0  0  3  0  0  0  0  0  0
  162.1650  209.2270  152.3090 N   0  0  0  0  0  0  0  0  0  0  0  0
  161.4460  207.8910  149.4550 N   0  0  0  0  0  2  0  0  0  0  0  0
  160.9080  205.2220  150.0540 S   0  0  0  0  0  0  0  0  0  0  0  0
  161.5510  204.7000  151.6730 C   0  0  0  0  0  2  0  0  0  0  0  0
  160.9240  202.4640  150.8060 C   0  0  0  0  0  1  0  0  0  0  0  0
  160.9920  203.3390  152.0420 C   0  0  0  0  0  2  0  0  0  0  0  0
  162.1140  210.2690  153.3340 C   0  0  0  0  0  2  0  0  0  0  0  0
  161.2010  208.6040  155.0400 C   0  0  0  0  0  1  0  0  0  0  0  0
  161.0500  209.9820  154.4040 C   0  0  1  0  0  3  0  0  0  0  0  0
  161.0020  211.3160  155.6570 S   0  0  0  0  0  0  0  0  0  0  0  0
  157.5240  211.5810  154.5540 C   0  0  0  0  0  0  0  0  0  0  0  0
  158.2050  211.4400  153.3300 N   0  0  0  0  0  0  0  0  0  0  0  0
  159.5210  211.9410  153.4370 N   0  0  0  0  0  0  0  0  0  0  0  0
  158.3620  212.0720  155.5010 C   0  0  0  0  0  0  0  0  0  0  0  0
  156.6140  211.9520  157.1400 C   0  0  0  0  0  3  0  0  0  0  0  0
  157.9420  212.2840  156.8150 C   0  0  0  0  0  3  0  0  0  0  0  0
  159.6860  212.3190  154.8610 C   0  0  1  0  0  3  0  0  0  0  0  0
  156.2120  211.2090  154.8440 C   0  0  0  0  0  3  0  0  0  0  0  0
  155.7540  211.4060  156.1600 C   0  0  0  0  0  3  0  0  0  0  0  0
  162.2090  210.1220  148.7790 C   0  0  0  0  0  2  0  0  0  0  0  0
  162.0020  211.5030  149.3770 C   0  0  0  0  0  2  0  0  0  0  0  0
  162.9170  213.6520  147.6880 C   0  0  0  0  0  1  0  0  0  0  0  0
  161.6670  212.8150  147.3840 C   0  0  2  0  0  3  0  0  0  0  0  0
  160.6750  213.6530  146.5530 C   0  0  2  0  0  3  0  0  0  0  0  0
  160.4920  213.3440  149.4130 C   0  0  0  0  0  2  0  0  0  0  0  0
  159.2840  213.7050  147.1890 C   0  0  0  0  0  2  0  0  0  0  0  0
  159.3650  214.0820  148.6760 C   0  0  0  0  0  2  0  0  0  0  0  0
  161.0290  212.2580  148.5930 N   0  0  0  0  0  0  0  0  0  0  0  0
  160.5750  213.1120  145.1640 C   0  0  0  0  0  0  0  0  0  0  0  0
  161.3600  213.7020  144.1170 N   0  0  0  0  0  2  0  0  0  0  0  0
  159.8040  212.1440  144.9350 O   0  0  0  0  0  0  0  0  0  0  0  0
  162.1690  212.2410  142.3440 C   0  0  0  0  0  3  0  0  0  0  0  0
  161.3780  213.3260  142.7360 C   0  0  0  0  0  0  0  0  0  0  0  0
  161.4860  212.5510  140.0410 C   0  0  0  0  0  3  0  0  0  0  0  0
  162.2230  211.8500  141.0030 C   0  0  0  0  0  3  0  0  0  0  0  0
  160.7020  213.6410  140.4220 C   0  0  0  0  0  3  0  0  0  0  0  0
  160.6500  214.0330  141.7650 C   0  0  0  0  0  3  0  0  0  0  0  0
  1  2  1  0  0  0  0
  1  6  1  1  0  0  0
  2  4  1  6  0  0  0
  2  6  1  0  0  0  0
  3  4  2  0  0  0  0
  5 25  1  6  0  0  0
  5  1  1  0  0  0  0
  6 12  1  0  0  0  0
  7  5  1  0  0  0  0
  7  3  1  0  0  0  0
  8  3  1  0  0  0  0
  8  9  1  0  0  0  0
  9 11  1  0  0  0  0
 10 11  1  0  0  0  0
 12 14  1  0  0  0  0
 14 13  1  1  0  0  0
 14 15  1  0  0  0  0
 16 23  2  0  0  0  0
 16 19  1  0  0  0  0
 17 18  2  0  0  0  0
 17 16  1  0  0  0  0
 18 22  1  0  0  0  0
 19 21  2  0  0  0  0
 21 20  1  0  0  0  0
 22 19  1  0  0  0  0
 22 15  1  1  0  0  0
 23 24  1  0  0  0  0
 24 20  2  0  0  0  0
 25 26  1  0  0  0  0
 28 27  1  1  0  0  0
 28 33  1  0  0  0  0
 29 34  1  6  0  0  0
 29 31  1  0  0  0  0
 29 28  1  0  0  0  0
 31 32  1  0  0  0  0
 32 30  1  0  0  0  0
 33 26  1  0  0  0  0
 33 30  1  0  0  0  0
 35 34  1  0  0  0  0
 36 34  2  0  0  0  0
 37 38  1  0  0  0  0
 38 35  1  0  0  0  0
 39 41  2  0  0  0  0
 39 40  1  0  0  0  0
 40 37  2  0  0  0  0
 41 42  1  0  0  0  0
 42 38  2  0  0  0  0
M  END
>  <MODEL>
8

>  <REMARK>
 VINA RESULT:      -6.5      2.807      6.306
  Name = 
  12 active torsions:
  status: ('A' for Active; 'I' for Inactive)
    1  A    between atoms: C_7  and  C_8
    2  A    between atoms: N_11  and  C_19
    3  A    between atoms: C_12  and  C_29
    4  A    between atoms: S_15  and  C_29
    5  A    between atoms: S_15  and  C_32
    6  A    between atoms: C_18  and  C_26
    7  A    between atoms: C_18  and  N_35
    8  A    between atoms: S_22  and  C_26
    9  A    between atoms: S_22  and  C_31
   10  A    between atoms: N_30  and  C_40
   11  A    between atoms: C_34  and  C_39
   12  A    between atoms: C_39  and  C_40
                            x       y       z     vdW  Elec       q    Type
                         _______ _______ _______ _____ _____    ______ ____

>  <TORSDO>
F 12

$$$$
=
 OpenBabel11052411423D

 42 47  0  0  1  0  0  0  0  0999 V2000
  162.3040  208.2920  149.7540 C   0  0  2  0  0  3  0  0  0  0  0  0
  162.7630  208.0580  148.3650 C   0  0  1  0  0  3  0  0  0  0  0  0
  161.4530  205.9860  148.2830 C   0  0  0  0  0  0  0  0  0  0  0  0
  162.1320  206.9140  147.6840 N   0  0  0  0  0  0  0  0  0  0  0  0
  161.1700  207.4090  150.2730 C   0  0  1  0  0  3  0  0  0  0  0  0
  161.7580  209.0960  148.6460 N   0  0  0  0  0  0  0  0  0  0  0  0
  161.1860  206.0850  149.6740 N   0  0  0  0  0  2  0  0  0  0  0  0
  160.7920  204.6180  147.3370 S   0  0  0  0  0  0  0  0  0  0  0  0
  161.3450  203.3710  148.5390 C   0  0  0  0  0  2  0  0  0  0  0  0
  161.1630  200.9440  149.0120 C   0  0  0  0  0  1  0  0  0  0  0  0
  160.4240  202.1660  148.5020 C   0  0  0  0  0  2  0  0  0  0  0  0
  162.4550  210.3820  148.6360 C   0  0  0  0  0  2  0  0  0  0  0  0
  160.9200  211.6520  150.2320 C   0  0  0  0  0  1  0  0  0  0  0  0
  161.4950  211.5670  148.8220 C   0  0  1  0  0  3  0  0  0  0  0  0
  162.2800  213.1360  148.3040 S   0  0  0  0  0  0  0  0  0  0  0  0
  158.8200  212.8260  147.1570 C   0  0  0  0  0  0  0  0  0  0  0  0
  159.5260  212.1780  146.1250 N   0  0  0  0  0  0  0  0  0  0  0  0
  160.8330  212.7010  146.0170 N   0  0  0  0  0  0  0  0  0  0  0  0
  159.6340  213.6970  147.8030 C   0  0  0  0  0  0  0  0  0  0  0  0
  157.8570  214.2710  149.3100 C   0  0  0  0  0  3  0  0  0  0  0  0
  159.1870  214.4530  148.8890 C   0  0  0  0  0  3  0  0  0  0  0  0
  160.9660  213.6650  147.1350 C   0  0  1  0  0  3  0  0  0  0  0  0
  157.5080  212.5920  147.5650 C   0  0  0  0  0  3  0  0  0  0  0  0
  157.0230  213.3340  148.6580 C   0  0  0  0  0  3  0  0  0  0  0  0
  161.1930  207.3360  151.7840 C   0  0  0  0  0  2  0  0  0  0  0  0
  160.9340  208.7320  152.3270 C   0  0  0  0  0  2  0  0  0  0  0  0
  162.3040  210.2970  154.3220 C   0  0  0  0  0  1  0  0  0  0  0  0
  160.8200  209.9170  154.4210 C   0  0  2  0  0  3  0  0  0  0  0  0
  160.4000  209.8620  155.9040 C   0  0  2  0  0  3  0  0  0  0  0  0
  161.1500  207.5360  154.3750 C   0  0  0  0  0  2  0  0  0  0  0  0
  159.7550  208.5250  156.2760 C   0  0  0  0  0  2  0  0  0  0  0  0
  160.6110  207.3420  155.8000 C   0  0  0  0  0  2  0  0  0  0  0  0
  160.4890  208.6630  153.7170 N   0  0  0  0  0  0  0  0  0  0  0  0
  159.4610  210.9800  156.2190 C   0  0  0  0  0  0  0  0  0  0  0  0
  158.2270  211.0930  155.4950 N   0  0  0  0  0  2  0  0  0  0  0  0
  159.7680  211.8060  157.1180 O   0  0  0  0  0  0  0  0  0  0  0  0
  156.1750  211.8750  156.5490 C   0  0  0  0  0  3  0  0  0  0  0  0
  157.2240  212.1020  155.6520 C   0  0  0  0  0  0  0  0  0  0  0  0
  155.2060  214.0230  155.9890 C   0  0  0  0  0  3  0  0  0  0  0  0
  155.1690  212.8300  156.7210 C   0  0  0  0  0  3  0  0  0  0  0  0
  156.2440  214.2530  155.0850 C   0  0  0  0  0  3  0  0  0  0  0  0
  157.2490  213.2950  154.9110 C   0  0  0  0  0  3  0  0  0  0  0  0
  1  6  1  6  0  0  0
  1  5  1  0  0  0  0
  2  4  1  6  0  0  0
  2  6  1  0  0  0  0
  2  1  1  0  0  0  0
  3  7  1  0  0  0  0
  4  3  2  0  0  0  0
  5 25  1  1  0  0  0
  7  5  1  0  0  0  0
  8  3  1  0  0  0  0
  8  9  1  0  0  0  0
 11  9  1  0  0  0  0
 11 10  1  0  0  0  0
 12  6  1  0  0  0  0
 12 14  1  0  0  0  0
 14 13  1  1  0  0  0
 15 14  1  0  0  0  0
 16 23  2  0  0  0  0
 16 19  1  0  0  0  0
 17 16  1  0  0  0  0
 18 17  2  0  0  0  0
 18 22  1  0  0  0  0
 19 21  2  0  0  0  0
 21 20  1  0  0  0  0
 22 19  1  0  0  0  0
 22 15  1  1  0  0  0
 23 24  1  0  0  0  0
 24 20  2  0  0  0  0
 25 26  1  0  0  0  0
 26 33  1  0  0  0  0
 28 27  1  1  0  0  0
 28 29  1  0  0  0  0
 29 34  1  6  0  0  0
 29 31  1  0  0  0  0
 30 32  1  0  0  0  0
 32 31  1  0  0  0  0
 33 30  1  0  0  0  0
 33 28  1  0  0  0  0
 34 36  2  0  0  0  0
 35 38  1  0  0  0  0
 35 34  1  0  0  0  0
 37 40  1  0  0  0  0
 38 37  2  0  0  0  0
 39 40  2  0  0  0  0
 41 39  1  0  0  0  0
 42 41  2  0  0  0  0
 42 38  1  0  0  0  0
M  END
>  <MODEL>
9

>  <REMARK>
 VINA RESULT:      -6.5      3.910     10.109
  Name = 
  12 active torsions:
  status: ('A' for Active; 'I' for Inactive)
    1  A    between atoms: C_7  and  C_8
    2  A    between atoms: N_11  and  C_19
    3  A    between atoms: C_12  and  C_29
    4  A    between atoms: S_15  and  C_29
    5  A    between atoms: S_15  and  C_32
    6  A    between atoms: C_18  and  C_26
    7  A    between atoms: C_18  and  N_35
    8  A    between atoms: S_22  and  C_26
    9  A    between atoms: S_22  and  C_31
   10  A    between atoms: N_30  and  C_40
   11  A    between atoms: C_34  and  C_39
   12  A    between atoms: C_39  and  C_40
                            x       y       z     vdW  Elec       q    Type
                         _______ _______ _______ _____ _____    ______ ____

>  <TORSDO>
F 12

$$$$
