=
 OpenBabel11052410153D

 25 27  0  0  1  0  0  0  0  0999 V2000
  160.5250  205.8910  150.1470 C   0  0  0  0  0  3  0  0  0  0  0  0
  161.5770  203.4220  151.0190 N   0  0  0  0  0  0  0  0  0  0  0  0
  160.9450  202.4160  149.0170 O   0  0  0  0  0  0  0  0  0  0  0  0
  161.0270  203.4720  149.6990 C   0  0  0  0  0  0  0  0  0  0  0  0
  160.5050  204.7740  149.1350 C   0  0  2  0  0  3  0  0  0  0  0  0
  161.0420  205.7580  151.3750 C   0  0  0  0  0  0  0  0  0  0  0  0
  161.5950  204.4580  151.8010 C   0  0  0  0  0  3  0  0  0  0  0  0
  160.3940  206.1410  145.7020 C   0  0  0  0  0  3  0  0  0  0  0  0
  163.0760  204.7130  146.2780 C   0  0  0  0  0  3  0  0  0  0  0  0
  161.2630  205.6530  144.8150 C   0  0  0  0  0  3  0  0  0  0  0  0
  161.2020  205.2030  147.8750 C   0  0  0  0  0  0  0  0  0  0  0  0
  160.7430  206.4230  147.1250 C   0  0  0  0  0  2  0  0  0  0  0  0
  162.2810  204.5070  147.5030 C   0  0  0  0  0  3  0  0  0  0  0  0
  162.6360  205.2110  145.1160 C   0  0  0  0  0  3  0  0  0  0  0  0
  161.0350  207.7980  154.5590 C   0  0  0  0  0  0  0  0  0  0  0  0
  160.9800  208.1830  151.8230 N   0  0  0  0  0  0  0  0  0  0  0  0
  161.0540  206.7010  153.6900 C   0  0  0  0  0  3  0  0  0  0  0  0
  161.0270  206.9080  152.3050 C   0  0  0  0  0  0  0  0  0  0  0  0
  160.9850  209.0890  154.0310 C   0  0  0  0  0  3  0  0  0  0  0  0
  160.9560  209.2690  152.6480 C   0  0  0  0  0  0  0  0  0  0  0  0
  160.0440  207.1850  156.7190 C   0  0  0  0  0  2  0  0  0  0  0  0
  161.0810  207.6300  156.0180 C   0  0  0  0  0  3  0  0  0  0  0  0
  160.9040  210.5670  152.1290 O   0  0  0  0  0  0  0  0  0  0  0  0
  160.2690  211.6450  152.8050 C   0  0  0  0  0  2  0  0  0  0  0  0
  158.7690  211.5880  152.5870 C   0  0  0  0  0  1  0  0  0  0  0  0
  1  6  2  0  0  0  0
  2  7  2  0  0  0  0
  3  4  2  0  0  0  0
  4  2  1  0  0  0  0
  5 11  1  6  0  0  0
  5  4  1  0  0  0  0
  5  1  1  0  0  0  0
  6  7  1  0  0  0  0
  6 18  1  0  0  0  0
  8 12  1  0  0  0  0
  9 13  1  0  0  0  0
 10 14  1  0  0  0  0
 10  8  2  0  0  0  0
 12 11  1  0  0  0  0
 13 11  2  0  0  0  0
 14  9  2  0  0  0  0
 15 22  1  0  0  0  0
 16 18  1  0  0  0  0
 16 20  2  0  0  0  0
 17 15  1  0  0  0  0
 18 17  2  0  0  0  0
 19 15  2  0  0  0  0
 20 19  1  0  0  0  0
 22 21  2  0  0  0  0
 23 20  1  0  0  0  0
 23 24  1  0  0  0  0
 25 24  1  0  0  0  0
M  END
>  <MODEL>
1

>  <REMARK>
 VINA RESULT:      -9.2      0.000      0.000
  Name = 
  5 active torsions:
  status: ('A' for Active; 'I' for Inactive)
    1  A    between atoms: C_1  and  O_21
    2  A    between atoms: C_4  and  C_19
    3  A    between atoms: C_9  and  C_16
    4  A    between atoms: C_13  and  C_20
    5  A    between atoms: O_21  and  C_24
                            x       y       z     vdW  Elec       q    Type
                         _______ _______ _______ _____ _____    ______ ____

>  <TORSDO>
F 5

$$$$
=
 OpenBabel11052410153D

 25 27  0  0  1  0  0  0  0  0999 V2000
  160.6410  207.7560  151.7470 C   0  0  0  0  0  3  0  0  0  0  0  0
  162.0360  210.0890  150.9920 N   0  0  0  0  0  0  0  0  0  0  0  0
  161.1480  211.2400  152.8100 O   0  0  0  0  0  0  0  0  0  0  0  0
  161.2580  210.1480  152.1920 C   0  0  0  0  0  0  0  0  0  0  0  0
  160.5370  208.9200  152.6980 C   0  0  2  0  0  3  0  0  0  0  0  0
  161.3760  207.7860  150.6290 C   0  0  0  0  0  0  0  0  0  0  0  0
  162.1050  209.0170  150.2630 C   0  0  0  0  0  3  0  0  0  0  0  0
  160.0370  206.8760  155.7380 C   0  0  0  0  0  3  0  0  0  0  0  0
  161.9240  209.2680  156.2660 C   0  0  0  0  0  3  0  0  0  0  0  0
  160.3340  207.4340  156.9130 C   0  0  0  0  0  3  0  0  0  0  0  0
  160.9600  208.5020  154.0780 C   0  0  0  0  0  0  0  0  0  0  0  0
  160.8590  207.0650  154.5070 C   0  0  0  0  0  2  0  0  0  0  0  0
  161.4990  209.4400  154.8640 C   0  0  0  0  0  3  0  0  0  0  0  0
  161.4220  208.3990  157.1510 C   0  0  0  0  0  3  0  0  0  0  0  0
  161.1030  204.2200  149.4000 C   0  0  0  0  0  0  0  0  0  0  0  0
  161.8580  206.7080  148.4630 N   0  0  0  0  0  0  0  0  0  0  0  0
  161.0450  205.3390  150.2390 C   0  0  0  0  0  3  0  0  0  0  0  0
  161.4290  206.5960  149.7530 C   0  0  0  0  0  0  0  0  0  0  0  0
  161.5490  204.3720  148.0870 C   0  0  0  0  0  3  0  0  0  0  0  0
  161.9290  205.6330  147.6260 C   0  0  0  0  0  0  0  0  0  0  0  0
  160.5310  201.8630  149.0290 C   0  0  0  0  0  2  0  0  0  0  0  0
  160.6930  202.8860  149.8600 C   0  0  0  0  0  3  0  0  0  0  0  0
  162.3770  205.7730  146.3090 O   0  0  0  0  0  0  0  0  0  0  0  0
  161.6680  205.2520  145.1920 C   0  0  0  0  0  2  0  0  0  0  0  0
  160.3510  205.9850  145.0190 C   0  0  0  0  0  1  0  0  0  0  0  0
  1  5  1  0  0  0  0
  2  4  1  0  0  0  0
  4  5  1  0  0  0  0
  4  3  2  0  0  0  0
  5 11  1  1  0  0  0
  6  1  2  0  0  0  0
  7  6  1  0  0  0  0
  7  2  2  0  0  0  0
  8 10  2  0  0  0  0
  9 14  2  0  0  0  0
 10 14  1  0  0  0  0
 11 12  1  0  0  0  0
 11 13  2  0  0  0  0
 12  8  1  0  0  0  0
 13  9  1  0  0  0  0
 15 22  1  0  0  0  0
 15 17  1  0  0  0  0
 16 18  1  0  0  0  0
 18 17  2  0  0  0  0
 18  6  1  0  0  0  0
 19 15  2  0  0  0  0
 20 19  1  0  0  0  0
 20 16  2  0  0  0  0
 21 22  2  0  0  0  0
 23 20  1  0  0  0  0
 24 23  1  0  0  0  0
 25 24  1  0  0  0  0
M  END
>  <MODEL>
2

>  <REMARK>
 VINA RESULT:      -9.1      1.760      7.839
  Name = 
  5 active torsions:
  status: ('A' for Active; 'I' for Inactive)
    1  A    between atoms: C_1  and  O_21
    2  A    between atoms: C_4  and  C_19
    3  A    between atoms: C_9  and  C_16
    4  A    between atoms: C_13  and  C_20
    5  A    between atoms: O_21  and  C_24
                            x       y       z     vdW  Elec       q    Type
                         _______ _______ _______ _____ _____    ______ ____

>  <TORSDO>
F 5

$$$$
=
 OpenBabel11052410153D

 25 27  0  0  1  0  0  0  0  0999 V2000
  160.6890  205.5140  149.9340 C   0  0  0  0  0  3  0  0  0  0  0  0
  161.9300  204.0020  151.9680 N   0  0  0  0  0  0  0  0  0  0  0  0
  160.9940  202.0460  151.1210 O   0  0  0  0  0  0  0  0  0  0  0  0
  161.1640  203.2880  150.9930 C   0  0  0  0  0  0  0  0  0  0  0  0
  160.5240  204.0200  149.8340 C   0  0  2  0  0  3  0  0  0  0  0  0
  161.4080  206.1110  150.8930 C   0  0  0  0  0  0  0  0  0  0  0  0
  162.0560  205.2940  151.9390 C   0  0  0  0  0  3  0  0  0  0  0  0
  161.4750  204.6880  146.3250 C   0  0  0  0  0  3  0  0  0  0  0  0
  160.8280  201.7000  146.7860 C   0  0  0  0  0  3  0  0  0  0  0  0
  161.1360  203.7790  145.4090 C   0  0  0  0  0  3  0  0  0  0  0  0
  160.9880  203.5360  148.4900 C   0  0  0  0  0  0  0  0  0  0  0  0
  161.9740  204.3370  147.6870 C   0  0  0  0  0  2  0  0  0  0  0  0
  160.5520  202.3380  148.0860 C   0  0  0  0  0  3  0  0  0  0  0  0
  161.0830  202.3230  145.6290 C   0  0  0  0  0  3  0  0  0  0  0  0
  161.3950  209.6940  152.1020 C   0  0  0  0  0  0  0  0  0  0  0  0
  161.8550  208.2660  149.7810 N   0  0  0  0  0  0  0  0  0  0  0  0
  161.2860  208.2980  152.0970 C   0  0  0  0  0  3  0  0  0  0  0  0
  161.5230  207.5850  150.9150 C   0  0  0  0  0  0  0  0  0  0  0  0
  161.7350  210.3580  150.9230 C   0  0  0  0  0  3  0  0  0  0  0  0
  161.9620  209.6260  149.7570 C   0  0  0  0  0  0  0  0  0  0  0  0
  161.4980  210.0340  154.5300 C   0  0  0  0  0  2  0  0  0  0  0  0
  161.1750  210.4830  153.3220 C   0  0  0  0  0  3  0  0  0  0  0  0
  162.3000  210.3010  148.5810 O   0  0  0  0  0  0  0  0  0  0  0  0
  161.9170  211.6470  148.3240 C   0  0  0  0  0  2  0  0  0  0  0  0
  163.1120  212.4480  147.8440 C   0  0  0  0  0  1  0  0  0  0  0  0
  1  6  2  0  0  0  0
  4  3  2  0  0  0  0
  4  2  1  0  0  0  0
  5 11  1  6  0  0  0
  5  1  1  0  0  0  0
  5  4  1  0  0  0  0
  6 18  1  0  0  0  0
  6  7  1  0  0  0  0
  7  2  2  0  0  0  0
  8 12  1  0  0  0  0
  9 13  1  0  0  0  0
 10 14  1  0  0  0  0
 10  8  2  0  0  0  0
 12 11  1  0  0  0  0
 13 11  2  0  0  0  0
 14  9  2  0  0  0  0
 15 22  1  0  0  0  0
 16 18  1  0  0  0  0
 17 15  1  0  0  0  0
 18 17  2  0  0  0  0
 19 15  2  0  0  0  0
 20 16  2  0  0  0  0
 20 19  1  0  0  0  0
 22 21  2  0  0  0  0
 23 20  1  0  0  0  0
 24 23  1  0  0  0  0
 25 24  1  0  0  0  0
M  END
>  <MODEL>
3

>  <REMARK>
 VINA RESULT:      -9.0      2.364      2.929
  Name = 
  5 active torsions:
  status: ('A' for Active; 'I' for Inactive)
    1  A    between atoms: C_1  and  O_21
    2  A    between atoms: C_4  and  C_19
    3  A    between atoms: C_9  and  C_16
    4  A    between atoms: C_13  and  C_20
    5  A    between atoms: O_21  and  C_24
                            x       y       z     vdW  Elec       q    Type
                         _______ _______ _______ _____ _____    ______ ____

>  <TORSDO>
F 5

$$$$
=
 OpenBabel11052410153D

 25 27  0  0  1  0  0  0  0  0999 V2000
  160.7720  205.5610  149.9340 C   0  0  0  0  0  3  0  0  0  0  0  0
  161.9210  204.0080  151.9910 N   0  0  0  0  0  0  0  0  0  0  0  0
  160.9100  202.0900  151.1440 O   0  0  0  0  0  0  0  0  0  0  0  0
  161.1360  203.3230  151.0110 C   0  0  0  0  0  0  0  0  0  0  0  0
  160.5440  204.0750  149.8400 C   0  0  2  0  0  3  0  0  0  0  0  0
  161.5050  206.1310  150.8990 C   0  0  0  0  0  0  0  0  0  0  0  0
  162.1040  205.2940  151.9570 C   0  0  0  0  0  3  0  0  0  0  0  0
  161.4900  204.6710  146.3170 C   0  0  0  0  0  3  0  0  0  0  0  0
  160.8280  201.6950  146.8360 C   0  0  0  0  0  3  0  0  0  0  0  0
  161.1440  203.7460  145.4200 C   0  0  0  0  0  3  0  0  0  0  0  0
  161.0020  203.5620  148.5050 C   0  0  0  0  0  0  0  0  0  0  0  0
  161.9900  204.3430  147.6840 C   0  0  0  0  0  2  0  0  0  0  0  0
  160.5580  202.3600  148.1240 C   0  0  0  0  0  3  0  0  0  0  0  0
  161.0840  202.2940  145.6670 C   0  0  0  0  0  3  0  0  0  0  0  0
  161.9910  209.6980  149.7410 C   0  0  0  0  0  0  0  0  0  0  0  0
  161.7280  208.2760  152.0960 N   0  0  0  0  0  0  0  0  0  0  0  0
  161.8180  208.3090  149.7130 C   0  0  0  0  0  3  0  0  0  0  0  0
  161.6850  207.5990  150.9130 C   0  0  0  0  0  0  0  0  0  0  0  0
  162.0330  210.3580  150.9700 C   0  0  0  0  0  3  0  0  0  0  0  0
  161.9020  209.6280  152.1520 C   0  0  0  0  0  0  0  0  0  0  0  0
  162.2390  211.8100  148.5160 C   0  0  0  0  0  2  0  0  0  0  0  0
  162.1160  210.4880  148.5080 C   0  0  0  0  0  3  0  0  0  0  0  0
  161.9470  210.2980  153.3780 O   0  0  0  0  0  0  0  0  0  0  0  0
  160.8690  211.0840  153.8710 C   0  0  0  0  0  2  0  0  0  0  0  0
  159.9710  210.2430  154.7570 C   0  0  0  0  0  1  0  0  0  0  0  0
  1  6  2  0  0  0  0
  4  3  2  0  0  0  0
  4  2  1  0  0  0  0
  5 11  1  6  0  0  0
  5  1  1  0  0  0  0
  5  4  1  0  0  0  0
  6 18  1  0  0  0  0
  6  7  1  0  0  0  0
  7  2  2  0  0  0  0
  8 12  1  0  0  0  0
  9 13  1  0  0  0  0
 10 14  1  0  0  0  0
 10  8  2  0  0  0  0
 12 11  1  0  0  0  0
 13 11  2  0  0  0  0
 14  9  2  0  0  0  0
 15 19  2  0  0  0  0
 16 20  2  0  0  0  0
 17 15  1  0  0  0  0
 17 18  2  0  0  0  0
 18 16  1  0  0  0  0
 19 20  1  0  0  0  0
 20 23  1  0  0  0  0
 22 21  2  0  0  0  0
 22 15  1  0  0  0  0
 23 24  1  0  0  0  0
 24 25  1  0  0  0  0
M  END
>  <MODEL>
4

>  <REMARK>
 VINA RESULT:      -8.8      2.182      3.444
  Name = 
  5 active torsions:
  status: ('A' for Active; 'I' for Inactive)
    1  A    between atoms: C_1  and  O_21
    2  A    between atoms: C_4  and  C_19
    3  A    between atoms: C_9  and  C_16
    4  A    between atoms: C_13  and  C_20
    5  A    between atoms: O_21  and  C_24
                            x       y       z     vdW  Elec       q    Type
                         _______ _______ _______ _____ _____    ______ ____

>  <TORSDO>
F 5

$$$$
=
 OpenBabel11052410153D

 25 27  0  0  1  0  0  0  0  0999 V2000
  160.5240  204.6030  150.1230 C   0  0  0  0  0  3  0  0  0  0  0  0
  161.8920  202.7580  151.7610 N   0  0  0  0  0  0  0  0  0  0  0  0
  161.0700  200.9850  150.4960 O   0  0  0  0  0  0  0  0  0  0  0  0
  161.1580  202.2320  150.6510 C   0  0  0  0  0  0  0  0  0  0  0  0
  160.4540  203.1620  149.6890 C   0  0  2  0  0  3  0  0  0  0  0  0
  161.2190  205.0150  151.1910 C   0  0  0  0  0  0  0  0  0  0  0  0
  161.9340  204.0280  152.0250 C   0  0  0  0  0  3  0  0  0  0  0  0
  161.4970  204.6790  146.4830 C   0  0  0  0  0  3  0  0  0  0  0  0
  160.7330  201.7020  146.1450 C   0  0  0  0  0  3  0  0  0  0  0  0
  161.1430  204.0530  145.3590 C   0  0  0  0  0  3  0  0  0  0  0  0
  160.9260  203.0250  148.2690 C   0  0  0  0  0  0  0  0  0  0  0  0
  161.9560  203.9670  147.7120 C   0  0  0  0  0  2  0  0  0  0  0  0
  160.4550  201.9920  147.5630 C   0  0  0  0  0  3  0  0  0  0  0  0
  161.0330  202.5920  145.1920 C   0  0  0  0  0  3  0  0  0  0  0  0
  161.6520  208.7640  150.9500 C   0  0  0  0  0  0  0  0  0  0  0  0
  160.8800  206.8570  152.7960 N   0  0  0  0  0  0  0  0  0  0  0  0
  161.6330  207.4080  150.6010 C   0  0  0  0  0  3  0  0  0  0  0  0
  161.2390  206.4500  151.5450 C   0  0  0  0  0  0  0  0  0  0  0  0
  161.2800  209.1430  152.2400 C   0  0  0  0  0  3  0  0  0  0  0  0
  160.8940  208.1700  153.1640 C   0  0  0  0  0  0  0  0  0  0  0  0
  161.9560  209.6300  148.6750 C   0  0  0  0  0  2  0  0  0  0  0  0
  162.0400  209.8050  149.9890 C   0  0  0  0  0  3  0  0  0  0  0  0
  160.5260  208.5620  154.4540 O   0  0  0  0  0  0  0  0  0  0  0  0
  160.9560  207.8750  155.6230 C   0  0  0  0  0  2  0  0  0  0  0  0
  159.7600  207.3280  156.3790 C   0  0  0  0  0  1  0  0  0  0  0  0
  1  6  2  0  0  0  0
  2  7  2  0  0  0  0
  3  4  2  0  0  0  0
  4  2  1  0  0  0  0
  5 11  1  6  0  0  0
  5  1  1  0  0  0  0
  5  4  1  0  0  0  0
  6 18  1  0  0  0  0
  6  7  1  0  0  0  0
  8 12  1  0  0  0  0
  9 13  1  0  0  0  0
 10  8  2  0  0  0  0
 12 11  1  0  0  0  0
 13 11  2  0  0  0  0
 14 10  1  0  0  0  0
 14  9  2  0  0  0  0
 15 19  2  0  0  0  0
 16 20  2  0  0  0  0
 17 15  1  0  0  0  0
 17 18  2  0  0  0  0
 18 16  1  0  0  0  0
 19 20  1  0  0  0  0
 20 23  1  0  0  0  0
 21 22  2  0  0  0  0
 22 15  1  0  0  0  0
 23 24  1  0  0  0  0
 24 25  1  0  0  0  0
M  END
>  <MODEL>
5

>  <REMARK>
 VINA RESULT:      -8.7      1.907      3.357
  Name = 
  5 active torsions:
  status: ('A' for Active; 'I' for Inactive)
    1  A    between atoms: C_1  and  O_21
    2  A    between atoms: C_4  and  C_19
    3  A    between atoms: C_9  and  C_16
    4  A    between atoms: C_13  and  C_20
    5  A    between atoms: O_21  and  C_24
                            x       y       z     vdW  Elec       q    Type
                         _______ _______ _______ _____ _____    ______ ____

>  <TORSDO>
F 5

$$$$
=
 OpenBabel11052410153D

 25 27  0  0  1  0  0  0  0  0999 V2000
  160.6000  207.7490  151.8470 C   0  0  0  0  0  3  0  0  0  0  0  0
  162.0310  210.0610  151.0950 N   0  0  0  0  0  0  0  0  0  0  0  0
  161.1620  211.2230  152.9140 O   0  0  0  0  0  0  0  0  0  0  0  0
  161.2550  210.1300  152.2950 C   0  0  0  0  0  0  0  0  0  0  0  0
  160.5150  208.9130  152.8000 C   0  0  2  0  0  3  0  0  0  0  0  0
  161.3360  207.7690  150.7280 C   0  0  0  0  0  0  0  0  0  0  0  0
  162.0830  208.9890  150.3640 C   0  0  0  0  0  3  0  0  0  0  0  0
  159.9240  206.9580  155.8820 C   0  0  0  0  0  3  0  0  0  0  0  0
  161.9900  209.2130  156.3360 C   0  0  0  0  0  3  0  0  0  0  0  0
  160.2820  207.5100  157.0410 C   0  0  0  0  0  3  0  0  0  0  0  0
  160.9320  208.4860  154.1780 C   0  0  0  0  0  0  0  0  0  0  0  0
  160.7340  207.0670  154.6330 C   0  0  0  0  0  2  0  0  0  0  0  0
  161.5530  209.3940  154.9400 C   0  0  0  0  0  3  0  0  0  0  0  0
  161.4420  208.3970  157.2440 C   0  0  0  0  0  3  0  0  0  0  0  0
  161.7890  205.5620  147.6910 C   0  0  0  0  0  0  0  0  0  0  0  0
  161.0080  205.3570  150.3330 N   0  0  0  0  0  0  0  0  0  0  0  0
  161.7650  206.6960  148.5120 C   0  0  0  0  0  3  0  0  0  0  0  0
  161.3690  206.5790  149.8500 C   0  0  0  0  0  0  0  0  0  0  0  0
  161.4110  204.3270  148.2190 C   0  0  0  0  0  3  0  0  0  0  0  0
  161.0170  204.2370  149.5540 C   0  0  0  0  0  0  0  0  0  0  0  0
  163.0490  204.7480  145.7480 C   0  0  0  0  0  2  0  0  0  0  0  0
  162.2160  205.6330  146.2860 C   0  0  0  0  0  3  0  0  0  0  0  0
  160.6380  202.9950  150.0720 O   0  0  0  0  0  0  0  0  0  0  0  0
  160.1000  201.9530  149.2680 C   0  0  0  0  0  2  0  0  0  0  0  0
  161.1650  200.9120  148.9790 C   0  0  0  0  0  1  0  0  0  0  0  0
  1  5  1  0  0  0  0
  2  4  1  0  0  0  0
  4  5  1  0  0  0  0
  4  3  2  0  0  0  0
  5 11  1  1  0  0  0
  6  1  2  0  0  0  0
  7  6  1  0  0  0  0
  7  2  2  0  0  0  0
  8 10  2  0  0  0  0
  9 14  2  0  0  0  0
 10 14  1  0  0  0  0
 11 12  1  0  0  0  0
 11 13  2  0  0  0  0
 12  8  1  0  0  0  0
 13  9  1  0  0  0  0
 15 19  2  0  0  0  0
 15 17  1  0  0  0  0
 17 18  2  0  0  0  0
 18 16  1  0  0  0  0
 18  6  1  0  0  0  0
 19 20  1  0  0  0  0
 20 23  1  0  0  0  0
 20 16  2  0  0  0  0
 21 22  2  0  0  0  0
 22 15  1  0  0  0  0
 24 23  1  0  0  0  0
 25 24  1  0  0  0  0
M  END
>  <MODEL>
6

>  <REMARK>
 VINA RESULT:      -8.7      1.456      8.255
  Name = 
  5 active torsions:
  status: ('A' for Active; 'I' for Inactive)
    1  A    between atoms: C_1  and  O_21
    2  A    between atoms: C_4  and  C_19
    3  A    between atoms: C_9  and  C_16
    4  A    between atoms: C_13  and  C_20
    5  A    between atoms: O_21  and  C_24
                            x       y       z     vdW  Elec       q    Type
                         _______ _______ _______ _____ _____    ______ ____

>  <TORSDO>
F 5

$$$$
=
 OpenBabel11052410153D

 25 27  0  0  1  0  0  0  0  0999 V2000
  162.0500  205.7360  148.4050 C   0  0  0  0  0  3  0  0  0  0  0  0
  160.7120  206.1680  145.9580 N   0  0  0  0  0  0  0  0  0  0  0  0
  161.2530  204.0160  145.2530 O   0  0  0  0  0  0  0  0  0  0  0  0
  161.2830  204.8740  146.1760 C   0  0  0  0  0  0  0  0  0  0  0  0
  161.9570  204.5440  147.4880 C   0  0  2  0  0  3  0  0  0  0  0  0
  161.5050  206.9250  148.1190 C   0  0  0  0  0  0  0  0  0  0  0  0
  160.8010  207.1200  146.8360 C   0  0  0  0  0  3  0  0  0  0  0  0
  160.9550  202.8650  150.6260 C   0  0  0  0  0  3  0  0  0  0  0  0
  161.0330  200.8910  148.2470 C   0  0  0  0  0  3  0  0  0  0  0  0
  161.0580  201.5360  150.6750 C   0  0  0  0  0  3  0  0  0  0  0  0
  161.3320  203.3840  148.2090 C   0  0  0  0  0  0  0  0  0  0  0  0
  160.4760  203.6090  149.4240 C   0  0  0  0  0  2  0  0  0  0  0  0
  161.5030  202.1680  147.6780 C   0  0  0  0  0  3  0  0  0  0  0  0
  160.8380  200.6190  149.5430 C   0  0  0  0  0  3  0  0  0  0  0  0
  161.5870  208.8930  151.3480 C   0  0  0  0  0  0  0  0  0  0  0  0
  161.9290  209.2990  148.6360 N   0  0  0  0  0  0  0  0  0  0  0  0
  161.4620  207.8250  150.4510 C   0  0  0  0  0  3  0  0  0  0  0  0
  161.6380  208.0430  149.0780 C   0  0  0  0  0  0  0  0  0  0  0  0
  161.8830  210.1660  150.8590 C   0  0  0  0  0  3  0  0  0  0  0  0
  162.0510  210.3580  149.4870 C   0  0  0  0  0  0  0  0  0  0  0  0
  160.9130  207.6030  153.3240 C   0  0  0  0  0  2  0  0  0  0  0  0
  161.4290  208.7080  152.7970 C   0  0  0  0  0  3  0  0  0  0  0  0
  162.3450  211.6380  149.0080 O   0  0  0  0  0  0  0  0  0  0  0  0
  161.7020  212.2070  147.8740 C   0  0  0  0  0  2  0  0  0  0  0  0
  162.7100  212.9510  147.0200 C   0  0  0  0  0  1  0  0  0  0  0  0
  2  4  1  0  0  0  0
  2  7  2  0  0  0  0
  3  4  2  0  0  0  0
  4  5  1  0  0  0  0
  5 11  1  1  0  0  0
  5  1  1  0  0  0  0
  6  1  2  0  0  0  0
  6 18  1  0  0  0  0
  7  6  1  0  0  0  0
  8 10  2  0  0  0  0
  9 14  2  0  0  0  0
 11 12  1  0  0  0  0
 12  8  1  0  0  0  0
 13 11  2  0  0  0  0
 13  9  1  0  0  0  0
 14 10  1  0  0  0  0
 15 22  1  0  0  0  0
 16 18  1  0  0  0  0
 16 20  2  0  0  0  0
 17 15  1  0  0  0  0
 18 17  2  0  0  0  0
 19 15  2  0  0  0  0
 20 19  1  0  0  0  0
 22 21  2  0  0  0  0
 23 20  1  0  0  0  0
 24 23  1  0  0  0  0
 25 24  1  0  0  0  0
M  END
>  <MODEL>
7

>  <REMARK>
 VINA RESULT:      -8.6      2.927      4.385
  Name = 
  5 active torsions:
  status: ('A' for Active; 'I' for Inactive)
    1  A    between atoms: C_1  and  O_21
    2  A    between atoms: C_4  and  C_19
    3  A    between atoms: C_9  and  C_16
    4  A    between atoms: C_13  and  C_20
    5  A    between atoms: O_21  and  C_24
                            x       y       z     vdW  Elec       q    Type
                         _______ _______ _______ _____ _____    ______ ____

>  <TORSDO>
F 5

$$$$
=
 OpenBabel11052410153D

 25 27  0  0  1  0  0  0  0  0999 V2000
  160.4640  205.5180  150.4910 C   0  0  0  0  0  3  0  0  0  0  0  0
  161.6000  203.1970  151.6230 N   0  0  0  0  0  0  0  0  0  0  0  0
  161.0090  201.9590  149.7420 O   0  0  0  0  0  0  0  0  0  0  0  0
  161.0510  203.0850  150.3060 C   0  0  0  0  0  0  0  0  0  0  0  0
  160.4850  204.2990  149.6060 C   0  0  2  0  0  3  0  0  0  0  0  0
  160.9820  205.5370  151.7260 C   0  0  0  0  0  0  0  0  0  0  0  0
  161.5800  204.3110  152.2890 C   0  0  0  0  0  3  0  0  0  0  0  0
  160.8800  206.4300  146.6100 C   0  0  0  0  0  3  0  0  0  0  0  0
  162.1950  203.6580  146.2240 C   0  0  0  0  0  3  0  0  0  0  0  0
  161.1830  205.8270  145.4600 C   0  0  0  0  0  3  0  0  0  0  0  0
  161.1690  204.6150  148.3060 C   0  0  0  0  0  0  0  0  0  0  0  0
  161.4680  206.0370  147.9250 C   0  0  0  0  0  2  0  0  0  0  0  0
  161.5650  203.5820  147.5550 C   0  0  0  0  0  3  0  0  0  0  0  0
  162.0320  204.6300  145.3190 C   0  0  0  0  0  3  0  0  0  0  0  0
  160.9100  209.1990  152.6690 C   0  0  0  0  0  0  0  0  0  0  0  0
  160.8380  206.7190  153.8860 N   0  0  0  0  0  0  0  0  0  0  0  0
  160.9620  208.0310  151.8990 C   0  0  0  0  0  3  0  0  0  0  0  0
  160.9240  206.7790  152.5270 C   0  0  0  0  0  0  0  0  0  0  0  0
  160.8250  209.0990  154.0580 C   0  0  0  0  0  3  0  0  0  0  0  0
  160.7920  207.8410  154.6610 C   0  0  0  0  0  0  0  0  0  0  0  0
  160.1270  211.5140  152.4540 C   0  0  0  0  0  2  0  0  0  0  0  0
  160.9280  210.5330  152.0540 C   0  0  0  0  0  3  0  0  0  0  0  0
  160.7090  207.7520  156.0530 O   0  0  0  0  0  0  0  0  0  0  0  0
  160.8310  208.8810  156.9090 C   0  0  0  0  0  2  0  0  0  0  0  0
  162.2940  209.1990  157.1520 C   0  0  0  0  0  1  0  0  0  0  0  0
  1  6  2  0  0  0  0
  2  7  2  0  0  0  0
  3  4  2  0  0  0  0
  4  2  1  0  0  0  0
  5 11  1  6  0  0  0
  5  4  1  0  0  0  0
  5  1  1  0  0  0  0
  6  7  1  0  0  0  0
  6 18  1  0  0  0  0
  8 12  1  0  0  0  0
  9 13  1  0  0  0  0
 10  8  2  0  0  0  0
 12 11  1  0  0  0  0
 13 11  2  0  0  0  0
 14 10  1  0  0  0  0
 14  9  2  0  0  0  0
 15 19  2  0  0  0  0
 16 20  2  0  0  0  0
 17 18  2  0  0  0  0
 17 15  1  0  0  0  0
 18 16  1  0  0  0  0
 19 20  1  0  0  0  0
 20 23  1  0  0  0  0
 22 21  2  0  0  0  0
 22 15  1  0  0  0  0
 23 24  1  0  0  0  0
 24 25  1  0  0  0  0
M  END
>  <MODEL>
8

>  <REMARK>
 VINA RESULT:      -8.5      1.414      2.696
  Name = 
  5 active torsions:
  status: ('A' for Active; 'I' for Inactive)
    1  A    between atoms: C_1  and  O_21
    2  A    between atoms: C_4  and  C_19
    3  A    between atoms: C_9  and  C_16
    4  A    between atoms: C_13  and  C_20
    5  A    between atoms: O_21  and  C_24
                            x       y       z     vdW  Elec       q    Type
                         _______ _______ _______ _____ _____    ______ ____

>  <TORSDO>
F 5

$$$$
=
 OpenBabel11052410153D

 25 27  0  0  1  0  0  0  0  0999 V2000
  162.0730  205.7600  148.3320 C   0  0  0  0  0  3  0  0  0  0  0  0
  160.6480  206.0500  145.9130 N   0  0  0  0  0  0  0  0  0  0  0  0
  161.1270  203.8470  145.3360 O   0  0  0  0  0  0  0  0  0  0  0  0
  161.2070  204.7640  146.1970 C   0  0  0  0  0  0  0  0  0  0  0  0
  161.9260  204.5110  147.5020 C   0  0  2  0  0  3  0  0  0  0  0  0
  161.5360  206.9370  147.9870 C   0  0  0  0  0  0  0  0  0  0  0  0
  160.7860  207.0580  146.7200 C   0  0  0  0  0  3  0  0  0  0  0  0
  161.0260  203.0620  150.7820 C   0  0  0  0  0  3  0  0  0  0  0  0
  160.9690  200.9350  148.5380 C   0  0  0  0  0  3  0  0  0  0  0  0
  161.1070  201.7370  150.9150 C   0  0  0  0  0  3  0  0  0  0  0  0
  161.3100  203.4130  148.3230 C   0  0  0  0  0  0  0  0  0  0  0  0
  160.5110  203.7350  149.5540 C   0  0  0  0  0  2  0  0  0  0  0  0
  161.4370  202.1620  147.8670 C   0  0  0  0  0  3  0  0  0  0  0  0
  160.8240  200.7520  149.8560 C   0  0  0  0  0  3  0  0  0  0  0  0
  162.1090  210.4900  149.1490 C   0  0  0  0  0  0  0  0  0  0  0  0
  161.7050  207.9740  150.2180 N   0  0  0  0  0  0  0  0  0  0  0  0
  161.9280  209.3850  148.3090 C   0  0  0  0  0  3  0  0  0  0  0  0
  161.7240  208.1140  148.8620 C   0  0  0  0  0  0  0  0  0  0  0  0
  162.0860  210.3080  150.5330 C   0  0  0  0  0  3  0  0  0  0  0  0
  161.8840  209.0320  151.0600 C   0  0  0  0  0  0  0  0  0  0  0  0
  161.4570  212.8370  148.8520 C   0  0  0  0  0  2  0  0  0  0  0  0
  162.3070  211.8440  148.6150 C   0  0  0  0  0  3  0  0  0  0  0  0
  161.8650  208.8610  152.4470 O   0  0  0  0  0  0  0  0  0  0  0  0
  160.8230  208.1730  153.1280 C   0  0  0  0  0  2  0  0  0  0  0  0
  161.2880  206.7870  153.5320 C   0  0  0  0  0  1  0  0  0  0  0  0
  2  4  1  0  0  0  0
  2  7  2  0  0  0  0
  3  4  2  0  0  0  0
  4  5  1  0  0  0  0
  5 11  1  1  0  0  0
  5  1  1  0  0  0  0
  6  1  2  0  0  0  0
  6 18  1  0  0  0  0
  7  6  1  0  0  0  0
  8 10  2  0  0  0  0
  9 14  2  0  0  0  0
 11 12  1  0  0  0  0
 12  8  1  0  0  0  0
 13 11  2  0  0  0  0
 13  9  1  0  0  0  0
 14 10  1  0  0  0  0
 15 19  2  0  0  0  0
 16 20  2  0  0  0  0
 17 18  2  0  0  0  0
 17 15  1  0  0  0  0
 18 16  1  0  0  0  0
 19 20  1  0  0  0  0
 20 23  1  0  0  0  0
 22 21  2  0  0  0  0
 22 15  1  0  0  0  0
 23 24  1  0  0  0  0
 24 25  1  0  0  0  0
M  END
>  <MODEL>
9

>  <REMARK>
 VINA RESULT:      -8.4      2.661      5.010
  Name = 
  5 active torsions:
  status: ('A' for Active; 'I' for Inactive)
    1  A    between atoms: C_1  and  O_21
    2  A    between atoms: C_4  and  C_19
    3  A    between atoms: C_9  and  C_16
    4  A    between atoms: C_13  and  C_20
    5  A    between atoms: O_21  and  C_24
                            x       y       z     vdW  Elec       q    Type
                         _______ _______ _______ _____ _____    ______ ____

>  <TORSDO>
F 5

$$$$
