=
 OpenBabel11042422423D

 66 70  0  0  1  0  0  0  0  0999 V2000
  162.1770  207.8350  149.5640 C   0  0  0  0  0  2  0  0  0  0  0  0
  161.9880  209.2450  150.0700 C   0  0  2  0  0  3  0  0  0  0  0  0
  160.6710  207.7330  151.4550 C   0  0  2  0  0  3  0  0  0  0  0  0
  161.7500  206.9520  150.7100 C   0  0  0  0  0  2  0  0  0  0  0  0
  160.7880  209.1780  150.9860 C   0  0  0  0  0  2  0  0  0  0  0  0
  161.1430  206.4420  153.5750 C   0  0  0  0  0  0  0  0  0  0  0  0
  160.9040  207.6860  152.8900 N   0  0  0  0  0  2  0  0  0  0  0  0
  160.9170  206.3330  154.8650 N   0  0  0  0  0  0  0  0  0  0  0  0
  160.4510  207.3840  155.7310 C   0  0  0  0  0  0  0  0  0  0  0  0
  159.2880  207.3570  156.2280 O   0  0  0  0  0  0  0  0  0  0  0  0
  161.3940  208.4700  156.1350 C   0  0  0  0  0  2  0  0  0  0  0  0
  160.6560  209.6180  156.8160 C   0  0  0  0  0  2  0  0  0  0  0  0
  160.4500  210.6920  155.8960 O   0  0  0  0  0  0  0  0  0  0  0  0
  160.4870  212.0360  156.2930 C   0  0  0  0  0  0  0  0  0  0  0  0
  161.2030  212.4020  157.2600 O   0  0  0  0  0  1  0  0  0  0  0  0
  159.6830  212.9630  155.6470 O   0  0  0  0  0  0  0  0  0  0  0  0
  160.8410  204.2210  152.7320 C   0  0  0  0  0  3  0  0  0  0  0  0
  161.5440  205.3010  152.8110 N   0  0  0  0  0  0  0  0  0  0  0  0
  161.3410  203.1020  151.8770 C   0  0  0  0  0  2  0  0  0  0  0  0
  161.0320  203.2980  150.4290 C   0  0  0  0  0  0  0  0  0  0  0  0
  161.8180  204.1610  149.5680 C   0  0  0  0  0  3  0  0  0  0  0  0
  160.2370  202.5250  149.7620 N   0  0  0  0  0  0  0  0  0  0  0  0
  161.4300  203.8760  148.3320 C   0  0  0  0  0  0  0  0  0  0  0  0
  160.3330  202.8580  148.3430 C   0  0  1  0  0  3  0  0  0  0  0  0
  161.3890  198.6860  146.5600 C   0  0  0  0  0  2  0  0  0  0  0  0
  161.9680  199.4350  147.7380 C   0  0  0  0  0  2  0  0  0  0  0  0
  160.4250  200.6000  145.3020 C   0  0  0  0  0  0  0  0  0  0  0  0
  159.5530  200.5620  144.3910 O   0  0  0  0  0  0  0  0  0  0  0  0
  161.4950  199.5480  145.3300 C   0  0  0  0  0  2  0  0  0  0  0  0
  160.3640  201.6630  146.2590 N   0  0  0  0  0  0  0  0  0  0  0  0
  160.6900  201.6510  147.5230 C   0  0  0  0  0  0  0  0  0  0  0  0
  161.0380  200.4400  148.2180 N   0  0  0  0  0  2  0  0  0  0  0  0
  161.9740  204.5470  147.1070 C   0  0  0  0  0  2  0  0  0  0  0  0
  161.0600  205.4870  146.6480 O   0  0  0  0  0  0  0  0  0  0  0  0
  161.1370  205.4850  144.9520 P   0  0  0  0  0  0  0  0  0  0  0  0
  160.6100  206.7710  144.3450 O   0  0  0  0  0  1  0  0  0  0  0  0
  160.2600  204.1710  144.3420 O   0  0  0  0  0  0  0  0  0  0  0  0
  162.7590  205.3170  144.4790 O   0  0  0  0  0  1  0  0  0  0  0  0
  161.7740  210.1540  148.9900 O   0  0  0  0  0  0  0  0  0  0  0  0
  163.1190  211.9360  149.6000 O   0  0  0  0  0  0  0  0  0  0  0  0
  162.0150  211.5190  149.1330 C   0  0  0  0  0  0  0  0  0  0  0  0
  160.4560  212.3850  147.1190 S   0  0  0  0  0  0  0  0  0  0  0  0
  161.0160  212.4970  148.6440 C   0  0  1  0  0  3  0  0  0  0  0  0
  160.3600  211.7590  151.2320 O   0  0  0  0  0  1  0  0  0  0  0  0
  157.7820  213.3060  150.3250 C   0  0  0  0  0  2  0  0  0  0  0  0
  160.1990  213.1440  151.0560 C   0  0  1  0  0  3  0  0  0  0  0  0
  158.3000  213.8230  148.9730 C   0  0  0  0  0  2  0  0  0  0  0  0
  160.5330  213.5730  149.5950 C   0  0  2  0  0  3  0  0  0  0  0  0
  159.5610  214.4510  149.0490 O   0  0  0  0  0  0  0  0  0  0  0  0
  158.3590  212.9700  152.6270 O   0  0  0  0  0  1  0  0  0  0  0  0
  158.7770  213.5850  151.4450 C   0  0  2  0  0  3  0  0  0  0  0  0
  161.9360  212.5080  146.1040 C   0  0  0  0  0  2  0  0  0  0  0  0
  162.0710  213.9420  145.6170 C   0  0  0  0  0  2  0  0  0  0  0  0
  162.2850  214.0350  144.1130 C   0  0  0  0  0  2  0  0  0  0  0  0
  161.0280  213.7650  143.2750 C   0  0  2  0  0  3  0  0  0  0  0  0
  159.8060  214.4090  143.8990 C   0  0  0  0  0  2  0  0  0  0  0  0
  158.6890  213.3920  144.0250 C   0  0  0  0  0  1  0  0  0  0  0  0
  160.7940  212.2620  143.1490 C   0  0  0  0  0  2  0  0  0  0  0  0
  160.0130  211.8810  141.8980 C   0  0  0  0  0  2  0  0  0  0  0  0
  160.9730  211.4500  140.8450 C   0  0  0  0  0  0  0  0  0  0  0  0
  162.2310  211.8970  140.7430 N   0  0  0  0  0  0  0  0  0  0  0  0
  160.6730  210.6060  139.7970 C   0  0  0  0  0  3  0  0  0  0  0  0
  162.6780  211.3050  139.6220 C   0  0  0  0  0  0  0  0  0  0  0  0
  161.7640  210.5360  139.0150 N   0  0  0  0  0  2  0  0  0  0  0  0
  164.0070  211.6100  139.0330 C   0  0  0  0  0  2  0  0  0  0  0  0
  164.1220  213.0840  138.6970 C   0  0  0  0  0  1  0  0  0  0  0  0
  1  2  1  0  0  0  0
  1  4  1  0  0  0  0
  2 39  1  6  0  0  0
  2  5  1  0  0  0  0
  3  7  1  1  0  0  0
  4  3  1  0  0  0  0
  5  3  1  0  0  0  0
  6  8  2  0  0  0  0
  7  6  1  0  0  0  0
  8  9  1  0  0  0  0
  9 11  1  0  0  0  0
  9 10  2  0  0  0  0
 11 12  1  0  0  0  0
 13 14  1  0  0  0  0
 13 12  1  0  0  0  0
 14 15  1  0  0  0  0
 16 14  2  0  0  0  0
 17 18  2  0  0  0  0
 18  6  1  0  0  0  0
 19 17  1  0  0  0  0
 20 19  1  0  0  0  0
 21 20  1  0  0  0  0
 22 20  2  0  0  0  0
 23 24  1  0  0  0  0
 23 21  2  0  0  0  0
 24 31  1  6  0  0  0
 24 22  1  0  0  0  0
 25 26  1  0  0  0  0
 26 32  1  0  0  0  0
 27 29  1  0  0  0  0
 27 30  1  0  0  0  0
 28 27  2  0  0  0  0
 29 25  1  0  0  0  0
 30 31  2  0  0  0  0
 31 32  1  0  0  0  0
 33 23  1  0  0  0  0
 34 33  1  0  0  0  0
 35 34  1  0  0  0  0
 36 35  1  0  0  0  0
 37 35  2  0  0  0  0
 38 35  1  0  0  0  0
 39 41  1  0  0  0  0
 41 40  2  0  0  0  0
 43 42  1  1  0  0  0
 43 41  1  0  0  0  0
 45 51  1  0  0  0  0
 46 44  1  6  0  0  0
 46 51  1  0  0  0  0
 47 49  1  0  0  0  0
 47 45  1  0  0  0  0
 48 43  1  6  0  0  0
 48 46  1  0  0  0  0
 49 48  1  0  0  0  0
 51 50  1  1  0  0  0
 52 42  1  0  0  0  0
 53 52  1  0  0  0  0
 54 53  1  0  0  0  0
 55 58  1  1  0  0  0
 55 56  1  0  0  0  0
 55 54  1  0  0  0  0
 56 57  1  0  0  0  0
 59 58  1  0  0  0  0
 60 59  1  0  0  0  0
 61 60  1  0  0  0  0
 62 60  2  0  0  0  0
 63 61  2  0  0  0  0
 64 63  1  0  0  0  0
 64 62  1  0  0  0  0
 65 63  1  0  0  0  0
 66 65  1  0  0  0  0
M  END
>  <MODEL>
1

>  <REMARK>
 VINA RESULT:      -4.0      0.000      0.000
  Name = 
  26 active torsions:
  status: ('A' for Active; 'I' for Inactive)
    1  A    between atoms: C_2  and  O_50
    2  A    between atoms: C_3  and  O_65
    3  A    between atoms: C_4  and  C_36
    4  A    between atoms: C_4  and  C_48
    5  A    between atoms: C_5  and  C_7
    6  A    between atoms: C_5  and  C_21
    7  A    between atoms: P_10  and  O_55
    8  A    between atoms: C_11  and  N_44
    9  A    between atoms: C_12  and  C_54
   10  A    between atoms: C_18  and  C_53
   11  A    between atoms: C_21  and  C_53
   12  A    between atoms: C_28  and  C_49
   13  A    between atoms: C_30  and  C_47
   14  A    between atoms: C_30  and  O_55
   15  A    between atoms: C_31  and  C_60
   16  A    between atoms: C_32  and  N_43
   17  A    between atoms: C_33  and  C_54
   18  A    between atoms: C_36  and  C_53
   19  A    between atoms: C_37  and  C_42
   20  A    between atoms: C_37  and  O_50
   21  A    between atoms: S_38  and  C_48
   22  A    between atoms: C_40  and  C_57
   23  A    between atoms: C_40  and  C_59
   24  A    between atoms: C_42  and  C_45
   25  A    between atoms: C_57  and  O_65
   26  A    between atoms: N_58  and  C_59
                            x       y       z     vdW  Elec       q    Type
                         _______ _______ _______ _____ _____    ______ ____

>  <TORSDO>
F 26

$$$$
=
 OpenBabel11042422423D

 66 70  0  0  1  0  0  0  0  0999 V2000
  163.0840  206.0430  148.1020 C   0  0  0  0  0  2  0  0  0  0  0  0
  162.0490  206.9950  147.5530 C   0  0  2  0  0  3  0  0  0  0  0  0
  162.7430  205.4810  145.7720 C   0  0  2  0  0  3  0  0  0  0  0  0
  163.1000  204.8870  147.1320 C   0  0  0  0  0  2  0  0  0  0  0  0
  162.1390  206.8530  146.0500 C   0  0  0  0  0  2  0  0  0  0  0  0
  161.3450  204.9250  143.7440 C   0  0  0  0  0  0  0  0  0  0  0  0
  161.7500  204.6600  145.1000 N   0  0  0  0  0  2  0  0  0  0  0  0
  160.1860  204.4990  143.2950 N   0  0  0  0  0  0  0  0  0  0  0  0
  159.2240  203.7320  144.0410 C   0  0  0  0  0  0  0  0  0  0  0  0
  158.0240  204.1170  144.1550 O   0  0  0  0  0  0  0  0  0  0  0  0
  159.6220  202.4050  144.5990 C   0  0  0  0  0  2  0  0  0  0  0  0
  159.9390  202.5040  146.0880 C   0  0  0  0  0  2  0  0  0  0  0  0
  160.0280  201.2010  146.6650 O   0  0  0  0  0  0  0  0  0  0  0  0
  160.7620  200.9460  147.8320 C   0  0  0  0  0  0  0  0  0  0  0  0
  160.3900  201.4110  148.9400 O   0  0  0  0  0  1  0  0  0  0  0  0
  161.9420  200.2210  147.7550 O   0  0  0  0  0  0  0  0  0  0  0  0
  161.8260  206.1810  141.7620 C   0  0  0  0  0  3  0  0  0  0  0  0
  162.1860  205.7370  142.9200 N   0  0  0  0  0  0  0  0  0  0  0  0
  162.7740  207.0500  141.0010 C   0  0  0  0  0  2  0  0  0  0  0  0
  162.0800  208.1210  140.2250 C   0  0  0  0  0  0  0  0  0  0  0  0
  160.8110  207.9080  139.5540 C   0  0  0  0  0  3  0  0  0  0  0  0
  162.3900  209.3740  140.3100 N   0  0  0  0  0  0  0  0  0  0  0  0
  160.3810  209.1160  139.2180 C   0  0  0  0  0  0  0  0  0  0  0  0
  161.3820  210.1610  139.6030 C   0  0  1  0  0  3  0  0  0  0  0  0
  160.3240  213.5090  142.6630 C   0  0  0  0  0  2  0  0  0  0  0  0
  161.1150  212.2320  142.8270 C   0  0  0  0  0  2  0  0  0  0  0  0
  158.9880  212.9010  140.6580 C   0  0  0  0  0  0  0  0  0  0  0  0
  158.3740  213.6780  139.8770 O   0  0  0  0  0  0  0  0  0  0  0  0
  158.9550  213.1760  142.1330 C   0  0  0  0  0  2  0  0  0  0  0  0
  159.6740  211.7760  140.0990 N   0  0  0  0  0  0  0  0  0  0  0  0
  160.7770  211.2030  140.4990 C   0  0  0  0  0  0  0  0  0  0  0  0
  161.5970  211.7560  141.5440 N   0  0  0  0  0  2  0  0  0  0  0  0
  159.1000  209.3760  138.4850 C   0  0  0  0  0  2  0  0  0  0  0  0
  158.0860  209.6350  139.3990 O   0  0  0  0  0  0  0  0  0  0  0  0
  156.6760  209.9650  138.5140 P   0  0  0  0  0  0  0  0  0  0  0  0
  156.7890  211.2340  137.6920 O   0  0  0  0  0  1  0  0  0  0  0  0
  155.3560  210.0890  139.5660 O   0  0  0  0  0  1  0  0  0  0  0  0
  156.3910  208.6790  137.4410 O   0  0  0  0  0  0  0  0  0  0  0  0
  162.3110  208.3350  147.9690 O   0  0  0  0  0  0  0  0  0  0  0  0
  161.1420  208.1150  149.9540 O   0  0  0  0  0  0  0  0  0  0  0  0
  161.7170  208.8690  149.1110 C   0  0  0  0  0  0  0  0  0  0  0  0
  162.7030  210.8130  150.6880 S   0  0  0  0  0  0  0  0  0  0  0  0
  161.8420  210.3170  149.3970 C   0  0  1  0  0  3  0  0  0  0  0  0
  163.4490  211.9050  147.7950 O   0  0  0  0  0  1  0  0  0  0  0  0
  161.5970  214.0350  149.1700 C   0  0  0  0  0  2  0  0  0  0  0  0
  162.0910  212.1620  147.5430 C   0  0  1  0  0  3  0  0  0  0  0  0
  160.6400  213.0660  149.8850 C   0  0  0  0  0  2  0  0  0  0  0  0
  161.1710  211.3000  148.4590 C   0  0  2  0  0  3  0  0  0  0  0  0
  160.1240  212.0560  149.0470 O   0  0  0  0  0  0  0  0  0  0  0  0
  162.7650  214.4530  147.1190 O   0  0  0  0  0  1  0  0  0  0  0  0
  161.7760  213.6590  147.7050 C   0  0  2  0  0  3  0  0  0  0  0  0
  161.8940  210.0130  152.0810 C   0  0  0  0  0  2  0  0  0  0  0  0
  160.7330  210.8840  152.5320 C   0  0  0  0  0  2  0  0  0  0  0  0
  160.8710  211.3490  153.9750 C   0  0  0  0  0  2  0  0  0  0  0  0
  160.4420  210.3090  155.0190 C   0  0  2  0  0  3  0  0  0  0  0  0
  160.3350  210.9300  156.3980 C   0  0  0  0  0  2  0  0  0  0  0  0
  158.9090  210.8350  156.9020 C   0  0  0  0  0  1  0  0  0  0  0  0
  161.4480  209.1620  155.0620 C   0  0  0  0  0  2  0  0  0  0  0  0
  160.7920  207.7970  155.2240 C   0  0  0  0  0  2  0  0  0  0  0  0
  161.1560  206.9480  154.0560 C   0  0  0  0  0  0  0  0  0  0  0  0
  160.4600  205.8750  153.6590 N   0  0  0  0  0  0  0  0  0  0  0  0
  162.2890  207.1010  153.2870 C   0  0  0  0  0  3  0  0  0  0  0  0
  161.1920  205.3930  152.6400 C   0  0  0  0  0  0  0  0  0  0  0  0
  162.3080  206.0930  152.3980 N   0  0  0  0  0  2  0  0  0  0  0  0
  160.8700  204.1130  151.9590 C   0  0  0  0  0  2  0  0  0  0  0  0
  161.0020  204.2550  150.4550 C   0  0  0  0  0  1  0  0  0  0  0  0
  2 39  1  6  0  0  0
  2  1  1  0  0  0  0
  3  7  1  1  0  0  0
  3  5  1  0  0  0  0
  3  4  1  0  0  0  0
  4  1  1  0  0  0  0
  5  2  1  0  0  0  0
  6  7  1  0  0  0  0
  8  6  2  0  0  0  0
  8  9  1  0  0  0  0
  9 10  2  0  0  0  0
  9 11  1  0  0  0  0
 11 12  1  0  0  0  0
 12 13  1  0  0  0  0
 13 14  1  0  0  0  0
 14 15  1  0  0  0  0
 16 14  2  0  0  0  0
 17 18  2  0  0  0  0
 18  6  1  0  0  0  0
 19 17  1  0  0  0  0
 20 22  2  0  0  0  0
 20 19  1  0  0  0  0
 21 20  1  0  0  0  0
 23 21  2  0  0  0  0
 23 24  1  0  0  0  0
 24 22  1  0  0  0  0
 24 31  1  1  0  0  0
 25 26  1  0  0  0  0
 27 29  1  0  0  0  0
 28 27  2  0  0  0  0
 29 25  1  0  0  0  0
 30 31  2  0  0  0  0
 30 27  1  0  0  0  0
 31 32  1  0  0  0  0
 32 26  1  0  0  0  0
 33 23  1  0  0  0  0
 33 34  1  0  0  0  0
 35 34  1  0  0  0  0
 35 37  1  0  0  0  0
 36 35  1  0  0  0  0
 38 35  2  0  0  0  0
 39 41  1  0  0  0  0
 41 40  2  0  0  0  0
 42 52  1  0  0  0  0
 43 41  1  6  0  0  0
 43 42  1  0  0  0  0
 45 47  1  0  0  0  0
 46 51  1  0  0  0  0
 46 44  1  1  0  0  0
 46 48  1  0  0  0  0
 48 49  1  0  0  0  0
 48 43  1  1  0  0  0
 49 47  1  0  0  0  0
 51 50  1  1  0  0  0
 51 45  1  0  0  0  0
 52 53  1  0  0  0  0
 53 54  1  0  0  0  0
 55 54  1  6  0  0  0
 55 58  1  0  0  0  0
 55 56  1  0  0  0  0
 56 57  1  0  0  0  0
 58 59  1  0  0  0  0
 60 59  1  0  0  0  0
 61 60  1  0  0  0  0
 62 60  2  0  0  0  0
 63 61  2  0  0  0  0
 64 63  1  0  0  0  0
 64 62  1  0  0  0  0
 65 63  1  0  0  0  0
 66 65  1  0  0  0  0
M  END
>  <MODEL>
2

>  <REMARK>
 VINA RESULT:      -1.5      3.371     10.685
  Name = 
  26 active torsions:
  status: ('A' for Active; 'I' for Inactive)
    1  A    between atoms: C_2  and  O_50
    2  A    between atoms: C_3  and  O_65
    3  A    between atoms: C_4  and  C_36
    4  A    between atoms: C_4  and  C_48
    5  A    between atoms: C_5  and  C_7
    6  A    between atoms: C_5  and  C_21
    7  A    between atoms: P_10  and  O_55
    8  A    between atoms: C_11  and  N_44
    9  A    between atoms: C_12  and  C_54
   10  A    between atoms: C_18  and  C_53
   11  A    between atoms: C_21  and  C_53
   12  A    between atoms: C_28  and  C_49
   13  A    between atoms: C_30  and  C_47
   14  A    between atoms: C_30  and  O_55
   15  A    between atoms: C_31  and  C_60
   16  A    between atoms: C_32  and  N_43
   17  A    between atoms: C_33  and  C_54
   18  A    between atoms: C_36  and  C_53
   19  A    between atoms: C_37  and  C_42
   20  A    between atoms: C_37  and  O_50
   21  A    between atoms: S_38  and  C_48
   22  A    between atoms: C_40  and  C_57
   23  A    between atoms: C_40  and  C_59
   24  A    between atoms: C_42  and  C_45
   25  A    between atoms: C_57  and  O_65
   26  A    between atoms: N_58  and  C_59
                            x       y       z     vdW  Elec       q    Type
                         _______ _______ _______ _____ _____    ______ ____

>  <TORSDO>
F 26

$$$$
=
 OpenBabel11042422423D

 66 70  0  0  1  0  0  0  0  0999 V2000
  161.2680  211.7540  146.1530 C   0  0  0  0  0  2  0  0  0  0  0  0
  161.1450  213.2590  146.1680 C   0  0  2  0  0  3  0  0  0  0  0  0
  159.8470  212.3490  148.0200 C   0  0  2  0  0  3  0  0  0  0  0  0
  160.8670  211.3190  147.5410 C   0  0  0  0  0  2  0  0  0  0  0  0
  159.9860  213.5520  147.0940 C   0  0  0  0  0  2  0  0  0  0  0  0
  160.6870  211.8540  150.3500 C   0  0  0  0  0  0  0  0  0  0  0  0
  160.1430  212.7690  149.3800 N   0  0  0  0  0  2  0  0  0  0  0  0
  160.5460  212.0800  151.6360 N   0  0  0  0  0  0  0  0  0  0  0  0
  159.8890  213.2160  152.2260 C   0  0  0  0  0  0  0  0  0  0  0  0
  159.8160  214.3220  151.6150 O   0  0  0  0  0  0  0  0  0  0  0  0
  159.1890  213.0580  153.5360 C   0  0  0  0  0  2  0  0  0  0  0  0
  158.2940  211.8240  153.5390 C   0  0  0  0  0  2  0  0  0  0  0  0
  158.4760  211.0790  154.7440 O   0  0  0  0  0  0  0  0  0  0  0  0
  158.4930  211.6890  156.0070 C   0  0  0  0  0  0  0  0  0  0  0  0
  159.3340  211.3450  156.8760 O   0  0  0  0  0  1  0  0  0  0  0  0
  157.5350  212.6420  156.3200 O   0  0  0  0  0  0  0  0  0  0  0  0
  162.5060  210.3020  150.2160 C   0  0  0  0  0  3  0  0  0  0  0  0
  161.3060  210.6500  149.8890 N   0  0  0  0  0  0  0  0  0  0  0  0
  163.0400  209.0030  149.7040 C   0  0  0  0  0  2  0  0  0  0  0  0
  161.9600  208.0490  149.3120 C   0  0  0  0  0  0  0  0  0  0  0  0
  161.7980  207.5590  147.9560 C   0  0  0  0  0  3  0  0  0  0  0  0
  161.2680  207.3700  150.1680 N   0  0  0  0  0  0  0  0  0  0  0  0
  160.9430  206.5490  148.0440 C   0  0  0  0  0  0  0  0  0  0  0  0
  160.4660  206.3800  149.4520 C   0  0  1  0  0  3  0  0  0  0  0  0
  161.1430  202.4270  151.8220 C   0  0  0  0  0  2  0  0  0  0  0  0
  161.7330  203.8060  152.0070 C   0  0  0  0  0  2  0  0  0  0  0  0
  160.4790  202.5910  149.4330 C   0  0  0  0  0  0  0  0  0  0  0  0
  159.6640  201.8590  148.8080 O   0  0  0  0  0  0  0  0  0  0  0  0
  161.4190  201.9590  150.4180 C   0  0  0  0  0  2  0  0  0  0  0  0
  160.4840  203.9960  149.1560 N   0  0  0  0  0  0  0  0  0  0  0  0
  160.7310  204.9930  149.9630 C   0  0  0  0  0  0  0  0  0  0  0  0
  160.8970  204.8130  151.3810 N   0  0  0  0  0  2  0  0  0  0  0  0
  160.4690  205.7480  146.8690 C   0  0  0  0  0  2  0  0  0  0  0  0
  161.2520  206.0440  145.7600 O   0  0  0  0  0  0  0  0  0  0  0  0
  161.2530  204.6730  144.7580 P   0  0  0  0  0  0  0  0  0  0  0  0
  162.4370  203.7630  145.0210 O   0  0  0  0  0  1  0  0  0  0  0  0
  161.2560  205.1510  143.1340 O   0  0  0  0  0  0  0  0  0  0  0  0
  159.8400  203.7790  145.0550 O   0  0  0  0  0  1  0  0  0  0  0  0
  160.9090  213.7690  144.8560 O   0  0  0  0  0  0  0  0  0  0  0  0
  162.5180  212.4120  143.8940 O   0  0  0  0  0  0  0  0  0  0  0  0
  161.6640  213.3410  143.7650 C   0  0  0  0  0  0  0  0  0  0  0  0
  159.8760  214.2920  141.9940 S   0  0  0  0  0  0  0  0  0  0  0  0
  161.3990  213.9050  142.4210 C   0  0  1  0  0  3  0  0  0  0  0  0
  160.8630  214.4400  139.7570 O   0  0  0  0  0  1  0  0  0  0  0  0
  162.8800  212.0430  139.5450 C   0  0  0  0  0  2  0  0  0  0  0  0
  162.2470  214.4500  139.9950 C   0  0  1  0  0  3  0  0  0  0  0  0
  163.2550  211.9370  141.0320 C   0  0  0  0  0  2  0  0  0  0  0  0
  162.5700  214.1190  141.4840 C   0  0  2  0  0  3  0  0  0  0  0  0
  163.6150  213.1690  141.6170 O   0  0  0  0  0  0  0  0  0  0  0  0
  162.4820  213.5760  137.7450 O   0  0  0  0  0  1  0  0  0  0  0  0
  162.9760  213.4800  139.0480 C   0  0  2  0  0  3  0  0  0  0  0  0
  158.9720  212.7470  142.1640 C   0  0  0  0  0  2  0  0  0  0  0  0
  159.6100  211.7110  141.2530 C   0  0  0  0  0  2  0  0  0  0  0  0
  158.5950  210.9980  140.3710 C   0  0  0  0  0  2  0  0  0  0  0  0
  158.7650  211.2610  138.8680 C   0  0  2  0  0  3  0  0  0  0  0  0
  158.4160  212.6940  138.5210 C   0  0  0  0  0  2  0  0  0  0  0  0
  158.8020  212.9900  137.0850 C   0  0  0  0  0  1  0  0  0  0  0  0
  157.8730  210.3180  138.0650 C   0  0  0  0  0  2  0  0  0  0  0  0
  158.6370  209.5160  137.0200 C   0  0  0  0  0  2  0  0  0  0  0  0
  159.9140  209.0380  137.6190 C   0  0  0  0  0  0  0  0  0  0  0  0
  160.0330  207.9170  138.3410 N   0  0  0  0  0  0  0  0  0  0  0  0
  161.1100  209.7210  137.5820 C   0  0  0  0  0  3  0  0  0  0  0  0
  161.3200  207.9380  138.7300 C   0  0  0  0  0  0  0  0  0  0  0  0
  161.9940  209.0160  138.3090 N   0  0  0  0  0  2  0  0  0  0  0  0
  161.8860  206.9390  139.6720 C   0  0  0  0  0  2  0  0  0  0  0  0
  162.8430  207.6000  140.6460 C   0  0  0  0  0  1  0  0  0  0  0  0
  1  2  1  0  0  0  0
  1  4  1  0  0  0  0
  2 39  1  6  0  0  0
  2  5  1  0  0  0  0
  3  7  1  1  0  0  0
  4  3  1  0  0  0  0
  5  3  1  0  0  0  0
  6  8  2  0  0  0  0
  7  6  1  0  0  0  0
  8  9  1  0  0  0  0
  9 11  1  0  0  0  0
 10  9  2  0  0  0  0
 11 12  1  0  0  0  0
 12 13  1  0  0  0  0
 13 14  1  0  0  0  0
 14 16  2  0  0  0  0
 14 15  1  0  0  0  0
 18 17  2  0  0  0  0
 18  6  1  0  0  0  0
 19 17  1  0  0  0  0
 20 19  1  0  0  0  0
 20 22  2  0  0  0  0
 21 23  2  0  0  0  0
 21 20  1  0  0  0  0
 23 24  1  0  0  0  0
 24 31  1  1  0  0  0
 24 22  1  0  0  0  0
 25 26  1  0  0  0  0
 27 29  1  0  0  0  0
 28 27  2  0  0  0  0
 29 25  1  0  0  0  0
 30 27  1  0  0  0  0
 30 31  2  0  0  0  0
 31 32  1  0  0  0  0
 32 26  1  0  0  0  0
 33 23  1  0  0  0  0
 34 33  1  0  0  0  0
 35 36  1  0  0  0  0
 35 38  1  0  0  0  0
 35 34  1  0  0  0  0
 37 35  2  0  0  0  0
 41 40  2  0  0  0  0
 41 39  1  0  0  0  0
 42 52  1  0  0  0  0
 43 42  1  1  0  0  0
 43 41  1  0  0  0  0
 45 47  1  0  0  0  0
 46 44  1  1  0  0  0
 46 48  1  0  0  0  0
 47 49  1  0  0  0  0
 48 49  1  0  0  0  0
 48 43  1  6  0  0  0
 51 50  1  6  0  0  0
 51 45  1  0  0  0  0
 51 46  1  0  0  0  0
 53 52  1  0  0  0  0
 54 53  1  0  0  0  0
 55 58  1  6  0  0  0
 55 54  1  0  0  0  0
 56 55  1  0  0  0  0
 57 56  1  0  0  0  0
 59 60  1  0  0  0  0
 59 58  1  0  0  0  0
 60 61  1  0  0  0  0
 61 63  2  0  0  0  0
 62 60  2  0  0  0  0
 62 64  1  0  0  0  0
 63 65  1  0  0  0  0
 64 63  1  0  0  0  0
 65 66  1  0  0  0  0
M  END
>  <MODEL>
3

>  <REMARK>
 VINA RESULT:      -1.4      3.150      6.220
  Name = 
  26 active torsions:
  status: ('A' for Active; 'I' for Inactive)
    1  A    between atoms: C_2  and  O_50
    2  A    between atoms: C_3  and  O_65
    3  A    between atoms: C_4  and  C_36
    4  A    between atoms: C_4  and  C_48
    5  A    between atoms: C_5  and  C_7
    6  A    between atoms: C_5  and  C_21
    7  A    between atoms: P_10  and  O_55
    8  A    between atoms: C_11  and  N_44
    9  A    between atoms: C_12  and  C_54
   10  A    between atoms: C_18  and  C_53
   11  A    between atoms: C_21  and  C_53
   12  A    between atoms: C_28  and  C_49
   13  A    between atoms: C_30  and  C_47
   14  A    between atoms: C_30  and  O_55
   15  A    between atoms: C_31  and  C_60
   16  A    between atoms: C_32  and  N_43
   17  A    between atoms: C_33  and  C_54
   18  A    between atoms: C_36  and  C_53
   19  A    between atoms: C_37  and  C_42
   20  A    between atoms: C_37  and  O_50
   21  A    between atoms: S_38  and  C_48
   22  A    between atoms: C_40  and  C_57
   23  A    between atoms: C_40  and  C_59
   24  A    between atoms: C_42  and  C_45
   25  A    between atoms: C_57  and  O_65
   26  A    between atoms: N_58  and  C_59
                            x       y       z     vdW  Elec       q    Type
                         _______ _______ _______ _____ _____    ______ ____

>  <TORSDO>
F 26

$$$$
=
 OpenBabel11042422423D

 66 70  0  0  1  0  0  0  0  0999 V2000
  162.4490  208.7110  149.8780 C   0  0  0  0  0  2  0  0  0  0  0  0
  162.3310  210.0760  150.5120 C   0  0  2  0  0  3  0  0  0  0  0  0
  160.9030  208.5210  151.7310 C   0  0  2  0  0  3  0  0  0  0  0  0
  161.9500  207.7510  150.9290 C   0  0  0  0  0  2  0  0  0  0  0  0
  161.1110  209.9940  151.4020 C   0  0  0  0  0  2  0  0  0  0  0  0
  161.3630  207.0220  153.7110 C   0  0  0  0  0  0  0  0  0  0  0  0
  161.1060  208.3250  153.1570 N   0  0  0  0  0  2  0  0  0  0  0  0
  161.1120  206.7700  154.9770 N   0  0  0  0  0  0  0  0  0  0  0  0
  160.6000  207.7100  155.9380 C   0  0  0  0  0  0  0  0  0  0  0  0
  159.4940  207.5140  156.5220 O   0  0  0  0  0  0  0  0  0  0  0  0
  161.4360  208.8840  156.3300 C   0  0  0  0  0  2  0  0  0  0  0  0
  160.7980  210.1930  155.8800 C   0  0  0  0  0  2  0  0  0  0  0  0
  159.5210  209.9470  155.2900 O   0  0  0  0  0  0  0  0  0  0  0  0
  158.5710  210.9610  155.1070 C   0  0  0  0  0  0  0  0  0  0  0  0
  158.1560  211.6380  156.0820 O   0  0  0  0  0  1  0  0  0  0  0  0
  158.0410  211.1840  153.8440 O   0  0  0  0  0  0  0  0  0  0  0  0
  161.3200  204.7850  152.8560 C   0  0  0  0  0  3  0  0  0  0  0  0
  161.8110  205.9790  152.8410 N   0  0  0  0  0  0  0  0  0  0  0  0
  161.8410  203.7830  151.8770 C   0  0  0  0  0  2  0  0  0  0  0  0
  161.1370  203.8410  150.5610 C   0  0  0  0  0  0  0  0  0  0  0  0
  161.4400  204.8380  149.5520 C   0  0  0  0  0  3  0  0  0  0  0  0
  160.4190  202.8700  150.0980 N   0  0  0  0  0  0  0  0  0  0  0  0
  160.8370  204.4180  148.4480 C   0  0  0  0  0  0  0  0  0  0  0  0
  160.0670  203.1610  148.7100 C   0  0  1  0  0  3  0  0  0  0  0  0
  161.5540  199.2780  146.6120 C   0  0  0  0  0  2  0  0  0  0  0  0
  162.1780  200.1130  147.7050 C   0  0  0  0  0  2  0  0  0  0  0  0
  160.0520  200.9840  145.6090 C   0  0  0  0  0  0  0  0  0  0  0  0
  159.0590  200.7900  144.8550 O   0  0  0  0  0  0  0  0  0  0  0  0
  161.2860  200.1530  145.4160 C   0  0  0  0  0  2  0  0  0  0  0  0
  159.9610  202.0100  146.6040 N   0  0  0  0  0  0  0  0  0  0  0  0
  160.4950  202.0500  147.7950 C   0  0  0  0  0  0  0  0  0  0  0  0
  161.1740  200.9210  148.3730 N   0  0  0  0  0  2  0  0  0  0  0  0
  160.8690  205.1550  147.1430 C   0  0  0  0  0  2  0  0  0  0  0  0
  162.1180  205.7390  146.9710 O   0  0  0  0  0  0  0  0  0  0  0  0
  162.8930  204.9190  145.7020 P   0  0  0  0  0  0  0  0  0  0  0  0
  163.1140  205.8020  144.4900 O   0  0  0  0  0  0  0  0  0  0  0  0
  161.9810  203.5640  145.2570 O   0  0  0  0  0  1  0  0  0  0  0  0
  164.4140  204.3920  146.2420 O   0  0  0  0  0  1  0  0  0  0  0  0
  162.1900  211.0930  149.5210 O   0  0  0  0  0  0  0  0  0  0  0  0
  161.2320  209.8470  147.8230 O   0  0  0  0  0  0  0  0  0  0  0  0
  161.3090  210.9460  148.4520 C   0  0  0  0  0  0  0  0  0  0  0  0
  159.4050  211.9050  146.8100 S   0  0  0  0  0  0  0  0  0  0  0  0
  160.3810  212.0480  148.1070 C   0  0  1  0  0  3  0  0  0  0  0  0
  159.4980  211.7710  150.7180 O   0  0  0  0  0  1  0  0  0  0  0  0
  157.7260  214.1470  149.6820 C   0  0  0  0  0  2  0  0  0  0  0  0
  159.8890  213.0960  150.4650 C   0  0  1  0  0  3  0  0  0  0  0  0
  158.3990  214.3450  148.3140 C   0  0  0  0  0  2  0  0  0  0  0  0
  160.3590  213.2790  148.9900 C   0  0  2  0  0  3  0  0  0  0  0  0
  159.8050  214.4340  148.3800 O   0  0  0  0  0  0  0  0  0  0  0  0
  158.1340  213.7430  152.0090 O   0  0  0  0  0  1  0  0  0  0  0  0
  158.7540  214.0780  150.8030 C   0  0  2  0  0  3  0  0  0  0  0  0
  160.5410  211.6500  145.4390 C   0  0  0  0  0  2  0  0  0  0  0  0
  160.0810  212.4980  144.2650 C   0  0  0  0  0  2  0  0  0  0  0  0
  161.0410  212.4420  143.0850 C   0  0  0  0  0  2  0  0  0  0  0  0
  160.3610  212.2560  141.7220 C   0  0  2  0  0  3  0  0  0  0  0  0
  161.3620  211.8380  140.6640 C   0  0  0  0  0  2  0  0  0  0  0  0
  162.7660  211.8690  141.2350 C   0  0  0  0  0  1  0  0  0  0  0  0
  159.6860  213.5550  141.2890 C   0  0  0  0  0  2  0  0  0  0  0  0
  158.3460  213.3340  140.6020 C   0  0  0  0  0  2  0  0  0  0  0  0
  158.4860  212.2230  139.6200 C   0  0  0  0  0  0  0  0  0  0  0  0
  159.5810  212.0060  138.8800 N   0  0  0  0  0  0  0  0  0  0  0  0
  157.4900  211.3320  139.2850 C   0  0  0  0  0  3  0  0  0  0  0  0
  159.2250  210.9700  138.1020 C   0  0  0  0  0  0  0  0  0  0  0  0
  157.9690  210.5490  138.3030 N   0  0  0  0  0  2  0  0  0  0  0  0
  160.0920  210.4540  137.0120 C   0  0  0  0  0  2  0  0  0  0  0  0
  161.3430  209.8100  137.5780 C   0  0  0  0  0  1  0  0  0  0  0  0
  1  2  1  0  0  0  0
  1  4  1  0  0  0  0
  2 39  1  6  0  0  0
  2  5  1  0  0  0  0
  3  7  1  1  0  0  0
  4  3  1  0  0  0  0
  5  3  1  0  0  0  0
  6  8  2  0  0  0  0
  7  6  1  0  0  0  0
  8  9  1  0  0  0  0
  9 11  1  0  0  0  0
  9 10  2  0  0  0  0
 12 11  1  0  0  0  0
 13 12  1  0  0  0  0
 14 13  1  0  0  0  0
 14 15  1  0  0  0  0
 16 14  2  0  0  0  0
 18 17  2  0  0  0  0
 18  6  1  0  0  0  0
 19 17  1  0  0  0  0
 20 19  1  0  0  0  0
 21 20  1  0  0  0  0
 22 20  2  0  0  0  0
 23 24  1  0  0  0  0
 23 21  2  0  0  0  0
 24 31  1  6  0  0  0
 24 22  1  0  0  0  0
 25 26  1  0  0  0  0
 26 32  1  0  0  0  0
 27 30  1  0  0  0  0
 28 27  2  0  0  0  0
 29 27  1  0  0  0  0
 29 25  1  0  0  0  0
 30 31  2  0  0  0  0
 31 32  1  0  0  0  0
 33 23  1  0  0  0  0
 34 33  1  0  0  0  0
 35 38  1  0  0  0  0
 35 34  1  0  0  0  0
 36 35  2  0  0  0  0
 37 35  1  0  0  0  0
 40 41  2  0  0  0  0
 41 39  1  0  0  0  0
 43 42  1  1  0  0  0
 43 41  1  0  0  0  0
 45 51  1  0  0  0  0
 46 44  1  6  0  0  0
 46 51  1  0  0  0  0
 47 49  1  0  0  0  0
 47 45  1  0  0  0  0
 48 43  1  6  0  0  0
 48 46  1  0  0  0  0
 49 48  1  0  0  0  0
 51 50  1  1  0  0  0
 52 42  1  0  0  0  0
 53 52  1  0  0  0  0
 54 53  1  0  0  0  0
 55 56  1  6  0  0  0
 55 54  1  0  0  0  0
 56 57  1  0  0  0  0
 58 55  1  0  0  0  0
 59 58  1  0  0  0  0
 60 59  1  0  0  0  0
 61 60  1  0  0  0  0
 62 60  2  0  0  0  0
 63 64  1  0  0  0  0
 63 61  2  0  0  0  0
 64 62  1  0  0  0  0
 65 66  1  0  0  0  0
 65 63  1  0  0  0  0
M  END
>  <MODEL>
4

>  <REMARK>
 VINA RESULT:      -1.4      1.454      2.021
  Name = 
  26 active torsions:
  status: ('A' for Active; 'I' for Inactive)
    1  A    between atoms: C_2  and  O_50
    2  A    between atoms: C_3  and  O_65
    3  A    between atoms: C_4  and  C_36
    4  A    between atoms: C_4  and  C_48
    5  A    between atoms: C_5  and  C_7
    6  A    between atoms: C_5  and  C_21
    7  A    between atoms: P_10  and  O_55
    8  A    between atoms: C_11  and  N_44
    9  A    between atoms: C_12  and  C_54
   10  A    between atoms: C_18  and  C_53
   11  A    between atoms: C_21  and  C_53
   12  A    between atoms: C_28  and  C_49
   13  A    between atoms: C_30  and  C_47
   14  A    between atoms: C_30  and  O_55
   15  A    between atoms: C_31  and  C_60
   16  A    between atoms: C_32  and  N_43
   17  A    between atoms: C_33  and  C_54
   18  A    between atoms: C_36  and  C_53
   19  A    between atoms: C_37  and  C_42
   20  A    between atoms: C_37  and  O_50
   21  A    between atoms: S_38  and  C_48
   22  A    between atoms: C_40  and  C_57
   23  A    between atoms: C_40  and  C_59
   24  A    between atoms: C_42  and  C_45
   25  A    between atoms: C_57  and  O_65
   26  A    between atoms: N_58  and  C_59
                            x       y       z     vdW  Elec       q    Type
                         _______ _______ _______ _____ _____    ______ ____

>  <TORSDO>
F 26

$$$$
