=
 OpenBabel11052411213D

 41 45  0  0  1  0  0  0  0  0999 V2000
  161.9680  207.2060  149.2050 C   0  0  2  0  0  3  0  0  0  0  0  0
  160.8490  206.7490  150.1290 C   0  0  0  0  0  2  0  0  0  0  0  0
  161.4180  206.0970  151.3850 C   0  0  1  0  0  3  0  0  0  0  0  0
  160.8500  209.0450  153.7580 C   0  0  0  0  0  3  0  0  0  0  0  0
  161.0180  206.2560  153.8600 C   0  0  0  0  0  3  0  0  0  0  0  0
  160.7000  208.3810  154.9770 C   0  0  0  0  0  3  0  0  0  0  0  0
  161.0840  208.3160  152.5870 C   0  0  0  0  0  3  0  0  0  0  0  0
  160.7820  206.9870  155.0290 C   0  0  0  0  0  3  0  0  0  0  0  0
  161.1720  206.9150  152.6320 C   0  0  0  0  0  0  0  0  0  0  0  0
  162.0530  203.8880  151.6180 O   0  0  0  0  0  1  0  0  0  0  0  0
  160.9730  204.6980  151.4840 N   0  0  0  0  0  0  0  0  0  0  0  0
  160.2860  204.3150  150.2570 C   0  0  0  0  0  2  0  0  0  0  0  0
  161.0960  203.2730  149.4980 C   0  0  0  0  0  2  0  0  0  0  0  0
  161.1600  200.9290  148.7160 C   0  0  0  0  0  2  0  0  0  0  0  0
  160.7550  200.9300  150.1750 C   0  0  0  0  0  2  0  0  0  0  0  0
  160.2660  202.0260  149.2550 C   0  0  0  0  0  3  0  0  0  0  0  0
  161.6990  208.6160  148.6910 C   0  0  0  0  0  2  0  0  0  0  0  0
  161.9590  209.6690  149.7570 C   0  0  0  0  0  2  0  0  0  0  0  0
  159.9020  214.3880  150.3860 N   0  0  0  0  0  0  0  0  0  0  0  0
  160.7990  212.2260  151.1670 C   0  0  0  0  0  2  0  0  0  0  0  0
  161.2830  212.0750  149.7620 C   0  0  0  0  0  0  0  0  0  0  0  0
  161.8270  210.9970  149.1810 N   0  0  0  0  0  0  0  0  0  0  0  0
  161.8380  212.5970  147.7020 C   0  0  0  0  0  3  0  0  0  0  0  0
  158.9670  213.5590  152.3820 N   0  0  0  0  0  2  0  0  0  0  0  0
  161.2760  213.0920  148.8660 C   0  0  0  0  0  0  0  0  0  0  0  0
  162.1540  211.2980  147.9300 N   0  0  0  0  0  0  0  0  0  0  0  0
  159.8860  213.4340  151.2860 C   0  0  0  0  0  0  0  0  0  0  0  0
  160.7870  214.4530  149.2110 C   0  0  0  0  0  2  0  0  0  0  0  0
  159.6420  212.8040  154.6880 C   0  0  0  0  0  2  0  0  0  0  0  0
  160.3610  211.6740  156.8090 C   0  0  0  0  0  1  0  0  0  0  0  0
  157.7460  211.7700  153.4720 C   0  0  0  0  0  3  0  0  0  0  0  0
  159.4560  211.7390  155.6780 N   0  0  0  0  0  0  0  0  0  0  0  0
  157.5150  210.8480  154.5930 C   0  0  0  0  0  3  0  0  0  0  0  0
  158.3400  210.8420  155.6360 C   0  0  0  0  0  3  0  0  0  0  0  0
  158.7450  212.6630  153.4830 C   0  0  0  0  0  0  0  0  0  0  0  0
  162.1190  206.2850  148.1350 O   0  0  0  0  0  0  0  0  0  0  0  0
  161.9440  206.6870  146.8130 C   0  0  0  0  0  3  0  0  0  0  0  0
  161.8750  205.7990  145.8270 C   0  0  0  0  0  3  0  0  0  0  0  0
  161.9850  204.3360  146.0840 C   0  0  0  0  0  2  0  0  0  0  0  0
  161.4360  203.6300  145.0100 O   0  0  0  0  0  0  0  0  0  0  0  0
  160.8760  202.4900  145.5830 C   0  0  0  0  0  1  0  0  0  0  0  0
  1 17  1  6  0  0  0
  1  2  1  0  0  0  0
  3  2  1  6  0  0  0
  3 11  1  0  0  0  0
  3  9  1  0  0  0  0
  4  6  1  0  0  0  0
  5  8  1  0  0  0  0
  6  8  2  0  0  0  0
  7  9  1  0  0  0  0
  7  4  2  0  0  0  0
  9  5  2  0  0  0  0
 11 10  1  0  0  0  0
 12 11  1  0  0  0  0
 13 12  1  0  0  0  0
 14 16  1  0  0  0  0
 14 15  1  0  0  0  0
 16 13  1  0  0  0  0
 16 15  1  0  0  0  0
 17 18  1  0  0  0  0
 19 27  2  0  0  0  0
 20 27  1  0  0  0  0
 21 20  1  0  0  0  0
 22 18  1  0  0  0  0
 22 21  1  0  0  0  0
 23 26  2  0  0  0  0
 23 25  1  0  0  0  0
 24 35  1  0  0  0  0
 25 28  1  0  0  0  0
 25 21  2  0  0  0  0
 26 22  1  0  0  0  0
 27 24  1  0  0  0  0
 28 19  1  0  0  0  0
 29 32  1  0  0  0  0
 31 35  2  0  0  0  0
 31 33  1  0  0  0  0
 32 30  1  0  0  0  0
 33 34  2  0  0  0  0
 34 32  1  0  0  0  0
 35 29  1  0  0  0  0
 36  1  1  0  0  0  0
 37 36  1  0  0  0  0
 38 39  1  0  0  0  0
 38 37  2  0  0  0  0
 40 41  1  0  0  0  0
 40 39  1  0  0  0  0
M  END
>  <MODEL>
1

>  <REMARK>
 VINA RESULT:      -7.3      0.000      0.000
  Name = 
  15 active torsions:
  status: ('A' for Active; 'I' for Inactive)
    1  A    between atoms: C_1  and  O_29
    2  A    between atoms: C_1  and  C_38
    3  A    between atoms: C_4  and  N_20
    4  A    between atoms: C_4  and  C_22
    5  A    between atoms: C_6  and  O_24
    6  A    between atoms: C_7  and  C_14
    7  A    between atoms: C_7  and  C_22
    8  A    between atoms: C_7  and  O_24
    9  A    between atoms: C_8  and  N_18
   10  A    between atoms: C_8  and  C_21
   11  A    between atoms: C_14  and  C_19
   12  A    between atoms: N_18  and  C_19
   13  A    between atoms: C_19  and  C_37
   14  A    between atoms: C_21  and  C_27
   15  A    between atoms: N_26  and  C_41
                            x       y       z     vdW  Elec       q    Type
                         _______ _______ _______ _____ _____    ______ ____

>  <TORSDO>
F 15

$$$$
=
 OpenBabel11052411213D

 41 45  0  0  1  0  0  0  0  0999 V2000
  161.0270  207.9310  151.7320 C   0  0  2  0  0  3  0  0  0  0  0  0
  162.1220  206.8980  151.5060 C   0  0  0  0  0  2  0  0  0  0  0  0
  161.9200  206.1760  150.1780 C   0  0  1  0  0  3  0  0  0  0  0  0
  160.8480  202.5760  149.4470 C   0  0  0  0  0  3  0  0  0  0  0  0
  161.4870  204.1840  151.6440 C   0  0  0  0  0  3  0  0  0  0  0  0
  160.8100  202.0420  150.7370 C   0  0  0  0  0  3  0  0  0  0  0  0
  161.2060  203.9150  149.2540 C   0  0  0  0  0  3  0  0  0  0  0  0
  161.1310  202.8450  151.8360 C   0  0  0  0  0  3  0  0  0  0  0  0
  161.5250  204.7280  150.3520 C   0  0  0  0  0  0  0  0  0  0  0  0
  159.9260  206.1990  149.0110 O   0  0  0  0  0  1  0  0  0  0  0  0
  161.0180  206.9480  149.3070 N   0  0  0  0  0  0  0  0  0  0  0  0
  161.6930  207.2560  148.0520 C   0  0  0  0  0  2  0  0  0  0  0  0
  161.0040  206.5520  146.8920 C   0  0  0  0  0  2  0  0  0  0  0  0
  161.6050  204.4150  145.8050 C   0  0  0  0  0  2  0  0  0  0  0  0
  161.3500  205.4410  144.7220 C   0  0  0  0  0  2  0  0  0  0  0  0
  162.0240  205.8540  146.0110 C   0  0  0  0  0  3  0  0  0  0  0  0
  161.5220  209.3260  151.3660 C   0  0  0  0  0  2  0  0  0  0  0  0
  162.1690  210.0280  152.5500 C   0  0  0  0  0  2  0  0  0  0  0  0
  158.9510  214.0660  152.0540 N   0  0  0  0  0  0  0  0  0  0  0  0
  160.2550  212.1410  151.2270 C   0  0  0  0  0  2  0  0  0  0  0  0
  160.4090  211.7980  152.6730 C   0  0  0  0  0  0  0  0  0  0  0  0
  161.1870  210.8590  153.2280 N   0  0  0  0  0  0  0  0  0  0  0  0
  160.0640  211.7960  154.8420 C   0  0  0  0  0  3  0  0  0  0  0  0
  159.7510  214.2500  149.8470 N   0  0  0  0  0  2  0  0  0  0  0  0
  159.6940  212.4010  153.6540 C   0  0  0  0  0  0  0  0  0  0  0  0
  160.9960  210.8580  154.5410 N   0  0  0  0  0  0  0  0  0  0  0  0
  159.6210  213.5120  151.0720 C   0  0  0  0  0  0  0  0  0  0  0  0
  158.6870  213.4580  153.3700 C   0  0  0  0  0  2  0  0  0  0  0  0
  159.5940  213.3740  147.4920 C   0  0  0  0  0  2  0  0  0  0  0  0
  159.7050  212.2060  145.2750 C   0  0  0  0  0  1  0  0  0  0  0  0
  161.7580  214.0360  148.5030 C   0  0  0  0  0  3  0  0  0  0  0  0
  160.3890  212.8620  146.3720 N   0  0  0  0  0  0  0  0  0  0  0  0
  162.4620  213.6590  147.2690 C   0  0  0  0  0  3  0  0  0  0  0  0
  161.7980  213.0970  146.2640 C   0  0  0  0  0  3  0  0  0  0  0  0
  160.4340  213.8830  148.6370 C   0  0  0  0  0  0  0  0  0  0  0  0
  160.5790  207.8760  153.0780 O   0  0  0  0  0  0  0  0  0  0  0  0
  161.1400  206.9770  153.9830 C   0  0  0  0  0  3  0  0  0  0  0  0
  160.7280  206.9240  155.2450 C   0  0  0  0  0  3  0  0  0  0  0  0
  159.6540  207.8220  155.7540 C   0  0  0  0  0  2  0  0  0  0  0  0
  160.1550  208.6030  156.7990 O   0  0  0  0  0  0  0  0  0  0  0  0
  161.3250  207.9590  157.1940 C   0  0  0  0  0  1  0  0  0  0  0  0
  1 17  1  1  0  0  0
  1 36  1  0  0  0  0
  2  1  1  0  0  0  0
  3  9  1  0  0  0  0
  3  2  1  1  0  0  0
  4  6  1  0  0  0  0
  5  8  1  0  0  0  0
  6  8  2  0  0  0  0
  7  4  2  0  0  0  0
  7  9  1  0  0  0  0
  9  5  2  0  0  0  0
 10 11  1  0  0  0  0
 11  3  1  0  0  0  0
 12 11  1  0  0  0  0
 13 12  1  0  0  0  0
 14 16  1  0  0  0  0
 15 14  1  0  0  0  0
 15 16  1  0  0  0  0
 16 13  1  0  0  0  0
 17 18  1  0  0  0  0
 18 22  1  0  0  0  0
 19 28  1  0  0  0  0
 20 21  1  0  0  0  0
 21 22  1  0  0  0  0
 21 25  2  0  0  0  0
 22 26  1  0  0  0  0
 24 27  1  0  0  0  0
 25 23  1  0  0  0  0
 26 23  2  0  0  0  0
 27 20  1  0  0  0  0
 27 19  2  0  0  0  0
 28 25  1  0  0  0  0
 29 35  1  0  0  0  0
 30 32  1  0  0  0  0
 31 35  2  0  0  0  0
 32 29  1  0  0  0  0
 33 31  1  0  0  0  0
 34 32  1  0  0  0  0
 34 33  2  0  0  0  0
 35 24  1  0  0  0  0
 36 37  1  0  0  0  0
 37 38  2  0  0  0  0
 38 39  1  0  0  0  0
 39 40  1  0  0  0  0
 40 41  1  0  0  0  0
M  END
>  <MODEL>
2

>  <REMARK>
 VINA RESULT:      -7.1      2.061      6.484
  Name = 
  15 active torsions:
  status: ('A' for Active; 'I' for Inactive)
    1  A    between atoms: C_1  and  O_29
    2  A    between atoms: C_1  and  C_38
    3  A    between atoms: C_4  and  N_20
    4  A    between atoms: C_4  and  C_22
    5  A    between atoms: C_6  and  O_24
    6  A    between atoms: C_7  and  C_14
    7  A    between atoms: C_7  and  C_22
    8  A    between atoms: C_7  and  O_24
    9  A    between atoms: C_8  and  N_18
   10  A    between atoms: C_8  and  C_21
   11  A    between atoms: C_14  and  C_19
   12  A    between atoms: N_18  and  C_19
   13  A    between atoms: C_19  and  C_37
   14  A    between atoms: C_21  and  C_27
   15  A    between atoms: N_26  and  C_41
                            x       y       z     vdW  Elec       q    Type
                         _______ _______ _______ _____ _____    ______ ____

>  <TORSDO>
F 15

$$$$
=
 OpenBabel11052411213D

 41 45  0  0  1  0  0  0  0  0999 V2000
  161.5660  208.5510  149.8890 C   0  0  2  0  0  3  0  0  0  0  0  0
  161.9920  207.1430  149.5010 C   0  0  0  0  0  2  0  0  0  0  0  0
  160.8570  206.4100  148.7930 C   0  0  1  0  0  3  0  0  0  0  0  0
  162.7020  205.4830  145.5710 C   0  0  0  0  0  3  0  0  0  0  0  0
  160.1300  206.2050  146.3980 C   0  0  0  0  0  3  0  0  0  0  0  0
  161.6690  205.5750  144.6370 C   0  0  0  0  0  3  0  0  0  0  0  0
  162.4510  205.7520  146.9220 C   0  0  0  0  0  3  0  0  0  0  0  0
  160.3830  205.9340  145.0490 C   0  0  0  0  0  3  0  0  0  0  0  0
  161.1630  206.1180  147.3430 C   0  0  0  0  0  0  0  0  0  0  0  0
  160.5230  205.5140  150.8970 O   0  0  0  0  0  1  0  0  0  0  0  0
  160.4430  205.2320  149.5720 N   0  0  0  0  0  0  0  0  0  0  0  0
  161.3500  204.1230  149.3040 C   0  0  0  0  0  2  0  0  0  0  0  0
  160.6590  203.0650  148.4570 C   0  0  0  0  0  2  0  0  0  0  0  0
  161.1430  200.8690  149.4850 C   0  0  0  0  0  2  0  0  0  0  0  0
  160.9320  201.8750  150.5960 C   0  0  0  0  0  2  0  0  0  0  0  0
  160.1030  201.9580  149.3350 C   0  0  0  0  0  3  0  0  0  0  0  0
  162.0840  209.5670  148.8770 C   0  0  0  0  0  2  0  0  0  0  0  0
  162.2200  210.9550  149.4830 C   0  0  0  0  0  2  0  0  0  0  0  0
  158.2540  214.2930  149.6720 N   0  0  0  0  0  0  0  0  0  0  0  0
  160.1320  213.0060  150.6260 C   0  0  0  0  0  2  0  0  0  0  0  0
  160.4960  212.7430  149.2010 C   0  0  0  0  0  0  0  0  0  0  0  0
  161.4250  211.9060  148.7210 N   0  0  0  0  0  0  0  0  0  0  0  0
  160.5450  212.9330  147.0140 C   0  0  0  0  0  3  0  0  0  0  0  0
  158.0110  213.6560  151.9260 N   0  0  0  0  0  2  0  0  0  0  0  0
  159.9280  213.4000  148.1610 C   0  0  0  0  0  0  0  0  0  0  0  0
  161.4540  212.0030  147.3980 N   0  0  0  0  0  0  0  0  0  0  0  0
  158.7730  213.6810  150.7090 C   0  0  0  0  0  0  0  0  0  0  0  0
  158.8910  214.4490  148.3530 C   0  0  0  0  0  2  0  0  0  0  0  0
  158.7940  213.9680  154.2980 C   0  0  0  0  0  2  0  0  0  0  0  0
  159.8770  214.0060  156.5600 C   0  0  0  0  0  1  0  0  0  0  0  0
  158.1980  211.7370  153.3960 C   0  0  0  0  0  3  0  0  0  0  0  0
  159.2730  213.2480  155.4820 N   0  0  0  0  0  0  0  0  0  0  0  0
  158.5360  211.1140  154.6830 C   0  0  0  0  0  3  0  0  0  0  0  0
  159.0510  211.8450  155.6670 C   0  0  0  0  0  3  0  0  0  0  0  0
  158.3390  213.0530  153.1880 C   0  0  0  0  0  0  0  0  0  0  0  0
  162.0200  208.8490  151.2010 O   0  0  0  0  0  0  0  0  0  0  0  0
  161.1600  209.4020  152.1480 C   0  0  0  0  0  3  0  0  0  0  0  0
  160.8640  208.7540  153.2700 C   0  0  0  0  0  3  0  0  0  0  0  0
  161.4300  207.4090  153.5670 C   0  0  0  0  0  2  0  0  0  0  0  0
  160.4760  206.6400  154.2400 O   0  0  0  0  0  0  0  0  0  0  0  0
  160.2850  207.2940  155.4550 C   0  0  0  0  0  1  0  0  0  0  0  0
  1 17  1  6  0  0  0
  1 36  1  0  0  0  0
  2  1  1  0  0  0  0
  3  2  1  1  0  0  0
  3 11  1  0  0  0  0
  4  7  1  0  0  0  0
  5  9  1  0  0  0  0
  6  8  1  0  0  0  0
  6  4  2  0  0  0  0
  7  9  2  0  0  0  0
  8  5  2  0  0  0  0
  9  3  1  0  0  0  0
 11 10  1  0  0  0  0
 12 11  1  0  0  0  0
 13 12  1  0  0  0  0
 13 16  1  0  0  0  0
 14 15  1  0  0  0  0
 16 14  1  0  0  0  0
 16 15  1  0  0  0  0
 17 18  1  0  0  0  0
 19 27  2  0  0  0  0
 20 27  1  0  0  0  0
 21 20  1  0  0  0  0
 22 21  1  0  0  0  0
 22 18  1  0  0  0  0
 23 26  2  0  0  0  0
 23 25  1  0  0  0  0
 24 35  1  0  0  0  0
 25 28  1  0  0  0  0
 25 21  2  0  0  0  0
 26 22  1  0  0  0  0
 27 24  1  0  0  0  0
 28 19  1  0  0  0  0
 29 32  1  0  0  0  0
 31 33  1  0  0  0  0
 32 34  1  0  0  0  0
 32 30  1  0  0  0  0
 33 34  2  0  0  0  0
 35 31  2  0  0  0  0
 35 29  1  0  0  0  0
 36 37  1  0  0  0  0
 37 38  2  0  0  0  0
 38 39  1  0  0  0  0
 39 40  1  0  0  0  0
 40 41  1  0  0  0  0
M  END
>  <MODEL>
3

>  <REMARK>
 VINA RESULT:      -7.0      1.695      4.653
  Name = 
  15 active torsions:
  status: ('A' for Active; 'I' for Inactive)
    1  A    between atoms: C_1  and  O_29
    2  A    between atoms: C_1  and  C_38
    3  A    between atoms: C_4  and  N_20
    4  A    between atoms: C_4  and  C_22
    5  A    between atoms: C_6  and  O_24
    6  A    between atoms: C_7  and  C_14
    7  A    between atoms: C_7  and  C_22
    8  A    between atoms: C_7  and  O_24
    9  A    between atoms: C_8  and  N_18
   10  A    between atoms: C_8  and  C_21
   11  A    between atoms: C_14  and  C_19
   12  A    between atoms: N_18  and  C_19
   13  A    between atoms: C_19  and  C_37
   14  A    between atoms: C_21  and  C_27
   15  A    between atoms: N_26  and  C_41
                            x       y       z     vdW  Elec       q    Type
                         _______ _______ _______ _____ _____    ______ ____

>  <TORSDO>
F 15

$$$$
=
 OpenBabel11052411213D

 41 45  0  0  1  0  0  0  0  0999 V2000
  162.6970  207.7590  149.2710 C   0  0  2  0  0  3  0  0  0  0  0  0
  162.6540  207.0230  150.6020 C   0  0  0  0  0  2  0  0  0  0  0  0
  161.2420  206.5270  150.9010 C   0  0  1  0  0  3  0  0  0  0  0  0
  161.0650  202.7980  151.7420 C   0  0  0  0  0  3  0  0  0  0  0  0
  160.8810  204.4690  149.5070 C   0  0  0  0  0  3  0  0  0  0  0  0
  160.8410  202.2500  150.4780 C   0  0  0  0  0  3  0  0  0  0  0  0
  161.1970  204.1830  151.8920 C   0  0  0  0  0  3  0  0  0  0  0  0
  160.7470  203.0850  149.3600 C   0  0  0  0  0  3  0  0  0  0  0  0
  161.1090  205.0270  150.7740 C   0  0  0  0  0  0  0  0  0  0  0  0
  160.3990  208.3630  152.0220 O   0  0  0  0  0  1  0  0  0  0  0  0
  160.7700  207.0680  152.1850 N   0  0  0  0  0  0  0  0  0  0  0  0
  161.8560  207.0420  153.1570 C   0  0  0  0  0  2  0  0  0  0  0  0
  161.3290  206.6570  154.5320 C   0  0  0  0  0  2  0  0  0  0  0  0
  159.5900  207.2130  156.1980 C   0  0  0  0  0  2  0  0  0  0  0  0
  160.8520  207.9640  156.5640 C   0  0  0  0  0  2  0  0  0  0  0  0
  160.4800  207.7740  155.1100 C   0  0  0  0  0  3  0  0  0  0  0  0
  161.6760  208.8910  149.2500 C   0  0  0  0  0  2  0  0  0  0  0  0
  162.1590  210.1070  150.0240 C   0  0  0  0  0  2  0  0  0  0  0  0
  159.1220  214.2890  150.4590 N   0  0  0  0  0  0  0  0  0  0  0  0
  160.5200  212.4490  151.3270 C   0  0  0  0  0  2  0  0  0  0  0  0
  160.9590  212.2960  149.9080 C   0  0  0  0  0  0  0  0  0  0  0  0
  161.7040  211.3220  149.3680 N   0  0  0  0  0  0  0  0  0  0  0  0
  161.2850  212.7600  147.7860 C   0  0  0  0  0  3  0  0  0  0  0  0
  158.4930  213.4370  152.5630 N   0  0  0  0  0  2  0  0  0  0  0  0
  160.6810  213.2100  148.9470 C   0  0  0  0  0  0  0  0  0  0  0  0
  161.8960  211.5860  148.0820 N   0  0  0  0  0  0  0  0  0  0  0  0
  159.3640  213.4310  151.4210 C   0  0  0  0  0  0  0  0  0  0  0  0
  159.9140  214.4530  149.2290 C   0  0  0  0  0  2  0  0  0  0  0  0
  159.6750  212.8080  154.6950 C   0  0  0  0  0  2  0  0  0  0  0  0
  160.8600  211.7940  156.6590 C   0  0  0  0  0  1  0  0  0  0  0  0
  157.5590  211.7210  153.9990 C   0  0  0  0  0  3  0  0  0  0  0  0
  159.7230  211.8020  155.7600 N   0  0  0  0  0  0  0  0  0  0  0  0
  157.5930  210.8650  155.1930 C   0  0  0  0  0  3  0  0  0  0  0  0
  158.6320  210.9110  156.0210 C   0  0  0  0  0  3  0  0  0  0  0  0
  158.5300  212.6060  153.7340 C   0  0  0  0  0  0  0  0  0  0  0  0
  162.4800  206.8450  148.2060 O   0  0  0  0  0  0  0  0  0  0  0  0
  161.4010  206.9990  147.3380 C   0  0  0  0  0  3  0  0  0  0  0  0
  161.2080  206.1620  146.3250 C   0  0  0  0  0  3  0  0  0  0  0  0
  162.1330  205.0240  146.0640 C   0  0  0  0  0  2  0  0  0  0  0  0
  161.3910  203.8750  145.7780 O   0  0  0  0  0  0  0  0  0  0  0  0
  160.6310  204.2120  144.6610 C   0  0  0  0  0  1  0  0  0  0  0  0
  1 17  1  1  0  0  0
  1  2  1  0  0  0  0
  3  2  1  1  0  0  0
  3 11  1  0  0  0  0
  4  7  1  0  0  0  0
  5  9  1  0  0  0  0
  6  4  2  0  0  0  0
  8  5  2  0  0  0  0
  8  6  1  0  0  0  0
  9  3  1  0  0  0  0
  9  7  2  0  0  0  0
 10 11  1  0  0  0  0
 11 12  1  0  0  0  0
 12 13  1  0  0  0  0
 13 16  1  0  0  0  0
 14 15  1  0  0  0  0
 16 14  1  0  0  0  0
 16 15  1  0  0  0  0
 17 18  1  0  0  0  0
 19 27  2  0  0  0  0
 20 27  1  0  0  0  0
 21 20  1  0  0  0  0
 22 21  1  0  0  0  0
 22 18  1  0  0  0  0
 23 26  2  0  0  0  0
 23 25  1  0  0  0  0
 24 35  1  0  0  0  0
 25 28  1  0  0  0  0
 25 21  2  0  0  0  0
 26 22  1  0  0  0  0
 27 24  1  0  0  0  0
 28 19  1  0  0  0  0
 29 32  1  0  0  0  0
 31 33  1  0  0  0  0
 32 34  1  0  0  0  0
 32 30  1  0  0  0  0
 33 34  2  0  0  0  0
 35 31  2  0  0  0  0
 35 29  1  0  0  0  0
 36  1  1  0  0  0  0
 37 36  1  0  0  0  0
 38 37  2  0  0  0  0
 39 38  1  0  0  0  0
 40 39  1  0  0  0  0
 41 40  1  0  0  0  0
M  END
>  <MODEL>
4

>  <REMARK>
 VINA RESULT:      -6.9      1.260      3.670
  Name = 
  15 active torsions:
  status: ('A' for Active; 'I' for Inactive)
    1  A    between atoms: C_1  and  O_29
    2  A    between atoms: C_1  and  C_38
    3  A    between atoms: C_4  and  N_20
    4  A    between atoms: C_4  and  C_22
    5  A    between atoms: C_6  and  O_24
    6  A    between atoms: C_7  and  C_14
    7  A    between atoms: C_7  and  C_22
    8  A    between atoms: C_7  and  O_24
    9  A    between atoms: C_8  and  N_18
   10  A    between atoms: C_8  and  C_21
   11  A    between atoms: C_14  and  C_19
   12  A    between atoms: N_18  and  C_19
   13  A    between atoms: C_19  and  C_37
   14  A    between atoms: C_21  and  C_27
   15  A    between atoms: N_26  and  C_41
                            x       y       z     vdW  Elec       q    Type
                         _______ _______ _______ _____ _____    ______ ____

>  <TORSDO>
F 15

$$$$
=
 OpenBabel11052411213D

 41 45  0  0  1  0  0  0  0  0999 V2000
  161.0030  207.6320  151.8890 C   0  0  2  0  0  3  0  0  0  0  0  0
  161.8130  206.8770  150.8450 C   0  0  0  0  0  2  0  0  0  0  0  0
  160.9340  205.8850  150.0900 C   0  0  1  0  0  3  0  0  0  0  0  0
  160.5520  206.3670  146.3130 C   0  0  0  0  0  3  0  0  0  0  0  0
  162.4200  205.3610  148.1350 C   0  0  0  0  0  3  0  0  0  0  0  0
  161.7650  205.8490  145.8550 C   0  0  0  0  0  3  0  0  0  0  0  0
  160.2720  206.3840  147.6840 C   0  0  0  0  0  3  0  0  0  0  0  0
  162.7000  205.3470  146.7650 C   0  0  0  0  0  3  0  0  0  0  0  0
  161.2040  205.8780  148.6040 C   0  0  0  0  0  0  0  0  0  0  0  0
  162.0910  204.4920  151.5250 O   0  0  0  0  0  1  0  0  0  0  0  0
  160.9990  204.5580  150.7230 N   0  0  0  0  0  0  0  0  0  0  0  0
  161.1450  203.5330  149.6970 C   0  0  0  0  0  2  0  0  0  0  0  0
  160.4850  202.2370  150.1440 C   0  0  0  0  0  2  0  0  0  0  0  0
  160.8210  201.9190  147.7150 C   0  0  0  0  0  2  0  0  0  0  0  0
  161.3660  200.7020  148.4310 C   0  0  0  0  0  2  0  0  0  0  0  0
  160.1180  201.3830  148.9440 C   0  0  0  0  0  3  0  0  0  0  0  0
  160.9610  209.1210  151.5630 C   0  0  0  0  0  2  0  0  0  0  0  0
  162.0530  209.8920  152.2890 C   0  0  0  0  0  2  0  0  0  0  0  0
  158.7240  213.5880  153.7580 N   0  0  0  0  0  0  0  0  0  0  0  0
  159.5790  211.8280  152.2530 C   0  0  0  0  0  2  0  0  0  0  0  0
  160.4640  211.4680  153.4010 C   0  0  0  0  0  0  0  0  0  0  0  0
  161.4850  210.6000  153.4240 N   0  0  0  0  0  0  0  0  0  0  0  0
  161.2580  211.3770  155.4470 C   0  0  0  0  0  3  0  0  0  0  0  0
  158.2890  213.9080  151.4660 N   0  0  0  0  0  2  0  0  0  0  0  0
  160.2960  211.9700  154.6490 C   0  0  0  0  0  0  0  0  0  0  0  0
  161.9810  210.5480  154.6540 N   0  0  0  0  0  0  0  0  0  0  0  0
  158.8500  213.1310  152.5350 C   0  0  0  0  0  0  0  0  0  0  0  0
  159.2050  212.9250  154.9820 C   0  0  0  0  0  2  0  0  0  0  0  0
  159.6000  213.8310  149.3170 C   0  0  0  0  0  2  0  0  0  0  0  0
  160.6130  214.0170  147.0300 C   0  0  0  0  0  1  0  0  0  0  0  0
  157.2070  213.1940  149.4170 C   0  0  0  0  0  3  0  0  0  0  0  0
  159.4660  213.7100  147.8620 N   0  0  0  0  0  0  0  0  0  0  0  0
  157.2060  212.9250  147.9720 C   0  0  0  0  0  3  0  0  0  0  0  0
  158.2880  213.1790  147.2440 C   0  0  0  0  0  3  0  0  0  0  0  0
  158.2960  213.6430  150.0530 C   0  0  0  0  0  0  0  0  0  0  0  0
  161.5410  207.3980  153.1810 O   0  0  0  0  0  0  0  0  0  0  0  0
  161.0610  206.3640  153.9820 C   0  0  0  0  0  3  0  0  0  0  0  0
  160.3460  206.6140  155.0730 C   0  0  0  0  0  3  0  0  0  0  0  0
  160.0280  208.0060  155.4970 C   0  0  0  0  0  2  0  0  0  0  0  0
  160.0160  208.0770  156.8930 O   0  0  0  0  0  0  0  0  0  0  0  0
  161.3590  208.0650  157.2610 C   0  0  0  0  0  1  0  0  0  0  0  0
  1  2  1  6  0  0  0
  1 36  1  0  0  0  0
  3 11  1  0  0  0  0
  3  2  1  1  0  0  0
  4  7  1  0  0  0  0
  5  9  1  0  0  0  0
  6  4  2  0  0  0  0
  6  8  1  0  0  0  0
  7  9  2  0  0  0  0
  8  5  2  0  0  0  0
  9  3  1  0  0  0  0
 11 10  1  0  0  0  0
 12 13  1  0  0  0  0
 12 11  1  0  0  0  0
 14 15  1  0  0  0  0
 14 16  1  0  0  0  0
 15 16  1  0  0  0  0
 16 13  1  0  0  0  0
 17  1  1  0  0  0  0
 17 18  1  0  0  0  0
 18 22  1  0  0  0  0
 19 28  1  0  0  0  0
 20 27  1  0  0  0  0
 20 21  1  0  0  0  0
 21 22  1  0  0  0  0
 21 25  2  0  0  0  0
 22 26  1  0  0  0  0
 24 27  1  0  0  0  0
 25 28  1  0  0  0  0
 25 23  1  0  0  0  0
 26 23  2  0  0  0  0
 27 19  2  0  0  0  0
 29 35  1  0  0  0  0
 30 32  1  0  0  0  0
 31 35  2  0  0  0  0
 32 29  1  0  0  0  0
 33 31  1  0  0  0  0
 34 32  1  0  0  0  0
 34 33  2  0  0  0  0
 35 24  1  0  0  0  0
 36 37  1  0  0  0  0
 37 38  2  0  0  0  0
 38 39  1  0  0  0  0
 39 40  1  0  0  0  0
 40 41  1  0  0  0  0
M  END
>  <MODEL>
5

>  <REMARK>
 VINA RESULT:      -6.9      2.149      6.124
  Name = 
  15 active torsions:
  status: ('A' for Active; 'I' for Inactive)
    1  A    between atoms: C_1  and  O_29
    2  A    between atoms: C_1  and  C_38
    3  A    between atoms: C_4  and  N_20
    4  A    between atoms: C_4  and  C_22
    5  A    between atoms: C_6  and  O_24
    6  A    between atoms: C_7  and  C_14
    7  A    between atoms: C_7  and  C_22
    8  A    between atoms: C_7  and  O_24
    9  A    between atoms: C_8  and  N_18
   10  A    between atoms: C_8  and  C_21
   11  A    between atoms: C_14  and  C_19
   12  A    between atoms: N_18  and  C_19
   13  A    between atoms: C_19  and  C_37
   14  A    between atoms: C_21  and  C_27
   15  A    between atoms: N_26  and  C_41
                            x       y       z     vdW  Elec       q    Type
                         _______ _______ _______ _____ _____    ______ ____

>  <TORSDO>
F 15

$$$$
=
 OpenBabel11052411213D

 41 45  0  0  1  0  0  0  0  0999 V2000
  161.6500  206.6540  148.7260 C   0  0  2  0  0  3  0  0  0  0  0  0
  160.4120  206.1720  149.4680 C   0  0  0  0  0  2  0  0  0  0  0  0
  160.8000  205.3950  150.7220 C   0  0  1  0  0  3  0  0  0  0  0  0
  161.1990  201.6300  151.2790 C   0  0  0  0  0  3  0  0  0  0  0  0
  160.7890  203.4210  149.1700 C   0  0  0  0  0  3  0  0  0  0  0  0
  161.0830  201.1540  149.9720 C   0  0  0  0  0  3  0  0  0  0  0  0
  161.1090  203.0030  151.5340 C   0  0  0  0  0  3  0  0  0  0  0  0
  160.8770  202.0480  148.9170 C   0  0  0  0  0  3  0  0  0  0  0  0
  160.9060  203.9080  150.4800 C   0  0  0  0  0  0  0  0  0  0  0  0
  162.7260  205.0190  151.9410 O   0  0  0  0  0  1  0  0  0  0  0  0
  161.9920  205.9920  151.3460 N   0  0  0  0  0  0  0  0  0  0  0  0
  161.5830  206.9310  152.3840 C   0  0  0  0  0  2  0  0  0  0  0  0
  161.2120  206.1850  153.6580 C   0  0  0  0  0  2  0  0  0  0  0  0
  161.4370  207.8780  155.4450 C   0  0  0  0  0  2  0  0  0  0  0  0
  160.7640  208.5320  154.2570 C   0  0  0  0  0  2  0  0  0  0  0  0
  160.4510  207.0940  154.6060 C   0  0  0  0  0  3  0  0  0  0  0  0
  161.4380  208.0650  148.1890 C   0  0  0  0  0  2  0  0  0  0  0  0
  162.5280  209.0200  148.6520 C   0  0  0  0  0  2  0  0  0  0  0  0
  160.7200  213.8720  148.9510 N   0  0  0  0  0  0  0  0  0  0  0  0
  161.2240  211.7480  147.7990 C   0  0  0  0  0  2  0  0  0  0  0  0
  161.4520  211.2140  149.1750 C   0  0  0  0  0  0  0  0  0  0  0  0
  161.9590  210.0270  149.5330 N   0  0  0  0  0  0  0  0  0  0  0  0
  161.4170  211.0710  151.3660 C   0  0  0  0  0  3  0  0  0  0  0  0
  161.2360  214.0540  146.6610 N   0  0  0  0  0  2  0  0  0  0  0  0
  161.1040  211.8910  150.2970 C   0  0  0  0  0  0  0  0  0  0  0  0
  161.9550  209.9360  150.8570 N   0  0  0  0  0  0  0  0  0  0  0  0
  161.0430  213.2560  147.8390 C   0  0  0  0  0  0  0  0  0  0  0  0
  160.4550  213.2280  150.2490 C   0  0  0  0  0  2  0  0  0  0  0  0
  160.5080  213.0680  144.4620 C   0  0  0  0  0  2  0  0  0  0  0  0
  160.0800  211.8000  142.3400 C   0  0  0  0  0  1  0  0  0  0  0  0
  162.8430  213.7930  144.8650 C   0  0  0  0  0  3  0  0  0  0  0  0
  161.0050  212.5110  143.2000 N   0  0  0  0  0  0  0  0  0  0  0  0
  163.2220  213.3650  143.5100 C   0  0  0  0  0  3  0  0  0  0  0  0
  162.3370  212.7520  142.7300 C   0  0  0  0  0  3  0  0  0  0  0  0
  161.5990  213.6370  145.3350 C   0  0  0  0  0  0  0  0  0  0  0  0
  161.9740  205.7460  147.6850 O   0  0  0  0  0  0  0  0  0  0  0  0
  162.0550  206.1730  146.3610 C   0  0  0  0  0  3  0  0  0  0  0  0
  161.9490  205.3130  145.3540 C   0  0  0  0  0  3  0  0  0  0  0  0
  161.7460  203.8560  145.5880 C   0  0  0  0  0  2  0  0  0  0  0  0
  160.6170  203.4240  144.8860 O   0  0  0  0  0  0  0  0  0  0  0  0
  160.4510  202.0940  145.2650 C   0  0  0  0  0  1  0  0  0  0  0  0
  1 17  1  6  0  0  0
  1  2  1  0  0  0  0
  3  2  1  6  0  0  0
  3 11  1  0  0  0  0
  4  7  1  0  0  0  0
  5  9  1  0  0  0  0
  6  4  2  0  0  0  0
  8  5  2  0  0  0  0
  8  6  1  0  0  0  0
  9  3  1  0  0  0  0
  9  7  2  0  0  0  0
 11 10  1  0  0  0  0
 11 12  1  0  0  0  0
 12 13  1  0  0  0  0
 13 16  1  0  0  0  0
 15 16  1  0  0  0  0
 15 14  1  0  0  0  0
 16 14  1  0  0  0  0
 17 18  1  0  0  0  0
 18 22  1  0  0  0  0
 19 28  1  0  0  0  0
 20 27  1  0  0  0  0
 20 21  1  0  0  0  0
 21 22  1  0  0  0  0
 21 25  2  0  0  0  0
 22 26  1  0  0  0  0
 24 27  1  0  0  0  0
 25 23  1  0  0  0  0
 26 23  2  0  0  0  0
 27 19  2  0  0  0  0
 28 25  1  0  0  0  0
 29 35  1  0  0  0  0
 30 32  1  0  0  0  0
 31 35  2  0  0  0  0
 32 29  1  0  0  0  0
 33 31  1  0  0  0  0
 34 32  1  0  0  0  0
 34 33  2  0  0  0  0
 35 24  1  0  0  0  0
 36  1  1  0  0  0  0
 37 36  1  0  0  0  0
 38 39  1  0  0  0  0
 38 37  2  0  0  0  0
 40 41  1  0  0  0  0
 40 39  1  0  0  0  0
M  END
>  <MODEL>
6

>  <REMARK>
 VINA RESULT:      -6.8      2.090      6.344
  Name = 
  15 active torsions:
  status: ('A' for Active; 'I' for Inactive)
    1  A    between atoms: C_1  and  O_29
    2  A    between atoms: C_1  and  C_38
    3  A    between atoms: C_4  and  N_20
    4  A    between atoms: C_4  and  C_22
    5  A    between atoms: C_6  and  O_24
    6  A    between atoms: C_7  and  C_14
    7  A    between atoms: C_7  and  C_22
    8  A    between atoms: C_7  and  O_24
    9  A    between atoms: C_8  and  N_18
   10  A    between atoms: C_8  and  C_21
   11  A    between atoms: C_14  and  C_19
   12  A    between atoms: N_18  and  C_19
   13  A    between atoms: C_19  and  C_37
   14  A    between atoms: C_21  and  C_27
   15  A    between atoms: N_26  and  C_41
                            x       y       z     vdW  Elec       q    Type
                         _______ _______ _______ _____ _____    ______ ____

>  <TORSDO>
F 15

$$$$
=
 OpenBabel11052411213D

 41 45  0  0  1  0  0  0  0  0999 V2000
  162.2950  207.7340  150.2140 C   0  0  2  0  0  3  0  0  0  0  0  0
  162.7290  206.5350  151.0440 C   0  0  0  0  0  2  0  0  0  0  0  0
  161.5180  205.8190  151.6350 C   0  0  1  0  0  3  0  0  0  0  0  0
  160.6800  203.0710  149.1060 C   0  0  0  0  0  3  0  0  0  0  0  0
  161.4360  203.3140  151.7880 C   0  0  0  0  0  3  0  0  0  0  0  0
  160.8430  201.9280  149.8910 C   0  0  0  0  0  3  0  0  0  0  0  0
  160.8960  204.3380  149.6610 C   0  0  0  0  0  3  0  0  0  0  0  0
  161.2220  202.0490  151.2320 C   0  0  0  0  0  3  0  0  0  0  0  0
  161.2720  204.4670  151.0070 C   0  0  0  0  0  0  0  0  0  0  0  0
  160.8960  204.7410  153.5810 O   0  0  0  0  0  1  0  0  0  0  0  0
  161.6020  205.7970  153.1040 N   0  0  0  0  0  0  0  0  0  0  0  0
  161.0020  207.0090  153.6480 C   0  0  0  0  0  2  0  0  0  0  0  0
  161.3060  207.1310  155.1330 C   0  0  0  0  0  2  0  0  0  0  0  0
  160.0550  206.9780  157.2600 C   0  0  0  0  0  2  0  0  0  0  0  0
  160.5440  208.4020  157.1000 C   0  0  0  0  0  2  0  0  0  0  0  0
  160.0850  207.6210  155.8900 C   0  0  0  0  0  3  0  0  0  0  0  0
  161.3520  208.6270  151.0120 C   0  0  0  0  0  2  0  0  0  0  0  0
  161.9600  209.9930  151.2890 C   0  0  0  0  0  2  0  0  0  0  0  0
  158.6800  213.3480  153.5000 N   0  0  0  0  0  0  0  0  0  0  0  0
  159.4610  211.8540  151.6980 C   0  0  0  0  0  2  0  0  0  0  0  0
  160.4230  211.3470  152.7210 C   0  0  0  0  0  0  0  0  0  0  0  0
  161.4560  210.5100  152.5510 N   0  0  0  0  0  0  0  0  0  0  0  0
  161.3490  210.9710  154.6770 C   0  0  0  0  0  3  0  0  0  0  0  0
  158.0940  213.9970  151.3130 N   0  0  0  0  0  2  0  0  0  0  0  0
  160.3290  211.6530  154.0390 C   0  0  0  0  0  0  0  0  0  0  0  0
  162.0310  210.2870  153.7260 N   0  0  0  0  0  0  0  0  0  0  0  0
  158.7330  213.0820  152.2170 C   0  0  0  0  0  0  0  0  0  0  0  0
  159.2480  212.5210  154.5780 C   0  0  0  0  0  2  0  0  0  0  0  0
  159.3120  213.9210  149.1110 C   0  0  0  0  0  2  0  0  0  0  0  0
  160.3040  214.1880  146.8220 C   0  0  0  0  0  1  0  0  0  0  0  0
  156.8370  213.8680  149.2430 C   0  0  0  0  0  3  0  0  0  0  0  0
  159.1300  214.0470  147.6610 N   0  0  0  0  0  0  0  0  0  0  0  0
  156.7480  213.8200  147.7770 C   0  0  0  0  0  3  0  0  0  0  0  0
  157.8480  213.9100  147.0360 C   0  0  0  0  0  3  0  0  0  0  0  0
  158.0140  213.9460  149.8790 C   0  0  0  0  0  0  0  0  0  0  0  0
  161.6940  207.2940  149.0050 O   0  0  0  0  0  0  0  0  0  0  0  0
  162.4700  206.9950  147.8870 C   0  0  0  0  0  3  0  0  0  0  0  0
  161.9120  206.5790  146.7550 C   0  0  0  0  0  3  0  0  0  0  0  0
  160.4390  206.4060  146.6270 C   0  0  0  0  0  2  0  0  0  0  0  0
  160.1160  206.1250  145.2960 O   0  0  0  0  0  0  0  0  0  0  0  0
  160.9590  205.0750  144.9410 C   0  0  0  0  0  1  0  0  0  0  0  0
  1 17  1  1  0  0  0
  1  2  1  0  0  0  0
  3  2  1  6  0  0  0
  3 11  1  0  0  0  0
  4  7  2  0  0  0  0
  4  6  1  0  0  0  0
  6  8  2  0  0  0  0
  7  9  1  0  0  0  0
  8  5  1  0  0  0  0
  9  3  1  0  0  0  0
  9  5  2  0  0  0  0
 11 10  1  0  0  0  0
 11 12  1  0  0  0  0
 12 13  1  0  0  0  0
 13 16  1  0  0  0  0
 15 14  1  0  0  0  0
 16 15  1  0  0  0  0
 16 14  1  0  0  0  0
 17 18  1  0  0  0  0
 18 22  1  0  0  0  0
 19 28  1  0  0  0  0
 20 27  1  0  0  0  0
 20 21  1  0  0  0  0
 21 25  2  0  0  0  0
 22 21  1  0  0  0  0
 22 26  1  0  0  0  0
 24 27  1  0  0  0  0
 25 28  1  0  0  0  0
 25 23  1  0  0  0  0
 26 23  2  0  0  0  0
 27 19  2  0  0  0  0
 29 35  1  0  0  0  0
 30 32  1  0  0  0  0
 31 35  2  0  0  0  0
 32 29  1  0  0  0  0
 33 31  1  0  0  0  0
 34 32  1  0  0  0  0
 34 33  2  0  0  0  0
 35 24  1  0  0  0  0
 36  1  1  0  0  0  0
 37 36  1  0  0  0  0
 38 37  2  0  0  0  0
 39 38  1  0  0  0  0
 40 39  1  0  0  0  0
 41 40  1  0  0  0  0
M  END
>  <MODEL>
7

>  <REMARK>
 VINA RESULT:      -6.7      2.028      5.398
  Name = 
  15 active torsions:
  status: ('A' for Active; 'I' for Inactive)
    1  A    between atoms: C_1  and  O_29
    2  A    between atoms: C_1  and  C_38
    3  A    between atoms: C_4  and  N_20
    4  A    between atoms: C_4  and  C_22
    5  A    between atoms: C_6  and  O_24
    6  A    between atoms: C_7  and  C_14
    7  A    between atoms: C_7  and  C_22
    8  A    between atoms: C_7  and  O_24
    9  A    between atoms: C_8  and  N_18
   10  A    between atoms: C_8  and  C_21
   11  A    between atoms: C_14  and  C_19
   12  A    between atoms: N_18  and  C_19
   13  A    between atoms: C_19  and  C_37
   14  A    between atoms: C_21  and  C_27
   15  A    between atoms: N_26  and  C_41
                            x       y       z     vdW  Elec       q    Type
                         _______ _______ _______ _____ _____    ______ ____

>  <TORSDO>
F 15

$$$$
=
 OpenBabel11052411213D

 41 45  0  0  1  0  0  0  0  0999 V2000
  161.2480  207.2680  152.0240 C   0  0  2  0  0  3  0  0  0  0  0  0
  162.4180  206.8220  151.1600 C   0  0  0  0  0  2  0  0  0  0  0  0
  161.9230  206.1090  149.9060 C   0  0  1  0  0  3  0  0  0  0  0  0
  160.8320  202.4760  149.3990 C   0  0  0  0  0  3  0  0  0  0  0  0
  161.4290  204.2280  151.4950 C   0  0  0  0  0  3  0  0  0  0  0  0
  160.7530  202.0340  150.7210 C   0  0  0  0  0  3  0  0  0  0  0  0
  161.2090  203.7950  149.1220 C   0  0  0  0  0  3  0  0  0  0  0  0
  161.0530  202.9090  151.7700 C   0  0  0  0  0  3  0  0  0  0  0  0
  161.5070  204.6800  150.1700 C   0  0  0  0  0  0  0  0  0  0  0  0
  159.7600  206.1950  149.0990 O   0  0  0  0  0  1  0  0  0  0  0  0
  160.9010  206.9190  149.2250 N   0  0  0  0  0  0  0  0  0  0  0  0
  161.3570  207.2570  147.8820 C   0  0  0  0  0  2  0  0  0  0  0  0
  160.7740  206.2870  146.8640 C   0  0  0  0  0  2  0  0  0  0  0  0
  161.5690  204.3400  145.5640 C   0  0  0  0  0  2  0  0  0  0  0  0
  161.2300  205.4510  144.5930 C   0  0  0  0  0  2  0  0  0  0  0  0
  161.8570  205.7810  145.9290 C   0  0  0  0  0  3  0  0  0  0  0  0
  160.8710  208.7130  151.7140 C   0  0  0  0  0  2  0  0  0  0  0  0
  162.0970  209.6030  151.5780 C   0  0  0  0  0  2  0  0  0  0  0  0
  159.4420  213.7970  150.0740 N   0  0  0  0  0  0  0  0  0  0  0  0
  160.4670  212.2850  151.7330 C   0  0  0  0  0  2  0  0  0  0  0  0
  161.1530  211.6780  150.5530 C   0  0  0  0  0  0  0  0  0  0  0  0
  161.8920  210.5620  150.5040 N   0  0  0  0  0  0  0  0  0  0  0  0
  161.9210  211.4380  148.5100 C   0  0  0  0  0  3  0  0  0  0  0  0
  158.3450  213.6730  152.1540 N   0  0  0  0  0  2  0  0  0  0  0  0
  161.1520  212.2500  149.3240 C   0  0  0  0  0  0  0  0  0  0  0  0
  162.3510  210.4000  149.2690 N   0  0  0  0  0  0  0  0  0  0  0  0
  159.4130  213.2800  151.2790 C   0  0  0  0  0  0  0  0  0  0  0  0
  160.4670  213.5400  149.0480 C   0  0  0  0  0  2  0  0  0  0  0  0
  157.2260  212.0230  153.6920 C   0  0  0  0  0  2  0  0  0  0  0  0
  155.9260  210.7150  155.3920 C   0  0  0  0  0  1  0  0  0  0  0  0
  158.6060  213.8930  154.5540 C   0  0  0  0  0  3  0  0  0  0  0  0
  156.8640  211.7780  155.0910 N   0  0  0  0  0  0  0  0  0  0  0  0
  158.3330  213.4710  155.9360 C   0  0  0  0  0  3  0  0  0  0  0  0
  157.4990  212.4650  156.1770 C   0  0  0  0  0  3  0  0  0  0  0  0
  158.0780  213.2540  153.5020 C   0  0  0  0  0  0  0  0  0  0  0  0
  161.5680  207.0990  153.3970 O   0  0  0  0  0  0  0  0  0  0  0  0
  160.5700  206.8940  154.3460 C   0  0  0  0  0  3  0  0  0  0  0  0
  160.5020  207.6350  155.4460 C   0  0  0  0  0  3  0  0  0  0  0  0
  161.4900  208.7150  155.7220 C   0  0  0  0  0  2  0  0  0  0  0  0
  161.4340  209.0650  157.0740 O   0  0  0  0  0  0  0  0  0  0  0  0
  160.1500  209.5730  157.2560 C   0  0  0  0  0  1  0  0  0  0  0  0
  1  2  1  6  0  0  0
  1 36  1  0  0  0  0
  3  9  1  0  0  0  0
  3  2  1  1  0  0  0
  4  6  1  0  0  0  0
  5  8  1  0  0  0  0
  6  8  2  0  0  0  0
  7  4  2  0  0  0  0
  7  9  1  0  0  0  0
  9  5  2  0  0  0  0
 10 11  1  0  0  0  0
 11  3  1  0  0  0  0
 12 11  1  0  0  0  0
 13 12  1  0  0  0  0
 14 16  1  0  0  0  0
 15 14  1  0  0  0  0
 15 16  1  0  0  0  0
 16 13  1  0  0  0  0
 17  1  1  0  0  0  0
 18 17  1  0  0  0  0
 19 27  2  0  0  0  0
 21 20  1  0  0  0  0
 22 21  1  0  0  0  0
 22 18  1  0  0  0  0
 23 26  2  0  0  0  0
 23 25  1  0  0  0  0
 24 35  1  0  0  0  0
 25 21  2  0  0  0  0
 26 22  1  0  0  0  0
 27 20  1  0  0  0  0
 27 24  1  0  0  0  0
 28 25  1  0  0  0  0
 28 19  1  0  0  0  0
 29 32  1  0  0  0  0
 31 33  1  0  0  0  0
 32 30  1  0  0  0  0
 32 34  1  0  0  0  0
 33 34  2  0  0  0  0
 35 29  1  0  0  0  0
 35 31  2  0  0  0  0
 36 37  1  0  0  0  0
 37 38  2  0  0  0  0
 38 39  1  0  0  0  0
 39 40  1  0  0  0  0
 40 41  1  0  0  0  0
M  END
>  <MODEL>
8

>  <REMARK>
 VINA RESULT:      -6.7      1.909      5.219
  Name = 
  15 active torsions:
  status: ('A' for Active; 'I' for Inactive)
    1  A    between atoms: C_1  and  O_29
    2  A    between atoms: C_1  and  C_38
    3  A    between atoms: C_4  and  N_20
    4  A    between atoms: C_4  and  C_22
    5  A    between atoms: C_6  and  O_24
    6  A    between atoms: C_7  and  C_14
    7  A    between atoms: C_7  and  C_22
    8  A    between atoms: C_7  and  O_24
    9  A    between atoms: C_8  and  N_18
   10  A    between atoms: C_8  and  C_21
   11  A    between atoms: C_14  and  C_19
   12  A    between atoms: N_18  and  C_19
   13  A    between atoms: C_19  and  C_37
   14  A    between atoms: C_21  and  C_27
   15  A    between atoms: N_26  and  C_41
                            x       y       z     vdW  Elec       q    Type
                         _______ _______ _______ _____ _____    ______ ____

>  <TORSDO>
F 15

$$$$
=
 OpenBabel11052411213D

 41 45  0  0  1  0  0  0  0  0999 V2000
  161.7180  207.6590  150.1020 C   0  0  2  0  0  3  0  0  0  0  0  0
  160.5800  206.7530  150.5480 C   0  0  0  0  0  2  0  0  0  0  0  0
  161.0630  205.7530  151.5940 C   0  0  1  0  0  3  0  0  0  0  0  0
  160.7510  202.6750  149.3410 C   0  0  0  0  0  3  0  0  0  0  0  0
  161.1250  203.2830  152.0450 C   0  0  0  0  0  3  0  0  0  0  0  0
  160.8820  201.6460  150.2750 C   0  0  0  0  0  3  0  0  0  0  0  0
  160.8070  204.0110  149.7570 C   0  0  0  0  0  3  0  0  0  0  0  0
  161.0710  201.9490  151.6270 C   0  0  0  0  0  3  0  0  0  0  0  0
  160.9920  204.3220  151.1130 C   0  0  0  0  0  0  0  0  0  0  0  0
  163.2560  205.1260  151.9600 O   0  0  0  0  0  1  0  0  0  0  0  0
  162.3800  206.1510  152.1140 N   0  0  0  0  0  0  0  0  0  0  0  0
  162.2800  206.4310  153.5410 C   0  0  0  0  0  2  0  0  0  0  0  0
  160.8340  206.7060  153.9280 C   0  0  0  0  0  2  0  0  0  0  0  0
  159.5600  207.3270  155.9530 C   0  0  0  0  0  2  0  0  0  0  0  0
  160.9390  206.8730  156.3820 C   0  0  0  0  0  2  0  0  0  0  0  0
  160.7680  207.6620  155.1040 C   0  0  0  0  0  3  0  0  0  0  0  0
  161.3500  209.1240  150.3080 C   0  0  0  0  0  2  0  0  0  0  0  0
  162.1260  209.7490  151.4570 C   0  0  0  0  0  2  0  0  0  0  0  0
  159.2760  214.0830  151.5160 N   0  0  0  0  0  0  0  0  0  0  0  0
  160.3800  212.1560  150.4400 C   0  0  0  0  0  2  0  0  0  0  0  0
  160.5370  211.6420  151.8330 C   0  0  0  0  0  0  0  0  0  0  0  0
  161.2400  210.5820  152.2550 N   0  0  0  0  0  0  0  0  0  0  0  0
  160.2460  211.4270  153.9990 C   0  0  0  0  0  3  0  0  0  0  0  0
  160.0360  214.4420  149.3160 N   0  0  0  0  0  2  0  0  0  0  0  0
  159.9040  212.1910  152.8980 C   0  0  0  0  0  0  0  0  0  0  0  0
  161.0810  210.4510  153.5660 N   0  0  0  0  0  0  0  0  0  0  0  0
  159.8700  213.5860  150.4570 C   0  0  0  0  0  0  0  0  0  0  0  0
  158.9900  213.3580  152.7650 C   0  0  0  0  0  2  0  0  0  0  0  0
  159.7820  213.5580  146.9730 C   0  0  0  0  0  2  0  0  0  0  0  0
  159.8390  212.4140  144.7410 C   0  0  0  0  0  1  0  0  0  0  0  0
  161.9370  214.4520  147.8110 C   0  0  0  0  0  3  0  0  0  0  0  0
  160.5340  213.1390  145.7860 N   0  0  0  0  0  0  0  0  0  0  0  0
  162.5750  214.1570  146.5200 C   0  0  0  0  0  3  0  0  0  0  0  0
  161.8960  213.5270  145.5660 C   0  0  0  0  0  3  0  0  0  0  0  0
  160.6530  214.1550  148.0510 C   0  0  0  0  0  0  0  0  0  0  0  0
  162.0460  207.3920  148.7470 O   0  0  0  0  0  0  0  0  0  0  0  0
  161.0520  207.1270  147.8080 C   0  0  0  0  0  3  0  0  0  0  0  0
  161.2580  206.2750  146.8090 C   0  0  0  0  0  3  0  0  0  0  0  0
  162.5580  205.5690  146.6410 C   0  0  0  0  0  2  0  0  0  0  0  0
  162.5290  204.8100  145.4680 O   0  0  0  0  0  0  0  0  0  0  0  0
  161.1760  204.6730  145.1670 C   0  0  0  0  0  1  0  0  0  0  0  0
  1 17  1  6  0  0  0
  1  2  1  0  0  0  0
  3  2  1  6  0  0  0
  3 11  1  0  0  0  0
  4  7  2  0  0  0  0
  4  6  1  0  0  0  0
  6  8  2  0  0  0  0
  7  9  1  0  0  0  0
  8  5  1  0  0  0  0
  9  3  1  0  0  0  0
  9  5  2  0  0  0  0
 10 11  1  0  0  0  0
 11 12  1  0  0  0  0
 12 13  1  0  0  0  0
 13 16  1  0  0  0  0
 14 15  1  0  0  0  0
 16 14  1  0  0  0  0
 16 15  1  0  0  0  0
 17 18  1  0  0  0  0
 18 22  1  0  0  0  0
 19 28  1  0  0  0  0
 20 27  1  0  0  0  0
 20 21  1  0  0  0  0
 21 22  1  0  0  0  0
 21 25  2  0  0  0  0
 22 26  1  0  0  0  0
 24 27  1  0  0  0  0
 25 23  1  0  0  0  0
 26 23  2  0  0  0  0
 27 19  2  0  0  0  0
 28 25  1  0  0  0  0
 29 35  1  0  0  0  0
 30 32  1  0  0  0  0
 31 35  2  0  0  0  0
 32 29  1  0  0  0  0
 33 31  1  0  0  0  0
 34 32  1  0  0  0  0
 34 33  2  0  0  0  0
 35 24  1  0  0  0  0
 36  1  1  0  0  0  0
 37 36  1  0  0  0  0
 38 37  2  0  0  0  0
 39 38  1  0  0  0  0
 40 39  1  0  0  0  0
 41 40  1  0  0  0  0
M  END
>  <MODEL>
9

>  <REMARK>
 VINA RESULT:      -6.0      1.675      5.620
  Name = 
  15 active torsions:
  status: ('A' for Active; 'I' for Inactive)
    1  A    between atoms: C_1  and  O_29
    2  A    between atoms: C_1  and  C_38
    3  A    between atoms: C_4  and  N_20
    4  A    between atoms: C_4  and  C_22
    5  A    between atoms: C_6  and  O_24
    6  A    between atoms: C_7  and  C_14
    7  A    between atoms: C_7  and  C_22
    8  A    between atoms: C_7  and  O_24
    9  A    between atoms: C_8  and  N_18
   10  A    between atoms: C_8  and  C_21
   11  A    between atoms: C_14  and  C_19
   12  A    between atoms: N_18  and  C_19
   13  A    between atoms: C_19  and  C_37
   14  A    between atoms: C_21  and  C_27
   15  A    between atoms: N_26  and  C_41
                            x       y       z     vdW  Elec       q    Type
                         _______ _______ _______ _____ _____    ______ ____

>  <TORSDO>
F 15

$$$$
