=
 OpenBabel11052411163D

 27 31  0  0  1  0  0  0  0  0999 V2000
  161.7410  208.8580  148.9830 C   0  0  0  0  0  3  0  0  0  0  0  0
  161.8890  210.2220  149.2260 C   0  0  0  0  0  0  0  0  0  0  0  0
  161.4270  209.8300  151.5740 C   0  0  0  0  0  0  0  0  0  0  0  0
  161.7330  210.7110  150.5280 C   0  0  0  0  0  3  0  0  0  0  0  0
  161.4380  207.9920  150.0420 C   0  0  0  0  0  0  0  0  0  0  0  0
  161.2930  208.5020  151.2980 N   0  0  0  0  0  0  0  0  0  0  0  0
  160.1230  210.9280  153.3960 C   0  0  0  0  0  0  0  0  0  0  0  0
  159.9930  211.4170  154.7780 C   0  0  0  0  0  3  0  0  0  0  0  0
  159.0270  211.0890  152.5550 O   0  0  0  0  0  1  0  0  0  0  0  0
  163.1150  210.6150  156.1520 O   0  0  0  0  0  0  0  0  0  0  0  0
  160.9590  211.3100  155.6340 N   0  0  0  0  0  0  0  0  0  0  0  0
  161.2680  210.3490  152.9650 C   0  0  0  0  0  0  0  0  0  0  0  0
  162.4590  210.2160  153.8940 C   0  0  0  0  0  2  0  0  0  0  0  0
  162.2090  210.7140  155.2850 C   0  0  0  0  0  0  0  0  0  0  0  0
  161.2440  204.6230  148.3150 C   0  0  0  0  0  3  0  0  0  0  0  0
  161.2770  206.5400  149.8110 C   0  0  0  0  0  0  0  0  0  0  0  0
  160.8030  202.3190  149.1740 C   0  0  0  0  0  1  0  0  0  0  0  0
  161.3990  205.9960  148.5220 C   0  0  0  0  0  3  0  0  0  0  0  0
  160.9980  205.6840  150.8880 C   0  0  0  0  0  3  0  0  0  0  0  0
  160.8440  204.3110  150.6810 C   0  0  0  0  0  3  0  0  0  0  0  0
  160.9670  203.7810  149.3940 C   0  0  0  0  0  0  0  0  0  0  0  0
  161.6660  214.1570  148.2900 C   0  0  0  0  0  2  0  0  0  0  0  0
  160.9870  211.8680  147.5860 C   0  0  0  0  0  2  0  0  0  0  0  0
  162.2150  211.1360  148.0860 C   0  0  1  0  0  3  0  0  0  0  0  0
  162.8570  213.4440  147.6780 C   0  0  2  0  0  3  0  0  0  0  0  0
  161.4620  213.2290  147.1070 C   0  0  2  0  0  3  0  0  0  0  0  0
  163.2010  212.2080  148.4910 C   0  0  0  0  0  2  0  0  0  0  0  0
  1  2  2  0  0  0  0
  1  5  1  0  0  0  0
  2  4  1  0  0  0  0
  3 12  1  0  0  0  0
  4  3  2  0  0  0  0
  5  6  2  0  0  0  0
  6  3  1  0  0  0  0
  7  8  1  0  0  0  0
  8 11  2  0  0  0  0
  9  7  1  0  0  0  0
 12  7  2  0  0  0  0
 12 13  1  0  0  0  0
 13 14  1  0  0  0  0
 14 11  1  0  0  0  0
 14 10  2  0  0  0  0
 15 18  2  0  0  0  0
 15 21  1  0  0  0  0
 16  5  1  0  0  0  0
 16 19  2  0  0  0  0
 17 21  1  0  0  0  0
 18 16  1  0  0  0  0
 20 19  1  0  0  0  0
 21 20  2  0  0  0  0
 23 24  1  0  0  0  0
 24 27  1  0  0  0  0
 24  2  1  1  0  0  0
 25 22  1  1  0  0  0
 25 27  1  0  0  0  0
 26 23  1  1  0  0  0
 26 25  1  0  0  0  0
 26 22  1  0  0  0  0
M  END
>  <MODEL>
1

>  <REMARK>
 VINA RESULT:      -8.3      0.000      0.000
  Name = 
  3 active torsions:
  status: ('A' for Active; 'I' for Inactive)
    1  A    between atoms: C_5  and  C_11
    2  A    between atoms: C_6  and  C_17
    3  A    between atoms: C_7  and  C_18
                            x       y       z     vdW  Elec       q    Type
                         _______ _______ _______ _____ _____    ______ ____

>  <TORSDO>
F 3

$$$$
=
 OpenBabel11052411163D

 27 31  0  0  1  0  0  0  0  0999 V2000
  161.8470  209.0900  149.2080 C   0  0  0  0  0  3  0  0  0  0  0  0
  161.8350  210.1920  150.0620 C   0  0  0  0  0  0  0  0  0  0  0  0
  161.1920  208.7350  151.8920 C   0  0  0  0  0  0  0  0  0  0  0  0
  161.5070  210.0130  151.4110 C   0  0  0  0  0  3  0  0  0  0  0  0
  161.5320  207.8200  149.7070 C   0  0  0  0  0  0  0  0  0  0  0  0
  161.2180  207.6820  151.0260 N   0  0  0  0  0  0  0  0  0  0  0  0
  160.9580  207.3410  153.9480 C   0  0  0  0  0  0  0  0  0  0  0  0
  160.6270  207.1850  155.3730 C   0  0  0  0  0  3  0  0  0  0  0  0
  161.3780  206.2060  153.2620 O   0  0  0  0  0  1  0  0  0  0  0  0
  159.7090  210.4420  156.2860 O   0  0  0  0  0  0  0  0  0  0  0  0
  160.2290  208.1850  156.0950 N   0  0  0  0  0  0  0  0  0  0  0  0
  160.8510  208.5420  153.3320 C   0  0  0  0  0  0  0  0  0  0  0  0
  160.3580  209.7550  154.0960 C   0  0  0  0  0  2  0  0  0  0  0  0
  160.0830  209.4960  155.5470 C   0  0  0  0  0  0  0  0  0  0  0  0
  161.1440  204.2640  148.4520 C   0  0  0  0  0  3  0  0  0  0  0  0
  161.5390  206.6350  148.8220 C   0  0  0  0  0  0  0  0  0  0  0  0
  161.5700  203.2130  146.2260 C   0  0  0  0  0  1  0  0  0  0  0  0
  161.1330  205.3770  149.2970 C   0  0  0  0  0  3  0  0  0  0  0  0
  161.9550  206.7580  147.4870 C   0  0  0  0  0  3  0  0  0  0  0  0
  161.9660  205.6440  146.6430 C   0  0  0  0  0  3  0  0  0  0  0  0
  161.5600  204.3980  147.1260 C   0  0  0  0  0  0  0  0  0  0  0  0
  160.6350  212.7000  147.1170 C   0  0  0  0  0  2  0  0  0  0  0  0
  162.5840  211.4740  148.0610 C   0  0  0  0  0  2  0  0  0  0  0  0
  162.1750  211.5440  149.5170 C   0  0  1  0  0  3  0  0  0  0  0  0
  161.1150  213.4060  148.3700 C   0  0  2  0  0  3  0  0  0  0  0  0
  162.1200  212.7700  147.4200 C   0  0  2  0  0  3  0  0  0  0  0  0
  160.9910  212.4840  149.5710 C   0  0  0  0  0  2  0  0  0  0  0  0
  1  5  2  0  0  0  0
  1  2  1  0  0  0  0
  2  4  2  0  0  0  0
  3 12  1  0  0  0  0
  4  3  1  0  0  0  0
  5  6  1  0  0  0  0
  6  3  2  0  0  0  0
  7  8  1  0  0  0  0
  8 11  2  0  0  0  0
  9  7  1  0  0  0  0
 12  7  2  0  0  0  0
 12 13  1  0  0  0  0
 13 14  1  0  0  0  0
 14 11  1  0  0  0  0
 14 10  2  0  0  0  0
 15 18  1  0  0  0  0
 16 18  2  0  0  0  0
 16  5  1  0  0  0  0
 17 21  1  0  0  0  0
 19 16  1  0  0  0  0
 20 21  1  0  0  0  0
 20 19  2  0  0  0  0
 21 15  2  0  0  0  0
 23 24  1  0  0  0  0
 24 27  1  0  0  0  0
 24  2  1  6  0  0  0
 25 22  1  6  0  0  0
 25 27  1  0  0  0  0
 26 22  1  6  0  0  0
 26 23  1  0  0  0  0
 26 25  1  0  0  0  0
M  END
>  <MODEL>
2

>  <REMARK>
 VINA RESULT:      -8.2      2.058      2.543
  Name = 
  3 active torsions:
  status: ('A' for Active; 'I' for Inactive)
    1  A    between atoms: C_5  and  C_11
    2  A    between atoms: C_6  and  C_17
    3  A    between atoms: C_7  and  C_18
                            x       y       z     vdW  Elec       q    Type
                         _______ _______ _______ _____ _____    ______ ____

>  <TORSDO>
F 3

$$$$
=
 OpenBabel11052411163D

 27 31  0  0  1  0  0  0  0  0999 V2000
  161.7680  208.7530  149.8540 C   0  0  0  0  0  3  0  0  0  0  0  0
  161.8250  209.9810  150.5120 C   0  0  0  0  0  0  0  0  0  0  0  0
  161.1390  208.8850  152.5640 C   0  0  0  0  0  0  0  0  0  0  0  0
  161.5110  210.0470  151.8740 C   0  0  0  0  0  3  0  0  0  0  0  0
  161.3970  207.6030  150.5610 C   0  0  0  0  0  0  0  0  0  0  0  0
  161.0970  207.7030  151.8860 N   0  0  0  0  0  0  0  0  0  0  0  0
  160.6630  210.1280  154.6740 C   0  0  0  0  0  0  0  0  0  0  0  0
  160.3270  210.1620  156.1060 C   0  0  0  0  0  3  0  0  0  0  0  0
  160.8260  211.3480  154.0270 O   0  0  0  0  0  1  0  0  0  0  0  0
  160.0920  206.7570  156.9000 O   0  0  0  0  0  0  0  0  0  0  0  0
  160.1540  209.0780  156.7930 N   0  0  0  0  0  0  0  0  0  0  0  0
  160.8120  208.9530  154.0180 C   0  0  0  0  0  0  0  0  0  0  0  0
  160.6610  207.6370  154.7570 C   0  0  0  0  0  2  0  0  0  0  0  0
  160.2850  207.7850  156.2010 C   0  0  0  0  0  0  0  0  0  0  0  0
  160.9690  203.8830  149.9610 C   0  0  0  0  0  3  0  0  0  0  0  0
  161.3290  206.2880  149.8860 C   0  0  0  0  0  0  0  0  0  0  0  0
  161.1400  202.4850  147.8980 C   0  0  0  0  0  1  0  0  0  0  0  0
  161.0300  205.1210  150.6080 C   0  0  0  0  0  3  0  0  0  0  0  0
  161.5660  206.1940  148.5060 C   0  0  0  0  0  3  0  0  0  0  0  0
  161.5050  204.9560  147.8590 C   0  0  0  0  0  3  0  0  0  0  0  0
  161.2060  203.8010  148.5870 C   0  0  0  0  0  0  0  0  0  0  0  0
  160.4110  212.3290  147.5300 C   0  0  0  0  0  2  0  0  0  0  0  0
  162.3310  210.9240  148.2610 C   0  0  0  0  0  2  0  0  0  0  0  0
  162.2250  211.2030  149.7450 C   0  0  1  0  0  3  0  0  0  0  0  0
  161.2130  213.0780  148.5760 C   0  0  2  0  0  3  0  0  0  0  0  0
  161.9230  212.2030  147.5520 C   0  0  2  0  0  3  0  0  0  0  0  0
  161.2060  212.3120  149.8880 C   0  0  0  0  0  2  0  0  0  0  0  0
  1  2  2  0  0  0  0
  1  5  1  0  0  0  0
  2  4  1  0  0  0  0
  3 12  1  0  0  0  0
  4  3  2  0  0  0  0
  5  6  2  0  0  0  0
  6  3  1  0  0  0  0
  7  8  1  0  0  0  0
  8 11  2  0  0  0  0
  9  7  1  0  0  0  0
 12  7  2  0  0  0  0
 12 13  1  0  0  0  0
 13 14  1  0  0  0  0
 14 11  1  0  0  0  0
 14 10  2  0  0  0  0
 15 18  1  0  0  0  0
 16  5  1  0  0  0  0
 16 18  2  0  0  0  0
 17 21  1  0  0  0  0
 19 16  1  0  0  0  0
 20 19  2  0  0  0  0
 20 21  1  0  0  0  0
 21 15  2  0  0  0  0
 23 24  1  0  0  0  0
 24 27  1  0  0  0  0
 24  2  1  1  0  0  0
 25 22  1  6  0  0  0
 25 27  1  0  0  0  0
 26 22  1  6  0  0  0
 26 23  1  0  0  0  0
 26 25  1  0  0  0  0
M  END
>  <MODEL>
3

>  <REMARK>
 VINA RESULT:      -8.1      1.780      2.168
  Name = 
  3 active torsions:
  status: ('A' for Active; 'I' for Inactive)
    1  A    between atoms: C_5  and  C_11
    2  A    between atoms: C_6  and  C_17
    3  A    between atoms: C_7  and  C_18
                            x       y       z     vdW  Elec       q    Type
                         _______ _______ _______ _____ _____    ______ ____

>  <TORSDO>
F 3

$$$$
=
 OpenBabel11052411163D

 27 31  0  0  1  0  0  0  0  0999 V2000
  161.1520  206.1530  152.8420 C   0  0  0  0  0  3  0  0  0  0  0  0
  161.2230  207.3760  153.5060 C   0  0  0  0  0  0  0  0  0  0  0  0
  161.3240  208.5060  151.3610 C   0  0  0  0  0  0  0  0  0  0  0  0
  161.3080  208.5590  152.7620 C   0  0  0  0  0  3  0  0  0  0  0  0
  161.1670  206.1200  151.4420 C   0  0  0  0  0  0  0  0  0  0  0  0
  161.2500  207.2900  150.7490 N   0  0  0  0  0  0  0  0  0  0  0  0
  161.9570  209.8110  149.3310 C   0  0  0  0  0  0  0  0  0  0  0  0
  162.0100  211.0680  148.5680 C   0  0  0  0  0  3  0  0  0  0  0  0
  162.4980  208.6770  148.7350 O   0  0  0  0  0  1  0  0  0  0  0  0
  160.4580  213.3320  150.7460 O   0  0  0  0  0  0  0  0  0  0  0  0
  161.5310  212.1750  149.0400 N   0  0  0  0  0  0  0  0  0  0  0  0
  161.4060  209.7670  150.5670 C   0  0  0  0  0  0  0  0  0  0  0  0
  160.8530  211.0260  151.2070 C   0  0  0  0  0  2  0  0  0  0  0  0
  160.9260  212.2410  150.3320 C   0  0  0  0  0  0  0  0  0  0  0  0
  161.1340  203.5700  148.6350 C   0  0  0  0  0  3  0  0  0  0  0  0
  161.0930  204.8350  150.7140 C   0  0  0  0  0  0  0  0  0  0  0  0
  160.8710  201.0860  148.6270 C   0  0  0  0  0  1  0  0  0  0  0  0
  161.2060  204.7900  149.3140 C   0  0  0  0  0  3  0  0  0  0  0  0
  160.9050  203.6360  151.4200 C   0  0  0  0  0  3  0  0  0  0  0  0
  160.8320  202.4170  150.7410 C   0  0  0  0  0  3  0  0  0  0  0  0
  160.9470  202.3840  149.3490 C   0  0  0  0  0  0  0  0  0  0  0  0
  159.7050  209.6140  156.5220 C   0  0  0  0  0  2  0  0  0  0  0  0
  161.7970  208.6790  155.5520 C   0  0  0  0  0  2  0  0  0  0  0  0
  161.2050  207.3980  155.0030 C   0  0  1  0  0  3  0  0  0  0  0  0
  159.7860  208.1320  156.8340 C   0  0  2  0  0  3  0  0  0  0  0  0
  161.0480  208.9840  156.8370 C   0  0  2  0  0  3  0  0  0  0  0  0
  159.7950  207.3260  155.5470 C   0  0  0  0  0  2  0  0  0  0  0  0
  1  2  1  0  0  0  0
  3  4  1  0  0  0  0
  4  2  2  0  0  0  0
  5  1  2  0  0  0  0
  6  3  2  0  0  0  0
  6  5  1  0  0  0  0
  7 12  2  0  0  0  0
  8 11  2  0  0  0  0
  8  7  1  0  0  0  0
  9  7  1  0  0  0  0
 11 14  1  0  0  0  0
 12 13  1  0  0  0  0
 12  3  1  0  0  0  0
 14 10  2  0  0  0  0
 14 13  1  0  0  0  0
 15 18  2  0  0  0  0
 15 21  1  0  0  0  0
 16 19  2  0  0  0  0
 16  5  1  0  0  0  0
 17 21  1  0  0  0  0
 18 16  1  0  0  0  0
 20 19  1  0  0  0  0
 21 20  2  0  0  0  0
 22 25  1  0  0  0  0
 22 26  1  0  0  0  0
 24  2  1  6  0  0  0
 24 27  1  0  0  0  0
 24 23  1  0  0  0  0
 25 27  1  6  0  0  0
 25 26  1  0  0  0  0
 26 23  1  6  0  0  0
M  END
>  <MODEL>
4

>  <REMARK>
 VINA RESULT:      -8.1      2.448      5.663
  Name = 
  3 active torsions:
  status: ('A' for Active; 'I' for Inactive)
    1  A    between atoms: C_5  and  C_11
    2  A    between atoms: C_6  and  C_17
    3  A    between atoms: C_7  and  C_18
                            x       y       z     vdW  Elec       q    Type
                         _______ _______ _______ _____ _____    ______ ____

>  <TORSDO>
F 3

$$$$
=
 OpenBabel11052411163D

 27 31  0  0  1  0  0  0  0  0999 V2000
  161.6340  209.6870  151.2620 C   0  0  0  0  0  3  0  0  0  0  0  0
  161.9240  209.9150  149.9180 C   0  0  0  0  0  0  0  0  0  0  0  0
  161.6390  207.5450  149.4810 C   0  0  0  0  0  0  0  0  0  0  0  0
  161.9250  208.8380  149.0220 C   0  0  0  0  0  3  0  0  0  0  0  0
  161.3480  208.3890  151.7010 C   0  0  0  0  0  0  0  0  0  0  0  0
  161.3570  207.3640  150.8030 N   0  0  0  0  0  0  0  0  0  0  0  0
  161.3170  205.1390  148.9080 C   0  0  0  0  0  0  0  0  0  0  0  0
  161.3050  204.0310  147.9390 C   0  0  0  0  0  3  0  0  0  0  0  0
  160.9990  204.8370  150.2280 O   0  0  0  0  0  1  0  0  0  0  0  0
  162.1780  205.6430  144.9520 O   0  0  0  0  0  0  0  0  0  0  0  0
  161.5860  204.2150  146.6880 N   0  0  0  0  0  0  0  0  0  0  0  0
  161.6310  206.3990  148.5260 C   0  0  0  0  0  0  0  0  0  0  0  0
  162.0060  206.6940  147.0860 C   0  0  0  0  0  2  0  0  0  0  0  0
  161.9280  205.5050  146.1770 C   0  0  0  0  0  0  0  0  0  0  0  0
  160.5320  208.9120  155.3670 C   0  0  0  0  0  3  0  0  0  0  0  0
  161.0360  208.1210  153.1220 C   0  0  0  0  0  0  0  0  0  0  0  0
  160.1330  207.3120  157.2430 C   0  0  0  0  0  1  0  0  0  0  0  0
  160.8260  209.1760  154.0260 C   0  0  0  0  0  3  0  0  0  0  0  0
  160.9470  206.7990  153.5850 C   0  0  0  0  0  3  0  0  0  0  0  0
  160.6540  206.5360  154.9260 C   0  0  0  0  0  3  0  0  0  0  0  0
  160.4460  207.5920  155.8170 C   0  0  0  0  0  0  0  0  0  0  0  0
  160.3620  212.7520  147.4870 C   0  0  0  0  0  2  0  0  0  0  0  0
  162.3850  211.3820  147.9560 C   0  0  0  0  0  2  0  0  0  0  0  0
  162.2270  211.3070  149.4600 C   0  0  1  0  0  3  0  0  0  0  0  0
  161.0740  213.3080  148.7040 C   0  0  2  0  0  3  0  0  0  0  0  0
  161.8780  212.7500  147.5370 C   0  0  2  0  0  3  0  0  0  0  0  0
  161.1120  212.2670  149.8090 C   0  0  0  0  0  2  0  0  0  0  0  0
  1  5  1  0  0  0  0
  2  1  2  0  0  0  0
  3  6  1  0  0  0  0
  4  3  2  0  0  0  0
  4  2  1  0  0  0  0
  5 16  1  0  0  0  0
  6  5  2  0  0  0  0
  7  9  1  0  0  0  0
  8  7  1  0  0  0  0
 10 14  2  0  0  0  0
 11  8  2  0  0  0  0
 12  7  2  0  0  0  0
 12  3  1  0  0  0  0
 13 12  1  0  0  0  0
 14 11  1  0  0  0  0
 14 13  1  0  0  0  0
 15 21  1  0  0  0  0
 16 19  2  0  0  0  0
 16 18  1  0  0  0  0
 18 15  2  0  0  0  0
 19 20  1  0  0  0  0
 20 21  2  0  0  0  0
 21 17  1  0  0  0  0
 23 24  1  0  0  0  0
 24 27  1  0  0  0  0
 24  2  1  6  0  0  0
 25 22  1  6  0  0  0
 25 27  1  0  0  0  0
 26 22  1  6  0  0  0
 26 23  1  0  0  0  0
 26 25  1  0  0  0  0
M  END
>  <MODEL>
5

>  <REMARK>
 VINA RESULT:      -8.1      3.224      6.206
  Name = 
  3 active torsions:
  status: ('A' for Active; 'I' for Inactive)
    1  A    between atoms: C_5  and  C_11
    2  A    between atoms: C_6  and  C_17
    3  A    between atoms: C_7  and  C_18
                            x       y       z     vdW  Elec       q    Type
                         _______ _______ _______ _____ _____    ______ ____

>  <TORSDO>
F 3

$$$$
=
 OpenBabel11052411163D

 27 31  0  0  1  0  0  0  0  0999 V2000
  161.1970  206.3660  153.0480 C   0  0  0  0  0  3  0  0  0  0  0  0
  161.2540  207.5340  153.8070 C   0  0  0  0  0  0  0  0  0  0  0  0
  161.1900  208.8350  151.7610 C   0  0  0  0  0  0  0  0  0  0  0  0
  161.2480  208.7750  153.1600 C   0  0  0  0  0  3  0  0  0  0  0  0
  161.1360  206.4460  151.6520 C   0  0  0  0  0  0  0  0  0  0  0  0
  161.1320  207.6700  151.0540 N   0  0  0  0  0  0  0  0  0  0  0  0
  160.4700  211.2140  151.5410 C   0  0  0  0  0  0  0  0  0  0  0  0
  160.4870  212.5100  150.8440 C   0  0  0  0  0  3  0  0  0  0  0  0
  159.7000  211.1180  152.6940 O   0  0  0  0  0  1  0  0  0  0  0  0
  162.6250  211.8780  148.1400 O   0  0  0  0  0  0  0  0  0  0  0  0
  161.1770  212.6960  149.7630 N   0  0  0  0  0  0  0  0  0  0  0  0
  161.1750  210.1580  151.0700 C   0  0  0  0  0  0  0  0  0  0  0  0
  161.9800  210.2810  149.7910 C   0  0  0  0  0  2  0  0  0  0  0  0
  161.9570  211.6510  149.1820 C   0  0  0  0  0  0  0  0  0  0  0  0
  160.8370  202.8080  150.6240 C   0  0  0  0  0  3  0  0  0  0  0  0
  161.0740  205.2210  150.8250 C   0  0  0  0  0  0  0  0  0  0  0  0
  160.9000  201.6830  148.3950 C   0  0  0  0  0  1  0  0  0  0  0  0
  160.8930  203.9600  151.4150 C   0  0  0  0  0  3  0  0  0  0  0  0
  161.1980  205.3090  149.4290 C   0  0  0  0  0  3  0  0  0  0  0  0
  161.1420  204.1570  148.6390 C   0  0  0  0  0  3  0  0  0  0  0  0
  160.9610  202.9080  149.2370 C   0  0  0  0  0  0  0  0  0  0  0  0
  159.9340  209.5350  157.0720 C   0  0  0  0  0  2  0  0  0  0  0  0
  161.9570  208.6610  155.9160 C   0  0  0  0  0  2  0  0  0  0  0  0
  161.3170  207.4350  155.2990 C   0  0  1  0  0  3  0  0  0  0  0  0
  160.0110  208.0320  157.2590 C   0  0  2  0  0  3  0  0  0  0  0  0
  161.2830  208.8680  157.2610 C   0  0  2  0  0  3  0  0  0  0  0  0
  159.9390  207.3330  155.9130 C   0  0  0  0  0  2  0  0  0  0  0  0
  1  2  1  0  0  0  0
  3  4  1  0  0  0  0
  4  2  2  0  0  0  0
  5  1  2  0  0  0  0
  6  5  1  0  0  0  0
  6  3  2  0  0  0  0
  7  9  1  0  0  0  0
  8  7  1  0  0  0  0
 10 14  2  0  0  0  0
 11  8  2  0  0  0  0
 12  7  2  0  0  0  0
 12  3  1  0  0  0  0
 13 12  1  0  0  0  0
 14 11  1  0  0  0  0
 14 13  1  0  0  0  0
 15 18  1  0  0  0  0
 16 18  2  0  0  0  0
 16  5  1  0  0  0  0
 17 21  1  0  0  0  0
 19 16  1  0  0  0  0
 20 21  1  0  0  0  0
 20 19  2  0  0  0  0
 21 15  2  0  0  0  0
 22 25  1  0  0  0  0
 22 26  1  0  0  0  0
 24  2  1  6  0  0  0
 24 27  1  0  0  0  0
 24 23  1  0  0  0  0
 25 27  1  6  0  0  0
 25 26  1  0  0  0  0
 26 23  1  6  0  0  0
M  END
>  <MODEL>
6

>  <REMARK>
 VINA RESULT:      -8.0      2.393      5.690
  Name = 
  3 active torsions:
  status: ('A' for Active; 'I' for Inactive)
    1  A    between atoms: C_5  and  C_11
    2  A    between atoms: C_6  and  C_17
    3  A    between atoms: C_7  and  C_18
                            x       y       z     vdW  Elec       q    Type
                         _______ _______ _______ _____ _____    ______ ____

>  <TORSDO>
F 3

$$$$
=
 OpenBabel11052411163D

 27 31  0  0  1  0  0  0  0  0999 V2000
  161.4740  207.7880  152.5220 C   0  0  0  0  0  3  0  0  0  0  0  0
  161.2830  206.6000  153.2270 C   0  0  0  0  0  0  0  0  0  0  0  0
  161.2590  205.3880  151.1260 C   0  0  0  0  0  0  0  0  0  0  0  0
  161.1760  205.3940  152.5250 C   0  0  0  0  0  3  0  0  0  0  0  0
  161.5570  207.7620  151.1250 C   0  0  0  0  0  0  0  0  0  0  0  0
  161.4500  206.5700  150.4730 N   0  0  0  0  0  0  0  0  0  0  0  0
  160.9440  202.9160  150.9980 C   0  0  0  0  0  0  0  0  0  0  0  0
  160.8310  201.6660  150.2300 C   0  0  0  0  0  3  0  0  0  0  0  0
  160.8310  202.8300  152.3810 O   0  0  0  0  0  1  0  0  0  0  0  0
  161.2060  202.7800  146.9280 O   0  0  0  0  0  0  0  0  0  0  0  0
  160.9220  201.6470  148.9380 N   0  0  0  0  0  0  0  0  0  0  0  0
  161.1540  204.1010  150.3770 C   0  0  0  0  0  0  0  0  0  0  0  0
  161.3070  204.1620  148.8690 C   0  0  0  0  0  2  0  0  0  0  0  0
  161.1410  202.8400  148.1830 C   0  0  0  0  0  0  0  0  0  0  0  0
  161.9560  211.4310  150.2560 C   0  0  0  0  0  3  0  0  0  0  0  0
  161.7610  209.0080  150.3540 C   0  0  0  0  0  0  0  0  0  0  0  0
  162.3550  212.6090  148.0890 C   0  0  0  0  0  1  0  0  0  0  0  0
  161.7630  210.2590  150.9930 C   0  0  0  0  0  3  0  0  0  0  0  0
  161.9550  208.9520  148.9650 C   0  0  0  0  0  3  0  0  0  0  0  0
  162.1480  210.1240  148.2280 C   0  0  0  0  0  3  0  0  0  0  0  0
  162.1490  211.3630  148.8740 C   0  0  0  0  0  0  0  0  0  0  0  0
  159.7060  208.9250  156.1440 C   0  0  0  0  0  2  0  0  0  0  0  0
  161.8070  207.9080  155.2820 C   0  0  0  0  0  2  0  0  0  0  0  0
  161.1970  206.6420  154.7210 C   0  0  1  0  0  3  0  0  0  0  0  0
  159.7220  207.4460  156.4770 C   0  0  2  0  0  3  0  0  0  0  0  0
  161.0110  208.2550  156.5280 C   0  0  2  0  0  3  0  0  0  0  0  0
  159.7630  206.6230  155.2000 C   0  0  0  0  0  2  0  0  0  0  0  0
  1  2  1  0  0  0  0
  3  4  1  0  0  0  0
  4  2  2  0  0  0  0
  5  1  2  0  0  0  0
  6  5  1  0  0  0  0
  6  3  2  0  0  0  0
  7  9  1  0  0  0  0
  8  7  1  0  0  0  0
 10 14  2  0  0  0  0
 11  8  2  0  0  0  0
 12  7  2  0  0  0  0
 12  3  1  0  0  0  0
 13 12  1  0  0  0  0
 14 13  1  0  0  0  0
 14 11  1  0  0  0  0
 15 18  1  0  0  0  0
 16 18  2  0  0  0  0
 16  5  1  0  0  0  0
 17 21  1  0  0  0  0
 19 16  1  0  0  0  0
 20 21  1  0  0  0  0
 20 19  2  0  0  0  0
 21 15  2  0  0  0  0
 22 25  1  0  0  0  0
 22 26  1  0  0  0  0
 24  2  1  6  0  0  0
 24 27  1  0  0  0  0
 24 23  1  0  0  0  0
 25 27  1  6  0  0  0
 25 26  1  0  0  0  0
 26 23  1  6  0  0  0
M  END
>  <MODEL>
7

>  <REMARK>
 VINA RESULT:      -7.6      3.548      8.020
  Name = 
  3 active torsions:
  status: ('A' for Active; 'I' for Inactive)
    1  A    between atoms: C_5  and  C_11
    2  A    between atoms: C_6  and  C_17
    3  A    between atoms: C_7  and  C_18
                            x       y       z     vdW  Elec       q    Type
                         _______ _______ _______ _____ _____    ______ ____

>  <TORSDO>
F 3

$$$$
=
 OpenBabel11052411163D

 27 31  0  0  1  0  0  0  0  0999 V2000
  161.6740  209.0310  150.6680 C   0  0  0  0  0  3  0  0  0  0  0  0
  161.9150  209.0180  149.2950 C   0  0  0  0  0  0  0  0  0  0  0  0
  161.4890  206.6300  149.2690 C   0  0  0  0  0  0  0  0  0  0  0  0
  161.8200  207.8120  148.5920 C   0  0  0  0  0  3  0  0  0  0  0  0
  161.3420  207.8410  151.3270 C   0  0  0  0  0  0  0  0  0  0  0  0
  161.2580  206.6850  150.6110 N   0  0  0  0  0  0  0  0  0  0  0  0
  161.6970  205.2420  147.2060 C   0  0  0  0  0  0  0  0  0  0  0  0
  161.5910  203.9570  146.4970 C   0  0  0  0  0  3  0  0  0  0  0  0
  162.1310  206.3420  146.4750 O   0  0  0  0  0  1  0  0  0  0  0  0
  160.4790  201.7990  149.0240 O   0  0  0  0  0  0  0  0  0  0  0  0
  161.1980  202.8780  147.0950 N   0  0  0  0  0  0  0  0  0  0  0  0
  161.3790  205.3450  148.5180 C   0  0  0  0  0  0  0  0  0  0  0  0
  160.8760  204.1360  149.2830 C   0  0  0  0  0  2  0  0  0  0  0  0
  160.8400  202.8730  148.4780 C   0  0  0  0  0  0  0  0  0  0  0  0
  160.8290  206.6230  154.8810 C   0  0  0  0  0  3  0  0  0  0  0  0
  161.0810  207.8290  152.7830 C   0  0  0  0  0  0  0  0  0  0  0  0
  160.3200  207.8260  157.0100 C   0  0  0  0  0  1  0  0  0  0  0  0
  161.0770  206.6240  153.5050 C   0  0  0  0  0  3  0  0  0  0  0  0
  160.8330  209.0320  153.4630 C   0  0  0  0  0  3  0  0  0  0  0  0
  160.5850  209.0310  154.8380 C   0  0  0  0  0  3  0  0  0  0  0  0
  160.5830  207.8270  155.5470 C   0  0  0  0  0  0  0  0  0  0  0  0
  160.3670  212.7140  148.7050 C   0  0  0  0  0  2  0  0  0  0  0  0
  161.2320  210.6780  147.5650 C   0  0  0  0  0  2  0  0  0  0  0  0
  162.2680  210.2970  148.6020 C   0  0  1  0  0  3  0  0  0  0  0  0
  161.8800  212.6880  148.8010 C   0  0  2  0  0  3  0  0  0  0  0  0
  161.1870  212.1960  147.5390 C   0  0  2  0  0  3  0  0  0  0  0  0
  162.3340  211.4580  149.5690 C   0  0  0  0  0  2  0  0  0  0  0  0
  1  5  1  0  0  0  0
  2  1  2  0  0  0  0
  3  6  1  0  0  0  0
  4  3  2  0  0  0  0
  4  2  1  0  0  0  0
  5 16  1  0  0  0  0
  6  5  2  0  0  0  0
  7 12  2  0  0  0  0
  8 11  2  0  0  0  0
  8  7  1  0  0  0  0
  9  7  1  0  0  0  0
 11 14  1  0  0  0  0
 12  3  1  0  0  0  0
 12 13  1  0  0  0  0
 14 10  2  0  0  0  0
 14 13  1  0  0  0  0
 15 21  1  0  0  0  0
 16 19  2  0  0  0  0
 16 18  1  0  0  0  0
 18 15  2  0  0  0  0
 19 20  1  0  0  0  0
 20 21  2  0  0  0  0
 21 17  1  0  0  0  0
 23 24  1  0  0  0  0
 24  2  1  1  0  0  0
 24 27  1  0  0  0  0
 25 22  1  1  0  0  0
 25 27  1  0  0  0  0
 26 23  1  1  0  0  0
 26 22  1  0  0  0  0
 26 25  1  0  0  0  0
M  END
>  <MODEL>
8

>  <REMARK>
 VINA RESULT:      -7.4      3.373      6.387
  Name = 
  3 active torsions:
  status: ('A' for Active; 'I' for Inactive)
    1  A    between atoms: C_5  and  C_11
    2  A    between atoms: C_6  and  C_17
    3  A    between atoms: C_7  and  C_18
                            x       y       z     vdW  Elec       q    Type
                         _______ _______ _______ _____ _____    ______ ____

>  <TORSDO>
F 3

$$$$
=
 OpenBabel11052411163D

 27 31  0  0  1  0  0  0  0  0999 V2000
  161.4870  207.6190  152.1230 C   0  0  0  0  0  3  0  0  0  0  0  0
  161.5640  208.8440  152.7830 C   0  0  0  0  0  0  0  0  0  0  0  0
  161.5670  209.9730  150.6360 C   0  0  0  0  0  0  0  0  0  0  0  0
  161.6030  210.0270  152.0360 C   0  0  0  0  0  3  0  0  0  0  0  0
  161.4490  207.5850  150.7230 C   0  0  0  0  0  0  0  0  0  0  0  0
  161.4880  208.7560  150.0270 N   0  0  0  0  0  0  0  0  0  0  0  0
  160.8930  212.3340  150.1920 C   0  0  0  0  0  0  0  0  0  0  0  0
  160.9560  213.5670  149.3930 C   0  0  0  0  0  3  0  0  0  0  0  0
  160.0760  212.3430  151.3180 O   0  0  0  0  0  1  0  0  0  0  0  0
  163.1890  212.6880  146.8390 O   0  0  0  0  0  0  0  0  0  0  0  0
  161.6900  213.6550  148.3290 N   0  0  0  0  0  0  0  0  0  0  0  0
  161.5990  211.2340  149.8390 C   0  0  0  0  0  0  0  0  0  0  0  0
  162.4560  211.2410  148.5880 C   0  0  0  0  0  2  0  0  0  0  0  0
  162.4770  212.5560  147.8670 C   0  0  0  0  0  0  0  0  0  0  0  0
  161.3930  205.0280  147.9240 C   0  0  0  0  0  3  0  0  0  0  0  0
  161.3660  206.2980  149.9990 C   0  0  0  0  0  0  0  0  0  0  0  0
  161.1200  202.5450  147.9240 C   0  0  0  0  0  1  0  0  0  0  0  0
  161.4740  206.2490  148.5990 C   0  0  0  0  0  3  0  0  0  0  0  0
  161.1770  205.1020  150.7090 C   0  0  0  0  0  3  0  0  0  0  0  0
  161.0970  203.8810  150.0340 C   0  0  0  0  0  3  0  0  0  0  0  0
  161.2050  203.8450  148.6420 C   0  0  0  0  0  0  0  0  0  0  0  0
  159.2800  210.0830  155.8900 C   0  0  0  0  0  2  0  0  0  0  0  0
  161.5190  210.2780  154.8210 C   0  0  0  0  0  2  0  0  0  0  0  0
  161.6020  208.8670  154.2800 C   0  0  1  0  0  3  0  0  0  0  0  0
  160.0860  208.8320  156.1790 C   0  0  2  0  0  3  0  0  0  0  0  0
  160.7720  210.1900  156.1410 C   0  0  2  0  0  3  0  0  0  0  0  0
  160.4320  208.1210  154.8810 C   0  0  0  0  0  2  0  0  0  0  0  0
  1  2  1  0  0  0  0
  3  4  1  0  0  0  0
  4  2  2  0  0  0  0
  5  1  2  0  0  0  0
  6  3  2  0  0  0  0
  6  5  1  0  0  0  0
  7  9  1  0  0  0  0
  8  7  1  0  0  0  0
 10 14  2  0  0  0  0
 11  8  2  0  0  0  0
 12  7  2  0  0  0  0
 12  3  1  0  0  0  0
 13 12  1  0  0  0  0
 14 11  1  0  0  0  0
 14 13  1  0  0  0  0
 15 18  2  0  0  0  0
 15 21  1  0  0  0  0
 16 19  2  0  0  0  0
 16  5  1  0  0  0  0
 17 21  1  0  0  0  0
 18 16  1  0  0  0  0
 20 19  1  0  0  0  0
 21 20  2  0  0  0  0
 22 26  1  0  0  0  0
 22 25  1  0  0  0  0
 24  2  1  6  0  0  0
 24 23  1  0  0  0  0
 24 27  1  0  0  0  0
 25 27  1  6  0  0  0
 26 23  1  6  0  0  0
 26 25  1  0  0  0  0
M  END
>  <MODEL>
9

>  <REMARK>
 VINA RESULT:      -7.4      2.292      5.352
  Name = 
  3 active torsions:
  status: ('A' for Active; 'I' for Inactive)
    1  A    between atoms: C_5  and  C_11
    2  A    between atoms: C_6  and  C_17
    3  A    between atoms: C_7  and  C_18
                            x       y       z     vdW  Elec       q    Type
                         _______ _______ _______ _____ _____    ______ ____

>  <TORSDO>
F 3

$$$$
