=
 OpenBabel11042421443D

 47 52  0  0  1  0  0  0  0  0999 V2000
  161.8890  213.9410  145.1080 C   0  0  0  0  0  2  0  0  0  0  0  0
  161.3260  211.8550  149.4830 C   0  0  0  0  0  0  0  0  0  0  0  0
  161.0200  213.3330  149.4650 C   0  0  1  0  0  3  0  0  0  0  0  0
  161.5300  209.7290  148.3270 C   0  0  0  0  0  3  0  0  0  0  0  0
  161.1200  213.9380  148.0550 C   0  0  2  0  0  3  0  0  0  0  0  0
  160.8840  211.7000  147.0900 O   0  0  0  0  0  0  0  0  0  0  0  0
  161.6850  211.2320  150.6840 C   0  0  0  0  0  3  0  0  0  0  0  0
  161.9020  209.1100  149.5250 C   0  0  0  0  0  0  0  0  0  0  0  0
  160.4760  213.6240  145.6170 C   0  0  2  0  0  3  0  0  0  0  0  0
  162.9810  213.4500  146.0480 C   0  0  0  0  0  2  0  0  0  0  0  0
  161.2370  211.0940  148.3000 C   0  0  0  0  0  0  0  0  0  0  0  0
  160.3980  213.0430  147.0340 C   0  0  2  0  0  3  0  0  0  0  0  0
  162.8790  214.3060  147.6600 S   0  0  0  0  0  0  0  0  0  0  0  0
  161.9660  209.8630  150.7070 C   0  0  0  0  0  3  0  0  0  0  0  0
  161.1060  206.4080  147.4040 C   0  0  0  0  0  2  0  0  0  0  0  0
  162.3270  207.1260  150.9000 N   0  0  0  0  0  0  0  0  0  0  0  0
  162.1640  207.6380  149.5280 C   0  0  1  0  0  3  0  0  0  0  0  0
  161.4050  204.8380  150.6850 N   0  0  0  0  0  0  0  0  0  0  0  0
  162.0200  205.9470  151.4000 C   0  0  0  0  0  3  0  0  0  0  0  0
  161.8710  205.6660  148.4710 C   0  0  1  0  0  3  0  0  0  0  0  0
  161.0570  206.8920  148.8360 C   0  0  2  0  0  3  0  0  0  0  0  0
  161.2740  204.6760  149.3910 C   0  0  0  0  0  0  0  0  0  0  0  0
  161.3170  202.5850  148.0800 C   0  0  0  0  0  1  0  0  0  0  0  0
  160.6310  203.5530  148.8660 O   0  0  0  0  0  0  0  0  0  0  0  0
  159.6080  214.0460  151.3560 C   0  0  0  0  0  0  0  0  0  0  0  0
  159.5240  214.4520  152.5980 C   0  0  0  0  0  3  0  0  0  0  0  0
  159.7020  213.6410  150.1150 C   0  0  0  0  0  3  0  0  0  0  0  0
  157.5690  213.6390  155.7390 C   0  0  0  0  0  3  0  0  0  0  0  0
  156.2030  213.1680  153.7960 C   0  0  0  0  0  3  0  0  0  0  0  0
  157.2460  213.5800  152.9630 C   0  0  0  0  0  3  0  0  0  0  0  0
  156.3580  213.1980  155.1910 C   0  0  0  0  0  0  0  0  0  0  0  0
  158.4540  214.0240  153.5090 C   0  0  0  0  0  0  0  0  0  0  0  0
  158.6130  214.0510  154.9040 C   0  0  0  0  0  3  0  0  0  0  0  0
  155.3340  212.7960  156.0520 O   0  0  0  0  0  0  0  0  0  0  0  0
  155.3170  211.5190  156.6760 C   0  0  0  0  0  1  0  0  0  0  0  0
  159.6610  212.8270  144.6020 C   0  0  0  0  0  2  0  0  0  0  0  0
  159.0630  213.7030  143.6010 N   0  0  0  0  0  2  0  0  0  0  0  0
  159.4020  213.1580  142.2980 C   0  0  0  0  0  2  0  0  0  0  0  0
  160.1160  211.8290  142.4640 C   0  0  0  0  0  2  0  0  0  0  0  0
  161.0710  211.6140  141.3300 C   0  0  0  0  0  0  0  0  0  0  0  0
  162.0880  212.2890  141.2750 O   0  0  0  0  0  0  0  0  0  0  0  0
  160.8050  210.6050  140.2430 C   0  0  1  0  0  3  0  0  0  0  0  0
  160.5010  211.2690  139.0490 O   0  0  0  0  0  0  0  0  0  0  0  0
  159.1070  211.3040  138.9960 C   0  0  0  0  0  1  0  0  0  0  0  0
  161.9830  209.6550  140.0180 C   0  0  0  0  0  2  0  0  0  0  0  0
  161.5340  208.4670  139.4440 O   0  0  0  0  0  0  0  0  0  0  0  0
  161.9660  207.4720  140.3210 C   0  0  0  0  0  1  0  0  0  0  0  0
  1  9  1  0  0  0  0
  1 10  1  0  0  0  0
  2  7  1  0  0  0  0
  3  2  1  0  0  0  0
  3 27  1  6  0  0  0
  4  8  2  0  0  0  0
  5 13  1  6  0  0  0
  5  3  1  0  0  0  0
  6 11  1  0  0  0  0
  7 14  2  0  0  0  0
  8 14  1  0  0  0  0
  9 36  1  6  0  0  0
  9 12  1  0  0  0  0
 10 13  1  0  0  0  0
 11  4  1  0  0  0  0
 11  2  2  0  0  0  0
 12  6  1  6  0  0  0
 12  5  1  0  0  0  0
 16 19  2  0  0  0  0
 17  8  1  1  0  0  0
 17 16  1  0  0  0  0
 18 19  1  0  0  0  0
 20 15  1  6  0  0  0
 20 21  1  0  0  0  0
 20 22  1  0  0  0  0
 21 15  1  6  0  0  0
 21 17  1  0  0  0  0
 22 18  2  0  0  0  0
 23 24  1  0  0  0  0
 24 22  1  0  0  0  0
 25 26  2  0  0  0  0
 26 32  1  0  0  0  0
 27 25  2  0  0  0  0
 29 31  2  0  0  0  0
 30 32  2  0  0  0  0
 30 29  1  0  0  0  0
 31 28  1  0  0  0  0
 31 34  1  0  0  0  0
 32 33  1  0  0  0  0
 33 28  2  0  0  0  0
 34 35  1  0  0  0  0
 37 36  1  0  0  0  0
 38 39  1  0  0  0  0
 38 37  1  0  0  0  0
 40 39  1  0  0  0  0
 41 40  2  0  0  0  0
 42 45  1  6  0  0  0
 42 40  1  0  0  0  0
 43 42  1  0  0  0  0
 44 43  1  0  0  0  0
 46 45  1  0  0  0  0
 46 47  1  0  0  0  0
M  END
>  <MODEL>
1

>  <REMARK>
 VINA RESULT:      -5.8      0.000      0.000
  Name = 
  14 active torsions:
  status: ('A' for Active; 'I' for Inactive)
    1  A    between atoms: C_6  and  C_17
    2  A    between atoms: C_6  and  O_19
    3  A    between atoms: O_8  and  C_24
    4  A    between atoms: C_11  and  N_23
    5  A    between atoms: C_11  and  C_41
    6  A    between atoms: C_12  and  C_27
    7  A    between atoms: C_13  and  C_44
    8  A    between atoms: O_14  and  C_17
    9  A    between atoms: C_17  and  C_30
   10  A    between atoms: C_22  and  N_23
   11  A    between atoms: C_22  and  C_34
   12  A    between atoms: C_25  and  C_43
   13  A    between atoms: C_30  and  C_41
   14  A    between atoms: O_35  and  C_46
                            x       y       z     vdW  Elec       q    Type
                         _______ _______ _______ _____ _____    ______ ____

>  <TORSDO>
F 14

$$$$
=
 OpenBabel11042421443D

 47 52  0  0  1  0  0  0  0  0999 V2000
  162.2990  213.0720  145.8100 C   0  0  0  0  0  2  0  0  0  0  0  0
  161.6230  210.7380  150.0430 C   0  0  0  0  0  0  0  0  0  0  0  0
  161.4100  212.2300  150.1250 C   0  0  1  0  0  3  0  0  0  0  0  0
  161.6900  208.6850  148.7460 C   0  0  0  0  0  3  0  0  0  0  0  0
  161.5420  212.9190  148.7580 C   0  0  2  0  0  3  0  0  0  0  0  0
  161.1640  210.7700  147.6480 O   0  0  0  0  0  0  0  0  0  0  0  0
  161.9480  210.0150  151.1960 C   0  0  0  0  0  3  0  0  0  0  0  0
  162.0280  207.9650  149.8970 C   0  0  0  0  0  0  0  0  0  0  0  0
  160.8700  212.8100  146.3090 C   0  0  2  0  0  3  0  0  0  0  0  0
  163.3610  212.4530  146.7080 C   0  0  0  0  0  2  0  0  0  0  0  0
  161.4830  210.0640  148.8120 C   0  0  0  0  0  0  0  0  0  0  0  0
  160.7620  212.1410  147.6850 C   0  0  2  0  0  3  0  0  0  0  0  0
  163.3190  213.2030  148.3730 S   0  0  0  0  0  0  0  0  0  0  0  0
  162.1430  208.6330  151.1260 C   0  0  0  0  0  3  0  0  0  0  0  0
  161.2390  205.4930  147.5110 C   0  0  0  0  0  2  0  0  0  0  0  0
  162.2180  205.8580  151.1350 N   0  0  0  0  0  0  0  0  0  0  0  0
  162.1970  206.4830  149.8010 C   0  0  1  0  0  3  0  0  0  0  0  0
  161.1770  203.6610  150.6670 N   0  0  0  0  0  0  0  0  0  0  0  0
  161.8000  204.6680  151.5140 C   0  0  0  0  0  3  0  0  0  0  0  0
  161.8690  204.6220  148.5680 C   0  0  1  0  0  3  0  0  0  0  0  0
  161.1050  205.8680  148.9700 C   0  0  2  0  0  3  0  0  0  0  0  0
  161.1410  203.6070  149.3580 C   0  0  0  0  0  0  0  0  0  0  0  0
  161.0730  201.8440  147.6330 C   0  0  0  0  0  1  0  0  0  0  0  0
  160.4730  202.5730  148.6970 O   0  0  0  0  0  0  0  0  0  0  0  0
  160.0160  212.6980  152.1030 C   0  0  0  0  0  0  0  0  0  0  0  0
  159.9250  212.8220  153.4030 C   0  0  0  0  0  3  0  0  0  0  0  0
  160.1160  212.5740  150.8050 C   0  0  0  0  0  3  0  0  0  0  0  0
  157.7630  211.1290  156.0120 C   0  0  0  0  0  3  0  0  0  0  0  0
  156.3540  212.3470  154.4650 C   0  0  0  0  0  3  0  0  0  0  0  0
  157.4860  212.7590  153.7580 C   0  0  0  0  0  3  0  0  0  0  0  0
  156.4860  211.5300  155.5990 C   0  0  0  0  0  0  0  0  0  0  0  0
  158.7610  212.3630  154.1720 C   0  0  0  0  0  0  0  0  0  0  0  0
  158.8950  211.5430  155.3040 C   0  0  0  0  0  3  0  0  0  0  0  0
  155.3750  211.1030  156.3290 O   0  0  0  0  0  0  0  0  0  0  0  0
  154.7040  211.9410  157.2610 C   0  0  0  0  0  1  0  0  0  0  0  0
  160.0030  212.1340  145.2500 C   0  0  0  0  0  2  0  0  0  0  0  0
  158.6090  212.5460  145.3690 N   0  0  0  0  0  2  0  0  0  0  0  0
  158.3620  213.5250  144.3230 C   0  0  0  0  0  2  0  0  0  0  0  0
  159.5650  213.6110  143.4030 C   0  0  0  0  0  2  0  0  0  0  0  0
  159.1470  213.3580  141.9870 C   0  0  0  0  0  0  0  0  0  0  0  0
  157.9890  213.5740  141.6620 O   0  0  0  0  0  0  0  0  0  0  0  0
  160.1070  212.8240  140.9540 C   0  0  1  0  0  3  0  0  0  0  0  0
  159.8030  211.4870  140.6770 O   0  0  0  0  0  0  0  0  0  0  0  0
  161.0290  210.8210  140.7060 C   0  0  0  0  0  1  0  0  0  0  0  0
  160.0900  213.6350  139.6580 C   0  0  0  0  0  2  0  0  0  0  0  0
  161.3920  213.8250  139.1970 O   0  0  0  0  0  0  0  0  0  0  0  0
  161.3840  213.2980  137.9060 C   0  0  0  0  0  1  0  0  0  0  0  0
  1  9  1  0  0  0  0
  1 10  1  0  0  0  0
  2  3  1  0  0  0  0
  2  7  1  0  0  0  0
  3 27  1  6  0  0  0
  4 11  1  0  0  0  0
  4  8  2  0  0  0  0
  5 13  1  6  0  0  0
  5  3  1  0  0  0  0
  6 11  1  0  0  0  0
  8 14  1  0  0  0  0
  9 36  1  6  0  0  0
  9 12  1  0  0  0  0
 10 13  1  0  0  0  0
 11  2  2  0  0  0  0
 12  6  1  6  0  0  0
 12  5  1  0  0  0  0
 14  7  2  0  0  0  0
 16 19  2  0  0  0  0
 17  8  1  1  0  0  0
 17 16  1  0  0  0  0
 18 19  1  0  0  0  0
 20 15  1  6  0  0  0
 20 21  1  0  0  0  0
 20 22  1  0  0  0  0
 21 15  1  6  0  0  0
 21 17  1  0  0  0  0
 22 18  2  0  0  0  0
 23 24  1  0  0  0  0
 24 22  1  0  0  0  0
 25 26  2  0  0  0  0
 26 32  1  0  0  0  0
 27 25  2  0  0  0  0
 29 31  2  0  0  0  0
 30 32  2  0  0  0  0
 30 29  1  0  0  0  0
 31 28  1  0  0  0  0
 31 34  1  0  0  0  0
 32 33  1  0  0  0  0
 33 28  2  0  0  0  0
 34 35  1  0  0  0  0
 36 37  1  0  0  0  0
 38 37  1  0  0  0  0
 39 38  1  0  0  0  0
 40 39  1  0  0  0  0
 41 40  2  0  0  0  0
 42 45  1  6  0  0  0
 42 40  1  0  0  0  0
 43 44  1  0  0  0  0
 43 42  1  0  0  0  0
 46 45  1  0  0  0  0
 47 46  1  0  0  0  0
M  END
>  <MODEL>
2

>  <REMARK>
 VINA RESULT:      -4.7      1.572      2.128
  Name = 
  14 active torsions:
  status: ('A' for Active; 'I' for Inactive)
    1  A    between atoms: C_6  and  C_17
    2  A    between atoms: C_6  and  O_19
    3  A    between atoms: O_8  and  C_24
    4  A    between atoms: C_11  and  N_23
    5  A    between atoms: C_11  and  C_41
    6  A    between atoms: C_12  and  C_27
    7  A    between atoms: C_13  and  C_44
    8  A    between atoms: O_14  and  C_17
    9  A    between atoms: C_17  and  C_30
   10  A    between atoms: C_22  and  N_23
   11  A    between atoms: C_22  and  C_34
   12  A    between atoms: C_25  and  C_43
   13  A    between atoms: C_30  and  C_41
   14  A    between atoms: O_35  and  C_46
                            x       y       z     vdW  Elec       q    Type
                         _______ _______ _______ _____ _____    ______ ____

>  <TORSDO>
F 14

$$$$
=
 OpenBabel11042421443D

 47 52  0  0  1  0  0  0  0  0999 V2000
  160.9610  210.9570  156.1080 C   0  0  0  0  0  2  0  0  0  0  0  0
  161.6000  209.7260  151.4300 C   0  0  0  0  0  0  0  0  0  0  0  0
  161.6740  208.5600  152.3860 C   0  0  1  0  0  3  0  0  0  0  0  0
  160.8390  211.9700  150.8940 C   0  0  0  0  0  3  0  0  0  0  0  0
  161.3790  208.9700  153.8370 C   0  0  2  0  0  3  0  0  0  0  0  0
  160.2690  210.9970  153.0290 O   0  0  0  0  0  0  0  0  0  0  0  0
  162.2240  209.6430  150.1790 C   0  0  0  0  0  3  0  0  0  0  0  0
  161.4740  211.8910  149.6490 C   0  0  0  0  0  0  0  0  0  0  0  0
  159.8110  210.2920  155.3380 C   0  0  2  0  0  3  0  0  0  0  0  0
  162.1750  211.2390  155.2330 C   0  0  0  0  0  2  0  0  0  0  0  0
  160.8940  210.8940  151.7830 C   0  0  0  0  0  0  0  0  0  0  0  0
  160.1340  209.8720  153.9000 C   0  0  2  0  0  3  0  0  0  0  0  0
  162.8940  209.6820  154.6030 S   0  0  0  0  0  0  0  0  0  0  0  0
  162.1560  210.7180  149.2890 C   0  0  0  0  0  3  0  0  0  0  0  0
  159.3240  212.7540  146.9920 C   0  0  0  0  0  2  0  0  0  0  0  0
  162.6630  213.6860  148.4790 N   0  0  0  0  0  0  0  0  0  0  0  0
  161.3570  213.0420  148.7030 C   0  0  1  0  0  3  0  0  0  0  0  0
  162.4390  214.4500  146.1340 N   0  0  0  0  0  0  0  0  0  0  0  0
  163.1300  214.2910  147.4060 C   0  0  0  0  0  3  0  0  0  0  0  0
  160.2350  213.9560  146.9710 C   0  0  1  0  0  3  0  0  0  0  0  0
  160.7750  212.6020  147.3880 C   0  0  2  0  0  3  0  0  0  0  0  0
  161.1670  214.2790  145.8710 C   0  0  0  0  0  0  0  0  0  0  0  0
  161.4920  214.3340  143.4250 C   0  0  0  0  0  1  0  0  0  0  0  0
  160.6680  214.4530  144.5790 O   0  0  0  0  0  0  0  0  0  0  0  0
  161.2520  206.1830  151.8840 C   0  0  0  0  0  0  0  0  0  0  0  0
  161.7000  204.9550  151.8340 C   0  0  0  0  0  3  0  0  0  0  0  0
  160.8110  207.4140  151.9390 C   0  0  0  0  0  3  0  0  0  0  0  0
  161.1190  203.4100  148.4250 C   0  0  0  0  0  3  0  0  0  0  0  0
  160.4730  201.8330  150.1440 C   0  0  0  0  0  3  0  0  0  0  0  0
  160.8290  202.7580  151.1280 C   0  0  0  0  0  3  0  0  0  0  0  0
  160.6180  202.1520  148.7850 C   0  0  0  0  0  0  0  0  0  0  0  0
  161.3330  204.0120  150.7690 C   0  0  0  0  0  0  0  0  0  0  0  0
  161.4760  204.3360  149.4100 C   0  0  0  0  0  3  0  0  0  0  0  0
  160.2740  201.2490  147.7780 O   0  0  0  0  0  0  0  0  0  0  0  0
  160.7560  201.3680  146.4460 C   0  0  0  0  0  1  0  0  0  0  0  0
  158.5090  211.0810  155.4490 C   0  0  0  0  0  2  0  0  0  0  0  0
  158.3710  212.0280  154.3480 N   0  0  0  0  0  2  0  0  0  0  0  0
  158.6130  213.3540  154.8910 C   0  0  0  0  0  2  0  0  0  0  0  0
  157.3330  214.1680  154.8510 C   0  0  0  0  0  2  0  0  0  0  0  0
  156.4890  213.8560  156.0500 C   0  0  0  0  0  0  0  0  0  0  0  0
  157.0330  213.6900  157.1310 O   0  0  0  0  0  0  0  0  0  0  0  0
  154.9910  213.7210  155.9580 C   0  0  1  0  0  3  0  0  0  0  0  0
  154.3950  214.3250  157.0700 O   0  0  0  0  0  0  0  0  0  0  0  0
  153.0730  213.8770  157.0630 C   0  0  0  0  0  1  0  0  0  0  0  0
  154.4210  214.3300  154.6750 C   0  0  0  0  0  2  0  0  0  0  0  0
  154.7500  213.5300  153.5810 O   0  0  0  0  0  0  0  0  0  0  0  0
  154.9390  214.4330  152.5350 C   0  0  0  0  0  1  0  0  0  0  0  0
  2 11  1  0  0  0  0
  2  3  1  0  0  0  0
  3 27  1  6  0  0  0
  3  5  1  0  0  0  0
  4 11  2  0  0  0  0
  5 12  1  0  0  0  0
  5 13  1  6  0  0  0
  7  2  2  0  0  0  0
  8  4  1  0  0  0  0
  9 36  1  6  0  0  0
  9  1  1  0  0  0  0
 10  1  1  0  0  0  0
 11  6  1  0  0  0  0
 12  6  1  6  0  0  0
 12  9  1  0  0  0  0
 13 10  1  0  0  0  0
 14  8  2  0  0  0  0
 14  7  1  0  0  0  0
 16 17  1  0  0  0  0
 17  8  1  1  0  0  0
 18 19  1  0  0  0  0
 19 16  2  0  0  0  0
 20 15  1  6  0  0  0
 20 21  1  0  0  0  0
 21 15  1  1  0  0  0
 21 17  1  0  0  0  0
 22 18  2  0  0  0  0
 22 20  1  0  0  0  0
 23 24  1  0  0  0  0
 24 22  1  0  0  0  0
 25 27  2  0  0  0  0
 26 25  2  0  0  0  0
 28 31  2  0  0  0  0
 28 33  1  0  0  0  0
 29 30  2  0  0  0  0
 31 29  1  0  0  0  0
 32 30  1  0  0  0  0
 32 26  1  0  0  0  0
 33 32  2  0  0  0  0
 34 31  1  0  0  0  0
 35 34  1  0  0  0  0
 37 38  1  0  0  0  0
 37 36  1  0  0  0  0
 39 38  1  0  0  0  0
 39 40  1  0  0  0  0
 40 41  2  0  0  0  0
 42 45  1  6  0  0  0
 42 40  1  0  0  0  0
 42 43  1  0  0  0  0
 44 43  1  0  0  0  0
 46 45  1  0  0  0  0
 47 46  1  0  0  0  0
M  END
>  <MODEL>
3

>  <REMARK>
 VINA RESULT:      -4.4      3.619     11.255
  Name = 
  14 active torsions:
  status: ('A' for Active; 'I' for Inactive)
    1  A    between atoms: C_6  and  C_17
    2  A    between atoms: C_6  and  O_19
    3  A    between atoms: O_8  and  C_24
    4  A    between atoms: C_11  and  N_23
    5  A    between atoms: C_11  and  C_41
    6  A    between atoms: C_12  and  C_27
    7  A    between atoms: C_13  and  C_44
    8  A    between atoms: O_14  and  C_17
    9  A    between atoms: C_17  and  C_30
   10  A    between atoms: C_22  and  N_23
   11  A    between atoms: C_22  and  C_34
   12  A    between atoms: C_25  and  C_43
   13  A    between atoms: C_30  and  C_41
   14  A    between atoms: O_35  and  C_46
                            x       y       z     vdW  Elec       q    Type
                         _______ _______ _______ _____ _____    ______ ____

>  <TORSDO>
F 14

$$$$
=
 OpenBabel11042421443D

 47 52  0  0  1  0  0  0  0  0999 V2000
  162.4320  204.1780  151.4990 C   0  0  0  0  0  2  0  0  0  0  0  0
  161.6660  208.9960  151.6090 C   0  0  0  0  0  0  0  0  0  0  0  0
  162.4430  208.5260  150.4030 C   0  0  1  0  0  3  0  0  0  0  0  0
  160.1020  208.5520  153.4140 C   0  0  0  0  0  3  0  0  0  0  0  0
  162.5870  206.9970  150.3550 C   0  0  2  0  0  3  0  0  0  0  0  0
  160.6870  206.7790  151.8830 O   0  0  0  0  0  0  0  0  0  0  0  0
  161.7810  210.3220  152.0400 C   0  0  0  0  0  3  0  0  0  0  0  0
  160.2290  209.8750  153.8530 C   0  0  0  0  0  0  0  0  0  0  0  0
  161.3490  204.7910  150.5990 C   0  0  2  0  0  3  0  0  0  0  0  0
  163.0880  205.2000  152.4170 C   0  0  0  0  0  2  0  0  0  0  0  0
  160.8110  208.1090  152.2960 C   0  0  0  0  0  0  0  0  0  0  0  0
  161.2380  206.3200  150.6470 C   0  0  2  0  0  3  0  0  0  0  0  0
  163.9740  206.4680  151.4440 S   0  0  0  0  0  0  0  0  0  0  0  0
  161.0610  210.7630  153.1540 C   0  0  0  0  0  3  0  0  0  0  0  0
  157.1230  211.4830  154.2970 C   0  0  0  0  0  2  0  0  0  0  0  0
  160.2820  210.6430  156.1800 N   0  0  0  0  0  0  0  0  0  0  0  0
  159.4210  210.3290  155.0260 C   0  0  1  0  0  3  0  0  0  0  0  0
  159.0100  212.4720  157.2600 N   0  0  0  0  0  0  0  0  0  0  0  0
  160.1180  211.5360  157.1330 C   0  0  0  0  0  3  0  0  0  0  0  0
  157.5290  211.3300  155.7410 C   0  0  1  0  0  3  0  0  0  0  0  0
  158.5870  211.5300  154.6730 C   0  0  2  0  0  3  0  0  0  0  0  0
  157.8550  212.4550  156.6420 C   0  0  0  0  0  0  0  0  0  0  0  0
  155.5920  213.3840  156.3160 C   0  0  0  0  0  1  0  0  0  0  0  0
  156.9030  213.4530  156.8640 O   0  0  0  0  0  0  0  0  0  0  0  0
  161.9670  210.3450  148.8080 C   0  0  0  0  0  0  0  0  0  0  0  0
  162.0590  211.6140  148.4990 C   0  0  0  0  0  3  0  0  0  0  0  0
  161.8810  209.0780  149.1240 C   0  0  0  0  0  3  0  0  0  0  0  0
  159.1360  213.9340  147.8490 C   0  0  0  0  0  3  0  0  0  0  0  0
  159.7770  212.8480  145.7820 C   0  0  0  0  0  3  0  0  0  0  0  0
  160.7880  212.1600  146.4580 C   0  0  0  0  0  3  0  0  0  0  0  0
  158.9460  213.7420  146.4750 C   0  0  0  0  0  0  0  0  0  0  0  0
  160.9820  212.3540  147.8280 C   0  0  0  0  0  0  0  0  0  0  0  0
  160.1490  213.2450  148.5240 C   0  0  0  0  0  3  0  0  0  0  0  0
  157.9280  214.4480  145.8290 O   0  0  0  0  0  0  0  0  0  0  0  0
  156.5590  214.3150  146.1870 C   0  0  0  0  0  1  0  0  0  0  0  0
  160.0010  204.0920  150.7570 C   0  0  0  0  0  2  0  0  0  0  0  0
  160.1190  202.6590  150.5120 N   0  0  0  0  0  2  0  0  0  0  0  0
  159.8840  202.4470  149.0930 C   0  0  0  0  0  2  0  0  0  0  0  0
  161.1870  202.0900  148.4030 C   0  0  0  0  0  2  0  0  0  0  0  0
  161.0970  202.4080  146.9410 C   0  0  0  0  0  0  0  0  0  0  0  0
  160.8040  201.5170  146.1570 O   0  0  0  0  0  0  0  0  0  0  0  0
  161.3770  203.7880  146.4050 C   0  0  1  0  0  3  0  0  0  0  0  0
  162.7270  204.1030  146.5990 O   0  0  0  0  0  0  0  0  0  0  0  0
  162.7250  205.3750  147.1730 C   0  0  0  0  0  1  0  0  0  0  0  0
  161.0240  203.9290  144.9240 C   0  0  0  0  0  2  0  0  0  0  0  0
  161.1610  205.2580  144.5250 O   0  0  0  0  0  0  0  0  0  0  0  0
  160.0940  205.9160  145.1340 C   0  0  0  0  0  1  0  0  0  0  0  0
  1 10  1  0  0  0  0
  2  7  2  0  0  0  0
  2 11  1  0  0  0  0
  3 27  1  6  0  0  0
  3  2  1  0  0  0  0
  4  8  1  0  0  0  0
  5  3  1  0  0  0  0
  5 12  1  0  0  0  0
  5 13  1  1  0  0  0
  6 11  1  0  0  0  0
  7 14  1  0  0  0  0
  9 12  1  0  0  0  0
  9 36  1  1  0  0  0
  9  1  1  0  0  0  0
 11  4  2  0  0  0  0
 12  6  1  1  0  0  0
 13 10  1  0  0  0  0
 14  8  2  0  0  0  0
 16 19  2  0  0  0  0
 17  8  1  6  0  0  0
 17 16  1  0  0  0  0
 19 18  1  0  0  0  0
 20 15  1  6  0  0  0
 20 22  1  0  0  0  0
 21 15  1  6  0  0  0
 21 17  1  0  0  0  0
 21 20  1  0  0  0  0
 22 24  1  0  0  0  0
 22 18  2  0  0  0  0
 23 24  1  0  0  0  0
 25 27  2  0  0  0  0
 26 25  2  0  0  0  0
 28 33  1  0  0  0  0
 29 30  2  0  0  0  0
 29 31  1  0  0  0  0
 30 32  1  0  0  0  0
 31 28  2  0  0  0  0
 32 26  1  0  0  0  0
 32 33  2  0  0  0  0
 34 35  1  0  0  0  0
 34 31  1  0  0  0  0
 37 36  1  0  0  0  0
 38 37  1  0  0  0  0
 39 38  1  0  0  0  0
 40 39  1  0  0  0  0
 41 40  2  0  0  0  0
 42 45  1  6  0  0  0
 42 43  1  0  0  0  0
 42 40  1  0  0  0  0
 43 44  1  0  0  0  0
 46 45  1  0  0  0  0
 46 47  1  0  0  0  0
M  END
>  <MODEL>
4

>  <REMARK>
 VINA RESULT:      -3.2      4.010      8.879
  Name = 
  14 active torsions:
  status: ('A' for Active; 'I' for Inactive)
    1  A    between atoms: C_6  and  C_17
    2  A    between atoms: C_6  and  O_19
    3  A    between atoms: O_8  and  C_24
    4  A    between atoms: C_11  and  N_23
    5  A    between atoms: C_11  and  C_41
    6  A    between atoms: C_12  and  C_27
    7  A    between atoms: C_13  and  C_44
    8  A    between atoms: O_14  and  C_17
    9  A    between atoms: C_17  and  C_30
   10  A    between atoms: C_22  and  N_23
   11  A    between atoms: C_22  and  C_34
   12  A    between atoms: C_25  and  C_43
   13  A    between atoms: C_30  and  C_41
   14  A    between atoms: O_35  and  C_46
                            x       y       z     vdW  Elec       q    Type
                         _______ _______ _______ _____ _____    ______ ____

>  <TORSDO>
F 14

$$$$
