=
 OpenBabel11052409383D

 38 40  0  0  1  0  0  0  0  0999 V2000
  162.3450  209.3830  150.3570 C   0  0  2  0  0  3  0  0  0  0  0  0
  161.2890  208.3390  150.9070 C   0  0  2  0  0  3  0  0  0  0  0  0
  161.9910  209.4260  151.8460 C   0  0  2  0  0  3  0  0  0  0  0  0
  161.9170  206.9040  151.0800 C   0  0  0  0  0  2  0  0  0  0  0  0
  160.2180  205.4400  149.7830 O   0  0  0  0  0  1  0  0  0  0  0  0
  161.2930  205.4960  150.7350 C   0  0  2  0  0  3  0  0  0  0  0  0
  161.2800  204.4900  151.9070 C   0  0  0  0  0  2  0  0  0  0  0  0
  160.6120  203.3070  151.5880 O   0  0  0  0  0  0  0  0  0  0  0  0
  161.1480  202.4030  150.5740 C   0  0  0  0  0  2  0  0  0  0  0  0
  160.1550  201.8330  149.5080 C   0  0  0  0  0  2  0  0  0  0  0  0
  161.1590  200.9010  148.9820 C   0  0  0  0  0  2  0  0  0  0  0  0
  161.0990  200.7680  147.5430 C   0  0  0  0  0  2  0  0  0  0  0  0
  160.7750  202.1170  147.2140 N   0  0  0  0  0  2  0  0  0  0  0  0
  160.0590  201.6290  145.1480 C   0  0  0  0  0  1  0  0  0  0  0  0
  161.1730  202.3010  145.8830 C   0  0  1  0  0  3  0  0  0  0  0  0
  161.2810  206.0700  145.9670 O   0  0  0  0  0  0  0  0  0  0  0  0
  161.5140  203.7940  145.5000 C   0  0  1  0  0  3  0  0  0  0  0  0
  160.4890  204.3360  144.6440 N   0  0  0  0  0  2  0  0  0  0  0  0
  161.8630  204.8950  146.4540 C   0  0  0  0  0  0  0  0  0  0  0  0
  162.4690  204.8310  147.5090 O   0  0  0  0  0  0  0  0  0  0  0  0
  160.4990  205.8030  144.8310 C   0  0  0  0  0  2  0  0  0  0  0  0
  161.7480  210.6500  150.0080 C   0  0  0  0  0  2  0  0  0  0  0  0
  162.2650  211.2390  148.8730 N   0  0  0  0  0  2  0  0  0  0  0  0
  161.4990  212.3510  148.6000 C   0  0  0  0  0  0  0  0  0  0  0  0
  160.7590  212.9240  149.5130 O   0  0  0  0  0  0  0  0  0  0  0  0
  161.3110  212.5140  147.2620 C   0  0  0  0  0  2  0  0  0  0  0  0
  162.8700  214.3030  147.6710 O   0  0  0  0  0  0  0  0  0  0  0  0
  162.0290  213.7330  146.9350 C   0  0  0  0  0  0  0  0  0  0  0  0
  161.8250  213.1800  144.6010 C   0  0  0  0  0  2  0  0  0  0  0  0
  161.9260  214.0230  145.5210 N   0  0  0  0  0  0  0  0  0  0  0  0
  160.7760  209.5140  152.6870 O   0  0  0  0  0  0  0  0  0  0  0  0
  161.0800  208.6710  154.8770 C   0  0  0  0  0  0  0  0  0  0  0  0
  160.9240  206.9220  154.5480 Cl  0  0  0  0  0  0  0  0  0  0  0  0
  161.0980  210.9300  154.7880 C   0  0  0  0  0  3  0  0  0  0  0  0
  161.4670  209.2690  156.1700 C   0  0  0  0  0  0  0  0  0  0  0  0
  161.6700  208.7620  157.2560 O   0  0  0  0  0  0  0  0  0  0  0  0
  160.9310  209.6740  154.0710 C   0  0  0  0  0  0  0  0  0  0  0  0
  161.4280  210.7120  155.9640 N   0  0  0  0  0  0  0  0  0  0  0  0
  1 22  1  6  0  0  0
  1  2  1  0  0  0  0
  1  3  1  0  0  0  0
  2  4  1  1  0  0  0
  2  3  1  0  0  0  0
  3 31  1  6  0  0  0
  6  5  1  1  0  0  0
  6  4  1  0  0  0  0
  6  7  1  0  0  0  0
  8  7  1  0  0  0  0
  9  8  1  0  0  0  0
 10  9  1  0  0  0  0
 11 10  1  0  0  0  0
 12 11  1  0  0  0  0
 13 12  1  0  0  0  0
 15 14  1  6  0  0  0
 15 13  1  0  0  0  0
 16 19  1  0  0  0  0
 17 15  1  1  0  0  0
 17 19  1  0  0  0  0
 18 21  1  0  0  0  0
 18 17  1  0  0  0  0
 19 20  2  0  0  0  0
 21 16  1  0  0  0  0
 23 22  1  0  0  0  0
 24 23  1  0  0  0  0
 24 25  2  0  0  0  0
 26 24  1  0  0  0  0
 28 26  1  0  0  0  0
 28 27  2  0  0  0  0
 29 30  2  0  0  0  0
 30 28  1  0  0  0  0
 31 37  1  0  0  0  0
 32 35  1  0  0  0  0
 33 32  1  0  0  0  0
 34 38  2  0  0  0  0
 35 36  2  0  0  0  0
 37 34  1  0  0  0  0
 37 32  2  0  0  0  0
 38 35  1  0  0  0  0
M  END
>  <MODEL>
1

>  <REMARK>
 VINA RESULT:      -7.0      0.000      0.000
  Name = 
  18 active torsions:
  status: ('A' for Active; 'I' for Inactive)
    1  A    between atoms: N_2  and  C_26
    2  A    between atoms: C_5  and  C_15
    3  A    between atoms: C_7  and  C_13
    4  A    between atoms: C_7  and  C_37
    5  A    between atoms: C_8  and  O_21
    6  A    between atoms: C_8  and  C_37
    7  A    between atoms: C_10  and  C_26
    8  A    between atoms: C_13  and  N_38
    9  A    between atoms: C_15  and  N_38
   10  A    between atoms: C_17  and  O_21
   11  A    between atoms: C_17  and  C_29
   12  A    between atoms: C_19  and  C_33
   13  A    between atoms: C_22  and  C_25
   14  A    between atoms: N_24  and  C_31
   15  A    between atoms: C_25  and  C_29
   16  A    between atoms: O_27  and  C_30
   17  A    between atoms: O_27  and  C_34
   18  A    between atoms: C_31  and  C_33
                            x       y       z     vdW  Elec       q    Type
                         _______ _______ _______ _____ _____    ______ ____

>  <TORSDO>
F 18

$$$$
=
 OpenBabel11052409383D

 38 40  0  0  1  0  0  0  0  0999 V2000
  161.2160  208.2380  149.2880 C   0  0  2  0  0  3  0  0  0  0  0  0
  161.9900  206.9490  149.7850 C   0  0  2  0  0  3  0  0  0  0  0  0
  161.3520  207.0580  148.3230 C   0  0  2  0  0  3  0  0  0  0  0  0
  161.1120  206.0750  150.7580 C   0  0  0  0  0  2  0  0  0  0  0  0
  161.1830  203.6640  151.7030 O   0  0  0  0  0  1  0  0  0  0  0  0
  161.5730  205.0390  151.8550 C   0  0  2  0  0  3  0  0  0  0  0  0
  161.6700  205.6120  153.2860 C   0  0  0  0  0  2  0  0  0  0  0  0
  160.7620  206.6480  153.5090 O   0  0  0  0  0  0  0  0  0  0  0  0
  160.8800  207.4970  154.6910 C   0  0  0  0  0  2  0  0  0  0  0  0
  160.0820  207.0800  155.9710 C   0  0  0  0  0  2  0  0  0  0  0  0
  159.7900  208.4750  156.3170 C   0  0  0  0  0  2  0  0  0  0  0  0
  160.9690  209.2100  156.7210 C   0  0  0  0  0  2  0  0  0  0  0  0
  160.4100  210.5220  156.7430 N   0  0  0  0  0  2  0  0  0  0  0  0
  162.5540  210.6530  156.1080 C   0  0  0  0  0  1  0  0  0  0  0  0
  161.2240  211.3080  155.9170 C   0  0  1  0  0  3  0  0  0  0  0  0
  159.3430  210.6810  152.7080 O   0  0  0  0  0  0  0  0  0  0  0  0
  160.6920  211.4780  154.4410 C   0  0  1  0  0  3  0  0  0  0  0  0
  161.5150  210.7310  153.5240 N   0  0  0  0  0  2  0  0  0  0  0  0
  159.2830  211.2650  153.9780 C   0  0  0  0  0  0  0  0  0  0  0  0
  158.2410  211.4700  154.5760 O   0  0  0  0  0  0  0  0  0  0  0  0
  160.6730  210.4050  152.3520 C   0  0  0  0  0  2  0  0  0  0  0  0
  162.0610  209.1510  148.5550 C   0  0  0  0  0  2  0  0  0  0  0  0
  162.3220  210.3410  149.2000 N   0  0  0  0  0  2  0  0  0  0  0  0
  161.9300  211.3600  148.3590 C   0  0  0  0  0  0  0  0  0  0  0  0
  161.0810  211.1660  147.3850 O   0  0  0  0  0  0  0  0  0  0  0  0
  162.7880  212.4150  148.4170 C   0  0  0  0  0  2  0  0  0  0  0  0
  161.1260  213.9760  149.1900 O   0  0  0  0  0  0  0  0  0  0  0  0
  161.9380  213.5870  148.3160 C   0  0  0  0  0  0  0  0  0  0  0  0
  162.3620  214.1870  146.0240 C   0  0  0  0  0  2  0  0  0  0  0  0
  162.3860  214.4530  147.2470 N   0  0  0  0  0  0  0  0  0  0  0  0
  162.4300  206.2080  147.7680 O   0  0  0  0  0  0  0  0  0  0  0  0
  161.6100  204.1780  146.8680 C   0  0  0  0  0  0  0  0  0  0  0  0
  161.3590  203.2620  148.3810 Cl  0  0  0  0  0  0  0  0  0  0  0  0
  162.1830  205.6820  145.2800 C   0  0  0  0  0  3  0  0  0  0  0  0
  161.2080  203.7340  145.5200 C   0  0  0  0  0  0  0  0  0  0  0  0
  160.7290  202.6850  145.1340 O   0  0  0  0  0  0  0  0  0  0  0  0
  162.1240  205.3550  146.6970 C   0  0  0  0  0  0  0  0  0  0  0  0
  161.6430  204.7870  144.6110 N   0  0  0  0  0  0  0  0  0  0  0  0
  1 22  1  6  0  0  0
  1  2  1  0  0  0  0
  2  4  1  1  0  0  0
  3 31  1  6  0  0  0
  3  1  1  0  0  0  0
  3  2  1  0  0  0  0
  4  6  1  0  0  0  0
  6  5  1  1  0  0  0
  6  7  1  0  0  0  0
  7  8  1  0  0  0  0
  8  9  1  0  0  0  0
  9 10  1  0  0  0  0
 10 11  1  0  0  0  0
 11 12  1  0  0  0  0
 12 13  1  0  0  0  0
 15 14  1  6  0  0  0
 15 13  1  0  0  0  0
 16 19  1  0  0  0  0
 17 15  1  1  0  0  0
 18 17  1  0  0  0  0
 19 17  1  0  0  0  0
 19 20  2  0  0  0  0
 21 16  1  0  0  0  0
 21 18  1  0  0  0  0
 22 23  1  0  0  0  0
 24 26  1  0  0  0  0
 24 23  1  0  0  0  0
 25 24  2  0  0  0  0
 28 26  1  0  0  0  0
 28 27  2  0  0  0  0
 29 30  2  0  0  0  0
 30 28  1  0  0  0  0
 32 33  1  0  0  0  0
 34 37  1  0  0  0  0
 35 32  1  0  0  0  0
 36 35  2  0  0  0  0
 37 32  2  0  0  0  0
 37 31  1  0  0  0  0
 38 34  2  0  0  0  0
 38 35  1  0  0  0  0
M  END
>  <MODEL>
2

>  <REMARK>
 VINA RESULT:      -6.8      2.349      8.117
  Name = 
  18 active torsions:
  status: ('A' for Active; 'I' for Inactive)
    1  A    between atoms: N_2  and  C_26
    2  A    between atoms: C_5  and  C_15
    3  A    between atoms: C_7  and  C_13
    4  A    between atoms: C_7  and  C_37
    5  A    between atoms: C_8  and  O_21
    6  A    between atoms: C_8  and  C_37
    7  A    between atoms: C_10  and  C_26
    8  A    between atoms: C_13  and  N_38
    9  A    between atoms: C_15  and  N_38
   10  A    between atoms: C_17  and  O_21
   11  A    between atoms: C_17  and  C_29
   12  A    between atoms: C_19  and  C_33
   13  A    between atoms: C_22  and  C_25
   14  A    between atoms: N_24  and  C_31
   15  A    between atoms: C_25  and  C_29
   16  A    between atoms: O_27  and  C_30
   17  A    between atoms: O_27  and  C_34
   18  A    between atoms: C_31  and  C_33
                            x       y       z     vdW  Elec       q    Type
                         _______ _______ _______ _____ _____    ______ ____

>  <TORSDO>
F 18

$$$$
=
 OpenBabel11052409383D

 38 40  0  0  1  0  0  0  0  0999 V2000
  161.5830  208.1310  148.2250 C   0  0  2  0  0  3  0  0  0  0  0  0
  162.4230  209.1090  149.1440 C   0  0  2  0  0  3  0  0  0  0  0  0
  161.3780  208.0560  149.7410 C   0  0  2  0  0  3  0  0  0  0  0  0
  161.8480  210.5750  149.1220 C   0  0  0  0  0  2  0  0  0  0  0  0
  163.0980  212.6700  148.2480 O   0  0  0  0  0  1  0  0  0  0  0  0
  162.0500  211.7080  148.0420 C   0  0  2  0  0  3  0  0  0  0  0  0
  160.7520  212.1850  147.3550 C   0  0  0  0  0  2  0  0  0  0  0  0
  160.9250  213.3790  146.6540 O   0  0  0  0  0  0  0  0  0  0  0  0
  160.4540  213.5070  145.2780 C   0  0  0  0  0  2  0  0  0  0  0  0
  161.2740  212.7870  144.1560 C   0  0  0  0  0  2  0  0  0  0  0  0
  160.0920  212.0700  143.6680 C   0  0  0  0  0  2  0  0  0  0  0  0
  159.9250  212.1770  142.2350 C   0  0  0  0  0  2  0  0  0  0  0  0
  161.0690  211.4290  141.8270 N   0  0  0  0  0  2  0  0  0  0  0  0
  162.5580  212.5460  140.5810 C   0  0  0  0  0  1  0  0  0  0  0  0
  161.2920  211.7570  140.4830 C   0  0  1  0  0  3  0  0  0  0  0  0
  160.3210  208.4770  138.8950 O   0  0  0  0  0  0  0  0  0  0  0  0
  161.2640  210.5270  139.4940 C   0  0  1  0  0  3  0  0  0  0  0  0
  162.1110  209.4700  139.9870 N   0  0  0  0  0  2  0  0  0  0  0  0
  160.0400  209.8450  138.9630 C   0  0  0  0  0  0  0  0  0  0  0  0
  158.9530  210.3240  138.6950 O   0  0  0  0  0  0  0  0  0  0  0  0
  161.5890  208.2020  139.4320 C   0  0  0  0  0  2  0  0  0  0  0  0
  162.1990  206.8340  148.0760 C   0  0  0  0  0  2  0  0  0  0  0  0
  161.9470  206.2090  146.8730 N   0  0  0  0  0  2  0  0  0  0  0  0
  161.7210  204.8770  147.1410 C   0  0  0  0  0  0  0  0  0  0  0  0
  161.3760  204.4580  148.3300 O   0  0  0  0  0  0  0  0  0  0  0  0
  162.2600  204.0750  146.1830 C   0  0  0  0  0  2  0  0  0  0  0  0
  160.6080  204.2260  144.4380 O   0  0  0  0  0  0  0  0  0  0  0  0
  161.1250  203.6150  145.4040 C   0  0  0  0  0  0  0  0  0  0  0  0
  160.0260  201.5010  145.0580 C   0  0  0  0  0  2  0  0  0  0  0  0
  160.8760  202.2090  145.6440 N   0  0  0  0  0  0  0  0  0  0  0  0
  162.2060  207.8920  150.9570 O   0  0  0  0  0  0  0  0  0  0  0  0
  161.2740  206.9230  152.9050 C   0  0  0  0  0  0  0  0  0  0  0  0
  161.3420  205.1990  152.4420 Cl  0  0  0  0  0  0  0  0  0  0  0  0
  161.3160  209.1830  152.9730 C   0  0  0  0  0  3  0  0  0  0  0  0
  160.8880  207.4410  154.2320 C   0  0  0  0  0  0  0  0  0  0  0  0
  160.4700  206.8700  155.2210 O   0  0  0  0  0  0  0  0  0  0  0  0
  161.5790  207.9730  152.2090 C   0  0  0  0  0  0  0  0  0  0  0  0
  160.9530  208.8930  154.1240 N   0  0  0  0  0  0  0  0  0  0  0  0
  1 22  1  1  0  0  0
  1  2  1  0  0  0  0
  1  3  1  0  0  0  0
  2  4  1  6  0  0  0
  2  3  1  0  0  0  0
  3 31  1  1  0  0  0
  6  5  1  1  0  0  0
  6  4  1  0  0  0  0
  7  6  1  0  0  0  0
  8  7  1  0  0  0  0
  9  8  1  0  0  0  0
 10  9  1  0  0  0  0
 11 10  1  0  0  0  0
 12 11  1  0  0  0  0
 13 12  1  0  0  0  0
 15 14  1  1  0  0  0
 15 13  1  0  0  0  0
 16 19  1  0  0  0  0
 16 21  1  0  0  0  0
 17 18  1  0  0  0  0
 17 15  1  1  0  0  0
 19 17  1  0  0  0  0
 20 19  2  0  0  0  0
 21 18  1  0  0  0  0
 23 24  1  0  0  0  0
 23 22  1  0  0  0  0
 24 25  2  0  0  0  0
 26 24  1  0  0  0  0
 27 28  2  0  0  0  0
 28 30  1  0  0  0  0
 28 26  1  0  0  0  0
 29 30  2  0  0  0  0
 31 37  1  0  0  0  0
 32 35  1  0  0  0  0
 33 32  1  0  0  0  0
 34 38  2  0  0  0  0
 35 36  2  0  0  0  0
 37 32  2  0  0  0  0
 37 34  1  0  0  0  0
 38 35  1  0  0  0  0
M  END
>  <MODEL>
3

>  <REMARK>
 VINA RESULT:      -6.5      3.502      8.258
  Name = 
  18 active torsions:
  status: ('A' for Active; 'I' for Inactive)
    1  A    between atoms: N_2  and  C_26
    2  A    between atoms: C_5  and  C_15
    3  A    between atoms: C_7  and  C_13
    4  A    between atoms: C_7  and  C_37
    5  A    between atoms: C_8  and  O_21
    6  A    between atoms: C_8  and  C_37
    7  A    between atoms: C_10  and  C_26
    8  A    between atoms: C_13  and  N_38
    9  A    between atoms: C_15  and  N_38
   10  A    between atoms: C_17  and  O_21
   11  A    between atoms: C_17  and  C_29
   12  A    between atoms: C_19  and  C_33
   13  A    between atoms: C_22  and  C_25
   14  A    between atoms: N_24  and  C_31
   15  A    between atoms: C_25  and  C_29
   16  A    between atoms: O_27  and  C_30
   17  A    between atoms: O_27  and  C_34
   18  A    between atoms: C_31  and  C_33
                            x       y       z     vdW  Elec       q    Type
                         _______ _______ _______ _____ _____    ______ ____

>  <TORSDO>
F 18

$$$$
=
 OpenBabel11052409383D

 38 40  0  0  1  0  0  0  0  0999 V2000
  161.2430  208.1180  149.3610 C   0  0  2  0  0  3  0  0  0  0  0  0
  162.0260  206.7990  149.7560 C   0  0  2  0  0  3  0  0  0  0  0  0
  161.3720  207.0110  148.3120 C   0  0  2  0  0  3  0  0  0  0  0  0
  161.1600  205.8540  150.6710 C   0  0  0  0  0  2  0  0  0  0  0  0
  161.5840  203.4880  151.6370 O   0  0  0  0  0  1  0  0  0  0  0  0
  161.6240  204.9090  151.8470 C   0  0  2  0  0  3  0  0  0  0  0  0
  161.3210  205.4430  153.2640 C   0  0  0  0  0  2  0  0  0  0  0  0
  161.0340  206.8080  153.2700 O   0  0  0  0  0  0  0  0  0  0  0  0
  160.8500  207.5220  154.5310 C   0  0  0  0  0  2  0  0  0  0  0  0
  161.0480  209.0740  154.5260 C   0  0  0  0  0  2  0  0  0  0  0  0
  160.6980  209.1750  153.1040 C   0  0  0  0  0  2  0  0  0  0  0  0
  160.2680  210.5040  152.7280 C   0  0  0  0  0  2  0  0  0  0  0  0
  160.0280  211.0320  154.0310 N   0  0  0  0  0  2  0  0  0  0  0  0
  159.4910  212.4170  152.3550 C   0  0  0  0  0  1  0  0  0  0  0  0
  159.5960  212.3510  153.8440 C   0  0  1  0  0  3  0  0  0  0  0  0
  156.5150  212.0750  156.0030 O   0  0  0  0  0  0  0  0  0  0  0  0
  158.3250  212.7520  154.6910 C   0  0  1  0  0  3  0  0  0  0  0  0
  157.1440  212.7210  153.8650 N   0  0  0  0  0  2  0  0  0  0  0  0
  157.9120  212.1570  156.0030 C   0  0  0  0  0  0  0  0  0  0  0  0
  158.6110  211.7340  156.9060 O   0  0  0  0  0  0  0  0  0  0  0  0
  155.9940  212.4740  154.7620 C   0  0  0  0  0  2  0  0  0  0  0  0
  162.0780  209.0840  148.6870 C   0  0  0  0  0  2  0  0  0  0  0  0
  162.2030  210.2930  149.3370 N   0  0  0  0  0  2  0  0  0  0  0  0
  161.8630  211.2810  148.4390 C   0  0  0  0  0  0  0  0  0  0  0  0
  161.1450  211.0330  147.3760 O   0  0  0  0  0  0  0  0  0  0  0  0
  162.6550  212.3790  148.5780 C   0  0  0  0  0  2  0  0  0  0  0  0
  161.7550  214.0290  147.0730 O   0  0  0  0  0  0  0  0  0  0  0  0
  161.8050  213.4960  148.2080 C   0  0  0  0  0  0  0  0  0  0  0  0
  159.6070  214.1060  148.9740 C   0  0  0  0  0  2  0  0  0  0  0  0
  160.7700  213.7020  149.1980 N   0  0  0  0  0  0  0  0  0  0  0  0
  162.4460  206.2070  147.6850 O   0  0  0  0  0  0  0  0  0  0  0  0
  161.6040  204.1850  146.7880 C   0  0  0  0  0  0  0  0  0  0  0  0
  161.3950  203.2540  148.2980 Cl  0  0  0  0  0  0  0  0  0  0  0  0
  162.1330  205.7060  145.2000 C   0  0  0  0  0  3  0  0  0  0  0  0
  161.1660  203.7540  145.4460 C   0  0  0  0  0  0  0  0  0  0  0  0
  160.6780  202.7080  145.0630 O   0  0  0  0  0  0  0  0  0  0  0  0
  162.1130  205.3640  146.6150 C   0  0  0  0  0  0  0  0  0  0  0  0
  161.5760  204.8170  144.5370 N   0  0  0  0  0  0  0  0  0  0  0  0
  1 22  1  6  0  0  0
  1  2  1  0  0  0  0
  2  4  1  1  0  0  0
  3 31  1  6  0  0  0
  3  1  1  0  0  0  0
  3  2  1  0  0  0  0
  4  6  1  0  0  0  0
  6  5  1  6  0  0  0
  6  7  1  0  0  0  0
  7  8  1  0  0  0  0
  8  9  1  0  0  0  0
 10  9  1  0  0  0  0
 11 10  1  0  0  0  0
 12 11  1  0  0  0  0
 12 13  1  0  0  0  0
 15 14  1  6  0  0  0
 15 13  1  0  0  0  0
 16 19  1  0  0  0  0
 17 15  1  6  0  0  0
 17 19  1  0  0  0  0
 18 17  1  0  0  0  0
 18 21  1  0  0  0  0
 19 20  2  0  0  0  0
 21 16  1  0  0  0  0
 22 23  1  0  0  0  0
 24 26  1  0  0  0  0
 24 23  1  0  0  0  0
 25 24  2  0  0  0  0
 27 28  2  0  0  0  0
 28 26  1  0  0  0  0
 28 30  1  0  0  0  0
 29 30  2  0  0  0  0
 32 33  1  0  0  0  0
 34 37  1  0  0  0  0
 35 32  1  0  0  0  0
 36 35  2  0  0  0  0
 37 32  2  0  0  0  0
 37 31  1  0  0  0  0
 38 34  2  0  0  0  0
 38 35  1  0  0  0  0
M  END
>  <MODEL>
4

>  <REMARK>
 VINA RESULT:      -6.5      2.765      8.514
  Name = 
  18 active torsions:
  status: ('A' for Active; 'I' for Inactive)
    1  A    between atoms: N_2  and  C_26
    2  A    between atoms: C_5  and  C_15
    3  A    between atoms: C_7  and  C_13
    4  A    between atoms: C_7  and  C_37
    5  A    between atoms: C_8  and  O_21
    6  A    between atoms: C_8  and  C_37
    7  A    between atoms: C_10  and  C_26
    8  A    between atoms: C_13  and  N_38
    9  A    between atoms: C_15  and  N_38
   10  A    between atoms: C_17  and  O_21
   11  A    between atoms: C_17  and  C_29
   12  A    between atoms: C_19  and  C_33
   13  A    between atoms: C_22  and  C_25
   14  A    between atoms: N_24  and  C_31
   15  A    between atoms: C_25  and  C_29
   16  A    between atoms: O_27  and  C_30
   17  A    between atoms: O_27  and  C_34
   18  A    between atoms: C_31  and  C_33
                            x       y       z     vdW  Elec       q    Type
                         _______ _______ _______ _____ _____    ______ ____

>  <TORSDO>
F 18

$$$$
=
 OpenBabel11052409383D

 38 40  0  0  1  0  0  0  0  0999 V2000
  161.6300  208.2690  148.3160 C   0  0  2  0  0  3  0  0  0  0  0  0
  162.4750  209.3450  149.1140 C   0  0  2  0  0  3  0  0  0  0  0  0
  161.4940  208.3120  149.8410 C   0  0  2  0  0  3  0  0  0  0  0  0
  161.8490  210.7860  149.0000 C   0  0  0  0  0  2  0  0  0  0  0  0
  163.1450  212.7650  147.9430 O   0  0  0  0  0  1  0  0  0  0  0  0
  162.0290  211.8630  147.8610 C   0  0  2  0  0  3  0  0  0  0  0  0
  160.7100  212.3920  147.2570 C   0  0  0  0  0  2  0  0  0  0  0  0
  160.7070  212.3530  145.8620 O   0  0  0  0  0  0  0  0  0  0  0  0
  161.1760  213.4990  145.0880 C   0  0  0  0  0  2  0  0  0  0  0  0
  162.4240  213.2940  144.1660 C   0  0  0  0  0  2  0  0  0  0  0  0
  161.6880  212.4000  143.2660 C   0  0  0  0  0  2  0  0  0  0  0  0
  162.2260  212.3920  141.9230 C   0  0  0  0  0  2  0  0  0  0  0  0
  161.4680  211.3070  141.3920 N   0  0  0  0  0  2  0  0  0  0  0  0
  162.4340  212.5750  139.8190 C   0  0  0  0  0  1  0  0  0  0  0  0
  161.3890  211.5250  140.0100 C   0  0  1  0  0  3  0  0  0  0  0  0
  160.4720  208.2680  138.3430 O   0  0  0  0  0  0  0  0  0  0  0  0
  161.4890  210.2170  139.1320 C   0  0  1  0  0  3  0  0  0  0  0  0
  161.9340  209.1080  139.9380 N   0  0  0  0  0  2  0  0  0  0  0  0
  160.4180  209.6620  138.2440 C   0  0  0  0  0  0  0  0  0  0  0  0
  159.5780  210.2590  137.5940 O   0  0  0  0  0  0  0  0  0  0  0  0
  161.4230  207.8750  139.2990 C   0  0  0  0  0  2  0  0  0  0  0  0
  162.2840  206.9840  148.2450 C   0  0  0  0  0  2  0  0  0  0  0  0
  162.2150  206.3690  147.0120 N   0  0  0  0  0  2  0  0  0  0  0  0
  161.6380  205.1320  147.2010 C   0  0  0  0  0  0  0  0  0  0  0  0
  160.9160  204.8590  148.2550 O   0  0  0  0  0  0  0  0  0  0  0  0
  162.2120  204.1860  146.4100 C   0  0  0  0  0  2  0  0  0  0  0  0
  160.7340  204.5480  144.5440 O   0  0  0  0  0  0  0  0  0  0  0  0
  161.1750  203.8170  145.4640 C   0  0  0  0  0  0  0  0  0  0  0  0
  160.7630  201.6820  146.4960 C   0  0  0  0  0  2  0  0  0  0  0  0
  160.9540  202.3870  145.4790 N   0  0  0  0  0  0  0  0  0  0  0  0
  162.3790  208.2740  151.0270 O   0  0  0  0  0  0  0  0  0  0  0  0
  161.3000  208.0410  153.1200 C   0  0  0  0  0  0  0  0  0  0  0  0
  160.9050  209.7540  153.4450 Cl  0  0  0  0  0  0  0  0  0  0  0  0
  162.0940  206.0850  152.3110 C   0  0  0  0  0  3  0  0  0  0  0  0
  160.8570  206.8910  153.9320 C   0  0  0  0  0  0  0  0  0  0  0  0
  160.2430  206.8410  154.9800 O   0  0  0  0  0  0  0  0  0  0  0  0
  161.9730  207.5250  152.1410 C   0  0  0  0  0  0  0  0  0  0  0  0
  161.4450  205.7140  153.3020 N   0  0  0  0  0  0  0  0  0  0  0  0
  1 22  1  1  0  0  0
  1  2  1  0  0  0  0
  1  3  1  0  0  0  0
  2  4  1  6  0  0  0
  2  3  1  0  0  0  0
  3 31  1  1  0  0  0
  6  5  1  1  0  0  0
  6  4  1  0  0  0  0
  7  6  1  0  0  0  0
  8  7  1  0  0  0  0
  9  8  1  0  0  0  0
 10  9  1  0  0  0  0
 11 10  1  0  0  0  0
 12 11  1  0  0  0  0
 13 12  1  0  0  0  0
 15 14  1  6  0  0  0
 15 13  1  0  0  0  0
 16 21  1  0  0  0  0
 17 18  1  0  0  0  0
 17 15  1  1  0  0  0
 19 16  1  0  0  0  0
 19 17  1  0  0  0  0
 20 19  2  0  0  0  0
 21 18  1  0  0  0  0
 23 24  1  0  0  0  0
 23 22  1  0  0  0  0
 24 25  2  0  0  0  0
 26 24  1  0  0  0  0
 27 28  2  0  0  0  0
 28 30  1  0  0  0  0
 28 26  1  0  0  0  0
 30 29  2  0  0  0  0
 31 37  1  0  0  0  0
 32 33  1  0  0  0  0
 32 35  1  0  0  0  0
 34 38  2  0  0  0  0
 35 36  2  0  0  0  0
 37 34  1  0  0  0  0
 37 32  2  0  0  0  0
 38 35  1  0  0  0  0
M  END
>  <MODEL>
5

>  <REMARK>
 VINA RESULT:      -6.4      3.783      8.404
  Name = 
  18 active torsions:
  status: ('A' for Active; 'I' for Inactive)
    1  A    between atoms: N_2  and  C_26
    2  A    between atoms: C_5  and  C_15
    3  A    between atoms: C_7  and  C_13
    4  A    between atoms: C_7  and  C_37
    5  A    between atoms: C_8  and  O_21
    6  A    between atoms: C_8  and  C_37
    7  A    between atoms: C_10  and  C_26
    8  A    between atoms: C_13  and  N_38
    9  A    between atoms: C_15  and  N_38
   10  A    between atoms: C_17  and  O_21
   11  A    between atoms: C_17  and  C_29
   12  A    between atoms: C_19  and  C_33
   13  A    between atoms: C_22  and  C_25
   14  A    between atoms: N_24  and  C_31
   15  A    between atoms: C_25  and  C_29
   16  A    between atoms: O_27  and  C_30
   17  A    between atoms: O_27  and  C_34
   18  A    between atoms: C_31  and  C_33
                            x       y       z     vdW  Elec       q    Type
                         _______ _______ _______ _____ _____    ______ ____

>  <TORSDO>
F 18

$$$$
=
 OpenBabel11052409383D

 38 40  0  0  1  0  0  0  0  0999 V2000
  162.0820  210.0700  152.2650 C   0  0  2  0  0  3  0  0  0  0  0  0
  160.8460  209.4420  153.0310 C   0  0  2  0  0  3  0  0  0  0  0  0
  160.8650  210.9610  152.5300 C   0  0  2  0  0  3  0  0  0  0  0  0
  161.1140  209.3190  154.5780 C   0  0  0  0  0  2  0  0  0  0  0  0
  160.0700  209.1210  156.9410 O   0  0  0  0  0  1  0  0  0  0  0  0
  160.3120  208.5040  155.6660 C   0  0  2  0  0  3  0  0  0  0  0  0
  160.5430  206.9770  155.6300 C   0  0  0  0  0  2  0  0  0  0  0  0
  160.5350  206.4660  154.3320 O   0  0  0  0  0  0  0  0  0  0  0  0
  161.7750  206.0260  153.6990 C   0  0  0  0  0  2  0  0  0  0  0  0
  161.8070  205.9390  152.1370 C   0  0  0  0  0  2  0  0  0  0  0  0
  160.8790  204.8040  152.1210 C   0  0  0  0  0  2  0  0  0  0  0  0
  161.3880  203.6760  151.3720 C   0  0  0  0  0  2  0  0  0  0  0  0
  160.4680  203.7060  150.2820 N   0  0  0  0  0  2  0  0  0  0  0  0
  160.7650  202.0790  148.7710 C   0  0  0  0  0  1  0  0  0  0  0  0
  161.2220  203.4570  149.1280 C   0  0  1  0  0  3  0  0  0  0  0  0
  162.1460  205.7790  146.3020 O   0  0  0  0  0  0  0  0  0  0  0  0
  161.1170  204.5770  148.0210 C   0  0  1  0  0  3  0  0  0  0  0  0
  161.5620  205.8430  148.5470 N   0  0  0  0  0  2  0  0  0  0  0  0
  161.6720  204.5040  146.6310 C   0  0  0  0  0  0  0  0  0  0  0  0
  161.7890  203.5340  145.9040 O   0  0  0  0  0  0  0  0  0  0  0  0
  162.0350  206.6480  147.4000 C   0  0  0  0  0  2  0  0  0  0  0  0
  161.9380  210.0150  150.8300 C   0  0  0  0  0  2  0  0  0  0  0  0
  161.7280  211.2350  150.2230 N   0  0  0  0  0  2  0  0  0  0  0  0
  162.0260  211.0870  148.8860 C   0  0  0  0  0  0  0  0  0  0  0  0
  162.0460  209.9160  148.3060 O   0  0  0  0  0  0  0  0  0  0  0  0
  162.6480  212.1890  148.3870 C   0  0  0  0  0  2  0  0  0  0  0  0
  160.9740  213.9200  148.3820 O   0  0  0  0  0  0  0  0  0  0  0  0
  161.5810  212.9840  147.8070 C   0  0  0  0  0  0  0  0  0  0  0  0
  160.5000  212.7350  145.6710 C   0  0  0  0  0  2  0  0  0  0  0  0
  161.5350  212.8090  146.3710 N   0  0  0  0  0  0  0  0  0  0  0  0
  159.4030  210.9250  152.3000 O   0  0  0  0  0  0  0  0  0  0  0  0
  158.1240  212.3470  153.6930 C   0  0  0  0  0  0  0  0  0  0  0  0
  157.9810  211.3020  155.1350 Cl  0  0  0  0  0  0  0  0  0  0  0  0
  158.4980  213.2210  151.6410 C   0  0  0  0  0  3  0  0  0  0  0  0
  157.6740  213.7500  153.6020 C   0  0  0  0  0  0  0  0  0  0  0  0
  157.0660  214.4470  154.3920 O   0  0  0  0  0  0  0  0  0  0  0  0
  158.6590  212.0890  152.5420 C   0  0  0  0  0  0  0  0  0  0  0  0
  157.9680  214.1720  152.2380 N   0  0  0  0  0  0  0  0  0  0  0  0
  1 22  1  6  0  0  0
  1  3  1  0  0  0  0
  1  2  1  0  0  0  0
  2  4  1  1  0  0  0
  3 31  1  6  0  0  0
  3  2  1  0  0  0  0
  4  6  1  0  0  0  0
  6  5  1  1  0  0  0
  7  6  1  0  0  0  0
  8  7  1  0  0  0  0
  9  8  1  0  0  0  0
 10  9  1  0  0  0  0
 11 10  1  0  0  0  0
 12 11  1  0  0  0  0
 13 12  1  0  0  0  0
 15 14  1  6  0  0  0
 15 13  1  0  0  0  0
 16 19  1  0  0  0  0
 16 21  1  0  0  0  0
 17 18  1  0  0  0  0
 17 15  1  1  0  0  0
 19 17  1  0  0  0  0
 20 19  2  0  0  0  0
 21 18  1  0  0  0  0
 23 22  1  0  0  0  0
 24 23  1  0  0  0  0
 25 24  2  0  0  0  0
 26 24  1  0  0  0  0
 28 27  2  0  0  0  0
 28 26  1  0  0  0  0
 29 30  2  0  0  0  0
 30 28  1  0  0  0  0
 31 37  1  0  0  0  0
 32 33  1  0  0  0  0
 34 38  2  0  0  0  0
 34 37  1  0  0  0  0
 35 32  1  0  0  0  0
 35 36  2  0  0  0  0
 37 32  2  0  0  0  0
 38 35  1  0  0  0  0
M  END
>  <MODEL>
6

>  <REMARK>
 VINA RESULT:      -6.4      2.721      4.009
  Name = 
  18 active torsions:
  status: ('A' for Active; 'I' for Inactive)
    1  A    between atoms: N_2  and  C_26
    2  A    between atoms: C_5  and  C_15
    3  A    between atoms: C_7  and  C_13
    4  A    between atoms: C_7  and  C_37
    5  A    between atoms: C_8  and  O_21
    6  A    between atoms: C_8  and  C_37
    7  A    between atoms: C_10  and  C_26
    8  A    between atoms: C_13  and  N_38
    9  A    between atoms: C_15  and  N_38
   10  A    between atoms: C_17  and  O_21
   11  A    between atoms: C_17  and  C_29
   12  A    between atoms: C_19  and  C_33
   13  A    between atoms: C_22  and  C_25
   14  A    between atoms: N_24  and  C_31
   15  A    between atoms: C_25  and  C_29
   16  A    between atoms: O_27  and  C_30
   17  A    between atoms: O_27  and  C_34
   18  A    between atoms: C_31  and  C_33
                            x       y       z     vdW  Elec       q    Type
                         _______ _______ _______ _____ _____    ______ ____

>  <TORSDO>
F 18

$$$$
=
 OpenBabel11052409383D

 38 40  0  0  1  0  0  0  0  0999 V2000
  162.3480  208.6780  150.8530 C   0  0  2  0  0  3  0  0  0  0  0  0
  161.5660  209.2070  149.5820 C   0  0  2  0  0  3  0  0  0  0  0  0
  162.3250  207.8000  149.5990 C   0  0  2  0  0  3  0  0  0  0  0  0
  162.3780  210.3150  148.8120 C   0  0  0  0  0  2  0  0  0  0  0  0
  160.9530  212.4020  149.3880 O   0  0  0  0  0  1  0  0  0  0  0  0
  162.1350  211.8740  148.7630 C   0  0  2  0  0  3  0  0  0  0  0  0
  162.6520  212.5690  147.4840 C   0  0  0  0  0  2  0  0  0  0  0  0
  161.6180  212.9510  146.6290 O   0  0  0  0  0  0  0  0  0  0  0  0
  161.8990  213.3200  145.2440 C   0  0  0  0  0  2  0  0  0  0  0  0
  163.3930  213.3210  144.7780 C   0  0  0  0  0  2  0  0  0  0  0  0
  163.0230  213.6130  143.3890 C   0  0  0  0  0  2  0  0  0  0  0  0
  161.9760  212.7440  142.8950 C   0  0  0  0  0  2  0  0  0  0  0  0
  162.4600  212.5560  141.5670 N   0  0  0  0  0  2  0  0  0  0  0  0
  160.5380  211.4170  141.7300 C   0  0  0  0  0  1  0  0  0  0  0  0
  161.8970  211.3550  141.1130 C   0  0  1  0  0  3  0  0  0  0  0  0
  162.4510  212.0220  137.4420 O   0  0  0  0  0  0  0  0  0  0  0  0
  161.9900  211.1350  139.5530 C   0  0  1  0  0  3  0  0  0  0  0  0
  160.7440  211.4940  138.9230 N   0  0  0  0  0  2  0  0  0  0  0  0
  163.0620  211.6580  138.6470 C   0  0  0  0  0  0  0  0  0  0  0  0
  164.2450  211.8300  138.8810 O   0  0  0  0  0  0  0  0  0  0  0  0
  161.0580  211.8740  137.5280 C   0  0  0  0  0  2  0  0  0  0  0  0
  161.5470  207.8060  151.6800 C   0  0  0  0  0  2  0  0  0  0  0  0
  161.2030  208.3310  152.9080 N   0  0  0  0  0  2  0  0  0  0  0  0
  161.2060  207.2940  153.8150 C   0  0  0  0  0  0  0  0  0  0  0  0
  161.8530  206.1800  153.5910 O   0  0  0  0  0  0  0  0  0  0  0  0
  160.1940  207.4130  154.7150 C   0  0  0  0  0  2  0  0  0  0  0  0
  161.9560  208.0630  156.2220 O   0  0  0  0  0  0  0  0  0  0  0  0
  160.7700  208.1530  155.8230 C   0  0  0  0  0  0  0  0  0  0  0  0
  159.4330  210.1120  155.4120 C   0  0  0  0  0  2  0  0  0  0  0  0
  159.9190  209.2640  156.1930 N   0  0  0  0  0  0  0  0  0  0  0  0
  161.3200  207.2230  148.6760 O   0  0  0  0  0  0  0  0  0  0  0  0
  161.2040  204.8630  148.7900 C   0  0  0  0  0  0  0  0  0  0  0  0
  160.5980  204.6750  150.4610 Cl  0  0  0  0  0  0  0  0  0  0  0  0
  162.0370  205.6130  146.8270 C   0  0  0  0  0  3  0  0  0  0  0  0
  161.3700  203.7710  147.8110 C   0  0  0  0  0  0  0  0  0  0  0  0
  161.2310  202.5680  147.9230 O   0  0  0  0  0  0  0  0  0  0  0  0
  161.5470  205.9400  148.1580 C   0  0  0  0  0  0  0  0  0  0  0  0
  161.9150  204.3970  146.6120 N   0  0  0  0  0  0  0  0  0  0  0  0
  1 22  1  1  0  0  0
  2  4  1  6  0  0  0
  2  3  1  0  0  0  0
  2  1  1  0  0  0  0
  3 31  1  1  0  0  0
  3  1  1  0  0  0  0
  6  4  1  0  0  0  0
  6  5  1  6  0  0  0
  7  6  1  0  0  0  0
  8  7  1  0  0  0  0
  9  8  1  0  0  0  0
 10  9  1  0  0  0  0
 11 10  1  0  0  0  0
 12 11  1  0  0  0  0
 13 12  1  0  0  0  0
 15 13  1  0  0  0  0
 15 14  1  6  0  0  0
 16 21  1  0  0  0  0
 16 19  1  0  0  0  0
 17 15  1  1  0  0  0
 18 17  1  0  0  0  0
 19 20  2  0  0  0  0
 19 17  1  0  0  0  0
 21 18  1  0  0  0  0
 22 23  1  0  0  0  0
 23 24  1  0  0  0  0
 24 26  1  0  0  0  0
 25 24  2  0  0  0  0
 26 28  1  0  0  0  0
 28 30  1  0  0  0  0
 28 27  2  0  0  0  0
 29 30  2  0  0  0  0
 32 33  1  0  0  0  0
 34 37  1  0  0  0  0
 35 36  2  0  0  0  0
 35 32  1  0  0  0  0
 37 31  1  0  0  0  0
 37 32  2  0  0  0  0
 38 34  2  0  0  0  0
 38 35  1  0  0  0  0
M  END
>  <MODEL>
7

>  <REMARK>
 VINA RESULT:      -6.0      3.755      9.306
  Name = 
  18 active torsions:
  status: ('A' for Active; 'I' for Inactive)
    1  A    between atoms: N_2  and  C_26
    2  A    between atoms: C_5  and  C_15
    3  A    between atoms: C_7  and  C_13
    4  A    between atoms: C_7  and  C_37
    5  A    between atoms: C_8  and  O_21
    6  A    between atoms: C_8  and  C_37
    7  A    between atoms: C_10  and  C_26
    8  A    between atoms: C_13  and  N_38
    9  A    between atoms: C_15  and  N_38
   10  A    between atoms: C_17  and  O_21
   11  A    between atoms: C_17  and  C_29
   12  A    between atoms: C_19  and  C_33
   13  A    between atoms: C_22  and  C_25
   14  A    between atoms: N_24  and  C_31
   15  A    between atoms: C_25  and  C_29
   16  A    between atoms: O_27  and  C_30
   17  A    between atoms: O_27  and  C_34
   18  A    between atoms: C_31  and  C_33
                            x       y       z     vdW  Elec       q    Type
                         _______ _______ _______ _____ _____    ______ ____

>  <TORSDO>
F 18

$$$$
=
 OpenBabel11052409383D

 38 40  0  0  1  0  0  0  0  0999 V2000
  161.0400  208.0180  152.5360 C   0  0  2  0  0  3  0  0  0  0  0  0
  162.3140  208.0080  151.5960 C   0  0  2  0  0  3  0  0  0  0  0  0
  161.1580  209.1040  151.4630 C   0  0  2  0  0  3  0  0  0  0  0  0
  162.2150  206.8960  150.4850 C   0  0  0  0  0  2  0  0  0  0  0  0
  160.0250  205.5700  150.0890 O   0  0  0  0  0  1  0  0  0  0  0  0
  161.4020  205.5430  150.4990 C   0  0  2  0  0  3  0  0  0  0  0  0
  161.8100  204.5550  151.6130 C   0  0  0  0  0  2  0  0  0  0  0  0
  160.7410  203.7720  152.0500 O   0  0  0  0  0  0  0  0  0  0  0  0
  160.3280  202.5920  151.2940 C   0  0  0  0  0  2  0  0  0  0  0  0
  161.3950  201.8990  150.3840 C   0  0  0  0  0  2  0  0  0  0  0  0
  160.4420  201.7450  149.2790 C   0  0  0  0  0  2  0  0  0  0  0  0
  161.0730  201.3060  148.0540 C   0  0  0  0  0  2  0  0  0  0  0  0
  160.2380  201.9910  147.1220 N   0  0  0  0  0  2  0  0  0  0  0  0
  159.9880  201.3440  144.9930 C   0  0  0  0  0  1  0  0  0  0  0  0
  160.9470  202.0250  145.9140 C   0  0  1  0  0  3  0  0  0  0  0  0
  161.5190  205.7540  145.9150 O   0  0  0  0  0  0  0  0  0  0  0  0
  161.4740  203.4550  145.5030 C   0  0  1  0  0  3  0  0  0  0  0  0
  160.5360  204.0990  144.6190 N   0  0  0  0  0  2  0  0  0  0  0  0
  161.9450  204.5280  146.4370 C   0  0  0  0  0  0  0  0  0  0  0  0
  162.5250  204.4150  147.5020 O   0  0  0  0  0  0  0  0  0  0  0  0
  160.7250  205.5570  144.7730 C   0  0  0  0  0  2  0  0  0  0  0  0
  161.1920  208.8930  153.6740 C   0  0  0  0  0  2  0  0  0  0  0  0
  160.0980  209.6890  153.9410 N   0  0  0  0  0  2  0  0  0  0  0  0
  160.4850  210.6230  154.8780 C   0  0  0  0  0  0  0  0  0  0  0  0
  161.7420  210.9240  155.0760 O   0  0  0  0  0  0  0  0  0  0  0  0
  159.4970  210.8680  155.7790 C   0  0  0  0  0  2  0  0  0  0  0  0
  159.7300  213.2250  155.3460 O   0  0  0  0  0  0  0  0  0  0  0  0
  159.0170  212.1980  155.4490 C   0  0  0  0  0  0  0  0  0  0  0  0
  156.7870  211.3190  155.2320 C   0  0  0  0  0  2  0  0  0  0  0  0
  157.6760  212.1390  154.9090 N   0  0  0  0  0  0  0  0  0  0  0  0
  162.1430  210.1200  151.0280 O   0  0  0  0  0  0  0  0  0  0  0  0
  161.0270  212.0440  150.2200 C   0  0  0  0  0  0  0  0  0  0  0  0
  160.1150  212.4980  151.6880 Cl  0  0  0  0  0  0  0  0  0  0  0  0
  162.2800  211.0190  148.6410 C   0  0  0  0  0  3  0  0  0  0  0  0
  161.1060  212.8390  148.9790 C   0  0  0  0  0  0  0  0  0  0  0  0
  160.5430  213.8660  148.6510 O   0  0  0  0  0  0  0  0  0  0  0  0
  161.7790  211.0110  150.0080 C   0  0  0  0  0  0  0  0  0  0  0  0
  161.9290  212.0590  148.0620 N   0  0  0  0  0  0  0  0  0  0  0  0
  1 22  1  1  0  0  0
  2  4  1  6  0  0  0
  2  1  1  0  0  0  0
  3 31  1  1  0  0  0
  3  2  1  0  0  0  0
  3  1  1  0  0  0  0
  4  6  1  0  0  0  0
  6  5  1  1  0  0  0
  6  7  1  0  0  0  0
  7  8  1  0  0  0  0
  9  8  1  0  0  0  0
 10  9  1  0  0  0  0
 11 10  1  0  0  0  0
 12 11  1  0  0  0  0
 13 12  1  0  0  0  0
 15 14  1  6  0  0  0
 15 13  1  0  0  0  0
 16 19  1  0  0  0  0
 17 15  1  1  0  0  0
 17 19  1  0  0  0  0
 18 21  1  0  0  0  0
 18 17  1  0  0  0  0
 19 20  2  0  0  0  0
 21 16  1  0  0  0  0
 22 23  1  0  0  0  0
 23 24  1  0  0  0  0
 24 25  2  0  0  0  0
 24 26  1  0  0  0  0
 27 28  2  0  0  0  0
 28 26  1  0  0  0  0
 30 29  2  0  0  0  0
 30 28  1  0  0  0  0
 32 33  1  0  0  0  0
 34 37  1  0  0  0  0
 35 32  1  0  0  0  0
 36 35  2  0  0  0  0
 37 32  2  0  0  0  0
 37 31  1  0  0  0  0
 38 34  2  0  0  0  0
 38 35  1  0  0  0  0
M  END
>  <MODEL>
8

>  <REMARK>
 VINA RESULT:      -6.0      1.979      5.127
  Name = 
  18 active torsions:
  status: ('A' for Active; 'I' for Inactive)
    1  A    between atoms: N_2  and  C_26
    2  A    between atoms: C_5  and  C_15
    3  A    between atoms: C_7  and  C_13
    4  A    between atoms: C_7  and  C_37
    5  A    between atoms: C_8  and  O_21
    6  A    between atoms: C_8  and  C_37
    7  A    between atoms: C_10  and  C_26
    8  A    between atoms: C_13  and  N_38
    9  A    between atoms: C_15  and  N_38
   10  A    between atoms: C_17  and  O_21
   11  A    between atoms: C_17  and  C_29
   12  A    between atoms: C_19  and  C_33
   13  A    between atoms: C_22  and  C_25
   14  A    between atoms: N_24  and  C_31
   15  A    between atoms: C_25  and  C_29
   16  A    between atoms: O_27  and  C_30
   17  A    between atoms: O_27  and  C_34
   18  A    between atoms: C_31  and  C_33
                            x       y       z     vdW  Elec       q    Type
                         _______ _______ _______ _____ _____    ______ ____

>  <TORSDO>
F 18

$$$$
=
 OpenBabel11052409383D

 38 40  0  0  1  0  0  0  0  0999 V2000
  161.2850  208.4990  149.3250 C   0  0  2  0  0  3  0  0  0  0  0  0
  162.0660  207.2310  149.8630 C   0  0  2  0  0  3  0  0  0  0  0  0
  161.4280  207.2880  148.3980 C   0  0  2  0  0  3  0  0  0  0  0  0
  161.1940  206.3840  150.8640 C   0  0  0  0  0  2  0  0  0  0  0  0
  161.4680  204.0560  151.9670 O   0  0  0  0  0  1  0  0  0  0  0  0
  161.6580  205.4770  152.0690 C   0  0  2  0  0  3  0  0  0  0  0  0
  161.5200  206.1310  153.4610 C   0  0  0  0  0  2  0  0  0  0  0  0
  160.9110  207.3850  153.4040 O   0  0  0  0  0  0  0  0  0  0  0  0
  160.8340  208.2270  154.5950 C   0  0  0  0  0  2  0  0  0  0  0  0
  161.1850  209.7440  154.4400 C   0  0  0  0  0  2  0  0  0  0  0  0
  159.7730  210.1380  154.4780 C   0  0  0  0  0  2  0  0  0  0  0  0
  159.5840  211.4970  154.9360 C   0  0  0  0  0  2  0  0  0  0  0  0
  158.4100  211.8160  154.1900 N   0  0  0  0  0  2  0  0  0  0  0  0
  159.2210  213.5440  155.3620 C   0  0  0  0  0  1  0  0  0  0  0  0
  158.0060  213.0860  154.6220 C   0  0  1  0  0  3  0  0  0  0  0  0
  156.0740  214.2630  151.6040 O   0  0  0  0  0  0  0  0  0  0  0  0
  157.4440  214.0190  153.4800 C   0  0  1  0  0  3  0  0  0  0  0  0
  158.2600  213.9090  152.2970 N   0  0  0  0  0  2  0  0  0  0  0  0
  156.0290  214.0620  152.9880 C   0  0  0  0  0  0  0  0  0  0  0  0
  154.9970  213.8860  153.6090 O   0  0  0  0  0  0  0  0  0  0  0  0
  157.4000  214.2530  151.1440 C   0  0  0  0  0  2  0  0  0  0  0  0
  162.1240  209.3920  148.5620 C   0  0  0  0  0  2  0  0  0  0  0  0
  162.3440  210.6200  149.1480 N   0  0  0  0  0  2  0  0  0  0  0  0
  161.7820  211.5750  148.3270 C   0  0  0  0  0  0  0  0  0  0  0  0
  160.8600  211.2780  147.4500 O   0  0  0  0  0  0  0  0  0  0  0  0
  162.5450  212.6990  148.2720 C   0  0  0  0  0  2  0  0  0  0  0  0
  161.0640  214.4050  147.4400 O   0  0  0  0  0  0  0  0  0  0  0  0
  161.9260  213.5150  147.2430 C   0  0  0  0  0  0  0  0  0  0  0  0
  162.1960  213.1600  144.8780 C   0  0  0  0  0  2  0  0  0  0  0  0
  162.6700  213.4290  146.0050 N   0  0  0  0  0  0  0  0  0  0  0  0
  162.5110  206.4270  147.8710 O   0  0  0  0  0  0  0  0  0  0  0  0
  161.6520  204.3980  147.0060 C   0  0  0  0  0  0  0  0  0  0  0  0
  161.3140  203.5410  148.5370 Cl  0  0  0  0  0  0  0  0  0  0  0  0
  162.3360  205.8280  145.3940 C   0  0  0  0  0  3  0  0  0  0  0  0
  161.2830  203.9240  145.6580 C   0  0  0  0  0  0  0  0  0  0  0  0
  160.7820  202.8790  145.2880 O   0  0  0  0  0  0  0  0  0  0  0  0
  162.2140  205.5500  146.8170 C   0  0  0  0  0  0  0  0  0  0  0  0
  161.7890  204.9310  144.7330 N   0  0  0  0  0  0  0  0  0  0  0  0
  1 22  1  6  0  0  0
  1  2  1  0  0  0  0
  2  4  1  1  0  0  0
  3 31  1  6  0  0  0
  3  1  1  0  0  0  0
  3  2  1  0  0  0  0
  4  6  1  0  0  0  0
  6  5  1  1  0  0  0
  6  7  1  0  0  0  0
  8  7  1  0  0  0  0
  8  9  1  0  0  0  0
 10 11  1  0  0  0  0
 10  9  1  0  0  0  0
 11 12  1  0  0  0  0
 13 15  1  0  0  0  0
 13 12  1  0  0  0  0
 15 14  1  6  0  0  0
 16 19  1  0  0  0  0
 17 15  1  1  0  0  0
 18 17  1  0  0  0  0
 19 17  1  0  0  0  0
 19 20  2  0  0  0  0
 21 16  1  0  0  0  0
 21 18  1  0  0  0  0
 22 23  1  0  0  0  0
 24 23  1  0  0  0  0
 25 24  2  0  0  0  0
 26 24  1  0  0  0  0
 28 27  2  0  0  0  0
 28 26  1  0  0  0  0
 29 30  2  0  0  0  0
 30 28  1  0  0  0  0
 32 33  1  0  0  0  0
 34 37  1  0  0  0  0
 35 32  1  0  0  0  0
 36 35  2  0  0  0  0
 37 32  2  0  0  0  0
 37 31  1  0  0  0  0
 38 34  2  0  0  0  0
 38 35  1  0  0  0  0
M  END
>  <MODEL>
9

>  <REMARK>
 VINA RESULT:      -5.9      3.061      8.668
  Name = 
  18 active torsions:
  status: ('A' for Active; 'I' for Inactive)
    1  A    between atoms: N_2  and  C_26
    2  A    between atoms: C_5  and  C_15
    3  A    between atoms: C_7  and  C_13
    4  A    between atoms: C_7  and  C_37
    5  A    between atoms: C_8  and  O_21
    6  A    between atoms: C_8  and  C_37
    7  A    between atoms: C_10  and  C_26
    8  A    between atoms: C_13  and  N_38
    9  A    between atoms: C_15  and  N_38
   10  A    between atoms: C_17  and  O_21
   11  A    between atoms: C_17  and  C_29
   12  A    between atoms: C_19  and  C_33
   13  A    between atoms: C_22  and  C_25
   14  A    between atoms: N_24  and  C_31
   15  A    between atoms: C_25  and  C_29
   16  A    between atoms: O_27  and  C_30
   17  A    between atoms: O_27  and  C_34
   18  A    between atoms: C_31  and  C_33
                            x       y       z     vdW  Elec       q    Type
                         _______ _______ _______ _____ _____    ______ ____

>  <TORSDO>
F 18

$$$$
