=
 OpenBabel11052409393D

 38 42  0  0  1  0  0  0  0  0999 V2000
  160.8010  207.8650  153.2150 C   0  0  0  0  0  3  0  0  0  0  0  0
  162.3590  207.7960  151.2720 C   0  0  2  0  0  3  0  0  0  0  0  0
  162.0560  211.3060  148.2380 C   0  0  0  0  0  2  0  0  0  0  0  0
  161.8140  210.4080  149.4170 C   0  0  0  0  0  0  0  0  0  0  0  0
  161.9900  212.7900  148.6360 C   0  0  2  0  0  3  0  0  0  0  0  0
  159.5340  211.9740  155.5410 C   0  0  0  0  0  0  0  0  0  0  0  0
  159.7420  210.6270  155.5660 N   0  0  0  0  0  0  0  0  0  0  0  0
  161.6750  209.0920  149.2050 C   0  0  0  0  0  3  0  0  0  0  0  0
  161.5390  205.7440  150.0040 C   0  0  0  0  0  0  0  0  0  0  0  0
  160.1180  210.6110  153.2200 C   0  0  0  0  0  3  0  0  0  0  0  0
  159.2140  212.6970  156.7980 C   0  0  0  0  0  1  0  0  0  0  0  0
  160.4940  212.0920  150.6460 C   0  0  2  0  0  3  0  0  0  0  0  0
  161.2570  208.0890  150.2440 C   0  0  1  0  0  3  0  0  0  0  0  0
  159.9530  211.9910  153.1640 C   0  0  0  0  0  0  0  0  0  0  0  0
  160.1870  212.7100  151.9440 N   0  0  0  0  0  2  0  0  0  0  0  0
  162.7340  206.0080  151.3000 S   0  0  0  0  0  0  0  0  0  0  0  0
  161.5980  211.0350  150.7600 C   0  0  0  0  0  2  0  0  0  0  0  0
  160.8020  213.1550  149.5570 C   0  0  1  0  0  3  0  0  0  0  0  0
  161.0270  214.4150  150.1200 O   0  0  0  0  0  1  0  0  0  0  0  0
  161.9390  208.2680  152.6330 C   0  0  0  0  0  3  0  0  0  0  0  0
  160.3480  208.4540  154.5250 C   0  0  0  0  0  2  0  0  0  0  0  0
  159.6570  212.6830  154.3400 C   0  0  0  0  0  3  0  0  0  0  0  0
  160.0360  209.9290  154.4360 C   0  0  0  0  0  0  0  0  0  0  0  0
  160.8990  206.8120  149.5760 C   0  0  0  0  0  3  0  0  0  0  0  0
  161.2860  204.4610  149.4330 N   0  0  0  0  0  2  0  0  0  0  0  0
  161.6410  204.1400  148.0600 C   0  0  0  0  0  2  0  0  0  0  0  0
  161.2320  202.7140  147.7350 C   0  0  0  0  0  2  0  0  0  0  0  0
  161.4700  203.4320  145.4750 O   0  0  0  0  0  0  0  0  0  0  0  0
  160.5190  201.3660  145.7610 O   0  0  0  0  0  1  0  0  0  0  0  0
  161.0730  202.5350  146.2630 C   0  0  0  0  0  0  0  0  0  0  0  0
  162.0790  213.6700  147.4680 N   0  0  0  0  0  2  0  0  0  0  0  0
  160.4060  213.3980  145.7950 N   0  0  0  0  0  0  0  0  0  0  0  0
  162.6840  213.3060  145.1320 C   0  0  0  0  0  3  0  0  0  0  0  0
  161.7080  212.9510  146.2520 C   0  0  1  0  0  3  0  0  0  0  0  0
  160.4730  213.9180  144.6210 C   0  0  0  0  0  0  0  0  0  0  0  0
  161.8360  213.9360  144.0370 C   0  0  0  0  0  3  0  0  0  0  0  0
  158.7540  213.7530  142.8710 C   0  0  0  0  0  1  0  0  0  0  0  0
  159.3380  214.4150  143.9830 O   0  0  0  0  0  0  0  0  0  0  0  0
  1 21  1  0  0  0  0
  2 16  1  0  0  0  0
  2 20  1  1  0  0  0
  3  5  1  0  0  0  0
  3  4  1  0  0  0  0
  4 17  1  0  0  0  0
  5 31  1  6  0  0  0
  5 18  1  0  0  0  0
  6  7  1  0  0  0  0
  6 11  1  0  0  0  0
  8  4  2  0  0  0  0
  9 16  1  0  0  0  0
 10 23  1  0  0  0  0
 12 17  1  1  0  0  0
 12 15  1  0  0  0  0
 13  8  1  6  0  0  0
 13  2  1  0  0  0  0
 14 10  2  0  0  0  0
 14 22  1  0  0  0  0
 15 14  1  0  0  0  0
 18 19  1  1  0  0  0
 18 12  1  0  0  0  0
 20  1  2  0  0  0  0
 22  6  2  0  0  0  0
 23 21  1  0  0  0  0
 23  7  2  0  0  0  0
 24  9  2  0  0  0  0
 24 13  1  0  0  0  0
 25  9  1  0  0  0  0
 26 25  1  0  0  0  0
 27 26  1  0  0  0  0
 28 30  2  0  0  0  0
 29 30  1  0  0  0  0
 30 27  1  0  0  0  0
 32 34  1  0  0  0  0
 33 34  1  0  0  0  0
 34 31  1  1  0  0  0
 35 32  2  0  0  0  0
 36 35  1  0  0  0  0
 36 33  2  0  0  0  0
 37 38  1  0  0  0  0
 38 35  1  0  0  0  0
M  END
>  <MODEL>
1

>  <REMARK>
 VINA RESULT:      -6.5      0.000      0.000
  Name = 
  7 active torsions:
  status: ('A' for Active; 'I' for Inactive)
    1  A    between atoms: N_5  and  C_12
    2  A    between atoms: N_5  and  C_24
    3  A    between atoms: C_7  and  N_16
    4  A    between atoms: N_16  and  C_25
    5  A    between atoms: C_24  and  C_30
    6  A    between atoms: C_26  and  O_29
    7  A    between atoms: C_30  and  C_38
                            x       y       z     vdW  Elec       q    Type
                         _______ _______ _______ _____ _____    ______ ____

>  <TORSDO>
F 7

$$$$
=
 OpenBabel11052409393D

 38 42  0  0  1  0  0  0  0  0999 V2000
  161.4010  206.5020  148.9120 C   0  0  0  0  0  3  0  0  0  0  0  0
  160.1680  205.4730  150.8170 C   0  0  2  0  0  3  0  0  0  0  0  0
  160.8620  207.3650  155.0060 C   0  0  0  0  0  2  0  0  0  0  0  0
  160.9360  207.0820  153.5340 C   0  0  0  0  0  0  0  0  0  0  0  0
  160.8300  208.8770  155.2880 C   0  0  2  0  0  3  0  0  0  0  0  0
  162.1930  211.3050  148.4600 C   0  0  0  0  0  0  0  0  0  0  0  0
  162.0150  210.0840  147.8790 N   0  0  0  0  0  0  0  0  0  0  0  0
  161.1380  205.8180  153.1320 C   0  0  0  0  0  3  0  0  0  0  0  0
  161.2240  203.1580  150.9460 C   0  0  0  0  0  0  0  0  0  0  0  0
  162.0110  209.0370  150.0120 C   0  0  0  0  0  3  0  0  0  0  0  0
  162.2960  212.5200  147.6130 C   0  0  0  0  0  1  0  0  0  0  0  0
  162.0090  209.2380  152.9980 C   0  0  2  0  0  3  0  0  0  0  0  0
  161.4110  205.3960  151.7150 C   0  0  1  0  0  3  0  0  0  0  0  0
  162.1510  210.2700  150.6410 C   0  0  0  0  0  0  0  0  0  0  0  0
  162.0950  210.3750  152.0710 N   0  0  0  0  0  2  0  0  0  0  0  0
  159.8350  203.8420  150.0630 S   0  0  0  0  0  0  0  0  0  0  0  0
  160.9260  208.2380  152.5810 C   0  0  0  0  0  2  0  0  0  0  0  0
  161.8510  209.7040  154.4710 C   0  0  1  0  0  3  0  0  0  0  0  0
  161.5120  211.0570  154.5470 O   0  0  0  0  0  1  0  0  0  0  0  0
  160.3590  206.5150  149.7540 C   0  0  0  0  0  3  0  0  0  0  0  0
  161.6290  207.6310  147.9410 C   0  0  0  0  0  2  0  0  0  0  0  0
  162.2430  211.4200  149.8550 C   0  0  0  0  0  3  0  0  0  0  0  0
  161.9180  208.9480  148.6210 C   0  0  0  0  0  0  0  0  0  0  0  0
  161.8980  203.9940  151.7080 C   0  0  0  0  0  3  0  0  0  0  0  0
  161.5920  201.7820  150.8630 N   0  0  0  0  0  2  0  0  0  0  0  0
  161.2440  200.9530  149.7200 C   0  0  0  0  0  2  0  0  0  0  0  0
  161.3350  201.7660  148.4390 C   0  0  0  0  0  2  0  0  0  0  0  0
  161.6090  199.7100  147.2640 O   0  0  0  0  0  1  0  0  0  0  0  0
  160.4870  201.3550  146.1300 O   0  0  0  0  0  0  0  0  0  0  0  0
  161.1640  200.8870  147.2470 C   0  0  0  0  0  0  0  0  0  0  0  0
  160.9050  209.1630  156.7230 N   0  0  0  0  0  2  0  0  0  0  0  0
  160.0250  211.3100  157.2610 N   0  0  0  0  0  0  0  0  0  0  0  0
  158.6250  209.7780  156.1080 C   0  0  0  0  0  3  0  0  0  0  0  0
  159.7210  209.8960  157.1650 C   0  0  1  0  0  3  0  0  0  0  0  0
  159.2890  212.0040  156.4680 C   0  0  0  0  0  0  0  0  0  0  0  0
  158.3320  211.2040  155.6650 C   0  0  0  0  0  3  0  0  0  0  0  0
  158.7900  214.1430  155.3620 C   0  0  0  0  0  1  0  0  0  0  0  0
  159.4100  213.3910  156.3950 O   0  0  0  0  0  0  0  0  0  0  0  0
  1 20  2  0  0  0  0
  2 20  1  6  0  0  0
  2 13  1  0  0  0  0
  3  5  1  0  0  0  0
  4  3  1  0  0  0  0
  5 31  1  1  0  0  0
  6 22  1  0  0  0  0
  7  6  2  0  0  0  0
  7 23  1  0  0  0  0
  8  4  2  0  0  0  0
  9 24  2  0  0  0  0
 10 14  1  0  0  0  0
 11  6  1  0  0  0  0
 12 17  1  6  0  0  0
 12 18  1  0  0  0  0
 13 24  1  1  0  0  0
 13  8  1  0  0  0  0
 14 15  1  0  0  0  0
 15 12  1  0  0  0  0
 16  2  1  0  0  0  0
 16  9  1  0  0  0  0
 17  4  1  0  0  0  0
 18 19  1  6  0  0  0
 18  5  1  0  0  0  0
 21 23  1  0  0  0  0
 21  1  1  0  0  0  0
 22 14  2  0  0  0  0
 23 10  2  0  0  0  0
 25  9  1  0  0  0  0
 26 25  1  0  0  0  0
 27 26  1  0  0  0  0
 29 30  2  0  0  0  0
 30 28  1  0  0  0  0
 30 27  1  0  0  0  0
 33 34  1  0  0  0  0
 34 31  1  6  0  0  0
 34 32  1  0  0  0  0
 35 32  2  0  0  0  0
 36 33  2  0  0  0  0
 36 35  1  0  0  0  0
 37 38  1  0  0  0  0
 38 35  1  0  0  0  0
M  END
>  <MODEL>
2

>  <REMARK>
 VINA RESULT:      -5.8      3.094      7.098
  Name = 
  7 active torsions:
  status: ('A' for Active; 'I' for Inactive)
    1  A    between atoms: N_5  and  C_12
    2  A    between atoms: N_5  and  C_24
    3  A    between atoms: C_7  and  N_16
    4  A    between atoms: N_16  and  C_25
    5  A    between atoms: C_24  and  C_30
    6  A    between atoms: C_26  and  O_29
    7  A    between atoms: C_30  and  C_38
                            x       y       z     vdW  Elec       q    Type
                         _______ _______ _______ _____ _____    ______ ____

>  <TORSDO>
F 7

$$$$
=
 OpenBabel11052409393D

 38 42  0  0  1  0  0  0  0  0999 V2000
  161.7330  208.3390  147.7970 C   0  0  0  0  0  3  0  0  0  0  0  0
  162.7470  210.2630  149.0110 C   0  0  2  0  0  3  0  0  0  0  0  0
  161.6430  210.7000  153.5060 C   0  0  0  0  0  2  0  0  0  0  0  0
  161.7190  210.1980  152.0930 C   0  0  0  0  0  0  0  0  0  0  0  0
  161.6640  209.5420  154.5180 C   0  0  2  0  0  3  0  0  0  0  0  0
  161.0510  203.9240  149.7820 C   0  0  0  0  0  0  0  0  0  0  0  0
  161.2730  204.6930  148.6790 N   0  0  0  0  0  0  0  0  0  0  0  0
  161.5460  211.0710  151.0910 C   0  0  0  0  0  3  0  0  0  0  0  0
  161.6560  212.2550  147.8580 C   0  0  0  0  0  0  0  0  0  0  0  0
  161.0420  206.6710  149.9760 C   0  0  0  0  0  3  0  0  0  0  0  0
  161.0510  202.4430  149.6650 C   0  0  0  0  0  1  0  0  0  0  0  0
  160.7350  208.0020  152.6390 C   0  0  2  0  0  3  0  0  0  0  0  0
  161.4170  210.7030  149.6380 C   0  0  1  0  0  3  0  0  0  0  0  0
  160.8520  205.9170  151.1300 C   0  0  0  0  0  0  0  0  0  0  0  0
  160.7600  206.5500  152.4140 N   0  0  0  0  0  2  0  0  0  0  0  0
  163.1380  211.3090  147.5650 S   0  0  0  0  0  0  0  0  0  0  0  0
  161.8440  208.7220  151.8650 C   0  0  0  0  0  2  0  0  0  0  0  0
  160.7440  208.3530  154.1520 C   0  0  1  0  0  3  0  0  0  0  0  0
  161.0900  207.2470  154.9330 O   0  0  0  0  0  1  0  0  0  0  0  0
  162.6810  208.8180  148.6140 C   0  0  0  0  0  3  0  0  0  0  0  0
  161.6200  206.8630  147.5190 C   0  0  0  0  0  2  0  0  0  0  0  0
  160.8560  204.5230  151.0320 C   0  0  0  0  0  3  0  0  0  0  0  0
  161.2790  206.0520  148.7460 C   0  0  0  0  0  0  0  0  0  0  0  0
  160.9160  211.8770  148.8800 C   0  0  0  0  0  3  0  0  0  0  0  0
  161.2810  213.3750  147.0580 N   0  0  0  0  0  2  0  0  0  0  0  0
  162.0250  213.7630  145.8700 C   0  0  0  0  0  2  0  0  0  0  0  0
  161.5330  212.9790  144.6660 C   0  0  0  0  0  2  0  0  0  0  0  0
  162.3300  212.3810  142.5010 O   0  0  0  0  0  0  0  0  0  0  0  0
  163.7990  213.5650  143.8030 O   0  0  0  0  0  1  0  0  0  0  0  0
  162.5730  212.9450  143.5990 C   0  0  0  0  0  0  0  0  0  0  0  0
  161.4430  210.0140  155.8880 N   0  0  0  0  0  2  0  0  0  0  0  0
  159.5390  211.0950  154.9510 N   0  0  0  0  0  0  0  0  0  0  0  0
  159.9870  211.4110  157.2610 C   0  0  0  0  0  3  0  0  0  0  0  0
  160.6360  211.2320  155.8900 C   0  0  1  0  0  3  0  0  0  0  0  0
  158.4010  211.1850  155.5410 C   0  0  0  0  0  0  0  0  0  0  0  0
  158.4870  211.3970  157.0060 C   0  0  0  0  0  3  0  0  0  0  0  0
  155.9580  211.4310  155.4110 C   0  0  0  0  0  1  0  0  0  0  0  0
  157.2050  211.0840  154.8300 O   0  0  0  0  0  0  0  0  0  0  0  0
  1 20  2  0  0  0  0
  2 20  1  6  0  0  0
  2 13  1  0  0  0  0
  3  5  1  0  0  0  0
  4  3  1  0  0  0  0
  5 31  1  1  0  0  0
  6 22  1  0  0  0  0
  7 23  1  0  0  0  0
  7  6  2  0  0  0  0
  8  4  2  0  0  0  0
  9 24  2  0  0  0  0
 10 14  1  0  0  0  0
 11  6  1  0  0  0  0
 12 17  1  6  0  0  0
 12 18  1  0  0  0  0
 13 24  1  6  0  0  0
 13  8  1  0  0  0  0
 14 15  1  0  0  0  0
 15 12  1  0  0  0  0
 16  9  1  0  0  0  0
 16  2  1  0  0  0  0
 17  4  1  0  0  0  0
 18  5  1  0  0  0  0
 18 19  1  1  0  0  0
 21  1  1  0  0  0  0
 21 23  1  0  0  0  0
 22 14  2  0  0  0  0
 23 10  2  0  0  0  0
 25  9  1  0  0  0  0
 26 25  1  0  0  0  0
 27 26  1  0  0  0  0
 28 30  2  0  0  0  0
 30 29  1  0  0  0  0
 30 27  1  0  0  0  0
 32 35  2  0  0  0  0
 32 34  1  0  0  0  0
 34 31  1  1  0  0  0
 34 33  1  0  0  0  0
 35 36  1  0  0  0  0
 36 33  2  0  0  0  0
 38 37  1  0  0  0  0
 38 35  1  0  0  0  0
M  END
>  <MODEL>
3

>  <REMARK>
 VINA RESULT:      -4.2      3.247      8.534
  Name = 
  7 active torsions:
  status: ('A' for Active; 'I' for Inactive)
    1  A    between atoms: N_5  and  C_12
    2  A    between atoms: N_5  and  C_24
    3  A    between atoms: C_7  and  N_16
    4  A    between atoms: N_16  and  C_25
    5  A    between atoms: C_24  and  C_30
    6  A    between atoms: C_26  and  O_29
    7  A    between atoms: C_30  and  C_38
                            x       y       z     vdW  Elec       q    Type
                         _______ _______ _______ _____ _____    ______ ____

>  <TORSDO>
F 7

$$$$
=
 OpenBabel11052409393D

 38 42  0  0  1  0  0  0  0  0999 V2000
  161.5670  208.7870  148.2550 C   0  0  0  0  0  3  0  0  0  0  0  0
  162.5330  210.6600  149.5840 C   0  0  2  0  0  3  0  0  0  0  0  0
  161.5590  210.7020  154.1290 C   0  0  0  0  0  2  0  0  0  0  0  0
  161.6110  210.3130  152.6810 C   0  0  0  0  0  0  0  0  0  0  0  0
  161.6640  209.4740  155.0480 C   0  0  2  0  0  3  0  0  0  0  0  0
  161.1500  204.2070  149.9130 C   0  0  0  0  0  0  0  0  0  0  0  0
  161.3020  205.0670  148.8660 N   0  0  0  0  0  0  0  0  0  0  0  0
  161.3660  211.2500  151.7540 C   0  0  0  0  0  3  0  0  0  0  0  0
  161.3170  212.6800  148.6200 C   0  0  0  0  0  0  0  0  0  0  0  0
  161.0240  206.9280  150.3190 C   0  0  0  0  0  3  0  0  0  0  0  0
  161.2130  202.7410  149.6820 C   0  0  0  0  0  1  0  0  0  0  0  0
  160.7440  208.0380  153.0840 C   0  0  2  0  0  3  0  0  0  0  0  0
  161.2060  210.9870  150.2820 C   0  0  1  0  0  3  0  0  0  0  0  0
  160.9060  206.0810  151.4150 C   0  0  0  0  0  0  0  0  0  0  0  0
  160.8270  206.6100  152.7470 N   0  0  0  0  0  2  0  0  0  0  0  0
  162.8290  211.8290  148.2120 S   0  0  0  0  0  0  0  0  0  0  0  0
  161.7940  208.8660  152.3350 C   0  0  0  0  0  2  0  0  0  0  0  0
  160.7870  208.2740  154.6180 C   0  0  1  0  0  3  0  0  0  0  0  0
  161.2080  207.1290  155.3010 O   0  0  0  0  0  1  0  0  0  0  0  0
  162.5200  209.2470  149.0780 C   0  0  0  0  0  3  0  0  0  0  0  0
  161.5120  207.3320  147.8680 C   0  0  0  0  0  2  0  0  0  0  0  0
  160.9700  204.7000  151.2110 C   0  0  0  0  0  3  0  0  0  0  0  0
  161.2480  206.4160  149.0380 C   0  0  0  0  0  0  0  0  0  0  0  0
  160.6290  212.1900  149.6310 C   0  0  0  0  0  3  0  0  0  0  0  0
  160.8660  213.8380  147.9200 N   0  0  0  0  0  2  0  0  0  0  0  0
  160.5590  213.8150  146.4990 C   0  0  0  0  0  2  0  0  0  0  0  0
  159.6260  212.6570  146.1850 C   0  0  0  0  0  2  0  0  0  0  0  0
  157.7170  212.6850  147.6110 O   0  0  0  0  0  1  0  0  0  0  0  0
  157.4620  213.7500  145.5970 O   0  0  0  0  0  0  0  0  0  0  0  0
  158.2160  213.0180  146.5050 C   0  0  0  0  0  0  0  0  0  0  0  0
  161.4680  209.8290  156.4560 N   0  0  0  0  0  2  0  0  0  0  0  0
  159.8240  211.3550  157.2610 N   0  0  0  0  0  0  0  0  0  0  0  0
  159.2470  209.9330  155.4500 C   0  0  0  0  0  3  0  0  0  0  0  0
  160.0480  210.0170  156.7470 C   0  0  1  0  0  3  0  0  0  0  0  0
  159.0320  212.0230  156.5010 C   0  0  0  0  0  0  0  0  0  0  0  0
  158.5540  211.2800  155.3100 C   0  0  0  0  0  3  0  0  0  0  0  0
  157.5210  213.9460  156.2470 C   0  0  0  0  0  1  0  0  0  0  0  0
  158.6750  213.3370  156.8040 O   0  0  0  0  0  0  0  0  0  0  0  0
  1 20  2  0  0  0  0
  2 20  1  6  0  0  0
  2 13  1  0  0  0  0
  3  5  1  0  0  0  0
  4  3  1  0  0  0  0
  5 31  1  1  0  0  0
  6 22  1  0  0  0  0
  7 23  1  0  0  0  0
  7  6  2  0  0  0  0
  8  4  2  0  0  0  0
  9 24  2  0  0  0  0
 10 14  1  0  0  0  0
 11  6  1  0  0  0  0
 12 17  1  6  0  0  0
 12 18  1  0  0  0  0
 13 24  1  6  0  0  0
 13  8  1  0  0  0  0
 14 15  1  0  0  0  0
 15 12  1  0  0  0  0
 16  9  1  0  0  0  0
 16  2  1  0  0  0  0
 17  4  1  0  0  0  0
 18  5  1  0  0  0  0
 18 19  1  1  0  0  0
 21  1  1  0  0  0  0
 21 23  1  0  0  0  0
 22 14  2  0  0  0  0
 23 10  2  0  0  0  0
 25  9  1  0  0  0  0
 26 25  1  0  0  0  0
 27 26  1  0  0  0  0
 27 30  1  0  0  0  0
 29 30  2  0  0  0  0
 30 28  1  0  0  0  0
 33 34  1  0  0  0  0
 34 31  1  6  0  0  0
 34 32  1  0  0  0  0
 35 38  1  0  0  0  0
 35 32  2  0  0  0  0
 36 33  2  0  0  0  0
 36 35  1  0  0  0  0
 37 38  1  0  0  0  0
M  END
>  <MODEL>
4

>  <REMARK>
 VINA RESULT:      -4.0      3.278      8.645
  Name = 
  7 active torsions:
  status: ('A' for Active; 'I' for Inactive)
    1  A    between atoms: N_5  and  C_12
    2  A    between atoms: N_5  and  C_24
    3  A    between atoms: C_7  and  N_16
    4  A    between atoms: N_16  and  C_25
    5  A    between atoms: C_24  and  C_30
    6  A    between atoms: C_26  and  O_29
    7  A    between atoms: C_30  and  C_38
                            x       y       z     vdW  Elec       q    Type
                         _______ _______ _______ _____ _____    ______ ____

>  <TORSDO>
F 7

$$$$
