=
 OpenBabel11052410373D

 25 28  0  0  1  0  0  0  0  0999 V2000
  161.5640  203.4240  145.6480 N   0  0  0  0  0  2  0  0  0  0  0  0
  160.6130  206.1530  150.7510 C   0  0  2  0  0  3  0  0  0  0  0  0
  160.9930  205.0800  148.7100 C   0  0  0  0  0  0  0  0  0  0  0  0
  161.6830  206.7970  151.5320 N   0  0  0  0  0  0  0  0  0  0  0  0
  161.9410  207.3030  149.2710 C   0  0  0  0  0  0  0  0  0  0  0  0
  161.8010  205.1280  144.1320 O   0  0  0  0  0  0  0  0  0  0  0  0
  160.6450  204.6570  150.9090 C   0  0  0  0  0  0  0  0  0  0  0  0
  160.9000  206.3610  149.3310 N   0  0  0  0  0  0  0  0  0  0  0  0
  161.4060  205.6100  146.3380 N   0  0  0  0  0  2  0  0  0  0  0  0
  161.6010  204.7420  145.3130 C   0  0  0  0  0  0  0  0  0  0  0  0
  160.4860  204.0310  151.9890 O   0  0  0  0  0  0  0  0  0  0  0  0
  161.2400  204.7770  147.3750 C   0  0  0  0  0  0  0  0  0  0  0  0
  161.1890  202.4000  147.8690 C   0  0  0  0  0  0  0  0  0  0  0  0
  162.4110  207.6810  150.6110 C   0  0  0  0  0  2  0  0  0  0  0  0
  160.9470  202.6980  149.2300 C   0  0  0  0  0  3  0  0  0  0  0  0
  162.4290  207.7370  148.1950 O   0  0  0  0  0  0  0  0  0  0  0  0
  160.8530  204.0500  149.6110 C   0  0  0  0  0  0  0  0  0  0  0  0
  161.3310  203.4740  146.9690 C   0  0  0  0  0  0  0  0  0  0  0  0
  161.2940  200.9870  147.4150 C   0  0  0  0  0  1  0  0  0  0  0  0
  161.0360  207.6530  152.5180 C   0  0  0  0  0  2  0  0  0  0  0  0
  161.4490  207.2700  153.9380 C   0  0  2  0  0  3  0  0  0  0  0  0
  161.2240  205.9060  154.1440 O   0  0  0  0  0  1  0  0  0  0  0  0
  160.0590  207.2000  156.0180 C   0  0  0  0  0  1  0  0  0  0  0  0
  161.6420  208.9910  155.6630 N   0  0  0  0  0  1  0  0  0  0  0  0
  160.7110  208.1010  154.9870 C   0  0  1  0  0  3  0  0  0  0  0  0
  1 18  1  0  0  0  0
  2  7  1  6  0  0  0
  2  4  1  0  0  0  0
  3  8  1  0  0  0  0
  3 17  1  0  0  0  0
  4 20  1  0  0  0  0
  5  8  1  0  0  0  0
  5 14  1  0  0  0  0
  6 10  2  0  0  0  0
  7 11  2  0  0  0  0
  8  2  1  0  0  0  0
  9 12  1  0  0  0  0
 10  1  1  0  0  0  0
 10  9  1  0  0  0  0
 12  3  2  0  0  0  0
 13 15  1  0  0  0  0
 14  4  1  0  0  0  0
 15 17  2  0  0  0  0
 16  5  2  0  0  0  0
 17  7  1  0  0  0  0
 18 12  1  0  0  0  0
 18 13  2  0  0  0  0
 19 13  1  0  0  0  0
 20 21  1  0  0  0  0
 21 22  1  1  0  0  0
 21 25  1  0  0  0  0
 25 24  1  0  0  0  0
 25 23  1  1  0  0  0
M  END
>  <MODEL>
1

>  <REMARK>
 VINA RESULT:      -9.3      0.000      0.000
  Name = 
  3 active torsions:
  status: ('A' for Active; 'I' for Inactive)
    1  A    between atoms: N_4  and  C_24
    2  A    between atoms: C_10  and  C_11
    3  A    between atoms: C_11  and  C_24
                            x       y       z     vdW  Elec       q    Type
                         _______ _______ _______ _____ _____    ______ ____

>  <TORSDO>
F 3

$$$$
=
 OpenBabel11052410373D

 25 28  0  0  1  0  0  0  0  0999 V2000
  161.3930  203.2840  146.0860 N   0  0  0  0  0  2  0  0  0  0  0  0
  160.8000  206.3560  151.0460 C   0  0  2  0  0  3  0  0  0  0  0  0
  161.0370  205.1450  149.0610 C   0  0  0  0  0  0  0  0  0  0  0  0
  161.9200  207.0560  151.6990 N   0  0  0  0  0  0  0  0  0  0  0  0
  162.0060  207.4050  149.3950 C   0  0  0  0  0  0  0  0  0  0  0  0
  161.5030  204.8800  144.4420 O   0  0  0  0  0  0  0  0  0  0  0  0
  160.8560  204.8750  151.3030 C   0  0  0  0  0  0  0  0  0  0  0  0
  160.9790  206.4660  149.5970 N   0  0  0  0  0  0  0  0  0  0  0  0
  161.2690  205.5110  146.6340 N   0  0  0  0  0  2  0  0  0  0  0  0
  161.3940  204.5750  145.6590 C   0  0  0  0  0  0  0  0  0  0  0  0
  160.7820  204.3240  152.4320 O   0  0  0  0  0  0  0  0  0  0  0  0
  161.1870  204.7520  147.7350 C   0  0  0  0  0  0  0  0  0  0  0  0
  161.1920  202.4150  148.3930 C   0  0  0  0  0  0  0  0  0  0  0  0
  162.5700  207.8760  150.6670 C   0  0  0  0  0  2  0  0  0  0  0  0
  161.0490  202.8050  149.7460 C   0  0  0  0  0  3  0  0  0  0  0  0
  162.4090  207.7650  148.2590 O   0  0  0  0  0  0  0  0  0  0  0  0
  160.9730  204.1800  150.0390 C   0  0  0  0  0  0  0  0  0  0  0  0
  161.2580  203.4250  147.4140 C   0  0  0  0  0  0  0  0  0  0  0  0
  161.2740  200.9740  148.0310 C   0  0  0  0  0  1  0  0  0  0  0  0
  161.3410  207.9760  152.6690 C   0  0  0  0  0  2  0  0  0  0  0  0
  161.4520  209.4230  152.1910 C   0  0  2  0  0  3  0  0  0  0  0  0
  162.5880  210.0180  152.7470 O   0  0  0  0  0  1  0  0  0  0  0  0
  160.0080  210.3040  154.0360 C   0  0  0  0  0  1  0  0  0  0  0  0
  160.3200  211.5820  152.0090 N   0  0  0  0  0  1  0  0  0  0  0  0
  160.2000  210.2310  152.5320 C   0  0  1  0  0  3  0  0  0  0  0  0
  1 18  1  0  0  0  0
  2  7  1  1  0  0  0
  2  4  1  0  0  0  0
  3  8  1  0  0  0  0
  3 17  1  0  0  0  0
  4 20  1  0  0  0  0
  5  8  1  0  0  0  0
  5 14  1  0  0  0  0
  6 10  2  0  0  0  0
  7 11  2  0  0  0  0
  8  2  1  0  0  0  0
  9 12  1  0  0  0  0
 10  1  1  0  0  0  0
 10  9  1  0  0  0  0
 12  3  2  0  0  0  0
 13 15  1  0  0  0  0
 14  4  1  0  0  0  0
 15 17  2  0  0  0  0
 16  5  2  0  0  0  0
 17  7  1  0  0  0  0
 18 12  1  0  0  0  0
 18 13  2  0  0  0  0
 19 13  1  0  0  0  0
 21 25  1  0  0  0  0
 21 20  1  0  0  0  0
 21 22  1  1  0  0  0
 24 25  1  0  0  0  0
 25 23  1  1  0  0  0
M  END
>  <MODEL>
2

>  <REMARK>
 VINA RESULT:      -9.0      1.591      1.771
  Name = 
  3 active torsions:
  status: ('A' for Active; 'I' for Inactive)
    1  A    between atoms: N_4  and  C_24
    2  A    between atoms: C_10  and  C_11
    3  A    between atoms: C_11  and  C_24
                            x       y       z     vdW  Elec       q    Type
                         _______ _______ _______ _____ _____    ______ ____

>  <TORSDO>
F 3

$$$$
=
 OpenBabel11052410373D

 25 28  0  0  1  0  0  0  0  0999 V2000
  161.2790  204.0120  148.9990 N   0  0  0  0  0  2  0  0  0  0  0  0
  160.8200  208.6000  152.6240 C   0  0  2  0  0  3  0  0  0  0  0  0
  161.0020  206.7810  151.1660 C   0  0  0  0  0  0  0  0  0  0  0  0
  161.9370  209.5170  152.9080 N   0  0  0  0  0  0  0  0  0  0  0  0
  161.8640  209.0440  150.6260 C   0  0  0  0  0  0  0  0  0  0  0  0
  161.2020  204.9390  146.9020 O   0  0  0  0  0  0  0  0  0  0  0  0
  160.9720  207.3030  153.3710 C   0  0  0  0  0  0  0  0  0  0  0  0
  160.9050  208.2040  151.2170 N   0  0  0  0  0  0  0  0  0  0  0  0
  161.0660  206.2870  148.7520 N   0  0  0  0  0  2  0  0  0  0  0  0
  161.1840  205.0740  148.1530 C   0  0  0  0  0  0  0  0  0  0  0  0
  160.9960  207.1780  154.6230 O   0  0  0  0  0  0  0  0  0  0  0  0
  161.0930  205.9560  150.0510 C   0  0  0  0  0  0  0  0  0  0  0  0
  161.2650  203.9950  151.4720 C   0  0  0  0  0  0  0  0  0  0  0  0
  162.4780  209.9450  151.6110 C   0  0  0  0  0  2  0  0  0  0  0  0
  161.1820  204.8280  152.6140 C   0  0  0  0  0  3  0  0  0  0  0  0
  162.1780  208.9980  149.4090 O   0  0  0  0  0  0  0  0  0  0  0  0
  161.0490  206.2150  152.4190 C   0  0  0  0  0  0  0  0  0  0  0  0
  161.2160  204.6030  150.2030 C   0  0  0  0  0  0  0  0  0  0  0  0
  161.4030  202.5210  151.6250 C   0  0  0  0  0  1  0  0  0  0  0  0
  161.3680  210.6990  153.5420 C   0  0  0  0  0  2  0  0  0  0  0  0
  159.8470  210.7240  153.3960 C   0  0  2  0  0  3  0  0  0  0  0  0
  159.4850  211.6110  152.3780 O   0  0  0  0  0  1  0  0  0  0  0  0
  157.7070  211.4690  154.4610 C   0  0  0  0  0  1  0  0  0  0  0  0
  159.2080  209.9820  155.6360 N   0  0  0  0  0  1  0  0  0  0  0  0
  159.1590  211.1010  154.7080 C   0  0  1  0  0  3  0  0  0  0  0  0
  1 18  1  0  0  0  0
  2  4  1  0  0  0  0
  2  7  1  1  0  0  0
  3  8  1  0  0  0  0
  3 17  1  0  0  0  0
  4 20  1  0  0  0  0
  5  8  1  0  0  0  0
  5 14  1  0  0  0  0
  6 10  2  0  0  0  0
  7 11  2  0  0  0  0
  8  2  1  0  0  0  0
  9 12  1  0  0  0  0
 10  9  1  0  0  0  0
 10  1  1  0  0  0  0
 12 18  1  0  0  0  0
 12  3  2  0  0  0  0
 13 19  1  0  0  0  0
 13 15  1  0  0  0  0
 14  4  1  0  0  0  0
 16  5  2  0  0  0  0
 17 15  2  0  0  0  0
 17  7  1  0  0  0  0
 18 13  2  0  0  0  0
 21 22  1  6  0  0  0
 21 20  1  0  0  0  0
 21 25  1  0  0  0  0
 25 23  1  6  0  0  0
 25 24  1  0  0  0  0
M  END
>  <MODEL>
3

>  <REMARK>
 VINA RESULT:      -8.8      2.462      3.503
  Name = 
  3 active torsions:
  status: ('A' for Active; 'I' for Inactive)
    1  A    between atoms: N_4  and  C_24
    2  A    between atoms: C_10  and  C_11
    3  A    between atoms: C_11  and  C_24
                            x       y       z     vdW  Elec       q    Type
                         _______ _______ _______ _____ _____    ______ ____

>  <TORSDO>
F 3

$$$$
=
 OpenBabel11052410373D

 25 28  0  0  1  0  0  0  0  0999 V2000
  160.8290  209.2770  153.8030 N   0  0  0  0  0  2  0  0  0  0  0  0
  161.9360  204.9030  150.0580 C   0  0  2  0  0  3  0  0  0  0  0  0
  161.4980  206.6570  151.5390 C   0  0  0  0  0  0  0  0  0  0  0  0
  160.9990  204.4930  148.9970 N   0  0  0  0  0  0  0  0  0  0  0  0
  161.1170  206.8200  149.0930 C   0  0  0  0  0  0  0  0  0  0  0  0
  161.2060  211.1790  152.5780 O   0  0  0  0  0  0  0  0  0  0  0  0
  161.4950  204.3950  151.4040 C   0  0  0  0  0  0  0  0  0  0  0  0
  161.8620  206.3590  150.1920 N   0  0  0  0  0  0  0  0  0  0  0  0
  161.4850  209.1210  151.6070 N   0  0  0  0  0  2  0  0  0  0  0  0
  161.1750  209.9240  152.6580 C   0  0  0  0  0  0  0  0  0  0  0  0
  161.3720  203.1850  151.7260 O   0  0  0  0  0  0  0  0  0  0  0  0
  161.3190  207.9010  152.1350 C   0  0  0  0  0  0  0  0  0  0  0  0
  160.6900  206.8450  154.2290 C   0  0  0  0  0  0  0  0  0  0  0  0
  160.6290  205.7110  148.2620 C   0  0  0  0  0  2  0  0  0  0  0  0
  160.8610  205.5750  153.6290 C   0  0  0  0  0  3  0  0  0  0  0  0
  160.8740  208.0350  148.8750 O   0  0  0  0  0  0  0  0  0  0  0  0
  161.2680  205.5230  152.2830 C   0  0  0  0  0  0  0  0  0  0  0  0
  160.9300  207.9880  153.4430 C   0  0  0  0  0  0  0  0  0  0  0  0
  160.2650  206.9530  155.6510 C   0  0  0  0  0  1  0  0  0  0  0  0
  161.7440  203.6500  148.0720 C   0  0  0  0  0  2  0  0  0  0  0  0
  160.8360  202.6090  147.4200 C   0  0  2  0  0  3  0  0  0  0  0  0
  160.9530  201.3910  148.0960 O   0  0  0  0  0  1  0  0  0  0  0  0
  160.0810  201.5920  145.2610 C   0  0  0  0  0  1  0  0  0  0  0  0
  161.2060  203.7310  145.2810 N   0  0  0  0  0  1  0  0  0  0  0  0
  161.1490  202.4330  145.9350 C   0  0  1  0  0  3  0  0  0  0  0  0
  2  8  1  0  0  0  0
  2  7  1  1  0  0  0
  3 12  2  0  0  0  0
  3 17  1  0  0  0  0
  4  2  1  0  0  0  0
  5  8  1  0  0  0  0
  6 10  2  0  0  0  0
  7 11  2  0  0  0  0
  7 17  1  0  0  0  0
  8  3  1  0  0  0  0
  9 12  1  0  0  0  0
  9 10  1  0  0  0  0
 10  1  1  0  0  0  0
 12 18  1  0  0  0  0
 13 19  1  0  0  0  0
 14  4  1  0  0  0  0
 14  5  1  0  0  0  0
 15 13  1  0  0  0  0
 16  5  2  0  0  0  0
 17 15  2  0  0  0  0
 18  1  1  0  0  0  0
 18 13  2  0  0  0  0
 20  4  1  0  0  0  0
 21 20  1  0  0  0  0
 21 22  1  1  0  0  0
 24 25  1  0  0  0  0
 25 23  1  6  0  0  0
 25 21  1  0  0  0  0
M  END
>  <MODEL>
4

>  <REMARK>
 VINA RESULT:      -8.1      2.032      7.015
  Name = 
  3 active torsions:
  status: ('A' for Active; 'I' for Inactive)
    1  A    between atoms: N_4  and  C_24
    2  A    between atoms: C_10  and  C_11
    3  A    between atoms: C_11  and  C_24
                            x       y       z     vdW  Elec       q    Type
                         _______ _______ _______ _____ _____    ______ ____

>  <TORSDO>
F 3

$$$$
=
 OpenBabel11052410373D

 25 28  0  0  1  0  0  0  0  0999 V2000
  160.9750  203.9510  148.7790 N   0  0  0  0  0  2  0  0  0  0  0  0
  162.2270  208.7570  151.8980 C   0  0  2  0  0  3  0  0  0  0  0  0
  161.7300  206.8330  150.6680 C   0  0  0  0  0  0  0  0  0  0  0  0
  161.2540  209.4180  152.7850 N   0  0  0  0  0  0  0  0  0  0  0  0
  161.1310  207.1060  153.0600 C   0  0  0  0  0  0  0  0  0  0  0  0
  161.0450  202.2470  150.3130 O   0  0  0  0  0  0  0  0  0  0  0  0
  161.9560  209.0770  150.4530 C   0  0  0  0  0  0  0  0  0  0  0  0
  162.0100  207.3120  151.9830 N   0  0  0  0  0  0  0  0  0  0  0  0
  161.4600  204.4020  150.9790 N   0  0  0  0  0  2  0  0  0  0  0  0
  161.1540  203.4710  150.0390 C   0  0  0  0  0  0  0  0  0  0  0  0
  161.9890  210.2250  149.9380 O   0  0  0  0  0  0  0  0  0  0  0  0
  161.4690  205.5300  150.2560 C   0  0  0  0  0  0  0  0  0  0  0  0
  161.1330  206.2840  147.9720 C   0  0  0  0  0  0  0  0  0  0  0  0
  160.6960  208.3760  153.6580 C   0  0  0  0  0  2  0  0  0  0  0  0
  161.3870  207.6130  148.3840 C   0  0  0  0  0  3  0  0  0  0  0  0
  160.7430  205.9700  153.4380 O   0  0  0  0  0  0  0  0  0  0  0  0
  161.6840  207.8470  149.7400 C   0  0  0  0  0  0  0  0  0  0  0  0
  161.1830  205.2670  148.9450 C   0  0  0  0  0  0  0  0  0  0  0  0
  160.8170  205.9850  146.5490 C   0  0  0  0  0  1  0  0  0  0  0  0
  162.0050  210.3280  153.6390 C   0  0  0  0  0  2  0  0  0  0  0  0
  161.3030  210.5330  154.9800 C   0  0  2  0  0  3  0  0  0  0  0  0
  160.6030  211.7430  154.9680 O   0  0  0  0  0  1  0  0  0  0  0  0
  161.8760  211.4760  157.2270 C   0  0  0  0  0  1  0  0  0  0  0  0
  162.3290  209.1570  156.7210 N   0  0  0  0  0  1  0  0  0  0  0  0
  162.2890  210.4930  156.1480 C   0  0  1  0  0  3  0  0  0  0  0  0
  1 18  1  0  0  0  0
  1 10  1  0  0  0  0
  2  7  1  6  0  0  0
  2  8  1  0  0  0  0
  2  4  1  0  0  0  0
  3  8  1  0  0  0  0
  4 20  1  0  0  0  0
  4 14  1  0  0  0  0
  5 16  2  0  0  0  0
  5 14  1  0  0  0  0
  8  5  1  0  0  0  0
 10  6  2  0  0  0  0
 10  9  1  0  0  0  0
 11  7  2  0  0  0  0
 12  3  1  0  0  0  0
 12  9  1  0  0  0  0
 13 15  2  0  0  0  0
 13 18  1  0  0  0  0
 15 17  1  0  0  0  0
 17  7  1  0  0  0  0
 17  3  2  0  0  0  0
 18 12  2  0  0  0  0
 19 13  1  0  0  0  0
 20 21  1  0  0  0  0
 21 22  1  6  0  0  0
 21 25  1  0  0  0  0
 25 24  1  0  0  0  0
 25 23  1  1  0  0  0
M  END
>  <MODEL>
5

>  <REMARK>
 VINA RESULT:      -8.0      2.368      4.270
  Name = 
  3 active torsions:
  status: ('A' for Active; 'I' for Inactive)
    1  A    between atoms: N_4  and  C_24
    2  A    between atoms: C_10  and  C_11
    3  A    between atoms: C_11  and  C_24
                            x       y       z     vdW  Elec       q    Type
                         _______ _______ _______ _____ _____    ______ ____

>  <TORSDO>
F 3

$$$$
=
 OpenBabel11052410373D

 25 28  0  0  1  0  0  0  0  0999 V2000
  162.0140  210.4510  151.5680 N   0  0  0  0  0  2  0  0  0  0  0  0
  160.5220  204.9310  150.2630 C   0  0  2  0  0  3  0  0  0  0  0  0
  161.1140  207.1280  150.7990 C   0  0  0  0  0  0  0  0  0  0  0  0
  161.4280  203.7850  150.4550 N   0  0  0  0  0  0  0  0  0  0  0  0
  161.5450  205.2020  152.3030 C   0  0  0  0  0  0  0  0  0  0  0  0
  161.8490  210.5560  153.8530 O   0  0  0  0  0  0  0  0  0  0  0  0
  160.8900  205.7210  149.0370 C   0  0  0  0  0  0  0  0  0  0  0  0
  160.7420  205.8710  151.3640 N   0  0  0  0  0  0  0  0  0  0  0  0
  161.3760  208.5950  152.7630 N   0  0  0  0  0  2  0  0  0  0  0  0
  161.7510  209.9000  152.7830 C   0  0  0  0  0  0  0  0  0  0  0  0
  160.8850  205.2850  147.8570 O   0  0  0  0  0  0  0  0  0  0  0  0
  161.4110  208.3190  151.4520 C   0  0  0  0  0  0  0  0  0  0  0  0
  161.8980  209.3990  149.3320 C   0  0  0  0  0  0  0  0  0  0  0  0
  161.9310  203.8640  151.8330 C   0  0  0  0  0  2  0  0  0  0  0  0
  161.6080  208.1880  148.6600 C   0  0  0  0  0  3  0  0  0  0  0  0
  161.9140  205.7080  153.3940 O   0  0  0  0  0  0  0  0  0  0  0  0
  161.2170  207.0750  149.4290 C   0  0  0  0  0  0  0  0  0  0  0  0
  161.7870  209.4220  150.7350 C   0  0  0  0  0  0  0  0  0  0  0  0
  162.3120  210.6050  148.5640 C   0  0  0  0  0  1  0  0  0  0  0  0
  160.6150  202.5790  150.3690 C   0  0  0  0  0  2  0  0  0  0  0  0
  160.1410  202.3340  148.9370 C   0  0  2  0  0  3  0  0  0  0  0  0
  159.0950  201.4080  148.9370 O   0  0  0  0  0  1  0  0  0  0  0  0
  161.5670  200.3870  148.2730 C   0  0  0  0  0  1  0  0  0  0  0  0
  160.9260  202.0480  146.6400 N   0  0  0  0  0  1  0  0  0  0  0  0
  161.2810  201.8580  148.0370 C   0  0  1  0  0  3  0  0  0  0  0  0
  1 10  1  0  0  0  0
  2  7  1  6  0  0  0
  2  4  1  0  0  0  0
  2  8  1  0  0  0  0
  3  8  1  0  0  0  0
  3 12  1  0  0  0  0
  4 14  1  0  0  0  0
  5 16  2  0  0  0  0
  7 17  1  0  0  0  0
  8  5  1  0  0  0  0
  9 10  1  0  0  0  0
 10  6  2  0  0  0  0
 11  7  2  0  0  0  0
 12  9  1  0  0  0  0
 13 18  1  0  0  0  0
 14  5  1  0  0  0  0
 15 13  2  0  0  0  0
 15 17  1  0  0  0  0
 17  3  2  0  0  0  0
 18 12  2  0  0  0  0
 18  1  1  0  0  0  0
 19 13  1  0  0  0  0
 20  4  1  0  0  0  0
 21 22  1  1  0  0  0
 21 20  1  0  0  0  0
 24 25  1  0  0  0  0
 25 23  1  6  0  0  0
 25 21  1  0  0  0  0
M  END
>  <MODEL>
6

>  <REMARK>
 VINA RESULT:      -7.8      2.293      6.861
  Name = 
  3 active torsions:
  status: ('A' for Active; 'I' for Inactive)
    1  A    between atoms: N_4  and  C_24
    2  A    between atoms: C_10  and  C_11
    3  A    between atoms: C_11  and  C_24
                            x       y       z     vdW  Elec       q    Type
                         _______ _______ _______ _____ _____    ______ ____

>  <TORSDO>
F 3

$$$$
=
 OpenBabel11052410373D

 25 28  0  0  1  0  0  0  0  0999 V2000
  161.1400  202.8190  145.6380 N   0  0  0  0  0  2  0  0  0  0  0  0
  162.0460  206.5220  150.0940 C   0  0  2  0  0  3  0  0  0  0  0  0
  161.6850  205.0340  148.3290 C   0  0  0  0  0  0  0  0  0  0  0  0
  160.9870  206.9220  151.0380 N   0  0  0  0  0  0  0  0  0  0  0  0
  160.8620  204.6290  150.6340 C   0  0  0  0  0  0  0  0  0  0  0  0
  161.0820  200.7500  146.6260 O   0  0  0  0  0  0  0  0  0  0  0  0
  161.9080  207.2430  148.7810 C   0  0  0  0  0  0  0  0  0  0  0  0
  161.8350  205.1160  149.7450 N   0  0  0  0  0  0  0  0  0  0  0  0
  161.4110  202.6200  147.9110 N   0  0  0  0  0  2  0  0  0  0  0  0
  161.2040  201.9990  146.7210 C   0  0  0  0  0  0  0  0  0  0  0  0
  161.9790  208.4890  148.6180 O   0  0  0  0  0  0  0  0  0  0  0  0
  161.4770  203.9060  147.5420 C   0  0  0  0  0  0  0  0  0  0  0  0
  161.3500  205.2820  145.5440 C   0  0  0  0  0  0  0  0  0  0  0  0
  160.3600  205.6850  151.5240 C   0  0  0  0  0  2  0  0  0  0  0  0
  161.5510  206.4350  146.3380 C   0  0  0  0  0  3  0  0  0  0  0  0
  160.4510  203.4400  150.6360 O   0  0  0  0  0  0  0  0  0  0  0  0
  161.7170  206.2700  147.7260 C   0  0  0  0  0  0  0  0  0  0  0  0
  161.3180  204.0300  146.1890 C   0  0  0  0  0  0  0  0  0  0  0  0
  161.1730  205.4030  144.0720 C   0  0  0  0  0  1  0  0  0  0  0  0
  161.6460  207.5400  152.1810 C   0  0  0  0  0  2  0  0  0  0  0  0
  161.2900  209.0220  152.2870 C   0  0  2  0  0  3  0  0  0  0  0  0
  162.3470  209.7980  151.8000 O   0  0  0  0  0  1  0  0  0  0  0  0
  160.9730  208.2070  154.6330 C   0  0  0  0  0  1  0  0  0  0  0  0
  161.9060  210.3960  154.2120 N   0  0  0  0  0  1  0  0  0  0  0  0
  160.9460  209.4210  153.7220 C   0  0  1  0  0  3  0  0  0  0  0  0
  1 18  1  0  0  0  0
  1 10  1  0  0  0  0
  2  7  1  6  0  0  0
  2  4  1  0  0  0  0
  3  8  1  0  0  0  0
  4 14  1  0  0  0  0
  4 20  1  0  0  0  0
  5 16  2  0  0  0  0
  5 14  1  0  0  0  0
  6 10  2  0  0  0  0
  8  2  1  0  0  0  0
  8  5  1  0  0  0  0
 10  9  1  0  0  0  0
 11  7  2  0  0  0  0
 12  9  1  0  0  0  0
 12  3  2  0  0  0  0
 13 18  2  0  0  0  0
 13 15  1  0  0  0  0
 15 17  2  0  0  0  0
 17  3  1  0  0  0  0
 17  7  1  0  0  0  0
 18 12  1  0  0  0  0
 19 13  1  0  0  0  0
 20 21  1  0  0  0  0
 21 22  1  1  0  0  0
 21 25  1  0  0  0  0
 25 24  1  0  0  0  0
 25 23  1  1  0  0  0
M  END
>  <MODEL>
7

>  <REMARK>
 VINA RESULT:      -7.7      1.842      3.259
  Name = 
  3 active torsions:
  status: ('A' for Active; 'I' for Inactive)
    1  A    between atoms: N_4  and  C_24
    2  A    between atoms: C_10  and  C_11
    3  A    between atoms: C_11  and  C_24
                            x       y       z     vdW  Elec       q    Type
                         _______ _______ _______ _____ _____    ______ ____

>  <TORSDO>
F 3

$$$$
=
 OpenBabel11052410373D

 25 28  0  0  1  0  0  0  0  0999 V2000
  161.0780  201.8550  148.5230 N   0  0  0  0  0  2  0  0  0  0  0  0
  160.9390  207.5480  149.9230 C   0  0  2  0  0  3  0  0  0  0  0  0
  160.9940  205.2830  149.3500 C   0  0  0  0  0  0  0  0  0  0  0  0
  162.1100  208.4350  149.8080 N   0  0  0  0  0  0  0  0  0  0  0  0
  161.9670  207.0670  147.9260 C   0  0  0  0  0  0  0  0  0  0  0  0
  161.0120  201.8350  146.2310 O   0  0  0  0  0  0  0  0  0  0  0  0
  161.0340  206.6700  151.1410 C   0  0  0  0  0  0  0  0  0  0  0  0
  160.9750  206.6020  148.8060 N   0  0  0  0  0  0  0  0  0  0  0  0
  160.9850  203.8320  147.3570 N   0  0  0  0  0  2  0  0  0  0  0  0
  161.0250  202.4750  147.3140 C   0  0  0  0  0  0  0  0  0  0  0  0
  161.0760  207.0730  152.3320 O   0  0  0  0  0  0  0  0  0  0  0  0
  161.0180  204.0670  148.6760 C   0  0  0  0  0  0  0  0  0  0  0  0
  161.1110  202.8630  150.7820 C   0  0  0  0  0  0  0  0  0  0  0  0
  162.6480  208.2580  148.4530 C   0  0  0  0  0  2  0  0  0  0  0  0
  161.0960  204.0950  151.4760 C   0  0  0  0  0  3  0  0  0  0  0  0
  162.2550  206.5040  146.8380 O   0  0  0  0  0  0  0  0  0  0  0  0
  161.0350  205.2840  150.7240 C   0  0  0  0  0  0  0  0  0  0  0  0
  161.0710  202.8930  149.3750 C   0  0  0  0  0  0  0  0  0  0  0  0
  161.1720  201.5780  151.5320 C   0  0  0  0  0  1  0  0  0  0  0  0
  161.6180  209.8040  149.8930 C   0  0  0  0  0  2  0  0  0  0  0  0
  161.9790  210.4380  151.2360 C   0  0  2  0  0  3  0  0  0  0  0  0
  162.9600  209.6710  151.8720 O   0  0  0  0  0  1  0  0  0  0  0  0
  161.1380  210.4330  153.5940 C   0  0  0  0  0  1  0  0  0  0  0  0
  160.1660  211.9140  151.9500 N   0  0  0  0  0  1  0  0  0  0  0  0
  160.7530  210.5960  152.1350 C   0  0  1  0  0  3  0  0  0  0  0  0
  1 18  1  0  0  0  0
  2  7  1  1  0  0  0
  3 17  1  0  0  0  0
  4 20  1  0  0  0  0
  4  2  1  0  0  0  0
  5 14  1  0  0  0  0
  5  8  1  0  0  0  0
  6 10  2  0  0  0  0
  7 11  2  0  0  0  0
  8  3  1  0  0  0  0
  8  2  1  0  0  0  0
  9 12  1  0  0  0  0
 10  9  1  0  0  0  0
 10  1  1  0  0  0  0
 12  3  2  0  0  0  0
 12 18  1  0  0  0  0
 13 15  1  0  0  0  0
 13 19  1  0  0  0  0
 14  4  1  0  0  0  0
 16  5  2  0  0  0  0
 17  7  1  0  0  0  0
 17 15  2  0  0  0  0
 18 13  2  0  0  0  0
 20 21  1  0  0  0  0
 21 22  1  1  0  0  0
 21 25  1  0  0  0  0
 24 25  1  0  0  0  0
 25 23  1  1  0  0  0
M  END
>  <MODEL>
8

>  <REMARK>
 VINA RESULT:      -7.6      2.325      3.012
  Name = 
  3 active torsions:
  status: ('A' for Active; 'I' for Inactive)
    1  A    between atoms: N_4  and  C_24
    2  A    between atoms: C_10  and  C_11
    3  A    between atoms: C_11  and  C_24
                            x       y       z     vdW  Elec       q    Type
                         _______ _______ _______ _____ _____    ______ ____

>  <TORSDO>
F 3

$$$$
=
 OpenBabel11052410373D

 25 28  0  0  1  0  0  0  0  0999 V2000
  161.8350  211.0930  150.7890 N   0  0  0  0  0  2  0  0  0  0  0  0
  161.7850  205.2290  150.7600 C   0  0  2  0  0  3  0  0  0  0  0  0
  161.8080  207.5670  150.7560 C   0  0  0  0  0  0  0  0  0  0  0  0
  160.6730  204.4360  150.2070 N   0  0  0  0  0  0  0  0  0  0  0  0
  161.1630  206.2130  148.7800 C   0  0  0  0  0  0  0  0  0  0  0  0
  162.3520  211.6650  148.6280 O   0  0  0  0  0  0  0  0  0  0  0  0
  161.4370  205.7900  152.1130 C   0  0  0  0  0  0  0  0  0  0  0  0
  161.9540  206.4180  149.9220 N   0  0  0  0  0  0  0  0  0  0  0  0
  162.1870  209.4550  149.2170 N   0  0  0  0  0  2  0  0  0  0  0  0
  162.1350  210.7820  149.4990 C   0  0  0  0  0  0  0  0  0  0  0  0
  161.1670  205.1130  153.1380 O   0  0  0  0  0  0  0  0  0  0  0  0
  161.8980  208.9100  150.4070 C   0  0  0  0  0  0  0  0  0  0  0  0
  161.3730  209.5720  152.6830 C   0  0  0  0  0  0  0  0  0  0  0  0
  160.4100  204.9530  148.8570 C   0  0  0  0  0  2  0  0  0  0  0  0
  161.2700  208.2080  153.0460 C   0  0  0  0  0  3  0  0  0  0  0  0
  161.0870  207.0310  147.8270 O   0  0  0  0  0  0  0  0  0  0  0  0
  161.4970  207.2350  152.0540 C   0  0  0  0  0  0  0  0  0  0  0  0
  161.6900  209.8810  151.3470 C   0  0  0  0  0  0  0  0  0  0  0  0
  161.1450  210.6390  153.6960 C   0  0  0  0  0  1  0  0  0  0  0  0
  161.1600  203.0720  150.0510 C   0  0  0  0  0  2  0  0  0  0  0  0
  160.3930  202.3340  148.9540 C   0  0  2  0  0  3  0  0  0  0  0  0
  159.6160  201.3200  149.5210 O   0  0  0  0  0  1  0  0  0  0  0  0
  161.6000  200.2930  148.1530 C   0  0  0  0  0  1  0  0  0  0  0  0
  160.7350  201.9030  146.5730 N   0  0  0  0  0  1  0  0  0  0  0  0
  161.3310  201.7630  147.8910 C   0  0  1  0  0  3  0  0  0  0  0  0
  1 18  1  0  0  0  0
  2  7  1  1  0  0  0
  3 17  1  0  0  0  0
  4  2  1  0  0  0  0
  5 14  1  0  0  0  0
  5  8  1  0  0  0  0
  6 10  2  0  0  0  0
  7 11  2  0  0  0  0
  8  3  1  0  0  0  0
  8  2  1  0  0  0  0
  9 10  1  0  0  0  0
  9 12  1  0  0  0  0
 10  1  1  0  0  0  0
 12  3  2  0  0  0  0
 12 18  1  0  0  0  0
 13 15  1  0  0  0  0
 13 19  1  0  0  0  0
 14  4  1  0  0  0  0
 16  5  2  0  0  0  0
 17  7  1  0  0  0  0
 17 15  2  0  0  0  0
 18 13  2  0  0  0  0
 20  4  1  0  0  0  0
 21 22  1  1  0  0  0
 21 20  1  0  0  0  0
 24 25  1  0  0  0  0
 25 23  1  1  0  0  0
 25 21  1  0  0  0  0
M  END
>  <MODEL>
9

>  <REMARK>
 VINA RESULT:      -7.5      2.219      6.602
  Name = 
  3 active torsions:
  status: ('A' for Active; 'I' for Inactive)
    1  A    between atoms: N_4  and  C_24
    2  A    between atoms: C_10  and  C_11
    3  A    between atoms: C_11  and  C_24
                            x       y       z     vdW  Elec       q    Type
                         _______ _______ _______ _____ _____    ______ ____

>  <TORSDO>
F 3

$$$$
