=
 OpenBabel11052411423D

 42 44  0  0  1  0  0  0  0  0999 V2000
  161.1980  207.9620  151.3380 C   0  0  2  0  0  3  0  0  0  0  0  0
  160.8750  203.7290  149.5570 N   0  0  0  0  0  2  0  0  0  0  0  0
  160.6210  202.8630  148.4520 C   0  0  2  0  0  3  0  0  0  0  0  0
  161.8460  204.3640  146.9120 C   0  0  0  0  0  0  0  0  0  0  0  0
  161.5700  204.9480  149.2820 C   0  0  0  0  0  0  0  0  0  0  0  0
  160.7860  201.5560  148.4780 C   0  0  0  0  0  0  0  0  0  0  0  0
  161.9760  206.6770  151.1950 C   0  0  0  0  0  3  0  0  0  0  0  0
  161.1030  202.0700  146.3610 N   0  0  0  0  0  2  0  0  0  0  0  0
  160.7620  203.3170  147.0380 C   0  0  1  0  0  3  0  0  0  0  0  0
  160.9810  200.7350  149.7060 C   0  0  0  0  0  1  0  0  0  0  0  0
  161.0880  201.0900  147.1720 N   0  0  0  0  0  0  0  0  0  0  0  0
  162.1510  205.1690  147.9410 C   0  0  0  0  0  3  0  0  0  0  0  0
  161.7800  205.8080  150.2370 C   0  0  0  0  0  0  0  0  0  0  0  0
  162.4090  204.6370  145.6340 N   0  0  0  0  0  1  0  0  0  0  0  0
  162.0520  209.2430  151.2360 C   0  0  2  0  0  3  0  0  0  0  0  0
  161.5750  210.3110  152.2100 C   0  0  0  0  0  1  0  0  0  0  0  0
  162.0510  209.8040  149.8410 C   0  0  0  0  0  0  0  0  0  0  0  0
  161.9640  208.8820  148.6590 C   0  0  0  0  0  1  0  0  0  0  0  0
  162.1150  211.1340  149.6870 C   0  0  0  0  0  3  0  0  0  0  0  0
  162.1190  211.8170  148.3550 C   0  0  0  0  0  2  0  0  0  0  0  0
  162.0490  213.2560  148.5360 N   0  0  0  0  0  2  0  0  0  0  0  0
  161.2650  213.7760  147.4300 C   0  0  0  0  0  2  0  0  0  0  0  0
  157.5950  212.7540  147.0580 C   0  0  0  0  0  0  0  0  0  0  0  0
  158.9380  213.0140  146.7010 C   0  0  0  0  0  0  0  0  0  0  0  0
  156.6890  212.2550  146.1280 O   0  0  0  0  0  1  0  0  0  0  0  0
  158.0120  213.5300  149.3130 C   0  0  0  0  0  3  0  0  0  0  0  0
  159.8120  213.5420  147.6870 C   0  0  0  0  0  0  0  0  0  0  0  0
  159.3400  213.7870  148.9810 C   0  0  0  0  0  3  0  0  0  0  0  0
  157.1430  213.0150  148.3530 C   0  0  0  0  0  3  0  0  0  0  0  0
  159.5470  213.3920  142.8870 C   0  0  0  0  0  1  0  0  0  0  0  0
  160.0330  211.6630  145.0730 O   0  0  0  0  0  0  0  0  0  0  0  0
  159.4050  212.7300  145.3190 C   0  0  0  0  0  0  0  0  0  0  0  0
  159.1290  213.6480  144.2560 N   0  0  0  0  0  2  0  0  0  0  0  0
  160.4970  207.9320  152.5470 O   0  0  0  0  0  0  0  0  0  0  0  0
  161.1660  206.9880  153.3310 C   0  0  0  0  0  2  0  0  0  0  0  0
  161.4440  207.5360  154.5830 O   0  0  0  0  0  0  0  0  0  0  0  0
  160.2810  207.3270  155.3230 C   0  0  0  0  0  2  0  0  0  0  0  0
  160.1630  208.3990  156.3920 C   0  0  0  0  0  2  0  0  0  0  0  0
  159.7260  209.6530  155.7960 N   0  0  0  0  0  2  0  0  0  0  0  0
  161.6860  210.8240  156.3060 O   0  0  0  0  0  0  0  0  0  0  0  0
  160.5450  210.8240  155.7710 C   0  0  0  0  0  0  0  0  0  0  0  0
  160.0410  212.0590  155.1160 C   0  0  0  0  0  1  0  0  0  0  0  0
  1  7  1  1  0  0  0
  1 34  1  0  0  0  0
  3  6  1  1  0  0  0
  3  2  1  0  0  0  0
  4  9  1  0  0  0  0
  4 12  2  0  0  0  0
  5  2  1  0  0  0  0
  5 13  2  0  0  0  0
  6 10  1  0  0  0  0
  8 11  1  0  0  0  0
  9  8  1  6  0  0  0
  9  3  1  0  0  0  0
 11  6  2  0  0  0  0
 12  5  1  0  0  0  0
 13  7  2  0  0  0  0
 14  4  1  0  0  0  0
 15  1  1  0  0  0  0
 15 16  1  1  0  0  0
 17 15  1  0  0  0  0
 18 17  1  0  0  0  0
 19 17  2  0  0  0  0
 20 21  1  0  0  0  0
 20 19  1  0  0  0  0
 22 27  1  0  0  0  0
 22 21  1  0  0  0  0
 23 29  1  0  0  0  0
 24 23  2  0  0  0  0
 24 27  1  0  0  0  0
 25 23  1  0  0  0  0
 27 28  2  0  0  0  0
 28 26  1  0  0  0  0
 29 26  2  0  0  0  0
 30 33  1  0  0  0  0
 31 32  2  0  0  0  0
 32 24  1  0  0  0  0
 33 32  1  0  0  0  0
 34 35  1  0  0  0  0
 35 36  1  0  0  0  0
 36 37  1  0  0  0  0
 37 38  1  0  0  0  0
 39 38  1  0  0  0  0
 41 39  1  0  0  0  0
 41 40  2  0  0  0  0
 42 41  1  0  0  0  0
M  END
>  <MODEL>
1

>  <REMARK>
 VINA RESULT:      -7.0      0.000      0.000
  Name = 
  14 active torsions:
  status: ('A' for Active; 'I' for Inactive)
    1  A    between atoms: C_2  and  C_22
    2  A    between atoms: C_5  and  C_6
    3  A    between atoms: C_5  and  C_19
    4  A    between atoms: N_11  and  C_34
    5  A    between atoms: N_11  and  C_36
    6  A    between atoms: N_14  and  C_28
    7  A    between atoms: C_16  and  O_23
    8  A    between atoms: C_16  and  C_28
    9  A    between atoms: C_18  and  C_19
   10  A    between atoms: C_19  and  O_41
   11  A    between atoms: O_23  and  C_33
   12  A    between atoms: C_24  and  C_36
   13  A    between atoms: C_26  and  C_34
   14  A    between atoms: C_33  and  O_41
                            x       y       z     vdW  Elec       q    Type
                         _______ _______ _______ _____ _____    ______ ____

>  <TORSDO>
F 14

$$$$
=
 OpenBabel11052411423D

 42 44  0  0  1  0  0  0  0  0999 V2000
  162.3130  207.7100  150.8860 C   0  0  2  0  0  3  0  0  0  0  0  0
  161.4780  205.0060  147.2540 N   0  0  0  0  0  2  0  0  0  0  0  0
  161.5140  203.7270  146.6260 C   0  0  2  0  0  3  0  0  0  0  0  0
  160.8280  202.6040  148.7220 C   0  0  0  0  0  0  0  0  0  0  0  0
  161.1710  205.0360  148.6510 C   0  0  0  0  0  0  0  0  0  0  0  0
  160.9810  203.4600  145.4500 C   0  0  0  0  0  0  0  0  0  0  0  0
  161.2060  207.3020  149.9450 C   0  0  0  0  0  3  0  0  0  0  0  0
  160.9040  201.5250  146.4980 N   0  0  0  0  0  2  0  0  0  0  0  0
  161.5620  202.4580  147.4080 C   0  0  1  0  0  3  0  0  0  0  0  0
  160.5140  204.4740  144.4640 C   0  0  0  0  0  1  0  0  0  0  0  0
  160.6080  202.0920  145.3980 N   0  0  0  0  0  0  0  0  0  0  0  0
  160.7290  203.7990  149.3270 C   0  0  0  0  0  3  0  0  0  0  0  0
  161.1810  206.1670  149.2970 C   0  0  0  0  0  0  0  0  0  0  0  0
  160.4150  201.4400  149.4270 N   0  0  0  0  0  1  0  0  0  0  0  0
  162.2330  207.0690  152.2870 C   0  0  2  0  0  3  0  0  0  0  0  0
  161.9630  205.5730  152.2010 C   0  0  0  0  0  1  0  0  0  0  0  0
  161.1770  207.7180  153.1380 C   0  0  0  0  0  0  0  0  0  0  0  0
  160.4990  206.9340  154.2240 C   0  0  0  0  0  1  0  0  0  0  0  0
  160.8750  209.0040  152.9100 C   0  0  0  0  0  3  0  0  0  0  0  0
  159.8470  209.7650  153.6880 C   0  0  0  0  0  2  0  0  0  0  0  0
  160.4880  210.5170  154.7520 N   0  0  0  0  0  2  0  0  0  0  0  0
  160.1430  211.9120  154.5410 C   0  0  0  0  0  2  0  0  0  0  0  0
  156.4510  212.8980  154.3210 C   0  0  0  0  0  0  0  0  0  0  0  0
  157.8180  212.8060  153.9740 C   0  0  0  0  0  0  0  0  0  0  0  0
  155.5460  213.5650  153.5040 O   0  0  0  0  0  1  0  0  0  0  0  0
  156.8570  211.6670  156.3670 C   0  0  0  0  0  3  0  0  0  0  0  0
  158.6990  212.1290  154.8570 C   0  0  0  0  0  0  0  0  0  0  0  0
  158.2070  211.5630  156.0380 C   0  0  0  0  0  3  0  0  0  0  0  0
  155.9830  212.3330  155.5100 C   0  0  0  0  0  3  0  0  0  0  0  0
  158.4150  213.3860  150.1830 C   0  0  0  0  0  1  0  0  0  0  0  0
  159.0530  214.4240  152.7360 O   0  0  0  0  0  0  0  0  0  0  0  0
  158.3010  213.4110  152.7040 C   0  0  0  0  0  0  0  0  0  0  0  0
  157.9400  212.8400  151.4430 N   0  0  0  0  0  2  0  0  0  0  0  0
  162.3320  209.1050  150.9830 O   0  0  0  0  0  0  0  0  0  0  0  0
  162.0670  209.5610  149.6880 C   0  0  0  0  0  2  0  0  0  0  0  0
  161.9840  210.9540  149.6940 O   0  0  0  0  0  0  0  0  0  0  0  0
  162.3500  211.3320  148.4020 C   0  0  0  0  0  2  0  0  0  0  0  0
  161.7650  212.6980  148.0910 C   0  0  0  0  0  2  0  0  0  0  0  0
  160.4940  212.5510  147.3980 N   0  0  0  0  0  2  0  0  0  0  0  0
  161.3620  212.9900  145.2700 O   0  0  0  0  0  0  0  0  0  0  0  0
  160.3660  212.6930  145.9810 C   0  0  0  0  0  0  0  0  0  0  0  0
  159.0380  212.4970  145.3410 C   0  0  0  0  0  1  0  0  0  0  0  0
  1  7  1  6  0  0  0
  1 34  1  0  0  0  0
  1 15  1  0  0  0  0
  2  5  1  0  0  0  0
  3  6  1  1  0  0  0
  3  2  1  0  0  0  0
  3  9  1  0  0  0  0
  4 12  2  0  0  0  0
  4 14  1  0  0  0  0
  5 13  2  0  0  0  0
  5 12  1  0  0  0  0
  9  8  1  6  0  0  0
  9  4  1  0  0  0  0
 10  6  1  0  0  0  0
 11  6  2  0  0  0  0
 11  8  1  0  0  0  0
 13  7  2  0  0  0  0
 15 16  1  6  0  0  0
 15 17  1  0  0  0  0
 17 18  1  0  0  0  0
 19 17  2  0  0  0  0
 19 20  1  0  0  0  0
 20 21  1  0  0  0  0
 22 21  1  0  0  0  0
 22 27  1  0  0  0  0
 23 29  1  0  0  0  0
 24 23  2  0  0  0  0
 24 27  1  0  0  0  0
 25 23  1  0  0  0  0
 27 28  2  0  0  0  0
 28 26  1  0  0  0  0
 29 26  2  0  0  0  0
 30 33  1  0  0  0  0
 32 31  2  0  0  0  0
 32 24  1  0  0  0  0
 33 32  1  0  0  0  0
 35 36  1  0  0  0  0
 35 34  1  0  0  0  0
 37 36  1  0  0  0  0
 38 37  1  0  0  0  0
 39 38  1  0  0  0  0
 40 41  2  0  0  0  0
 41 39  1  0  0  0  0
 42 41  1  0  0  0  0
M  END
>  <MODEL>
2

>  <REMARK>
 VINA RESULT:      -7.0      2.502      6.172
  Name = 
  14 active torsions:
  status: ('A' for Active; 'I' for Inactive)
    1  A    between atoms: C_2  and  C_22
    2  A    between atoms: C_5  and  C_6
    3  A    between atoms: C_5  and  C_19
    4  A    between atoms: N_11  and  C_34
    5  A    between atoms: N_11  and  C_36
    6  A    between atoms: N_14  and  C_28
    7  A    between atoms: C_16  and  O_23
    8  A    between atoms: C_16  and  C_28
    9  A    between atoms: C_18  and  C_19
   10  A    between atoms: C_19  and  O_41
   11  A    between atoms: O_23  and  C_33
   12  A    between atoms: C_24  and  C_36
   13  A    between atoms: C_26  and  C_34
   14  A    between atoms: C_33  and  O_41
                            x       y       z     vdW  Elec       q    Type
                         _______ _______ _______ _____ _____    ______ ____

>  <TORSDO>
F 14

$$$$
=
 OpenBabel11052411423D

 42 44  0  0  1  0  0  0  0  0999 V2000
  161.6800  206.5620  151.9860 C   0  0  2  0  0  3  0  0  0  0  0  0
  161.9930  210.4850  149.5970 N   0  0  0  0  0  2  0  0  0  0  0  0
  161.4370  211.7290  149.1750 C   0  0  2  0  0  3  0  0  0  0  0  0
  160.5120  212.1550  151.4310 C   0  0  0  0  0  0  0  0  0  0  0  0
  161.7280  210.0770  150.9420 C   0  0  0  0  0  0  0  0  0  0  0  0
  162.0880  212.6350  148.4730 C   0  0  0  0  0  0  0  0  0  0  0  0
  162.5760  207.7600  151.7920 C   0  0  0  0  0  3  0  0  0  0  0  0
  160.6220  213.8220  149.6080 N   0  0  0  0  0  2  0  0  0  0  0  0
  160.3700  212.4260  149.9510 C   0  0  1  0  0  3  0  0  0  0  0  0
  163.3800  212.4140  147.7660 C   0  0  0  0  0  1  0  0  0  0  0  0
  161.5670  213.9230  148.7620 N   0  0  0  0  0  0  0  0  0  0  0  0
  161.0720  211.0180  151.8740 C   0  0  0  0  0  3  0  0  0  0  0  0
  162.1570  208.9250  151.3700 C   0  0  0  0  0  0  0  0  0  0  0  0
  159.8680  213.0140  152.3650 N   0  0  0  0  0  1  0  0  0  0  0  0
  161.3200  205.8130  150.6850 C   0  0  2  0  0  3  0  0  0  0  0  0
  160.0730  206.3940  150.0340 C   0  0  0  0  0  1  0  0  0  0  0  0
  161.1180  204.3430  150.9260 C   0  0  0  0  0  0  0  0  0  0  0  0
  161.2190  203.7880  152.3180 C   0  0  0  0  0  1  0  0  0  0  0  0
  160.8360  203.5570  149.8780 C   0  0  0  0  0  3  0  0  0  0  0  0
  160.6110  202.0810  149.9840 C   0  0  0  0  0  2  0  0  0  0  0  0
  160.9090  201.4420  148.7140 N   0  0  0  0  0  2  0  0  0  0  0  0
  161.7470  202.3650  147.9700 C   0  0  0  0  0  2  0  0  0  0  0  0
  160.7540  204.1140  144.7130 C   0  0  0  0  0  0  0  0  0  0  0  0
  161.3590  203.9130  145.9740 C   0  0  0  0  0  0  0  0  0  0  0  0
  160.9620  205.2860  143.9960 O   0  0  0  0  0  1  0  0  0  0  0  0
  159.6640  201.9560  144.8590 C   0  0  0  0  0  3  0  0  0  0  0  0
  161.0940  202.7040  146.6690 C   0  0  0  0  0  0  0  0  0  0  0  0
  160.2560  201.7390  146.1010 C   0  0  0  0  0  3  0  0  0  0  0  0
  159.9130  203.1410  144.1680 C   0  0  0  0  0  3  0  0  0  0  0  0
  162.5460  207.1580  147.7400 C   0  0  0  0  0  1  0  0  0  0  0  0
  163.5050  204.8420  146.4290 O   0  0  0  0  0  0  0  0  0  0  0  0
  162.2530  204.9560  146.5420 C   0  0  0  0  0  0  0  0  0  0  0  0
  161.7050  206.1050  147.1970 N   0  0  0  0  0  2  0  0  0  0  0  0
  160.5220  206.9690  152.6560 O   0  0  0  0  0  0  0  0  0  0  0  0
  160.8490  206.9070  154.0140 C   0  0  0  0  0  2  0  0  0  0  0  0
  160.6570  208.1600  154.5960 O   0  0  0  0  0  0  0  0  0  0  0  0
  161.1750  208.0320  155.8850 C   0  0  0  0  0  2  0  0  0  0  0  0
  160.8710  209.2880  156.6800 C   0  0  0  0  0  2  0  0  0  0  0  0
  159.5980  209.8520  156.2550 N   0  0  0  0  0  2  0  0  0  0  0  0
  160.5110  211.8440  155.4380 O   0  0  0  0  0  0  0  0  0  0  0  0
  159.4910  211.1290  155.6230 C   0  0  0  0  0  0  0  0  0  0  0  0
  158.1580  211.6240  155.1900 C   0  0  0  0  0  1  0  0  0  0  0  0
  1  7  1  6  0  0  0
  1 34  1  0  0  0  0
  2  5  1  0  0  0  0
  3  6  1  1  0  0  0
  3  2  1  0  0  0  0
  3  9  1  0  0  0  0
  4 12  2  0  0  0  0
  4 14  1  0  0  0  0
  5 13  2  0  0  0  0
  5 12  1  0  0  0  0
  6 11  2  0  0  0  0
  9  8  1  1  0  0  0
  9  4  1  0  0  0  0
 10  6  1  0  0  0  0
 11  8  1  0  0  0  0
 13  7  2  0  0  0  0
 15 16  1  1  0  0  0
 15 17  1  0  0  0  0
 15  1  1  0  0  0  0
 17 18  1  0  0  0  0
 19 20  1  0  0  0  0
 19 17  2  0  0  0  0
 21 20  1  0  0  0  0
 22 21  1  0  0  0  0
 23 24  1  0  0  0  0
 24 32  1  0  0  0  0
 24 27  2  0  0  0  0
 25 23  1  0  0  0  0
 26 28  2  0  0  0  0
 27 22  1  0  0  0  0
 28 27  1  0  0  0  0
 29 23  2  0  0  0  0
 29 26  1  0  0  0  0
 31 32  2  0  0  0  0
 32 33  1  0  0  0  0
 33 30  1  0  0  0  0
 34 35  1  0  0  0  0
 35 36  1  0  0  0  0
 36 37  1  0  0  0  0
 37 38  1  0  0  0  0
 39 38  1  0  0  0  0
 40 41  2  0  0  0  0
 41 39  1  0  0  0  0
 42 41  1  0  0  0  0
M  END
>  <MODEL>
3

>  <REMARK>
 VINA RESULT:      -6.8      2.733      8.069
  Name = 
  14 active torsions:
  status: ('A' for Active; 'I' for Inactive)
    1  A    between atoms: C_2  and  C_22
    2  A    between atoms: C_5  and  C_6
    3  A    between atoms: C_5  and  C_19
    4  A    between atoms: N_11  and  C_34
    5  A    between atoms: N_11  and  C_36
    6  A    between atoms: N_14  and  C_28
    7  A    between atoms: C_16  and  O_23
    8  A    between atoms: C_16  and  C_28
    9  A    between atoms: C_18  and  C_19
   10  A    between atoms: C_19  and  O_41
   11  A    between atoms: O_23  and  C_33
   12  A    between atoms: C_24  and  C_36
   13  A    between atoms: C_26  and  C_34
   14  A    between atoms: C_33  and  O_41
                            x       y       z     vdW  Elec       q    Type
                         _______ _______ _______ _____ _____    ______ ____

>  <TORSDO>
F 14

$$$$
=
 OpenBabel11052411423D

 42 44  0  0  1  0  0  0  0  0999 V2000
  161.6120  208.1340  151.7380 C   0  0  2  0  0  3  0  0  0  0  0  0
  161.6180  205.7980  147.7700 N   0  0  0  0  0  2  0  0  0  0  0  0
  161.8150  204.5870  147.0440 C   0  0  2  0  0  3  0  0  0  0  0  0
  160.7360  203.2600  148.8330 C   0  0  0  0  0  0  0  0  0  0  0  0
  161.0260  205.6880  149.0680 C   0  0  0  0  0  0  0  0  0  0  0  0
  161.5460  204.4350  145.7630 C   0  0  0  0  0  0  0  0  0  0  0  0
  160.7350  207.8160  150.5510 C   0  0  0  0  0  3  0  0  0  0  0  0
  161.2990  202.4060  146.5810 N   0  0  0  0  0  2  0  0  0  0  0  0
  161.7300  203.2470  147.6940 C   0  0  1  0  0  3  0  0  0  0  0  0
  161.2690  205.5400  144.8030 C   0  0  0  0  0  1  0  0  0  0  0  0
  161.2250  203.0770  145.5030 N   0  0  0  0  0  0  0  0  0  0  0  0
  160.4840  204.3890  149.5150 C   0  0  0  0  0  3  0  0  0  0  0  0
  160.8730  206.7500  149.8070 C   0  0  0  0  0  0  0  0  0  0  0  0
  160.2140  202.0300  149.3210 N   0  0  0  0  0  1  0  0  0  0  0  0
  162.4460  209.4230  151.5910 C   0  0  2  0  0  3  0  0  0  0  0  0
  162.6250  210.1270  152.9300 C   0  0  0  0  0  1  0  0  0  0  0  0
  161.8310  210.3770  150.6050 C   0  0  0  0  0  0  0  0  0  0  0  0
  160.7750  211.3460  151.0540 C   0  0  0  0  0  1  0  0  0  0  0  0
  162.2580  210.3460  149.3350 C   0  0  0  0  0  3  0  0  0  0  0  0
  161.7300  211.2420  148.2590 C   0  0  0  0  0  2  0  0  0  0  0  0
  162.6460  212.3480  148.0410 N   0  0  0  0  0  2  0  0  0  0  0  0
  161.8680  213.4220  147.4510 C   0  0  0  0  0  2  0  0  0  0  0  0
  160.5110  213.0090  143.8960 C   0  0  0  0  0  0  0  0  0  0  0  0
  160.5140  213.1250  145.3040 C   0  0  0  0  0  0  0  0  0  0  0  0
  159.3200  212.8950  143.1880 O   0  0  0  0  0  1  0  0  0  0  0  0
  162.9310  213.0840  143.8540 C   0  0  0  0  0  3  0  0  0  0  0  0
  161.7620  213.2190  145.9750 C   0  0  0  0  0  0  0  0  0  0  0  0
  162.9530  213.2040  145.2420 C   0  0  0  0  0  3  0  0  0  0  0  0
  161.7130  212.9870  143.1840 C   0  0  0  0  0  3  0  0  0  0  0  0
  157.4670  214.4380  147.3170 C   0  0  0  0  0  1  0  0  0  0  0  0
  158.5970  212.0740  146.2490 O   0  0  0  0  0  0  0  0  0  0  0  0
  159.2280  213.1490  146.0490 C   0  0  0  0  0  0  0  0  0  0  0  0
  158.7070  214.3790  146.5610 N   0  0  0  0  0  2  0  0  0  0  0  0
  162.4410  207.0360  151.9920 O   0  0  0  0  0  0  0  0  0  0  0  0
  161.8870  206.4180  153.1170 C   0  0  0  0  0  2  0  0  0  0  0  0
  160.7900  207.1560  153.5610 O   0  0  0  0  0  0  0  0  0  0  0  0
  160.7700  206.9590  154.9420 C   0  0  0  0  0  2  0  0  0  0  0  0
  161.1100  208.2610  155.6440 C   0  0  0  0  0  2  0  0  0  0  0  0
  160.0940  209.2620  155.3570 N   0  0  0  0  0  2  0  0  0  0  0  0
  161.2530  211.0310  156.3590 O   0  0  0  0  0  0  0  0  0  0  0  0
  160.2370  210.6360  155.7270 C   0  0  0  0  0  0  0  0  0  0  0  0
  159.1690  211.6060  155.3720 C   0  0  0  0  0  1  0  0  0  0  0  0
  1  7  1  6  0  0  0
  1 34  1  0  0  0  0
  2  5  1  0  0  0  0
  3  6  1  6  0  0  0
  3  9  1  0  0  0  0
  3  2  1  0  0  0  0
  4 14  1  0  0  0  0
  4 12  2  0  0  0  0
  5 12  1  0  0  0  0
  5 13  2  0  0  0  0
  9  8  1  6  0  0  0
  9  4  1  0  0  0  0
 10  6  1  0  0  0  0
 11  6  2  0  0  0  0
 11  8  1  0  0  0  0
 13  7  2  0  0  0  0
 15  1  1  0  0  0  0
 15 16  1  1  0  0  0
 17 18  1  0  0  0  0
 17 15  1  0  0  0  0
 19 17  2  0  0  0  0
 20 19  1  0  0  0  0
 21 20  1  0  0  0  0
 22 21  1  0  0  0  0
 23 24  1  0  0  0  0
 24 27  2  0  0  0  0
 24 32  1  0  0  0  0
 25 23  1  0  0  0  0
 26 28  2  0  0  0  0
 27 22  1  0  0  0  0
 28 27  1  0  0  0  0
 29 26  1  0  0  0  0
 29 23  2  0  0  0  0
 32 31  2  0  0  0  0
 32 33  1  0  0  0  0
 33 30  1  0  0  0  0
 34 35  1  0  0  0  0
 35 36  1  0  0  0  0
 36 37  1  0  0  0  0
 37 38  1  0  0  0  0
 39 38  1  0  0  0  0
 39 41  1  0  0  0  0
 41 40  2  0  0  0  0
 42 41  1  0  0  0  0
M  END
>  <MODEL>
4

>  <REMARK>
 VINA RESULT:      -6.5      1.521      2.971
  Name = 
  14 active torsions:
  status: ('A' for Active; 'I' for Inactive)
    1  A    between atoms: C_2  and  C_22
    2  A    between atoms: C_5  and  C_6
    3  A    between atoms: C_5  and  C_19
    4  A    between atoms: N_11  and  C_34
    5  A    between atoms: N_11  and  C_36
    6  A    between atoms: N_14  and  C_28
    7  A    between atoms: C_16  and  O_23
    8  A    between atoms: C_16  and  C_28
    9  A    between atoms: C_18  and  C_19
   10  A    between atoms: C_19  and  O_41
   11  A    between atoms: O_23  and  C_33
   12  A    between atoms: C_24  and  C_36
   13  A    between atoms: C_26  and  C_34
   14  A    between atoms: C_33  and  O_41
                            x       y       z     vdW  Elec       q    Type
                         _______ _______ _______ _____ _____    ______ ____

>  <TORSDO>
F 14

$$$$
=
 OpenBabel11052411423D

 42 44  0  0  1  0  0  0  0  0999 V2000
  161.7380  209.2920  152.0310 C   0  0  2  0  0  3  0  0  0  0  0  0
  161.8190  211.7900  148.1650 N   0  0  0  0  0  2  0  0  0  0  0  0
  161.1400  212.5200  147.1450 C   0  0  2  0  0  3  0  0  0  0  0  0
  159.5990  213.5260  148.7990 C   0  0  0  0  0  0  0  0  0  0  0  0
  161.3100  211.9070  149.4960 C   0  0  0  0  0  0  0  0  0  0  0  0
  161.7430  213.2110  146.1980 C   0  0  0  0  0  0  0  0  0  0  0  0
  162.3800  210.5170  151.4280 C   0  0  0  0  0  3  0  0  0  0  0  0
  159.8180  214.2510  146.4440 N   0  0  0  0  0  2  0  0  0  0  0  0
  159.7880  213.1120  147.3570 C   0  0  1  0  0  3  0  0  0  0  0  0
  163.1900  213.1250  145.8550 C   0  0  0  0  0  1  0  0  0  0  0  0
  160.9060  214.2800  145.7840 N   0  0  0  0  0  0  0  0  0  0  0  0
  160.2530  212.8980  149.7880 C   0  0  0  0  0  3  0  0  0  0  0  0
  161.8470  211.2200  150.4630 C   0  0  0  0  0  0  0  0  0  0  0  0
  158.5700  214.4500  149.1320 N   0  0  0  0  0  1  0  0  0  0  0  0
  162.0990  207.9670  151.3280 C   0  0  2  0  0  3  0  0  0  0  0  0
  161.5940  207.9420  149.8920 C   0  0  0  0  0  1  0  0  0  0  0  0
  161.5550  206.7770  152.0690 C   0  0  0  0  0  0  0  0  0  0  0  0
  161.5620  206.7580  153.5700 C   0  0  0  0  0  1  0  0  0  0  0  0
  161.0570  205.7560  151.3590 C   0  0  0  0  0  3  0  0  0  0  0  0
  160.4850  204.5170  151.9740 C   0  0  0  0  0  2  0  0  0  0  0  0
  161.0150  203.3410  151.3070 N   0  0  0  0  0  2  0  0  0  0  0  0
  161.6100  203.8000  150.0650 C   0  0  0  0  0  2  0  0  0  0  0  0
  161.1400  202.1790  146.6300 C   0  0  0  0  0  0  0  0  0  0  0  0
  161.3660  203.1840  147.5980 C   0  0  0  0  0  0  0  0  0  0  0  0
  161.1650  202.4730  145.2710 O   0  0  0  0  0  1  0  0  0  0  0  0
  160.8170  200.5300  148.3730 C   0  0  0  0  0  3  0  0  0  0  0  0
  161.3090  202.8290  148.9710 C   0  0  0  0  0  0  0  0  0  0  0  0
  161.0420  201.5070  149.3410 C   0  0  0  0  0  3  0  0  0  0  0  0
  160.8660  200.8670  147.0220 C   0  0  0  0  0  3  0  0  0  0  0  0
  160.8780  206.9430  146.7660 C   0  0  0  0  0  1  0  0  0  0  0  0
  162.8080  204.8760  146.7420 O   0  0  0  0  0  0  0  0  0  0  0  0
  161.6580  204.5760  147.1660 C   0  0  0  0  0  0  0  0  0  0  0  0
  160.6380  205.5790  147.2050 N   0  0  0  0  0  2  0  0  0  0  0  0
  160.3520  209.4760  152.0560 O   0  0  0  0  0  0  0  0  0  0  0  0
  160.1460  210.5660  152.9070 C   0  0  0  0  0  2  0  0  0  0  0  0
  160.3200  210.1620  154.2300 O   0  0  0  0  0  0  0  0  0  0  0  0
  160.5530  211.3460  154.9300 C   0  0  0  0  0  2  0  0  0  0  0  0
  159.5360  211.4800  156.0490 C   0  0  0  0  0  2  0  0  0  0  0  0
  158.5760  212.5260  155.7270 N   0  0  0  0  0  2  0  0  0  0  0  0
  157.0180  211.0860  154.7420 O   0  0  0  0  0  0  0  0  0  0  0  0
  157.3260  212.2570  155.0880 C   0  0  0  0  0  0  0  0  0  0  0  0
  156.3840  213.3750  154.8200 C   0  0  0  0  0  1  0  0  0  0  0  0
  1  7  1  6  0  0  0
  1 34  1  0  0  0  0
  2  5  1  0  0  0  0
  3  6  1  1  0  0  0
  3  9  1  0  0  0  0
  3  2  1  0  0  0  0
  4 14  1  0  0  0  0
  4 12  2  0  0  0  0
  5 12  1  0  0  0  0
  5 13  2  0  0  0  0
  9  8  1  6  0  0  0
  9  4  1  0  0  0  0
 10  6  1  0  0  0  0
 11  6  2  0  0  0  0
 11  8  1  0  0  0  0
 13  7  2  0  0  0  0
 15 16  1  6  0  0  0
 15  1  1  0  0  0  0
 15 17  1  0  0  0  0
 17 18  1  0  0  0  0
 19 20  1  0  0  0  0
 19 17  2  0  0  0  0
 21 20  1  0  0  0  0
 22 21  1  0  0  0  0
 23 29  2  0  0  0  0
 23 24  1  0  0  0  0
 24 27  2  0  0  0  0
 25 23  1  0  0  0  0
 26 28  2  0  0  0  0
 27 28  1  0  0  0  0
 27 22  1  0  0  0  0
 29 26  1  0  0  0  0
 30 33  1  0  0  0  0
 31 32  2  0  0  0  0
 32 33  1  0  0  0  0
 32 24  1  0  0  0  0
 34 35  1  0  0  0  0
 35 36  1  0  0  0  0
 36 37  1  0  0  0  0
 37 38  1  0  0  0  0
 39 38  1  0  0  0  0
 40 41  2  0  0  0  0
 41 39  1  0  0  0  0
 42 41  1  0  0  0  0
M  END
>  <MODEL>
5

>  <REMARK>
 VINA RESULT:      -6.2      2.604      8.434
  Name = 
  14 active torsions:
  status: ('A' for Active; 'I' for Inactive)
    1  A    between atoms: C_2  and  C_22
    2  A    between atoms: C_5  and  C_6
    3  A    between atoms: C_5  and  C_19
    4  A    between atoms: N_11  and  C_34
    5  A    between atoms: N_11  and  C_36
    6  A    between atoms: N_14  and  C_28
    7  A    between atoms: C_16  and  O_23
    8  A    between atoms: C_16  and  C_28
    9  A    between atoms: C_18  and  C_19
   10  A    between atoms: C_19  and  O_41
   11  A    between atoms: O_23  and  C_33
   12  A    between atoms: C_24  and  C_36
   13  A    between atoms: C_26  and  C_34
   14  A    between atoms: C_33  and  O_41
                            x       y       z     vdW  Elec       q    Type
                         _______ _______ _______ _____ _____    ______ ____

>  <TORSDO>
F 14

$$$$
=
 OpenBabel11052411423D

 42 44  0  0  1  0  0  0  0  0999 V2000
  161.2370  207.3150  149.7810 C   0  0  2  0  0  3  0  0  0  0  0  0
  160.9650  203.4940  147.2280 N   0  0  0  0  0  2  0  0  0  0  0  0
  161.3340  202.1390  146.9800 C   0  0  2  0  0  3  0  0  0  0  0  0
  161.1870  201.5880  149.3880 C   0  0  0  0  0  0  0  0  0  0  0  0
  160.7770  203.8770  148.5930 C   0  0  0  0  0  0  0  0  0  0  0  0
  160.8140  201.3880  146.0290 C   0  0  0  0  0  0  0  0  0  0  0  0
  160.2320  206.3590  149.1880 C   0  0  0  0  0  3  0  0  0  0  0  0
  161.4060  199.9290  147.5680 N   0  0  0  0  0  2  0  0  0  0  0  0
  161.8230  201.2370  148.0630 C   0  0  1  0  0  3  0  0  0  0  0  0
  159.9860  201.8840  144.8950 C   0  0  0  0  0  1  0  0  0  0  0  0
  160.8660  200.0250  146.4190 N   0  0  0  0  0  0  0  0  0  0  0  0
  160.7820  202.8420  149.6480 C   0  0  0  0  0  3  0  0  0  0  0  0
  160.4970  205.1130  148.8920 C   0  0  0  0  0  0  0  0  0  0  0  0
  161.2010  200.6370  150.4450 N   0  0  0  0  0  1  0  0  0  0  0  0
  161.8240  208.3320  148.7800 C   0  0  2  0  0  3  0  0  0  0  0  0
  163.1810  207.8810  148.2580 C   0  0  0  0  0  1  0  0  0  0  0  0
  161.9520  209.7020  149.3860 C   0  0  0  0  0  0  0  0  0  0  0  0
  162.0950  209.8560  150.8730 C   0  0  0  0  0  1  0  0  0  0  0  0
  161.9490  210.7640  148.5700 C   0  0  0  0  0  3  0  0  0  0  0  0
  162.0710  212.1780  149.0460 C   0  0  0  0  0  2  0  0  0  0  0  0
  161.0970  213.0160  148.3700 N   0  0  0  0  0  2  0  0  0  0  0  0
  160.5980  212.2470  147.2440 C   0  0  0  0  0  2  0  0  0  0  0  0
  158.2630  213.8550  144.6720 C   0  0  0  0  0  0  0  0  0  0  0  0
  159.4130  213.2280  145.2040 C   0  0  0  0  0  0  0  0  0  0  0  0
  158.1670  214.1460  143.3160 O   0  0  0  0  0  1  0  0  0  0  0  0
  157.2610  213.9560  146.8740 C   0  0  0  0  0  3  0  0  0  0  0  0
  159.4620  212.9740  146.6000 C   0  0  0  0  0  0  0  0  0  0  0  0
  158.3850  213.3340  147.4150 C   0  0  0  0  0  3  0  0  0  0  0  0
  157.2020  214.2150  145.5060 C   0  0  0  0  0  3  0  0  0  0  0  0
  162.8560  213.2820  143.4150 C   0  0  0  0  0  1  0  0  0  0  0  0
  160.4090  211.8680  143.5220 O   0  0  0  0  0  0  0  0  0  0  0  0
  160.5340  212.8500  144.3040 C   0  0  0  0  0  0  0  0  0  0  0  0
  161.7490  213.6060  144.3000 N   0  0  0  0  0  2  0  0  0  0  0  0
  162.2570  206.5770  150.3890 O   0  0  0  0  0  0  0  0  0  0  0  0
  161.9920  206.6540  151.7600 C   0  0  0  0  0  2  0  0  0  0  0  0
  161.8840  205.3660  152.2850 O   0  0  0  0  0  0  0  0  0  0  0  0
  161.2040  205.5350  153.4910 C   0  0  0  0  0  2  0  0  0  0  0  0
  160.9710  207.0150  153.7370 C   0  0  0  0  0  2  0  0  0  0  0  0
  161.2070  207.3310  155.1370 N   0  0  0  0  0  2  0  0  0  0  0  0
  161.0220  209.6470  154.8640 O   0  0  0  0  0  0  0  0  0  0  0  0
  161.2010  208.6700  155.6380 C   0  0  0  0  0  0  0  0  0  0  0  0
  161.4200  208.9120  157.0890 C   0  0  0  0  0  1  0  0  0  0  0  0
  1  7  1  6  0  0  0
  1 34  1  0  0  0  0
  2  5  1  0  0  0  0
  3  6  1  1  0  0  0
  3  2  1  0  0  0  0
  3  9  1  0  0  0  0
  4 12  2  0  0  0  0
  4 14  1  0  0  0  0
  5 13  2  0  0  0  0
  5 12  1  0  0  0  0
  6 11  2  0  0  0  0
  9  8  1  6  0  0  0
  9  4  1  0  0  0  0
 10  6  1  0  0  0  0
 11  8  1  0  0  0  0
 13  7  2  0  0  0  0
 15 16  1  1  0  0  0
 15 17  1  0  0  0  0
 15  1  1  0  0  0  0
 17 18  1  0  0  0  0
 19 20  1  0  0  0  0
 19 17  2  0  0  0  0
 21 20  1  0  0  0  0
 22 21  1  0  0  0  0
 23 24  2  0  0  0  0
 23 29  1  0  0  0  0
 24 27  1  0  0  0  0
 25 23  1  0  0  0  0
 26 28  1  0  0  0  0
 27 22  1  0  0  0  0
 27 28  2  0  0  0  0
 29 26  2  0  0  0  0
 30 33  1  0  0  0  0
 31 32  2  0  0  0  0
 32 24  1  0  0  0  0
 33 32  1  0  0  0  0
 34 35  1  0  0  0  0
 35 36  1  0  0  0  0
 36 37  1  0  0  0  0
 37 38  1  0  0  0  0
 38 39  1  0  0  0  0
 39 41  1  0  0  0  0
 40 41  2  0  0  0  0
 41 42  1  0  0  0  0
M  END
>  <MODEL>
6

>  <REMARK>
 VINA RESULT:      -6.1      1.794      2.758
  Name = 
  14 active torsions:
  status: ('A' for Active; 'I' for Inactive)
    1  A    between atoms: C_2  and  C_22
    2  A    between atoms: C_5  and  C_6
    3  A    between atoms: C_5  and  C_19
    4  A    between atoms: N_11  and  C_34
    5  A    between atoms: N_11  and  C_36
    6  A    between atoms: N_14  and  C_28
    7  A    between atoms: C_16  and  O_23
    8  A    between atoms: C_16  and  C_28
    9  A    between atoms: C_18  and  C_19
   10  A    between atoms: C_19  and  O_41
   11  A    between atoms: O_23  and  C_33
   12  A    between atoms: C_24  and  C_36
   13  A    between atoms: C_26  and  C_34
   14  A    between atoms: C_33  and  O_41
                            x       y       z     vdW  Elec       q    Type
                         _______ _______ _______ _____ _____    ______ ____

>  <TORSDO>
F 14

$$$$
=
 OpenBabel11052411423D

 42 44  0  0  1  0  0  0  0  0999 V2000
  161.2220  210.0160  153.9510 C   0  0  2  0  0  3  0  0  0  0  0  0
  159.9330  212.7880  150.5080 N   0  0  0  0  0  2  0  0  0  0  0  0
  160.2600  213.6770  149.4420 C   0  0  2  0  0  3  0  0  0  0  0  0
  162.1580  212.2490  148.7450 C   0  0  0  0  0  0  0  0  0  0  0  0
  160.7920  211.6610  150.7010 C   0  0  0  0  0  0  0  0  0  0  0  0
  159.3820  214.1830  148.5990 C   0  0  0  0  0  0  0  0  0  0  0  0
  160.3780  210.0340  152.7000 C   0  0  0  0  0  3  0  0  0  0  0  0
  161.2470  214.1350  147.4290 N   0  0  0  0  0  2  0  0  0  0  0  0
  161.5880  213.6490  148.7630 C   0  0  1  0  0  3  0  0  0  0  0  0
  157.9030  214.1530  148.7730 C   0  0  0  0  0  1  0  0  0  0  0  0
  160.0170  214.4530  147.3590 N   0  0  0  0  0  0  0  0  0  0  0  0
  161.8400  211.3630  149.7030 C   0  0  0  0  0  3  0  0  0  0  0  0
  160.5830  210.8440  151.6930 C   0  0  0  0  0  0  0  0  0  0  0  0
  163.1940  211.9260  147.8260 N   0  0  0  0  0  1  0  0  0  0  0  0
  160.6610  209.1410  155.0910 C   0  0  2  0  0  3  0  0  0  0  0  0
  161.4140  209.3720  156.3940 C   0  0  0  0  0  1  0  0  0  0  0  0
  160.7020  207.6790  154.7430 C   0  0  0  0  0  0  0  0  0  0  0  0
  160.0560  206.6720  155.6520 C   0  0  0  0  0  1  0  0  0  0  0  0
  161.3090  207.3090  153.6080 C   0  0  0  0  0  3  0  0  0  0  0  0
  161.4160  205.8890  153.1480 C   0  0  0  0  0  2  0  0  0  0  0  0
  162.2670  205.8100  151.9740 N   0  0  0  0  0  2  0  0  0  0  0  0
  161.3840  205.7860  150.8220 C   0  0  0  0  0  2  0  0  0  0  0  0
  160.9300  202.6130  148.7280 C   0  0  0  0  0  0  0  0  0  0  0  0
  161.0850  203.9840  149.0340 C   0  0  0  0  0  0  0  0  0  0  0  0
  160.8470  202.1770  147.4110 O   0  0  0  0  0  1  0  0  0  0  0  0
  160.9000  202.0600  151.0860 C   0  0  0  0  0  3  0  0  0  0  0  0
  161.1440  204.3730  150.3990 C   0  0  0  0  0  0  0  0  0  0  0  0
  161.0570  203.4060  151.4060 C   0  0  0  0  0  3  0  0  0  0  0  0
  160.8370  201.6660  149.7500 C   0  0  0  0  0  3  0  0  0  0  0  0
  162.5720  206.1870  146.2060 C   0  0  0  0  0  1  0  0  0  0  0  0
  160.1710  205.6550  147.6040 O   0  0  0  0  0  0  0  0  0  0  0  0
  161.1850  204.9820  147.9360 C   0  0  0  0  0  0  0  0  0  0  0  0
  162.4290  205.2020  147.2650 N   0  0  0  0  0  2  0  0  0  0  0  0
  161.4110  211.3320  154.3860 O   0  0  0  0  0  0  0  0  0  0  0  0
  160.1320  211.8950  154.4030 C   0  0  0  0  0  2  0  0  0  0  0  0
  159.8740  212.4240  155.6680 O   0  0  0  0  0  0  0  0  0  0  0  0
  159.0080  213.4920  155.4310 C   0  0  0  0  0  2  0  0  0  0  0  0
  157.8780  213.4600  156.4440 C   0  0  0  0  0  2  0  0  0  0  0  0
  157.1200  212.2250  156.3090 N   0  0  0  0  0  2  0  0  0  0  0  0
  156.0790  212.8350  154.3040 O   0  0  0  0  0  0  0  0  0  0  0  0
  156.2510  211.9690  155.2030 C   0  0  0  0  0  0  0  0  0  0  0  0
  155.5340  210.6700  155.1190 C   0  0  0  0  0  1  0  0  0  0  0  0
  1  7  1  6  0  0  0
  1 34  1  0  0  0  0
  1 15  1  0  0  0  0
  2  5  1  0  0  0  0
  3  6  1  6  0  0  0
  3  2  1  0  0  0  0
  4  9  1  0  0  0  0
  4 12  2  0  0  0  0
  5 13  2  0  0  0  0
  6 10  1  0  0  0  0
  9  8  1  6  0  0  0
  9  3  1  0  0  0  0
 11  8  1  0  0  0  0
 11  6  2  0  0  0  0
 12  5  1  0  0  0  0
 13  7  2  0  0  0  0
 14  4  1  0  0  0  0
 15 16  1  1  0  0  0
 17 15  1  0  0  0  0
 17 18  1  0  0  0  0
 19 17  2  0  0  0  0
 20 19  1  0  0  0  0
 21 20  1  0  0  0  0
 22 21  1  0  0  0  0
 23 24  2  0  0  0  0
 23 29  1  0  0  0  0
 24 27  1  0  0  0  0
 25 23  1  0  0  0  0
 26 28  1  0  0  0  0
 27 22  1  0  0  0  0
 27 28  2  0  0  0  0
 29 26  2  0  0  0  0
 30 33  1  0  0  0  0
 31 32  2  0  0  0  0
 32 24  1  0  0  0  0
 33 32  1  0  0  0  0
 34 35  1  0  0  0  0
 35 36  1  0  0  0  0
 37 36  1  0  0  0  0
 37 38  1  0  0  0  0
 39 38  1  0  0  0  0
 40 41  2  0  0  0  0
 41 39  1  0  0  0  0
 42 41  1  0  0  0  0
M  END
>  <MODEL>
7

>  <REMARK>
 VINA RESULT:      -5.9      2.712      8.385
  Name = 
  14 active torsions:
  status: ('A' for Active; 'I' for Inactive)
    1  A    between atoms: C_2  and  C_22
    2  A    between atoms: C_5  and  C_6
    3  A    between atoms: C_5  and  C_19
    4  A    between atoms: N_11  and  C_34
    5  A    between atoms: N_11  and  C_36
    6  A    between atoms: N_14  and  C_28
    7  A    between atoms: C_16  and  O_23
    8  A    between atoms: C_16  and  C_28
    9  A    between atoms: C_18  and  C_19
   10  A    between atoms: C_19  and  O_41
   11  A    between atoms: O_23  and  C_33
   12  A    between atoms: C_24  and  C_36
   13  A    between atoms: C_26  and  C_34
   14  A    between atoms: C_33  and  O_41
                            x       y       z     vdW  Elec       q    Type
                         _______ _______ _______ _____ _____    ______ ____

>  <TORSDO>
F 14

$$$$
=
 OpenBabel11052411423D

 42 44  0  0  1  0  0  0  0  0999 V2000
  161.3800  209.6760  154.1040 C   0  0  2  0  0  3  0  0  0  0  0  0
  159.8540  212.6210  150.9120 N   0  0  0  0  0  2  0  0  0  0  0  0
  160.1060  213.5620  149.8710 C   0  0  2  0  0  3  0  0  0  0  0  0
  161.9380  212.1680  148.9630 C   0  0  0  0  0  0  0  0  0  0  0  0
  160.7190  211.4840  150.9830 C   0  0  0  0  0  0  0  0  0  0  0  0
  159.1710  214.1120  149.1220 C   0  0  0  0  0  0  0  0  0  0  0  0
  160.4450  209.7590  152.9230 C   0  0  0  0  0  3  0  0  0  0  0  0
  160.9430  214.1190  147.8150 N   0  0  0  0  0  2  0  0  0  0  0  0
  161.3800  213.5670  149.0940 C   0  0  1  0  0  3  0  0  0  0  0  0
  157.7080  214.0750  149.4030 C   0  0  0  0  0  1  0  0  0  0  0  0
  159.7130  214.4430  147.8520 N   0  0  0  0  0  0  0  0  0  0  0  0
  161.6880  211.2360  149.8960 C   0  0  0  0  0  3  0  0  0  0  0  0
  160.5790  210.6180  151.9460 C   0  0  0  0  0  0  0  0  0  0  0  0
  162.9020  211.8910  147.9540 N   0  0  0  0  0  1  0  0  0  0  0  0
  160.8250  208.8830  155.3060 C   0  0  2  0  0  3  0  0  0  0  0  0
  161.7170  209.0290  156.5310 C   0  0  0  0  0  1  0  0  0  0  0  0
  160.6560  207.4250  154.9830 C   0  0  0  0  0  0  0  0  0  0  0  0
  159.8270  206.5470  155.8750 C   0  0  0  0  0  1  0  0  0  0  0  0
  161.2480  206.9420  153.8810 C   0  0  0  0  0  3  0  0  0  0  0  0
  161.1560  205.5130  153.4470 C   0  0  0  0  0  2  0  0  0  0  0  0
  161.9880  205.2950  152.2770 N   0  0  0  0  0  2  0  0  0  0  0  0
  161.1390  204.6790  151.2730 C   0  0  0  0  0  2  0  0  0  0  0  0
  161.1670  205.6740  147.5770 C   0  0  0  0  0  0  0  0  0  0  0  0
  161.1750  204.8480  148.7240 C   0  0  0  0  0  0  0  0  0  0  0  0
  161.1560  205.1270  146.2990 O   0  0  0  0  0  1  0  0  0  0  0  0
  161.2180  207.6560  148.9670 C   0  0  0  0  0  3  0  0  0  0  0  0
  161.2070  205.4630  150.0030 C   0  0  0  0  0  0  0  0  0  0  0  0
  161.2210  206.8570  150.1090 C   0  0  0  0  0  3  0  0  0  0  0  0
  161.1910  207.0650  147.7050 C   0  0  0  0  0  3  0  0  0  0  0  0
  160.3610  201.1100  149.3750 C   0  0  0  0  0  1  0  0  0  0  0  0
  161.8150  202.8190  147.6520 O   0  0  0  0  0  0  0  0  0  0  0  0
  161.1490  203.3690  148.5720 C   0  0  0  0  0  0  0  0  0  0  0  0
  160.3900  202.5590  149.4750 N   0  0  0  0  0  2  0  0  0  0  0  0
  161.7340  210.9720  154.4910 O   0  0  0  0  0  0  0  0  0  0  0  0
  160.5200  211.6440  154.6610 C   0  0  0  0  0  2  0  0  0  0  0  0
  160.4970  212.2520  155.9170 O   0  0  0  0  0  0  0  0  0  0  0  0
  159.6250  213.3300  155.7680 C   0  0  0  0  0  2  0  0  0  0  0  0
  158.5130  213.2260  156.7960 C   0  0  0  0  0  2  0  0  0  0  0  0
  157.6450  212.1020  156.4800 N   0  0  0  0  0  2  0  0  0  0  0  0
  156.7940  213.0400  154.5130 O   0  0  0  0  0  0  0  0  0  0  0  0
  156.8230  212.0660  155.3110 C   0  0  0  0  0  0  0  0  0  0  0  0
  155.9850  210.8680  155.0400 C   0  0  0  0  0  1  0  0  0  0  0  0
  1  7  1  6  0  0  0
  1 34  1  0  0  0  0
  1 15  1  0  0  0  0
  2  5  1  0  0  0  0
  3  6  1  6  0  0  0
  3  2  1  0  0  0  0
  4  9  1  0  0  0  0
  4 12  2  0  0  0  0
  5 13  2  0  0  0  0
  6 10  1  0  0  0  0
  8 11  1  0  0  0  0
  9  8  1  6  0  0  0
  9  3  1  0  0  0  0
 11  6  2  0  0  0  0
 12  5  1  0  0  0  0
 13  7  2  0  0  0  0
 14  4  1  0  0  0  0
 15 16  1  1  0  0  0
 17 15  1  0  0  0  0
 17 18  1  0  0  0  0
 19 17  2  0  0  0  0
 20 19  1  0  0  0  0
 21 20  1  0  0  0  0
 22 21  1  0  0  0  0
 23 29  2  0  0  0  0
 23 24  1  0  0  0  0
 24 27  2  0  0  0  0
 25 23  1  0  0  0  0
 26 28  2  0  0  0  0
 27 28  1  0  0  0  0
 27 22  1  0  0  0  0
 29 26  1  0  0  0  0
 30 33  1  0  0  0  0
 31 32  2  0  0  0  0
 32 24  1  0  0  0  0
 32 33  1  0  0  0  0
 34 35  1  0  0  0  0
 35 36  1  0  0  0  0
 37 36  1  0  0  0  0
 37 38  1  0  0  0  0
 39 38  1  0  0  0  0
 40 41  2  0  0  0  0
 41 39  1  0  0  0  0
 42 41  1  0  0  0  0
M  END
>  <MODEL>
8

>  <REMARK>
 VINA RESULT:      -5.9      2.784      8.210
  Name = 
  14 active torsions:
  status: ('A' for Active; 'I' for Inactive)
    1  A    between atoms: C_2  and  C_22
    2  A    between atoms: C_5  and  C_6
    3  A    between atoms: C_5  and  C_19
    4  A    between atoms: N_11  and  C_34
    5  A    between atoms: N_11  and  C_36
    6  A    between atoms: N_14  and  C_28
    7  A    between atoms: C_16  and  O_23
    8  A    between atoms: C_16  and  C_28
    9  A    between atoms: C_18  and  C_19
   10  A    between atoms: C_19  and  O_41
   11  A    between atoms: O_23  and  C_33
   12  A    between atoms: C_24  and  C_36
   13  A    between atoms: C_26  and  C_34
   14  A    between atoms: C_33  and  O_41
                            x       y       z     vdW  Elec       q    Type
                         _______ _______ _______ _____ _____    ______ ____

>  <TORSDO>
F 14

$$$$
=
 OpenBabel11052411423D

 42 44  0  0  1  0  0  0  0  0999 V2000
  160.8620  210.1570  151.3960 C   0  0  2  0  0  3  0  0  0  0  0  0
  157.3400  212.2420  153.5040 N   0  0  0  0  0  2  0  0  0  0  0  0
  156.5870  212.5180  154.6830 C   0  0  2  0  0  3  0  0  0  0  0  0
  158.6530  212.7250  156.0310 C   0  0  0  0  0  0  0  0  0  0  0  0
  158.7600  212.1500  153.6450 C   0  0  0  0  0  0  0  0  0  0  0  0
  155.5900  213.3780  154.7450 C   0  0  0  0  0  0  0  0  0  0  0  0
  160.2360  211.5160  151.5880 C   0  0  0  0  0  3  0  0  0  0  0  0
  156.3930  213.3770  156.7950 N   0  0  0  0  0  2  0  0  0  0  0  0
  157.1770  212.3980  156.0480 C   0  0  1  0  0  3  0  0  0  0  0  0
  154.8980  213.9830  153.5720 C   0  0  0  0  0  1  0  0  0  0  0  0
  155.4930  213.8990  156.0620 N   0  0  0  0  0  0  0  0  0  0  0  0
  159.3910  212.5240  154.9280 C   0  0  0  0  0  3  0  0  0  0  0  0
  159.4990  211.8410  152.6180 C   0  0  0  0  0  0  0  0  0  0  0  0
  159.3110  213.0540  157.2480 N   0  0  0  0  0  1  0  0  0  0  0  0
  161.1780  209.4060  152.7070 C   0  0  2  0  0  3  0  0  0  0  0  0
  162.2490  210.1230  153.5160 C   0  0  0  0  0  1  0  0  0  0  0  0
  161.6120  207.9900  152.4480 C   0  0  0  0  0  0  0  0  0  0  0  0
  162.5470  207.6860  151.3120 C   0  0  0  0  0  1  0  0  0  0  0  0
  161.1580  207.0240  153.2580 C   0  0  0  0  0  3  0  0  0  0  0  0
  161.5170  205.5780  153.1080 C   0  0  0  0  0  2  0  0  0  0  0  0
  161.7300  205.2630  151.7070 N   0  0  0  0  0  2  0  0  0  0  0  0
  160.4520  204.8170  151.1820 C   0  0  0  0  0  2  0  0  0  0  0  0
  161.2420  203.1430  147.8320 C   0  0  0  0  0  0  0  0  0  0  0  0
  160.9730  204.1690  148.7660 C   0  0  0  0  0  0  0  0  0  0  0  0
  161.5240  203.4390  146.5030 O   0  0  0  0  0  1  0  0  0  0  0  0
  160.9160  201.4590  149.5410 C   0  0  0  0  0  3  0  0  0  0  0  0
  160.6720  203.8050  150.1050 C   0  0  0  0  0  0  0  0  0  0  0  0
  160.6540  202.4570  150.4770 C   0  0  0  0  0  3  0  0  0  0  0  0
  161.2090  201.8020  148.2230 C   0  0  0  0  0  3  0  0  0  0  0  0
  162.3340  207.6910  147.8700 C   0  0  0  0  0  1  0  0  0  0  0  0
  159.9410  206.1940  148.0560 O   0  0  0  0  0  0  0  0  0  0  0  0
  161.0130  205.5910  148.3370 C   0  0  0  0  0  0  0  0  0  0  0  0
  162.2580  206.2930  148.2600 N   0  0  0  0  0  2  0  0  0  0  0  0
  162.0150  210.2970  150.6180 O   0  0  0  0  0  0  0  0  0  0  0  0
  161.7280  211.3360  149.7280 C   0  0  0  0  0  2  0  0  0  0  0  0
  162.6930  211.3670  148.7220 O   0  0  0  0  0  0  0  0  0  0  0  0
  162.6510  212.6740  148.2360 C   0  0  0  0  0  2  0  0  0  0  0  0
  162.1210  212.6670  146.8140 C   0  0  0  0  0  2  0  0  0  0  0  0
  160.6850  212.4340  146.8170 N   0  0  0  0  0  2  0  0  0  0  0  0
  160.2750  213.6070  144.8350 O   0  0  0  0  0  0  0  0  0  0  0  0
  159.8210  212.9180  145.7870 C   0  0  0  0  0  0  0  0  0  0  0  0
  158.3670  212.6130  145.8450 C   0  0  0  0  0  1  0  0  0  0  0  0
  1  7  1  1  0  0  0
  1 15  1  0  0  0  0
  2  5  1  0  0  0  0
  3  2  1  6  0  0  0
  3  6  1  0  0  0  0
  3  9  1  0  0  0  0
  4 14  1  0  0  0  0
  5 12  1  0  0  0  0
  6 11  2  0  0  0  0
  7 13  2  0  0  0  0
  9  4  1  6  0  0  0
  9  8  1  0  0  0  0
 10  6  1  0  0  0  0
 11  8  1  0  0  0  0
 12  4  2  0  0  0  0
 13  5  2  0  0  0  0
 15 16  1  6  0  0  0
 17 15  1  0  0  0  0
 17 19  2  0  0  0  0
 18 17  1  0  0  0  0
 20 19  1  0  0  0  0
 21 20  1  0  0  0  0
 22 21  1  0  0  0  0
 23 29  2  0  0  0  0
 23 24  1  0  0  0  0
 24 27  2  0  0  0  0
 25 23  1  0  0  0  0
 26 28  2  0  0  0  0
 27 28  1  0  0  0  0
 27 22  1  0  0  0  0
 29 26  1  0  0  0  0
 30 33  1  0  0  0  0
 31 32  2  0  0  0  0
 32 24  1  0  0  0  0
 33 32  1  0  0  0  0
 34  1  1  0  0  0  0
 35 34  1  0  0  0  0
 36 35  1  0  0  0  0
 37 36  1  0  0  0  0
 38 39  1  0  0  0  0
 38 37  1  0  0  0  0
 40 41  2  0  0  0  0
 41 42  1  0  0  0  0
 41 39  1  0  0  0  0
M  END
>  <MODEL>
9

>  <REMARK>
 VINA RESULT:      -5.9      2.905      9.895
  Name = 
  14 active torsions:
  status: ('A' for Active; 'I' for Inactive)
    1  A    between atoms: C_2  and  C_22
    2  A    between atoms: C_5  and  C_6
    3  A    between atoms: C_5  and  C_19
    4  A    between atoms: N_11  and  C_34
    5  A    between atoms: N_11  and  C_36
    6  A    between atoms: N_14  and  C_28
    7  A    between atoms: C_16  and  O_23
    8  A    between atoms: C_16  and  C_28
    9  A    between atoms: C_18  and  C_19
   10  A    between atoms: C_19  and  O_41
   11  A    between atoms: O_23  and  C_33
   12  A    between atoms: C_24  and  C_36
   13  A    between atoms: C_26  and  C_34
   14  A    between atoms: C_33  and  O_41
                            x       y       z     vdW  Elec       q    Type
                         _______ _______ _______ _____ _____    ______ ____

>  <TORSDO>
F 14

$$$$
