=
 OpenBabel11052411443D

 40 44  0  0  1  0  0  0  0  0999 V2000
  159.6030  213.4960  152.0700 N   0  0  0  0  0  2  0  0  0  0  0  0
  158.9890  213.8890  151.0040 C   0  0  0  0  0  2  0  0  0  0  0  0
  158.3190  210.6390  155.3410 C   0  0  0  0  0  3  0  0  0  0  0  0
  157.2530  211.3840  155.3230 N   0  0  0  0  0  2  0  0  0  0  0  0
  161.0700  213.1840  147.3550 C   0  0  0  0  0  0  0  0  0  0  0  0
  159.7760  213.8380  149.7670 C   0  0  0  0  0  0  0  0  0  0  0  0
  159.0180  212.8920  153.2110 C   0  0  0  0  0  0  0  0  0  0  0  0
  162.4340  211.4360  148.6130 C   0  0  0  0  0  2  0  0  0  0  0  0
  157.5840  213.0450  153.4960 C   0  0  0  0  0  3  0  0  0  0  0  0
  162.6550  209.4320  151.0120 S   0  0  0  0  0  0  0  0  0  0  0  0
  160.8040  212.8910  149.7300 C   0  0  0  0  0  3  0  0  0  0  0  0
  156.8410  212.4130  154.4090 C   0  0  0  0  0  3  0  0  0  0  0  0
  160.0310  214.1410  147.3800 C   0  0  0  0  0  3  0  0  0  0  0  0
  161.7410  210.1520  148.5480 N   0  0  0  0  0  0  0  0  0  0  0  0
  161.1830  208.9720  151.9870 C   0  0  2  0  0  3  0  0  0  0  0  0
  161.7810  209.2170  149.4550 C   0  0  0  0  0  0  0  0  0  0  0  0
  159.7740  211.8980  153.6370 C   0  0  0  0  0  3  0  0  0  0  0  0
  161.2330  209.6470  153.2840 N   0  0  0  0  0  2  0  0  0  0  0  0
  160.7900  207.0020  153.2800 O   0  0  0  0  0  0  0  0  0  0  0  0
  161.1190  207.4760  152.1610 C   0  0  0  0  0  0  0  0  0  0  0  0
  161.4480  212.5560  148.5530 C   0  0  0  0  0  0  0  0  0  0  0  0
  161.3760  206.5450  151.0960 N   0  0  0  0  0  0  0  0  0  0  0  0
  161.4170  206.7130  149.8060 C   0  0  0  0  0  0  0  0  0  0  0  0
  159.4380  210.7080  154.3990 C   0  0  0  0  0  0  0  0  0  0  0  0
  159.3690  214.4530  148.5790 C   0  0  0  0  0  3  0  0  0  0  0  0
  160.1410  209.6370  154.1770 N   0  0  0  0  0  2  0  0  0  0  0  0
  161.1680  207.9640  149.1520 N   0  0  0  0  0  2  0  0  0  0  0  0
  161.7090  212.8340  146.1600 O   0  0  0  0  0  0  0  0  0  0  0  0
  162.3980  213.7820  145.3540 C   0  0  0  0  0  2  0  0  0  0  0  0
  162.8140  213.1480  144.0330 C   0  0  2  0  0  3  0  0  0  0  0  0
  163.6310  214.0270  143.3200 O   0  0  0  0  0  1  0  0  0  0  0  0
  162.2040  212.2640  142.1000 C   0  0  0  0  0  1  0  0  0  0  0  0
  161.6890  212.8260  143.2700 O   0  0  0  0  0  0  0  0  0  0  0  0
  161.6780  205.5230  148.9500 C   0  0  0  0  0  2  0  0  0  0  0  0
  160.4030  202.0170  149.6330 C   0  0  0  0  0  3  0  0  0  0  0  0
  161.2960  204.2710  149.6690 C   0  0  0  0  0  0  0  0  0  0  0  0
  160.6010  201.9180  151.0130 C   0  0  0  0  0  3  0  0  0  0  0  0
  161.1540  202.9890  151.7220 C   0  0  0  0  0  3  0  0  0  0  0  0
  160.7510  203.1930  148.9600 C   0  0  0  0  0  3  0  0  0  0  0  0
  161.5040  204.1650  151.0490 C   0  0  0  0  0  3  0  0  0  0  0  0
  1  7  1  0  0  0  0
  2  1  1  0  0  0  0
  4  3  1  0  0  0  0
  5 13  2  0  0  0  0
  5 21  1  0  0  0  0
  6  2  1  0  0  0  0
  7  9  1  0  0  0  0
  7 17  2  0  0  0  0
  9 12  2  0  0  0  0
 11  6  1  0  0  0  0
 12  4  1  0  0  0  0
 13 25  1  0  0  0  0
 14  8  1  0  0  0  0
 14 16  2  0  0  0  0
 15 10  1  6  0  0  0
 15 20  1  0  0  0  0
 15 18  1  0  0  0  0
 16 10  1  0  0  0  0
 17 24  1  0  0  0  0
 18 26  1  0  0  0  0
 20 19  2  0  0  0  0
 21  8  1  0  0  0  0
 21 11  2  0  0  0  0
 22 20  1  0  0  0  0
 23 22  2  0  0  0  0
 24  3  2  0  0  0  0
 25  6  2  0  0  0  0
 26 24  1  0  0  0  0
 27 16  1  0  0  0  0
 27 23  1  0  0  0  0
 28  5  1  0  0  0  0
 29 28  1  0  0  0  0
 30 31  1  6  0  0  0
 30 29  1  0  0  0  0
 32 33  1  0  0  0  0
 33 30  1  0  0  0  0
 34 36  1  0  0  0  0
 34 23  1  0  0  0  0
 35 37  1  0  0  0  0
 36 40  2  0  0  0  0
 37 38  2  0  0  0  0
 39 35  2  0  0  0  0
 39 36  1  0  0  0  0
 40 38  1  0  0  0  0
M  END
>  <MODEL>
1

>  <REMARK>
 VINA RESULT:      -9.2      0.000      0.000
  Name = 
  6 active torsions:
  status: ('A' for Active; 'I' for Inactive)
    1  A    between atoms: C_4  and  C_22
    2  A    between atoms: C_7  and  O_13
    3  A    between atoms: C_10  and  O_13
    4  A    between atoms: C_10  and  C_28
    5  A    between atoms: C_22  and  C_35
    6  A    between atoms: C_28  and  O_30
                            x       y       z     vdW  Elec       q    Type
                         _______ _______ _______ _____ _____    ______ ____

>  <TORSDO>
F 6

$$$$
=
 OpenBabel11052411443D

 40 44  0  0  1  0  0  0  0  0999 V2000
  159.4690  213.6680  151.7890 N   0  0  0  0  0  2  0  0  0  0  0  0
  158.8960  213.9620  150.6690 C   0  0  0  0  0  2  0  0  0  0  0  0
  158.0720  211.0900  155.2400 C   0  0  0  0  0  3  0  0  0  0  0  0
  157.0010  211.8190  155.1150 N   0  0  0  0  0  2  0  0  0  0  0  0
  161.1310  212.9680  147.1820 C   0  0  0  0  0  0  0  0  0  0  0  0
  159.7340  213.8130  149.4750 C   0  0  0  0  0  0  0  0  0  0  0  0
  158.8420  213.1590  152.9530 C   0  0  0  0  0  0  0  0  0  0  0  0
  162.4540  211.3490  148.6400 C   0  0  0  0  0  2  0  0  0  0  0  0
  157.3950  213.3200  153.1660 C   0  0  0  0  0  3  0  0  0  0  0  0
  162.5910  209.5610  151.2110 S   0  0  0  0  0  0  0  0  0  0  0  0
  160.7690  212.8770  149.5610 C   0  0  0  0  0  3  0  0  0  0  0  0
  156.6200  212.7620  154.1000 C   0  0  0  0  0  3  0  0  0  0  0  0
  160.0850  213.9130  147.0820 C   0  0  0  0  0  3  0  0  0  0  0  0
  161.7740  210.0570  148.6580 N   0  0  0  0  0  0  0  0  0  0  0  0
  161.0820  209.1710  152.1610 C   0  0  2  0  0  3  0  0  0  0  0  0
  161.7820  209.2040  149.6440 C   0  0  0  0  0  0  0  0  0  0  0  0
  159.5860  212.2130  153.4940 C   0  0  0  0  0  3  0  0  0  0  0  0
  161.0740  209.9560  153.3960 N   0  0  0  0  0  2  0  0  0  0  0  0
  160.6510  207.3150  153.6020 O   0  0  0  0  0  0  0  0  0  0  0  0
  161.0220  207.6940  152.4600 C   0  0  0  0  0  0  0  0  0  0  0  0
  161.4630  212.4490  148.4450 C   0  0  0  0  0  0  0  0  0  0  0  0
  161.3290  206.6780  151.4920 N   0  0  0  0  0  0  0  0  0  0  0  0
  161.4220  206.7360  150.1950 C   0  0  0  0  0  0  0  0  0  0  0  0
  159.2280  211.0900  154.3420 C   0  0  0  0  0  0  0  0  0  0  0  0
  159.3720  214.3200  148.2220 C   0  0  0  0  0  3  0  0  0  0  0  0
  159.9470  210.0110  154.2420 N   0  0  0  0  0  2  0  0  0  0  0  0
  161.1910  207.9230  149.4250 N   0  0  0  0  0  2  0  0  0  0  0  0
  161.8210  212.5230  146.0480 O   0  0  0  0  0  0  0  0  0  0  0  0
  162.2160  213.3990  145.0000 C   0  0  0  0  0  2  0  0  0  0  0  0
  161.5660  212.9800  143.6890 C   0  0  2  0  0  3  0  0  0  0  0  0
  160.4690  212.1560  143.9430 O   0  0  0  0  0  1  0  0  0  0  0  0
  161.7650  211.9590  141.7370 C   0  0  0  0  0  1  0  0  0  0  0  0
  162.4850  212.3050  142.8820 O   0  0  0  0  0  0  0  0  0  0  0  0
  161.7270  205.4790  149.4560 C   0  0  0  0  0  2  0  0  0  0  0  0
  162.4370  205.5910  145.7320 C   0  0  0  0  0  3  0  0  0  0  0  0
  161.5510  205.6840  147.9860 C   0  0  0  0  0  0  0  0  0  0  0  0
  161.2130  206.0470  145.2330 C   0  0  0  0  0  3  0  0  0  0  0  0
  160.1540  206.3130  146.1070 C   0  0  0  0  0  3  0  0  0  0  0  0
  162.6060  205.4090  147.1080 C   0  0  0  0  0  3  0  0  0  0  0  0
  160.3230  206.1290  147.4840 C   0  0  0  0  0  3  0  0  0  0  0  0
  1  7  1  0  0  0  0
  2  1  1  0  0  0  0
  4  3  1  0  0  0  0
  5 21  1  0  0  0  0
  6 11  1  0  0  0  0
  6  2  1  0  0  0  0
  7  9  1  0  0  0  0
  7 17  2  0  0  0  0
  8 14  1  0  0  0  0
  9 12  2  0  0  0  0
 12  4  1  0  0  0  0
 13  5  2  0  0  0  0
 13 25  1  0  0  0  0
 14 16  2  0  0  0  0
 15 10  1  1  0  0  0
 15 20  1  0  0  0  0
 15 18  1  0  0  0  0
 16 10  1  0  0  0  0
 17 24  1  0  0  0  0
 18 26  1  0  0  0  0
 20 19  2  0  0  0  0
 21  8  1  0  0  0  0
 21 11  2  0  0  0  0
 22 20  1  0  0  0  0
 23 22  2  0  0  0  0
 24  3  2  0  0  0  0
 25  6  2  0  0  0  0
 26 24  1  0  0  0  0
 27 16  1  0  0  0  0
 27 23  1  0  0  0  0
 28  5  1  0  0  0  0
 29 28  1  0  0  0  0
 30 31  1  1  0  0  0
 30 29  1  0  0  0  0
 32 33  1  0  0  0  0
 33 30  1  0  0  0  0
 34 23  1  0  0  0  0
 35 39  1  0  0  0  0
 36 34  1  0  0  0  0
 37 35  2  0  0  0  0
 37 38  1  0  0  0  0
 38 40  2  0  0  0  0
 39 36  2  0  0  0  0
 40 36  1  0  0  0  0
M  END
>  <MODEL>
2

>  <REMARK>
 VINA RESULT:      -9.1      1.283      2.136
  Name = 
  6 active torsions:
  status: ('A' for Active; 'I' for Inactive)
    1  A    between atoms: C_4  and  C_22
    2  A    between atoms: C_7  and  O_13
    3  A    between atoms: C_10  and  O_13
    4  A    between atoms: C_10  and  C_28
    5  A    between atoms: C_22  and  C_35
    6  A    between atoms: C_28  and  O_30
                            x       y       z     vdW  Elec       q    Type
                         _______ _______ _______ _____ _____    ______ ____

>  <TORSDO>
F 6

$$$$
=
 OpenBabel11052411443D

 40 44  0  0  1  0  0  0  0  0999 V2000
  160.6380  211.9510  152.9560 N   0  0  0  0  0  2  0  0  0  0  0  0
  159.8920  212.6180  152.1400 C   0  0  0  0  0  2  0  0  0  0  0  0
  159.6140  208.6350  155.8650 C   0  0  0  0  0  3  0  0  0  0  0  0
  158.6860  209.4760  156.2170 N   0  0  0  0  0  2  0  0  0  0  0  0
  161.0920  212.4620  148.0560 C   0  0  0  0  0  0  0  0  0  0  0  0
  160.4050  212.7400  150.7720 C   0  0  0  0  0  0  0  0  0  0  0  0
  160.2060  211.1910  154.0710 C   0  0  0  0  0  0  0  0  0  0  0  0
  162.4050  210.3590  148.6490 C   0  0  0  0  0  2  0  0  0  0  0  0
  158.8930  211.4330  154.6880 C   0  0  0  0  0  3  0  0  0  0  0  0
  162.7950  207.8920  150.5430 S   0  0  0  0  0  0  0  0  0  0  0  0
  161.2560  211.7170  150.3400 C   0  0  0  0  0  3  0  0  0  0  0  0
  158.2590  210.7090  155.6150 C   0  0  0  0  0  3  0  0  0  0  0  0
  160.2300  213.4980  148.4800 C   0  0  0  0  0  3  0  0  0  0  0  0
  161.5320  209.1960  148.5100 N   0  0  0  0  0  0  0  0  0  0  0  0
  161.4900  207.4000  151.7200 C   0  0  2  0  0  3  0  0  0  0  0  0
  161.6100  208.0960  149.2040 C   0  0  0  0  0  0  0  0  0  0  0  0
  160.8760  210.0560  154.1360 C   0  0  0  0  0  3  0  0  0  0  0  0
  161.8910  207.7850  153.0740 N   0  0  0  0  0  2  0  0  0  0  0  0
  161.0730  205.2590  152.6940 O   0  0  0  0  0  0  0  0  0  0  0  0
  161.2420  205.9150  151.6330 C   0  0  0  0  0  0  0  0  0  0  0  0
  161.6010  211.5650  149.0100 C   0  0  0  0  0  0  0  0  0  0  0  0
  161.1470  205.2020  150.3900 N   0  0  0  0  0  0  0  0  0  0  0  0
  160.9590  205.6260  149.1740 C   0  0  0  0  0  0  0  0  0  0  0  0
  160.5250  208.7780  154.7280 C   0  0  0  0  0  0  0  0  0  0  0  0
  159.8690  213.6250  149.8310 C   0  0  0  0  0  3  0  0  0  0  0  0
  161.0060  207.7070  154.1690 N   0  0  0  0  0  2  0  0  0  0  0  0
  160.7730  207.0040  148.8250 N   0  0  0  0  0  2  0  0  0  0  0  0
  161.4270  212.3000  146.7070 O   0  0  0  0  0  0  0  0  0  0  0  0
  161.4840  213.3900  145.7960 C   0  0  0  0  0  2  0  0  0  0  0  0
  160.7200  213.0550  144.5220 C   0  0  2  0  0  3  0  0  0  0  0  0
  159.6890  212.1580  144.8080 O   0  0  0  0  0  1  0  0  0  0  0  0
  162.7880  213.1720  143.7480 C   0  0  0  0  0  1  0  0  0  0  0  0
  161.5780  212.5000  143.5690 O   0  0  0  0  0  0  0  0  0  0  0  0
  160.8700  204.6170  148.0820 C   0  0  0  0  0  2  0  0  0  0  0  0
  161.3610  200.8670  148.3690 C   0  0  0  0  0  3  0  0  0  0  0  0
  160.9200  203.2340  148.6470 C   0  0  0  0  0  0  0  0  0  0  0  0
  161.0340  200.6490  149.7100 C   0  0  0  0  0  3  0  0  0  0  0  0
  160.6580  201.7230  150.5240 C   0  0  0  0  0  3  0  0  0  0  0  0
  161.3060  202.1590  147.8370 C   0  0  0  0  0  3  0  0  0  0  0  0
  160.6030  203.0160  149.9920 C   0  0  0  0  0  3  0  0  0  0  0  0
  1  7  1  0  0  0  0
  2  1  1  0  0  0  0
  3  4  1  0  0  0  0
  5 13  2  0  0  0  0
  5 21  1  0  0  0  0
  6  2  1  0  0  0  0
  7 17  2  0  0  0  0
  7  9  1  0  0  0  0
  8 21  1  0  0  0  0
  9 12  2  0  0  0  0
 11  6  1  0  0  0  0
 12  4  1  0  0  0  0
 13 25  1  0  0  0  0
 14  8  1  0  0  0  0
 14 16  2  0  0  0  0
 15 10  1  6  0  0  0
 15 18  1  0  0  0  0
 16 10  1  0  0  0  0
 17 24  1  0  0  0  0
 18 26  1  0  0  0  0
 20 15  1  0  0  0  0
 20 19  2  0  0  0  0
 21 11  2  0  0  0  0
 22 20  1  0  0  0  0
 23 22  2  0  0  0  0
 24  3  2  0  0  0  0
 25  6  2  0  0  0  0
 26 24  1  0  0  0  0
 27 23  1  0  0  0  0
 27 16  1  0  0  0  0
 28  5  1  0  0  0  0
 29 28  1  0  0  0  0
 30 31  1  1  0  0  0
 30 29  1  0  0  0  0
 33 32  1  0  0  0  0
 33 30  1  0  0  0  0
 34 36  1  0  0  0  0
 34 23  1  0  0  0  0
 35 37  1  0  0  0  0
 36 40  2  0  0  0  0
 37 38  2  0  0  0  0
 39 35  2  0  0  0  0
 39 36  1  0  0  0  0
 40 38  1  0  0  0  0
M  END
>  <MODEL>
3

>  <REMARK>
 VINA RESULT:      -8.2      1.452      1.870
  Name = 
  6 active torsions:
  status: ('A' for Active; 'I' for Inactive)
    1  A    between atoms: C_4  and  C_22
    2  A    between atoms: C_7  and  O_13
    3  A    between atoms: C_10  and  O_13
    4  A    between atoms: C_10  and  C_28
    5  A    between atoms: C_22  and  C_35
    6  A    between atoms: C_28  and  O_30
                            x       y       z     vdW  Elec       q    Type
                         _______ _______ _______ _____ _____    ______ ____

>  <TORSDO>
F 6

$$$$
=
 OpenBabel11052411443D

 40 44  0  0  1  0  0  0  0  0999 V2000
  160.8090  211.7880  153.0960 N   0  0  0  0  0  2  0  0  0  0  0  0
  160.0430  212.4510  152.2950 C   0  0  0  0  0  2  0  0  0  0  0  0
  159.8350  208.5880  156.1480 C   0  0  0  0  0  3  0  0  0  0  0  0
  158.9470  209.4640  156.5160 N   0  0  0  0  0  2  0  0  0  0  0  0
  161.0460  212.1430  148.1670 C   0  0  0  0  0  0  0  0  0  0  0  0
  160.4950  212.5190  150.9010 C   0  0  0  0  0  0  0  0  0  0  0  0
  160.4090  211.0730  154.2520 C   0  0  0  0  0  0  0  0  0  0  0  0
  162.3300  210.0230  148.7620 C   0  0  0  0  0  2  0  0  0  0  0  0
  159.1330  211.3690  154.9210 C   0  0  0  0  0  3  0  0  0  0  0  0
  162.7430  207.6020  150.7100 S   0  0  0  0  0  0  0  0  0  0  0  0
  161.2970  211.4610  150.4620 C   0  0  0  0  0  3  0  0  0  0  0  0
  158.5250  210.6910  155.8980 C   0  0  0  0  0  3  0  0  0  0  0  0
  160.2320  213.2150  148.5980 C   0  0  0  0  0  3  0  0  0  0  0  0
  161.4210  208.8810  148.6990 N   0  0  0  0  0  0  0  0  0  0  0  0
  161.4820  207.1810  151.9610 C   0  0  2  0  0  3  0  0  0  0  0  0
  161.5030  207.7990  149.4220 C   0  0  0  0  0  0  0  0  0  0  0  0
  161.0520  209.9230  154.3200 C   0  0  0  0  0  3  0  0  0  0  0  0
  161.9560  207.5940  153.2820 N   0  0  0  0  0  2  0  0  0  0  0  0
  161.0550  205.0820  153.0180 O   0  0  0  0  0  0  0  0  0  0  0  0
  161.1920  205.7020  151.9310 C   0  0  0  0  0  0  0  0  0  0  0  0
  161.5760  211.2600  149.1230 C   0  0  0  0  0  0  0  0  0  0  0  0
  161.0190  204.9550  150.7150 N   0  0  0  0  0  0  0  0  0  0  0  0
  160.7860  205.3490  149.4970 C   0  0  0  0  0  0  0  0  0  0  0  0
  160.6950  208.6720  154.9670 C   0  0  0  0  0  0  0  0  0  0  0  0
  159.9390  213.3910  149.9600 C   0  0  0  0  0  3  0  0  0  0  0  0
  161.1210  207.5730  154.4190 N   0  0  0  0  0  2  0  0  0  0  0  0
  160.6200  206.7200  149.1150 N   0  0  0  0  0  2  0  0  0  0  0  0
  161.3130  211.9330  146.8090 O   0  0  0  0  0  0  0  0  0  0  0  0
  161.8940  212.9300  145.9790 C   0  0  0  0  0  2  0  0  0  0  0  0
  160.9600  213.2670  144.8250 C   0  0  2  0  0  3  0  0  0  0  0  0
  160.1960  212.1490  144.4890 O   0  0  0  0  0  1  0  0  0  0  0  0
  163.0260  213.5590  144.0940 C   0  0  0  0  0  1  0  0  0  0  0  0
  161.6900  213.6910  143.7120 O   0  0  0  0  0  0  0  0  0  0  0  0
  160.6200  204.3110  148.4420 C   0  0  0  0  0  2  0  0  0  0  0  0
  161.4190  205.8290  145.0590 C   0  0  0  0  0  3  0  0  0  0  0  0
  161.3610  204.7020  147.2050 C   0  0  0  0  0  0  0  0  0  0  0  0
  162.7560  205.4530  144.8990 C   0  0  0  0  0  3  0  0  0  0  0  0
  163.4000  204.7090  145.8940 C   0  0  0  0  0  3  0  0  0  0  0  0
  160.7210  205.4550  146.2120 C   0  0  0  0  0  3  0  0  0  0  0  0
  162.7020  204.3360  147.0480 C   0  0  0  0  0  3  0  0  0  0  0  0
  1  7  1  0  0  0  0
  2  1  1  0  0  0  0
  3  4  1  0  0  0  0
  5 13  2  0  0  0  0
  5 21  1  0  0  0  0
  6  2  1  0  0  0  0
  7 17  2  0  0  0  0
  7  9  1  0  0  0  0
  8 21  1  0  0  0  0
  9 12  2  0  0  0  0
 11  6  1  0  0  0  0
 12  4  1  0  0  0  0
 13 25  1  0  0  0  0
 14  8  1  0  0  0  0
 14 16  2  0  0  0  0
 15 10  1  6  0  0  0
 15 18  1  0  0  0  0
 16 10  1  0  0  0  0
 17 24  1  0  0  0  0
 18 26  1  0  0  0  0
 20 15  1  0  0  0  0
 20 19  2  0  0  0  0
 21 11  2  0  0  0  0
 22 20  1  0  0  0  0
 23 22  2  0  0  0  0
 24  3  2  0  0  0  0
 25  6  2  0  0  0  0
 26 24  1  0  0  0  0
 27 16  1  0  0  0  0
 27 23  1  0  0  0  0
 28  5  1  0  0  0  0
 29 28  1  0  0  0  0
 30 31  1  6  0  0  0
 30 29  1  0  0  0  0
 33 32  1  0  0  0  0
 33 30  1  0  0  0  0
 34 23  1  0  0  0  0
 35 39  1  0  0  0  0
 36 34  1  0  0  0  0
 37 35  2  0  0  0  0
 37 38  1  0  0  0  0
 38 40  2  0  0  0  0
 39 36  2  0  0  0  0
 40 36  1  0  0  0  0
M  END
>  <MODEL>
4

>  <REMARK>
 VINA RESULT:      -7.8      1.918      2.804
  Name = 
  6 active torsions:
  status: ('A' for Active; 'I' for Inactive)
    1  A    between atoms: C_4  and  C_22
    2  A    between atoms: C_7  and  O_13
    3  A    between atoms: C_10  and  O_13
    4  A    between atoms: C_10  and  C_28
    5  A    between atoms: C_22  and  C_35
    6  A    between atoms: C_28  and  O_30
                            x       y       z     vdW  Elec       q    Type
                         _______ _______ _______ _____ _____    ______ ____

>  <TORSDO>
F 6

$$$$
=
 OpenBabel11052411443D

 40 44  0  0  1  0  0  0  0  0999 V2000
  161.7780  206.0710  152.5140 N   0  0  0  0  0  2  0  0  0  0  0  0
  160.8360  205.9210  153.3840 C   0  0  0  0  0  2  0  0  0  0  0  0
  161.6530  206.0710  147.9870 C   0  0  0  0  0  3  0  0  0  0  0  0
  160.9860  204.9720  148.1850 N   0  0  0  0  0  0  0  0  0  0  0  0
  160.4300  209.1100  156.1770 C   0  0  0  0  0  0  0  0  0  0  0  0
  160.8160  206.9070  154.4690 C   0  0  0  0  0  0  0  0  0  0  0  0
  161.7320  205.7110  151.1430 C   0  0  0  0  0  0  0  0  0  0  0  0
  161.7060  210.5640  154.5170 C   0  0  0  0  0  2  0  0  0  0  0  0
  160.7610  204.7210  150.6540 C   0  0  0  0  0  3  0  0  0  0  0  0
  162.5800  211.1100  151.5570 S   0  0  0  0  0  0  0  0  0  0  0  0
  161.3680  208.1580  154.1740 C   0  0  0  0  0  3  0  0  0  0  0  0
  160.4610  204.3970  149.3930 C   0  0  0  0  0  3  0  0  0  0  0  0
  159.8660  207.8520  156.4840 C   0  0  0  0  0  3  0  0  0  0  0  0
  160.7590  211.1670  153.5830 N   0  0  0  0  0  0  0  0  0  0  0  0
  161.7690  210.2490  150.1670 C   0  0  2  0  0  3  0  0  0  0  0  0
  161.0050  211.4800  152.3420 C   0  0  0  0  0  0  0  0  0  0  0  0
  162.2910  206.6530  150.4070 C   0  0  0  0  0  3  0  0  0  0  0  0
  162.6690  209.2200  149.6450 N   0  0  0  0  0  2  0  0  0  0  0  0
  161.5810  210.9250  147.8840 O   0  0  0  0  0  0  0  0  0  0  0  0
  161.3960  211.2360  149.0890 C   0  0  0  0  0  0  0  0  0  0  0  0
  161.1860  209.2510  155.0010 C   0  0  0  0  0  0  0  0  0  0  0  0
  160.7950  212.5130  149.3610 N   0  0  0  0  0  0  0  0  0  0  0  0
  160.2050  212.9690  150.4270 C   0  0  0  0  0  0  0  0  0  0  0  0
  162.0880  207.0170  149.0160 C   0  0  0  0  0  0  0  0  0  0  0  0
  160.0390  206.7570  155.6220 C   0  0  0  0  0  3  0  0  0  0  0  0
  162.2470  208.2660  148.6960 N   0  0  0  0  0  0  0  0  0  0  0  0
  160.0070  212.2060  151.6240 N   0  0  0  0  0  2  0  0  0  0  0  0
  160.2300  210.2200  157.0060 O   0  0  0  0  0  0  0  0  0  0  0  0
  158.9410  210.7640  157.2610 C   0  0  0  0  0  2  0  0  0  0  0  0
  158.5800  211.7880  156.1940 C   0  0  2  0  0  3  0  0  0  0  0  0
  157.9560  212.8890  156.7830 O   0  0  0  0  0  1  0  0  0  0  0  0
  157.3450  212.2910  154.4300 C   0  0  0  0  0  1  0  0  0  0  0  0
  157.7330  211.2210  155.2390 O   0  0  0  0  0  0  0  0  0  0  0  0
  159.6430  214.3480  150.3850 C   0  0  0  0  0  2  0  0  0  0  0  0
  155.9230  214.3850  151.1230 C   0  0  0  0  0  3  0  0  0  0  0  0
  158.1620  214.3010  150.1960 C   0  0  0  0  0  0  0  0  0  0  0  0
  155.3880  214.2360  149.8400 C   0  0  0  0  0  3  0  0  0  0  0  0
  156.2370  214.1290  148.7330 C   0  0  0  0  0  3  0  0  0  0  0  0
  157.3100  214.4190  151.3010 C   0  0  0  0  0  3  0  0  0  0  0  0
  157.6240  214.1640  148.9120 C   0  0  0  0  0  3  0  0  0  0  0  0
  1  2  1  0  0  0  0
  2  6  1  0  0  0  0
  3  4  2  0  0  0  0
  3 24  1  0  0  0  0
  4 12  1  0  0  0  0
  5 13  1  0  0  0  0
  5 28  1  0  0  0  0
  6 25  1  0  0  0  0
  7  1  1  0  0  0  0
  8 21  1  0  0  0  0
  9  7  1  0  0  0  0
 10 16  1  0  0  0  0
 11  6  2  0  0  0  0
 11 21  1  0  0  0  0
 12  9  2  0  0  0  0
 14  8  1  0  0  0  0
 15 20  1  6  0  0  0
 15 10  1  0  0  0  0
 16 14  2  0  0  0  0
 17  7  2  0  0  0  0
 18 15  1  0  0  0  0
 19 20  2  0  0  0  0
 20 22  1  0  0  0  0
 21  5  2  0  0  0  0
 22 23  2  0  0  0  0
 23 27  1  0  0  0  0
 24 17  1  0  0  0  0
 25 13  2  0  0  0  0
 26 24  2  0  0  0  0
 26 18  1  0  0  0  0
 27 16  1  0  0  0  0
 28 29  1  0  0  0  0
 30 31  1  1  0  0  0
 30 29  1  0  0  0  0
 32 33  1  0  0  0  0
 33 30  1  0  0  0  0
 34 23  1  0  0  0  0
 35 39  1  0  0  0  0
 36 34  1  0  0  0  0
 36 39  2  0  0  0  0
 37 35  2  0  0  0  0
 38 40  2  0  0  0  0
 38 37  1  0  0  0  0
 40 36  1  0  0  0  0
M  END
>  <MODEL>
5

>  <REMARK>
 VINA RESULT:      -6.5      2.752      9.295
  Name = 
  6 active torsions:
  status: ('A' for Active; 'I' for Inactive)
    1  A    between atoms: C_4  and  C_22
    2  A    between atoms: C_7  and  O_13
    3  A    between atoms: C_10  and  O_13
    4  A    between atoms: C_10  and  C_28
    5  A    between atoms: C_22  and  C_35
    6  A    between atoms: C_28  and  O_30
                            x       y       z     vdW  Elec       q    Type
                         _______ _______ _______ _____ _____    ______ ____

>  <TORSDO>
F 6

$$$$
