=
 OpenBabel11052409503D

 26 29  0  0  1  0  0  0  0  0999 V2000
  161.2760  207.9920  149.9110 O   0  0  0  0  0  0  0  0  0  0  0  0
  161.1820  205.7870  149.1740 C   0  0  0  0  0  0  0  0  0  0  0  0
  161.4270  203.5200  148.3860 C   0  0  2  0  0  3  0  0  0  0  0  0
  161.3380  204.3400  149.4530 C   0  0  0  0  0  0  0  0  0  0  0  0
  160.9390  206.2520  151.5830 C   0  0  0  0  0  0  0  0  0  0  0  0
  161.1700  203.8860  150.8540 C   0  0  0  0  0  3  0  0  0  0  0  0
  161.0840  206.6850  150.3210 C   0  0  0  0  0  0  0  0  0  0  0  0
  161.6880  208.0570  148.5420 C   0  0  2  0  0  3  0  0  0  0  0  0
  160.5870  205.4950  144.6420 C   0  0  0  0  0  3  0  0  0  0  0  0
  161.9260  205.5250  146.7120 C   0  0  1  0  0  3  0  0  0  0  0  0
  160.9610  206.3240  145.8440 C   0  0  0  0  0  2  0  0  0  0  0  0
  160.7430  203.4770  146.0190 C   0  0  0  0  0  3  0  0  0  0  0  0
  162.5960  206.4450  148.2050 P   0  0  2  0  0  0  0  0  0  0  0  0
  161.3900  204.1150  147.0060 C   0  0  0  0  0  0  0  0  0  0  0  0
  160.4590  204.1660  144.7400 C   0  0  0  0  0  3  0  0  0  0  0  0
  160.9710  204.7800  151.8380 C   0  0  0  0  0  3  0  0  0  0  0  0
  160.8590  206.5780  154.0920 C   0  0  0  0  0  1  0  0  0  0  0  0
  161.8000  208.2160  152.6350 O   0  0  0  0  0  1  0  0  0  0  0  0
  160.8000  207.2380  152.7180 C   0  0  1  0  0  3  0  0  0  0  0  0
  160.1110  201.5710  148.7460 O   0  0  0  0  0  1  0  0  0  0  0  0
  161.4200  202.0310  148.5630 C   0  0  0  0  0  2  0  0  0  0  0  0
  162.6290  209.2270  148.3350 C   0  0  0  0  0  2  0  0  0  0  0  0
  162.0290  210.4670  148.8930 C   0  0  0  0  0  0  0  0  0  0  0  0
  161.9950  210.6310  150.1410 O   0  0  0  0  0  0  0  0  0  0  0  0
  160.9150  212.7000  148.5010 C   0  0  0  0  0  1  0  0  0  0  0  0
  161.5230  211.4730  148.0080 N   0  0  0  0  0  2  0  0  0  0  0  0
  1  7  1  0  0  0  0
  2  4  2  0  0  0  0
  2  7  1  0  0  0  0
  3 21  1  6  0  0  0
  3  4  1  0  0  0  0
  4  6  1  0  0  0  0
  5 16  1  0  0  0  0
  5 19  1  0  0  0  0
  6 16  2  0  0  0  0
  7  5  2  0  0  0  0
  8 22  1  1  0  0  0
  8  1  1  0  0  0  0
  9 15  2  0  0  0  0
  9 11  1  0  0  0  0
 10 11  1  1  0  0  0
 10 14  1  0  0  0  0
 10 13  1  0  0  0  0
 12 14  2  0  0  0  0
 13  8  1  0  0  0  0
 13  2  1  1  0  0  0
 14  3  1  0  0  0  0
 15 12  1  0  0  0  0
 18 19  1  0  0  0  0
 19 17  1  1  0  0  0
 21 20  1  0  0  0  0
 22 23  1  0  0  0  0
 23 24  2  0  0  0  0
 26 25  1  0  0  0  0
 26 23  1  0  0  0  0
M  END
>  <MODEL>
1

>  <REMARK>
 VINA RESULT:      -8.0      0.000      0.000
  Name = 
  4 active torsions:
  status: ('A' for Active; 'I' for Inactive)
    1  A    between atoms: C_3  and  C_7
    2  A    between atoms: C_3  and  C_14
    3  A    between atoms: C_5  and  C_19
    4  A    between atoms: C_10  and  C_25
                            x       y       z     vdW  Elec       q    Type
                         _______ _______ _______ _____ _____    ______ ____

>  <TORSDO>
F 4

$$$$
=
 OpenBabel11052409503D

 26 29  0  0  1  0  0  0  0  0999 V2000
  160.6730  204.4160  149.7200 O   0  0  0  0  0  0  0  0  0  0  0  0
  161.1690  206.5200  150.5840 C   0  0  0  0  0  0  0  0  0  0  0  0
  161.9980  208.5760  151.5330 C   0  0  2  0  0  3  0  0  0  0  0  0
  161.7830  207.8570  150.4120 C   0  0  0  0  0  0  0  0  0  0  0  0
  161.0590  206.2280  148.1380 C   0  0  0  0  0  0  0  0  0  0  0  0
  161.9120  208.3850  149.0340 C   0  0  0  0  0  3  0  0  0  0  0  0
  160.9290  205.7320  149.3780 C   0  0  0  0  0  0  0  0  0  0  0  0
  160.8950  204.1840  151.1140 C   0  0  2  0  0  3  0  0  0  0  0  0
  160.2010  206.8340  155.0490 C   0  0  0  0  0  3  0  0  0  0  0  0
  161.6850  206.4620  153.1160 C   0  0  1  0  0  3  0  0  0  0  0  0
  160.4350  205.9690  153.8370 C   0  0  0  0  0  2  0  0  0  0  0  0
  161.1060  208.7500  153.8240 C   0  0  0  0  0  3  0  0  0  0  0  0
  162.2040  205.4290  151.6370 P   0  0  2  0  0  0  0  0  0  0  0  0
  161.6340  207.9770  152.8630 C   0  0  0  0  0  0  0  0  0  0  0  0
  160.4910  208.1410  155.0240 C   0  0  0  0  0  3  0  0  0  0  0  0
  161.5620  207.6280  147.9810 C   0  0  0  0  0  3  0  0  0  0  0  0
  160.4240  206.1850  145.6870 C   0  0  0  0  0  1  0  0  0  0  0  0
  161.8350  204.5230  146.6560 O   0  0  0  0  0  1  0  0  0  0  0  0
  160.7540  205.3690  146.9340 C   0  0  1  0  0  3  0  0  0  0  0  0
  161.3640  210.8560  151.2940 O   0  0  0  0  0  1  0  0  0  0  0  0
  162.4590  210.0000  151.4510 C   0  0  0  0  0  2  0  0  0  0  0  0
  161.4120  202.7770  151.3340 C   0  0  0  0  0  2  0  0  0  0  0  0
  160.8920  201.8730  150.2730 C   0  0  0  0  0  0  0  0  0  0  0  0
  159.7250  201.4110  150.3730 O   0  0  0  0  0  0  0  0  0  0  0  0
  161.2550  200.6740  148.0800 C   0  0  0  0  0  1  0  0  0  0  0  0
  161.7100  201.5620  149.1400 N   0  0  0  0  0  2  0  0  0  0  0  0
  1  8  1  0  0  0  0
  3 21  1  6  0  0  0
  3 14  1  0  0  0  0
  4  2  1  0  0  0  0
  4  3  1  0  0  0  0
  5  7  1  0  0  0  0
  6  4  2  0  0  0  0
  7  1  1  0  0  0  0
  7  2  2  0  0  0  0
  8 22  1  6  0  0  0
  8 13  1  0  0  0  0
 10 11  1  6  0  0  0
 11  9  1  0  0  0  0
 12 15  1  0  0  0  0
 13  2  1  6  0  0  0
 13 10  1  0  0  0  0
 14 10  1  0  0  0  0
 14 12  2  0  0  0  0
 15  9  2  0  0  0  0
 16  5  2  0  0  0  0
 16  6  1  0  0  0  0
 18 19  1  0  0  0  0
 19 17  1  6  0  0  0
 19  5  1  0  0  0  0
 20 21  1  0  0  0  0
 23 24  2  0  0  0  0
 23 22  1  0  0  0  0
 25 26  1  0  0  0  0
 26 23  1  0  0  0  0
M  END
>  <MODEL>
2

>  <REMARK>
 VINA RESULT:      -8.0      2.705      7.405
  Name = 
  4 active torsions:
  status: ('A' for Active; 'I' for Inactive)
    1  A    between atoms: C_3  and  C_7
    2  A    between atoms: C_3  and  C_14
    3  A    between atoms: C_5  and  C_19
    4  A    between atoms: C_10  and  C_25
                            x       y       z     vdW  Elec       q    Type
                         _______ _______ _______ _____ _____    ______ ____

>  <TORSDO>
F 4

$$$$
=
 OpenBabel11052409503D

 26 29  0  0  1  0  0  0  0  0999 V2000
  161.0030  209.7660  151.9310 O   0  0  0  0  0  0  0  0  0  0  0  0
  161.1250  207.4590  151.6480 C   0  0  0  0  0  0  0  0  0  0  0  0
  161.5920  205.1120  151.3450 C   0  0  2  0  0  3  0  0  0  0  0  0
  161.3730  206.1150  152.2200 C   0  0  0  0  0  0  0  0  0  0  0  0
  160.6940  208.3650  153.9010 C   0  0  0  0  0  0  0  0  0  0  0  0
  161.1510  205.9310  153.6730 C   0  0  0  0  0  3  0  0  0  0  0  0
  160.8860  208.5530  152.5850 C   0  0  0  0  0  0  0  0  0  0  0  0
  161.4950  209.5970  150.5980 C   0  0  2  0  0  3  0  0  0  0  0  0
  160.8440  206.2330  147.2440 C   0  0  0  0  0  3  0  0  0  0  0  0
  162.0420  206.7850  149.3270 C   0  0  1  0  0  3  0  0  0  0  0  0
  161.0750  207.3110  148.2710 C   0  0  0  0  0  2  0  0  0  0  0  0
  161.0660  204.5460  149.0050 C   0  0  0  0  0  3  0  0  0  0  0  0
  162.5430  208.0360  150.6350 P   0  0  2  0  0  0  0  0  0  0  0  0
  161.5980  205.4190  149.8730 C   0  0  0  0  0  0  0  0  0  0  0  0
  160.8120  204.9430  147.6020 C   0  0  0  0  0  3  0  0  0  0  0  0
  160.8230  206.9800  154.4470 C   0  0  0  0  0  3  0  0  0  0  0  0
  159.6370  209.1480  156.0640 C   0  0  0  0  0  1  0  0  0  0  0  0
  161.6040  210.1660  155.1780 O   0  0  0  0  0  1  0  0  0  0  0  0
  160.4080  209.5380  154.8060 C   0  0  1  0  0  3  0  0  0  0  0  0
  160.4120  203.1830  152.0830 O   0  0  0  0  0  1  0  0  0  0  0  0
  161.6870  203.6920  151.8170 C   0  0  0  0  0  2  0  0  0  0  0  0
  162.3550  210.7810  150.2050 C   0  0  0  0  0  2  0  0  0  0  0  0
  161.7660  211.4670  149.0250 C   0  0  0  0  0  0  0  0  0  0  0  0
  161.5270  210.8060  147.9800 O   0  0  0  0  0  0  0  0  0  0  0  0
  160.8840  213.5850  147.9690 C   0  0  0  0  0  1  0  0  0  0  0  0
  161.4510  212.8620  149.0980 N   0  0  0  0  0  2  0  0  0  0  0  0
  1  7  1  0  0  0  0
  2  4  2  0  0  0  0
  2  7  1  0  0  0  0
  3 21  1  6  0  0  0
  3  4  1  0  0  0  0
  4  6  1  0  0  0  0
  5 16  1  0  0  0  0
  5 19  1  0  0  0  0
  6 16  2  0  0  0  0
  7  5  2  0  0  0  0
  8 22  1  1  0  0  0
  8 13  1  0  0  0  0
  8  1  1  0  0  0  0
  9 15  2  0  0  0  0
  9 11  1  0  0  0  0
 10 11  1  1  0  0  0
 10 14  1  0  0  0  0
 10 13  1  0  0  0  0
 12 14  2  0  0  0  0
 13  2  1  1  0  0  0
 14  3  1  0  0  0  0
 15 12  1  0  0  0  0
 19 18  1  0  0  0  0
 19 17  1  1  0  0  0
 21 20  1  0  0  0  0
 23 26  1  0  0  0  0
 23 22  1  0  0  0  0
 24 23  2  0  0  0  0
 25 26  1  0  0  0  0
M  END
>  <MODEL>
3

>  <REMARK>
 VINA RESULT:      -7.9      1.881      2.929
  Name = 
  4 active torsions:
  status: ('A' for Active; 'I' for Inactive)
    1  A    between atoms: C_3  and  C_7
    2  A    between atoms: C_3  and  C_14
    3  A    between atoms: C_5  and  C_19
    4  A    between atoms: C_10  and  C_25
                            x       y       z     vdW  Elec       q    Type
                         _______ _______ _______ _____ _____    ______ ____

>  <TORSDO>
F 4

$$$$
=
 OpenBabel11052409503D

 26 29  0  0  1  0  0  0  0  0999 V2000
  160.8850  210.4500  151.6760 O   0  0  0  0  0  0  0  0  0  0  0  0
  161.0200  208.1270  151.7040 C   0  0  0  0  0  0  0  0  0  0  0  0
  161.5010  205.7640  151.7360 C   0  0  2  0  0  3  0  0  0  0  0  0
  161.2340  206.8700  152.4590 C   0  0  0  0  0  0  0  0  0  0  0  0
  160.4630  209.3160  153.7910 C   0  0  0  0  0  0  0  0  0  0  0  0
  160.9290  206.8760  153.9090 C   0  0  0  0  0  3  0  0  0  0  0  0
  160.7290  209.3320  152.4760 C   0  0  0  0  0  0  0  0  0  0  0  0
  161.4520  210.1120  150.4070 C   0  0  2  0  0  3  0  0  0  0  0  0
  160.9880  206.3360  147.4890 C   0  0  0  0  0  3  0  0  0  0  0  0
  162.0670  207.1620  149.5470 C   0  0  1  0  0  3  0  0  0  0  0  0
  161.1630  207.5400  148.3780 C   0  0  0  0  0  2  0  0  0  0  0  0
  161.1080  204.8940  149.4640 C   0  0  0  0  0  3  0  0  0  0  0  0
  162.4940  208.5760  150.7060 P   0  0  2  0  0  0  0  0  0  0  0  0
  161.5910  205.8760  150.2400 C   0  0  0  0  0  0  0  0  0  0  0  0
  160.9350  205.1030  148.0090 C   0  0  0  0  0  3  0  0  0  0  0  0
  160.5580  208.0150  154.5200 C   0  0  0  0  0  3  0  0  0  0  0  0
  159.0950  210.4000  155.6260 C   0  0  0  0  0  1  0  0  0  0  0  0
  161.2860  211.1600  155.0670 O   0  0  0  0  0  1  0  0  0  0  0  0
  160.1270  210.5960  154.5180 C   0  0  1  0  0  3  0  0  0  0  0  0
  160.4000  203.6930  152.1340 O   0  0  0  0  0  1  0  0  0  0  0  0
  161.5670  204.4180  152.3940 C   0  0  0  0  0  2  0  0  0  0  0  0
  162.3350  211.2400  149.9120 C   0  0  0  0  0  2  0  0  0  0  0  0
  161.5670  212.1190  148.9900 C   0  0  0  0  0  0  0  0  0  0  0  0
  160.7930  212.9900  149.4680 O   0  0  0  0  0  0  0  0  0  0  0  0
  161.0020  212.8130  146.6280 C   0  0  0  0  0  1  0  0  0  0  0  0
  161.7370  211.9860  147.5750 N   0  0  0  0  0  2  0  0  0  0  0  0
  1  7  1  0  0  0  0
  2  4  2  0  0  0  0
  2  7  1  0  0  0  0
  3 21  1  6  0  0  0
  3  4  1  0  0  0  0
  4  6  1  0  0  0  0
  5 19  1  0  0  0  0
  5 16  1  0  0  0  0
  6 16  2  0  0  0  0
  7  5  2  0  0  0  0
  8 22  1  1  0  0  0
  8 13  1  0  0  0  0
  8  1  1  0  0  0  0
  9 15  2  0  0  0  0
  9 11  1  0  0  0  0
 10 11  1  6  0  0  0
 10 14  1  0  0  0  0
 10 13  1  0  0  0  0
 12 14  2  0  0  0  0
 13  2  1  1  0  0  0
 14  3  1  0  0  0  0
 15 12  1  0  0  0  0
 19 18  1  0  0  0  0
 19 17  1  1  0  0  0
 20 21  1  0  0  0  0
 23 24  2  0  0  0  0
 23 22  1  0  0  0  0
 25 26  1  0  0  0  0
 26 23  1  0  0  0  0
M  END
>  <MODEL>
4

>  <REMARK>
 VINA RESULT:      -7.5      2.158      3.444
  Name = 
  4 active torsions:
  status: ('A' for Active; 'I' for Inactive)
    1  A    between atoms: C_3  and  C_7
    2  A    between atoms: C_3  and  C_14
    3  A    between atoms: C_5  and  C_19
    4  A    between atoms: C_10  and  C_25
                            x       y       z     vdW  Elec       q    Type
                         _______ _______ _______ _____ _____    ______ ____

>  <TORSDO>
F 4

$$$$
=
 OpenBabel11052409503D

 26 29  0  0  1  0  0  0  0  0999 V2000
  162.2650  206.3500  147.1400 O   0  0  0  0  0  0  0  0  0  0  0  0
  161.5260  204.7090  148.6160 C   0  0  0  0  0  0  0  0  0  0  0  0
  160.4490  203.1520  150.1100 C   0  0  2  0  0  3  0  0  0  0  0  0
  160.8410  203.4160  148.8470 C   0  0  0  0  0  0  0  0  0  0  0  0
  161.9320  204.1020  146.2600 C   0  0  0  0  0  0  0  0  0  0  0  0
  160.8310  202.4320  147.7380 C   0  0  0  0  0  3  0  0  0  0  0  0
  161.9560  205.0060  147.2520 C   0  0  0  0  0  0  0  0  0  0  0  0
  161.9030  207.0710  148.3210 C   0  0  2  0  0  3  0  0  0  0  0  0
  161.9560  205.9890  152.9920 C   0  0  0  0  0  3  0  0  0  0  0  0
  160.7310  205.6830  150.8740 C   0  0  1  0  0  3  0  0  0  0  0  0
  161.9230  206.3690  151.5330 C   0  0  0  0  0  2  0  0  0  0  0  0
  161.0610  203.7860  152.4110 C   0  0  0  0  0  3  0  0  0  0  0  0
  160.4580  206.1310  149.0710 P   0  0  2  0  0  0  0  0  0  0  0  0
  160.7020  204.1770  151.1800 C   0  0  0  0  0  0  0  0  0  0  0  0
  161.5780  204.7680  153.3900 C   0  0  0  0  0  3  0  0  0  0  0  0
  161.3520  202.7530  146.5420 C   0  0  0  0  0  3  0  0  0  0  0  0
  161.4980  205.4140  144.1390 C   0  0  0  0  0  1  0  0  0  0  0  0
  163.7040  205.0460  144.9670 O   0  0  0  0  0  1  0  0  0  0  0  0
  162.4330  204.4650  144.8830 C   0  0  1  0  0  3  0  0  0  0  0  0
  160.9240  200.8520  150.4920 O   0  0  0  0  0  1  0  0  0  0  0  0
  159.9000  201.8050  150.4750 C   0  0  0  0  0  2  0  0  0  0  0  0
  161.4670  208.4770  147.9610 C   0  0  0  0  0  2  0  0  0  0  0  0
  161.9470  209.4370  148.9910 C   0  0  0  0  0  0  0  0  0  0  0  0
  162.3310  210.5830  148.6360 O   0  0  0  0  0  0  0  0  0  0  0  0
  162.4110  209.9580  151.4180 C   0  0  0  0  0  1  0  0  0  0  0  0
  161.9410  209.0610  150.3720 N   0  0  0  0  0  2  0  0  0  0  0  0
  1  7  1  0  0  0  0
  1  8  1  0  0  0  0
  2  4  1  0  0  0  0
  3 21  1  1  0  0  0
  3 14  1  0  0  0  0
  4  3  1  0  0  0  0
  5 16  2  0  0  0  0
  5  7  1  0  0  0  0
  6  4  2  0  0  0  0
  7  2  2  0  0  0  0
  8 22  1  6  0  0  0
  8 13  1  0  0  0  0
  9 15  2  0  0  0  0
 10 14  1  0  0  0  0
 10 11  1  6  0  0  0
 11  9  1  0  0  0  0
 12 15  1  0  0  0  0
 13  2  1  6  0  0  0
 13 10  1  0  0  0  0
 14 12  2  0  0  0  0
 16  6  1  0  0  0  0
 19 17  1  1  0  0  0
 19 18  1  0  0  0  0
 19  5  1  0  0  0  0
 21 20  1  0  0  0  0
 22 23  1  0  0  0  0
 23 26  1  0  0  0  0
 24 23  2  0  0  0  0
 26 25  1  0  0  0  0
M  END
>  <MODEL>
5

>  <REMARK>
 VINA RESULT:      -6.8      2.060      5.061
  Name = 
  4 active torsions:
  status: ('A' for Active; 'I' for Inactive)
    1  A    between atoms: C_3  and  C_7
    2  A    between atoms: C_3  and  C_14
    3  A    between atoms: C_5  and  C_19
    4  A    between atoms: C_10  and  C_25
                            x       y       z     vdW  Elec       q    Type
                         _______ _______ _______ _____ _____    ______ ____

>  <TORSDO>
F 4

$$$$
=
 OpenBabel11052409503D

 26 29  0  0  1  0  0  0  0  0999 V2000
  160.5400  211.6340  151.0170 O   0  0  0  0  0  0  0  0  0  0  0  0
  160.6350  209.7970  152.4440 C   0  0  0  0  0  0  0  0  0  0  0  0
  161.0660  207.9670  153.9550 C   0  0  2  0  0  3  0  0  0  0  0  0
  160.6820  209.2530  153.8210 C   0  0  0  0  0  0  0  0  0  0  0  0
  159.7060  211.9200  153.2890 C   0  0  0  0  0  0  0  0  0  0  0  0
  160.1070  210.0780  154.9100 C   0  0  0  0  0  3  0  0  0  0  0  0
  160.2190  211.1880  152.2870 C   0  0  0  0  0  0  0  0  0  0  0  0
  161.3340  210.6750  150.3110 C   0  0  2  0  0  3  0  0  0  0  0  0
  161.3810  205.8820  150.1890 C   0  0  0  0  0  3  0  0  0  0  0  0
  162.0600  207.8640  151.4900 C   0  0  1  0  0  3  0  0  0  0  0  0
  161.4000  207.3890  150.1990 C   0  0  0  0  0  2  0  0  0  0  0  0
  161.1010  205.8950  152.6200 C   0  0  0  0  0  3  0  0  0  0  0  0
  162.2780  209.7230  151.6300 P   0  0  2  0  0  0  0  0  0  0  0  0
  161.4410  207.1880  152.7250 C   0  0  0  0  0  0  0  0  0  0  0  0
  161.2120  205.1920  151.3230 C   0  0  0  0  0  3  0  0  0  0  0  0
  159.6430  211.3130  154.6530 C   0  0  0  0  0  3  0  0  0  0  0  0
  158.0440  213.4330  152.1230 C   0  0  0  0  0  1  0  0  0  0  0  0
  158.9570  213.9690  154.2600 O   0  0  0  0  0  1  0  0  0  0  0  0
  159.2570  213.3410  153.0450 C   0  0  1  0  0  3  0  0  0  0  0  0
  159.6610  206.9490  155.5820 O   0  0  0  0  0  1  0  0  0  0  0  0
  160.9870  207.2790  155.2840 C   0  0  0  0  0  2  0  0  0  0  0  0
  162.3110  211.3810  149.3930 C   0  0  0  0  0  2  0  0  0  0  0  0
  161.5830  212.3280  148.5080 C   0  0  0  0  0  0  0  0  0  0  0  0
  161.6520  213.5650  148.7370 O   0  0  0  0  0  0  0  0  0  0  0  0
  160.0970  212.7120  146.5020 C   0  0  0  0  0  1  0  0  0  0  0  0
  160.8380  211.8300  147.3920 N   0  0  0  0  0  2  0  0  0  0  0  0
  1  7  1  0  0  0  0
  2  4  1  0  0  0  0
  3 21  1  6  0  0  0
  4  3  1  0  0  0  0
  4  6  2  0  0  0  0
  5 16  2  0  0  0  0
  7  2  2  0  0  0  0
  7  5  1  0  0  0  0
  8 22  1  6  0  0  0
  8  1  1  0  0  0  0
  8 13  1  0  0  0  0
  9 11  1  0  0  0  0
  9 15  2  0  0  0  0
 10 11  1  6  0  0  0
 10 13  1  0  0  0  0
 10 14  1  0  0  0  0
 12 14  2  0  0  0  0
 13  2  1  1  0  0  0
 14  3  1  0  0  0  0
 15 12  1  0  0  0  0
 16  6  1  0  0  0  0
 19 17  1  6  0  0  0
 19  5  1  0  0  0  0
 19 18  1  0  0  0  0
 21 20  1  0  0  0  0
 23 24  2  0  0  0  0
 23 22  1  0  0  0  0
 25 26  1  0  0  0  0
 26 23  1  0  0  0  0
M  END
>  <MODEL>
6

>  <REMARK>
 VINA RESULT:      -6.6      3.478      5.795
  Name = 
  4 active torsions:
  status: ('A' for Active; 'I' for Inactive)
    1  A    between atoms: C_3  and  C_7
    2  A    between atoms: C_3  and  C_14
    3  A    between atoms: C_5  and  C_19
    4  A    between atoms: C_10  and  C_25
                            x       y       z     vdW  Elec       q    Type
                         _______ _______ _______ _____ _____    ______ ____

>  <TORSDO>
F 4

$$$$
=
 OpenBabel11052409503D

 26 29  0  0  1  0  0  0  0  0999 V2000
  160.6580  206.1030  151.7030 O   0  0  0  0  0  0  0  0  0  0  0  0
  161.1270  208.1100  150.6220 C   0  0  0  0  0  0  0  0  0  0  0  0
  161.9210  210.1730  149.6560 C   0  0  2  0  0  3  0  0  0  0  0  0
  161.7890  208.8380  149.5140 C   0  0  0  0  0  0  0  0  0  0  0  0
  161.2310  206.0080  149.3370 C   0  0  0  0  0  0  0  0  0  0  0  0
  162.0550  208.0930  148.2610 C   0  0  0  0  0  3  0  0  0  0  0  0
  160.9770  206.6650  150.4800 C   0  0  0  0  0  0  0  0  0  0  0  0
  160.7480  207.0640  152.7600 C   0  0  2  0  0  3  0  0  0  0  0  0
  159.7700  211.7490  153.0500 C   0  0  0  0  0  3  0  0  0  0  0  0
  161.4120  210.0860  152.2640 C   0  0  1  0  0  3  0  0  0  0  0  0
  160.0900  210.2770  153.0000 C   0  0  0  0  0  2  0  0  0  0  0  0
  160.8310  212.0260  150.8610 C   0  0  0  0  0  3  0  0  0  0  0  0
  162.0360  208.3160  152.2040 P   0  0  2  0  0  0  0  0  0  0  0  0
  161.4230  210.8240  150.9160 C   0  0  0  0  0  0  0  0  0  0  0  0
  160.0950  212.5550  152.0310 C   0  0  0  0  0  3  0  0  0  0  0  0
  161.7810  206.7800  148.1810 C   0  0  0  0  0  3  0  0  0  0  0  0
  161.5810  203.9070  147.9690 C   0  0  0  0  0  1  0  0  0  0  0  0
  161.5840  203.8760  150.3540 O   0  0  0  0  0  1  0  0  0  0  0  0
  161.0130  204.5170  149.2470 C   0  0  1  0  0  3  0  0  0  0  0  0
  161.3550  211.4560  147.7340 O   0  0  0  0  0  1  0  0  0  0  0  0
  162.4240  211.0160  148.5230 C   0  0  0  0  0  2  0  0  0  0  0  0
  161.2060  206.3920  154.0390 C   0  0  0  0  0  2  0  0  0  0  0  0
  160.7140  207.1530  155.2170 C   0  0  0  0  0  0  0  0  0  0  0  0
  159.5430  206.9540  155.6380 O   0  0  0  0  0  0  0  0  0  0  0  0
  161.1470  208.8600  157.0280 C   0  0  0  0  0  1  0  0  0  0  0  0
  161.5820  208.0810  155.8780 N   0  0  0  0  0  2  0  0  0  0  0  0
  1  8  1  0  0  0  0
  3 21  1  6  0  0  0
  3 14  1  0  0  0  0
  4  3  1  0  0  0  0
  4  2  2  0  0  0  0
  5  7  2  0  0  0  0
  6  4  1  0  0  0  0
  7  2  1  0  0  0  0
  7  1  1  0  0  0  0
  8 22  1  1  0  0  0
 10 11  1  6  0  0  0
 11  9  1  0  0  0  0
 12 14  2  0  0  0  0
 12 15  1  0  0  0  0
 13  2  1  6  0  0  0
 13 10  1  0  0  0  0
 13  8  1  0  0  0  0
 14 10  1  0  0  0  0
 15  9  2  0  0  0  0
 16  6  2  0  0  0  0
 16  5  1  0  0  0  0
 19 17  1  6  0  0  0
 19  5  1  0  0  0  0
 19 18  1  0  0  0  0
 20 21  1  0  0  0  0
 22 23  1  0  0  0  0
 23 24  2  0  0  0  0
 23 26  1  0  0  0  0
 26 25  1  0  0  0  0
M  END
>  <MODEL>
7

>  <REMARK>
 VINA RESULT:      -6.6      2.907      6.951
  Name = 
  4 active torsions:
  status: ('A' for Active; 'I' for Inactive)
    1  A    between atoms: C_3  and  C_7
    2  A    between atoms: C_3  and  C_14
    3  A    between atoms: C_5  and  C_19
    4  A    between atoms: C_10  and  C_25
                            x       y       z     vdW  Elec       q    Type
                         _______ _______ _______ _____ _____    ______ ____

>  <TORSDO>
F 4

$$$$
=
 OpenBabel11052409503D

 26 29  0  0  1  0  0  0  0  0999 V2000
  161.5100  204.4780  147.1670 O   0  0  0  0  0  0  0  0  0  0  0  0
  161.3380  205.2070  149.3710 C   0  0  0  0  0  0  0  0  0  0  0  0
  160.8310  206.0270  151.5820 C   0  0  2  0  0  3  0  0  0  0  0  0
  160.9190  204.9540  150.7690 C   0  0  0  0  0  0  0  0  0  0  0  0
  161.3560  202.7840  148.9120 C   0  0  0  0  0  0  0  0  0  0  0  0
  160.8390  203.5450  151.2220 C   0  0  0  0  0  3  0  0  0  0  0  0
  161.4380  204.0530  148.4820 C   0  0  0  0  0  0  0  0  0  0  0  0
  161.2840  205.8870  147.0600 C   0  0  2  0  0  3  0  0  0  0  0  0
  162.4290  209.6320  149.8270 C   0  0  0  0  0  3  0  0  0  0  0  0
  160.8690  207.7420  149.5500 C   0  0  1  0  0  3  0  0  0  0  0  0
  162.0490  208.4820  148.9290 C   0  0  0  0  0  2  0  0  0  0  0  0
  161.7840  208.2920  151.7710 C   0  0  0  0  0  3  0  0  0  0  0  0
  160.1780  206.3400  148.5110 P   0  0  2  0  0  0  0  0  0  0  0  0
  161.1310  207.3890  151.0230 C   0  0  0  0  0  0  0  0  0  0  0  0
  162.3290  209.5230  151.1570 C   0  0  0  0  0  3  0  0  0  0  0  0
  161.0570  202.5410  150.3560 C   0  0  0  0  0  3  0  0  0  0  0  0
  161.5820  200.2780  148.6330 C   0  0  0  0  0  1  0  0  0  0  0  0
  160.4530  201.6310  147.0250 O   0  0  0  0  0  1  0  0  0  0  0  0
  161.5120  201.6370  147.9430 C   0  0  1  0  0  3  0  0  0  0  0  0
  161.7880  205.8110  153.7490 O   0  0  0  0  0  1  0  0  0  0  0  0
  160.5780  205.8560  153.0500 C   0  0  0  0  0  2  0  0  0  0  0  0
  160.5760  206.2040  145.7580 C   0  0  0  0  0  2  0  0  0  0  0  0
  160.5670  205.0050  144.8780 C   0  0  0  0  0  0  0  0  0  0  0  0
  161.5580  204.7770  144.1350 O   0  0  0  0  0  0  0  0  0  0  0  0
  159.3860  202.9290  144.0580 C   0  0  0  0  0  1  0  0  0  0  0  0
  159.4500  204.1110  144.9070 N   0  0  0  0  0  2  0  0  0  0  0  0
  1  7  1  0  0  0  0
  2  4  1  0  0  0  0
  3 21  1  1  0  0  0
  4  6  2  0  0  0  0
  4  3  1  0  0  0  0
  5 16  2  0  0  0  0
  7  5  1  0  0  0  0
  7  2  2  0  0  0  0
  8 22  1  6  0  0  0
  8  1  1  0  0  0  0
  8 13  1  0  0  0  0
  9 15  2  0  0  0  0
 10 11  1  6  0  0  0
 10 14  1  0  0  0  0
 11  9  1  0  0  0  0
 13  2  1  1  0  0  0
 13 10  1  0  0  0  0
 14  3  1  0  0  0  0
 14 12  2  0  0  0  0
 15 12  1  0  0  0  0
 16  6  1  0  0  0  0
 18 19  1  0  0  0  0
 19 17  1  1  0  0  0
 19  5  1  0  0  0  0
 21 20  1  0  0  0  0
 23 26  1  0  0  0  0
 23 22  1  0  0  0  0
 24 23  2  0  0  0  0
 25 26  1  0  0  0  0
M  END
>  <MODEL>
8

>  <REMARK>
 VINA RESULT:      -6.4      2.581      5.985
  Name = 
  4 active torsions:
  status: ('A' for Active; 'I' for Inactive)
    1  A    between atoms: C_3  and  C_7
    2  A    between atoms: C_3  and  C_14
    3  A    between atoms: C_5  and  C_19
    4  A    between atoms: C_10  and  C_25
                            x       y       z     vdW  Elec       q    Type
                         _______ _______ _______ _____ _____    ______ ____

>  <TORSDO>
F 4

$$$$
=
 OpenBabel11052409503D

 26 29  0  0  1  0  0  0  0  0999 V2000
  160.5300  206.6170  152.6660 O   0  0  0  0  0  0  0  0  0  0  0  0
  161.0000  208.4590  151.3230 C   0  0  0  0  0  0  0  0  0  0  0  0
  161.7830  210.3870  150.1050 C   0  0  2  0  0  3  0  0  0  0  0  0
  161.7080  209.0420  150.1600 C   0  0  0  0  0  0  0  0  0  0  0  0
  161.2650  206.1950  150.3810 C   0  0  0  0  0  0  0  0  0  0  0  0
  162.0850  208.1310  149.0530 C   0  0  0  0  0  3  0  0  0  0  0  0
  160.9110  207.0030  151.3930 C   0  0  0  0  0  0  0  0  0  0  0  0
  160.5140  207.7280  153.5680 C   0  0  2  0  0  3  0  0  0  0  0  0
  159.3530  212.3540  153.0810 C   0  0  0  0  0  3  0  0  0  0  0  0
  161.1030  210.6680  152.6600 C   0  0  1  0  0  3  0  0  0  0  0  0
  159.7280  210.9070  153.2760 C   0  0  0  0  0  2  0  0  0  0  0  0
  160.5490  212.3490  150.9450 C   0  0  0  0  0  3  0  0  0  0  0  0
  161.7910  208.9390  152.9080 P   0  0  2  0  0  0  0  0  0  0  0  0
  161.1790  211.1960  151.2190 C   0  0  0  0  0  0  0  0  0  0  0  0
  159.7170  213.0120  151.9730 C   0  0  0  0  0  3  0  0  0  0  0  0
  161.8640  206.8090  149.1570 C   0  0  0  0  0  3  0  0  0  0  0  0
  161.2060  203.9740  149.1670 C   0  0  0  0  0  1  0  0  0  0  0  0
  162.0700  204.1810  151.3810 O   0  0  0  0  0  1  0  0  0  0  0  0
  161.1060  204.6990  150.5060 C   0  0  1  0  0  3  0  0  0  0  0  0
  161.3070  211.3200  147.9690 O   0  0  0  0  0  1  0  0  0  0  0  0
  162.3310  211.0740  148.8900 C   0  0  0  0  0  2  0  0  0  0  0  0
  160.9080  207.2760  154.9590 C   0  0  0  0  0  2  0  0  0  0  0  0
  160.9340  208.4410  155.8840 C   0  0  0  0  0  0  0  0  0  0  0  0
  162.0200  208.7740  156.4280 O   0  0  0  0  0  0  0  0  0  0  0  0
  159.7030  210.3270  157.0260 C   0  0  0  0  0  1  0  0  0  0  0  0
  159.7360  209.1860  156.1220 N   0  0  0  0  0  2  0  0  0  0  0  0
  1  8  1  0  0  0  0
  2  7  1  0  0  0  0
  3 21  1  6  0  0  0
  3  4  1  0  0  0  0
  3 14  1  0  0  0  0
  4  2  2  0  0  0  0
  5 19  1  0  0  0  0
  5  7  2  0  0  0  0
  6 16  2  0  0  0  0
  6  4  1  0  0  0  0
  7  1  1  0  0  0  0
  8 22  1  1  0  0  0
  9 11  1  0  0  0  0
 10 13  1  0  0  0  0
 10 11  1  6  0  0  0
 12 14  2  0  0  0  0
 12 15  1  0  0  0  0
 13  2  1  6  0  0  0
 13  8  1  0  0  0  0
 14 10  1  0  0  0  0
 15  9  2  0  0  0  0
 16  5  1  0  0  0  0
 19 17  1  6  0  0  0
 19 18  1  0  0  0  0
 20 21  1  0  0  0  0
 22 23  1  0  0  0  0
 23 26  1  0  0  0  0
 23 24  2  0  0  0  0
 26 25  1  0  0  0  0
M  END
>  <MODEL>
9

>  <REMARK>
 VINA RESULT:      -6.2      3.209      7.049
  Name = 
  4 active torsions:
  status: ('A' for Active; 'I' for Inactive)
    1  A    between atoms: C_3  and  C_7
    2  A    between atoms: C_3  and  C_14
    3  A    between atoms: C_5  and  C_19
    4  A    between atoms: C_10  and  C_25
                            x       y       z     vdW  Elec       q    Type
                         _______ _______ _______ _____ _____    ______ ____

>  <TORSDO>
F 4

$$$$
