=
 OpenBabel11052410463D

 37 39  0  0  1  0  0  0  0  0999 V2000
  161.3910  208.6570  150.9630 C   0  0  2  0  0  3  0  0  0  0  0  0
  161.1400  208.2240  152.3750 C   0  0  0  0  0  0  0  0  0  0  0  0
  160.3870  207.1300  156.3570 N   0  0  0  0  0  1  0  0  0  0  0  0
  160.6380  207.4900  155.0040 C   0  0  0  0  0  0  0  0  0  0  0  0
  160.5550  208.7930  154.6210 N   0  0  0  0  0  0  0  0  0  0  0  0
  161.2240  206.8770  152.7500 C   0  0  0  0  0  3  0  0  0  0  0  0
  160.9740  206.5060  154.0710 C   0  0  0  0  0  3  0  0  0  0  0  0
  160.7950  209.1760  153.3370 C   0  0  0  0  0  3  0  0  0  0  0  0
  161.7320  207.4400  150.0790 C   0  0  1  0  0  3  0  0  0  0  0  0
  160.4900  206.7310  149.5700 C   0  0  0  0  0  2  0  0  0  0  0  0
  161.3000  207.6080  148.6310 C   0  0  2  0  0  3  0  0  0  0  0  0
  162.1710  206.7350  147.7550 C   0  0  0  0  0  2  0  0  0  0  0  0
  161.3310  206.1150  146.6530 C   0  0  0  0  0  2  0  0  0  0  0  0
  161.9370  204.7950  146.2120 C   0  0  1  0  0  3  0  0  0  0  0  0
  163.1800  205.0310  145.6270 O   0  0  0  0  0  1  0  0  0  0  0  0
  162.1060  203.8750  147.4120 C   0  0  0  0  0  2  0  0  0  0  0  0
  161.0950  202.7310  147.3690 C   0  0  1  0  0  3  0  0  0  0  0  0
  160.8920  202.2970  146.0540 O   0  0  0  0  0  1  0  0  0  0  0  0
  161.4340  201.6590  148.2270 O   0  0  0  0  0  0  0  0  0  0  0  0
  160.9470  200.6830  150.2350 O   0  0  0  0  0  1  0  0  0  0  0  0
  160.5180  201.6200  149.2950 C   0  0  1  0  0  3  0  0  0  0  0  0
  160.4310  202.9950  149.9370 C   0  0  0  0  0  2  0  0  0  0  0  0
  162.1830  204.1220  151.1060 O   0  0  0  0  0  1  0  0  0  0  0  0
  160.3860  203.2640  152.3970 C   0  0  0  0  0  1  0  0  0  0  0  0
  161.2820  203.0600  151.1940 C   0  0  1  0  0  3  0  0  0  0  0  0
  162.3620  209.8470  150.8970 C   0  0  0  0  0  2  0  0  0  0  0  0
  161.7600  211.0060  150.1170 C   0  0  0  0  0  2  0  0  0  0  0  0
  162.0590  210.8730  148.7600 O   0  0  0  0  0  0  0  0  0  0  0  0
  161.5100  212.0100  148.1650 C   0  0  0  0  0  2  0  0  0  0  0  0
  163.7980  212.4740  147.7090 O   0  0  0  0  0  0  0  0  0  0  0  0
  162.6000  212.8520  147.6040 C   0  0  0  0  0  0  0  0  0  0  0  0
  162.2830  214.0310  146.9330 O   0  0  0  0  0  0  0  0  0  0  0  0
  161.7830  213.5660  144.7260 C   0  0  0  0  0  0  0  0  0  0  0  0
  160.6150  212.6590  144.3550 C   0  0  0  0  0  2  0  0  0  0  0  0
  161.3980  213.2060  143.2950 C   0  0  2  0  0  3  0  0  0  0  0  0
  162.5330  214.1700  145.5880 N   0  0  0  0  0  0  0  0  0  0  0  0
  162.2930  212.2490  142.8180 O   0  0  0  0  0  1  0  0  0  0  0  0
  1 26  1  1  0  0  0
  1  2  1  0  0  0  0
  2  6  2  0  0  0  0
  2  8  1  0  0  0  0
  4  3  1  0  0  0  0
  5  4  1  0  0  0  0
  6  7  1  0  0  0  0
  7  4  2  0  0  0  0
  8  5  2  0  0  0  0
  9  1  1  1  0  0  0
 10  9  1  0  0  0  0
 11 12  1  6  0  0  0
 11 10  1  0  0  0  0
 11  9  1  0  0  0  0
 13 12  1  0  0  0  0
 14 15  1  1  0  0  0
 14 13  1  0  0  0  0
 14 16  1  0  0  0  0
 17 18  1  6  0  0  0
 17 16  1  0  0  0  0
 17 19  1  0  0  0  0
 19 21  1  0  0  0  0
 21 22  1  0  0  0  0
 21 20  1  1  0  0  0
 22 25  1  0  0  0  0
 23 25  1  0  0  0  0
 25 24  1  1  0  0  0
 27 26  1  0  0  0  0
 28 27  1  0  0  0  0
 29 28  1  0  0  0  0
 31 30  2  0  0  0  0
 31 29  1  0  0  0  0
 32 31  1  0  0  0  0
 33 36  2  0  0  0  0
 34 33  1  0  0  0  0
 35 37  1  1  0  0  0
 35 34  1  0  0  0  0
 35 33  1  0  0  0  0
 36 32  1  0  0  0  0
M  END
>  <MODEL>
1

>  <REMARK>
 VINA RESULT:      -7.0      0.000      0.000
  Name = 
  18 active torsions:
  status: ('A' for Active; 'I' for Inactive)
    1  A    between atoms: C_1  and  C_19
    2  A    between atoms: O_4  and  N_23
    3  A    between atoms: O_4  and  C_31
    4  A    between atoms: C_5  and  C_19
    5  A    between atoms: C_10  and  O_25
    6  A    between atoms: C_10  and  C_33
    7  A    between atoms: C_12  and  C_18
    8  A    between atoms: C_12  and  C_33
    9  A    between atoms: C_17  and  C_19
   10  A    between atoms: C_17  and  C_29
   11  A    between atoms: C_18  and  C_30
   12  A    between atoms: C_20  and  C_28
   13  A    between atoms: O_25  and  C_26
   14  A    between atoms: C_26  and  C_28
   15  A    between atoms: C_29  and  O_37
   16  A    between atoms: C_30  and  C_35
   17  A    between atoms: C_31  and  C_34
   18  A    between atoms: C_34  and  O_37
                            x       y       z     vdW  Elec       q    Type
                         _______ _______ _______ _____ _____    ______ ____

>  <TORSDO>
F 18

$$$$
=
 OpenBabel11052410463D

 37 39  0  0  1  0  0  0  0  0999 V2000
  161.3320  205.0350  149.2700 C   0  0  2  0  0  3  0  0  0  0  0  0
  161.1770  203.8210  148.4050 C   0  0  0  0  0  0  0  0  0  0  0  0
  160.8080  200.4810  145.8890 N   0  0  0  0  0  1  0  0  0  0  0  0
  160.9360  201.6060  146.7510 C   0  0  0  0  0  0  0  0  0  0  0  0
  161.3590  202.8000  146.2520 N   0  0  0  0  0  0  0  0  0  0  0  0
  160.7460  202.5990  148.9360 C   0  0  0  0  0  3  0  0  0  0  0  0
  160.6220  201.4840  148.1070 C   0  0  0  0  0  3  0  0  0  0  0  0
  161.4870  203.8980  147.0450 C   0  0  0  0  0  3  0  0  0  0  0  0
  160.8790  204.7310  150.7110 C   0  0  1  0  0  3  0  0  0  0  0  0
  161.8730  203.8590  151.4560 C   0  0  0  0  0  2  0  0  0  0  0  0
  161.7850  205.3430  151.7680 C   0  0  2  0  0  3  0  0  0  0  0  0
  160.9890  205.5410  153.0390 C   0  0  0  0  0  2  0  0  0  0  0  0
  161.6350  206.6250  153.8840 C   0  0  0  0  0  2  0  0  0  0  0  0
  160.6100  207.6830  154.2510 C   0  0  1  0  0  3  0  0  0  0  0  0
  160.4770  207.7330  155.6380 O   0  0  0  0  0  1  0  0  0  0  0  0
  161.0600  209.0420  153.7340 C   0  0  0  0  0  2  0  0  0  0  0  0
  160.3010  210.1690  154.4330 C   0  0  1  0  0  3  0  0  0  0  0  0
  161.1860  211.1360  154.9210 O   0  0  0  0  0  1  0  0  0  0  0  0
  159.2930  210.7440  153.6230 O   0  0  0  0  0  0  0  0  0  0  0  0
  157.8600  212.5210  153.5260 O   0  0  0  0  0  1  0  0  0  0  0  0
  158.5780  211.6870  154.3830 C   0  0  1  0  0  3  0  0  0  0  0  0
  157.6240  210.9640  155.3200 C   0  0  0  0  0  2  0  0  0  0  0  0
  155.3510  210.3880  154.8630 O   0  0  0  0  0  1  0  0  0  0  0  0
  155.7410  212.1580  156.3960 C   0  0  0  0  0  1  0  0  0  0  0  0
  156.2000  211.4620  155.1320 C   0  0  1  0  0  3  0  0  0  0  0  0
  160.7280  206.2840  148.6090 C   0  0  0  0  0  2  0  0  0  0  0  0
  161.7840  207.3580  148.3940 C   0  0  0  0  0  2  0  0  0  0  0  0
  161.5740  208.4160  149.2790 O   0  0  0  0  0  0  0  0  0  0  0  0
  162.0980  209.5320  148.6260 C   0  0  0  0  0  2  0  0  0  0  0  0
  161.9960  210.5350  150.7800 O   0  0  0  0  0  0  0  0  0  0  0  0
  162.0420  210.7100  149.5320 C   0  0  0  0  0  0  0  0  0  0  0  0
  162.0800  211.9950  148.9950 O   0  0  0  0  0  0  0  0  0  0  0  0
  162.3480  213.1000  146.9840 C   0  0  0  0  0  0  0  0  0  0  0  0
  161.2910  214.0720  146.4710 C   0  0  0  0  0  2  0  0  0  0  0  0
  162.4500  213.8580  145.6640 C   0  0  2  0  0  3  0  0  0  0  0  0
  162.8050  212.2660  147.8580 N   0  0  0  0  0  0  0  0  0  0  0  0
  162.1510  212.9820  144.6210 O   0  0  0  0  0  1  0  0  0  0  0  0
  1 26  1  6  0  0  0
  2  6  1  0  0  0  0
  2  1  1  0  0  0  0
  3  4  1  0  0  0  0
  4  7  1  0  0  0  0
  5  4  2  0  0  0  0
  5  8  1  0  0  0  0
  7  6  2  0  0  0  0
  8  2  2  0  0  0  0
  9  1  1  6  0  0  0
  9 10  1  0  0  0  0
  9 11  1  0  0  0  0
 10 11  1  0  0  0  0
 11 12  1  1  0  0  0
 12 13  1  0  0  0  0
 13 14  1  0  0  0  0
 14 15  1  1  0  0  0
 16 14  1  0  0  0  0
 16 17  1  0  0  0  0
 17 18  1  6  0  0  0
 19 21  1  0  0  0  0
 19 17  1  0  0  0  0
 21 20  1  6  0  0  0
 21 22  1  0  0  0  0
 23 25  1  0  0  0  0
 25 22  1  0  0  0  0
 25 24  1  1  0  0  0
 27 26  1  0  0  0  0
 27 28  1  0  0  0  0
 29 28  1  0  0  0  0
 29 31  1  0  0  0  0
 31 30  2  0  0  0  0
 32 31  1  0  0  0  0
 33 36  2  0  0  0  0
 34 33  1  0  0  0  0
 35 37  1  6  0  0  0
 35 34  1  0  0  0  0
 35 33  1  0  0  0  0
 36 32  1  0  0  0  0
M  END
>  <MODEL>
2

>  <REMARK>
 VINA RESULT:      -6.8      4.183      7.658
  Name = 
  18 active torsions:
  status: ('A' for Active; 'I' for Inactive)
    1  A    between atoms: C_1  and  C_19
    2  A    between atoms: O_4  and  N_23
    3  A    between atoms: O_4  and  C_31
    4  A    between atoms: C_5  and  C_19
    5  A    between atoms: C_10  and  O_25
    6  A    between atoms: C_10  and  C_33
    7  A    between atoms: C_12  and  C_18
    8  A    between atoms: C_12  and  C_33
    9  A    between atoms: C_17  and  C_19
   10  A    between atoms: C_17  and  C_29
   11  A    between atoms: C_18  and  C_30
   12  A    between atoms: C_20  and  C_28
   13  A    between atoms: O_25  and  C_26
   14  A    between atoms: C_26  and  C_28
   15  A    between atoms: C_29  and  O_37
   16  A    between atoms: C_30  and  C_35
   17  A    between atoms: C_31  and  C_34
   18  A    between atoms: C_34  and  O_37
                            x       y       z     vdW  Elec       q    Type
                         _______ _______ _______ _____ _____    ______ ____

>  <TORSDO>
F 18

$$$$
=
 OpenBabel11052410463D

 37 39  0  0  1  0  0  0  0  0999 V2000
  161.3940  208.8180  151.6230 C   0  0  2  0  0  3  0  0  0  0  0  0
  161.0620  209.7400  152.7560 C   0  0  0  0  0  0  0  0  0  0  0  0
  160.0070  212.3250  155.8910 N   0  0  0  0  0  1  0  0  0  0  0  0
  160.3710  211.4430  154.8370 C   0  0  0  0  0  0  0  0  0  0  0  0
  159.4950  211.1940  153.8250 N   0  0  0  0  0  0  0  0  0  0  0  0
  161.9740  209.9800  153.7920 C   0  0  0  0  0  3  0  0  0  0  0  0
  161.6300  210.8360  154.8380 C   0  0  0  0  0  3  0  0  0  0  0  0
  159.8110  210.3620  152.7960 C   0  0  0  0  0  3  0  0  0  0  0  0
  161.8730  207.4550  152.1620 C   0  0  1  0  0  3  0  0  0  0  0  0
  160.8820  206.8360  153.1300 C   0  0  0  0  0  2  0  0  0  0  0  0
  161.0010  206.2920  151.7170 C   0  0  2  0  0  3  0  0  0  0  0  0
  161.8280  205.0250  151.7360 C   0  0  0  0  0  2  0  0  0  0  0  0
  160.9180  203.8180  151.5930 C   0  0  0  0  0  2  0  0  0  0  0  0
  160.5970  203.5740  150.1290 C   0  0  1  0  0  3  0  0  0  0  0  0
  161.5890  204.1540  149.3370 O   0  0  0  0  0  1  0  0  0  0  0  0
  160.5340  202.0790  149.8530 C   0  0  0  0  0  2  0  0  0  0  0  0
  161.1210  201.7540  148.4800 C   0  0  1  0  0  3  0  0  0  0  0  0
  161.6830  200.4720  148.4720 O   0  0  0  0  0  1  0  0  0  0  0  0
  160.1920  201.9240  147.4270 O   0  0  0  0  0  0  0  0  0  0  0  0
  160.3220  201.5030  145.1840 O   0  0  0  0  0  1  0  0  0  0  0  0
  160.8930  202.2120  146.2410 C   0  0  1  0  0  3  0  0  0  0  0  0
  160.8230  203.7040  145.9600 C   0  0  0  0  0  2  0  0  0  0  0  0
  161.7690  205.0950  144.2630 O   0  0  0  0  0  1  0  0  0  0  0  0
  162.9880  204.8600  146.2870 C   0  0  0  0  0  1  0  0  0  0  0  0
  162.0900  204.1850  145.2720 C   0  0  1  0  0  3  0  0  0  0  0  0
  162.2940  209.4990  150.5800 C   0  0  0  0  0  2  0  0  0  0  0  0
  161.8640  209.1420  149.1650 C   0  0  0  0  0  2  0  0  0  0  0  0
  162.0320  210.2430  148.3240 O   0  0  0  0  0  0  0  0  0  0  0  0
  162.0460  211.3440  149.1810 C   0  0  0  0  0  2  0  0  0  0  0  0
  161.6750  213.6620  148.8000 O   0  0  0  0  0  0  0  0  0  0  0  0
  162.1950  212.5910  148.3850 C   0  0  0  0  0  0  0  0  0  0  0  0
  162.9400  212.5720  147.2080 O   0  0  0  0  0  0  0  0  0  0  0  0
  161.2990  213.0110  145.6410 C   0  0  0  0  0  0  0  0  0  0  0  0
  159.9340  212.3350  145.7190 C   0  0  0  0  0  2  0  0  0  0  0  0
  160.1710  213.2420  144.6410 C   0  0  2  0  0  3  0  0  0  0  0  0
  162.4960  213.2200  146.0790 N   0  0  0  0  0  0  0  0  0  0  0  0
  160.4550  212.5340  143.4740 O   0  0  0  0  0  1  0  0  0  0  0  0
  1 26  1  1  0  0  0
  1  2  1  0  0  0  0
  2  8  2  0  0  0  0
  2  6  1  0  0  0  0
  4  7  1  0  0  0  0
  4  3  1  0  0  0  0
  5  4  2  0  0  0  0
  6  7  2  0  0  0  0
  8  5  1  0  0  0  0
  9  1  1  6  0  0  0
  9 10  1  0  0  0  0
 11 12  1  1  0  0  0
 11  9  1  0  0  0  0
 11 10  1  0  0  0  0
 13 12  1  0  0  0  0
 14 15  1  6  0  0  0
 14 13  1  0  0  0  0
 16 14  1  0  0  0  0
 17 18  1  1  0  0  0
 17 16  1  0  0  0  0
 19 17  1  0  0  0  0
 21 20  1  6  0  0  0
 21 19  1  0  0  0  0
 22 21  1  0  0  0  0
 23 25  1  0  0  0  0
 25 22  1  0  0  0  0
 25 24  1  1  0  0  0
 27 26  1  0  0  0  0
 28 27  1  0  0  0  0
 28 29  1  0  0  0  0
 31 30  2  0  0  0  0
 31 29  1  0  0  0  0
 32 31  1  0  0  0  0
 33 34  1  0  0  0  0
 33 36  2  0  0  0  0
 35 37  1  6  0  0  0
 35 33  1  0  0  0  0
 35 34  1  0  0  0  0
 36 32  1  0  0  0  0
M  END
>  <MODEL>
3

>  <REMARK>
 VINA RESULT:      -6.8      1.659      3.449
  Name = 
  18 active torsions:
  status: ('A' for Active; 'I' for Inactive)
    1  A    between atoms: C_1  and  C_19
    2  A    between atoms: O_4  and  N_23
    3  A    between atoms: O_4  and  C_31
    4  A    between atoms: C_5  and  C_19
    5  A    between atoms: C_10  and  O_25
    6  A    between atoms: C_10  and  C_33
    7  A    between atoms: C_12  and  C_18
    8  A    between atoms: C_12  and  C_33
    9  A    between atoms: C_17  and  C_19
   10  A    between atoms: C_17  and  C_29
   11  A    between atoms: C_18  and  C_30
   12  A    between atoms: C_20  and  C_28
   13  A    between atoms: O_25  and  C_26
   14  A    between atoms: C_26  and  C_28
   15  A    between atoms: C_29  and  O_37
   16  A    between atoms: C_30  and  C_35
   17  A    between atoms: C_31  and  C_34
   18  A    between atoms: C_34  and  O_37
                            x       y       z     vdW  Elec       q    Type
                         _______ _______ _______ _____ _____    ______ ____

>  <TORSDO>
F 18

$$$$
=
 OpenBabel11052410463D

 37 39  0  0  1  0  0  0  0  0999 V2000
  161.9290  207.2340  152.1620 C   0  0  2  0  0  3  0  0  0  0  0  0
  161.9770  208.3130  151.1240 C   0  0  0  0  0  0  0  0  0  0  0  0
  162.1300  211.4240  148.3090 N   0  0  0  0  0  1  0  0  0  0  0  0
  162.0850  210.3630  149.2560 C   0  0  0  0  0  0  0  0  0  0  0  0
  161.9920  210.6410  150.5850 N   0  0  0  0  0  0  0  0  0  0  0  0
  162.0780  208.0080  149.7610 C   0  0  0  0  0  3  0  0  0  0  0  0
  162.1300  209.0370  148.8190 C   0  0  0  0  0  3  0  0  0  0  0  0
  161.9400  209.6530  151.5180 C   0  0  0  0  0  3  0  0  0  0  0  0
  162.1070  205.8500  151.5090 C   0  0  1  0  0  3  0  0  0  0  0  0
  161.4690  204.7400  152.3250 C   0  0  0  0  0  2  0  0  0  0  0  0
  160.7970  205.2270  151.0530 C   0  0  2  0  0  3  0  0  0  0  0  0
  161.0820  204.2530  149.9310 C   0  0  0  0  0  2  0  0  0  0  0  0
  160.5600  202.8770  150.3030 C   0  0  0  0  0  2  0  0  0  0  0  0
  161.0990  201.8340  149.3400 C   0  0  1  0  0  3  0  0  0  0  0  0
  161.0270  200.5750  149.9360 O   0  0  0  0  0  1  0  0  0  0  0  0
  160.2780  201.8370  148.0590 C   0  0  0  0  0  2  0  0  0  0  0  0
  161.1830  201.9420  146.8320 C   0  0  1  0  0  3  0  0  0  0  0  0
  160.9340  200.8920  145.9410 O   0  0  0  0  0  1  0  0  0  0  0  0
  161.1040  203.2000  146.1920 O   0  0  0  0  0  0  0  0  0  0  0  0
  163.0450  203.9090  145.2140 O   0  0  0  0  0  1  0  0  0  0  0  0
  162.3100  203.8950  146.4000 C   0  0  1  0  0  3  0  0  0  0  0  0
  162.0050  205.3190  146.8370 C   0  0  0  0  0  2  0  0  0  0  0  0
  160.0890  206.5320  147.5880 O   0  0  0  0  0  1  0  0  0  0  0  0
  160.3920  206.3120  145.2440 C   0  0  0  0  0  1  0  0  0  0  0  0
  160.5430  205.6560  146.6000 C   0  0  1  0  0  3  0  0  0  0  0  0
  160.7230  207.4010  153.1010 C   0  0  0  0  0  2  0  0  0  0  0  0
  161.1600  207.4330  154.5580 C   0  0  0  0  0  2  0  0  0  0  0  0
  160.4860  208.4500  155.2350 O   0  0  0  0  0  0  0  0  0  0  0  0
  161.4270  208.9600  156.1310 C   0  0  0  0  0  2  0  0  0  0  0  0
  162.6780  210.8120  155.3170 O   0  0  0  0  0  0  0  0  0  0  0  0
  161.6200  210.4120  155.8740 C   0  0  0  0  0  0  0  0  0  0  0  0
  160.6120  211.3120  156.2160 O   0  0  0  0  0  0  0  0  0  0  0  0
  159.6380  212.1210  154.2830 C   0  0  0  0  0  0  0  0  0  0  0  0
  158.9670  211.1820  153.2850 C   0  0  0  0  0  2  0  0  0  0  0  0
  158.9830  212.5780  152.9830 C   0  0  2  0  0  3  0  0  0  0  0  0
  160.2790  212.3520  155.3800 N   0  0  0  0  0  0  0  0  0  0  0  0
  159.9830  212.8540  152.0510 O   0  0  0  0  0  1  0  0  0  0  0  0
  1 26  1  6  0  0  0
  2  8  1  0  0  0  0
  2  1  1  0  0  0  0
  3  4  1  0  0  0  0
  4  5  1  0  0  0  0
  5  8  2  0  0  0  0
  6  2  2  0  0  0  0
  7  4  2  0  0  0  0
  7  6  1  0  0  0  0
  9  1  1  1  0  0  0
  9 10  1  0  0  0  0
 11 12  1  6  0  0  0
 11  9  1  0  0  0  0
 11 10  1  0  0  0  0
 12 13  1  0  0  0  0
 14 15  1  1  0  0  0
 14 13  1  0  0  0  0
 16 14  1  0  0  0  0
 17 18  1  6  0  0  0
 17 16  1  0  0  0  0
 19 21  1  0  0  0  0
 19 17  1  0  0  0  0
 21 20  1  6  0  0  0
 21 22  1  0  0  0  0
 25 24  1  6  0  0  0
 25 22  1  0  0  0  0
 25 23  1  0  0  0  0
 26 27  1  0  0  0  0
 27 28  1  0  0  0  0
 28 29  1  0  0  0  0
 30 31  2  0  0  0  0
 31 29  1  0  0  0  0
 31 32  1  0  0  0  0
 33 36  2  0  0  0  0
 34 33  1  0  0  0  0
 35 37  1  6  0  0  0
 35 34  1  0  0  0  0
 35 33  1  0  0  0  0
 36 32  1  0  0  0  0
M  END
>  <MODEL>
4

>  <REMARK>
 VINA RESULT:      -6.7      3.170      6.196
  Name = 
  18 active torsions:
  status: ('A' for Active; 'I' for Inactive)
    1  A    between atoms: C_1  and  C_19
    2  A    between atoms: O_4  and  N_23
    3  A    between atoms: O_4  and  C_31
    4  A    between atoms: C_5  and  C_19
    5  A    between atoms: C_10  and  O_25
    6  A    between atoms: C_10  and  C_33
    7  A    between atoms: C_12  and  C_18
    8  A    between atoms: C_12  and  C_33
    9  A    between atoms: C_17  and  C_19
   10  A    between atoms: C_17  and  C_29
   11  A    between atoms: C_18  and  C_30
   12  A    between atoms: C_20  and  C_28
   13  A    between atoms: O_25  and  C_26
   14  A    between atoms: C_26  and  C_28
   15  A    between atoms: C_29  and  O_37
   16  A    between atoms: C_30  and  C_35
   17  A    between atoms: C_31  and  C_34
   18  A    between atoms: C_34  and  O_37
                            x       y       z     vdW  Elec       q    Type
                         _______ _______ _______ _____ _____    ______ ____

>  <TORSDO>
F 18

$$$$
=
 OpenBabel11052410463D

 37 39  0  0  1  0  0  0  0  0999 V2000
  160.8770  209.6410  152.1950 C   0  0  2  0  0  3  0  0  0  0  0  0
  160.4160  210.5510  153.2920 C   0  0  0  0  0  0  0  0  0  0  0  0
  159.0040  213.0940  156.3190 N   0  0  0  0  0  1  0  0  0  0  0  0
  159.4890  212.2260  155.3020 C   0  0  0  0  0  0  0  0  0  0  0  0
  158.7010  211.9240  154.2330 N   0  0  0  0  0  0  0  0  0  0  0  0
  161.2380  210.8460  154.3870 C   0  0  0  0  0  3  0  0  0  0  0  0
  160.7750  211.6900  155.3970 C   0  0  0  0  0  3  0  0  0  0  0  0
  159.1340  211.1040  153.2380 C   0  0  0  0  0  3  0  0  0  0  0  0
  161.5640  208.3930  152.7840 C   0  0  1  0  0  3  0  0  0  0  0  0
  160.6590  207.6290  153.7320 C   0  0  0  0  0  2  0  0  0  0  0  0
  160.9250  207.0870  152.3380 C   0  0  2  0  0  3  0  0  0  0  0  0
  161.9580  205.9840  152.4180 C   0  0  0  0  0  2  0  0  0  0  0  0
  161.2660  204.6330  152.3990 C   0  0  0  0  0  2  0  0  0  0  0  0
  161.4130  203.9880  151.0330 C   0  0  1  0  0  3  0  0  0  0  0  0
  160.9780  202.6650  151.0990 O   0  0  0  0  0  1  0  0  0  0  0  0
  160.5820  204.7470  150.0080 C   0  0  0  0  0  2  0  0  0  0  0  0
  161.3220  204.8530  148.6760 C   0  0  1  0  0  3  0  0  0  0  0  0
  161.6100  203.5820  148.1660 O   0  0  0  0  0  1  0  0  0  0  0  0
  160.6460  205.6560  147.7290 O   0  0  0  0  0  0  0  0  0  0  0  0
  162.6100  206.8070  147.9250 O   0  0  0  0  0  1  0  0  0  0  0  0
  161.5860  206.4500  147.0470 C   0  0  1  0  0  3  0  0  0  0  0  0
  162.1580  205.6660  145.8770 C   0  0  0  0  0  2  0  0  0  0  0  0
  161.4160  205.7020  143.6060 O   0  0  0  0  0  1  0  0  0  0  0  0
  160.8770  203.7870  144.9010 C   0  0  0  0  0  1  0  0  0  0  0  0
  161.0640  205.2890  144.8920 C   0  0  1  0  0  3  0  0  0  0  0  0
  161.6530  210.4050  151.1100 C   0  0  0  0  0  2  0  0  0  0  0  0
  162.0390  209.4880  149.9600 C   0  0  0  0  0  2  0  0  0  0  0  0
  162.1580  210.2260  148.7820 O   0  0  0  0  0  0  0  0  0  0  0  0
  161.9010  211.5440  149.1630 C   0  0  0  0  0  2  0  0  0  0  0  0
  163.5420  212.2920  147.6120 O   0  0  0  0  0  0  0  0  0  0  0  0
  162.3990  212.4710  148.1110 C   0  0  0  0  0  0  0  0  0  0  0  0
  161.5800  213.5040  147.6610 O   0  0  0  0  0  0  0  0  0  0  0  0
  159.7360  212.9040  146.4040 C   0  0  0  0  0  0  0  0  0  0  0  0
  159.8840  212.4430  144.9570 C   0  0  0  0  0  2  0  0  0  0  0  0
  158.5690  212.5020  145.5090 C   0  0  2  0  0  3  0  0  0  0  0  0
  160.2230  213.3240  147.5240 N   0  0  0  0  0  0  0  0  0  0  0  0
  157.9190  213.6570  145.0740 O   0  0  0  0  0  1  0  0  0  0  0  0
  1 26  1  6  0  0  0
  1  2  1  0  0  0  0
  2  6  1  0  0  0  0
  4  7  1  0  0  0  0
  4  3  1  0  0  0  0
  5  4  2  0  0  0  0
  6  7  2  0  0  0  0
  8  2  2  0  0  0  0
  8  5  1  0  0  0  0
  9  1  1  6  0  0  0
  9 10  1  0  0  0  0
 11 12  1  1  0  0  0
 11  9  1  0  0  0  0
 11 10  1  0  0  0  0
 13 12  1  0  0  0  0
 14 15  1  1  0  0  0
 14 13  1  0  0  0  0
 16 14  1  0  0  0  0
 17 18  1  6  0  0  0
 17 16  1  0  0  0  0
 19 17  1  0  0  0  0
 21 19  1  0  0  0  0
 21 20  1  1  0  0  0
 22 21  1  0  0  0  0
 23 25  1  0  0  0  0
 25 24  1  6  0  0  0
 25 22  1  0  0  0  0
 27 26  1  0  0  0  0
 28 29  1  0  0  0  0
 28 27  1  0  0  0  0
 30 31  2  0  0  0  0
 31 29  1  0  0  0  0
 32 31  1  0  0  0  0
 33 36  2  0  0  0  0
 34 35  1  0  0  0  0
 34 33  1  0  0  0  0
 35 37  1  6  0  0  0
 35 33  1  0  0  0  0
 36 32  1  0  0  0  0
M  END
>  <MODEL>
5

>  <REMARK>
 VINA RESULT:      -6.7      2.220      4.247
  Name = 
  18 active torsions:
  status: ('A' for Active; 'I' for Inactive)
    1  A    between atoms: C_1  and  C_19
    2  A    between atoms: O_4  and  N_23
    3  A    between atoms: O_4  and  C_31
    4  A    between atoms: C_5  and  C_19
    5  A    between atoms: C_10  and  O_25
    6  A    between atoms: C_10  and  C_33
    7  A    between atoms: C_12  and  C_18
    8  A    between atoms: C_12  and  C_33
    9  A    between atoms: C_17  and  C_19
   10  A    between atoms: C_17  and  C_29
   11  A    between atoms: C_18  and  C_30
   12  A    between atoms: C_20  and  C_28
   13  A    between atoms: O_25  and  C_26
   14  A    between atoms: C_26  and  C_28
   15  A    between atoms: C_29  and  O_37
   16  A    between atoms: C_30  and  C_35
   17  A    between atoms: C_31  and  C_34
   18  A    between atoms: C_34  and  O_37
                            x       y       z     vdW  Elec       q    Type
                         _______ _______ _______ _____ _____    ______ ____

>  <TORSDO>
F 18

$$$$
=
 OpenBabel11052410463D

 37 39  0  0  1  0  0  0  0  0999 V2000
  160.8960  209.7010  152.0970 C   0  0  2  0  0  3  0  0  0  0  0  0
  160.4950  210.6150  153.2130 C   0  0  0  0  0  0  0  0  0  0  0  0
  159.4870  213.1560  156.4000 N   0  0  0  0  0  1  0  0  0  0  0  0
  159.8240  212.3030  155.3120 C   0  0  0  0  0  0  0  0  0  0  0  0
  160.9070  211.4820  155.4020 N   0  0  0  0  0  0  0  0  0  0  0  0
  159.3820  211.4570  153.1010 C   0  0  0  0  0  3  0  0  0  0  0  0
  159.0410  212.3050  154.1560 C   0  0  0  0  0  3  0  0  0  0  0  0
  161.2560  210.6480  154.3850 C   0  0  0  0  0  3  0  0  0  0  0  0
  161.6210  208.4580  152.6520 C   0  0  1  0  0  3  0  0  0  0  0  0
  160.7040  207.5810  153.4860 C   0  0  0  0  0  2  0  0  0  0  0  0
  161.0950  207.1500  152.0830 C   0  0  2  0  0  3  0  0  0  0  0  0
  162.1880  206.1070  152.1640 C   0  0  0  0  0  2  0  0  0  0  0  0
  161.5780  204.7500  152.4670 C   0  0  0  0  0  2  0  0  0  0  0  0
  161.6620  203.8530  151.2450 C   0  0  1  0  0  3  0  0  0  0  0  0
  161.4000  202.5360  151.6220 O   0  0  0  0  0  1  0  0  0  0  0  0
  160.6440  204.2970  150.2050 C   0  0  0  0  0  2  0  0  0  0  0  0
  161.1880  204.0980  148.7910 C   0  0  1  0  0  3  0  0  0  0  0  0
  161.0750  202.7590  148.3990 O   0  0  0  0  0  1  0  0  0  0  0  0
  160.6030  204.9710  147.8450 O   0  0  0  0  0  0  0  0  0  0  0  0
  162.3120  206.4550  148.1630 O   0  0  0  0  0  1  0  0  0  0  0  0
  161.6210  205.7060  147.2100 C   0  0  1  0  0  3  0  0  0  0  0  0
  162.5750  204.7510  146.5110 C   0  0  0  0  0  2  0  0  0  0  0  0
  161.2190  203.2030  145.2970 O   0  0  0  0  0  1  0  0  0  0  0  0
  161.2070  205.4640  144.5760 C   0  0  0  0  0  1  0  0  0  0  0  0
  162.0270  204.3330  145.1570 C   0  0  1  0  0  3  0  0  0  0  0  0
  161.6070  210.4620  150.9660 C   0  0  0  0  0  2  0  0  0  0  0  0
  162.1260  209.5070  149.9010 C   0  0  0  0  0  2  0  0  0  0  0  0
  162.2400  210.1720  148.6800 O   0  0  0  0  0  0  0  0  0  0  0  0
  161.8740  211.4890  148.9590 C   0  0  0  0  0  2  0  0  0  0  0  0
  163.8680  212.2070  147.8800 O   0  0  0  0  0  0  0  0  0  0  0  0
  162.6410  212.4140  148.0830 C   0  0  0  0  0  0  0  0  0  0  0  0
  161.9870  213.4770  147.4640 O   0  0  0  0  0  0  0  0  0  0  0  0
  161.6660  213.1640  145.1970 C   0  0  0  0  0  0  0  0  0  0  0  0
  162.8440  213.1510  144.2280 C   0  0  0  0  0  2  0  0  0  0  0  0
  161.5330  212.9730  143.6900 C   0  0  2  0  0  3  0  0  0  0  0  0
  161.1630  213.2680  146.3820 N   0  0  0  0  0  0  0  0  0  0  0  0
  161.0820  214.1660  143.1250 O   0  0  0  0  0  1  0  0  0  0  0  0
  1 26  1  6  0  0  0
  1  2  1  0  0  0  0
  2  8  1  0  0  0  0
  4  5  1  0  0  0  0
  4  3  1  0  0  0  0
  6  2  2  0  0  0  0
  6  7  1  0  0  0  0
  7  4  2  0  0  0  0
  8  5  2  0  0  0  0
  9  1  1  6  0  0  0
  9 10  1  0  0  0  0
 11 12  1  1  0  0  0
 11  9  1  0  0  0  0
 11 10  1  0  0  0  0
 12 13  1  0  0  0  0
 14 15  1  1  0  0  0
 14 13  1  0  0  0  0
 16 14  1  0  0  0  0
 17 18  1  6  0  0  0
 17 16  1  0  0  0  0
 19 17  1  0  0  0  0
 21 19  1  0  0  0  0
 21 20  1  1  0  0  0
 22 21  1  0  0  0  0
 25 24  1  1  0  0  0
 25 23  1  0  0  0  0
 25 22  1  0  0  0  0
 27 26  1  0  0  0  0
 28 29  1  0  0  0  0
 28 27  1  0  0  0  0
 30 31  2  0  0  0  0
 31 29  1  0  0  0  0
 32 31  1  0  0  0  0
 33 36  2  0  0  0  0
 34 33  1  0  0  0  0
 35 37  1  6  0  0  0
 35 34  1  0  0  0  0
 35 33  1  0  0  0  0
 36 32  1  0  0  0  0
M  END
>  <MODEL>
6

>  <REMARK>
 VINA RESULT:      -6.5      1.909      3.963
  Name = 
  18 active torsions:
  status: ('A' for Active; 'I' for Inactive)
    1  A    between atoms: C_1  and  C_19
    2  A    between atoms: O_4  and  N_23
    3  A    between atoms: O_4  and  C_31
    4  A    between atoms: C_5  and  C_19
    5  A    between atoms: C_10  and  O_25
    6  A    between atoms: C_10  and  C_33
    7  A    between atoms: C_12  and  C_18
    8  A    between atoms: C_12  and  C_33
    9  A    between atoms: C_17  and  C_19
   10  A    between atoms: C_17  and  C_29
   11  A    between atoms: C_18  and  C_30
   12  A    between atoms: C_20  and  C_28
   13  A    between atoms: O_25  and  C_26
   14  A    between atoms: C_26  and  C_28
   15  A    between atoms: C_29  and  O_37
   16  A    between atoms: C_30  and  C_35
   17  A    between atoms: C_31  and  C_34
   18  A    between atoms: C_34  and  O_37
                            x       y       z     vdW  Elec       q    Type
                         _______ _______ _______ _____ _____    ______ ____

>  <TORSDO>
F 18

$$$$
=
 OpenBabel11052410463D

 37 39  0  0  1  0  0  0  0  0999 V2000
  161.4670  205.9220  149.7160 C   0  0  2  0  0  3  0  0  0  0  0  0
  161.2810  204.7050  148.8620 C   0  0  0  0  0  0  0  0  0  0  0  0
  160.8270  201.3530  146.3750 N   0  0  0  0  0  1  0  0  0  0  0  0
  160.9840  202.4820  147.2270 C   0  0  0  0  0  0  0  0  0  0  0  0
  161.4290  203.6630  146.7170 N   0  0  0  0  0  0  0  0  0  0  0  0
  160.8280  203.4960  149.4060 C   0  0  0  0  0  3  0  0  0  0  0  0
  160.6760  202.3780  148.5860 C   0  0  0  0  0  3  0  0  0  0  0  0
  161.5840  204.7650  147.5000 C   0  0  0  0  0  3  0  0  0  0  0  0
  160.9160  205.6740  151.1340 C   0  0  1  0  0  3  0  0  0  0  0  0
  161.8700  204.8600  151.9890 C   0  0  0  0  0  2  0  0  0  0  0  0
  161.7310  206.3540  152.2230 C   0  0  2  0  0  3  0  0  0  0  0  0
  160.8410  206.5930  153.4230 C   0  0  0  0  0  2  0  0  0  0  0  0
  161.1340  207.9600  154.0140 C   0  0  0  0  0  2  0  0  0  0  0  0
  161.3320  208.9780  152.9050 C   0  0  1  0  0  3  0  0  0  0  0  0
  160.0890  209.3350  152.3810 O   0  0  0  0  0  1  0  0  0  0  0  0
  162.0260  210.2160  153.4540 C   0  0  0  0  0  2  0  0  0  0  0  0
  161.6310  210.4620  154.9090 C   0  0  1  0  0  3  0  0  0  0  0  0
  162.7620  210.7030  155.6980 O   0  0  0  0  0  1  0  0  0  0  0  0
  160.6650  211.4850  155.0550 O   0  0  0  0  0  0  0  0  0  0  0  0
  159.7640  209.9030  156.4360 O   0  0  0  0  0  1  0  0  0  0  0  0
  159.4660  210.9190  155.5270 C   0  0  1  0  0  3  0  0  0  0  0  0
  158.6310  211.9930  156.2060 C   0  0  0  0  0  2  0  0  0  0  0  0
  156.3980  212.6950  156.6810 O   0  0  0  0  0  1  0  0  0  0  0  0
  156.7670  211.5360  154.6430 C   0  0  0  0  0  1  0  0  0  0  0  0
  157.1500  211.6720  156.1010 C   0  0  1  0  0  3  0  0  0  0  0  0
  160.9820  207.1950  149.0030 C   0  0  0  0  0  2  0  0  0  0  0  0
  162.1100  208.2040  148.8500 C   0  0  0  0  0  2  0  0  0  0  0  0
  161.6530  209.4820  149.1740 O   0  0  0  0  0  0  0  0  0  0  0  0
  162.3430  210.3330  148.3090 C   0  0  0  0  0  2  0  0  0  0  0  0
  162.0460  212.5880  147.6140 O   0  0  0  0  0  0  0  0  0  0  0  0
  161.8940  211.7330  148.5290 C   0  0  0  0  0  0  0  0  0  0  0  0
  161.2750  212.0780  149.7280 O   0  0  0  0  0  0  0  0  0  0  0  0
  159.7140  213.3540  150.8590 C   0  0  0  0  0  0  0  0  0  0  0  0
  159.2240  212.9530  152.2460 C   0  0  0  0  0  2  0  0  0  0  0  0
  158.6820  214.1370  151.6620 C   0  0  2  0  0  3  0  0  0  0  0  0
  160.4390  213.1680  149.8060 N   0  0  0  0  0  0  0  0  0  0  0  0
  157.4160  213.8760  151.1390 O   0  0  0  0  0  1  0  0  0  0  0  0
  1 26  1  6  0  0  0
  2  6  1  0  0  0  0
  2  1  1  0  0  0  0
  3  4  1  0  0  0  0
  4  7  1  0  0  0  0
  5  4  2  0  0  0  0
  5  8  1  0  0  0  0
  7  6  2  0  0  0  0
  8  2  2  0  0  0  0
  9  1  1  6  0  0  0
  9 10  1  0  0  0  0
  9 11  1  0  0  0  0
 10 11  1  0  0  0  0
 11 12  1  1  0  0  0
 12 13  1  0  0  0  0
 14 15  1  1  0  0  0
 14 16  1  0  0  0  0
 14 13  1  0  0  0  0
 16 17  1  0  0  0  0
 17 19  1  0  0  0  0
 17 18  1  1  0  0  0
 19 21  1  0  0  0  0
 21 22  1  0  0  0  0
 21 20  1  1  0  0  0
 25 24  1  6  0  0  0
 25 22  1  0  0  0  0
 25 23  1  0  0  0  0
 27 26  1  0  0  0  0
 27 28  1  0  0  0  0
 29 31  1  0  0  0  0
 29 28  1  0  0  0  0
 30 31  2  0  0  0  0
 31 32  1  0  0  0  0
 32 36  1  0  0  0  0
 33 35  1  0  0  0  0
 33 34  1  0  0  0  0
 35 37  1  6  0  0  0
 35 34  1  0  0  0  0
 36 33  2  0  0  0  0
M  END
>  <MODEL>
7

>  <REMARK>
 VINA RESULT:      -6.5      4.391      7.874
  Name = 
  18 active torsions:
  status: ('A' for Active; 'I' for Inactive)
    1  A    between atoms: C_1  and  C_19
    2  A    between atoms: O_4  and  N_23
    3  A    between atoms: O_4  and  C_31
    4  A    between atoms: C_5  and  C_19
    5  A    between atoms: C_10  and  O_25
    6  A    between atoms: C_10  and  C_33
    7  A    between atoms: C_12  and  C_18
    8  A    between atoms: C_12  and  C_33
    9  A    between atoms: C_17  and  C_19
   10  A    between atoms: C_17  and  C_29
   11  A    between atoms: C_18  and  C_30
   12  A    between atoms: C_20  and  C_28
   13  A    between atoms: O_25  and  C_26
   14  A    between atoms: C_26  and  C_28
   15  A    between atoms: C_29  and  O_37
   16  A    between atoms: C_30  and  C_35
   17  A    between atoms: C_31  and  C_34
   18  A    between atoms: C_34  and  O_37
                            x       y       z     vdW  Elec       q    Type
                         _______ _______ _______ _____ _____    ______ ____

>  <TORSDO>
F 18

$$$$
=
 OpenBabel11052410463D

 37 39  0  0  1  0  0  0  0  0999 V2000
  161.4850  208.9660  151.5120 C   0  0  2  0  0  3  0  0  0  0  0  0
  161.0680  209.8170  152.6720 C   0  0  0  0  0  0  0  0  0  0  0  0
  160.0250  212.2130  155.9580 N   0  0  0  0  0  1  0  0  0  0  0  0
  160.3700  211.4070  154.8380 C   0  0  0  0  0  0  0  0  0  0  0  0
  161.6310  210.9050  154.7240 N   0  0  0  0  0  0  0  0  0  0  0  0
  159.7680  210.3300  152.7700 C   0  0  0  0  0  3  0  0  0  0  0  0
  159.4140  211.1280  153.8580 C   0  0  0  0  0  3  0  0  0  0  0  0
  161.9950  210.1250  153.6710 C   0  0  0  0  0  3  0  0  0  0  0  0
  161.9740  207.5890  152.0020 C   0  0  1  0  0  3  0  0  0  0  0  0
  161.0440  206.9820  153.0370 C   0  0  0  0  0  2  0  0  0  0  0  0
  161.0460  206.4480  151.6150 C   0  0  2  0  0  3  0  0  0  0  0  0
  161.8450  205.1640  151.5620 C   0  0  0  0  0  2  0  0  0  0  0  0
  160.9020  203.9750  151.5720 C   0  0  0  0  0  2  0  0  0  0  0  0
  161.2490  203.0210  150.4430 C   0  0  1  0  0  3  0  0  0  0  0  0
  160.6450  201.7870  150.6800 O   0  0  0  0  0  1  0  0  0  0  0  0
  160.7560  203.5840  149.1180 C   0  0  0  0  0  2  0  0  0  0  0  0
  161.5790  203.0350  147.9540 C   0  0  1  0  0  3  0  0  0  0  0  0
  161.2720  201.6900  147.7190 O   0  0  0  0  0  1  0  0  0  0  0  0
  161.4600  203.8110  146.7770 O   0  0  0  0  0  0  0  0  0  0  0  0
  163.4770  204.6130  146.0650 O   0  0  0  0  0  1  0  0  0  0  0  0
  162.3580  204.8920  146.8490 C   0  0  1  0  0  3  0  0  0  0  0  0
  161.6750  206.1540  146.3470 C   0  0  0  0  0  2  0  0  0  0  0  0
  160.4380  206.5850  148.3440 O   0  0  0  0  0  1  0  0  0  0  0  0
  162.6860  207.3410  148.2680 C   0  0  0  0  0  1  0  0  0  0  0  0
  161.4070  207.1160  147.4910 C   0  0  1  0  0  3  0  0  0  0  0  0
  162.4190  209.7260  150.5570 C   0  0  0  0  0  2  0  0  0  0  0  0
  161.7720  211.0100  150.0590 C   0  0  0  0  0  2  0  0  0  0  0  0
  161.8340  211.0650  148.6660 O   0  0  0  0  0  0  0  0  0  0  0  0
  162.6530  212.1610  148.3920 C   0  0  0  0  0  2  0  0  0  0  0  0
  162.3030  214.3310  147.4830 O   0  0  0  0  0  0  0  0  0  0  0  0
  161.8100  213.3520  148.1060 C   0  0  0  0  0  0  0  0  0  0  0  0
  160.4720  213.3590  148.4960 O   0  0  0  0  0  0  0  0  0  0  0  0
  159.4310  213.0500  146.4560 C   0  0  0  0  0  0  0  0  0  0  0  0
  159.9720  212.0520  145.4380 C   0  0  0  0  0  2  0  0  0  0  0  0
  158.8070  212.7980  145.0880 C   0  0  2  0  0  3  0  0  0  0  0  0
  159.4740  213.6540  147.5970 N   0  0  0  0  0  0  0  0  0  0  0  0
  159.1490  213.8500  144.2390 O   0  0  0  0  0  1  0  0  0  0  0  0
  1 26  1  1  0  0  0
  1  2  1  0  0  0  0
  2  6  2  0  0  0  0
  2  8  1  0  0  0  0
  4  3  1  0  0  0  0
  5  4  1  0  0  0  0
  6  7  1  0  0  0  0
  7  4  2  0  0  0  0
  8  5  2  0  0  0  0
  9  1  1  6  0  0  0
  9 10  1  0  0  0  0
 11 12  1  1  0  0  0
 11  9  1  0  0  0  0
 11 10  1  0  0  0  0
 12 13  1  0  0  0  0
 14 15  1  1  0  0  0
 14 13  1  0  0  0  0
 16 14  1  0  0  0  0
 17 18  1  6  0  0  0
 17 16  1  0  0  0  0
 19 21  1  0  0  0  0
 19 17  1  0  0  0  0
 21 20  1  6  0  0  0
 22 21  1  0  0  0  0
 22 25  1  0  0  0  0
 25 24  1  1  0  0  0
 25 23  1  0  0  0  0
 27 26  1  0  0  0  0
 28 27  1  0  0  0  0
 29 28  1  0  0  0  0
 30 31  2  0  0  0  0
 31 29  1  0  0  0  0
 31 32  1  0  0  0  0
 33 36  2  0  0  0  0
 34 33  1  0  0  0  0
 35 37  1  6  0  0  0
 35 34  1  0  0  0  0
 35 33  1  0  0  0  0
 36 32  1  0  0  0  0
M  END
>  <MODEL>
8

>  <REMARK>
 VINA RESULT:      -6.4      1.830      3.586
  Name = 
  18 active torsions:
  status: ('A' for Active; 'I' for Inactive)
    1  A    between atoms: C_1  and  C_19
    2  A    between atoms: O_4  and  N_23
    3  A    between atoms: O_4  and  C_31
    4  A    between atoms: C_5  and  C_19
    5  A    between atoms: C_10  and  O_25
    6  A    between atoms: C_10  and  C_33
    7  A    between atoms: C_12  and  C_18
    8  A    between atoms: C_12  and  C_33
    9  A    between atoms: C_17  and  C_19
   10  A    between atoms: C_17  and  C_29
   11  A    between atoms: C_18  and  C_30
   12  A    between atoms: C_20  and  C_28
   13  A    between atoms: O_25  and  C_26
   14  A    between atoms: C_26  and  C_28
   15  A    between atoms: C_29  and  O_37
   16  A    between atoms: C_30  and  C_35
   17  A    between atoms: C_31  and  C_34
   18  A    between atoms: C_34  and  O_37
                            x       y       z     vdW  Elec       q    Type
                         _______ _______ _______ _____ _____    ______ ____

>  <TORSDO>
F 18

$$$$
=
 OpenBabel11052410463D

 37 39  0  0  1  0  0  0  0  0999 V2000
  160.6120  204.4580  150.1160 C   0  0  2  0  0  3  0  0  0  0  0  0
  160.8210  203.2140  149.3070 C   0  0  0  0  0  0  0  0  0  0  0  0
  161.4440  199.8040  146.9400 N   0  0  0  0  0  1  0  0  0  0  0  0
  161.2390  200.9540  147.7520 C   0  0  0  0  0  0  0  0  0  0  0  0
  161.2310  202.1930  147.1860 N   0  0  0  0  0  0  0  0  0  0  0  0
  160.8320  201.9490  149.9070 C   0  0  0  0  0  3  0  0  0  0  0  0
  161.0400  200.8110  149.1270 C   0  0  0  0  0  3  0  0  0  0  0  0
  161.0300  203.3140  147.9300 C   0  0  0  0  0  3  0  0  0  0  0  0
  161.4900  205.6050  149.5760 C   0  0  1  0  0  3  0  0  0  0  0  0
  160.9590  206.1720  148.2730 C   0  0  0  0  0  2  0  0  0  0  0  0
  160.7810  206.9500  149.5650 C   0  0  2  0  0  3  0  0  0  0  0  0
  161.8180  208.0500  149.6350 C   0  0  0  0  0  2  0  0  0  0  0  0
  161.5890  208.8900  150.8780 C   0  0  0  0  0  2  0  0  0  0  0  0
  161.9720  210.3350  150.6120 C   0  0  1  0  0  3  0  0  0  0  0  0
  163.0880  210.6650  151.3810 O   0  0  0  0  0  1  0  0  0  0  0  0
  162.2980  210.5220  149.1370 C   0  0  0  0  0  2  0  0  0  0  0  0
  161.6150  211.7720  148.5830 C   0  0  1  0  0  3  0  0  0  0  0  0
  161.1570  212.5890  149.6220 O   0  0  0  0  0  1  0  0  0  0  0  0
  162.4270  212.4890  147.6730 O   0  0  0  0  0  0  0  0  0  0  0  0
  162.3520  213.5640  145.6580 O   0  0  0  0  0  1  0  0  0  0  0  0
  161.6000  213.1780  146.7680 C   0  0  1  0  0  3  0  0  0  0  0  0
  160.4610  212.2710  146.3300 C   0  0  0  0  0  2  0  0  0  0  0  0
  158.5950  212.5670  144.8670 O   0  0  0  0  0  1  0  0  0  0  0  0
  158.2560  213.0180  147.1720 C   0  0  0  0  0  1  0  0  0  0  0  0
  159.2180  213.0820  146.0050 C   0  0  1  0  0  3  0  0  0  0  0  0
  160.7010  204.1770  151.6250 C   0  0  0  0  0  2  0  0  0  0  0  0
  161.7340  205.0710  152.2920 C   0  0  0  0  0  2  0  0  0  0  0  0
  161.2690  205.4880  153.5400 O   0  0  0  0  0  0  0  0  0  0  0  0
  161.0210  206.8530  153.3860 C   0  0  0  0  0  2  0  0  0  0  0  0
  160.0620  206.9500  155.5600 O   0  0  0  0  0  0  0  0  0  0  0  0
  160.8420  207.4790  154.7230 C   0  0  0  0  0  0  0  0  0  0  0  0
  161.5680  208.6220  155.0510 O   0  0  0  0  0  0  0  0  0  0  0  0
  160.4350  210.4830  154.2800 C   0  0  0  0  0  0  0  0  0  0  0  0
  159.0220  210.8010  154.7590 C   0  0  0  0  0  2  0  0  0  0  0  0
  159.6210  211.6840  153.8110 C   0  0  2  0  0  3  0  0  0  0  0  0
  161.5000  209.7520  154.2690 N   0  0  0  0  0  0  0  0  0  0  0  0
  159.1280  211.4200  152.5340 O   0  0  0  0  0  1  0  0  0  0  0  0
  1 26  1  1  0  0  0
  2  6  1  0  0  0  0
  2  1  1  0  0  0  0
  3  4  1  0  0  0  0
  4  7  1  0  0  0  0
  5  4  2  0  0  0  0
  5  8  1  0  0  0  0
  7  6  2  0  0  0  0
  8  2  2  0  0  0  0
  9  1  1  1  0  0  0
 10 11  1  0  0  0  0
 10  9  1  0  0  0  0
 11  9  1  0  0  0  0
 11 12  1  6  0  0  0
 12 13  1  0  0  0  0
 14 13  1  0  0  0  0
 14 15  1  1  0  0  0
 16 14  1  0  0  0  0
 17 16  1  0  0  0  0
 17 18  1  1  0  0  0
 19 17  1  0  0  0  0
 21 20  1  6  0  0  0
 21 19  1  0  0  0  0
 22 21  1  0  0  0  0
 23 25  1  0  0  0  0
 25 22  1  0  0  0  0
 25 24  1  1  0  0  0
 26 27  1  0  0  0  0
 27 28  1  0  0  0  0
 29 28  1  0  0  0  0
 29 31  1  0  0  0  0
 31 32  1  0  0  0  0
 31 30  2  0  0  0  0
 33 34  1  0  0  0  0
 35 37  1  6  0  0  0
 35 33  1  0  0  0  0
 35 34  1  0  0  0  0
 36 33  2  0  0  0  0
 36 32  1  0  0  0  0
M  END
>  <MODEL>
9

>  <REMARK>
 VINA RESULT:      -6.3      3.447      8.819
  Name = 
  18 active torsions:
  status: ('A' for Active; 'I' for Inactive)
    1  A    between atoms: C_1  and  C_19
    2  A    between atoms: O_4  and  N_23
    3  A    between atoms: O_4  and  C_31
    4  A    between atoms: C_5  and  C_19
    5  A    between atoms: C_10  and  O_25
    6  A    between atoms: C_10  and  C_33
    7  A    between atoms: C_12  and  C_18
    8  A    between atoms: C_12  and  C_33
    9  A    between atoms: C_17  and  C_19
   10  A    between atoms: C_17  and  C_29
   11  A    between atoms: C_18  and  C_30
   12  A    between atoms: C_20  and  C_28
   13  A    between atoms: O_25  and  C_26
   14  A    between atoms: C_26  and  C_28
   15  A    between atoms: C_29  and  O_37
   16  A    between atoms: C_30  and  C_35
   17  A    between atoms: C_31  and  C_34
   18  A    between atoms: C_34  and  O_37
                            x       y       z     vdW  Elec       q    Type
                         _______ _______ _______ _____ _____    ______ ____

>  <TORSDO>
F 18

$$$$
