=
 OpenBabel11042421113D

 28 31  0  0  1  0  0  0  0  0999 V2000
  160.6460  203.6860  151.6330 C   0  0  2  0  0  3  0  0  0  0  0  0
  161.5070  205.8310  148.5380 C   0  0  0  0  0  0  0  0  0  0  0  0
  161.9630  206.9710  149.2720 C   0  0  0  0  0  0  0  0  0  0  0  0
  161.0630  204.6960  149.2530 C   0  0  0  0  0  3  0  0  0  0  0  0
  161.3720  205.5830  152.7050 N   0  0  0  0  0  0  0  0  0  0  0  0
  162.4710  208.1280  148.6160 N   0  0  0  0  0  1  0  0  0  0  0  0
  161.0810  204.7220  150.6460 C   0  0  0  0  0  0  0  0  0  0  0  0
  161.4960  205.8140  151.3230 C   0  0  0  0  0  0  0  0  0  0  0  0
  160.8500  204.2980  152.9650 N   0  0  0  0  0  2  0  0  0  0  0  0
  161.9520  206.9600  150.6780 C   0  0  0  0  0  3  0  0  0  0  0  0
  160.3390  206.1510  144.9260 C   0  0  0  0  0  3  0  0  0  0  0  0
  161.4160  205.5580  142.8860 F   0  0  0  0  0  0  0  0  0  0  0  0
  161.4350  205.6290  144.2390 C   0  0  0  0  0  0  0  0  0  0  0  0
  161.4780  205.7820  147.0490 C   0  0  0  0  0  0  0  0  0  0  0  0
  162.5520  205.1760  144.9460 C   0  0  0  0  0  3  0  0  0  0  0  0
  160.3600  206.2240  146.3220 C   0  0  0  0  0  3  0  0  0  0  0  0
  162.5700  205.2500  146.3410 C   0  0  0  0  0  3  0  0  0  0  0  0
  161.7370  206.5510  153.7370 C   0  0  0  0  0  2  0  0  0  0  0  0
  161.0300  208.4940  155.0880 C   0  0  0  0  0  2  0  0  0  0  0  0
  160.5520  207.4100  154.1450 C   0  0  0  0  0  3  0  0  0  0  0  0
  160.3270  207.2700  155.6370 C   0  0  0  0  0  2  0  0  0  0  0  0
  161.5020  202.4280  151.5220 C   0  0  0  0  0  2  0  0  0  0  0  0
  160.7930  201.3450  150.7240 C   0  0  0  0  0  2  0  0  0  0  0  0
  161.4820  201.1190  149.4660 N   0  0  0  0  0  2  0  0  0  0  0  0
  160.5080  201.3330  148.4110 C   0  0  0  0  0  2  0  0  0  0  0  0
  161.1230  201.0070  147.0640 C   0  0  0  0  0  2  0  0  0  0  0  0
  160.0340  201.4660  145.0570 C   0  0  0  0  0  1  0  0  0  0  0  0
  160.8280  202.0650  146.1140 N   0  0  0  0  0  2  0  0  0  0  0  0
  1 22  1  1  0  0  0
  1  9  1  0  0  0  0
  2  4  2  0  0  0  0
  2  3  1  0  0  0  0
  3 10  2  0  0  0  0
  4  7  1  0  0  0  0
  5  9  1  0  0  0  0
  5 18  1  0  0  0  0
  6  3  1  0  0  0  0
  7  8  2  0  0  0  0
  7  1  1  0  0  0  0
  8  5  1  0  0  0  0
 10  8  1  0  0  0  0
 11 16  1  0  0  0  0
 12 13  1  0  0  0  0
 13 11  2  0  0  0  0
 13 15  1  0  0  0  0
 14  2  1  0  0  0  0
 15 17  2  0  0  0  0
 16 14  2  0  0  0  0
 17 14  1  0  0  0  0
 18 20  1  0  0  0  0
 19 21  1  0  0  0  0
 20 19  1  0  0  0  0
 20 21  1  0  0  0  0
 23 22  1  0  0  0  0
 24 23  1  0  0  0  0
 25 24  1  0  0  0  0
 26 25  1  0  0  0  0
 27 28  1  0  0  0  0
 28 26  1  0  0  0  0
M  END
>  <MODEL>
1

>  <REMARK>
 VINA RESULT:      -8.2      0.000      0.000
  Name = 
  9 active torsions:
  status: ('A' for Active; 'I' for Inactive)
    1  A    between atoms: C_1  and  C_16
    2  A    between atoms: C_2  and  C_15
    3  A    between atoms: C_6  and  C_10
    4  A    between atoms: C_6  and  N_12
    5  A    between atoms: C_11  and  C_16
    6  A    between atoms: C_11  and  N_27
    7  A    between atoms: C_17  and  C_18
    8  A    between atoms: C_17  and  N_27
    9  A    between atoms: C_18  and  N_22
                            x       y       z     vdW  Elec       q    Type
                         _______ _______ _______ _____ _____    ______ ____

>  <TORSDO>
F 9

$$$$
=
 OpenBabel11042421113D

 28 31  0  0  1  0  0  0  0  0999 V2000
  160.5700  205.8080  152.4820 C   0  0  2  0  0  3  0  0  0  0  0  0
  161.4480  206.8780  148.8760 C   0  0  0  0  0  0  0  0  0  0  0  0
  161.8690  208.2020  149.2140 C   0  0  0  0  0  0  0  0  0  0  0  0
  161.0120  206.0190  149.9100 C   0  0  0  0  0  3  0  0  0  0  0  0
  161.2410  207.9640  152.9030 N   0  0  0  0  0  0  0  0  0  0  0  0
  162.3660  209.1030  148.2300 N   0  0  0  0  0  1  0  0  0  0  0  0
  161.0040  206.4860  151.2220 C   0  0  0  0  0  0  0  0  0  0  0  0
  161.3860  207.7460  151.5210 C   0  0  0  0  0  0  0  0  0  0  0  0
  160.7380  206.8160  153.5520 N   0  0  0  0  0  2  0  0  0  0  0  0
  161.8310  208.6380  150.5500 C   0  0  0  0  0  3  0  0  0  0  0  0
  162.5510  205.2280  145.6240 C   0  0  0  0  0  3  0  0  0  0  0  0
  161.4180  204.9820  143.5430 F   0  0  0  0  0  0  0  0  0  0  0  0
  161.4270  205.4310  144.8210 C   0  0  0  0  0  0  0  0  0  0  0  0
  161.4460  206.3580  147.4790 C   0  0  0  0  0  0  0  0  0  0  0  0
  160.3140  206.1010  145.3350 C   0  0  0  0  0  3  0  0  0  0  0  0
  162.5600  205.6910  146.9430 C   0  0  0  0  0  3  0  0  0  0  0  0
  160.3260  206.5630  146.6540 C   0  0  0  0  0  3  0  0  0  0  0  0
  161.5680  209.2170  153.5780 C   0  0  0  0  0  2  0  0  0  0  0  0
  159.7830  210.7800  152.8920 C   0  0  0  0  0  2  0  0  0  0  0  0
  160.3190  209.9510  154.0380 C   0  0  0  0  0  3  0  0  0  0  0  0
  160.5760  211.4430  153.9980 C   0  0  0  0  0  2  0  0  0  0  0  0
  161.4510  204.6010  152.7870 C   0  0  0  0  0  2  0  0  0  0  0  0
  160.7540  203.3000  152.4180 C   0  0  0  0  0  2  0  0  0  0  0  0
  161.5630  202.5510  151.4720 N   0  0  0  0  0  2  0  0  0  0  0  0
  160.7340  202.3250  150.3010 C   0  0  0  0  0  2  0  0  0  0  0  0
  161.0430  200.9650  149.7030 C   0  0  0  0  0  2  0  0  0  0  0  0
  161.1250  202.4770  147.9340 C   0  0  0  0  0  1  0  0  0  0  0  0
  161.1010  201.0620  148.2550 N   0  0  0  0  0  2  0  0  0  0  0  0
  1 22  1  1  0  0  0
  1  9  1  0  0  0  0
  2  3  2  0  0  0  0
  2  4  1  0  0  0  0
  3 10  1  0  0  0  0
  4  7  2  0  0  0  0
  5  9  1  0  0  0  0
  5 18  1  0  0  0  0
  6  3  1  0  0  0  0
  7  8  1  0  0  0  0
  7  1  1  0  0  0  0
  8  5  1  0  0  0  0
 10  8  2  0  0  0  0
 11 16  1  0  0  0  0
 12 13  1  0  0  0  0
 13 15  1  0  0  0  0
 13 11  2  0  0  0  0
 14  2  1  0  0  0  0
 15 17  2  0  0  0  0
 16 14  2  0  0  0  0
 17 14  1  0  0  0  0
 18 20  1  0  0  0  0
 19 21  1  0  0  0  0
 19 20  1  0  0  0  0
 21 20  1  0  0  0  0
 23 22  1  0  0  0  0
 24 23  1  0  0  0  0
 25 24  1  0  0  0  0
 26 25  1  0  0  0  0
 27 28  1  0  0  0  0
 28 26  1  0  0  0  0
M  END
>  <MODEL>
2

>  <REMARK>
 VINA RESULT:      -7.6      1.560      2.332
  Name = 
  9 active torsions:
  status: ('A' for Active; 'I' for Inactive)
    1  A    between atoms: C_1  and  C_16
    2  A    between atoms: C_2  and  C_15
    3  A    between atoms: C_6  and  C_10
    4  A    between atoms: C_6  and  N_12
    5  A    between atoms: C_11  and  C_16
    6  A    between atoms: C_11  and  N_27
    7  A    between atoms: C_17  and  C_18
    8  A    between atoms: C_17  and  N_27
    9  A    between atoms: C_18  and  N_22
                            x       y       z     vdW  Elec       q    Type
                         _______ _______ _______ _____ _____    ______ ____

>  <TORSDO>
F 9

$$$$
=
 OpenBabel11042421113D

 28 31  0  0  1  0  0  0  0  0999 V2000
  162.1730  209.1150  151.3280 C   0  0  2  0  0  3  0  0  0  0  0  0
  161.3920  206.2340  148.8760 C   0  0  0  0  0  0  0  0  0  0  0  0
  160.9650  205.3040  149.8740 C   0  0  0  0  0  0  0  0  0  0  0  0
  161.7990  207.5260  149.2810 C   0  0  0  0  0  3  0  0  0  0  0  0
  161.4950  207.5290  152.8450 N   0  0  0  0  0  0  0  0  0  0  0  0
  160.4950  204.0030  149.5320 N   0  0  0  0  0  1  0  0  0  0  0  0
  161.7740  207.8510  150.6350 C   0  0  0  0  0  0  0  0  0  0  0  0
  161.3860  206.9540  151.5660 C   0  0  0  0  0  0  0  0  0  0  0  0
  161.9780  208.8540  152.7710 N   0  0  0  0  0  2  0  0  0  0  0  0
  160.9680  205.6690  151.2320 C   0  0  0  0  0  3  0  0  0  0  0  0
  162.5320  204.9160  145.4880 C   0  0  0  0  0  3  0  0  0  0  0  0
  161.5210  205.0770  143.3370 F   0  0  0  0  0  0  0  0  0  0  0  0
  161.4920  205.3480  144.6640 C   0  0  0  0  0  0  0  0  0  0  0  0
  161.4300  205.9070  147.4230 C   0  0  0  0  0  0  0  0  0  0  0  0
  160.4230  206.0650  145.2080 C   0  0  0  0  0  3  0  0  0  0  0  0
  162.5020  205.1960  146.8570 C   0  0  0  0  0  3  0  0  0  0  0  0
  160.3950  206.3430  146.5770 C   0  0  0  0  0  3  0  0  0  0  0  0
  161.1520  206.8430  154.0880 C   0  0  0  0  0  2  0  0  0  0  0  0
  161.3700  208.0280  156.2440 C   0  0  0  0  0  2  0  0  0  0  0  0
  160.4530  207.7700  155.0680 C   0  0  0  0  0  3  0  0  0  0  0  0
  160.2330  207.0370  156.3760 C   0  0  0  0  0  2  0  0  0  0  0  0
  161.2820  210.2780  150.9040 C   0  0  0  0  0  2  0  0  0  0  0  0
  162.0630  211.3130  150.1090 C   0  0  0  0  0  2  0  0  0  0  0  0
  162.0290  210.9850  148.6940 N   0  0  0  0  0  2  0  0  0  0  0  0
  162.5840  212.1260  147.9880 C   0  0  0  0  0  2  0  0  0  0  0  0
  161.4660  212.9580  147.3890 C   0  0  0  0  0  2  0  0  0  0  0  0
  159.1860  212.8960  146.9160 C   0  0  0  0  0  1  0  0  0  0  0  0
  160.3940  212.0910  146.9310 N   0  0  0  0  0  2  0  0  0  0  0  0
  1 22  1  6  0  0  0
  1  9  1  0  0  0  0
  2  4  2  0  0  0  0
  2  3  1  0  0  0  0
  3 10  2  0  0  0  0
  4  7  1  0  0  0  0
  5 18  1  0  0  0  0
  6  3  1  0  0  0  0
  7  1  1  0  0  0  0
  7  8  2  0  0  0  0
  8  5  1  0  0  0  0
  9  5  1  0  0  0  0
 10  8  1  0  0  0  0
 11 16  1  0  0  0  0
 12 13  1  0  0  0  0
 13 15  1  0  0  0  0
 13 11  2  0  0  0  0
 14  2  1  0  0  0  0
 15 17  2  0  0  0  0
 16 14  2  0  0  0  0
 17 14  1  0  0  0  0
 18 20  1  0  0  0  0
 19 21  1  0  0  0  0
 20 19  1  0  0  0  0
 20 21  1  0  0  0  0
 23 22  1  0  0  0  0
 24 23  1  0  0  0  0
 25 24  1  0  0  0  0
 26 25  1  0  0  0  0
 27 28  1  0  0  0  0
 28 26  1  0  0  0  0
M  END
>  <MODEL>
3

>  <REMARK>
 VINA RESULT:      -7.2      2.768      5.662
  Name = 
  9 active torsions:
  status: ('A' for Active; 'I' for Inactive)
    1  A    between atoms: C_1  and  C_16
    2  A    between atoms: C_2  and  C_15
    3  A    between atoms: C_6  and  C_10
    4  A    between atoms: C_6  and  N_12
    5  A    between atoms: C_11  and  C_16
    6  A    between atoms: C_11  and  N_27
    7  A    between atoms: C_17  and  C_18
    8  A    between atoms: C_17  and  N_27
    9  A    between atoms: C_18  and  N_22
                            x       y       z     vdW  Elec       q    Type
                         _______ _______ _______ _____ _____    ______ ____

>  <TORSDO>
F 9

$$$$
=
 OpenBabel11042421113D

 28 31  0  0  1  0  0  0  0  0999 V2000
  160.7250  206.4800  148.8500 C   0  0  2  0  0  3  0  0  0  0  0  0
  160.9240  207.8190  152.4670 C   0  0  0  0  0  0  0  0  0  0  0  0
  161.1200  206.5440  153.0850 C   0  0  0  0  0  0  0  0  0  0  0  0
  160.7950  207.8800  151.0610 C   0  0  0  0  0  3  0  0  0  0  0  0
  161.0140  204.4860  149.9520 N   0  0  0  0  0  0  0  0  0  0  0  0
  161.3080  206.4160  154.4910 N   0  0  0  0  0  1  0  0  0  0  0  0
  160.8590  206.7000  150.3220 C   0  0  0  0  0  0  0  0  0  0  0  0
  161.0250  205.5030  150.9240 C   0  0  0  0  0  0  0  0  0  0  0  0
  160.8270  205.0160  148.6580 N   0  0  0  0  0  2  0  0  0  0  0  0
  161.1660  205.3770  152.3030 C   0  0  0  0  0  3  0  0  0  0  0  0
  161.0660  210.3410  155.3190 C   0  0  0  0  0  3  0  0  0  0  0  0
  160.5570  212.6670  155.3630 F   0  0  0  0  0  0  0  0  0  0  0  0
  160.6500  211.5060  154.6730 C   0  0  0  0  0  0  0  0  0  0  0  0
  160.8500  209.0920  153.2370 C   0  0  0  0  0  0  0  0  0  0  0  0
  160.3260  211.4720  153.3140 C   0  0  0  0  0  3  0  0  0  0  0  0
  161.1620  209.1420  154.6060 C   0  0  0  0  0  3  0  0  0  0  0  0
  160.4230  210.2730  152.6040 C   0  0  0  0  0  3  0  0  0  0  0  0
  161.1740  203.0640  150.2480 C   0  0  0  0  0  2  0  0  0  0  0  0
  159.6900  201.4060  149.1760 C   0  0  0  0  0  2  0  0  0  0  0  0
  160.9650  202.2060  149.0120 C   0  0  0  0  0  3  0  0  0  0  0  0
  161.0320  200.7440  149.4040 C   0  0  0  0  0  2  0  0  0  0  0  0
  161.8540  207.1650  148.0860 C   0  0  0  0  0  2  0  0  0  0  0  0
  162.2930  206.3390  146.8870 C   0  0  0  0  0  2  0  0  0  0  0  0
  161.2300  206.2900  145.8980 N   0  0  0  0  0  2  0  0  0  0  0  0
  161.6640  205.3670  144.8650 C   0  0  0  0  0  2  0  0  0  0  0  0
  160.7220  204.1780  144.8040 C   0  0  0  0  0  2  0  0  0  0  0  0
  160.4220  201.9250  145.3120 C   0  0  0  0  0  1  0  0  0  0  0  0
  161.2640  203.0770  145.5800 N   0  0  0  0  0  2  0  0  0  0  0  0
  1 22  1  6  0  0  0
  1  7  1  0  0  0  0
  2  3  1  0  0  0  0
  2 14  1  0  0  0  0
  3  6  1  0  0  0  0
  4  2  2  0  0  0  0
  5 18  1  0  0  0  0
  5  8  1  0  0  0  0
  7  8  2  0  0  0  0
  7  4  1  0  0  0  0
  8 10  1  0  0  0  0
  9  1  1  0  0  0  0
  9  5  1  0  0  0  0
 10  3  2  0  0  0  0
 13 11  1  0  0  0  0
 13 12  1  0  0  0  0
 14 16  1  0  0  0  0
 15 13  2  0  0  0  0
 16 11  2  0  0  0  0
 17 14  2  0  0  0  0
 17 15  1  0  0  0  0
 19 21  1  0  0  0  0
 20 19  1  0  0  0  0
 20 21  1  0  0  0  0
 20 18  1  0  0  0  0
 23 22  1  0  0  0  0
 24 23  1  0  0  0  0
 25 24  1  0  0  0  0
 26 25  1  0  0  0  0
 26 28  1  0  0  0  0
 27 28  1  0  0  0  0
M  END
>  <MODEL>
4

>  <REMARK>
 VINA RESULT:      -7.2      3.320      6.918
  Name = 
  9 active torsions:
  status: ('A' for Active; 'I' for Inactive)
    1  A    between atoms: C_1  and  C_16
    2  A    between atoms: C_2  and  C_15
    3  A    between atoms: C_6  and  C_10
    4  A    between atoms: C_6  and  N_12
    5  A    between atoms: C_11  and  C_16
    6  A    between atoms: C_11  and  N_27
    7  A    between atoms: C_17  and  C_18
    8  A    between atoms: C_17  and  N_27
    9  A    between atoms: C_18  and  N_22
                            x       y       z     vdW  Elec       q    Type
                         _______ _______ _______ _____ _____    ______ ____

>  <TORSDO>
F 9

$$$$
=
 OpenBabel11042421113D

 28 31  0  0  1  0  0  0  0  0999 V2000
  162.1000  209.1760  151.5490 C   0  0  2  0  0  3  0  0  0  0  0  0
  161.3750  206.3000  149.0730 C   0  0  0  0  0  0  0  0  0  0  0  0
  160.9660  205.3530  150.0640 C   0  0  0  0  0  0  0  0  0  0  0  0
  161.7570  207.5960  149.4890 C   0  0  0  0  0  3  0  0  0  0  0  0
  161.4540  207.5650  153.0530 N   0  0  0  0  0  0  0  0  0  0  0  0
  160.5220  204.0470  149.7110 N   0  0  0  0  0  1  0  0  0  0  0  0
  161.7260  207.9100  150.8450 C   0  0  0  0  0  0  0  0  0  0  0  0
  161.3560  206.9980  151.7690 C   0  0  0  0  0  0  0  0  0  0  0  0
  161.9110  208.8990  152.9900 N   0  0  0  0  0  2  0  0  0  0  0  0
  160.9620  205.7080  151.4240 C   0  0  0  0  0  3  0  0  0  0  0  0
  162.5380  205.0290  145.6750 C   0  0  0  0  0  3  0  0  0  0  0  0
  161.5250  205.1910  143.5260 F   0  0  0  0  0  0  0  0  0  0  0  0
  161.4910  205.4510  144.8540 C   0  0  0  0  0  0  0  0  0  0  0  0
  161.4180  205.9860  147.6170 C   0  0  0  0  0  0  0  0  0  0  0  0
  160.4100  206.1450  145.4030 C   0  0  0  0  0  3  0  0  0  0  0  0
  162.5020  205.2980  147.0470 C   0  0  0  0  0  3  0  0  0  0  0  0
  160.3770  206.4120  146.7750 C   0  0  0  0  0  3  0  0  0  0  0  0
  161.1250  206.8610  154.2900 C   0  0  0  0  0  2  0  0  0  0  0  0
  161.2680  207.9890  156.4830 C   0  0  0  0  0  2  0  0  0  0  0  0
  160.3910  207.7610  155.2700 C   0  0  0  0  0  3  0  0  0  0  0  0
  160.1290  206.9940  156.5500 C   0  0  0  0  0  2  0  0  0  0  0  0
  161.1870  210.3250  151.1350 C   0  0  0  0  0  2  0  0  0  0  0  0
  160.4180  210.8780  152.3250 C   0  0  0  0  0  2  0  0  0  0  0  0
  160.0170  212.2490  152.0670 N   0  0  0  0  0  2  0  0  0  0  0  0
  158.5740  212.2990  152.2250 C   0  0  0  0  0  2  0  0  0  0  0  0
  158.2210  212.9080  153.5690 C   0  0  0  0  0  2  0  0  0  0  0  0
  156.0230  212.8220  154.3360 C   0  0  0  0  0  1  0  0  0  0  0  0
  157.2600  212.0660  154.2590 N   0  0  0  0  0  2  0  0  0  0  0  0
  1 22  1  6  0  0  0
  1  9  1  0  0  0  0
  2  4  2  0  0  0  0
  2  3  1  0  0  0  0
  3 10  2  0  0  0  0
  4  7  1  0  0  0  0
  5 18  1  0  0  0  0
  6  3  1  0  0  0  0
  7  1  1  0  0  0  0
  7  8  2  0  0  0  0
  8  5  1  0  0  0  0
  9  5  1  0  0  0  0
 10  8  1  0  0  0  0
 11 16  1  0  0  0  0
 12 13  1  0  0  0  0
 13 15  1  0  0  0  0
 13 11  2  0  0  0  0
 14  2  1  0  0  0  0
 15 17  2  0  0  0  0
 16 14  2  0  0  0  0
 17 14  1  0  0  0  0
 18 20  1  0  0  0  0
 19 21  1  0  0  0  0
 20 19  1  0  0  0  0
 20 21  1  0  0  0  0
 22 23  1  0  0  0  0
 24 25  1  0  0  0  0
 24 23  1  0  0  0  0
 25 26  1  0  0  0  0
 26 28  1  0  0  0  0
 28 27  1  0  0  0  0
M  END
>  <MODEL>
5

>  <REMARK>
 VINA RESULT:      -7.1      3.088      6.467
  Name = 
  9 active torsions:
  status: ('A' for Active; 'I' for Inactive)
    1  A    between atoms: C_1  and  C_16
    2  A    between atoms: C_2  and  C_15
    3  A    between atoms: C_6  and  C_10
    4  A    between atoms: C_6  and  N_12
    5  A    between atoms: C_11  and  C_16
    6  A    between atoms: C_11  and  N_27
    7  A    between atoms: C_17  and  C_18
    8  A    between atoms: C_17  and  N_27
    9  A    between atoms: C_18  and  N_22
                            x       y       z     vdW  Elec       q    Type
                         _______ _______ _______ _____ _____    ______ ____

>  <TORSDO>
F 9

$$$$
=
 OpenBabel11042421113D

 28 31  0  0  1  0  0  0  0  0999 V2000
  162.1670  209.0300  151.5760 C   0  0  2  0  0  3  0  0  0  0  0  0
  161.3670  206.1930  149.0790 C   0  0  0  0  0  0  0  0  0  0  0  0
  160.9210  205.2540  150.0610 C   0  0  0  0  0  0  0  0  0  0  0  0
  161.7880  207.4730  149.5040 C   0  0  0  0  0  3  0  0  0  0  0  0
  161.4570  207.4320  153.0660 N   0  0  0  0  0  0  0  0  0  0  0  0
  160.4360  203.9650  149.6980 N   0  0  0  0  0  1  0  0  0  0  0  0
  161.7570  207.7810  150.8630 C   0  0  0  0  0  0  0  0  0  0  0  0
  161.3510  206.8760  151.7790 C   0  0  0  0  0  0  0  0  0  0  0  0
  161.9580  208.7510  153.0140 N   0  0  0  0  0  2  0  0  0  0  0  0
  160.9180  205.6010  151.4240 C   0  0  0  0  0  3  0  0  0  0  0  0
  162.4410  204.7880  145.7040 C   0  0  0  0  0  3  0  0  0  0  0  0
  161.5320  205.1100  143.5260 F   0  0  0  0  0  0  0  0  0  0  0  0
  161.4930  205.3640  144.8560 C   0  0  0  0  0  0  0  0  0  0  0  0
  161.4110  205.8850  147.6220 C   0  0  0  0  0  0  0  0  0  0  0  0
  160.5080  206.2040  145.3790 C   0  0  0  0  0  3  0  0  0  0  0  0
  162.4010  205.0500  147.0770 C   0  0  0  0  0  3  0  0  0  0  0  0
  160.4700  206.4640  146.7520 C   0  0  0  0  0  3  0  0  0  0  0  0
  161.0970  206.7340  154.2970 C   0  0  0  0  0  2  0  0  0  0  0  0
  161.0200  208.0910  156.3590 C   0  0  0  0  0  2  0  0  0  0  0  0
  160.2070  207.5850  155.1870 C   0  0  0  0  0  3  0  0  0  0  0  0
  160.0770  206.9210  156.5430 C   0  0  0  0  0  2  0  0  0  0  0  0
  161.2940  210.2100  151.1620 C   0  0  0  0  0  2  0  0  0  0  0  0
  160.8220  211.0010  152.3720 C   0  0  0  0  0  2  0  0  0  0  0  0
  159.4140  210.7460  152.6170 N   0  0  0  0  0  2  0  0  0  0  0  0
  159.1440  211.1680  153.9810 C   0  0  0  0  0  2  0  0  0  0  0  0
  160.4410  211.5470  154.6710 C   0  0  0  0  0  2  0  0  0  0  0  0
  160.7850  211.8850  156.9500 C   0  0  0  0  0  1  0  0  0  0  0  0
  160.1700  212.4600  155.7680 N   0  0  0  0  0  2  0  0  0  0  0  0
  1 22  1  6  0  0  0
  1  9  1  0  0  0  0
  2  4  2  0  0  0  0
  2  3  1  0  0  0  0
  3 10  2  0  0  0  0
  4  7  1  0  0  0  0
  5 18  1  0  0  0  0
  6  3  1  0  0  0  0
  7  1  1  0  0  0  0
  7  8  2  0  0  0  0
  8  5  1  0  0  0  0
  9  5  1  0  0  0  0
 10  8  1  0  0  0  0
 11 16  1  0  0  0  0
 12 13  1  0  0  0  0
 13 15  1  0  0  0  0
 13 11  2  0  0  0  0
 14  2  1  0  0  0  0
 15 17  2  0  0  0  0
 16 14  2  0  0  0  0
 17 14  1  0  0  0  0
 18 20  1  0  0  0  0
 19 21  1  0  0  0  0
 20 19  1  0  0  0  0
 20 21  1  0  0  0  0
 22 23  1  0  0  0  0
 23 24  1  0  0  0  0
 24 25  1  0  0  0  0
 25 26  1  0  0  0  0
 26 28  1  0  0  0  0
 28 27  1  0  0  0  0
M  END
>  <MODEL>
6

>  <REMARK>
 VINA RESULT:      -7.0      2.602      6.413
  Name = 
  9 active torsions:
  status: ('A' for Active; 'I' for Inactive)
    1  A    between atoms: C_1  and  C_16
    2  A    between atoms: C_2  and  C_15
    3  A    between atoms: C_6  and  C_10
    4  A    between atoms: C_6  and  N_12
    5  A    between atoms: C_11  and  C_16
    6  A    between atoms: C_11  and  N_27
    7  A    between atoms: C_17  and  C_18
    8  A    between atoms: C_17  and  N_27
    9  A    between atoms: C_18  and  N_22
                            x       y       z     vdW  Elec       q    Type
                         _______ _______ _______ _____ _____    ______ ____

>  <TORSDO>
F 9

$$$$
=
 OpenBabel11042421113D

 28 31  0  0  1  0  0  0  0  0999 V2000
  160.8270  208.8150  151.9700 C   0  0  2  0  0  3  0  0  0  0  0  0
  161.4530  206.0490  149.3470 C   0  0  0  0  0  0  0  0  0  0  0  0
  162.0610  206.9030  148.3750 C   0  0  0  0  0  0  0  0  0  0  0  0
  161.0260  206.6100  150.5720 C   0  0  0  0  0  3  0  0  0  0  0  0
  161.7890  210.0960  150.3240 N   0  0  0  0  0  0  0  0  0  0  0  0
  162.5600  206.3960  147.1410 N   0  0  0  0  0  1  0  0  0  0  0  0
  161.2070  207.9730  150.7940 C   0  0  0  0  0  0  0  0  0  0  0  0
  161.7650  208.7690  149.8570 C   0  0  0  0  0  0  0  0  0  0  0  0
  161.2230  210.1960  151.6120 N   0  0  0  0  0  2  0  0  0  0  0  0
  162.2130  208.2770  148.6340 C   0  0  0  0  0  3  0  0  0  0  0  0
  161.2060  202.6340  147.6760 C   0  0  0  0  0  3  0  0  0  0  0  0
  160.5890  200.5110  148.5620 F   0  0  0  0  0  0  0  0  0  0  0  0
  160.8010  201.8360  148.7460 C   0  0  0  0  0  0  0  0  0  0  0  0
  161.2470  204.5890  149.1310 C   0  0  0  0  0  0  0  0  0  0  0  0
  160.6100  202.4050  150.0080 C   0  0  0  0  0  3  0  0  0  0  0  0
  161.4250  204.0020  147.8670 C   0  0  0  0  0  3  0  0  0  0  0  0
  160.8290  203.7720  150.1970 C   0  0  0  0  0  3  0  0  0  0  0  0
  162.3310  211.2230  149.5690 C   0  0  0  0  0  2  0  0  0  0  0  0
  161.1670  212.1540  147.6000 C   0  0  0  0  0  2  0  0  0  0  0  0
  161.2360  212.1720  149.1120 C   0  0  0  0  0  3  0  0  0  0  0  0
  161.8560  213.2990  148.3120 C   0  0  0  0  0  2  0  0  0  0  0  0
  161.5840  208.3850  153.2220 C   0  0  0  0  0  2  0  0  0  0  0  0
  160.8910  207.2230  153.9160 C   0  0  0  0  0  2  0  0  0  0  0  0
  160.6050  207.5650  155.2980 N   0  0  0  0  0  2  0  0  0  0  0  0
  161.3070  208.8060  155.5750 C   0  0  0  0  0  2  0  0  0  0  0  0
  161.9560  208.7390  156.9450 C   0  0  0  0  0  2  0  0  0  0  0  0
  162.7090  210.7030  155.9440 C   0  0  0  0  0  1  0  0  0  0  0  0
  162.7640  209.9250  157.1680 N   0  0  0  0  0  2  0  0  0  0  0  0
  1 22  1  1  0  0  0
  2  4  1  0  0  0  0
  3 10  1  0  0  0  0
  3  2  2  0  0  0  0
  4  7  2  0  0  0  0
  5  9  1  0  0  0  0
  6  3  1  0  0  0  0
  7  1  1  0  0  0  0
  8  5  1  0  0  0  0
  8  7  1  0  0  0  0
  9  1  1  0  0  0  0
 10  8  2  0  0  0  0
 11 16  2  0  0  0  0
 11 13  1  0  0  0  0
 12 13  1  0  0  0  0
 13 15  2  0  0  0  0
 14  2  1  0  0  0  0
 14 17  2  0  0  0  0
 15 17  1  0  0  0  0
 16 14  1  0  0  0  0
 18  5  1  0  0  0  0
 19 21  1  0  0  0  0
 19 20  1  0  0  0  0
 20 18  1  0  0  0  0
 21 20  1  0  0  0  0
 22 23  1  0  0  0  0
 23 24  1  0  0  0  0
 24 25  1  0  0  0  0
 25 26  1  0  0  0  0
 26 28  1  0  0  0  0
 27 28  1  0  0  0  0
M  END
>  <MODEL>
7

>  <REMARK>
 VINA RESULT:      -7.0      3.251      7.042
  Name = 
  9 active torsions:
  status: ('A' for Active; 'I' for Inactive)
    1  A    between atoms: C_1  and  C_16
    2  A    between atoms: C_2  and  C_15
    3  A    between atoms: C_6  and  C_10
    4  A    between atoms: C_6  and  N_12
    5  A    between atoms: C_11  and  C_16
    6  A    between atoms: C_11  and  N_27
    7  A    between atoms: C_17  and  C_18
    8  A    between atoms: C_17  and  N_27
    9  A    between atoms: C_18  and  N_22
                            x       y       z     vdW  Elec       q    Type
                         _______ _______ _______ _____ _____    ______ ____

>  <TORSDO>
F 9

$$$$
=
 OpenBabel11042421113D

 28 31  0  0  1  0  0  0  0  0999 V2000
  160.8850  208.9480  151.9930 C   0  0  2  0  0  3  0  0  0  0  0  0
  161.4160  206.1370  149.3990 C   0  0  0  0  0  0  0  0  0  0  0  0
  162.0000  206.9720  148.3950 C   0  0  0  0  0  0  0  0  0  0  0  0
  161.0280  206.7200  150.6260 C   0  0  0  0  0  3  0  0  0  0  0  0
  161.8070  210.1960  150.3000 N   0  0  0  0  0  0  0  0  0  0  0  0
  162.4590  206.4420  147.1560 N   0  0  0  0  0  1  0  0  0  0  0  0
  161.2250  208.0850  150.8210 C   0  0  0  0  0  0  0  0  0  0  0  0
  161.7600  208.8630  149.8550 C   0  0  0  0  0  0  0  0  0  0  0  0
  161.2790  210.3210  151.6030 N   0  0  0  0  0  2  0  0  0  0  0  0
  162.1680  208.3480  148.6280 C   0  0  0  0  0  3  0  0  0  0  0  0
  160.6440  202.4720  150.0960 C   0  0  0  0  0  3  0  0  0  0  0  0
  160.6530  200.5790  148.6490 F   0  0  0  0  0  0  0  0  0  0  0  0
  160.8310  201.9100  148.8320 C   0  0  0  0  0  0  0  0  0  0  0  0
  161.1940  204.6750  149.2110 C   0  0  0  0  0  0  0  0  0  0  0  0
  161.2050  202.7190  147.7560 C   0  0  0  0  0  3  0  0  0  0  0  0
  160.8280  203.8450  150.2840 C   0  0  0  0  0  3  0  0  0  0  0  0
  161.3870  204.0910  147.9470 C   0  0  0  0  0  3  0  0  0  0  0  0
  162.3330  211.3080  149.5120 C   0  0  0  0  0  2  0  0  0  0  0  0
  161.0740  212.1670  147.5680 C   0  0  0  0  0  2  0  0  0  0  0  0
  161.2310  212.2560  149.0710 C   0  0  0  0  0  3  0  0  0  0  0  0
  161.8240  213.3300  148.1820 C   0  0  0  0  0  2  0  0  0  0  0  0
  161.6760  208.5330  153.2290 C   0  0  0  0  0  2  0  0  0  0  0  0
  160.8340  207.6760  154.1630 C   0  0  0  0  0  2  0  0  0  0  0  0
  161.1700  207.9670  155.5460 N   0  0  0  0  0  2  0  0  0  0  0  0
  161.5860  209.3570  155.5910 C   0  0  0  0  0  2  0  0  0  0  0  0
  160.6260  210.1570  156.4520 C   0  0  0  0  0  2  0  0  0  0  0  0
  160.0720  211.6820  154.7810 C   0  0  0  0  0  1  0  0  0  0  0  0
  159.5260  210.6480  155.6410 N   0  0  0  0  0  2  0  0  0  0  0  0
  1 22  1  1  0  0  0
  2  4  1  0  0  0  0
  3 10  1  0  0  0  0
  3  2  2  0  0  0  0
  4  7  2  0  0  0  0
  5  9  1  0  0  0  0
  6  3  1  0  0  0  0
  7  1  1  0  0  0  0
  8  5  1  0  0  0  0
  8  7  1  0  0  0  0
  9  1  1  0  0  0  0
 10  8  2  0  0  0  0
 11 16  1  0  0  0  0
 12 13  1  0  0  0  0
 13 11  2  0  0  0  0
 14  2  1  0  0  0  0
 14 16  2  0  0  0  0
 15 17  2  0  0  0  0
 15 13  1  0  0  0  0
 17 14  1  0  0  0  0
 18  5  1  0  0  0  0
 19 21  1  0  0  0  0
 19 20  1  0  0  0  0
 20 18  1  0  0  0  0
 21 20  1  0  0  0  0
 22 23  1  0  0  0  0
 23 24  1  0  0  0  0
 24 25  1  0  0  0  0
 25 26  1  0  0  0  0
 27 28  1  0  0  0  0
 28 26  1  0  0  0  0
M  END
>  <MODEL>
8

>  <REMARK>
 VINA RESULT:      -6.9      3.296      7.080
  Name = 
  9 active torsions:
  status: ('A' for Active; 'I' for Inactive)
    1  A    between atoms: C_1  and  C_16
    2  A    between atoms: C_2  and  C_15
    3  A    between atoms: C_6  and  C_10
    4  A    between atoms: C_6  and  N_12
    5  A    between atoms: C_11  and  C_16
    6  A    between atoms: C_11  and  N_27
    7  A    between atoms: C_17  and  C_18
    8  A    between atoms: C_17  and  N_27
    9  A    between atoms: C_18  and  N_22
                            x       y       z     vdW  Elec       q    Type
                         _______ _______ _______ _____ _____    ______ ____

>  <TORSDO>
F 9

$$$$
=
 OpenBabel11042421113D

 28 31  0  0  1  0  0  0  0  0999 V2000
  161.4640  204.0640  149.7440 C   0  0  2  0  0  3  0  0  0  0  0  0
  161.2030  207.3140  151.8160 C   0  0  0  0  0  0  0  0  0  0  0  0
  161.2960  208.2060  150.7020 C   0  0  0  0  0  0  0  0  0  0  0  0
  161.2410  205.9210  151.5760 C   0  0  0  0  0  3  0  0  0  0  0  0
  161.6340  205.5900  148.0360 N   0  0  0  0  0  0  0  0  0  0  0  0
  161.2140  209.6180  150.8660 N   0  0  0  0  0  1  0  0  0  0  0  0
  161.3700  205.4620  150.2680 C   0  0  0  0  0  0  0  0  0  0  0  0
  161.4760  206.3180  149.2290 C   0  0  0  0  0  0  0  0  0  0  0  0
  161.6410  204.2000  148.2810 N   0  0  0  0  0  2  0  0  0  0  0  0
  161.4380  207.6990  149.3980 C   0  0  0  0  0  3  0  0  0  0  0  0
  161.0970  209.5600  154.8910 C   0  0  0  0  0  3  0  0  0  0  0  0
  160.7490  209.0350  157.1880 F   0  0  0  0  0  0  0  0  0  0  0  0
  160.8540  208.6280  155.9010 C   0  0  0  0  0  0  0  0  0  0  0  0
  161.0670  207.7830  153.2240 C   0  0  0  0  0  0  0  0  0  0  0  0
  160.7240  207.2740  155.5830 C   0  0  0  0  0  3  0  0  0  0  0  0
  161.2060  209.1390  153.5620 C   0  0  0  0  0  3  0  0  0  0  0  0
  160.8320  206.8550  154.2540 C   0  0  0  0  0  3  0  0  0  0  0  0
  161.7730  206.1970  146.7150 C   0  0  0  0  0  2  0  0  0  0  0  0
  161.5850  205.8280  144.2800 C   0  0  0  0  0  2  0  0  0  0  0  0
  161.8010  205.1490  145.6150 C   0  0  0  0  0  3  0  0  0  0  0  0
  160.4430  205.0920  144.9460 C   0  0  0  0  0  2  0  0  0  0  0  0
  160.1830  203.2850  150.0230 C   0  0  0  0  0  2  0  0  0  0  0  0
  160.4560  201.7940  150.1390 C   0  0  0  0  0  2  0  0  0  0  0  0
  160.1170  201.1250  148.8950 N   0  0  0  0  0  2  0  0  0  0  0  0
  161.3620  200.6380  148.3300 C   0  0  0  0  0  2  0  0  0  0  0  0
  161.2050  200.4300  146.8350 C   0  0  0  0  0  2  0  0  0  0  0  0
  160.0810  201.3290  145.0040 C   0  0  0  0  0  1  0  0  0  0  0  0
  160.8300  201.6790  146.1970 N   0  0  0  0  0  2  0  0  0  0  0  0
  1 22  1  6  0  0  0
  1  7  1  0  0  0  0
  2 14  1  0  0  0  0
  3  6  1  0  0  0  0
  3  2  2  0  0  0  0
  4  2  1  0  0  0  0
  5  9  1  0  0  0  0
  5  8  1  0  0  0  0
  7  4  2  0  0  0  0
  8 10  2  0  0  0  0
  8  7  1  0  0  0  0
  9  1  1  0  0  0  0
 10  3  1  0  0  0  0
 11 13  1  0  0  0  0
 13 12  1  0  0  0  0
 14 16  1  0  0  0  0
 14 17  2  0  0  0  0
 15 13  2  0  0  0  0
 16 11  2  0  0  0  0
 17 15  1  0  0  0  0
 18  5  1  0  0  0  0
 19 21  1  0  0  0  0
 19 20  1  0  0  0  0
 20 18  1  0  0  0  0
 21 20  1  0  0  0  0
 22 23  1  0  0  0  0
 24 23  1  0  0  0  0
 25 24  1  0  0  0  0
 26 25  1  0  0  0  0
 27 28  1  0  0  0  0
 28 26  1  0  0  0  0
M  END
>  <MODEL>
9

>  <REMARK>
 VINA RESULT:      -6.8      3.225      6.649
  Name = 
  9 active torsions:
  status: ('A' for Active; 'I' for Inactive)
    1  A    between atoms: C_1  and  C_16
    2  A    between atoms: C_2  and  C_15
    3  A    between atoms: C_6  and  C_10
    4  A    between atoms: C_6  and  N_12
    5  A    between atoms: C_11  and  C_16
    6  A    between atoms: C_11  and  N_27
    7  A    between atoms: C_17  and  C_18
    8  A    between atoms: C_17  and  N_27
    9  A    between atoms: C_18  and  N_22
                            x       y       z     vdW  Elec       q    Type
                         _______ _______ _______ _____ _____    ______ ____

>  <TORSDO>
F 9

$$$$
