=
 OpenBabel11042420043D

 42 47  0  0  1  0  0  0  0  0999 V2000
  161.9240  206.3140  150.9970 C   0  0  2  0  0  3  0  0  0  0  0  0
  161.2050  207.1170  153.3250 C   0  0  0  0  0  0  0  0  0  0  0  0
  161.4270  205.9930  153.8540 O   0  0  0  0  0  0  0  0  0  0  0  0
  161.2530  208.2070  155.5840 C   0  0  0  0  0  1  0  0  0  0  0  0
  160.9770  209.7140  152.1530 C   0  0  0  0  0  0  0  0  0  0  0  0
  160.5200  209.5170  153.5800 C   0  0  0  0  0  2  0  0  0  0  0  0
  161.0630  208.2840  154.1450 N   0  0  0  0  0  0  0  0  0  0  0  0
  161.2030  208.6540  151.3630 C   0  0  0  0  0  3  0  0  0  0  0  0
  161.0160  207.2340  151.8290 C   0  0  1  0  0  3  0  0  0  0  0  0
  161.1610  211.0840  151.5570 C   0  0  0  0  0  2  0  0  0  0  0  0
  161.9870  211.1000  150.2760 C   0  0  0  0  0  2  0  0  0  0  0  0
  161.4300  212.0510  149.3290 N   0  0  0  0  0  2  0  0  0  0  0  0
  161.5300  211.4550  148.0040 C   0  0  0  0  0  2  0  0  0  0  0  0
  161.1280  212.4520  146.9170 C   0  0  2  0  0  3  0  0  0  0  0  0
  162.6490  213.3370  145.1060 N   0  0  0  0  0  0  0  0  0  0  0  0
  163.4920  213.8120  144.0080 N   0  0  0  0  0  2  0  0  0  0  0  0
  162.5300  212.9140  143.7220 C   0  0  0  0  0  2  0  0  0  0  0  0
  162.2630  213.3240  146.4760 C   0  0  0  0  0  0  0  0  0  0  0  0
  162.8800  214.0460  147.3030 O   0  0  0  0  0  0  0  0  0  0  0  0
  159.9120  213.2440  147.2830 C   0  0  0  0  0  0  0  0  0  0  0  0
  160.0310  214.4530  147.6080 O   0  0  0  0  0  1  0  0  0  0  0  0
  158.6520  212.6580  147.2690 O   0  0  0  0  0  0  0  0  0  0  0  0
  161.5720  206.3460  149.5420 C   0  0  0  0  0  0  0  0  0  0  0  0
  159.9410  206.2690  147.7450 C   0  0  0  0  0  3  0  0  0  0  0  0
  162.2900  206.5700  147.2350 C   0  0  0  0  0  3  0  0  0  0  0  0
  160.6570  206.4910  145.4210 N   0  0  0  0  0  1  0  0  0  0  0  0
  160.2440  206.2220  149.1090 C   0  0  0  0  0  3  0  0  0  0  0  0
  160.9640  206.4430  146.8080 C   0  0  0  0  0  0  0  0  0  0  0  0
  162.5920  206.5230  148.6000 C   0  0  0  0  0  3  0  0  0  0  0  0
  161.9460  205.0000  151.4910 O   0  0  0  0  0  0  0  0  0  0  0  0
  159.7740  204.0290  151.0880 C   0  0  0  0  0  2  0  0  0  0  0  0
  161.1850  204.2520  150.5890 C   0  0  1  0  0  0  0  0  0  0  0  0
  161.8730  202.9530  150.2130 C   0  0  1  0  0  3  0  0  0  0  0  0
  160.8140  202.9520  151.2970 C   0  0  2  0  0  3  0  0  0  0  0  0
  161.8540  203.2000  147.7660 C   0  0  0  0  0  3  0  0  0  0  0  0
  161.6550  200.9680  148.7670 C   0  0  0  0  0  3  0  0  0  0  0  0
  159.8110  202.1360  144.8140 C   0  0  0  0  0  1  0  0  0  0  0  0
  161.2660  200.2420  147.7640 N   0  0  0  0  0  0  0  0  0  0  0  0
  161.4930  202.9800  146.5030 C   0  0  0  0  0  3  0  0  0  0  0  0
  160.5260  200.6820  146.6100 C   0  0  0  0  0  3  0  0  0  0  0  0
  161.3070  202.4140  148.9090 C   0  0  1  0  0  3  0  0  0  0  0  0
  160.5880  201.9040  146.0590 C   0  0  0  0  0  0  0  0  0  0  0  0
  1 30  1  1  0  0  0
  2  3  2  0  0  0  0
  2  7  1  0  0  0  0
  5  6  1  0  0  0  0
  6  7  1  0  0  0  0
  7  4  1  0  0  0  0
  8  9  1  0  0  0  0
  8  5  2  0  0  0  0
  9  1  1  6  0  0  0
  9  2  1  0  0  0  0
 10  5  1  0  0  0  0
 11 10  1  0  0  0  0
 12 11  1  0  0  0  0
 13 12  1  0  0  0  0
 14 20  1  0  0  0  0
 14 13  1  1  0  0  0
 15 18  1  0  0  0  0
 16 15  1  0  0  0  0
 17 16  1  0  0  0  0
 17 15  1  0  0  0  0
 18 14  1  0  0  0  0
 18 19  2  0  0  0  0
 20 21  1  0  0  0  0
 22 20  2  0  0  0  0
 23  1  1  0  0  0  0
 24 27  2  0  0  0  0
 25 29  1  0  0  0  0
 26 28  1  0  0  0  0
 27 23  1  0  0  0  0
 28 25  2  0  0  0  0
 28 24  1  0  0  0  0
 29 23  2  0  0  0  0
 32 31  1  0  0  0  0
 32 34  1  0  0  0  0
 32 30  1  1  0  0  0
 33 41  1  6  0  0  0
 33 32  1  0  0  0  0
 33 34  1  0  0  0  0
 34 31  1  6  0  0  0
 36 41  1  0  0  0  0
 37 42  1  0  0  0  0
 38 36  2  0  0  0  0
 39 35  2  0  0  0  0
 40 38  1  0  0  0  0
 41 35  1  6  0  0  0
 42 39  1  0  0  0  0
 42 40  2  0  0  0  0
M  END
>  <MODEL>
1

>  <REMARK>
 VINA RESULT:      -6.9      0.000      0.000
  Name = 
  12 active torsions:
  status: ('A' for Active; 'I' for Inactive)
    1  A    between atoms: C_3  and  C_8
    2  A    between atoms: C_6  and  C_32
    3  A    between atoms: C_8  and  O_11
    4  A    between atoms: C_8  and  C_39
    5  A    between atoms: O_11  and  C_12
    6  A    between atoms: N_19  and  C_27
    7  A    between atoms: N_19  and  C_29
    8  A    between atoms: C_20  and  C_41
    9  A    between atoms: C_24  and  C_38
   10  A    between atoms: C_27  and  C_32
   11  A    between atoms: C_29  and  C_38
   12  A    between atoms: C_32  and  C_35
                            x       y       z     vdW  Elec       q    Type
                         _______ _______ _______ _____ _____    ______ ____

>  <TORSDO>
F 12

$$$$
=
 OpenBabel11042420043D

 42 47  0  0  1  0  0  0  0  0999 V2000
  161.0500  211.7620  149.5180 C   0  0  2  0  0  3  0  0  0  0  0  0
  161.6660  209.8690  151.1350 C   0  0  0  0  0  0  0  0  0  0  0  0
  161.3690  210.5520  152.1540 O   0  0  0  0  0  0  0  0  0  0  0  0
  161.5330  207.7620  152.4910 C   0  0  0  0  0  1  0  0  0  0  0  0
  162.0670  208.2620  148.8060 C   0  0  0  0  0  0  0  0  0  0  0  0
  162.4320  207.6900  150.1560 C   0  0  0  0  0  2  0  0  0  0  0  0
  161.8080  208.4460  151.2390 N   0  0  0  0  0  0  0  0  0  0  0  0
  161.8430  209.5760  148.6670 C   0  0  0  0  0  3  0  0  0  0  0  0
  161.9450  210.5480  149.8130 C   0  0  1  0  0  3  0  0  0  0  0  0
  161.9740  207.4000  147.5750 C   0  0  0  0  0  2  0  0  0  0  0  0
  162.4270  205.9600  147.7860 C   0  0  0  0  0  2  0  0  0  0  0  0
  161.3750  205.0380  147.3920 N   0  0  0  0  0  2  0  0  0  0  0  0
  161.9380  203.6950  147.4300 C   0  0  0  0  0  2  0  0  0  0  0  0
  160.8550  202.6490  147.6990 C   0  0  2  0  0  3  0  0  0  0  0  0
  160.8340  203.0120  150.1970 N   0  0  0  0  0  0  0  0  0  0  0  0
  160.8130  203.2940  151.6330 N   0  0  0  0  0  2  0  0  0  0  0  0
  160.7430  204.3370  150.7850 C   0  0  0  0  0  2  0  0  0  0  0  0
  160.8950  202.1130  149.0960 C   0  0  0  0  0  0  0  0  0  0  0  0
  160.9820  200.8750  149.3090 O   0  0  0  0  0  0  0  0  0  0  0  0
  160.8400  201.5610  146.6720 C   0  0  0  0  0  0  0  0  0  0  0  0
  161.3200  200.4320  146.9540 O   0  0  0  0  0  1  0  0  0  0  0  0
  160.3020  201.7820  145.4090 O   0  0  0  0  0  0  0  0  0  0  0  0
  161.3650  212.3810  148.1920 C   0  0  0  0  0  0  0  0  0  0  0  0
  162.8550  213.6040  146.7140 C   0  0  0  0  0  3  0  0  0  0  0  0
  160.7080  212.8310  145.9000 C   0  0  0  0  0  3  0  0  0  0  0  0
  162.1990  214.0630  144.4080 N   0  0  0  0  0  1  0  0  0  0  0  0
  162.5800  213.0460  147.9660 C   0  0  0  0  0  3  0  0  0  0  0  0
  161.9190  213.4960  145.6810 C   0  0  0  0  0  0  0  0  0  0  0  0
  160.4330  212.2740  147.1520 C   0  0  0  0  0  3  0  0  0  0  0  0
  161.0850  212.7130  150.5490 O   0  0  0  0  0  0  0  0  0  0  0  0
  158.8630  213.5720  150.1640 C   0  0  0  0  0  2  0  0  0  0  0  0
  159.7830  212.7630  151.0520 C   0  0  1  0  0  0  0  0  0  0  0  0
  159.7540  213.2390  152.4930 C   0  0  1  0  0  3  0  0  0  0  0  0
  159.4900  214.2260  151.3750 C   0  0  2  0  0  3  0  0  0  0  0  0
  158.7230  211.7450  154.1540 C   0  0  0  0  0  3  0  0  0  0  0  0
  157.8250  214.0050  153.8240 C   0  0  0  0  0  3  0  0  0  0  0  0
  155.3400  210.4630  155.1170 C   0  0  0  0  0  1  0  0  0  0  0  0
  156.6830  213.9470  154.4390 N   0  0  0  0  0  0  0  0  0  0  0  0
  157.7590  211.1540  154.8560 C   0  0  0  0  0  3  0  0  0  0  0  0
  155.8750  212.7770  154.6590 C   0  0  0  0  0  3  0  0  0  0  0  0
  158.4510  212.8220  153.1600 C   0  0  1  0  0  3  0  0  0  0  0  0
  156.3320  211.5250  154.8110 C   0  0  0  0  0  0  0  0  0  0  0  0
  1 30  1  1  0  0  0
  2  7  1  0  0  0  0
  2  3  2  0  0  0  0
  5  6  1  0  0  0  0
  6  7  1  0  0  0  0
  7  4  1  0  0  0  0
  8  5  2  0  0  0  0
  8  9  1  0  0  0  0
  9  1  1  6  0  0  0
  9  2  1  0  0  0  0
 10 11  1  0  0  0  0
 10  5  1  0  0  0  0
 12 13  1  0  0  0  0
 12 11  1  0  0  0  0
 14 13  1  6  0  0  0
 14 18  1  0  0  0  0
 15 17  1  0  0  0  0
 15 16  1  0  0  0  0
 17 16  1  0  0  0  0
 18 19  2  0  0  0  0
 18 15  1  0  0  0  0
 20 21  1  0  0  0  0
 20 14  1  0  0  0  0
 22 20  2  0  0  0  0
 23  1  1  0  0  0  0
 24 27  2  0  0  0  0
 25 29  1  0  0  0  0
 26 28  1  0  0  0  0
 27 23  1  0  0  0  0
 28 25  2  0  0  0  0
 28 24  1  0  0  0  0
 29 23  2  0  0  0  0
 31 32  1  0  0  0  0
 32 30  1  6  0  0  0
 32 34  1  0  0  0  0
 32 33  1  0  0  0  0
 33 41  1  1  0  0  0
 34 31  1  1  0  0  0
 34 33  1  0  0  0  0
 35 39  2  0  0  0  0
 36 38  2  0  0  0  0
 38 40  1  0  0  0  0
 40 42  2  0  0  0  0
 41 36  1  1  0  0  0
 41 35  1  0  0  0  0
 42 39  1  0  0  0  0
 42 37  1  0  0  0  0
M  END
>  <MODEL>
2

>  <REMARK>
 VINA RESULT:      -6.9      3.320      9.692
  Name = 
  12 active torsions:
  status: ('A' for Active; 'I' for Inactive)
    1  A    between atoms: C_3  and  C_8
    2  A    between atoms: C_6  and  C_32
    3  A    between atoms: C_8  and  O_11
    4  A    between atoms: C_8  and  C_39
    5  A    between atoms: O_11  and  C_12
    6  A    between atoms: N_19  and  C_27
    7  A    between atoms: N_19  and  C_29
    8  A    between atoms: C_20  and  C_41
    9  A    between atoms: C_24  and  C_38
   10  A    between atoms: C_27  and  C_32
   11  A    between atoms: C_29  and  C_38
   12  A    between atoms: C_32  and  C_35
                            x       y       z     vdW  Elec       q    Type
                         _______ _______ _______ _____ _____    ______ ____

>  <TORSDO>
F 12

$$$$
=
 OpenBabel11042420043D

 42 47  0  0  1  0  0  0  0  0999 V2000
  161.9240  206.1390  150.8610 C   0  0  2  0  0  3  0  0  0  0  0  0
  161.2100  206.8440  153.2210 C   0  0  0  0  0  0  0  0  0  0  0  0
  161.4300  205.6990  153.7020 O   0  0  0  0  0  0  0  0  0  0  0  0
  161.2620  207.8390  155.5240 C   0  0  0  0  0  1  0  0  0  0  0  0
  160.9860  209.4890  152.1590 C   0  0  0  0  0  0  0  0  0  0  0  0
  160.5310  209.2330  153.5770 C   0  0  0  0  0  2  0  0  0  0  0  0
  161.0710  207.9770  154.0890 N   0  0  0  0  0  0  0  0  0  0  0  0
  161.2100  208.4630  151.3260 C   0  0  0  0  0  3  0  0  0  0  0  0
  161.0200  207.0260  151.7310 C   0  0  1  0  0  3  0  0  0  0  0  0
  161.1730  210.8830  151.6220 C   0  0  0  0  0  2  0  0  0  0  0  0
  162.0660  210.9600  150.3890 C   0  0  0  0  0  2  0  0  0  0  0  0
  161.2940  211.3850  149.2330 N   0  0  0  0  0  2  0  0  0  0  0  0
  161.1700  212.8330  149.3000 C   0  0  0  0  0  2  0  0  0  0  0  0
  161.0610  213.4460  147.9030 C   0  0  2  0  0  3  0  0  0  0  0  0
  158.6610  212.8390  147.4060 N   0  0  0  0  0  0  0  0  0  0  0  0
  157.2500  212.5290  147.1750 N   0  0  0  0  0  2  0  0  0  0  0  0
  157.5650  213.2650  148.2580 C   0  0  0  0  0  2  0  0  0  0  0  0
  160.0360  212.7680  147.0470 C   0  0  0  0  0  0  0  0  0  0  0  0
  160.3770  212.1350  146.0130 O   0  0  0  0  0  0  0  0  0  0  0  0
  162.3880  213.5590  147.2200 C   0  0  0  0  0  0  0  0  0  0  0  0
  162.5630  214.4460  146.3450 O   0  0  0  0  0  0  0  0  0  0  0  0
  163.4290  212.6960  147.5410 O   0  0  0  0  0  1  0  0  0  0  0  0
  161.5610  206.2200  149.4110 C   0  0  0  0  0  0  0  0  0  0  0  0
  159.9140  206.2270  147.6270 C   0  0  0  0  0  3  0  0  0  0  0  0
  162.2640  206.5010  147.1050 C   0  0  0  0  0  3  0  0  0  0  0  0
  160.6150  206.5050  145.3040 N   0  0  0  0  0  1  0  0  0  0  0  0
  160.2270  206.1340  148.9850 C   0  0  0  0  0  3  0  0  0  0  0  0
  160.9330  206.4100  146.6860 C   0  0  0  0  0  0  0  0  0  0  0  0
  162.5770  206.4080  148.4650 C   0  0  0  0  0  3  0  0  0  0  0  0
  161.9560  204.8090  151.3070 O   0  0  0  0  0  0  0  0  0  0  0  0
  159.7820  203.8340  150.9190 C   0  0  0  0  0  2  0  0  0  0  0  0
  161.1780  204.0920  150.3950 C   0  0  1  0  0  0  0  0  0  0  0  0
  161.8670  202.8170  149.9460 C   0  0  1  0  0  3  0  0  0  0  0  0
  160.8370  202.7590  151.0560 C   0  0  2  0  0  3  0  0  0  0  0  0
  161.8070  203.1480  147.5090 C   0  0  0  0  0  3  0  0  0  0  0  0
  161.6020  200.8850  148.4380 C   0  0  0  0  0  3  0  0  0  0  0  0
  159.7000  202.2040  144.5610 C   0  0  0  0  0  1  0  0  0  0  0  0
  161.1870  200.1970  147.4170 N   0  0  0  0  0  0  0  0  0  0  0  0
  161.4210  202.9740  146.2470 C   0  0  0  0  0  3  0  0  0  0  0  0
  160.4320  200.6840  146.2930 C   0  0  0  0  0  3  0  0  0  0  0  0
  161.2720  202.3280  148.6340 C   0  0  1  0  0  3  0  0  0  0  0  0
  160.4970  201.9230  145.7820 C   0  0  0  0  0  0  0  0  0  0  0  0
  1 30  1  1  0  0  0
  2  3  2  0  0  0  0
  2  7  1  0  0  0  0
  5  6  1  0  0  0  0
  6  7  1  0  0  0  0
  7  4  1  0  0  0  0
  8  9  1  0  0  0  0
  8  5  2  0  0  0  0
  9  1  1  6  0  0  0
  9  2  1  0  0  0  0
 10  5  1  0  0  0  0
 11 10  1  0  0  0  0
 12 13  1  0  0  0  0
 12 11  1  0  0  0  0
 14 13  1  1  0  0  0
 15 17  1  0  0  0  0
 16 15  1  0  0  0  0
 16 17  1  0  0  0  0
 18 15  1  0  0  0  0
 18 14  1  0  0  0  0
 19 18  2  0  0  0  0
 20 22  1  0  0  0  0
 20 14  1  0  0  0  0
 21 20  2  0  0  0  0
 23  1  1  0  0  0  0
 24 27  2  0  0  0  0
 25 29  1  0  0  0  0
 26 28  1  0  0  0  0
 27 23  1  0  0  0  0
 28 25  2  0  0  0  0
 28 24  1  0  0  0  0
 29 23  2  0  0  0  0
 32 31  1  0  0  0  0
 32 34  1  0  0  0  0
 32 30  1  1  0  0  0
 33 41  1  6  0  0  0
 33 32  1  0  0  0  0
 33 34  1  0  0  0  0
 34 31  1  6  0  0  0
 36 41  1  0  0  0  0
 37 42  1  0  0  0  0
 38 36  2  0  0  0  0
 39 35  2  0  0  0  0
 40 38  1  0  0  0  0
 41 35  1  6  0  0  0
 42 39  1  0  0  0  0
 42 40  2  0  0  0  0
M  END
>  <MODEL>
3

>  <REMARK>
 VINA RESULT:      -6.8      1.484      2.070
  Name = 
  12 active torsions:
  status: ('A' for Active; 'I' for Inactive)
    1  A    between atoms: C_3  and  C_8
    2  A    between atoms: C_6  and  C_32
    3  A    between atoms: C_8  and  O_11
    4  A    between atoms: C_8  and  C_39
    5  A    between atoms: O_11  and  C_12
    6  A    between atoms: N_19  and  C_27
    7  A    between atoms: N_19  and  C_29
    8  A    between atoms: C_20  and  C_41
    9  A    between atoms: C_24  and  C_38
   10  A    between atoms: C_27  and  C_32
   11  A    between atoms: C_29  and  C_38
   12  A    between atoms: C_32  and  C_35
                            x       y       z     vdW  Elec       q    Type
                         _______ _______ _______ _____ _____    ______ ____

>  <TORSDO>
F 12

$$$$
=
 OpenBabel11042420043D

 42 47  0  0  1  0  0  0  0  0999 V2000
  160.8230  212.0600  149.9330 C   0  0  2  0  0  3  0  0  0  0  0  0
  161.3680  210.1950  151.6070 C   0  0  0  0  0  0  0  0  0  0  0  0
  160.8530  210.8210  152.5740 O   0  0  0  0  0  0  0  0  0  0  0  0
  161.2380  208.0520  152.9050 C   0  0  0  0  0  1  0  0  0  0  0  0
  162.2750  208.6920  149.3510 C   0  0  0  0  0  0  0  0  0  0  0  0
  162.4850  208.1240  150.7360 C   0  0  0  0  0  2  0  0  0  0  0  0
  161.6320  208.7900  151.7170 N   0  0  0  0  0  0  0  0  0  0  0  0
  161.9470  209.9820  149.1920 C   0  0  0  0  0  3  0  0  0  0  0  0
  161.7770  210.9300  150.3500 C   0  0  1  0  0  3  0  0  0  0  0  0
  162.4550  207.8570  148.1120 C   0  0  0  0  0  2  0  0  0  0  0  0
  161.3310  206.8570  147.8650 C   0  0  0  0  0  2  0  0  0  0  0  0
  161.8600  205.5040  147.8160 N   0  0  0  0  0  2  0  0  0  0  0  0
  160.7810  204.6010  148.1880 C   0  0  0  0  0  2  0  0  0  0  0  0
  161.3030  203.4270  149.0170 C   0  0  2  0  0  3  0  0  0  0  0  0
  160.8360  201.9150  147.0490 N   0  0  0  0  0  0  0  0  0  0  0  0
  160.5850  201.0940  145.8640 N   0  0  0  0  0  2  0  0  0  0  0  0
  160.9570  202.3750  145.6770 C   0  0  0  0  0  2  0  0  0  0  0  0
  160.9030  202.0950  148.4590 C   0  0  0  0  0  0  0  0  0  0  0  0
  160.6270  201.1330  149.2230 O   0  0  0  0  0  0  0  0  0  0  0  0
  160.9720  203.5560  150.4710 C   0  0  0  0  0  0  0  0  0  0  0  0
  160.1560  204.4370  150.8470 O   0  0  0  0  0  0  0  0  0  0  0  0
  161.5560  202.7150  151.4110 O   0  0  0  0  0  1  0  0  0  0  0  0
  161.1880  212.6400  148.6020 C   0  0  0  0  0  0  0  0  0  0  0  0
  162.5480  214.1010  147.2200 C   0  0  0  0  0  3  0  0  0  0  0  0
  160.8310  212.7270  146.2040 C   0  0  0  0  0  3  0  0  0  0  0  0
  162.1910  214.1960  144.8060 N   0  0  0  0  0  1  0  0  0  0  0  0
  162.2170  213.5850  148.4760 C   0  0  0  0  0  3  0  0  0  0  0  0
  161.8550  213.6720  146.0830 C   0  0  0  0  0  0  0  0  0  0  0  0
  160.5000  212.2120  147.4610 C   0  0  0  0  0  3  0  0  0  0  0  0
  160.7150  213.0570  150.9150 O   0  0  0  0  0  0  0  0  0  0  0  0
  158.4080  213.5860  150.4460 C   0  0  0  0  0  2  0  0  0  0  0  0
  159.4070  212.9640  151.3970 C   0  0  1  0  0  0  0  0  0  0  0  0
  159.2840  213.5200  152.8040 C   0  0  1  0  0  3  0  0  0  0  0  0
  158.9170  214.3920  151.6200 C   0  0  2  0  0  3  0  0  0  0  0  0
  158.3870  211.7700  154.2800 C   0  0  0  0  0  3  0  0  0  0  0  0
  157.4330  214.0300  154.3500 C   0  0  0  0  0  3  0  0  0  0  0  0
  155.0920  210.2740  155.2460 C   0  0  0  0  0  1  0  0  0  0  0  0
  156.3340  213.8530  155.0180 N   0  0  0  0  0  0  0  0  0  0  0  0
  157.4780  211.0560  154.9430 C   0  0  0  0  0  3  0  0  0  0  0  0
  155.5600  212.6430  155.1090 C   0  0  0  0  0  3  0  0  0  0  0  0
  158.0340  212.9760  153.4790 C   0  0  1  0  0  3  0  0  0  0  0  0
  156.0460  211.3950  155.0420 C   0  0  0  0  0  0  0  0  0  0  0  0
  1 30  1  1  0  0  0
  2  7  1  0  0  0  0
  2  3  2  0  0  0  0
  5  6  1  0  0  0  0
  6  7  1  0  0  0  0
  7  4  1  0  0  0  0
  8  5  2  0  0  0  0
  8  9  1  0  0  0  0
  9  1  1  6  0  0  0
  9  2  1  0  0  0  0
 10  5  1  0  0  0  0
 11 10  1  0  0  0  0
 12 11  1  0  0  0  0
 12 13  1  0  0  0  0
 14 13  1  6  0  0  0
 14 20  1  0  0  0  0
 15 18  1  0  0  0  0
 16 15  1  0  0  0  0
 17 16  1  0  0  0  0
 17 15  1  0  0  0  0
 18 14  1  0  0  0  0
 18 19  2  0  0  0  0
 20 21  2  0  0  0  0
 20 22  1  0  0  0  0
 23  1  1  0  0  0  0
 24 27  2  0  0  0  0
 25 29  1  0  0  0  0
 26 28  1  0  0  0  0
 27 23  1  0  0  0  0
 28 25  2  0  0  0  0
 28 24  1  0  0  0  0
 29 23  2  0  0  0  0
 31 32  1  0  0  0  0
 32 30  1  6  0  0  0
 32 34  1  0  0  0  0
 32 33  1  0  0  0  0
 33 41  1  1  0  0  0
 34 31  1  1  0  0  0
 34 33  1  0  0  0  0
 35 39  2  0  0  0  0
 36 38  2  0  0  0  0
 38 40  1  0  0  0  0
 39 42  1  0  0  0  0
 41 35  1  1  0  0  0
 41 36  1  0  0  0  0
 42 40  2  0  0  0  0
 42 37  1  0  0  0  0
M  END
>  <MODEL>
4

>  <REMARK>
 VINA RESULT:      -6.8      3.057      9.555
  Name = 
  12 active torsions:
  status: ('A' for Active; 'I' for Inactive)
    1  A    between atoms: C_3  and  C_8
    2  A    between atoms: C_6  and  C_32
    3  A    between atoms: C_8  and  O_11
    4  A    between atoms: C_8  and  C_39
    5  A    between atoms: O_11  and  C_12
    6  A    between atoms: N_19  and  C_27
    7  A    between atoms: N_19  and  C_29
    8  A    between atoms: C_20  and  C_41
    9  A    between atoms: C_24  and  C_38
   10  A    between atoms: C_27  and  C_32
   11  A    between atoms: C_29  and  C_38
   12  A    between atoms: C_32  and  C_35
                            x       y       z     vdW  Elec       q    Type
                         _______ _______ _______ _____ _____    ______ ____

>  <TORSDO>
F 12

$$$$
=
 OpenBabel11042420043D

 42 47  0  0  1  0  0  0  0  0999 V2000
  161.8900  206.2460  151.1760 C   0  0  2  0  0  3  0  0  0  0  0  0
  161.0260  206.8440  153.5150 C   0  0  0  0  0  0  0  0  0  0  0  0
  161.2880  205.7000  153.9780 O   0  0  0  0  0  0  0  0  0  0  0  0
  160.9120  207.7760  155.8420 C   0  0  0  0  0  1  0  0  0  0  0  0
  160.7010  209.5010  152.5110 C   0  0  0  0  0  0  0  0  0  0  0  0
  160.1950  209.1800  153.8980 C   0  0  0  0  0  2  0  0  0  0  0  0
  160.7820  207.9430  154.4040 N   0  0  0  0  0  0  0  0  0  0  0  0
  161.0220  208.5120  151.6640 C   0  0  0  0  0  3  0  0  0  0  0  0
  160.8960  207.0560  152.0240 C   0  0  1  0  0  3  0  0  0  0  0  0
  160.8330  210.9170  152.0180 C   0  0  0  0  0  2  0  0  0  0  0  0
  159.5230  211.6980  152.0110 C   0  0  0  0  0  2  0  0  0  0  0  0
  159.7880  213.1270  152.0280 N   0  0  0  0  0  2  0  0  0  0  0  0
  158.6930  213.7630  152.7460 C   0  0  0  0  0  2  0  0  0  0  0  0
  158.3560  213.0020  154.0280 C   0  0  2  0  0  3  0  0  0  0  0  0
  156.4850  212.6000  155.6760 N   0  0  0  0  0  0  0  0  0  0  0  0
  155.4490  212.3330  156.6740 N   0  0  0  0  0  2  0  0  0  0  0  0
  156.6780  211.8280  156.8910 C   0  0  0  0  0  2  0  0  0  0  0  0
  156.9320  213.1820  154.4560 C   0  0  0  0  0  0  0  0  0  0  0  0
  156.1250  213.8410  153.7490 O   0  0  0  0  0  0  0  0  0  0  0  0
  159.3220  213.2840  155.1360 C   0  0  0  0  0  0  0  0  0  0  0  0
  159.3090  214.4080  155.7020 O   0  0  0  0  0  1  0  0  0  0  0  0
  160.2350  212.3200  155.5460 O   0  0  0  0  0  0  0  0  0  0  0  0
  161.5730  206.3210  149.7150 C   0  0  0  0  0  0  0  0  0  0  0  0
  159.9950  206.2180  147.8720 C   0  0  0  0  0  3  0  0  0  0  0  0
  162.3300  206.7000  147.4410 C   0  0  0  0  0  3  0  0  0  0  0  0
  160.7510  206.5950  145.5810 N   0  0  0  0  0  1  0  0  0  0  0  0
  160.2670  206.1290  149.2400 C   0  0  0  0  0  3  0  0  0  0  0  0
  161.0270  206.5040  146.9720 C   0  0  0  0  0  0  0  0  0  0  0  0
  162.6010  206.6100  148.8100 C   0  0  0  0  0  3  0  0  0  0  0  0
  162.0000  204.9150  151.6090 O   0  0  0  0  0  0  0  0  0  0  0  0
  159.8570  203.8560  151.2750 C   0  0  0  0  0  2  0  0  0  0  0  0
  161.2270  204.1690  150.7160 C   0  0  1  0  0  0  0  0  0  0  0  0
  161.9540  202.9220  150.2470 C   0  0  1  0  0  3  0  0  0  0  0  0
  160.9560  202.8240  151.3830 C   0  0  2  0  0  3  0  0  0  0  0  0
  161.8960  203.1870  147.8020 C   0  0  0  0  0  3  0  0  0  0  0  0
  161.6410  200.9570  148.7930 C   0  0  0  0  0  3  0  0  0  0  0  0
  159.7610  202.2130  144.8840 C   0  0  0  0  0  1  0  0  0  0  0  0
  161.2080  200.2510  147.7930 N   0  0  0  0  0  0  0  0  0  0  0  0
  161.5040  202.9880  146.5450 C   0  0  0  0  0  3  0  0  0  0  0  0
  160.4620  200.7240  146.6570 C   0  0  0  0  0  3  0  0  0  0  0  0
  161.3450  202.4120  148.9500 C   0  0  1  0  0  3  0  0  0  0  0  0
  160.5540  201.9460  146.1120 C   0  0  0  0  0  0  0  0  0  0  0  0
  1 30  1  1  0  0  0
  2  3  2  0  0  0  0
  2  7  1  0  0  0  0
  5  6  1  0  0  0  0
  6  7  1  0  0  0  0
  7  4  1  0  0  0  0
  8  9  1  0  0  0  0
  8  5  2  0  0  0  0
  9  1  1  6  0  0  0
  9  2  1  0  0  0  0
 10  5  1  0  0  0  0
 11 10  1  0  0  0  0
 11 12  1  0  0  0  0
 12 13  1  0  0  0  0
 14 13  1  6  0  0  0
 14 18  1  0  0  0  0
 14 20  1  0  0  0  0
 15 16  1  0  0  0  0
 15 17  1  0  0  0  0
 16 17  1  0  0  0  0
 18 15  1  0  0  0  0
 19 18  2  0  0  0  0
 20 22  2  0  0  0  0
 20 21  1  0  0  0  0
 23  1  1  0  0  0  0
 24 27  2  0  0  0  0
 25 29  1  0  0  0  0
 26 28  1  0  0  0  0
 27 23  1  0  0  0  0
 28 25  2  0  0  0  0
 28 24  1  0  0  0  0
 29 23  2  0  0  0  0
 32 31  1  0  0  0  0
 32 34  1  0  0  0  0
 32 30  1  1  0  0  0
 33 41  1  6  0  0  0
 33 32  1  0  0  0  0
 33 34  1  0  0  0  0
 34 31  1  6  0  0  0
 36 41  1  0  0  0  0
 37 42  1  0  0  0  0
 38 36  2  0  0  0  0
 39 35  2  0  0  0  0
 40 38  1  0  0  0  0
 41 35  1  6  0  0  0
 42 39  1  0  0  0  0
 42 40  2  0  0  0  0
M  END
>  <MODEL>
5

>  <REMARK>
 VINA RESULT:      -6.7      3.352      5.077
  Name = 
  12 active torsions:
  status: ('A' for Active; 'I' for Inactive)
    1  A    between atoms: C_3  and  C_8
    2  A    between atoms: C_6  and  C_32
    3  A    between atoms: C_8  and  O_11
    4  A    between atoms: C_8  and  C_39
    5  A    between atoms: O_11  and  C_12
    6  A    between atoms: N_19  and  C_27
    7  A    between atoms: N_19  and  C_29
    8  A    between atoms: C_20  and  C_41
    9  A    between atoms: C_24  and  C_38
   10  A    between atoms: C_27  and  C_32
   11  A    between atoms: C_29  and  C_38
   12  A    between atoms: C_32  and  C_35
                            x       y       z     vdW  Elec       q    Type
                         _______ _______ _______ _____ _____    ______ ____

>  <TORSDO>
F 12

$$$$
=
 OpenBabel11042420043D

 42 47  0  0  1  0  0  0  0  0999 V2000
  161.3000  209.6280  152.7480 C   0  0  2  0  0  3  0  0  0  0  0  0
  161.4990  207.1050  153.1620 C   0  0  0  0  0  0  0  0  0  0  0  0
  161.5840  207.2490  154.4120 O   0  0  0  0  0  0  0  0  0  0  0  0
  160.8920  204.6900  153.4650 C   0  0  0  0  0  1  0  0  0  0  0  0
  161.0300  206.7990  150.3590 C   0  0  0  0  0  0  0  0  0  0  0  0
  161.3810  205.5770  151.1760 C   0  0  0  0  0  2  0  0  0  0  0  0
  161.1910  205.8210  152.6030 N   0  0  0  0  0  0  0  0  0  0  0  0
  161.2220  208.0260  150.8630 C   0  0  0  0  0  3  0  0  0  0  0  0
  161.7910  208.2650  152.2360 C   0  0  1  0  0  3  0  0  0  0  0  0
  160.4930  206.6920  148.9570 C   0  0  0  0  0  2  0  0  0  0  0  0
  161.4660  207.1570  147.8790 C   0  0  0  0  0  2  0  0  0  0  0  0
  162.3290  206.0610  147.4720 N   0  0  0  0  0  2  0  0  0  0  0  0
  161.5840  204.8250  147.6690 C   0  0  0  0  0  2  0  0  0  0  0  0
  161.1690  204.2100  146.3320 C   0  0  2  0  0  3  0  0  0  0  0  0
  160.9340  202.0860  147.6770 N   0  0  0  0  0  0  0  0  0  0  0  0
  160.8010  200.8950  148.5170 N   0  0  0  0  0  2  0  0  0  0  0  0
  160.9820  202.0810  149.1280 C   0  0  0  0  0  2  0  0  0  0  0  0
  160.9760  202.7260  146.4070 C   0  0  0  0  0  0  0  0  0  0  0  0
  160.8510  202.0400  145.3590 O   0  0  0  0  0  0  0  0  0  0  0  0
  162.0740  204.6100  145.2090 C   0  0  0  0  0  0  0  0  0  0  0  0
  161.6240  205.3120  144.2670 O   0  0  0  0  0  0  0  0  0  0  0  0
  163.4060  204.2140  145.1940 O   0  0  0  0  0  1  0  0  0  0  0  0
  161.2060  210.6400  151.6480 C   0  0  0  0  0  0  0  0  0  0  0  0
  160.2500  212.6530  150.6850 C   0  0  0  0  0  3  0  0  0  0  0  0
  161.9930  211.4570  149.5030 C   0  0  0  0  0  3  0  0  0  0  0  0
  161.0350  213.4790  148.5260 N   0  0  0  0  0  1  0  0  0  0  0  0
  160.3070  211.7150  151.7190 C   0  0  0  0  0  3  0  0  0  0  0  0
  161.0930  212.5240  149.5770 C   0  0  0  0  0  0  0  0  0  0  0  0
  162.0500  210.5180  150.5380 C   0  0  0  0  0  3  0  0  0  0  0  0
  162.0720  210.1060  153.8190 O   0  0  0  0  0  0  0  0  0  0  0  0
  161.8720  211.4460  155.8160 C   0  0  0  0  0  2  0  0  0  0  0  0
  161.2210  210.9410  154.5470 C   0  0  1  0  0  0  0  0  0  0  0  0
  159.8790  210.2850  154.8120 C   0  0  1  0  0  3  0  0  0  0  0  0
  160.9540  210.2460  155.8790 C   0  0  2  0  0  3  0  0  0  0  0  0
  157.7680  211.3270  154.0980 C   0  0  0  0  0  3  0  0  0  0  0  0
  158.2510  211.0660  156.4900 C   0  0  0  0  0  3  0  0  0  0  0  0
  155.7430  214.4050  154.7700 C   0  0  0  0  0  1  0  0  0  0  0  0
  157.3590  211.8310  157.0440 N   0  0  0  0  0  0  0  0  0  0  0  0
  156.7450  212.1800  154.1050 C   0  0  0  0  0  3  0  0  0  0  0  0
  156.7310  212.9890  156.4650 C   0  0  0  0  0  3  0  0  0  0  0  0
  158.8330  211.3390  155.1420 C   0  0  1  0  0  3  0  0  0  0  0  0
  156.4830  213.1760  155.1590 C   0  0  0  0  0  0  0  0  0  0  0  0
  1 30  1  1  0  0  0
  2  3  2  0  0  0  0
  5  8  2  0  0  0  0
  5  6  1  0  0  0  0
  6  7  1  0  0  0  0
  7  2  1  0  0  0  0
  7  4  1  0  0  0  0
  8  9  1  0  0  0  0
  9  1  1  1  0  0  0
  9  2  1  0  0  0  0
 10  5  1  0  0  0  0
 11 10  1  0  0  0  0
 12 13  1  0  0  0  0
 12 11  1  0  0  0  0
 14 18  1  0  0  0  0
 14 13  1  1  0  0  0
 15 16  1  0  0  0  0
 15 17  1  0  0  0  0
 16 17  1  0  0  0  0
 18 15  1  0  0  0  0
 19 18  2  0  0  0  0
 20 14  1  0  0  0  0
 21 20  2  0  0  0  0
 22 20  1  0  0  0  0
 23 27  1  0  0  0  0
 23  1  1  0  0  0  0
 24 27  2  0  0  0  0
 25 28  2  0  0  0  0
 25 29  1  0  0  0  0
 26 28  1  0  0  0  0
 28 24  1  0  0  0  0
 29 23  2  0  0  0  0
 32 30  1  6  0  0  0
 32 33  1  0  0  0  0
 32 31  1  0  0  0  0
 32 34  1  0  0  0  0
 33 41  1  1  0  0  0
 33 34  1  0  0  0  0
 34 31  1  1  0  0  0
 35 39  2  0  0  0  0
 36 38  2  0  0  0  0
 37 42  1  0  0  0  0
 39 42  1  0  0  0  0
 40 38  1  0  0  0  0
 41 35  1  6  0  0  0
 41 36  1  0  0  0  0
 42 40  2  0  0  0  0
M  END
>  <MODEL>
6

>  <REMARK>
 VINA RESULT:      -6.6      3.253      9.088
  Name = 
  12 active torsions:
  status: ('A' for Active; 'I' for Inactive)
    1  A    between atoms: C_3  and  C_8
    2  A    between atoms: C_6  and  C_32
    3  A    between atoms: C_8  and  O_11
    4  A    between atoms: C_8  and  C_39
    5  A    between atoms: O_11  and  C_12
    6  A    between atoms: N_19  and  C_27
    7  A    between atoms: N_19  and  C_29
    8  A    between atoms: C_20  and  C_41
    9  A    between atoms: C_24  and  C_38
   10  A    between atoms: C_27  and  C_32
   11  A    between atoms: C_29  and  C_38
   12  A    between atoms: C_32  and  C_35
                            x       y       z     vdW  Elec       q    Type
                         _______ _______ _______ _____ _____    ______ ____

>  <TORSDO>
F 12

$$$$
=
 OpenBabel11042420043D

 42 47  0  0  1  0  0  0  0  0999 V2000
  161.1910  209.7700  153.0260 C   0  0  2  0  0  3  0  0  0  0  0  0
  161.4050  207.2500  153.4500 C   0  0  0  0  0  0  0  0  0  0  0  0
  161.3590  207.3890  154.7040 O   0  0  0  0  0  0  0  0  0  0  0  0
  160.8260  204.8200  153.6840 C   0  0  0  0  0  1  0  0  0  0  0  0
  161.2310  206.9470  150.6140 C   0  0  0  0  0  0  0  0  0  0  0  0
  161.5250  205.7290  151.4580 C   0  0  0  0  0  2  0  0  0  0  0  0
  161.1860  205.9620  152.8600 N   0  0  0  0  0  0  0  0  0  0  0  0
  161.3430  208.1760  151.1380 C   0  0  0  0  0  3  0  0  0  0  0  0
  161.7630  208.4210  152.5630 C   0  0  1  0  0  3  0  0  0  0  0  0
  160.8420  206.8360  149.1640 C   0  0  0  0  0  2  0  0  0  0  0  0
  162.0090  206.9790  148.1930 C   0  0  0  0  0  2  0  0  0  0  0  0
  162.4250  205.6730  147.7090 N   0  0  0  0  0  2  0  0  0  0  0  0
  161.2890  204.7740  147.8530 C   0  0  0  0  0  2  0  0  0  0  0  0
  161.5820  203.4080  147.2310 C   0  0  2  0  0  3  0  0  0  0  0  0
  161.2070  204.4390  144.9570 N   0  0  0  0  0  0  0  0  0  0  0  0
  161.0210  205.0970  143.6630 N   0  0  0  0  0  2  0  0  0  0  0  0
  161.5400  205.8240  144.6720 C   0  0  0  0  0  2  0  0  0  0  0  0
  161.1220  203.3030  145.8100 C   0  0  0  0  0  0  0  0  0  0  0  0
  160.6600  202.2210  145.3610 O   0  0  0  0  0  0  0  0  0  0  0  0
  161.0890  202.2740  148.0740 C   0  0  0  0  0  0  0  0  0  0  0  0
  161.5660  201.1210  147.9070 O   0  0  0  0  0  0  0  0  0  0  0  0
  160.1100  202.4790  149.0390 O   0  0  0  0  0  1  0  0  0  0  0  0
  161.0880  210.7520  151.9000 C   0  0  0  0  0  0  0  0  0  0  0  0
  160.0660  212.6900  150.8550 C   0  0  0  0  0  3  0  0  0  0  0  0
  161.9150  211.5640  149.7680 C   0  0  0  0  0  3  0  0  0  0  0  0
  160.8920  213.5100  148.7080 N   0  0  0  0  0  1  0  0  0  0  0  0
  160.1320  211.7780  151.9120 C   0  0  0  0  0  3  0  0  0  0  0  0
  160.9580  212.5830  149.7830 C   0  0  0  0  0  0  0  0  0  0  0  0
  161.9810  210.6510  150.8260 C   0  0  0  0  0  3  0  0  0  0  0  0
  161.9030  210.3070  154.1100 O   0  0  0  0  0  0  0  0  0  0  0  0
  161.5620  211.6480  156.0880 C   0  0  0  0  0  2  0  0  0  0  0  0
  160.9850  211.1010  154.8010 C   0  0  1  0  0  0  0  0  0  0  0  0
  159.6690  210.3790  155.0230 C   0  0  1  0  0  3  0  0  0  0  0  0
  160.7060  210.4020  156.1280 C   0  0  2  0  0  3  0  0  0  0  0  0
  157.5240  211.2900  154.2370 C   0  0  0  0  0  3  0  0  0  0  0  0
  157.9580  211.0980  156.6440 C   0  0  0  0  0  3  0  0  0  0  0  0
  155.3170  214.2620  154.7990 C   0  0  0  0  0  1  0  0  0  0  0  0
  157.0110  211.8220  157.1610 N   0  0  0  0  0  0  0  0  0  0  0  0
  156.4560  212.0840  154.2010 C   0  0  0  0  0  3  0  0  0  0  0  0
  156.3360  212.9330  156.5450 C   0  0  0  0  0  3  0  0  0  0  0  0
  158.5590  211.3780  155.3060 C   0  0  1  0  0  3  0  0  0  0  0  0
  156.1120  213.0830  155.2300 C   0  0  0  0  0  0  0  0  0  0  0  0
  1 30  1  1  0  0  0
  2  3  2  0  0  0  0
  5  8  2  0  0  0  0
  5  6  1  0  0  0  0
  6  7  1  0  0  0  0
  7  2  1  0  0  0  0
  7  4  1  0  0  0  0
  8  9  1  0  0  0  0
  9  1  1  1  0  0  0
  9  2  1  0  0  0  0
 10  5  1  0  0  0  0
 11 10  1  0  0  0  0
 12 13  1  0  0  0  0
 12 11  1  0  0  0  0
 14 13  1  1  0  0  0
 14 20  1  0  0  0  0
 15 18  1  0  0  0  0
 16 17  1  0  0  0  0
 16 15  1  0  0  0  0
 17 15  1  0  0  0  0
 18 14  1  0  0  0  0
 19 18  2  0  0  0  0
 20 22  1  0  0  0  0
 21 20  2  0  0  0  0
 23 27  1  0  0  0  0
 23  1  1  0  0  0  0
 24 27  2  0  0  0  0
 25 28  2  0  0  0  0
 25 29  1  0  0  0  0
 26 28  1  0  0  0  0
 28 24  1  0  0  0  0
 29 23  2  0  0  0  0
 32 30  1  6  0  0  0
 32 33  1  0  0  0  0
 32 31  1  0  0  0  0
 32 34  1  0  0  0  0
 33 41  1  1  0  0  0
 33 34  1  0  0  0  0
 34 31  1  1  0  0  0
 36 38  2  0  0  0  0
 37 42  1  0  0  0  0
 39 35  2  0  0  0  0
 39 42  1  0  0  0  0
 40 38  1  0  0  0  0
 41 35  1  6  0  0  0
 41 36  1  0  0  0  0
 42 40  2  0  0  0  0
M  END
>  <MODEL>
7

>  <REMARK>
 VINA RESULT:      -6.2      3.182      8.991
  Name = 
  12 active torsions:
  status: ('A' for Active; 'I' for Inactive)
    1  A    between atoms: C_3  and  C_8
    2  A    between atoms: C_6  and  C_32
    3  A    between atoms: C_8  and  O_11
    4  A    between atoms: C_8  and  C_39
    5  A    between atoms: O_11  and  C_12
    6  A    between atoms: N_19  and  C_27
    7  A    between atoms: N_19  and  C_29
    8  A    between atoms: C_20  and  C_41
    9  A    between atoms: C_24  and  C_38
   10  A    between atoms: C_27  and  C_32
   11  A    between atoms: C_29  and  C_38
   12  A    between atoms: C_32  and  C_35
                            x       y       z     vdW  Elec       q    Type
                         _______ _______ _______ _____ _____    ______ ____

>  <TORSDO>
F 12

$$$$
=
 OpenBabel11042420043D

 42 47  0  0  1  0  0  0  0  0999 V2000
  158.6300  212.6650  152.9820 C   0  0  2  0  0  3  0  0  0  0  0  0
  160.3820  211.9620  154.7190 C   0  0  0  0  0  0  0  0  0  0  0  0
  160.1130  212.9310  155.4810 O   0  0  0  0  0  0  0  0  0  0  0  0
  161.5010  210.7610  156.6160 C   0  0  0  0  0  1  0  0  0  0  0  0
  160.7730  209.6350  153.1070 C   0  0  0  0  0  0  0  0  0  0  0  0
  161.6890  209.8650  154.2860 C   0  0  0  0  0  2  0  0  0  0  0  0
  161.1230  210.8390  155.2150 N   0  0  0  0  0  0  0  0  0  0  0  0
  159.9970  210.6280  152.6500 C   0  0  0  0  0  3  0  0  0  0  0  0
  159.9910  212.0050  153.2590 C   0  0  1  0  0  3  0  0  0  0  0  0
  160.7190  208.3140  152.3860 C   0  0  0  0  0  2  0  0  0  0  0  0
  160.8810  208.4230  150.8740 C   0  0  0  0  0  2  0  0  0  0  0  0
  161.8980  207.4960  150.4070 N   0  0  0  0  0  2  0  0  0  0  0  0
  161.2570  206.5820  149.4720 C   0  0  0  0  0  2  0  0  0  0  0  0
  161.7700  205.1530  149.6560 C   0  0  2  0  0  3  0  0  0  0  0  0
  161.5190  204.7240  147.1800 N   0  0  0  0  0  0  0  0  0  0  0  0
  161.4010  204.5420  145.7330 N   0  0  0  0  0  2  0  0  0  0  0  0
  161.8370  205.7330  146.1860 C   0  0  0  0  0  2  0  0  0  0  0  0
  161.4040  204.2510  148.5170 C   0  0  0  0  0  0  0  0  0  0  0  0
  160.9970  203.0790  148.7300 O   0  0  0  0  0  0  0  0  0  0  0  0
  161.3940  204.5730  150.9840 C   0  0  0  0  0  0  0  0  0  0  0  0
  162.2300  203.8800  151.6190 O   0  0  0  0  0  1  0  0  0  0  0  0
  160.1320  204.7920  151.5230 O   0  0  0  0  0  0  0  0  0  0  0  0
  157.6490  212.4080  154.0830 C   0  0  0  0  0  0  0  0  0  0  0  0
  156.5320  210.9080  155.6320 C   0  0  0  0  0  3  0  0  0  0  0  0
  156.0260  213.2760  155.6650 C   0  0  0  0  0  3  0  0  0  0  0  0
  154.8950  211.7750  157.2230 N   0  0  0  0  0  1  0  0  0  0  0  0
  157.4440  211.1180  154.5940 C   0  0  0  0  0  3  0  0  0  0  0  0
  155.8230  211.9870  156.1670 C   0  0  0  0  0  0  0  0  0  0  0  0
  156.9380  213.4860  154.6260 C   0  0  0  0  0  3  0  0  0  0  0  0
  158.1050  212.3000  151.7330 O   0  0  0  0  0  0  0  0  0  0  0  0
  159.1560  214.4420  151.3640 C   0  0  0  0  0  2  0  0  0  0  0  0
  158.7850  213.0880  150.8000 C   0  0  1  0  0  0  0  0  0  0  0  0
  158.0220  213.2000  149.4930 C   0  0  1  0  0  3  0  0  0  0  0  0
  157.9060  214.3040  150.5240 C   0  0  2  0  0  3  0  0  0  0  0  0
  159.9970  212.5590  148.1750 C   0  0  0  0  0  3  0  0  0  0  0  0
  158.1770  213.8160  147.1120 C   0  0  0  0  0  3  0  0  0  0  0  0
  162.5100  214.1130  145.8750 C   0  0  0  0  0  1  0  0  0  0  0  0
  158.7180  214.2090  145.9990 N   0  0  0  0  0  0  0  0  0  0  0  0
  160.9810  212.6740  147.2860 C   0  0  0  0  0  3  0  0  0  0  0  0
  160.1170  214.4380  145.7490 C   0  0  0  0  0  3  0  0  0  0  0  0
  158.9590  213.6110  148.3680 C   0  0  1  0  0  3  0  0  0  0  0  0
  161.1350  213.7920  146.3360 C   0  0  0  0  0  0  0  0  0  0  0  0
  1 30  1  6  0  0  0
  1 23  1  0  0  0  0
  2  7  1  0  0  0  0
  2  3  2  0  0  0  0
  5  6  1  0  0  0  0
  6  7  1  0  0  0  0
  7  4  1  0  0  0  0
  8  5  2  0  0  0  0
  8  9  1  0  0  0  0
  9  1  1  1  0  0  0
  9  2  1  0  0  0  0
 10  5  1  0  0  0  0
 11 10  1  0  0  0  0
 12 11  1  0  0  0  0
 13 12  1  0  0  0  0
 14 13  1  6  0  0  0
 14 20  1  0  0  0  0
 15 18  1  0  0  0  0
 16 17  1  0  0  0  0
 16 15  1  0  0  0  0
 17 15  1  0  0  0  0
 18 19  2  0  0  0  0
 18 14  1  0  0  0  0
 20 22  2  0  0  0  0
 20 21  1  0  0  0  0
 23 27  2  0  0  0  0
 23 29  1  0  0  0  0
 24 28  2  0  0  0  0
 25 28  1  0  0  0  0
 27 24  1  0  0  0  0
 28 26  1  0  0  0  0
 29 25  2  0  0  0  0
 32 31  1  0  0  0  0
 32 30  1  1  0  0  0
 33 41  1  6  0  0  0
 33 34  1  0  0  0  0
 33 32  1  0  0  0  0
 34 32  1  0  0  0  0
 34 31  1  6  0  0  0
 35 41  1  0  0  0  0
 37 42  1  0  0  0  0
 38 36  2  0  0  0  0
 39 35  2  0  0  0  0
 40 38  1  0  0  0  0
 40 42  2  0  0  0  0
 41 36  1  6  0  0  0
 42 39  1  0  0  0  0
M  END
>  <MODEL>
8

>  <REMARK>
 VINA RESULT:      -5.8      3.316      9.276
  Name = 
  12 active torsions:
  status: ('A' for Active; 'I' for Inactive)
    1  A    between atoms: C_3  and  C_8
    2  A    between atoms: C_6  and  C_32
    3  A    between atoms: C_8  and  O_11
    4  A    between atoms: C_8  and  C_39
    5  A    between atoms: O_11  and  C_12
    6  A    between atoms: N_19  and  C_27
    7  A    between atoms: N_19  and  C_29
    8  A    between atoms: C_20  and  C_41
    9  A    between atoms: C_24  and  C_38
   10  A    between atoms: C_27  and  C_32
   11  A    between atoms: C_29  and  C_38
   12  A    between atoms: C_32  and  C_35
                            x       y       z     vdW  Elec       q    Type
                         _______ _______ _______ _____ _____    ______ ____

>  <TORSDO>
F 12

$$$$
=
 OpenBabel11042420043D

 42 47  0  0  1  0  0  0  0  0999 V2000
  161.4700  208.3030  150.6980 C   0  0  2  0  0  3  0  0  0  0  0  0
  161.2010  207.7050  153.1780 C   0  0  0  0  0  0  0  0  0  0  0  0
  161.0330  208.9080  153.5190 O   0  0  0  0  0  0  0  0  0  0  0  0
  160.1930  206.9360  155.3430 C   0  0  0  0  0  1  0  0  0  0  0  0
  161.3090  204.9750  152.3380 C   0  0  0  0  0  0  0  0  0  0  0  0
  161.2900  205.2810  153.8180 C   0  0  0  0  0  2  0  0  0  0  0  0
  160.8350  206.6450  154.0710 N   0  0  0  0  0  0  0  0  0  0  0  0
  161.5660  205.9460  151.4500 C   0  0  0  0  0  3  0  0  0  0  0  0
  161.8540  207.3680  151.8560 C   0  0  1  0  0  3  0  0  0  0  0  0
  161.0780  203.5850  151.8090 C   0  0  0  0  0  2  0  0  0  0  0  0
  160.2360  203.5340  150.5390 C   0  0  0  0  0  2  0  0  0  0  0  0
  160.5530  202.3410  149.7720 N   0  0  0  0  0  2  0  0  0  0  0  0
  161.0630  202.7780  148.4800 C   0  0  0  0  0  2  0  0  0  0  0  0
  160.6870  201.7920  147.3740 C   0  0  2  0  0  3  0  0  0  0  0  0
  161.2960  199.5190  146.4590 N   0  0  0  0  0  0  0  0  0  0  0  0
  161.6160  198.2200  145.8660 N   0  0  0  0  0  2  0  0  0  0  0  0
  160.8770  199.0800  145.1390 C   0  0  0  0  0  2  0  0  0  0  0  0
  161.3620  200.4630  147.5210 C   0  0  0  0  0  0  0  0  0  0  0  0
  161.9890  200.1730  148.5740 O   0  0  0  0  0  0  0  0  0  0  0  0
  160.8610  202.3700  146.0040 C   0  0  0  0  0  0  0  0  0  0  0  0
  159.9320  202.2660  145.1620 O   0  0  0  0  0  0  0  0  0  0  0  0
  162.0380  203.0190  145.6510 O   0  0  0  0  0  1  0  0  0  0  0  0
  161.4960  207.5990  149.3770 C   0  0  0  0  0  0  0  0  0  0  0  0
  160.4400  206.2230  147.6780 C   0  0  0  0  0  3  0  0  0  0  0  0
  162.6830  207.0690  147.3280 C   0  0  0  0  0  3  0  0  0  0  0  0
  161.6300  205.6830  145.6150 N   0  0  0  0  0  1  0  0  0  0  0  0
  160.3950  206.8580  148.9220 C   0  0  0  0  0  3  0  0  0  0  0  0
  161.5840  206.3280  146.8810 C   0  0  0  0  0  0  0  0  0  0  0  0
  162.6380  207.7040  148.5730 C   0  0  0  0  0  3  0  0  0  0  0  0
  162.2510  209.4690  150.6730 O   0  0  0  0  0  0  0  0  0  0  0  0
  162.0120  210.8280  148.6930 C   0  0  0  0  0  2  0  0  0  0  0  0
  161.4590  210.4330  150.0450 C   0  0  1  0  0  0  0  0  0  0  0  0
  161.2170  211.6350  150.9400 C   0  0  1  0  0  3  0  0  0  0  0  0
  162.3190  211.6860  149.9010 C   0  0  2  0  0  3  0  0  0  0  0  0
  159.1580  212.7830  151.6420 C   0  0  0  0  0  3  0  0  0  0  0  0
  160.4300  213.6270  149.7200 C   0  0  0  0  0  3  0  0  0  0  0  0
  155.9560  214.0400  150.1650 C   0  0  0  0  0  1  0  0  0  0  0  0
  159.5940  214.4530  149.1690 N   0  0  0  0  0  0  0  0  0  0  0  0
  158.0000  213.4280  151.5230 C   0  0  0  0  0  3  0  0  0  0  0  0
  158.1570  214.4040  149.2320 C   0  0  0  0  0  3  0  0  0  0  0  0
  159.9960  212.4080  150.4670 C   0  0  1  0  0  3  0  0  0  0  0  0
  157.4340  213.9200  150.2530 C   0  0  0  0  0  0  0  0  0  0  0  0
  1 30  1  6  0  0  0
  2  3  2  0  0  0  0
  2  7  1  0  0  0  0
  5  6  1  0  0  0  0
  6  7  1  0  0  0  0
  7  4  1  0  0  0  0
  8  9  1  0  0  0  0
  8  5  2  0  0  0  0
  9  1  1  6  0  0  0
  9  2  1  0  0  0  0
 10  5  1  0  0  0  0
 11 10  1  0  0  0  0
 12 11  1  0  0  0  0
 13 12  1  0  0  0  0
 14 18  1  0  0  0  0
 14 13  1  1  0  0  0
 15 18  1  0  0  0  0
 16 15  1  0  0  0  0
 17 16  1  0  0  0  0
 17 15  1  0  0  0  0
 18 19  2  0  0  0  0
 20 14  1  0  0  0  0
 21 20  2  0  0  0  0
 22 20  1  0  0  0  0
 23  1  1  0  0  0  0
 24 27  2  0  0  0  0
 25 29  1  0  0  0  0
 26 28  1  0  0  0  0
 27 23  1  0  0  0  0
 28 25  2  0  0  0  0
 28 24  1  0  0  0  0
 29 23  2  0  0  0  0
 31 32  1  0  0  0  0
 32 30  1  1  0  0  0
 32 33  1  0  0  0  0
 33 41  1  6  0  0  0
 34 31  1  6  0  0  0
 34 32  1  0  0  0  0
 34 33  1  0  0  0  0
 37 42  1  0  0  0  0
 38 40  1  0  0  0  0
 38 36  2  0  0  0  0
 39 35  2  0  0  0  0
 40 42  2  0  0  0  0
 41 36  1  1  0  0  0
 41 35  1  0  0  0  0
 42 39  1  0  0  0  0
M  END
>  <MODEL>
9

>  <REMARK>
 VINA RESULT:      -5.6      2.714      9.032
  Name = 
  12 active torsions:
  status: ('A' for Active; 'I' for Inactive)
    1  A    between atoms: C_3  and  C_8
    2  A    between atoms: C_6  and  C_32
    3  A    between atoms: C_8  and  O_11
    4  A    between atoms: C_8  and  C_39
    5  A    between atoms: O_11  and  C_12
    6  A    between atoms: N_19  and  C_27
    7  A    between atoms: N_19  and  C_29
    8  A    between atoms: C_20  and  C_41
    9  A    between atoms: C_24  and  C_38
   10  A    between atoms: C_27  and  C_32
   11  A    between atoms: C_29  and  C_38
   12  A    between atoms: C_32  and  C_35
                            x       y       z     vdW  Elec       q    Type
                         _______ _______ _______ _____ _____    ______ ____

>  <TORSDO>
F 12

$$$$
