=
 OpenBabel11052410283D

 61 65  0  0  1  0  0  0  0  0999 V2000
  162.1860  209.8740  148.7640 C   0  0  2  0  0  3  0  0  0  0  0  0
  162.1120  210.2850  150.3030 C   0  0  2  0  0  3  0  0  0  0  0  0
  162.6480  209.2080  151.1780 C   0  0  0  0  0  3  0  0  0  0  0  0
  161.8530  208.5120  151.8620 O   0  0  0  0  0  0  0  0  0  0  0  0
  160.8850  210.9630  150.8300 C   0  0  0  0  0  2  0  0  0  0  0  0
  161.0510  211.3930  152.1340 F   0  0  0  0  0  0  0  0  0  0  0  0
  161.1860  210.3780  147.7350 C   0  0  0  0  0  2  0  0  0  0  0  0
  161.1650  211.9520  147.6320 C   0  0  2  0  0  3  0  0  0  0  0  0
  159.9130  212.6350  147.2390 C   0  0  2  0  0  3  0  0  0  0  0  0
  160.8330  213.3710  146.3290 C   0  0  1  0  0  3  0  0  0  0  0  0
  161.8550  212.4710  146.5690 O   0  0  0  0  0  0  0  0  0  0  0  0
  158.9520  213.7310  145.0120 O   0  0  0  0  0  1  0  0  0  0  0  0
  160.1530  213.0960  144.9240 C   0  0  1  0  0  3  0  0  0  0  0  0
  160.9520  213.5630  143.8240 C   0  0  0  0  0  2  0  0  0  0  0  0
  162.8460  213.6500  141.6110 C   0  0  0  0  0  2  0  0  0  0  0  0
  163.1160  213.5880  143.0850 C   0  0  0  0  0  2  0  0  0  0  0  0
  161.7810  212.5910  141.9160 C   0  0  2  0  0  3  0  0  0  0  0  0
  162.0160  212.6180  143.3930 N   0  0  0  0  0  0  0  0  0  0  0  0
  162.1300  211.3390  141.2200 O   0  0  0  0  0  0  0  0  0  0  0  0
  161.2580  208.4940  139.0260 C   0  0  0  0  0  3  0  0  0  0  0  0
  161.4130  210.4970  140.3920 C   0  0  0  0  0  0  0  0  0  0  0  0
  160.1770  210.9260  139.8220 C   0  0  0  0  0  3  0  0  0  0  0  0
  159.4950  210.0990  138.9250 C   0  0  0  0  0  0  0  0  0  0  0  0
  160.0360  208.8720  138.5160 C   0  0  0  0  0  3  0  0  0  0  0  0
  161.9170  209.2700  139.8960 C   0  0  0  0  0  3  0  0  0  0  0  0
  158.1600  210.9550  137.2150 O   0  0  0  0  0  0  0  0  0  0  0  0
  158.2570  210.5890  138.4090 C   0  0  0  0  0  0  0  0  0  0  0  0
  157.1880  210.6340  139.2740 O   0  0  0  0  0  1  0  0  0  0  0  0
  159.1260  213.6260  148.1790 C   0  0  1  0  0  3  0  0  0  0  0  0
  156.8080  213.2030  149.2600 C   0  0  0  0  0  1  0  0  0  0  0  0
  157.6110  213.6960  148.1210 C   0  0  0  0  0  2  0  0  0  0  0  0
  160.7020  214.4500  149.5620 C   0  0  0  0  0  1  0  0  0  0  0  0
  159.5530  213.6370  149.4770 O   0  0  0  0  0  0  0  0  0  0  0  0
  162.5150  208.4480  148.5690 N   0  0  0  0  0  2  0  0  0  0  0  0
  160.6430  204.6160  146.5220 C   0  0  0  0  0  3  0  0  0  0  0  0
  161.2550  207.7900  148.1630 C   0  0  2  0  0  3  0  0  0  0  0  0
  160.7460  204.1930  144.1030 F   0  0  0  0  0  0  0  0  0  0  0  0
  161.0020  204.9490  145.1970 C   0  0  0  0  0  0  0  0  0  0  0  0
  160.5240  205.5740  148.9940 C   0  0  2  0  0  3  0  0  0  0  0  0
  161.9520  207.0320  145.9450 C   0  0  0  0  0  3  0  0  0  0  0  0
  160.9240  205.5340  147.5480 C   0  0  0  0  0  0  0  0  0  0  0  0
  161.6950  206.1420  144.9470 C   0  0  0  0  0  3  0  0  0  0  0  0
  160.5650  207.0720  149.3280 C   0  0  0  0  0  2  0  0  0  0  0  0
  161.5370  206.7110  147.2020 C   0  0  0  0  0  0  0  0  0  0  0  0
  161.9980  203.7000  149.4140 O   0  0  0  0  0  0  0  0  0  0  0  0
  161.4670  204.7160  149.8710 C   0  0  0  0  0  0  0  0  0  0  0  0
  161.8080  205.0620  151.2970 C   0  0  0  0  0  2  0  0  0  0  0  0
  160.9820  204.9550  153.5460 N   0  0  0  0  0  0  0  0  0  0  0  0
  160.9890  204.4190  152.3530 C   0  0  0  0  0  0  0  0  0  0  0  0
  162.8730  206.3690  153.9310 O   0  0  0  0  0  0  0  0  0  0  0  0
  161.5830  206.1140  154.0350 C   0  0  0  0  0  0  0  0  0  0  0  0
  158.6670  208.8520  155.7730 C   0  0  0  0  0  1  0  0  0  0  0  0
  160.7190  210.1750  156.4010 C   0  0  0  0  0  1  0  0  0  0  0  0
  161.0460  207.9220  155.5310 C   0  0  0  0  0  3  0  0  0  0  0  0
  160.1160  208.9500  155.9400 N   0  0  0  0  0  0  0  0  0  0  0  0
  160.7050  207.0280  154.7160 N   0  0  0  0  0  0  0  0  0  0  0  0
  160.4640  203.0170  152.1400 C   0  0  0  0  0  2  0  0  0  0  0  0
  161.2180  202.1180  151.2360 N   0  0  0  0  0  0  0  0  0  0  0  0
  162.1650  201.4000  152.0870 C   0  0  0  0  0  1  0  0  0  0  0  0
  159.6740  201.4250  149.5450 C   0  0  0  0  0  1  0  0  0  0  0  0
  160.3910  200.9900  150.8100 C   0  0  0  0  0  2  0  0  0  0  0  0
  1  7  1  1  0  0  0
  1  2  1  0  0  0  0
  2  5  1  1  0  0  0
  2  3  1  0  0  0  0
  3  4  2  0  0  0  0
  5  6  1  0  0  0  0
  8  7  1  6  0  0  0
  9  8  1  0  0  0  0
  9 29  1  1  0  0  0
 10 13  1  6  0  0  0
 10 11  1  0  0  0  0
 10  9  1  0  0  0  0
 11  8  1  0  0  0  0
 13 12  1  1  0  0  0
 14 13  1  0  0  0  0
 15 17  1  0  0  0  0
 15 16  1  0  0  0  0
 16 18  1  0  0  0  0
 17 19  1  6  0  0  0
 17 18  1  0  0  0  0
 18 14  1  0  0  0  0
 20 25  1  0  0  0  0
 21 19  1  0  0  0  0
 22 21  1  0  0  0  0
 23 22  2  0  0  0  0
 24 23  1  0  0  0  0
 24 20  2  0  0  0  0
 25 21  2  0  0  0  0
 26 27  2  0  0  0  0
 27 23  1  0  0  0  0
 27 28  1  0  0  0  0
 29 31  1  1  0  0  0
 29 33  1  0  0  0  0
 31 30  1  0  0  0  0
 33 32  1  0  0  0  0
 34  1  1  0  0  0  0
 35 41  1  0  0  0  0
 36 34  1  1  0  0  0
 36 43  1  0  0  0  0
 37 38  1  0  0  0  0
 38 35  2  0  0  0  0
 39 43  1  0  0  0  0
 39 46  1  1  0  0  0
 40 44  1  0  0  0  0
 41 39  1  0  0  0  0
 42 38  1  0  0  0  0
 42 40  2  0  0  0  0
 44 41  2  0  0  0  0
 44 36  1  0  0  0  0
 45 46  2  0  0  0  0
 46 47  1  0  0  0  0
 47 49  1  0  0  0  0
 48 51  1  0  0  0  0
 49 48  2  0  0  0  0
 50 51  2  0  0  0  0
 51 56  1  0  0  0  0
 52 55  1  0  0  0  0
 54 55  1  0  0  0  0
 55 53  1  0  0  0  0
 56 54  2  0  0  0  0
 57 49  1  0  0  0  0
 58 59  1  0  0  0  0
 58 57  1  0  0  0  0
 60 61  1  0  0  0  0
 61 58  1  0  0  0  0
M  END
>  <MODEL>
1

>  <REMARK>
 VINA RESULT:      -2.8      0.000      0.000
  Name = 
  24 active torsions:
  status: ('A' for Active; 'I' for Inactive)
    1  A    between atoms: O_1  and  C_12
    2  A    between atoms: O_1  and  C_50
    3  A    between atoms: C_4  and  N_38
    4  A    between atoms: C_5  and  C_7
    5  A    between atoms: C_5  and  C_58
    6  A    between atoms: C_9  and  C_13
    7  A    between atoms: N_11  and  C_59
    8  A    between atoms: C_13  and  C_48
    9  A    between atoms: C_13  and  C_58
   10  A    between atoms: C_18  and  C_61
   11  A    between atoms: C_23  and  C_27
   12  A    between atoms: C_23  and  C_30
   13  A    between atoms: C_26  and  C_35
   14  A    between atoms: C_26  and  C_47
   15  A    between atoms: C_28  and  C_60
   16  A    between atoms: C_30  and  N_55
   17  A    between atoms: N_33  and  C_37
   18  A    between atoms: N_33  and  C_47
   19  A    between atoms: C_35  and  C_60
   20  A    between atoms: N_38  and  C_58
   21  A    between atoms: O_40  and  C_61
   22  A    between atoms: C_43  and  C_51
   23  A    between atoms: N_45  and  C_59
   24  A    between atoms: C_46  and  C_61
                            x       y       z     vdW  Elec       q    Type
                         _______ _______ _______ _____ _____    ______ ____

>  <TORSDO>
F 24

$$$$
=
 OpenBabel11052410283D

 61 65  0  0  1  0  0  0  0  0999 V2000
  161.1990  210.7740  150.4290 C   0  0  2  0  0  3  0  0  0  0  0  0
  162.2090  210.4330  149.2420 C   0  0  2  0  0  3  0  0  0  0  0  0
  162.6080  211.6600  148.5010 C   0  0  0  0  0  3  0  0  0  0  0  0
  162.1520  211.8630  147.3460 O   0  0  0  0  0  0  0  0  0  0  0  0
  161.9560  209.2370  148.3760 C   0  0  0  0  0  2  0  0  0  0  0  0
  162.4750  208.0800  148.9280 F   0  0  0  0  0  0  0  0  0  0  0  0
  161.4730  211.8740  151.4420 C   0  0  0  0  0  2  0  0  0  0  0  0
  160.3360  212.9690  151.4690 C   0  0  2  0  0  3  0  0  0  0  0  0
  159.2460  212.9030  150.4720 C   0  0  2  0  0  3  0  0  0  0  0  0
  159.5530  214.3530  150.3340 C   0  0  1  0  0  3  0  0  0  0  0  0
  160.7240  214.2150  151.0560 O   0  0  0  0  0  0  0  0  0  0  0  0
  161.2060  214.3440  148.7010 O   0  0  0  0  0  1  0  0  0  0  0  0
  159.8520  214.4530  148.7800 C   0  0  1  0  0  3  0  0  0  0  0  0
  159.1650  213.4440  148.0210 C   0  0  0  0  0  2  0  0  0  0  0  0
  157.2940  212.1820  146.1760 C   0  0  0  0  0  2  0  0  0  0  0  0
  157.1020  213.3990  147.0330 C   0  0  0  0  0  2  0  0  0  0  0  0
  158.6650  212.7990  145.8750 C   0  0  2  0  0  3  0  0  0  0  0  0
  158.4750  213.9540  146.8050 N   0  0  0  0  0  0  0  0  0  0  0  0
  158.7450  213.1200  144.4380 O   0  0  0  0  0  0  0  0  0  0  0  0
  161.7510  212.0400  142.5780 C   0  0  0  0  0  3  0  0  0  0  0  0
  159.5600  212.6640  143.4200 C   0  0  0  0  0  0  0  0  0  0  0  0
  159.0820  212.6230  142.0760 C   0  0  0  0  0  3  0  0  0  0  0  0
  159.9360  212.2330  141.0410 C   0  0  0  0  0  0  0  0  0  0  0  0
  161.2850  211.9390  141.2860 C   0  0  0  0  0  3  0  0  0  0  0  0
  160.9420  212.4010  143.5810 C   0  0  0  0  0  3  0  0  0  0  0  0
  160.0910  211.9010  138.7380 O   0  0  0  0  0  0  0  0  0  0  0  0
  159.3820  212.2010  139.7250 C   0  0  0  0  0  0  0  0  0  0  0  0
  158.0460  212.5060  139.5970 O   0  0  0  0  0  1  0  0  0  0  0  0
  157.7320  212.6740  150.8460 C   0  0  1  0  0  3  0  0  0  0  0  0
  158.2450  213.1240  153.3470 C   0  0  0  0  0  1  0  0  0  0  0  0
  157.2600  212.8600  152.2770 C   0  0  0  0  0  2  0  0  0  0  0  0
  156.0250  214.1340  150.6900 C   0  0  0  0  0  1  0  0  0  0  0  0
  156.8400  213.2340  149.9750 O   0  0  0  0  0  0  0  0  0  0  0  0
  160.6300  209.5660  151.0590 N   0  0  0  0  0  2  0  0  0  0  0  0
  160.8390  207.3650  155.2410 C   0  0  0  0  0  3  0  0  0  0  0  0
  161.4870  209.2710  152.2260 C   0  0  2  0  0  3  0  0  0  0  0  0
  159.6980  208.1870  157.2560 F   0  0  0  0  0  0  0  0  0  0  0  0
  160.0370  208.2870  155.9490 C   0  0  0  0  0  0  0  0  0  0  0  0
  162.1070  206.9820  152.9410 C   0  0  2  0  0  3  0  0  0  0  0  0
  159.8370  209.6670  153.9860 C   0  0  0  0  0  3  0  0  0  0  0  0
  161.1570  207.6370  153.8990 C   0  0  0  0  0  0  0  0  0  0  0  0
  159.5140  209.4030  155.2820 C   0  0  0  0  0  3  0  0  0  0  0  0
  162.4580  208.1140  151.9640 C   0  0  0  0  0  2  0  0  0  0  0  0
  160.6640  208.7920  153.3480 C   0  0  0  0  0  0  0  0  0  0  0  0
  160.3950  205.2930  152.6610 O   0  0  0  0  0  0  0  0  0  0  0  0
  161.4690  205.7480  152.2580 C   0  0  0  0  0  0  0  0  0  0  0  0
  162.0870  205.0490  151.0760 C   0  0  0  0  0  2  0  0  0  0  0  0
  160.7130  204.1820  149.3120 N   0  0  0  0  0  0  0  0  0  0  0  0
  161.2970  203.9550  150.4600 C   0  0  0  0  0  0  0  0  0  0  0  0
  160.1110  206.4260  148.7460 O   0  0  0  0  0  0  0  0  0  0  0  0
  160.7350  205.2960  148.4750 C   0  0  0  0  0  0  0  0  0  0  0  0
  163.2610  204.9760  144.9340 C   0  0  0  0  0  1  0  0  0  0  0  0
  161.1830  205.7580  143.7400 C   0  0  0  0  0  1  0  0  0  0  0  0
  160.9720  205.1300  146.0850 C   0  0  0  0  0  3  0  0  0  0  0  0
  161.8210  205.2320  144.9200 N   0  0  0  0  0  0  0  0  0  0  0  0
  161.4600  205.1330  147.2440 N   0  0  0  0  0  0  0  0  0  0  0  0
  160.9090  202.7540  151.2930 C   0  0  0  0  0  2  0  0  0  0  0  0
  160.4880  201.5210  150.5870 N   0  0  0  0  0  0  0  0  0  0  0  0
  159.6210  201.9630  149.4970 C   0  0  0  0  0  1  0  0  0  0  0  0
  161.1110  200.9200  148.3560 C   0  0  0  0  0  1  0  0  0  0  0  0
  161.5890  200.9710  149.7950 C   0  0  0  0  0  2  0  0  0  0  0  0
  1 34  1  0  0  0  0
  1  7  1  1  0  0  0
  2  5  1  6  0  0  0
  2  1  1  0  0  0  0
  3  2  1  0  0  0  0
  4  3  2  0  0  0  0
  5  6  1  0  0  0  0
  8  7  1  6  0  0  0
  9 29  1  1  0  0  0
  9  8  1  0  0  0  0
 10 13  1  6  0  0  0
 10  9  1  0  0  0  0
 10 11  1  0  0  0  0
 11  8  1  0  0  0  0
 13 12  1  1  0  0  0
 14 13  1  0  0  0  0
 15 16  1  0  0  0  0
 17 19  1  6  0  0  0
 17 15  1  0  0  0  0
 17 18  1  0  0  0  0
 18 16  1  0  0  0  0
 18 14  1  0  0  0  0
 20 25  1  0  0  0  0
 21 25  2  0  0  0  0
 21 19  1  0  0  0  0
 22 21  1  0  0  0  0
 23 24  1  0  0  0  0
 23 22  2  0  0  0  0
 24 20  2  0  0  0  0
 26 27  2  0  0  0  0
 27 23  1  0  0  0  0
 28 27  1  0  0  0  0
 29 31  1  1  0  0  0
 31 30  1  0  0  0  0
 33 32  1  0  0  0  0
 33 29  1  0  0  0  0
 35 38  1  0  0  0  0
 36 34  1  6  0  0  0
 36 44  1  0  0  0  0
 38 37  1  0  0  0  0
 39 46  1  6  0  0  0
 39 41  1  0  0  0  0
 40 42  1  0  0  0  0
 41 35  2  0  0  0  0
 42 38  2  0  0  0  0
 43 36  1  0  0  0  0
 43 39  1  0  0  0  0
 44 41  1  0  0  0  0
 44 40  2  0  0  0  0
 46 45  2  0  0  0  0
 47 46  1  0  0  0  0
 48 49  2  0  0  0  0
 49 47  1  0  0  0  0
 49 57  1  0  0  0  0
 51 50  2  0  0  0  0
 51 48  1  0  0  0  0
 53 55  1  0  0  0  0
 54 56  2  0  0  0  0
 55 52  1  0  0  0  0
 55 54  1  0  0  0  0
 56 51  1  0  0  0  0
 58 57  1  0  0  0  0
 59 58  1  0  0  0  0
 60 61  1  0  0  0  0
 61 58  1  0  0  0  0
M  END
>  <MODEL>
2

>  <REMARK>
 VINA RESULT:      -2.5      2.418      5.895
  Name = 
  24 active torsions:
  status: ('A' for Active; 'I' for Inactive)
    1  A    between atoms: O_1  and  C_12
    2  A    between atoms: O_1  and  C_50
    3  A    between atoms: C_4  and  N_38
    4  A    between atoms: C_5  and  C_7
    5  A    between atoms: C_5  and  C_58
    6  A    between atoms: C_9  and  C_13
    7  A    between atoms: N_11  and  C_59
    8  A    between atoms: C_13  and  C_48
    9  A    between atoms: C_13  and  C_58
   10  A    between atoms: C_18  and  C_61
   11  A    between atoms: C_23  and  C_27
   12  A    between atoms: C_23  and  C_30
   13  A    between atoms: C_26  and  C_35
   14  A    between atoms: C_26  and  C_47
   15  A    between atoms: C_28  and  C_60
   16  A    between atoms: C_30  and  N_55
   17  A    between atoms: N_33  and  C_37
   18  A    between atoms: N_33  and  C_47
   19  A    between atoms: C_35  and  C_60
   20  A    between atoms: N_38  and  C_58
   21  A    between atoms: O_40  and  C_61
   22  A    between atoms: C_43  and  C_51
   23  A    between atoms: N_45  and  C_59
   24  A    between atoms: C_46  and  C_61
                            x       y       z     vdW  Elec       q    Type
                         _______ _______ _______ _____ _____    ______ ____

>  <TORSDO>
F 24

$$$$
=
 OpenBabel11052410283D

 61 65  0  0  1  0  0  0  0  0999 V2000
  160.3650  211.6900  151.6460 C   0  0  2  0  0  3  0  0  0  0  0  0
  159.5490  211.6280  153.0150 C   0  0  2  0  0  3  0  0  0  0  0  0
  158.0930  211.8310  152.7870 C   0  0  0  0  0  3  0  0  0  0  0  0
  157.5330  212.8650  153.2360 O   0  0  0  0  0  0  0  0  0  0  0  0
  160.0910  212.3150  154.2310 C   0  0  0  0  0  2  0  0  0  0  0  0
  160.9960  211.5220  154.9120 F   0  0  0  0  0  0  0  0  0  0  0  0
  160.2680  212.8680  150.6900 C   0  0  0  0  0  2  0  0  0  0  0  0
  160.6230  212.4720  149.2040 C   0  0  2  0  0  3  0  0  0  0  0  0
  160.7660  213.5370  148.1870 C   0  0  2  0  0  3  0  0  0  0  0  0
  159.9010  212.6210  147.3940 C   0  0  1  0  0  3  0  0  0  0  0  0
  159.6130  211.8600  148.5120 O   0  0  0  0  0  0  0  0  0  0  0  0
  158.5550  214.3630  148.1390 O   0  0  0  0  0  1  0  0  0  0  0  0
  158.6920  213.5820  147.0340 C   0  0  1  0  0  3  0  0  0  0  0  0
  158.9320  214.3430  145.8380 C   0  0  0  0  0  2  0  0  0  0  0  0
  160.1530  212.9290  143.6020 C   0  0  0  0  0  2  0  0  0  0  0  0
  159.1020  212.4540  144.5610 C   0  0  0  0  0  2  0  0  0  0  0  0
  159.3310  214.2230  143.5800 C   0  0  2  0  0  3  0  0  0  0  0  0
  158.3500  213.7490  144.6050 N   0  0  0  0  0  0  0  0  0  0  0  0
  158.8050  214.4390  142.2200 O   0  0  0  0  0  0  0  0  0  0  0  0
  156.9740  212.4940  139.6640 C   0  0  0  0  0  3  0  0  0  0  0  0
  158.5400  213.5800  141.1710 C   0  0  0  0  0  0  0  0  0  0  0  0
  159.5420  212.6760  140.7060 C   0  0  0  0  0  3  0  0  0  0  0  0
  159.2440  211.7580  139.6960 C   0  0  0  0  0  0  0  0  0  0  0  0
  157.9490  211.6580  139.1670 C   0  0  0  0  0  3  0  0  0  0  0  0
  157.2490  213.3870  140.6230 C   0  0  0  0  0  3  0  0  0  0  0  0
  160.9090  211.1080  138.1990 O   0  0  0  0  0  0  0  0  0  0  0  0
  160.3020  210.8980  139.2740 C   0  0  0  0  0  0  0  0  0  0  0  0
  160.6220  209.8420  140.0970 O   0  0  0  0  0  1  0  0  0  0  0  0
  162.1130  213.8460  147.4300 C   0  0  1  0  0  3  0  0  0  0  0  0
  163.3970  211.6900  148.0810 C   0  0  0  0  0  1  0  0  0  0  0  0
  163.3980  213.1480  147.8370 C   0  0  0  0  0  2  0  0  0  0  0  0
  163.2610  214.2240  145.5290 C   0  0  0  0  0  1  0  0  0  0  0  0
  162.0040  213.8840  146.0680 O   0  0  0  0  0  0  0  0  0  0  0  0
  160.3860  210.3950  150.9360 N   0  0  0  0  0  2  0  0  0  0  0  0
  161.6220  206.3600  153.0730 C   0  0  0  0  0  3  0  0  0  0  0  0
  161.5120  209.6300  151.5130 C   0  0  2  0  0  3  0  0  0  0  0  0
  161.0840  205.8560  155.4180 F   0  0  0  0  0  0  0  0  0  0  0  0
  161.0670  206.6700  154.3350 C   0  0  0  0  0  0  0  0  0  0  0  0
  162.2230  207.3990  150.7060 C   0  0  2  0  0  3  0  0  0  0  0  0
  160.4010  208.8440  153.5430 C   0  0  0  0  0  3  0  0  0  0  0  0
  161.5820  207.3340  152.0610 C   0  0  0  0  0  0  0  0  0  0  0  0
  160.4240  207.9000  154.5250 C   0  0  0  0  0  3  0  0  0  0  0  0
  162.3400  208.9080  150.4440 C   0  0  0  0  0  2  0  0  0  0  0  0
  161.0000  208.5400  152.3580 C   0  0  0  0  0  0  0  0  0  0  0  0
  160.3820  207.1690  149.1520 O   0  0  0  0  0  0  0  0  0  0  0  0
  161.3860  206.6480  149.6430 C   0  0  0  0  0  0  0  0  0  0  0  0
  161.7400  205.2740  149.1360 C   0  0  0  0  0  2  0  0  0  0  0  0
  161.4230  203.8980  147.1970 N   0  0  0  0  0  0  0  0  0  0  0  0
  161.7250  205.0820  147.6650 C   0  0  0  0  0  0  0  0  0  0  0  0
  160.6920  201.6220  147.2110 O   0  0  0  0  0  0  0  0  0  0  0  0
  161.0350  202.7270  147.8440 C   0  0  0  0  0  0  0  0  0  0  0  0
  160.9070  203.3550  152.1580 C   0  0  0  0  0  1  0  0  0  0  0  0
  162.5210  201.4190  152.1930 C   0  0  0  0  0  1  0  0  0  0  0  0
  161.4120  201.9300  150.0840 C   0  0  0  0  0  3  0  0  0  0  0  0
  161.5570  202.2280  151.4910 N   0  0  0  0  0  0  0  0  0  0  0  0
  160.9860  202.7970  149.2800 N   0  0  0  0  0  0  0  0  0  0  0  0
  162.3630  206.1200  146.7690 C   0  0  0  0  0  2  0  0  0  0  0  0
  162.3690  205.8740  145.3090 N   0  0  0  0  0  0  0  0  0  0  0  0
  163.3220  204.7880  145.0920 C   0  0  0  0  0  1  0  0  0  0  0  0
  160.0070  206.1800  145.0710 C   0  0  0  0  0  1  0  0  0  0  0  0
  161.1450  205.1920  144.8900 C   0  0  0  0  0  2  0  0  0  0  0  0
  1  7  1  6  0  0  0
  1  2  1  0  0  0  0
  2  3  1  6  0  0  0
  2  5  1  0  0  0  0
  3  4  2  0  0  0  0
  5  6  1  0  0  0  0
  8  7  1  1  0  0  0
  9 29  1  6  0  0  0
  9  8  1  0  0  0  0
 10 13  1  1  0  0  0
 10  9  1  0  0  0  0
 10 11  1  0  0  0  0
 11  8  1  0  0  0  0
 13 12  1  1  0  0  0
 14 13  1  0  0  0  0
 15 16  1  0  0  0  0
 16 18  1  0  0  0  0
 17 19  1  6  0  0  0
 17 15  1  0  0  0  0
 17 18  1  0  0  0  0
 18 14  1  0  0  0  0
 20 25  1  0  0  0  0
 21 19  1  0  0  0  0
 22 21  1  0  0  0  0
 23 22  2  0  0  0  0
 24 20  2  0  0  0  0
 24 23  1  0  0  0  0
 25 21  2  0  0  0  0
 26 27  2  0  0  0  0
 27 23  1  0  0  0  0
 27 28  1  0  0  0  0
 29 31  1  6  0  0  0
 31 30  1  0  0  0  0
 32 33  1  0  0  0  0
 33 29  1  0  0  0  0
 34  1  1  0  0  0  0
 35 38  1  0  0  0  0
 36 34  1  6  0  0  0
 36 44  1  0  0  0  0
 38 42  2  0  0  0  0
 38 37  1  0  0  0  0
 39 46  1  6  0  0  0
 39 41  1  0  0  0  0
 40 42  1  0  0  0  0
 41 44  1  0  0  0  0
 41 35  2  0  0  0  0
 43 39  1  0  0  0  0
 43 36  1  0  0  0  0
 44 40  2  0  0  0  0
 45 46  2  0  0  0  0
 47 46  1  0  0  0  0
 48 49  2  0  0  0  0
 48 51  1  0  0  0  0
 49 47  1  0  0  0  0
 50 51  2  0  0  0  0
 51 56  1  0  0  0  0
 54 55  1  0  0  0  0
 55 52  1  0  0  0  0
 55 53  1  0  0  0  0
 56 54  2  0  0  0  0
 57 49  1  0  0  0  0
 58 57  1  0  0  0  0
 59 58  1  0  0  0  0
 61 60  1  0  0  0  0
 61 58  1  0  0  0  0
M  END
>  <MODEL>
3

>  <REMARK>
 VINA RESULT:      -1.5      2.731      5.496
  Name = 
  24 active torsions:
  status: ('A' for Active; 'I' for Inactive)
    1  A    between atoms: O_1  and  C_12
    2  A    between atoms: O_1  and  C_50
    3  A    between atoms: C_4  and  N_38
    4  A    between atoms: C_5  and  C_7
    5  A    between atoms: C_5  and  C_58
    6  A    between atoms: C_9  and  C_13
    7  A    between atoms: N_11  and  C_59
    8  A    between atoms: C_13  and  C_48
    9  A    between atoms: C_13  and  C_58
   10  A    between atoms: C_18  and  C_61
   11  A    between atoms: C_23  and  C_27
   12  A    between atoms: C_23  and  C_30
   13  A    between atoms: C_26  and  C_35
   14  A    between atoms: C_26  and  C_47
   15  A    between atoms: C_28  and  C_60
   16  A    between atoms: C_30  and  N_55
   17  A    between atoms: N_33  and  C_37
   18  A    between atoms: N_33  and  C_47
   19  A    between atoms: C_35  and  C_60
   20  A    between atoms: N_38  and  C_58
   21  A    between atoms: O_40  and  C_61
   22  A    between atoms: C_43  and  C_51
   23  A    between atoms: N_45  and  C_59
   24  A    between atoms: C_46  and  C_61
                            x       y       z     vdW  Elec       q    Type
                         _______ _______ _______ _____ _____    ______ ____

>  <TORSDO>
F 24

$$$$
=
 OpenBabel11052410283D

 61 65  0  0  1  0  0  0  0  0999 V2000
  161.2000  211.1930  151.5130 C   0  0  2  0  0  3  0  0  0  0  0  0
  160.4080  211.1770  152.8970 C   0  0  2  0  0  3  0  0  0  0  0  0
  159.2760  212.1430  152.8850 C   0  0  0  0  0  3  0  0  0  0  0  0
  158.1200  211.7480  153.1850 O   0  0  0  0  0  0  0  0  0  0  0  0
  161.1700  211.1260  154.1850 C   0  0  0  0  0  2  0  0  0  0  0  0
  162.4880  210.7540  153.9930 F   0  0  0  0  0  0  0  0  0  0  0  0
  161.3270  212.4450  150.6590 C   0  0  0  0  0  2  0  0  0  0  0  0
  161.4790  212.1180  149.1230 C   0  0  2  0  0  3  0  0  0  0  0  0
  161.4680  213.2260  148.1430 C   0  0  2  0  0  3  0  0  0  0  0  0
  160.5140  212.3290  147.4370 C   0  0  1  0  0  3  0  0  0  0  0  0
  160.3900  211.5180  148.5500 O   0  0  0  0  0  0  0  0  0  0  0  0
  159.0110  213.7020  148.5590 O   0  0  0  0  0  1  0  0  0  0  0  0
  159.2560  213.2830  147.2880 C   0  0  1  0  0  3  0  0  0  0  0  0
  159.4940  214.3700  146.3770 C   0  0  0  0  0  2  0  0  0  0  0  0
  158.0450  212.3120  144.9080 C   0  0  0  0  0  2  0  0  0  0  0  0
  157.5050  213.4560  145.7140 C   0  0  0  0  0  2  0  0  0  0  0  0
  159.0310  213.3550  144.3700 C   0  0  2  0  0  3  0  0  0  0  0  0
  158.5250  214.4520  145.2520 N   0  0  0  0  0  0  0  0  0  0  0  0
  158.8140  213.5250  142.9220 O   0  0  0  0  0  0  0  0  0  0  0  0
  161.1580  214.3130  140.1750 C   0  0  0  0  0  3  0  0  0  0  0  0
  159.6430  213.3780  141.8270 C   0  0  0  0  0  0  0  0  0  0  0  0
  159.6050  212.1830  141.0480 C   0  0  0  0  0  3  0  0  0  0  0  0
  160.3910  212.0700  139.8980 C   0  0  0  0  0  0  0  0  0  0  0  0
  161.1750  213.1430  139.4490 C   0  0  0  0  0  3  0  0  0  0  0  0
  160.4200  214.4300  141.2850 C   0  0  0  0  0  3  0  0  0  0  0  0
  159.6470  210.7540  138.1230 O   0  0  0  0  0  0  0  0  0  0  0  0
  160.3120  210.8390  139.1800 C   0  0  0  0  0  0  0  0  0  0  0  0
  160.9990  209.7630  139.6970 O   0  0  0  0  0  1  0  0  0  0  0  0
  162.6960  213.5900  147.2230 C   0  0  1  0  0  3  0  0  0  0  0  0
  164.2000  211.5870  147.8900 C   0  0  0  0  0  1  0  0  0  0  0  0
  163.7200  212.5310  146.8590 C   0  0  0  0  0  2  0  0  0  0  0  0
  162.8660  213.6840  144.9790 C   0  0  0  0  0  1  0  0  0  0  0  0
  162.3800  214.3420  146.1270 O   0  0  0  0  0  0  0  0  0  0  0  0
  160.9520  209.9870  150.6990 N   0  0  0  0  0  2  0  0  0  0  0  0
  161.5350  205.6700  152.5450 C   0  0  0  0  0  3  0  0  0  0  0  0
  161.9470  208.9850  151.1380 C   0  0  2  0  0  3  0  0  0  0  0  0
  161.1020  205.1430  154.9060 F   0  0  0  0  0  0  0  0  0  0  0  0
  161.1580  206.0070  153.8640 C   0  0  0  0  0  0  0  0  0  0  0  0
  162.1340  206.7100  150.1770 C   0  0  2  0  0  3  0  0  0  0  0  0
  160.8720  208.3110  153.2280 C   0  0  0  0  0  3  0  0  0  0  0  0
  161.6060  206.6910  151.5820 C   0  0  0  0  0  0  0  0  0  0  0  0
  160.7890  207.3250  154.1630 C   0  0  0  0  0  3  0  0  0  0  0  0
  162.5250  208.1800  149.9680 C   0  0  0  0  0  2  0  0  0  0  0  0
  161.3000  207.9670  151.9810 C   0  0  0  0  0  0  0  0  0  0  0  0
  160.2970  206.9840  148.6240 O   0  0  0  0  0  0  0  0  0  0  0  0
  161.0800  206.1990  149.1660 C   0  0  0  0  0  0  0  0  0  0  0  0
  160.9530  204.7510  148.7690 C   0  0  0  0  0  2  0  0  0  0  0  0
  161.7020  203.0550  147.2470 N   0  0  0  0  0  0  0  0  0  0  0  0
  161.6800  204.3280  147.5480 C   0  0  0  0  0  0  0  0  0  0  0  0
  160.9370  201.8370  149.1580 O   0  0  0  0  0  0  0  0  0  0  0  0
  161.0920  201.9580  147.8540 C   0  0  0  0  0  0  0  0  0  0  0  0
  159.4680  198.7360  145.4050 C   0  0  0  0  0  1  0  0  0  0  0  0
  161.8810  198.0170  145.2710 C   0  0  0  0  0  1  0  0  0  0  0  0
  161.4030  200.2010  146.2380 C   0  0  0  0  0  3  0  0  0  0  0  0
  160.8920  199.0130  145.5940 N   0  0  0  0  0  0  0  0  0  0  0  0
  160.6630  200.9150  146.9620 N   0  0  0  0  0  0  0  0  0  0  0  0
  162.6360  205.2890  146.8760 C   0  0  0  0  0  2  0  0  0  0  0  0
  162.0960  206.2000  145.8400 N   0  0  0  0  0  0  0  0  0  0  0  0
  163.0710  206.1860  144.7510 C   0  0  0  0  0  1  0  0  0  0  0  0
  161.3430  205.5110  143.6750 C   0  0  0  0  0  1  0  0  0  0  0  0
  160.9660  205.5860  145.1430 C   0  0  0  0  0  2  0  0  0  0  0  0
  1  7  1  6  0  0  0
  1  2  1  0  0  0  0
  2  3  1  1  0  0  0
  2  5  1  0  0  0  0
  3  4  2  0  0  0  0
  6  5  1  0  0  0  0
  8  7  1  1  0  0  0
  9 29  1  6  0  0  0
  9  8  1  0  0  0  0
 10 13  1  1  0  0  0
 10  9  1  0  0  0  0
 10 11  1  0  0  0  0
 11  8  1  0  0  0  0
 13 12  1  1  0  0  0
 14 13  1  0  0  0  0
 15 16  1  0  0  0  0
 17 19  1  6  0  0  0
 17 15  1  0  0  0  0
 17 18  1  0  0  0  0
 18 16  1  0  0  0  0
 18 14  1  0  0  0  0
 20 25  1  0  0  0  0
 21 19  1  0  0  0  0
 22 21  1  0  0  0  0
 23 22  2  0  0  0  0
 24 23  1  0  0  0  0
 24 20  2  0  0  0  0
 25 21  2  0  0  0  0
 26 27  2  0  0  0  0
 27 28  1  0  0  0  0
 27 23  1  0  0  0  0
 29 31  1  6  0  0  0
 31 30  1  0  0  0  0
 32 33  1  0  0  0  0
 33 29  1  0  0  0  0
 34  1  1  0  0  0  0
 35 38  1  0  0  0  0
 36 34  1  6  0  0  0
 36 44  1  0  0  0  0
 38 42  2  0  0  0  0
 38 37  1  0  0  0  0
 39 46  1  6  0  0  0
 39 41  1  0  0  0  0
 40 42  1  0  0  0  0
 41 44  1  0  0  0  0
 41 35  2  0  0  0  0
 43 39  1  0  0  0  0
 43 36  1  0  0  0  0
 44 40  2  0  0  0  0
 45 46  2  0  0  0  0
 47 46  1  0  0  0  0
 48 49  2  0  0  0  0
 48 51  1  0  0  0  0
 49 47  1  0  0  0  0
 51 50  2  0  0  0  0
 52 55  1  0  0  0  0
 53 55  1  0  0  0  0
 54 56  2  0  0  0  0
 55 54  1  0  0  0  0
 56 51  1  0  0  0  0
 57 49  1  0  0  0  0
 58 57  1  0  0  0  0
 59 58  1  0  0  0  0
 60 61  1  0  0  0  0
 61 58  1  0  0  0  0
M  END
>  <MODEL>
4

>  <REMARK>
 VINA RESULT:      -0.3      2.867      6.281
  Name = 
  24 active torsions:
  status: ('A' for Active; 'I' for Inactive)
    1  A    between atoms: O_1  and  C_12
    2  A    between atoms: O_1  and  C_50
    3  A    between atoms: C_4  and  N_38
    4  A    between atoms: C_5  and  C_7
    5  A    between atoms: C_5  and  C_58
    6  A    between atoms: C_9  and  C_13
    7  A    between atoms: N_11  and  C_59
    8  A    between atoms: C_13  and  C_48
    9  A    between atoms: C_13  and  C_58
   10  A    between atoms: C_18  and  C_61
   11  A    between atoms: C_23  and  C_27
   12  A    between atoms: C_23  and  C_30
   13  A    between atoms: C_26  and  C_35
   14  A    between atoms: C_26  and  C_47
   15  A    between atoms: C_28  and  C_60
   16  A    between atoms: C_30  and  N_55
   17  A    between atoms: N_33  and  C_37
   18  A    between atoms: N_33  and  C_47
   19  A    between atoms: C_35  and  C_60
   20  A    between atoms: N_38  and  C_58
   21  A    between atoms: O_40  and  C_61
   22  A    between atoms: C_43  and  C_51
   23  A    between atoms: N_45  and  C_59
   24  A    between atoms: C_46  and  C_61
                            x       y       z     vdW  Elec       q    Type
                         _______ _______ _______ _____ _____    ______ ____

>  <TORSDO>
F 24

$$$$
