=
 OpenBabel11042421253D

 33 37  0  0  1  0  0  0  0  0999 V2000
  160.3210  208.9960  152.6990 N   0  0  0  0  0  2  0  0  0  0  0  0
  161.2340  208.7510  155.0800 C   0  0  2  0  0  3  0  0  0  0  0  0
  160.1360  208.1220  157.0610 N   0  0  0  0  0  0  0  0  0  0  0  0
  160.3380  210.9370  154.1080 C   0  0  0  0  0  0  0  0  0  0  0  0
  161.0170  210.3130  157.0830 N   0  0  0  0  0  2  0  0  0  0  0  0
  160.8660  207.2690  154.9810 C   0  0  0  0  0  3  0  0  0  0  0  0
  160.7480  209.0720  156.4490 C   0  0  0  0  0  0  0  0  0  0  0  0
  160.8040  211.7400  155.2120 N   0  0  0  0  0  2  0  0  0  0  0  0
  160.0450  206.9460  156.2240 C   0  0  0  0  0  3  0  0  0  0  0  0
  160.5720  209.5940  153.9860 C   0  0  0  0  0  0  0  0  0  0  0  0
  161.6710  211.3440  156.3090 C   0  0  0  0  0  2  0  0  0  0  0  0
  157.9530  212.6300  152.0110 C   0  0  0  0  0  3  0  0  0  0  0  0
  159.2140  212.9550  151.2790 C   0  0  1  0  0  3  0  0  0  0  0  0
  159.4510  214.4530  151.3010 C   0  0  0  0  0  1  0  0  0  0  0  0
  159.6070  211.6870  153.0550 C   0  0  0  0  0  0  0  0  0  0  0  0
  160.2190  212.2870  152.0890 N   0  0  0  0  0  0  0  0  0  0  0  0
  158.2000  211.8920  153.0400 N   0  0  0  0  0  0  0  0  0  0  0  0
  162.5980  209.4930  151.8970 C   0  0  0  0  0  2  0  0  0  0  0  0
  161.6580  209.8950  150.7670 C   0  0  0  0  0  2  0  0  0  0  0  0
  161.3160  208.7240  151.6640 C   0  0  0  0  0  0  0  0  0  0  0  0
  161.4690  207.2710  151.1720 C   0  0  2  0  0  3  0  0  0  0  0  0
  160.7880  205.1930  148.1300 C   0  0  0  0  0  3  0  0  0  0  0  0
  161.2500  207.1130  149.6620 C   0  0  1  0  0  3  0  0  0  0  0  0
  161.4330  205.4650  145.8630 O   0  0  0  0  0  1  0  0  0  0  0  0
  162.2720  207.1000  147.3970 C   0  0  0  0  0  2  0  0  0  0  0  0
  162.5410  207.3350  148.8770 C   0  0  0  0  0  2  0  0  0  0  0  0
  160.5410  205.8320  149.2850 C   0  0  0  0  0  3  0  0  0  0  0  0
  161.8640  205.6430  147.1760 C   0  0  1  0  0  3  0  0  0  0  0  0
  160.8510  206.1730  152.0520 C   0  0  0  0  0  2  0  0  0  0  0  0
  161.7680  205.0610  152.2430 N   0  0  0  0  0  2  0  0  0  0  0  0
  160.9530  203.8630  152.3700 C   0  0  0  0  0  2  0  0  0  0  0  0
  161.4780  202.7830  151.4410 C   0  0  0  0  0  2  0  0  0  0  0  0
  160.5310  202.5080  150.4530 O   0  0  0  0  0  1  0  0  0  0  0  0
  1 10  1  0  0  0  0
  2  6  1  6  0  0  0
  2  7  1  0  0  0  0
  4  8  1  0  0  0  0
  6  9  2  0  0  0  0
  7  3  2  0  0  0  0
  7  5  1  0  0  0  0
  8 11  1  0  0  0  0
  9  3  1  0  0  0  0
 10  4  2  0  0  0  0
 10  2  1  0  0  0  0
 11  5  1  0  0  0  0
 12 17  2  0  0  0  0
 13 14  1  1  0  0  0
 13 12  1  0  0  0  0
 13 16  1  0  0  0  0
 15  4  1  0  0  0  0
 16 15  2  0  0  0  0
 17 15  1  0  0  0  0
 19 20  1  0  0  0  0
 19 18  1  0  0  0  0
 20 18  1  0  0  0  0
 20  1  1  0  0  0  0
 21 20  1  0  0  0  0
 21 29  1  1  0  0  0
 22 27  2  0  0  0  0
 23 21  1  1  0  0  0
 25 26  1  0  0  0  0
 26 23  1  0  0  0  0
 27 23  1  0  0  0  0
 28 24  1  6  0  0  0
 28 25  1  0  0  0  0
 28 22  1  0  0  0  0
 29 30  1  0  0  0  0
 30 31  1  0  0  0  0
 32 31  1  0  0  0  0
 33 32  1  0  0  0  0
M  END
>  <MODEL>
1

>  <REMARK>
 VINA RESULT:      -6.7      0.000      0.000
  Name = 
  9 active torsions:
  status: ('A' for Active; 'I' for Inactive)
    1  A    between atoms: C_5  and  C_9
    2  A    between atoms: C_6  and  C_8
    3  A    between atoms: C_8  and  N_30
    4  A    between atoms: C_9  and  C_17
    5  A    between atoms: C_9  and  C_32
    6  A    between atoms: C_13  and  C_26
    7  A    between atoms: C_17  and  N_30
    8  A    between atoms: N_24  and  C_27
    9  A    between atoms: N_24  and  C_32
                            x       y       z     vdW  Elec       q    Type
                         _______ _______ _______ _____ _____    ______ ____

>  <TORSDO>
F 9

$$$$
=
 OpenBabel11042421253D

 33 37  0  0  1  0  0  0  0  0999 V2000
  160.6840  207.9630  152.0140 N   0  0  0  0  0  2  0  0  0  0  0  0
  161.3220  207.9610  154.4950 C   0  0  2  0  0  3  0  0  0  0  0  0
  160.0020  208.3800  156.3940 N   0  0  0  0  0  0  0  0  0  0  0  0
  161.5240  209.9970  152.9660 C   0  0  0  0  0  0  0  0  0  0  0  0
  161.7670  209.9150  156.0710 N   0  0  0  0  0  2  0  0  0  0  0  0
  160.3330  206.8040  154.6640 C   0  0  0  0  0  3  0  0  0  0  0  0
  160.9910  208.7920  155.6850 C   0  0  0  0  0  0  0  0  0  0  0  0
  162.2670  210.7750  153.9280 N   0  0  0  0  0  2  0  0  0  0  0  0
  159.4190  207.1860  155.8220 C   0  0  0  0  0  3  0  0  0  0  0  0
  161.1370  208.7000  153.1670 C   0  0  0  0  0  0  0  0  0  0  0  0
  162.8340  210.3380  155.1920 C   0  0  0  0  0  2  0  0  0  0  0  0
  160.4360  212.1810  150.3210 C   0  0  0  0  0  3  0  0  0  0  0  0
  161.3350  211.2730  149.5490 C   0  0  1  0  0  3  0  0  0  0  0  0
  162.5050  212.0590  148.9890 C   0  0  0  0  0  1  0  0  0  0  0  0
  161.2350  210.6960  151.6880 C   0  0  0  0  0  0  0  0  0  0  0  0
  161.8040  210.3600  150.5780 N   0  0  0  0  0  0  0  0  0  0  0  0
  160.3890  211.8310  151.5620 N   0  0  0  0  0  0  0  0  0  0  0  0
  162.5360  206.3400  152.0950 C   0  0  0  0  0  2  0  0  0  0  0  0
  162.9100  207.3510  151.0170 C   0  0  0  0  0  2  0  0  0  0  0  0
  161.4590  206.9870  151.2530 C   0  0  0  0  0  0  0  0  0  0  0  0
  160.7020  206.0620  150.2800 C   0  0  2  0  0  3  0  0  0  0  0  0
  160.8600  202.6010  148.8550 C   0  0  0  0  0  3  0  0  0  0  0  0
  161.2160  204.6160  150.2890 C   0  0  1  0  0  3  0  0  0  0  0  0
  161.2150  200.4910  149.8820 O   0  0  0  0  0  1  0  0  0  0  0  0
  161.1170  202.3740  151.3560 C   0  0  0  0  0  2  0  0  0  0  0  0
  160.6200  203.8110  151.4420 C   0  0  0  0  0  2  0  0  0  0  0  0
  161.0870  203.9200  148.9530 C   0  0  0  0  0  3  0  0  0  0  0  0
  160.6120  201.7350  150.0630 C   0  0  1  0  0  3  0  0  0  0  0  0
  160.3630  206.6390  148.8970 C   0  0  0  0  0  2  0  0  0  0  0  0
  161.4570  207.4350  148.3660 N   0  0  0  0  0  2  0  0  0  0  0  0
  161.9250  206.7580  147.1670 C   0  0  0  0  0  2  0  0  0  0  0  0
  160.7380  206.3070  146.3350 C   0  0  0  0  0  2  0  0  0  0  0  0
  161.1270  205.2780  145.4760 O   0  0  0  0  0  1  0  0  0  0  0  0
  1 10  1  0  0  0  0
  2  6  1  6  0  0  0
  2  7  1  0  0  0  0
  4 10  2  0  0  0  0
  4  8  1  0  0  0  0
  6  9  2  0  0  0  0
  7  5  1  0  0  0  0
  7  3  2  0  0  0  0
  8 11  1  0  0  0  0
  9  3  1  0  0  0  0
 10  2  1  0  0  0  0
 11  5  1  0  0  0  0
 12 17  2  0  0  0  0
 13 14  1  1  0  0  0
 13 12  1  0  0  0  0
 13 16  1  0  0  0  0
 15  4  1  0  0  0  0
 16 15  2  0  0  0  0
 17 15  1  0  0  0  0
 19 20  1  0  0  0  0
 19 18  1  0  0  0  0
 20  1  1  0  0  0  0
 20 18  1  0  0  0  0
 21 29  1  6  0  0  0
 21 20  1  0  0  0  0
 22 27  2  0  0  0  0
 22 28  1  0  0  0  0
 23 21  1  6  0  0  0
 23 26  1  0  0  0  0
 25 26  1  0  0  0  0
 27 23  1  0  0  0  0
 28 24  1  6  0  0  0
 28 25  1  0  0  0  0
 30 29  1  0  0  0  0
 31 30  1  0  0  0  0
 32 31  1  0  0  0  0
 33 32  1  0  0  0  0
M  END
>  <MODEL>
2

>  <REMARK>
 VINA RESULT:      -6.4      1.719      3.443
  Name = 
  9 active torsions:
  status: ('A' for Active; 'I' for Inactive)
    1  A    between atoms: C_5  and  C_9
    2  A    between atoms: C_6  and  C_8
    3  A    between atoms: C_8  and  N_30
    4  A    between atoms: C_9  and  C_17
    5  A    between atoms: C_9  and  C_32
    6  A    between atoms: C_13  and  C_26
    7  A    between atoms: C_17  and  N_30
    8  A    between atoms: N_24  and  C_27
    9  A    between atoms: N_24  and  C_32
                            x       y       z     vdW  Elec       q    Type
                         _______ _______ _______ _____ _____    ______ ____

>  <TORSDO>
F 9

$$$$
=
 OpenBabel11042421253D

 33 37  0  0  1  0  0  0  0  0999 V2000
  160.3800  208.6120  152.0130 N   0  0  0  0  0  2  0  0  0  0  0  0
  161.3660  208.2060  154.3420 C   0  0  2  0  0  3  0  0  0  0  0  0
  160.2910  207.6960  156.3700 N   0  0  0  0  0  0  0  0  0  0  0  0
  160.7260  210.5090  153.4400 C   0  0  0  0  0  0  0  0  0  0  0  0
  161.4580  209.7490  156.3710 N   0  0  0  0  0  2  0  0  0  0  0  0
  160.7970  206.7880  154.2470 C   0  0  0  0  0  3  0  0  0  0  0  0
  160.9950  208.5660  155.7380 C   0  0  0  0  0  0  0  0  0  0  0  0
  161.3480  211.2230  154.5280 N   0  0  0  0  0  2  0  0  0  0  0  0
  160.0020  206.5570  155.5260 C   0  0  0  0  0  3  0  0  0  0  0  0
  160.7710  209.1490  153.2930 C   0  0  0  0  0  0  0  0  0  0  0  0
  162.2070  210.6960  155.5750 C   0  0  0  0  0  2  0  0  0  0  0  0
  158.4650  212.4640  151.4350 C   0  0  0  0  0  3  0  0  0  0  0  0
  159.7540  212.7790  150.7490 C   0  0  1  0  0  3  0  0  0  0  0  0
  160.0620  214.2580  150.8850 C   0  0  0  0  0  1  0  0  0  0  0  0
  160.0510  211.3680  152.4340 C   0  0  0  0  0  0  0  0  0  0  0  0
  160.7100  212.0060  151.5240 N   0  0  0  0  0  0  0  0  0  0  0  0
  158.6570  211.6420  152.4110 N   0  0  0  0  0  0  0  0  0  0  0  0
  162.7150  208.1060  151.4110 C   0  0  0  0  0  2  0  0  0  0  0  0
  162.2760  209.2310  150.4810 C   0  0  0  0  0  2  0  0  0  0  0  0
  161.2790  208.1890  150.9430 C   0  0  0  0  0  0  0  0  0  0  0  0
  160.8010  207.0690  149.9980 C   0  0  2  0  0  3  0  0  0  0  0  0
  160.9390  203.3500  149.5630 C   0  0  0  0  0  3  0  0  0  0  0  0
  161.3100  205.6770  150.3960 C   0  0  1  0  0  3  0  0  0  0  0  0
  161.2910  201.5960  151.1230 O   0  0  0  0  0  1  0  0  0  0  0  0
  161.2090  203.8090  152.0320 C   0  0  0  0  0  2  0  0  0  0  0  0
  160.7180  205.2170  151.7270 C   0  0  0  0  0  2  0  0  0  0  0  0
  161.1710  204.6450  149.2990 C   0  0  0  0  0  3  0  0  0  0  0  0
  160.6940  202.8450  150.9620 C   0  0  1  0  0  3  0  0  0  0  0  0
  160.8190  207.3770  148.4930 C   0  0  0  0  0  2  0  0  0  0  0  0
  162.1540  207.2410  147.9330 N   0  0  0  0  0  2  0  0  0  0  0  0
  162.0290  206.3990  146.7540 C   0  0  0  0  0  2  0  0  0  0  0  0
  160.5980  206.4300  146.2480 C   0  0  0  0  0  2  0  0  0  0  0  0
  160.5400  205.8880  144.9630 O   0  0  0  0  0  1  0  0  0  0  0  0
  1 10  1  0  0  0  0
  2  6  1  6  0  0  0
  2  7  1  0  0  0  0
  4  8  1  0  0  0  0
  6  9  2  0  0  0  0
  7  3  2  0  0  0  0
  7  5  1  0  0  0  0
  8 11  1  0  0  0  0
  9  3  1  0  0  0  0
 10  4  2  0  0  0  0
 10  2  1  0  0  0  0
 11  5  1  0  0  0  0
 12 17  2  0  0  0  0
 13 14  1  1  0  0  0
 13 12  1  0  0  0  0
 13 16  1  0  0  0  0
 15  4  1  0  0  0  0
 16 15  2  0  0  0  0
 17 15  1  0  0  0  0
 19 20  1  0  0  0  0
 19 18  1  0  0  0  0
 20 18  1  0  0  0  0
 20  1  1  0  0  0  0
 21 29  1  6  0  0  0
 21 20  1  0  0  0  0
 22 28  1  0  0  0  0
 23 21  1  6  0  0  0
 23 26  1  0  0  0  0
 26 25  1  0  0  0  0
 27 22  2  0  0  0  0
 27 23  1  0  0  0  0
 28 24  1  6  0  0  0
 28 25  1  0  0  0  0
 30 29  1  0  0  0  0
 31 30  1  0  0  0  0
 32 31  1  0  0  0  0
 33 32  1  0  0  0  0
M  END
>  <MODEL>
3

>  <REMARK>
 VINA RESULT:      -6.4      1.341      3.033
  Name = 
  9 active torsions:
  status: ('A' for Active; 'I' for Inactive)
    1  A    between atoms: C_5  and  C_9
    2  A    between atoms: C_6  and  C_8
    3  A    between atoms: C_8  and  N_30
    4  A    between atoms: C_9  and  C_17
    5  A    between atoms: C_9  and  C_32
    6  A    between atoms: C_13  and  C_26
    7  A    between atoms: C_17  and  N_30
    8  A    between atoms: N_24  and  C_27
    9  A    between atoms: N_24  and  C_32
                            x       y       z     vdW  Elec       q    Type
                         _______ _______ _______ _____ _____    ______ ____

>  <TORSDO>
F 9

$$$$
=
 OpenBabel11042421253D

 33 37  0  0  1  0  0  0  0  0999 V2000
  160.4840  208.9900  152.1270 N   0  0  0  0  0  2  0  0  0  0  0  0
  161.1310  208.5990  154.5750 C   0  0  2  0  0  3  0  0  0  0  0  0
  159.8130  207.9070  156.3940 N   0  0  0  0  0  0  0  0  0  0  0  0
  160.4000  210.8560  153.6300 C   0  0  0  0  0  0  0  0  0  0  0  0
  160.7420  210.0660  156.6240 N   0  0  0  0  0  2  0  0  0  0  0  0
  160.7380  207.1350  154.3600 C   0  0  0  0  0  3  0  0  0  0  0  0
  160.5100  208.8670  155.9010 C   0  0  0  0  0  0  0  0  0  0  0  0
  160.7650  211.5900  154.8180 N   0  0  0  0  0  2  0  0  0  0  0  0
  159.7810  206.7770  155.4920 C   0  0  0  0  0  3  0  0  0  0  0  0
  160.6110  209.5150  153.4640 C   0  0  0  0  0  0  0  0  0  0  0  0
  161.5000  211.1130  155.9780 C   0  0  0  0  0  2  0  0  0  0  0  0
  158.3110  212.7900  151.4270 C   0  0  0  0  0  3  0  0  0  0  0  0
  159.6340  212.9860  150.7630 C   0  0  1  0  0  3  0  0  0  0  0  0
  160.0210  214.4530  150.8100 C   0  0  0  0  0  1  0  0  0  0  0  0
  159.8040  211.6800  152.5470 C   0  0  0  0  0  0  0  0  0  0  0  0
  160.5230  212.2170  151.6180 N   0  0  0  0  0  0  0  0  0  0  0  0
  158.4280  212.0270  152.4610 N   0  0  0  0  0  0  0  0  0  0  0  0
  162.6870  207.9830  151.6730 C   0  0  0  0  0  2  0  0  0  0  0  0
  162.8760  209.4890  151.5320 C   0  0  0  0  0  2  0  0  0  0  0  0
  161.5600  208.8460  151.1500 C   0  0  0  0  0  0  0  0  0  0  0  0
  161.1720  208.6430  149.6720 C   0  0  2  0  0  3  0  0  0  0  0  0
  161.0330  204.9800  150.4460 C   0  0  0  0  0  3  0  0  0  0  0  0
  160.7490  207.2050  149.3440 C   0  0  1  0  0  3  0  0  0  0  0  0
  160.9400  203.0760  149.0320 O   0  0  0  0  0  1  0  0  0  0  0  0
  161.1180  205.1940  147.9310 C   0  0  0  0  0  2  0  0  0  0  0  0
  161.5360  206.6390  148.1630 C   0  0  0  0  0  2  0  0  0  0  0  0
  160.7440  206.2870  150.5460 C   0  0  0  0  0  3  0  0  0  0  0  0
  161.4860  204.3520  149.1530 C   0  0  1  0  0  3  0  0  0  0  0  0
  162.0580  209.3310  148.6220 C   0  0  0  0  0  2  0  0  0  0  0  0
  161.5460  210.6450  148.2670 N   0  0  0  0  0  2  0  0  0  0  0  0
  162.6430  211.5830  148.4390 C   0  0  0  0  0  2  0  0  0  0  0  0
  162.5130  212.7170  147.4380 C   0  0  0  0  0  2  0  0  0  0  0  0
  162.3670  213.9300  148.1130 O   0  0  0  0  0  1  0  0  0  0  0  0
  1 10  1  0  0  0  0
  2  6  1  6  0  0  0
  2  7  1  0  0  0  0
  4  8  1  0  0  0  0
  6  9  2  0  0  0  0
  7  3  2  0  0  0  0
  7  5  1  0  0  0  0
  8 11  1  0  0  0  0
  9  3  1  0  0  0  0
 10  4  2  0  0  0  0
 10  2  1  0  0  0  0
 11  5  1  0  0  0  0
 12 17  2  0  0  0  0
 13 14  1  1  0  0  0
 13 12  1  0  0  0  0
 13 16  1  0  0  0  0
 15  4  1  0  0  0  0
 16 15  2  0  0  0  0
 17 15  1  0  0  0  0
 19 18  1  0  0  0  0
 20 19  1  0  0  0  0
 20 18  1  0  0  0  0
 20  1  1  0  0  0  0
 21 29  1  6  0  0  0
 21 20  1  0  0  0  0
 22 27  2  0  0  0  0
 23 21  1  1  0  0  0
 23 27  1  0  0  0  0
 25 26  1  0  0  0  0
 25 28  1  0  0  0  0
 26 23  1  0  0  0  0
 28 24  1  6  0  0  0
 28 22  1  0  0  0  0
 30 31  1  0  0  0  0
 30 29  1  0  0  0  0
 32 33  1  0  0  0  0
 32 31  1  0  0  0  0
M  END
>  <MODEL>
4

>  <REMARK>
 VINA RESULT:      -5.4      2.147      3.715
  Name = 
  9 active torsions:
  status: ('A' for Active; 'I' for Inactive)
    1  A    between atoms: C_5  and  C_9
    2  A    between atoms: C_6  and  C_8
    3  A    between atoms: C_8  and  N_30
    4  A    between atoms: C_9  and  C_17
    5  A    between atoms: C_9  and  C_32
    6  A    between atoms: C_13  and  C_26
    7  A    between atoms: C_17  and  N_30
    8  A    between atoms: N_24  and  C_27
    9  A    between atoms: N_24  and  C_32
                            x       y       z     vdW  Elec       q    Type
                         _______ _______ _______ _____ _____    ______ ____

>  <TORSDO>
F 9

$$$$
=
 OpenBabel11042421253D

 33 37  0  0  1  0  0  0  0  0999 V2000
  160.8450  207.2770  149.0370 N   0  0  0  0  0  2  0  0  0  0  0  0
  160.4560  205.7410  151.0490 C   0  0  2  0  0  3  0  0  0  0  0  0
  161.9580  205.0060  152.7010 N   0  0  0  0  0  0  0  0  0  0  0  0
  161.0760  204.9120  148.7140 C   0  0  0  0  0  0  0  0  0  0  0  0
  161.0480  203.2820  151.3680 N   0  0  0  0  0  2  0  0  0  0  0  0
  160.8310  206.9350  151.9300 C   0  0  0  0  0  3  0  0  0  0  0  0
  161.2090  204.6470  151.7210 C   0  0  0  0  0  0  0  0  0  0  0  0
  160.8320  203.5250  149.0280 N   0  0  0  0  0  0  0  0  0  0  0  0
  161.9010  206.4380  152.8950 C   0  0  0  0  0  3  0  0  0  0  0  0
  160.8540  205.9440  149.5850 C   0  0  1  0  0  3  0  0  0  0  0  0
  160.2220  202.9680  150.2240 C   0  0  0  0  0  2  0  0  0  0  0  0
  162.8280  205.0790  145.5750 C   0  0  0  0  0  3  0  0  0  0  0  0
  161.5690  205.7920  145.2040 C   0  0  1  0  0  3  0  0  0  0  0  0
  160.8290  205.0080  144.1360 C   0  0  0  0  0  1  0  0  0  0  0  0
  161.5530  205.1630  147.3300 C   0  0  0  0  0  0  0  0  0  0  0  0
  160.8180  205.7550  146.4480 N   0  0  0  0  0  0  0  0  0  0  0  0
  162.8020  204.7220  146.8140 N   0  0  0  0  0  0  0  0  0  0  0  0
  162.8940  208.0180  147.8860 C   0  0  0  0  0  2  0  0  0  0  0  0
  163.3230  207.6220  149.2940 C   0  0  0  0  0  2  0  0  0  0  0  0
  161.9560  208.2260  149.0540 C   0  0  0  0  0  0  0  0  0  0  0  0
  161.6520  209.6880  149.4360 C   0  0  2  0  0  3  0  0  0  0  0  0
  163.1100  212.8250  147.9980 C   0  0  0  0  0  3  0  0  0  0  0  0
  161.8650  210.6770  148.2830 C   0  0  1  0  0  3  0  0  0  0  0  0
  162.3320  214.2850  146.2960 O   0  0  0  0  0  1  0  0  0  0  0  0
  160.8860  212.4630  146.8590 C   0  0  0  0  0  2  0  0  0  0  0  0
  160.5910  211.4570  147.9640 C   0  0  0  0  0  2  0  0  0  0  0  0
  163.0740  211.5670  148.4640 C   0  0  0  0  0  3  0  0  0  0  0  0
  161.9150  213.4790  147.3540 C   0  0  1  0  0  3  0  0  0  0  0  0
  162.1400  210.1590  150.8150 C   0  0  0  0  0  2  0  0  0  0  0  0
  161.0290  210.5020  151.6880 N   0  0  0  0  0  2  0  0  0  0  0  0
  161.5000  210.3280  153.0530 C   0  0  0  0  0  2  0  0  0  0  0  0
  160.3150  210.1920  153.9920 C   0  0  0  0  0  2  0  0  0  0  0  0
  160.4890  209.0760  154.8130 O   0  0  0  0  0  1  0  0  0  0  0  0
  1 20  1  0  0  0  0
  2  7  1  0  0  0  0
  2  6  1  1  0  0  0
  3  9  1  0  0  0  0
  4  8  2  0  0  0  0
  4 10  1  0  0  0  0
  5  7  1  0  0  0  0
  6  9  2  0  0  0  0
  7  3  2  0  0  0  0
  8 11  1  0  0  0  0
 10  1  1  6  0  0  0
 10  2  1  0  0  0  0
 11  5  1  0  0  0  0
 12 17  2  0  0  0  0
 13 14  1  6  0  0  0
 13 12  1  0  0  0  0
 13 16  1  0  0  0  0
 15  4  1  0  0  0  0
 16 15  2  0  0  0  0
 17 15  1  0  0  0  0
 18 20  1  0  0  0  0
 18 19  1  0  0  0  0
 20 19  1  0  0  0  0
 20 21  1  0  0  0  0
 21 29  1  1  0  0  0
 22 27  2  0  0  0  0
 23 27  1  0  0  0  0
 23 21  1  1  0  0  0
 25 28  1  0  0  0  0
 25 26  1  0  0  0  0
 26 23  1  0  0  0  0
 28 24  1  6  0  0  0
 28 22  1  0  0  0  0
 29 30  1  0  0  0  0
 30 31  1  0  0  0  0
 31 32  1  0  0  0  0
 32 33  1  0  0  0  0
M  END
>  <MODEL>
5

>  <REMARK>
 VINA RESULT:      -5.2      3.359      7.248
  Name = 
  9 active torsions:
  status: ('A' for Active; 'I' for Inactive)
    1  A    between atoms: C_5  and  C_9
    2  A    between atoms: C_6  and  C_8
    3  A    between atoms: C_8  and  N_30
    4  A    between atoms: C_9  and  C_17
    5  A    between atoms: C_9  and  C_32
    6  A    between atoms: C_13  and  C_26
    7  A    between atoms: C_17  and  N_30
    8  A    between atoms: N_24  and  C_27
    9  A    between atoms: N_24  and  C_32
                            x       y       z     vdW  Elec       q    Type
                         _______ _______ _______ _____ _____    ______ ____

>  <TORSDO>
F 9

$$$$
=
 OpenBabel11042421253D

 33 37  0  0  1  0  0  0  0  0999 V2000
  161.1970  210.5090  153.0280 N   0  0  0  0  0  2  0  0  0  0  0  0
  158.9560  211.6090  152.4540 C   0  0  2  0  0  3  0  0  0  0  0  0
  158.3910  213.8840  152.2790 N   0  0  0  0  0  0  0  0  0  0  0  0
  159.6630  210.9490  154.8180 C   0  0  0  0  0  0  0  0  0  0  0  0
  157.2410  212.7200  153.9810 N   0  0  0  0  0  2  0  0  0  0  0  0
  159.6480  212.1870  151.2180 C   0  0  0  0  0  3  0  0  0  0  0  0
  158.1940  212.7960  152.9320 C   0  0  0  0  0  0  0  0  0  0  0  0
  158.3590  211.1840  155.3870 N   0  0  0  0  0  2  0  0  0  0  0  0
  159.3600  213.6840  151.2240 C   0  0  0  0  0  3  0  0  0  0  0  0
  159.9510  211.0700  153.4860 C   0  0  0  0  0  0  0  0  0  0  0  0
  157.1130  211.4680  154.6940 C   0  0  0  0  0  2  0  0  0  0  0  0
  162.0040  209.1800  156.9030 C   0  0  0  0  0  3  0  0  0  0  0  0
  162.3630  210.5860  157.2510 C   0  0  1  0  0  3  0  0  0  0  0  0
  163.7890  210.8760  156.8200 C   0  0  0  0  0  1  0  0  0  0  0  0
  160.6970  210.5100  155.7900 C   0  0  0  0  0  0  0  0  0  0  0  0
  161.4380  211.3510  156.4320 N   0  0  0  0  0  0  0  0  0  0  0  0
  161.0330  209.1540  156.0530 N   0  0  0  0  0  0  0  0  0  0  0  0
  160.4660  208.1580  152.9220 C   0  0  0  0  0  2  0  0  0  0  0  0
  161.9650  208.1200  153.1910 C   0  0  0  0  0  2  0  0  0  0  0  0
  161.3690  209.2270  152.3480 C   0  0  0  0  0  0  0  0  0  0  0  0
  161.5300  209.2380  150.8150 C   0  0  2  0  0  3  0  0  0  0  0  0
  162.4140  206.9810  147.9580 C   0  0  0  0  0  3  0  0  0  0  0  0
  161.8110  207.8510  150.2220 C   0  0  1  0  0  3  0  0  0  0  0  0
  161.8410  204.7240  147.5020 O   0  0  0  0  0  1  0  0  0  0  0  0
  160.8740  205.6740  149.4740 C   0  0  0  0  0  2  0  0  0  0  0  0
  160.5400  207.0080  150.1280 C   0  0  0  0  0  2  0  0  0  0  0  0
  162.5900  207.8930  148.9270 C   0  0  0  0  0  3  0  0  0  0  0  0
  161.3540  205.9120  148.0420 C   0  0  1  0  0  3  0  0  0  0  0  0
  162.3410  210.3950  150.2120 C   0  0  0  0  0  2  0  0  0  0  0  0
  161.8600  210.7530  148.8870 N   0  0  0  0  0  2  0  0  0  0  0  0
  162.4890  212.0170  148.5400 C   0  0  0  0  0  2  0  0  0  0  0  0
  161.4710  212.9360  147.8880 C   0  0  0  0  0  2  0  0  0  0  0  0
  160.4330  212.1790  147.3420 O   0  0  0  0  0  1  0  0  0  0  0  0
  1 10  1  0  0  0  0
  2  6  1  6  0  0  0
  2  7  1  0  0  0  0
  2 10  1  0  0  0  0
  3  7  2  0  0  0  0
  4  8  1  0  0  0  0
  4 15  1  0  0  0  0
  5 11  1  0  0  0  0
  6  9  2  0  0  0  0
  7  5  1  0  0  0  0
  9  3  1  0  0  0  0
 10  4  2  0  0  0  0
 11  8  1  0  0  0  0
 12 13  1  0  0  0  0
 13 14  1  6  0  0  0
 15 17  1  0  0  0  0
 15 16  2  0  0  0  0
 16 13  1  0  0  0  0
 17 12  2  0  0  0  0
 18 19  1  0  0  0  0
 20 18  1  0  0  0  0
 20  1  1  0  0  0  0
 20 19  1  0  0  0  0
 21 29  1  1  0  0  0
 21 20  1  0  0  0  0
 22 28  1  0  0  0  0
 22 27  2  0  0  0  0
 23 21  1  6  0  0  0
 25 26  1  0  0  0  0
 26 23  1  0  0  0  0
 27 23  1  0  0  0  0
 28 24  1  1  0  0  0
 28 25  1  0  0  0  0
 30 29  1  0  0  0  0
 31 30  1  0  0  0  0
 32 31  1  0  0  0  0
 33 32  1  0  0  0  0
M  END
>  <MODEL>
6

>  <REMARK>
 VINA RESULT:      -5.2      2.130      5.324
  Name = 
  9 active torsions:
  status: ('A' for Active; 'I' for Inactive)
    1  A    between atoms: C_5  and  C_9
    2  A    between atoms: C_6  and  C_8
    3  A    between atoms: C_8  and  N_30
    4  A    between atoms: C_9  and  C_17
    5  A    between atoms: C_9  and  C_32
    6  A    between atoms: C_13  and  C_26
    7  A    between atoms: C_17  and  N_30
    8  A    between atoms: N_24  and  C_27
    9  A    between atoms: N_24  and  C_32
                            x       y       z     vdW  Elec       q    Type
                         _______ _______ _______ _____ _____    ______ ____

>  <TORSDO>
F 9

$$$$
=
 OpenBabel11042421253D

 33 37  0  0  1  0  0  0  0  0999 V2000
  161.9890  205.1730  149.4200 N   0  0  0  0  0  2  0  0  0  0  0  0
  160.7870  203.1210  150.3720 C   0  0  2  0  0  3  0  0  0  0  0  0
  161.6570  201.0610  151.0930 N   0  0  0  0  0  0  0  0  0  0  0  0
  161.1640  203.5310  147.8790 C   0  0  0  0  0  0  0  0  0  0  0  0
  160.1880  200.9110  149.2510 N   0  0  0  0  0  2  0  0  0  0  0  0
  161.5810  203.3540  151.6590 C   0  0  0  0  0  3  0  0  0  0  0  0
  160.9120  201.6450  150.2250 C   0  0  0  0  0  0  0  0  0  0  0  0
  160.3000  202.4530  147.4640 N   0  0  0  0  0  0  0  0  0  0  0  0
  162.2310  202.0210  152.0100 C   0  0  0  0  0  3  0  0  0  0  0  0
  161.3550  203.9010  149.1820 C   0  0  1  0  0  3  0  0  0  0  0  0
  159.4080  201.6500  148.2830 C   0  0  0  0  0  2  0  0  0  0  0  0
  163.2950  204.7800  145.2610 C   0  0  0  0  0  3  0  0  0  0  0  0
  162.1200  205.6840  145.0880 C   0  0  1  0  0  3  0  0  0  0  0  0
  161.4880  205.4530  143.7280 C   0  0  0  0  0  1  0  0  0  0  0  0
  161.8170  204.2690  146.7680 C   0  0  0  0  0  0  0  0  0  0  0  0
  161.2200  205.2220  146.1310 N   0  0  0  0  0  0  0  0  0  0  0  0
  163.1030  203.9650  146.2430 N   0  0  0  0  0  0  0  0  0  0  0  0
  159.8130  206.2590  149.8170 C   0  0  0  0  0  2  0  0  0  0  0  0
  160.4680  207.0350  148.6810 C   0  0  0  0  0  2  0  0  0  0  0  0
  161.3170  206.4210  149.7740 C   0  0  0  0  0  0  0  0  0  0  0  0
  161.9440  207.2910  150.8810 C   0  0  2  0  0  3  0  0  0  0  0  0
  160.6790  209.1820  153.8570 C   0  0  0  0  0  3  0  0  0  0  0  0
  161.0640  207.4170  152.1310 C   0  0  1  0  0  3  0  0  0  0  0  0
  159.8990  208.4450  155.9740 O   0  0  0  0  0  1  0  0  0  0  0  0
  160.6850  206.7380  154.4910 C   0  0  0  0  0  2  0  0  0  0  0  0
  161.5580  206.5190  153.2640 C   0  0  0  0  0  2  0  0  0  0  0  0
  160.8320  208.8460  152.5670 C   0  0  0  0  0  3  0  0  0  0  0  0
  160.8320  208.1810  154.9740 C   0  0  1  0  0  3  0  0  0  0  0  0
  162.6490  208.5800  150.4320 C   0  0  0  0  0  2  0  0  0  0  0  0
  161.9550  209.2110  149.3200 N   0  0  0  0  0  2  0  0  0  0  0  0
  161.9670  210.6420  149.5760 C   0  0  0  0  0  2  0  0  0  0  0  0
  161.9640  211.4000  148.2610 C   0  0  0  0  0  2  0  0  0  0  0  0
  163.0670  212.2540  148.2050 O   0  0  0  0  0  1  0  0  0  0  0  0
  1 20  1  0  0  0  0
  2  6  1  1  0  0  0
  3  9  1  0  0  0  0
  4 10  1  0  0  0  0
  5  7  1  0  0  0  0
  6  9  2  0  0  0  0
  7  2  1  0  0  0  0
  7  3  2  0  0  0  0
  8  4  2  0  0  0  0
  8 11  1  0  0  0  0
 10  1  1  6  0  0  0
 10  2  1  0  0  0  0
 11  5  1  0  0  0  0
 12 17  2  0  0  0  0
 13 14  1  6  0  0  0
 13 12  1  0  0  0  0
 13 16  1  0  0  0  0
 15  4  1  0  0  0  0
 16 15  2  0  0  0  0
 17 15  1  0  0  0  0
 19 20  1  0  0  0  0
 19 18  1  0  0  0  0
 20 18  1  0  0  0  0
 20 21  1  0  0  0  0
 21 29  1  6  0  0  0
 22 28  1  0  0  0  0
 23 21  1  6  0  0  0
 23 27  1  0  0  0  0
 23 26  1  0  0  0  0
 25 28  1  0  0  0  0
 26 25  1  0  0  0  0
 27 22  2  0  0  0  0
 28 24  1  1  0  0  0
 30 31  1  0  0  0  0
 30 29  1  0  0  0  0
 32 31  1  0  0  0  0
 33 32  1  0  0  0  0
M  END
>  <MODEL>
7

>  <REMARK>
 VINA RESULT:      -5.0      3.831      8.357
  Name = 
  9 active torsions:
  status: ('A' for Active; 'I' for Inactive)
    1  A    between atoms: C_5  and  C_9
    2  A    between atoms: C_6  and  C_8
    3  A    between atoms: C_8  and  N_30
    4  A    between atoms: C_9  and  C_17
    5  A    between atoms: C_9  and  C_32
    6  A    between atoms: C_13  and  C_26
    7  A    between atoms: C_17  and  N_30
    8  A    between atoms: N_24  and  C_27
    9  A    between atoms: N_24  and  C_32
                            x       y       z     vdW  Elec       q    Type
                         _______ _______ _______ _____ _____    ______ ____

>  <TORSDO>
F 9

$$$$
=
 OpenBabel11042421253D

 33 37  0  0  1  0  0  0  0  0999 V2000
  161.8930  208.8950  152.8560 N   0  0  0  0  0  2  0  0  0  0  0  0
  161.2270  209.4810  155.2590 C   0  0  2  0  0  3  0  0  0  0  0  0
  162.5350  209.5730  157.2100 N   0  0  0  0  0  0  0  0  0  0  0  0
  161.0970  207.1290  154.2700 C   0  0  0  0  0  0  0  0  0  0  0  0
  160.8170  207.9550  157.2610 N   0  0  0  0  0  2  0  0  0  0  0  0
  162.1810  210.6720  155.1470 C   0  0  0  0  0  3  0  0  0  0  0  0
  161.5660  208.9730  156.6170 C   0  0  0  0  0  0  0  0  0  0  0  0
  160.3650  206.5860  155.3880 N   0  0  0  0  0  2  0  0  0  0  0  0
  163.0920  210.6090  156.3680 C   0  0  0  0  0  3  0  0  0  0  0  0
  161.4460  208.4470  154.1510 C   0  0  0  0  0  0  0  0  0  0  0  0
  159.7710  207.3010  156.5060 C   0  0  0  0  0  2  0  0  0  0  0  0
  162.6010  205.0100  151.7790 C   0  0  0  0  0  3  0  0  0  0  0  0
  161.2080  204.4740  151.7650 C   0  0  1  0  0  3  0  0  0  0  0  0
  161.2080  203.0270  152.2230 C   0  0  0  0  0  1  0  0  0  0  0  0
  161.4200  206.1500  153.2010 C   0  0  0  0  0  0  0  0  0  0  0  0
  160.5490  205.3030  152.7610 N   0  0  0  0  0  0  0  0  0  0  0  0
  162.7060  205.9850  152.6190 N   0  0  0  0  0  0  0  0  0  0  0  0
  160.8300  211.0720  152.4050 C   0  0  0  0  0  2  0  0  0  0  0  0
  159.7130  210.0370  152.3380 C   0  0  0  0  0  2  0  0  0  0  0  0
  161.1160  209.6760  151.8970 C   0  0  0  0  0  0  0  0  0  0  0  0
  161.4750  209.5510  150.4030 C   0  0  2  0  0  3  0  0  0  0  0  0
  162.6090  207.0260  147.8790 C   0  0  0  0  0  3  0  0  0  0  0  0
  161.7480  208.1080  149.9610 C   0  0  1  0  0  3  0  0  0  0  0  0
  161.9630  204.7720  147.5090 O   0  0  0  0  0  1  0  0  0  0  0  0
  160.7890  205.9300  149.2430 C   0  0  0  0  0  2  0  0  0  0  0  0
  160.4520  207.3290  149.7420 C   0  0  0  0  0  2  0  0  0  0  0  0
  162.7040  208.0030  148.7940 C   0  0  0  0  0  3  0  0  0  0  0  0
  161.4820  206.0250  147.8840 C   0  0  1  0  0  3  0  0  0  0  0  0
  162.4240  210.6140  149.8280 C   0  0  0  0  0  2  0  0  0  0  0  0
  161.7410  211.4900  148.8890 N   0  0  0  0  0  2  0  0  0  0  0  0
  162.7670  212.2910  148.2420 C   0  0  0  0  0  2  0  0  0  0  0  0
  162.1190  213.3210  147.3340 C   0  0  0  0  0  2  0  0  0  0  0  0
  162.2980  212.9530  145.9990 O   0  0  0  0  0  1  0  0  0  0  0  0
  1 10  1  0  0  0  0
  2  6  1  6  0  0  0
  2  7  1  0  0  0  0
  4  8  1  0  0  0  0
  6  9  2  0  0  0  0
  7  3  2  0  0  0  0
  7  5  1  0  0  0  0
  8 11  1  0  0  0  0
  9  3  1  0  0  0  0
 10  4  2  0  0  0  0
 10  2  1  0  0  0  0
 11  5  1  0  0  0  0
 12 17  2  0  0  0  0
 13 12  1  0  0  0  0
 13 14  1  1  0  0  0
 13 16  1  0  0  0  0
 15  4  1  0  0  0  0
 16 15  2  0  0  0  0
 17 15  1  0  0  0  0
 19 18  1  0  0  0  0
 20 19  1  0  0  0  0
 20 18  1  0  0  0  0
 20  1  1  0  0  0  0
 21 29  1  1  0  0  0
 21 20  1  0  0  0  0
 22 28  1  0  0  0  0
 22 27  2  0  0  0  0
 23 21  1  6  0  0  0
 25 26  1  0  0  0  0
 26 23  1  0  0  0  0
 27 23  1  0  0  0  0
 28 24  1  1  0  0  0
 28 25  1  0  0  0  0
 30 29  1  0  0  0  0
 31 30  1  0  0  0  0
 32 31  1  0  0  0  0
 33 32  1  0  0  0  0
M  END
>  <MODEL>
8

>  <REMARK>
 VINA RESULT:      -4.8      2.155      5.589
  Name = 
  9 active torsions:
  status: ('A' for Active; 'I' for Inactive)
    1  A    between atoms: C_5  and  C_9
    2  A    between atoms: C_6  and  C_8
    3  A    between atoms: C_8  and  N_30
    4  A    between atoms: C_9  and  C_17
    5  A    between atoms: C_9  and  C_32
    6  A    between atoms: C_13  and  C_26
    7  A    between atoms: C_17  and  N_30
    8  A    between atoms: N_24  and  C_27
    9  A    between atoms: N_24  and  C_32
                            x       y       z     vdW  Elec       q    Type
                         _______ _______ _______ _____ _____    ______ ____

>  <TORSDO>
F 9

$$$$
=
 OpenBabel11042421253D

 33 37  0  0  1  0  0  0  0  0999 V2000
  160.7740  206.4280  149.1940 N   0  0  0  0  0  2  0  0  0  0  0  0
  160.2730  204.4190  150.7020 C   0  0  2  0  0  3  0  0  0  0  0  0
  161.6710  203.2700  152.2020 N   0  0  0  0  0  0  0  0  0  0  0  0
  161.0600  204.2300  148.2790 C   0  0  0  0  0  0  0  0  0  0  0  0
  160.8780  201.9600  150.4040 N   0  0  0  0  0  2  0  0  0  0  0  0
  160.5710  205.3380  151.8890 C   0  0  0  0  0  3  0  0  0  0  0  0
  160.9950  203.1840  151.1120 C   0  0  0  0  0  0  0  0  0  0  0  0
  160.8160  202.8110  148.2000 N   0  0  0  0  0  0  0  0  0  0  0  0
  161.5810  204.6000  152.7600 C   0  0  0  0  0  3  0  0  0  0  0  0
  160.7660  204.9980  149.3730 C   0  0  1  0  0  3  0  0  0  0  0  0
  160.1360  201.9610  149.1630 C   0  0  0  0  0  2  0  0  0  0  0  0
  163.0510  205.2700  145.4660 C   0  0  0  0  0  3  0  0  0  0  0  0
  161.7580  205.9350  145.1250 C   0  0  1  0  0  3  0  0  0  0  0  0
  161.2050  205.3570  143.8360 C   0  0  0  0  0  1  0  0  0  0  0  0
  161.6260  204.8350  147.0460 C   0  0  0  0  0  0  0  0  0  0  0  0
  160.9100  205.5470  146.2400 N   0  0  0  0  0  0  0  0  0  0  0  0
  162.9560  204.6360  146.5860 N   0  0  0  0  0  0  0  0  0  0  0  0
  162.7840  207.6740  148.5010 C   0  0  0  0  0  2  0  0  0  0  0  0
  163.2250  206.7680  149.6450 C   0  0  0  0  0  2  0  0  0  0  0  0
  161.8260  207.3470  149.6240 C   0  0  0  0  0  0  0  0  0  0  0  0
  161.4320  208.5140  150.5500 C   0  0  2  0  0  3  0  0  0  0  0  0
  161.2060  212.2460  150.3150 C   0  0  0  0  0  3  0  0  0  0  0  0
  161.9560  209.8740  150.0730 C   0  0  1  0  0  3  0  0  0  0  0  0
  161.9230  213.7630  148.6370 O   0  0  0  0  0  1  0  0  0  0  0  0
  162.2610  211.4400  148.1670 C   0  0  0  0  0  2  0  0  0  0  0  0
  161.7830  210.0500  148.5660 C   0  0  0  0  0  2  0  0  0  0  0  0
  161.4200  211.0430  150.8700 C   0  0  0  0  0  3  0  0  0  0  0  0
  161.3820  212.4950  148.8390 C   0  0  1  0  0  3  0  0  0  0  0  0
  161.5240  208.2590  152.0630 C   0  0  0  0  0  2  0  0  0  0  0  0
  160.4050  208.8550  152.7760 N   0  0  0  0  0  2  0  0  0  0  0  0
  160.8320  209.0290  154.1550 C   0  0  0  0  0  2  0  0  0  0  0  0
  161.2250  207.6870  154.7450 C   0  0  0  0  0  2  0  0  0  0  0  0
  160.0840  207.0080  155.1770 O   0  0  0  0  0  1  0  0  0  0  0  0
  1 20  1  0  0  0  0
  2  7  1  0  0  0  0
  2  6  1  1  0  0  0
  3  9  1  0  0  0  0
  4 10  1  0  0  0  0
  5  7  1  0  0  0  0
  6  9  2  0  0  0  0
  7  3  2  0  0  0  0
  8  4  2  0  0  0  0
  8 11  1  0  0  0  0
 10  1  1  6  0  0  0
 10  2  1  0  0  0  0
 11  5  1  0  0  0  0
 12 17  2  0  0  0  0
 13 14  1  6  0  0  0
 13 12  1  0  0  0  0
 13 16  1  0  0  0  0
 15  4  1  0  0  0  0
 16 15  2  0  0  0  0
 17 15  1  0  0  0  0
 18 20  1  0  0  0  0
 18 19  1  0  0  0  0
 20 19  1  0  0  0  0
 20 21  1  0  0  0  0
 21 29  1  1  0  0  0
 22 27  2  0  0  0  0
 23 21  1  1  0  0  0
 23 27  1  0  0  0  0
 25 26  1  0  0  0  0
 25 28  1  0  0  0  0
 26 23  1  0  0  0  0
 28 24  1  1  0  0  0
 28 22  1  0  0  0  0
 29 30  1  0  0  0  0
 30 31  1  0  0  0  0
 31 32  1  0  0  0  0
 32 33  1  0  0  0  0
M  END
>  <MODEL>
9

>  <REMARK>
 VINA RESULT:      -4.8      3.090      7.316
  Name = 
  9 active torsions:
  status: ('A' for Active; 'I' for Inactive)
    1  A    between atoms: C_5  and  C_9
    2  A    between atoms: C_6  and  C_8
    3  A    between atoms: C_8  and  N_30
    4  A    between atoms: C_9  and  C_17
    5  A    between atoms: C_9  and  C_32
    6  A    between atoms: C_13  and  C_26
    7  A    between atoms: C_17  and  N_30
    8  A    between atoms: N_24  and  C_27
    9  A    between atoms: N_24  and  C_32
                            x       y       z     vdW  Elec       q    Type
                         _______ _______ _______ _____ _____    ______ ____

>  <TORSDO>
F 9

$$$$
