=
 OpenBabel11052410593D

 37 43  0  0  1  0  0  0  0  0999 V2000
  161.4780  209.8200  150.5790 N   0  0  0  0  0  0  0  0  0  0  0  0
  161.9290  212.1540  146.8100 C   0  0  0  0  0  3  0  0  0  0  0  0
  161.3600  211.0650  152.9050 C   0  0  1  0  0  3  0  0  0  0  0  0
  161.1060  210.0360  147.6030 N   0  0  0  0  0  2  0  0  0  0  0  0
  160.8240  207.7540  147.8240 O   0  0  0  0  0  0  0  0  0  0  0  0
  161.2230  211.8480  151.6790 N   0  0  0  0  0  2  0  0  0  0  0  0
  161.2280  208.8270  148.3510 C   0  0  0  0  0  0  0  0  0  0  0  0
  162.2540  207.5730  150.2720 C   0  0  0  0  0  0  0  0  0  0  0  0
  160.6150  210.2830  155.1100 N   0  0  0  0  0  0  0  0  0  0  0  0
  161.7840  211.8400  149.2180 C   0  0  0  0  0  0  0  0  0  0  0  0
  160.4160  211.2980  154.0640 C   0  0  2  0  0  3  0  0  0  0  0  0
  162.3930  213.4560  146.9910 C   0  0  0  0  0  0  0  0  0  0  0  0
  160.0790  210.2410  153.0460 C   0  0  2  0  0  0  0  0  0  0  0  0
  161.1020  207.5790  152.4890 C   0  0  2  0  0  3  0  0  0  0  0  0
  161.6350  211.3290  147.9040 C   0  0  0  0  0  0  0  0  0  0  0  0
  162.9530  206.7110  149.5340 C   0  0  0  0  0  2  0  0  0  0  0  0
  162.5450  213.9630  148.2790 C   0  0  0  0  0  3  0  0  0  0  0  0
  161.4340  211.1120  150.4550 C   0  0  0  0  0  0  0  0  0  0  0  0
  160.1750  209.2470  154.1720 C   0  0  1  0  0  3  0  0  0  0  0  0
  162.2360  213.1640  149.3790 C   0  0  0  0  0  3  0  0  0  0  0  0
  162.3940  207.4760  151.7920 C   0  0  1  0  0  3  0  0  0  0  0  0
  161.7840  208.8060  149.6700 N   0  0  0  0  0  0  0  0  0  0  0  0
  162.7830  214.4530  145.6040 Cl  0  0  0  0  0  0  0  0  0  0  0  0
  159.5480  210.4600  156.0810 C   0  0  0  0  0  1  0  0  0  0  0  0
  161.2900  208.2230  153.8740 C   0  0  0  0  0  2  0  0  0  0  0  0
  161.7810  206.2770  152.4330 N   0  0  0  0  0  0  0  0  0  0  0  0
  161.0620  205.5070  151.5010 N   0  0  0  0  0  2  0  0  0  0  0  0
  160.5720  203.3630  150.3910 N   0  0  0  0  0  2  0  0  0  0  0  0
  161.3380  204.1190  151.3290 C   0  0  0  0  0  0  0  0  0  0  0  0
  162.2610  203.5690  151.9890 O   0  0  0  0  0  0  0  0  0  0  0  0
  159.6630  201.3660  149.3650 C   0  0  0  0  0  2  0  0  0  0  0  0
  161.0060  201.6570  148.7270 C   0  0  0  0  0  2  0  0  0  0  0  0
  160.7890  201.9380  150.2020 C   0  0  0  0  0  3  0  0  0  0  0  0
  158.7230  210.6830  152.4730 C   0  0  0  0  0  2  0  0  0  0  0  0
  158.1970  211.9750  153.0900 C   0  0  0  0  0  2  0  0  0  0  0  0
  158.5180  214.2370  152.6090 C   0  0  0  0  0  1  0  0  0  0  0  0
  158.0020  212.9910  152.0630 N   0  0  0  0  0  2  0  0  0  0  0  0
  2 12  2  0  0  0  0
  2 15  1  0  0  0  0
  3  6  1  6  0  0  0
  3 13  1  0  0  0  0
  3 11  1  0  0  0  0
  4 15  1  0  0  0  0
  4  7  1  0  0  0  0
  5  7  2  0  0  0  0
  7 22  1  0  0  0  0
  9 24  1  0  0  0  0
 10 20  1  0  0  0  0
 10 18  1  0  0  0  0
 11  9  1  1  0  0  0
 12 17  1  0  0  0  0
 13 34  1  6  0  0  0
 13 11  1  0  0  0  0
 13 19  1  0  0  0  0
 14 25  1  1  0  0  0
 15 10  2  0  0  0  0
 16  8  2  0  0  0  0
 17 20  2  0  0  0  0
 18  1  2  0  0  0  0
 18  6  1  0  0  0  0
 19 25  1  6  0  0  0
 19  9  1  0  0  0  0
 21  8  1  6  0  0  0
 21 26  1  0  0  0  0
 21 14  1  0  0  0  0
 22  8  1  0  0  0  0
 22  1  1  0  0  0  0
 23 12  1  0  0  0  0
 26 14  1  0  0  0  0
 27 26  1  0  0  0  0
 28 29  1  0  0  0  0
 29 27  1  0  0  0  0
 29 30  2  0  0  0  0
 31 33  1  0  0  0  0
 32 31  1  0  0  0  0
 32 33  1  0  0  0  0
 33 28  1  0  0  0  0
 34 35  1  0  0  0  0
 37 36  1  0  0  0  0
 37 35  1  0  0  0  0
M  END
>  <MODEL>
1

>  <REMARK>
 VINA RESULT:      -1.9      0.000      0.000
  Name = 
  5 active torsions:
  status: ('A' for Active; 'I' for Inactive)
    1  A    between atoms: N_1  and  N_37
    2  A    between atoms: N_3  and  C_27
    3  A    between atoms: C_10  and  C_23
    4  A    between atoms: C_10  and  N_24
    5  A    between atoms: C_19  and  C_23
                            x       y       z     vdW  Elec       q    Type
                         _______ _______ _______ _____ _____    ______ ____

>  <TORSDO>
F 5

$$$$
=
 OpenBabel11052410593D

 37 43  0  0  1  0  0  0  0  0999 V2000
  161.0000  211.4180  150.3660 N   0  0  0  0  0  0  0  0  0  0  0  0
  162.4000  212.1460  146.1990 C   0  0  0  0  0  3  0  0  0  0  0  0
  160.1920  213.4350  151.8670 C   0  0  1  0  0  3  0  0  0  0  0  0
  161.4660  210.4050  147.5740 N   0  0  0  0  0  2  0  0  0  0  0  0
  161.2170  208.3740  148.6430 O   0  0  0  0  0  0  0  0  0  0  0  0
  160.3750  213.6520  150.4330 N   0  0  0  0  0  2  0  0  0  0  0  0
  161.4180  209.6130  148.7590 C   0  0  0  0  0  0  0  0  0  0  0  0
  161.9120  209.3680  151.2110 C   0  0  0  0  0  0  0  0  0  0  0  0
  158.8900  213.4700  153.9480 N   0  0  0  0  0  0  0  0  0  0  0  0
  161.5990  212.7730  148.4090 C   0  0  0  0  0  0  0  0  0  0  0  0
  158.9540  213.9580  152.5620 C   0  0  2  0  0  3  0  0  0  0  0  0
  162.7470  213.4700  145.9310 C   0  0  0  0  0  0  0  0  0  0  0  0
  158.9540  212.5510  152.0240 C   0  0  2  0  0  0  0  0  0  0  0  0
  160.1870  210.0640  152.8800 C   0  0  2  0  0  3  0  0  0  0  0  0
  161.8420  211.7770  147.4300 C   0  0  0  0  0  0  0  0  0  0  0  0
  162.8200  208.4010  151.0870 C   0  0  0  0  0  2  0  0  0  0  0  0
  162.5150  214.4530  146.8900 C   0  0  0  0  0  3  0  0  0  0  0  0
  160.9450  212.5390  149.7130 C   0  0  0  0  0  0  0  0  0  0  0  0
  158.7670  212.0980  153.4470 C   0  0  1  0  0  3  0  0  0  0  0  0
  161.9400  214.1070  148.1120 C   0  0  0  0  0  3  0  0  0  0  0  0
  161.6250  209.8900  152.6200 C   0  0  1  0  0  3  0  0  0  0  0  0
  161.5840  210.1880  150.0600 N   0  0  0  0  0  0  0  0  0  0  0  0
  163.4730  213.8970  144.3940 Cl  0  0  0  0  0  0  0  0  0  0  0  0
  157.5880  213.8500  154.4720 C   0  0  0  0  0  1  0  0  0  0  0  0
  159.9580  211.2140  153.8760 C   0  0  0  0  0  2  0  0  0  0  0  0
  160.9010  208.9570  153.5320 N   0  0  0  0  0  0  0  0  0  0  0  0
  160.5000  207.7900  152.8580 N   0  0  0  0  0  2  0  0  0  0  0  0
  160.6560  205.3630  152.4630 N   0  0  0  0  0  2  0  0  0  0  0  0
  161.1060  206.5320  153.1480 C   0  0  0  0  0  0  0  0  0  0  0  0
  162.0410  206.4580  153.9910 O   0  0  0  0  0  0  0  0  0  0  0  0
  160.5150  203.0130  151.8940 C   0  0  0  0  0  2  0  0  0  0  0  0
  161.8880  203.5150  151.4950 C   0  0  0  0  0  2  0  0  0  0  0  0
  161.2160  204.0510  152.7460 C   0  0  0  0  0  3  0  0  0  0  0  0
  157.7960  212.5320  151.0120 C   0  0  0  0  0  2  0  0  0  0  0  0
  156.9770  213.8190  151.0040 C   0  0  0  0  0  2  0  0  0  0  0  0
  154.9810  214.2290  149.8630 C   0  0  0  0  0  1  0  0  0  0  0  0
  156.4150  214.0590  149.6810 N   0  0  0  0  0  2  0  0  0  0  0  0
  2 15  1  0  0  0  0
  3  6  1  6  0  0  0
  3 13  1  0  0  0  0
  3 11  1  0  0  0  0
  4  7  1  0  0  0  0
  5  7  2  0  0  0  0
  7 22  1  0  0  0  0
  9 24  1  0  0  0  0
 10 18  1  0  0  0  0
 11  9  1  1  0  0  0
 12  2  2  0  0  0  0
 12 17  1  0  0  0  0
 13 34  1  6  0  0  0
 13 11  1  0  0  0  0
 13 19  1  0  0  0  0
 14 26  1  0  0  0  0
 14 25  1  1  0  0  0
 15  4  1  0  0  0  0
 15 10  2  0  0  0  0
 16  8  2  0  0  0  0
 17 20  2  0  0  0  0
 18  1  2  0  0  0  0
 18  6  1  0  0  0  0
 19 25  1  1  0  0  0
 19  9  1  0  0  0  0
 20 10  1  0  0  0  0
 21  8  1  6  0  0  0
 21 14  1  0  0  0  0
 21 26  1  0  0  0  0
 22  1  1  0  0  0  0
 22  8  1  0  0  0  0
 23 12  1  0  0  0  0
 27 29  1  0  0  0  0
 27 26  1  0  0  0  0
 28 33  1  0  0  0  0
 28 29  1  0  0  0  0
 29 30  2  0  0  0  0
 31 33  1  0  0  0  0
 32 31  1  0  0  0  0
 32 33  1  0  0  0  0
 35 34  1  0  0  0  0
 37 36  1  0  0  0  0
 37 35  1  0  0  0  0
M  END
>  <MODEL>
2

>  <REMARK>
 VINA RESULT:      -1.7      1.724      2.628
  Name = 
  5 active torsions:
  status: ('A' for Active; 'I' for Inactive)
    1  A    between atoms: N_1  and  N_37
    2  A    between atoms: N_3  and  C_27
    3  A    between atoms: C_10  and  C_23
    4  A    between atoms: C_10  and  N_24
    5  A    between atoms: C_19  and  C_23
                            x       y       z     vdW  Elec       q    Type
                         _______ _______ _______ _____ _____    ______ ____

>  <TORSDO>
F 5

$$$$
