=
 OpenBabel11042420463D

 27 31  0  0  1  0  0  0  0  0999 V2000
  161.6020  207.2840  154.4280 N   0  0  0  0  0  0  0  0  0  0  0  0
  160.7570  208.7160  152.6990 C   0  0  0  0  0  0  0  0  0  0  0  0
  161.0590  208.4640  154.0080 C   0  0  2  0  0  3  0  0  0  0  0  0
  160.8150  207.7780  150.3630 N   0  0  0  0  0  2  0  0  0  0  0  0
  161.5440  206.5270  152.1570 C   0  0  0  0  0  0  0  0  0  0  0  0
  160.2120  210.0970  152.5840 C   0  0  0  0  0  3  0  0  0  0  0  0
  160.2500  210.5700  153.9780 N   0  0  0  0  0  0  0  0  0  0  0  0
  161.7190  205.6490  150.9590 C   0  0  2  0  0  3  0  0  0  0  0  0
  160.8900  209.8230  156.2250 C   0  0  0  0  0  1  0  0  0  0  0  0
  161.8540  206.2950  153.5110 C   0  0  0  0  0  3  0  0  0  0  0  0
  161.0040  207.7280  151.7600 C   0  0  0  0  0  0  0  0  0  0  0  0
  161.2630  206.5390  149.8750 N   0  0  0  0  0  0  0  0  0  0  0  0
  160.7240  209.6480  154.7580 C   0  0  0  0  0  0  0  0  0  0  0  0
  161.7360  205.7690  145.7280 C   0  0  0  0  0  0  0  0  0  0  0  0
  162.6080  205.7210  147.9860 C   0  0  0  0  0  3  0  0  0  0  0  0
  162.7660  205.4620  146.6220 C   0  0  0  0  0  3  0  0  0  0  0  0
  161.4190  206.2850  148.4700 C   0  0  0  0  0  0  0  0  0  0  0  0
  160.5420  206.3180  146.2040 C   0  0  0  0  0  3  0  0  0  0  0  0
  160.3840  206.5760  147.5690 C   0  0  0  0  0  3  0  0  0  0  0  0
  161.8930  205.4720  144.2790 C   0  0  0  0  0  2  0  0  0  0  0  0
  160.8090  204.7180  143.8310 O   0  0  0  0  0  1  0  0  0  0  0  0
  160.7890  204.4440  151.0660 C   0  0  1  0  0  3  0  0  0  0  0  0
  160.2620  204.0690  149.6950 C   0  0  0  0  0  2  0  0  0  0  0  0
  161.3860  203.2680  150.3140 C   0  0  2  0  0  3  0  0  0  0  0  0
  161.1920  200.7820  148.8800 N   0  0  0  0  0  2  0  0  0  0  0  0
  160.7810  200.8260  150.1040 C   0  0  0  0  0  3  0  0  0  0  0  0
  160.8530  202.0330  150.8640 N   0  0  0  0  0  2  0  0  0  0  0  0
  3  2  1  6  0  0  0
  3  1  1  0  0  0  0
  3 13  1  0  0  0  0
  4 11  1  0  0  0  0
  5 10  1  0  0  0  0
  6  2  2  0  0  0  0
  6  7  1  0  0  0  0
  7 13  2  0  0  0  0
  8 22  1  0  0  0  0
  8  5  1  1  0  0  0
 10  1  2  0  0  0  0
 11  5  2  0  0  0  0
 11  2  1  0  0  0  0
 12  4  1  0  0  0  0
 12  8  1  0  0  0  0
 13  9  1  0  0  0  0
 14 18  2  0  0  0  0
 14 16  1  0  0  0  0
 15 17  1  0  0  0  0
 16 15  2  0  0  0  0
 17 12  1  0  0  0  0
 18 19  1  0  0  0  0
 19 17  2  0  0  0  0
 20 14  1  0  0  0  0
 21 20  1  0  0  0  0
 22 23  1  6  0  0  0
 23 24  1  0  0  0  0
 24 27  1  1  0  0  0
 24 22  1  0  0  0  0
 25 26  2  0  0  0  0
 26 27  1  0  0  0  0
M  END
>  <MODEL>
1

>  <REMARK>
 VINA RESULT:      -7.4      0.000      0.000
  Name = 
  4 active torsions:
  status: ('A' for Active; 'I' for Inactive)
    1  A    between atoms: C_2  and  C_4
    2  A    between atoms: C_6  and  C_14
    3  A    between atoms: N_18  and  C_25
    4  A    between atoms: C_21  and  N_26
                            x       y       z     vdW  Elec       q    Type
                         _______ _______ _______ _____ _____    ______ ____

>  <TORSDO>
F 4

$$$$
=
 OpenBabel11042420463D

 27 31  0  0  1  0  0  0  0  0999 V2000
  162.5610  206.2480  147.3930 N   0  0  0  0  0  0  0  0  0  0  0  0
  161.2340  205.0560  148.9970 C   0  0  0  0  0  0  0  0  0  0  0  0
  161.8330  205.1580  147.7730 C   0  0  0  0  0  0  0  0  0  0  0  0
  160.8750  206.2090  151.2060 N   0  0  0  0  0  2  0  0  0  0  0  0
  162.0870  207.2230  149.5280 C   0  0  0  0  0  0  0  0  0  0  0  0
  160.5500  203.7370  149.0950 C   0  0  0  0  0  3  0  0  0  0  0  0
  160.8420  203.1300  147.7860 N   0  0  0  0  0  0  0  0  0  0  0  0
  162.0820  208.1980  150.6630 C   0  0  2  0  0  3  0  0  0  0  0  0
  162.0180  203.6070  145.6860 C   0  0  0  0  0  1  0  0  0  0  0  0
  162.7020  207.3000  148.2640 C   0  0  0  0  0  2  0  0  0  0  0  0
  161.3640  206.1100  149.8870 C   0  0  0  0  0  0  0  0  0  0  0  0
  161.3220  207.4530  151.6840 N   0  0  0  0  0  0  0  0  0  0  0  0
  161.5570  203.9350  147.0620 C   0  0  0  0  0  0  0  0  0  0  0  0
  160.9360  208.5840  155.7570 C   0  0  0  0  0  0  0  0  0  0  0  0
  161.3270  209.1730  153.4410 C   0  0  0  0  0  3  0  0  0  0  0  0
  161.1970  209.5500  154.7810 C   0  0  0  0  0  3  0  0  0  0  0  0
  161.1950  207.8290  153.0640 C   0  0  0  0  0  0  0  0  0  0  0  0
  160.7890  207.2430  155.3880 C   0  0  0  0  0  3  0  0  0  0  0  0
  160.9190  206.8680  154.0480 C   0  0  0  0  0  3  0  0  0  0  0  0
  160.7730  208.9860  157.1790 C   0  0  0  0  0  2  0  0  0  0  0  0
  159.9510  210.1100  157.2610 O   0  0  0  0  0  1  0  0  0  0  0  0
  161.3140  209.4520  150.2580 C   0  0  1  0  0  3  0  0  0  0  0  0
  161.9320  210.6740  150.9070 C   0  0  0  0  0  2  0  0  0  0  0  0
  162.2190  210.3690  149.4530 C   0  0  2  0  0  3  0  0  0  0  0  0
  163.2080  212.5800  147.9040 N   0  0  0  0  0  2  0  0  0  0  0  0
  161.9450  212.3090  147.8610 C   0  0  0  0  0  3  0  0  0  0  0  0
  161.3990  211.2230  148.6100 N   0  0  0  0  0  2  0  0  0  0  0  0
  1  3  2  0  0  0  0
  1 10  1  0  0  0  0
  2  6  2  0  0  0  0
  2 11  1  0  0  0  0
  3  2  1  0  0  0  0
  4 12  1  0  0  0  0
  5 11  2  0  0  0  0
  7  6  1  0  0  0  0
  8  5  1  6  0  0  0
  8 12  1  0  0  0  0
  9 13  1  0  0  0  0
 10  5  1  0  0  0  0
 11  4  1  0  0  0  0
 12 17  1  0  0  0  0
 13  3  1  0  0  0  0
 13  7  2  0  0  0  0
 14 20  1  0  0  0  0
 15 16  1  0  0  0  0
 16 14  2  0  0  0  0
 17 15  2  0  0  0  0
 17 19  1  0  0  0  0
 18 14  1  0  0  0  0
 19 18  2  0  0  0  0
 20 21  1  0  0  0  0
 22  8  1  0  0  0  0
 22 23  1  1  0  0  0
 24 27  1  6  0  0  0
 24 22  1  0  0  0  0
 24 23  1  0  0  0  0
 26 25  2  0  0  0  0
 26 27  1  0  0  0  0
M  END
>  <MODEL>
2

>  <REMARK>
 VINA RESULT:      -7.0      3.684      8.287
  Name = 
  4 active torsions:
  status: ('A' for Active; 'I' for Inactive)
    1  A    between atoms: C_2  and  C_4
    2  A    between atoms: C_6  and  C_14
    3  A    between atoms: N_18  and  C_25
    4  A    between atoms: C_21  and  N_26
                            x       y       z     vdW  Elec       q    Type
                         _______ _______ _______ _____ _____    ______ ____

>  <TORSDO>
F 4

$$$$
=
 OpenBabel11042420463D

 27 31  0  0  1  0  0  0  0  0999 V2000
  161.4950  207.0140  153.9140 N   0  0  0  0  0  0  0  0  0  0  0  0
  160.5520  209.2190  153.9860 C   0  0  0  0  0  0  0  0  0  0  0  0
  160.8250  208.0110  154.5640 C   0  0  0  0  0  0  0  0  0  0  0  0
  160.8360  210.6080  151.9050 N   0  0  0  0  0  2  0  0  0  0  0  0
  161.6380  208.4490  152.0030 C   0  0  0  0  0  0  0  0  0  0  0  0
  159.8400  210.0790  154.9720 C   0  0  0  0  0  2  0  0  0  0  0  0
  159.7530  209.2030  156.1520 N   0  0  0  0  0  0  0  0  0  0  0  0
  161.9790  208.9410  150.6320 C   0  0  2  0  0  3  0  0  0  0  0  0
  160.3820  206.9550  156.9050 C   0  0  0  0  0  1  0  0  0  0  0  0
  161.9140  207.2150  152.6230 C   0  0  0  0  0  3  0  0  0  0  0  0
  160.9660  209.4380  152.6820 C   0  0  0  0  0  0  0  0  0  0  0  0
  161.4610  210.3210  150.6800 N   0  0  0  0  0  0  0  0  0  0  0  0
  160.3070  208.0550  155.9080 C   0  0  0  0  0  0  0  0  0  0  0  0
  162.1960  213.3410  147.7900 C   0  0  0  0  0  0  0  0  0  0  0  0
  160.8600  212.4470  149.6000 C   0  0  0  0  0  3  0  0  0  0  0  0
  161.1010  213.4460  148.6520 C   0  0  0  0  0  3  0  0  0  0  0  0
  161.7120  211.3370  149.6970 C   0  0  0  0  0  0  0  0  0  0  0  0
  163.0590  212.2460  147.8890 C   0  0  0  0  0  3  0  0  0  0  0  0
  162.8170  211.2480  148.8380 C   0  0  0  0  0  3  0  0  0  0  0  0
  162.4680  214.4140  146.7970 C   0  0  0  0  0  2  0  0  0  0  0  0
  162.5830  213.8600  145.5220 O   0  0  0  0  0  1  0  0  0  0  0  0
  161.2070  208.1340  149.5920 C   0  0  1  0  0  3  0  0  0  0  0  0
  162.0290  207.9950  148.3250 C   0  0  0  0  0  2  0  0  0  0  0  0
  161.9440  206.8400  149.2980 C   0  0  2  0  0  3  0  0  0  0  0  0
  161.5330  204.2310  150.4360 N   0  0  0  0  0  2  0  0  0  0  0  0
  160.8330  204.5740  149.4050 C   0  0  0  0  0  3  0  0  0  0  0  0
  160.9960  205.8570  148.7990 N   0  0  0  0  0  2  0  0  0  0  0  0
  1  3  1  0  0  0  0
  2  3  2  0  0  0  0
  2  6  1  0  0  0  0
  3 13  1  0  0  0  0
  4 11  1  0  0  0  0
  5 10  1  0  0  0  0
  5 11  2  0  0  0  0
  6  7  1  0  0  0  0
  8 12  1  0  0  0  0
  8  5  1  1  0  0  0
 10  1  2  0  0  0  0
 11  2  1  0  0  0  0
 12  4  1  0  0  0  0
 13  7  2  0  0  0  0
 13  9  1  0  0  0  0
 14 18  2  0  0  0  0
 14 16  1  0  0  0  0
 15 17  1  0  0  0  0
 16 15  2  0  0  0  0
 17 12  1  0  0  0  0
 18 19  1  0  0  0  0
 19 17  2  0  0  0  0
 20 14  1  0  0  0  0
 21 20  1  0  0  0  0
 22 23  1  6  0  0  0
 22  8  1  0  0  0  0
 23 24  1  0  0  0  0
 24 27  1  6  0  0  0
 24 22  1  0  0  0  0
 26 25  2  0  0  0  0
 27 26  1  0  0  0  0
M  END
>  <MODEL>
3

>  <REMARK>
 VINA RESULT:      -6.7      3.613      4.841
  Name = 
  4 active torsions:
  status: ('A' for Active; 'I' for Inactive)
    1  A    between atoms: C_2  and  C_4
    2  A    between atoms: C_6  and  C_14
    3  A    between atoms: N_18  and  C_25
    4  A    between atoms: C_21  and  N_26
                            x       y       z     vdW  Elec       q    Type
                         _______ _______ _______ _____ _____    ______ ____

>  <TORSDO>
F 4

$$$$
=
 OpenBabel11042420463D

 27 31  0  0  1  0  0  0  0  0999 V2000
  162.4800  211.0840  150.5380 N   0  0  0  0  0  0  0  0  0  0  0  0
  161.5820  210.2610  148.4710 C   0  0  0  0  0  0  0  0  0  0  0  0
  162.0290  211.2800  149.2640 C   0  0  0  0  0  0  0  0  0  0  0  0
  161.2060  207.7750  148.3440 N   0  0  0  0  0  2  0  0  0  0  0  0
  162.0210  208.7490  150.2670 C   0  0  0  0  0  0  0  0  0  0  0  0
  161.1950  210.8130  147.1430 C   0  0  0  0  0  3  0  0  0  0  0  0
  161.4800  212.2490  147.3010 N   0  0  0  0  0  0  0  0  0  0  0  0
  161.9240  207.2880  150.5700 C   0  0  2  0  0  3  0  0  0  0  0  0
  162.3300  213.8510  148.9540 C   0  0  0  0  0  1  0  0  0  0  0  0
  162.4850  209.8160  151.0620 C   0  0  0  0  0  2  0  0  0  0  0  0
  161.5780  208.9750  148.9850 C   0  0  0  0  0  0  0  0  0  0  0  0
  161.4320  206.7560  149.2850 N   0  0  0  0  0  0  0  0  0  0  0  0
  161.9440  212.4920  148.4890 C   0  0  0  0  0  0  0  0  0  0  0  0
  161.2050  202.6440  148.2580 C   0  0  0  0  0  0  0  0  0  0  0  0
  160.9140  204.4250  149.8720 C   0  0  0  0  0  3  0  0  0  0  0  0
  160.8340  203.0710  149.5360 C   0  0  0  0  0  3  0  0  0  0  0  0
  161.3620  205.3650  148.9330 C   0  0  0  0  0  0  0  0  0  0  0  0
  161.6400  203.5760  147.3110 C   0  0  0  0  0  3  0  0  0  0  0  0
  161.7190  204.9310  147.6480 C   0  0  0  0  0  3  0  0  0  0  0  0
  161.0980  201.2070  147.8920 C   0  0  0  0  0  2  0  0  0  0  0  0
  160.8310  201.0850  146.5280 O   0  0  0  0  0  1  0  0  0  0  0  0
  160.8810  207.0580  151.6590 C   0  0  1  0  0  3  0  0  0  0  0  0
  161.2900  205.8890  152.5340 C   0  0  0  0  0  2  0  0  0  0  0  0
  161.5010  207.3050  153.0220 C   0  0  2  0  0  3  0  0  0  0  0  0
  161.5810  209.5560  154.8120 N   0  0  0  0  0  2  0  0  0  0  0  0
  160.5440  208.7850  154.8310 C   0  0  0  0  0  3  0  0  0  0  0  0
  160.4510  207.6530  153.9650 N   0  0  0  0  0  2  0  0  0  0  0  0
  1 10  1  0  0  0  0
  2 11  1  0  0  0  0
  2  3  1  0  0  0  0
  3  1  2  0  0  0  0
  4 11  1  0  0  0  0
  4 12  1  0  0  0  0
  5 10  1  0  0  0  0
  6  7  1  0  0  0  0
  6  2  2  0  0  0  0
  7 13  2  0  0  0  0
  8  5  1  6  0  0  0
  8 22  1  0  0  0  0
 11  5  2  0  0  0  0
 12  8  1  0  0  0  0
 13  9  1  0  0  0  0
 13  3  1  0  0  0  0
 14 16  1  0  0  0  0
 16 15  2  0  0  0  0
 17 12  1  0  0  0  0
 17 15  1  0  0  0  0
 18 19  1  0  0  0  0
 18 14  2  0  0  0  0
 19 17  2  0  0  0  0
 20 14  1  0  0  0  0
 21 20  1  0  0  0  0
 22 23  1  1  0  0  0
 22 24  1  0  0  0  0
 23 24  1  0  0  0  0
 24 27  1  1  0  0  0
 25 26  2  0  0  0  0
 27 26  1  0  0  0  0
M  END
>  <MODEL>
4

>  <REMARK>
 VINA RESULT:      -6.2      2.885      5.165
  Name = 
  4 active torsions:
  status: ('A' for Active; 'I' for Inactive)
    1  A    between atoms: C_2  and  C_4
    2  A    between atoms: C_6  and  C_14
    3  A    between atoms: N_18  and  C_25
    4  A    between atoms: C_21  and  N_26
                            x       y       z     vdW  Elec       q    Type
                         _______ _______ _______ _____ _____    ______ ____

>  <TORSDO>
F 4

$$$$
=
 OpenBabel11042420463D

 27 31  0  0  1  0  0  0  0  0999 V2000
  160.5450  204.4930  149.8200 N   0  0  0  0  0  0  0  0  0  0  0  0
  161.7910  205.3020  147.9360 C   0  0  0  0  0  0  0  0  0  0  0  0
  161.2080  204.2890  148.6430 C   0  0  0  0  0  0  0  0  0  0  0  0
  162.1980  207.7860  147.8680 N   0  0  0  0  0  2  0  0  0  0  0  0
  161.0580  206.8240  149.6250 C   0  0  0  0  0  0  0  0  0  0  0  0
  162.3980  204.7430  146.6970 C   0  0  0  0  0  3  0  0  0  0  0  0
  162.0820  203.3090  146.8080 N   0  0  0  0  0  0  0  0  0  0  0  0
  161.1090  208.2860  149.9350 C   0  0  2  0  0  3  0  0  0  0  0  0
  160.9500  201.7190  148.2940 C   0  0  0  0  0  1  0  0  0  0  0  0
  160.4570  205.7630  150.3310 C   0  0  0  0  0  2  0  0  0  0  0  0
  161.7140  206.5910  148.4400 C   0  0  0  0  0  0  0  0  0  0  0  0
  161.8190  208.8100  148.7530 N   0  0  0  0  0  0  0  0  0  0  0  0
  161.4190  203.0740  147.8980 C   0  0  0  0  0  0  0  0  0  0  0  0
  162.2480  212.9100  147.7440 C   0  0  0  0  0  0  0  0  0  0  0  0
  163.1870  210.8470  148.5950 C   0  0  0  0  0  3  0  0  0  0  0  0
  163.3330  212.1960  148.2600 C   0  0  0  0  0  3  0  0  0  0  0  0
  161.9560  210.1990  148.4140 C   0  0  0  0  0  0  0  0  0  0  0  0
  161.0210  212.2680  147.5470 C   0  0  0  0  0  3  0  0  0  0  0  0
  160.8760  210.9180  147.8820 C   0  0  0  0  0  3  0  0  0  0  0  0
  162.4080  214.3390  147.3650 C   0  0  0  0  0  2  0  0  0  0  0  0
  162.4970  214.4530  145.9780 O   0  0  0  0  0  1  0  0  0  0  0  0
  161.9500  208.5150  151.1870 C   0  0  1  0  0  3  0  0  0  0  0  0
  161.8050  209.9490  151.6580 C   0  0  0  0  0  2  0  0  0  0  0  0
  161.0430  208.8470  152.3590 C   0  0  2  0  0  3  0  0  0  0  0  0
  160.1020  209.5240  154.9910 N   0  0  0  0  0  2  0  0  0  0  0  0
  161.2090  208.8650  154.8790 C   0  0  0  0  0  3  0  0  0  0  0  0
  161.7230  208.5020  153.5970 N   0  0  0  0  0  2  0  0  0  0  0  0
  1 10  1  0  0  0  0
  2 11  1  0  0  0  0
  2  3  1  0  0  0  0
  3  1  2  0  0  0  0
  4 11  1  0  0  0  0
  4 12  1  0  0  0  0
  5 10  1  0  0  0  0
  6  7  1  0  0  0  0
  6  2  2  0  0  0  0
  7 13  2  0  0  0  0
  8  5  1  6  0  0  0
  8 22  1  0  0  0  0
 11  5  2  0  0  0  0
 12  8  1  0  0  0  0
 13  9  1  0  0  0  0
 13  3  1  0  0  0  0
 14 16  1  0  0  0  0
 16 15  2  0  0  0  0
 17 15  1  0  0  0  0
 17 12  1  0  0  0  0
 18 14  2  0  0  0  0
 18 19  1  0  0  0  0
 19 17  2  0  0  0  0
 20 14  1  0  0  0  0
 21 20  1  0  0  0  0
 22 23  1  6  0  0  0
 22 24  1  0  0  0  0
 23 24  1  0  0  0  0
 24 27  1  1  0  0  0
 26 25  2  0  0  0  0
 27 26  1  0  0  0  0
M  END
>  <MODEL>
5

>  <REMARK>
 VINA RESULT:      -6.2      3.696      6.945
  Name = 
  4 active torsions:
  status: ('A' for Active; 'I' for Inactive)
    1  A    between atoms: C_2  and  C_4
    2  A    between atoms: C_6  and  C_14
    3  A    between atoms: N_18  and  C_25
    4  A    between atoms: C_21  and  N_26
                            x       y       z     vdW  Elec       q    Type
                         _______ _______ _______ _____ _____    ______ ____

>  <TORSDO>
F 4

$$$$
=
 OpenBabel11042420463D

 27 31  0  0  1  0  0  0  0  0999 V2000
  162.1340  202.8350  147.4930 N   0  0  0  0  0  0  0  0  0  0  0  0
  160.9030  202.4630  149.5180 C   0  0  0  0  0  0  0  0  0  0  0  0
  161.4470  202.0190  148.3460 C   0  0  0  0  0  0  0  0  0  0  0  0
  160.6110  204.4660  151.0150 N   0  0  0  0  0  2  0  0  0  0  0  0
  161.7270  204.6450  149.0060 C   0  0  0  0  0  0  0  0  0  0  0  0
  160.2550  201.3180  150.2170 C   0  0  0  0  0  2  0  0  0  0  0  0
  160.5050  200.2000  149.2920 N   0  0  0  0  0  0  0  0  0  0  0  0
  161.7480  206.0190  149.5990 C   0  0  2  0  0  3  0  0  0  0  0  0
  161.5810  199.7110  147.1420 C   0  0  0  0  0  1  0  0  0  0  0  0
  162.2860  204.1620  147.8070 C   0  0  0  0  0  3  0  0  0  0  0  0
  161.0460  203.8000  149.8500 C   0  0  0  0  0  0  0  0  0  0  0  0
  161.0480  205.7950  150.8780 N   0  0  0  0  0  0  0  0  0  0  0  0
  161.1710  200.6080  148.2560 C   0  0  0  0  0  0  0  0  0  0  0  0
  160.8370  208.5670  154.0840 C   0  0  0  0  0  0  0  0  0  0  0  0
  161.0250  206.2890  153.2870 C   0  0  0  0  0  3  0  0  0  0  0  0
  160.9590  207.2000  154.3450 C   0  0  0  0  0  3  0  0  0  0  0  0
  160.9710  206.7370  151.9590 C   0  0  0  0  0  0  0  0  0  0  0  0
  160.7970  209.0240  152.7630 C   0  0  0  0  0  3  0  0  0  0  0  0
  160.8640  208.1130  151.7050 C   0  0  0  0  0  3  0  0  0  0  0  0
  160.7910  209.5390  155.2090 C   0  0  0  0  0  2  0  0  0  0  0  0
  161.9440  210.3230  155.2030 O   0  0  0  0  0  1  0  0  0  0  0  0
  160.9340  206.9670  148.7230 C   0  0  1  0  0  3  0  0  0  0  0  0
  161.8020  208.1190  148.2560 C   0  0  0  0  0  2  0  0  0  0  0  0
  161.5000  206.9740  147.3140 C   0  0  2  0  0  3  0  0  0  0  0  0
  160.6710  205.4520  145.0190 N   0  0  0  0  0  2  0  0  0  0  0  0
  160.0850  206.5780  145.2610 C   0  0  0  0  0  3  0  0  0  0  0  0
  160.4560  207.3760  146.3860 N   0  0  0  0  0  2  0  0  0  0  0  0
  1 10  2  0  0  0  0
  1  3  1  0  0  0  0
  2 11  1  0  0  0  0
  2  6  1  0  0  0  0
  3  2  2  0  0  0  0
  5 11  2  0  0  0  0
  7  6  1  0  0  0  0
  8  5  1  6  0  0  0
  8 12  1  0  0  0  0
  9 13  1  0  0  0  0
 10  5  1  0  0  0  0
 11  4  1  0  0  0  0
 12  4  1  0  0  0  0
 12 17  1  0  0  0  0
 13  3  1  0  0  0  0
 13  7  2  0  0  0  0
 14 16  1  0  0  0  0
 14 20  1  0  0  0  0
 15 16  2  0  0  0  0
 17 15  1  0  0  0  0
 18 14  2  0  0  0  0
 19 17  2  0  0  0  0
 19 18  1  0  0  0  0
 21 20  1  0  0  0  0
 22 23  1  1  0  0  0
 22  8  1  0  0  0  0
 24 27  1  6  0  0  0
 24 23  1  0  0  0  0
 24 22  1  0  0  0  0
 25 26  2  0  0  0  0
 26 27  1  0  0  0  0
M  END
>  <MODEL>
6

>  <REMARK>
 VINA RESULT:      -5.2      3.076      7.585
  Name = 
  4 active torsions:
  status: ('A' for Active; 'I' for Inactive)
    1  A    between atoms: C_2  and  C_4
    2  A    between atoms: C_6  and  C_14
    3  A    between atoms: N_18  and  C_25
    4  A    between atoms: C_21  and  N_26
                            x       y       z     vdW  Elec       q    Type
                         _______ _______ _______ _____ _____    ______ ____

>  <TORSDO>
F 4

$$$$
=
 OpenBabel11042420463D

 27 31  0  0  1  0  0  0  0  0999 V2000
  160.6320  203.7180  148.6810 N   0  0  0  0  0  0  0  0  0  0  0  0
  161.6980  205.0390  146.9860 C   0  0  0  0  0  0  0  0  0  0  0  0
  161.2230  203.8480  147.4570 C   0  0  0  0  0  0  0  0  0  0  0  0
  161.9620  207.4900  147.5010 N   0  0  0  0  0  2  0  0  0  0  0  0
  161.0000  206.0580  149.0300 C   0  0  0  0  0  0  0  0  0  0  0  0
  162.2490  204.8350  145.6170 C   0  0  0  0  0  3  0  0  0  0  0  0
  162.0210  203.3980  145.3950 N   0  0  0  0  0  0  0  0  0  0  0  0
  160.9920  207.4040  149.6820 C   0  0  2  0  0  3  0  0  0  0  0  0
  161.0840  201.4240  146.5090 C   0  0  0  0  0  1  0  0  0  0  0  0
  160.5100  204.8200  149.4890 C   0  0  0  0  0  2  0  0  0  0  0  0
  161.5850  206.1620  147.7900 C   0  0  0  0  0  0  0  0  0  0  0  0
  161.5880  208.2440  148.6260 N   0  0  0  0  0  0  0  0  0  0  0  0
  161.4490  202.8630  146.4290 C   0  0  0  0  0  0  0  0  0  0  0  0
  161.6760  212.4870  148.6180 C   0  0  0  0  0  0  0  0  0  0  0  0
  161.1910  210.3940  147.5010 C   0  0  0  0  0  3  0  0  0  0  0  0
  161.2150  211.7920  147.4960 C   0  0  0  0  0  3  0  0  0  0  0  0
  161.6250  209.6790  148.6270 C   0  0  0  0  0  0  0  0  0  0  0  0
  162.0970  211.7830  149.7500 C   0  0  0  0  0  3  0  0  0  0  0  0
  162.0720  210.3850  149.7540 C   0  0  0  0  0  3  0  0  0  0  0  0
  161.6800  213.9740  148.6230 C   0  0  0  0  0  2  0  0  0  0  0  0
  161.1720  214.4520  147.4150 O   0  0  0  0  0  1  0  0  0  0  0  0
  161.9030  207.3870  150.9050 C   0  0  1  0  0  3  0  0  0  0  0  0
  161.7870  208.6960  151.6610 C   0  0  0  0  0  2  0  0  0  0  0  0
  161.0650  207.4680  152.1690 C   0  0  2  0  0  3  0  0  0  0  0  0
  160.9400  204.7090  152.9690 N   0  0  0  0  0  2  0  0  0  0  0  0
  161.7130  205.5100  153.6260 C   0  0  0  0  0  3  0  0  0  0  0  0
  161.8140  206.8910  153.2730 N   0  0  0  0  0  2  0  0  0  0  0  0
  1 10  1  0  0  0  0
  2  3  1  0  0  0  0
  2 11  1  0  0  0  0
  3  1  2  0  0  0  0
  4 11  1  0  0  0  0
  4 12  1  0  0  0  0
  5 10  1  0  0  0  0
  6  2  2  0  0  0  0
  7  6  1  0  0  0  0
  7 13  2  0  0  0  0
  8  5  1  6  0  0  0
  8 22  1  0  0  0  0
 11  5  2  0  0  0  0
 12 17  1  0  0  0  0
 12  8  1  0  0  0  0
 13  9  1  0  0  0  0
 13  3  1  0  0  0  0
 14 20  1  0  0  0  0
 14 18  1  0  0  0  0
 15 17  2  0  0  0  0
 16 15  1  0  0  0  0
 16 14  2  0  0  0  0
 17 19  1  0  0  0  0
 18 19  2  0  0  0  0
 21 20  1  0  0  0  0
 22 23  1  6  0  0  0
 22 24  1  0  0  0  0
 23 24  1  0  0  0  0
 24 27  1  1  0  0  0
 25 26  2  0  0  0  0
 27 26  1  0  0  0  0
M  END
>  <MODEL>
7

>  <REMARK>
 VINA RESULT:      -4.7      3.510      6.860
  Name = 
  4 active torsions:
  status: ('A' for Active; 'I' for Inactive)
    1  A    between atoms: C_2  and  C_4
    2  A    between atoms: C_6  and  C_14
    3  A    between atoms: N_18  and  C_25
    4  A    between atoms: C_21  and  N_26
                            x       y       z     vdW  Elec       q    Type
                         _______ _______ _______ _____ _____    ______ ____

>  <TORSDO>
F 4

$$$$
