=
 OpenBabel11052411213D

 41 44  0  0  1  0  0  0  0  0999 V2000
  161.3330  206.6750  151.9900 N   0  0  0  0  0  0  0  0  0  0  0  0
  161.6360  205.7940  154.1280 O   0  0  0  0  0  1  0  0  0  0  0  0
  160.8710  206.6830  153.3700 C   0  0  1  0  0  3  0  0  0  0  0  0
  160.8480  208.4660  155.0260 N   0  0  0  0  0  0  0  0  0  0  0  0
  161.1300  208.0690  153.8190 C   0  0  0  0  0  0  0  0  0  0  0  0
  161.8810  207.9580  151.5580 C   0  0  0  0  0  2  0  0  0  0  0  0
  161.7070  208.9200  152.7280 C   0  0  1  0  0  3  0  0  0  0  0  0
  161.2030  211.0780  151.4390 C   0  0  0  0  0  0  0  0  0  0  0  0
  158.1820  213.1500  151.3850 F   0  0  0  0  0  0  0  0  0  0  0  0
  162.4420  211.0750  150.8850 F   0  0  0  0  0  0  0  0  0  0  0  0
  160.6920  213.0800  150.2430 F   0  0  0  0  0  0  0  0  0  0  0  0
  159.0410  212.1490  151.6930 C   0  0  0  0  0  0  0  0  0  0  0  0
  160.3160  212.1120  151.1170 C   0  0  0  0  0  0  0  0  0  0  0  0
  160.8040  210.0590  152.3300 C   0  0  0  0  0  0  0  0  0  0  0  0
  158.6520  211.1530  152.5900 C   0  0  0  0  0  3  0  0  0  0  0  0
  159.5320  210.1160  152.9100 C   0  0  0  0  0  3  0  0  0  0  0  0
  161.1590  205.5620  151.0960 C   0  0  0  0  0  0  0  0  0  0  0  0
  160.8910  203.1740  150.7320 C   0  0  0  0  0  3  0  0  0  0  0  0
  161.1000  205.7630  149.7070 C   0  0  0  0  0  3  0  0  0  0  0  0
  160.8310  203.3880  149.3540 C   0  0  0  0  0  3  0  0  0  0  0  0
  160.9330  204.6860  148.8320 C   0  0  0  0  0  0  0  0  0  0  0  0
  161.0530  204.2560  151.6000 C   0  0  0  0  0  3  0  0  0  0  0  0
  162.8020  206.2780  147.2070 O   0  0  0  0  0  0  0  0  0  0  0  0
  160.8820  204.9430  147.4220 N   0  0  0  0  0  2  0  0  0  0  0  0
  161.8030  205.7390  146.6600 C   0  0  0  0  0  0  0  0  0  0  0  0
  161.5850  205.9390  145.2670 N   0  0  0  0  0  2  0  0  0  0  0  0
  160.4720  205.3890  144.6210 N   0  0  0  0  0  2  0  0  0  0  0  0
  159.7440  203.3440  144.5190 C   0  0  0  0  0  1  0  0  0  0  0  0
  160.8340  204.1530  144.2050 O   0  0  0  0  0  0  0  0  0  0  0  0
  161.1340  209.7560  155.5880 C   0  0  0  0  0  0  0  0  0  0  0  0
  162.2990  210.0410  155.9790 O   0  0  0  0  0  0  0  0  0  0  0  0
  158.7820  210.3320  156.1800 C   0  0  0  0  0  3  0  0  0  0  0  0
  159.2410  213.0320  155.5890 C   0  0  0  0  0  0  0  0  0  0  0  0
  157.9590  212.6200  156.0330 C   0  0  0  0  0  0  0  0  0  0  0  0
  157.7510  211.2620  156.3190 C   0  0  0  0  0  3  0  0  0  0  0  0
  160.2660  212.0910  155.4560 C   0  0  0  0  0  3  0  0  0  0  0  0
  159.5620  214.4440  155.2350 C   0  0  0  0  0  1  0  0  0  0  0  0
  160.0480  210.7400  155.7510 C   0  0  0  0  0  0  0  0  0  0  0  0
  156.8430  214.4080  157.2610 O   0  0  0  0  0  0  0  0  0  0  0  0
  156.8540  213.5330  156.1980 N   0  0  0  0  0  0  0  0  0  0  0  0
  155.9300  213.6010  155.3610 O   0  0  0  0  0  0  0  0  0  0  0  0
  1  3  1  0  0  0  0
  3  5  1  0  0  0  0
  3  2  1  1  0  0  0
  4 30  1  0  0  0  0
  5  4  2  0  0  0  0
  6  1  1  0  0  0  0
  6  7  1  0  0  0  0
  7 14  1  6  0  0  0
  7  5  1  0  0  0  0
  8 14  1  0  0  0  0
  9 12  1  0  0  0  0
 10  8  1  0  0  0  0
 11 13  1  0  0  0  0
 12 15  2  0  0  0  0
 13  8  2  0  0  0  0
 13 12  1  0  0  0  0
 14 16  2  0  0  0  0
 15 16  1  0  0  0  0
 17 22  1  0  0  0  0
 17  1  1  0  0  0  0
 18 22  2  0  0  0  0
 19 17  2  0  0  0  0
 20 18  1  0  0  0  0
 21 20  2  0  0  0  0
 21 19  1  0  0  0  0
 24 21  1  0  0  0  0
 25 23  2  0  0  0  0
 25 24  1  0  0  0  0
 26 25  1  0  0  0  0
 27 26  1  0  0  0  0
 29 28  1  0  0  0  0
 29 27  1  0  0  0  0
 30 38  1  0  0  0  0
 30 31  2  0  0  0  0
 32 35  1  0  0  0  0
 33 34  1  0  0  0  0
 34 40  1  0  0  0  0
 34 35  2  0  0  0  0
 36 33  2  0  0  0  0
 36 38  1  0  0  0  0
 37 33  1  0  0  0  0
 38 32  2  0  0  0  0
 40 39  2  0  0  0  0
 41 40  2  0  0  0  0
M  END
>  <MODEL>
1

>  <REMARK>
 VINA RESULT:      -6.9      0.000      0.000
  Name = 
  8 active torsions:
  status: ('A' for Active; 'I' for Inactive)
    1  A    between atoms: N_4  and  C_19
    2  A    between atoms: N_5  and  C_15
    3  A    between atoms: N_12  and  C_35
    4  A    between atoms: C_17  and  C_40
    5  A    between atoms: O_18  and  N_21
    6  A    between atoms: N_21  and  N_41
    7  A    between atoms: N_25  and  C_32
    8  A    between atoms: C_35  and  C_38
                            x       y       z     vdW  Elec       q    Type
                         _______ _______ _______ _____ _____    ______ ____

>  <TORSDO>
F 8

$$$$
=
 OpenBabel11052411213D

 41 44  0  0  1  0  0  0  0  0999 V2000
  161.1620  205.6600  150.6560 N   0  0  0  0  0  0  0  0  0  0  0  0
  162.4250  206.5320  148.8990 O   0  0  0  0  0  1  0  0  0  0  0  0
  162.2960  206.4970  150.2900 C   0  0  1  0  0  3  0  0  0  0  0  0
  162.6930  208.8720  150.6380 N   0  0  0  0  0  0  0  0  0  0  0  0
  161.9170  207.8380  150.7880 C   0  0  0  0  0  0  0  0  0  0  0  0
  160.0950  206.3970  151.3290 C   0  0  0  0  0  2  0  0  0  0  0  0
  160.5900  207.8310  151.4850 C   0  0  1  0  0  3  0  0  0  0  0  0
  160.1820  209.3900  153.4790 C   0  0  0  0  0  0  0  0  0  0  0  0
  161.1070  209.0130  157.0050 F   0  0  0  0  0  0  0  0  0  0  0  0
  159.5590  210.2960  152.6840 F   0  0  0  0  0  0  0  0  0  0  0  0
  159.8050  210.8070  155.3630 F   0  0  0  0  0  0  0  0  0  0  0  0
  160.9720  208.7510  155.6820 C   0  0  0  0  0  0  0  0  0  0  0  0
  160.3160  209.6610  154.8460 C   0  0  0  0  0  0  0  0  0  0  0  0
  160.6920  208.1860  152.9460 C   0  0  0  0  0  0  0  0  0  0  0  0
  161.4950  207.5700  155.1520 C   0  0  0  0  0  3  0  0  0  0  0  0
  161.3590  207.2920  153.7900 C   0  0  0  0  0  3  0  0  0  0  0  0
  161.1360  204.2330  150.4880 C   0  0  0  0  0  0  0  0  0  0  0  0
  161.2570  201.9970  151.4350 C   0  0  0  0  0  3  0  0  0  0  0  0
  160.9790  203.6650  149.2130 C   0  0  0  0  0  3  0  0  0  0  0  0
  161.0970  201.4460  150.1630 C   0  0  0  0  0  3  0  0  0  0  0  0
  160.9540  202.2780  149.0420 C   0  0  0  0  0  0  0  0  0  0  0  0
  161.2760  203.3840  151.5980 C   0  0  0  0  0  3  0  0  0  0  0  0
  161.3010  203.6720  146.4730 O   0  0  0  0  0  0  0  0  0  0  0  0
  160.7930  201.7480  147.7190 N   0  0  0  0  0  2  0  0  0  0  0  0
  160.9560  202.4600  146.4830 C   0  0  0  0  0  0  0  0  0  0  0  0
  160.7110  201.8000  145.2450 N   0  0  0  0  0  2  0  0  0  0  0  0
  160.2930  200.4640  145.2060 N   0  0  0  0  0  2  0  0  0  0  0  0
  161.0960  198.4450  145.2290 C   0  0  0  0  0  1  0  0  0  0  0  0
  161.2950  199.7280  145.7380 O   0  0  0  0  0  0  0  0  0  0  0  0
  162.3900  210.2260  151.0050 C   0  0  0  0  0  0  0  0  0  0  0  0
  162.5810  210.6290  152.1850 O   0  0  0  0  0  0  0  0  0  0  0  0
  162.0730  210.9640  148.6450 C   0  0  0  0  0  3  0  0  0  0  0  0
  160.4630  213.1010  149.4760 C   0  0  0  0  0  0  0  0  0  0  0  0
  160.7220  212.9160  148.0950 C   0  0  0  0  0  0  0  0  0  0  0  0
  161.5350  211.8410  147.7030 C   0  0  0  0  0  3  0  0  0  0  0  0
  161.0060  212.2150  150.4110 C   0  0  0  0  0  3  0  0  0  0  0  0
  159.6350  214.2230  150.0030 C   0  0  0  0  0  1  0  0  0  0  0  0
  161.8090  211.1420  150.0070 C   0  0  0  0  0  0  0  0  0  0  0  0
  158.8330  213.9520  146.9520 O   0  0  0  0  0  0  0  0  0  0  0  0
  160.1940  213.7860  147.0730 N   0  0  0  0  0  0  0  0  0  0  0  0
  160.9440  214.4530  146.3300 O   0  0  0  0  0  0  0  0  0  0  0  0
  1  6  1  0  0  0  0
  3  2  1  6  0  0  0
  3  1  1  0  0  0  0
  3  5  1  0  0  0  0
  4  5  2  0  0  0  0
  4 30  1  0  0  0  0
  5  7  1  0  0  0  0
  6  7  1  0  0  0  0
  7 14  1  1  0  0  0
  8 13  1  0  0  0  0
 10  8  1  0  0  0  0
 12  9  1  0  0  0  0
 13 11  1  0  0  0  0
 13 12  2  0  0  0  0
 14  8  2  0  0  0  0
 14 16  1  0  0  0  0
 15 12  1  0  0  0  0
 16 15  2  0  0  0  0
 17  1  1  0  0  0  0
 17 22  1  0  0  0  0
 18 22  2  0  0  0  0
 19 17  2  0  0  0  0
 20 18  1  0  0  0  0
 21 19  1  0  0  0  0
 21 20  2  0  0  0  0
 23 25  2  0  0  0  0
 24 21  1  0  0  0  0
 25 24  1  0  0  0  0
 26 25  1  0  0  0  0
 27 26  1  0  0  0  0
 27 29  1  0  0  0  0
 28 29  1  0  0  0  0
 30 31  2  0  0  0  0
 32 38  1  0  0  0  0
 33 37  1  0  0  0  0
 33 36  1  0  0  0  0
 34 33  2  0  0  0  0
 35 34  1  0  0  0  0
 35 32  2  0  0  0  0
 38 36  2  0  0  0  0
 38 30  1  0  0  0  0
 39 40  2  0  0  0  0
 40 34  1  0  0  0  0
 41 40  2  0  0  0  0
M  END
>  <MODEL>
2

>  <REMARK>
 VINA RESULT:      -6.5      3.510      5.268
  Name = 
  8 active torsions:
  status: ('A' for Active; 'I' for Inactive)
    1  A    between atoms: N_4  and  C_19
    2  A    between atoms: N_5  and  C_15
    3  A    between atoms: N_12  and  C_35
    4  A    between atoms: C_17  and  C_40
    5  A    between atoms: O_18  and  N_21
    6  A    between atoms: N_21  and  N_41
    7  A    between atoms: N_25  and  C_32
    8  A    between atoms: C_35  and  C_38
                            x       y       z     vdW  Elec       q    Type
                         _______ _______ _______ _____ _____    ______ ____

>  <TORSDO>
F 8

$$$$
=
 OpenBabel11052411213D

 41 44  0  0  1  0  0  0  0  0999 V2000
  161.5750  205.4220  151.7150 N   0  0  0  0  0  0  0  0  0  0  0  0
  160.5710  205.3780  153.8190 O   0  0  0  0  0  1  0  0  0  0  0  0
  160.5810  206.0320  152.5850 C   0  0  1  0  0  3  0  0  0  0  0  0
  160.4360  208.2840  153.4950 N   0  0  0  0  0  0  0  0  0  0  0  0
  161.0710  207.4170  152.7610 C   0  0  0  0  0  0  0  0  0  0  0  0
  162.6620  206.3300  151.3550 C   0  0  0  0  0  2  0  0  0  0  0  0
  162.3270  207.6780  151.9850 C   0  0  1  0  0  3  0  0  0  0  0  0
  161.7270  208.4050  149.6000 C   0  0  0  0  0  0  0  0  0  0  0  0
  161.7560  211.7310  148.0630 F   0  0  0  0  0  0  0  0  0  0  0  0
  161.4510  207.1240  149.2450 F   0  0  0  0  0  0  0  0  0  0  0  0
  161.1600  209.1210  147.3950 F   0  0  0  0  0  0  0  0  0  0  0  0
  161.8860  210.7460  148.9840 C   0  0  0  0  0  0  0  0  0  0  0  0
  161.5880  209.4210  148.6470 C   0  0  0  0  0  0  0  0  0  0  0  0
  162.1480  208.7190  150.9100 C   0  0  0  0  0  0  0  0  0  0  0  0
  162.3230  211.0560  150.2740 C   0  0  0  0  0  3  0  0  0  0  0  0
  162.4570  210.0460  151.2290 C   0  0  0  0  0  3  0  0  0  0  0  0
  161.4480  204.1020  151.1590 C   0  0  0  0  0  0  0  0  0  0  0  0
  161.4700  201.6880  151.4380 C   0  0  0  0  0  3  0  0  0  0  0  0
  161.1910  203.9240  149.7900 C   0  0  0  0  0  3  0  0  0  0  0  0
  161.2110  201.5250  150.0750 C   0  0  0  0  0  3  0  0  0  0  0  0
  161.0680  202.6450  149.2420 C   0  0  0  0  0  0  0  0  0  0  0  0
  161.5860  202.9700  151.9770 C   0  0  0  0  0  3  0  0  0  0  0  0
  161.3440  200.2480  147.5550 O   0  0  0  0  0  0  0  0  0  0  0  0
  160.8070  202.5160  147.8370 N   0  0  0  0  0  2  0  0  0  0  0  0
  160.9660  201.3340  147.0390 C   0  0  0  0  0  0  0  0  0  0  0  0
  160.7110  201.3820  145.6380 N   0  0  0  0  0  2  0  0  0  0  0  0
  160.3220  202.5730  145.0130 N   0  0  0  0  0  2  0  0  0  0  0  0
  160.8190  204.6790  144.8250 C   0  0  0  0  0  1  0  0  0  0  0  0
  161.3590  203.4320  145.1340 O   0  0  0  0  0  0  0  0  0  0  0  0
  160.8650  209.6200  153.8010 C   0  0  0  0  0  0  0  0  0  0  0  0
  162.0590  209.8500  154.1340 O   0  0  0  0  0  0  0  0  0  0  0  0
  158.8460  210.7780  154.6930 C   0  0  0  0  0  3  0  0  0  0  0  0
  159.0620  212.7720  152.7360 C   0  0  0  0  0  0  0  0  0  0  0  0
  158.0060  212.8290  153.6810 C   0  0  0  0  0  0  0  0  0  0  0  0
  157.9160  211.8180  154.6490 C   0  0  0  0  0  3  0  0  0  0  0  0
  159.9890  211.7260  152.7910 C   0  0  0  0  0  3  0  0  0  0  0  0
  159.2360  213.7800  151.6520 C   0  0  0  0  0  1  0  0  0  0  0  0
  159.8910  210.7260  153.7660 C   0  0  0  0  0  0  0  0  0  0  0  0
  156.3660  214.2140  152.5230 O   0  0  0  0  0  0  0  0  0  0  0  0
  157.0160  213.8780  153.6890 N   0  0  0  0  0  0  0  0  0  0  0  0
  156.6790  214.4520  154.7450 O   0  0  0  0  0  0  0  0  0  0  0  0
  1  3  1  0  0  0  0
  3  5  1  0  0  0  0
  3  2  1  1  0  0  0
  4 30  1  0  0  0  0
  5  4  2  0  0  0  0
  6  1  1  0  0  0  0
  6  7  1  0  0  0  0
  7 14  1  6  0  0  0
  7  5  1  0  0  0  0
  8 14  1  0  0  0  0
  9 12  1  0  0  0  0
 10  8  1  0  0  0  0
 11 13  1  0  0  0  0
 12 15  2  0  0  0  0
 13 12  1  0  0  0  0
 13  8  2  0  0  0  0
 14 16  2  0  0  0  0
 15 16  1  0  0  0  0
 17  1  1  0  0  0  0
 17 22  1  0  0  0  0
 18 22  2  0  0  0  0
 19 17  2  0  0  0  0
 20 18  1  0  0  0  0
 21 19  1  0  0  0  0
 21 20  2  0  0  0  0
 24 21  1  0  0  0  0
 25 23  2  0  0  0  0
 25 24  1  0  0  0  0
 26 25  1  0  0  0  0
 27 29  1  0  0  0  0
 27 26  1  0  0  0  0
 28 29  1  0  0  0  0
 30 31  2  0  0  0  0
 33 36  2  0  0  0  0
 33 34  1  0  0  0  0
 34 40  1  0  0  0  0
 34 35  2  0  0  0  0
 35 32  1  0  0  0  0
 36 38  1  0  0  0  0
 37 33  1  0  0  0  0
 38 30  1  0  0  0  0
 38 32  2  0  0  0  0
 39 40  2  0  0  0  0
 40 41  2  0  0  0  0
M  END
>  <MODEL>
3

>  <REMARK>
 VINA RESULT:      -6.4      2.231      2.973
  Name = 
  8 active torsions:
  status: ('A' for Active; 'I' for Inactive)
    1  A    between atoms: N_4  and  C_19
    2  A    between atoms: N_5  and  C_15
    3  A    between atoms: N_12  and  C_35
    4  A    between atoms: C_17  and  C_40
    5  A    between atoms: O_18  and  N_21
    6  A    between atoms: N_21  and  N_41
    7  A    between atoms: N_25  and  C_32
    8  A    between atoms: C_35  and  C_38
                            x       y       z     vdW  Elec       q    Type
                         _______ _______ _______ _____ _____    ______ ____

>  <TORSDO>
F 8

$$$$
=
 OpenBabel11052411213D

 41 44  0  0  1  0  0  0  0  0999 V2000
  161.0630  208.7360  152.6050 N   0  0  0  0  0  0  0  0  0  0  0  0
  161.5840  210.3050  150.9600 O   0  0  0  0  0  1  0  0  0  0  0  0
  160.9720  209.0710  151.1920 C   0  0  1  0  0  3  0  0  0  0  0  0
  161.8990  207.9610  149.2350 N   0  0  0  0  0  0  0  0  0  0  0  0
  161.7460  208.0000  150.5270 C   0  0  0  0  0  0  0  0  0  0  0  0
  161.8600  207.5400  152.8650 C   0  0  0  0  0  2  0  0  0  0  0  0
  162.2780  206.9940  151.5030 C   0  0  1  0  0  3  0  0  0  0  0  0
  162.3810  204.4380  151.6830 C   0  0  0  0  0  0  0  0  0  0  0  0
  159.9700  201.8930  150.6170 F   0  0  0  0  0  0  0  0  0  0  0  0
  163.6030  204.4970  152.2690 F   0  0  0  0  0  0  0  0  0  0  0  0
  162.4330  202.0580  151.8490 F   0  0  0  0  0  0  0  0  0  0  0  0
  160.5410  203.1020  150.8390 C   0  0  0  0  0  0  0  0  0  0  0  0
  161.7920  203.1880  151.4600 C   0  0  0  0  0  0  0  0  0  0  0  0
  161.7030  205.6160  151.3010 C   0  0  0  0  0  0  0  0  0  0  0  0
  159.8790  204.2650  150.4400 C   0  0  0  0  0  3  0  0  0  0  0  0
  160.4600  205.5140  150.6670 C   0  0  0  0  0  3  0  0  0  0  0  0
  160.3450  209.4320  153.6380 C   0  0  0  0  0  0  0  0  0  0  0  0
  159.7940  209.7300  155.9870 C   0  0  0  0  0  3  0  0  0  0  0  0
  159.4760  210.4880  153.3190 C   0  0  0  0  0  3  0  0  0  0  0  0
  158.9360  210.7800  155.6560 C   0  0  0  0  0  3  0  0  0  0  0  0
  158.7730  211.1680  154.3170 C   0  0  0  0  0  0  0  0  0  0  0  0
  160.4960  209.0590  154.9830 C   0  0  0  0  0  3  0  0  0  0  0  0
  155.9060  211.4640  154.9130 O   0  0  0  0  0  0  0  0  0  0  0  0
  157.8970  212.2390  153.9390 N   0  0  0  0  0  2  0  0  0  0  0  0
  156.4960  212.3460  154.2330 C   0  0  0  0  0  0  0  0  0  0  0  0
  155.7490  213.4550  153.7420 N   0  0  0  0  0  2  0  0  0  0  0  0
  156.3530  214.4430  152.9540 N   0  0  0  0  0  2  0  0  0  0  0  0
  157.6430  214.4530  151.2060 C   0  0  0  0  0  1  0  0  0  0  0  0
  156.4460  213.9400  151.7020 O   0  0  0  0  0  0  0  0  0  0  0  0
  162.6950  207.0210  148.4980 C   0  0  0  0  0  0  0  0  0  0  0  0
  163.9510  207.0160  148.6120 O   0  0  0  0  0  0  0  0  0  0  0  0
  161.4760  206.5460  146.3760 C   0  0  0  0  0  3  0  0  0  0  0  0
  161.3360  203.8200  147.0080 C   0  0  0  0  0  0  0  0  0  0  0  0
  160.7670  204.2880  145.7960 C   0  0  0  0  0  0  0  0  0  0  0  0
  160.8460  205.6580  145.5030 C   0  0  0  0  0  3  0  0  0  0  0  0
  161.9660  204.7180  147.8730 C   0  0  0  0  0  3  0  0  0  0  0  0
  161.2870  202.3900  147.4270 C   0  0  0  0  0  1  0  0  0  0  0  0
  162.0440  206.0820  147.5660 C   0  0  0  0  0  0  0  0  0  0  0  0
  160.4010  202.0760  144.8350 O   0  0  0  0  0  0  0  0  0  0  0  0
  160.1050  203.4210  144.8530 N   0  0  0  0  0  0  0  0  0  0  0  0
  159.2140  203.8440  144.0880 O   0  0  0  0  0  0  0  0  0  0  0  0
  1  6  1  0  0  0  0
  1 17  1  0  0  0  0
  3  2  1  1  0  0  0
  3  1  1  0  0  0  0
  4  5  2  0  0  0  0
  5  3  1  0  0  0  0
  5  7  1  0  0  0  0
  7 14  1  6  0  0  0
  7  6  1  0  0  0  0
  8 10  1  0  0  0  0
  9 12  1  0  0  0  0
 12 13  2  0  0  0  0
 13  8  1  0  0  0  0
 13 11  1  0  0  0  0
 14  8  2  0  0  0  0
 15 16  2  0  0  0  0
 15 12  1  0  0  0  0
 16 14  1  0  0  0  0
 17 22  1  0  0  0  0
 19 17  2  0  0  0  0
 19 21  1  0  0  0  0
 20 18  1  0  0  0  0
 21 20  2  0  0  0  0
 22 18  2  0  0  0  0
 24 25  1  0  0  0  0
 24 21  1  0  0  0  0
 25 23  2  0  0  0  0
 26 25  1  0  0  0  0
 27 26  1  0  0  0  0
 28 29  1  0  0  0  0
 29 27  1  0  0  0  0
 30 31  2  0  0  0  0
 30  4  1  0  0  0  0
 32 38  1  0  0  0  0
 33 37  1  0  0  0  0
 33 36  1  0  0  0  0
 34 33  2  0  0  0  0
 35 34  1  0  0  0  0
 35 32  2  0  0  0  0
 38 36  2  0  0  0  0
 38 30  1  0  0  0  0
 39 40  2  0  0  0  0
 40 34  1  0  0  0  0
 41 40  2  0  0  0  0
M  END
>  <MODEL>
4

>  <REMARK>
 VINA RESULT:      -5.8      3.247      9.950
  Name = 
  8 active torsions:
  status: ('A' for Active; 'I' for Inactive)
    1  A    between atoms: N_4  and  C_19
    2  A    between atoms: N_5  and  C_15
    3  A    between atoms: N_12  and  C_35
    4  A    between atoms: C_17  and  C_40
    5  A    between atoms: O_18  and  N_21
    6  A    between atoms: N_21  and  N_41
    7  A    between atoms: N_25  and  C_32
    8  A    between atoms: C_35  and  C_38
                            x       y       z     vdW  Elec       q    Type
                         _______ _______ _______ _____ _____    ______ ____

>  <TORSDO>
F 8

$$$$
=
 OpenBabel11052411213D

 41 44  0  0  1  0  0  0  0  0999 V2000
  161.5130  209.8600  150.4910 N   0  0  0  0  0  0  0  0  0  0  0  0
  161.9220  210.4170  148.2630 O   0  0  0  0  0  1  0  0  0  0  0  0
  161.3370  209.4650  149.1020 C   0  0  1  0  0  3  0  0  0  0  0  0
  162.1600  207.5240  147.8870 N   0  0  0  0  0  0  0  0  0  0  0  0
  162.0830  208.1910  149.0020 C   0  0  0  0  0  0  0  0  0  0  0  0
  162.3360  208.9280  151.2570 C   0  0  0  0  0  2  0  0  0  0  0  0
  162.6800  207.7790  150.3140 C   0  0  1  0  0  3  0  0  0  0  0  0
  160.8810  205.9530  150.3920 C   0  0  0  0  0  0  0  0  0  0  0  0
  160.6670  202.9310  152.4530 F   0  0  0  0  0  0  0  0  0  0  0  0
  160.1510  206.5870  149.4410 F   0  0  0  0  0  0  0  0  0  0  0  0
  159.2360  204.2260  150.4820 F   0  0  0  0  0  0  0  0  0  0  0  0
  161.1290  204.0910  151.9280 C   0  0  0  0  0  0  0  0  0  0  0  0
  160.4040  204.7520  150.9300 C   0  0  0  0  0  0  0  0  0  0  0  0
  162.1080  206.4890  150.8410 C   0  0  0  0  0  0  0  0  0  0  0  0
  162.3320  204.6300  152.3880 C   0  0  0  0  0  3  0  0  0  0  0  0
  162.8160  205.8250  151.8500 C   0  0  0  0  0  3  0  0  0  0  0  0
  160.8490  210.9850  151.0920 C   0  0  0  0  0  0  0  0  0  0  0  0
  160.1020  213.2960  150.9820 C   0  0  0  0  0  3  0  0  0  0  0  0
  160.3050  210.8890  152.3830 C   0  0  0  0  0  3  0  0  0  0  0  0
  159.5630  213.1860  152.2660 C   0  0  0  0  0  3  0  0  0  0  0  0
  159.6590  211.9790  152.9740 C   0  0  0  0  0  0  0  0  0  0  0  0
  160.7410  212.2010  150.3980 C   0  0  0  0  0  3  0  0  0  0  0  0
  161.1220  211.5120  155.4860 O   0  0  0  0  0  0  0  0  0  0  0  0
  159.1230  211.8300  154.2960 N   0  0  0  0  0  2  0  0  0  0  0  0
  159.8640  211.5880  155.5020 C   0  0  0  0  0  0  0  0  0  0  0  0
  159.1770  211.4150  156.7370 N   0  0  0  0  0  2  0  0  0  0  0  0
  157.7780  211.4560  156.7990 N   0  0  0  0  0  2  0  0  0  0  0  0
  156.2250  212.9120  156.3670 C   0  0  0  0  0  1  0  0  0  0  0  0
  157.4370  212.7440  157.0330 O   0  0  0  0  0  0  0  0  0  0  0  0
  162.9220  206.3290  147.6600 C   0  0  0  0  0  0  0  0  0  0  0  0
  164.1540  206.2930  147.9290 O   0  0  0  0  0  0  0  0  0  0  0  0
  162.0350  205.0860  145.6890 C   0  0  0  0  0  3  0  0  0  0  0  0
  161.2220  202.9650  147.3290 C   0  0  0  0  0  0  0  0  0  0  0  0
  160.9920  202.8980  145.9310 C   0  0  0  0  0  0  0  0  0  0  0  0
  161.4040  203.9740  145.1310 C   0  0  0  0  0  3  0  0  0  0  0  0
  161.8580  204.0830  147.8760 C   0  0  0  0  0  3  0  0  0  0  0  0
  160.8030  201.8890  148.2720 C   0  0  0  0  0  1  0  0  0  0  0  0
  162.2700  205.1480  147.0660 C   0  0  0  0  0  0  0  0  0  0  0  0
  160.7500  200.4940  145.5940 O   0  0  0  0  0  0  0  0  0  0  0  0
  160.3460  201.7760  145.2950 N   0  0  0  0  0  0  0  0  0  0  0  0
  159.3770  201.9300  144.5230 O   0  0  0  0  0  0  0  0  0  0  0  0
  1 17  1  0  0  0  0
  1  6  1  0  0  0  0
  3  2  1  6  0  0  0
  3  1  1  0  0  0  0
  4  5  2  0  0  0  0
  5  3  1  0  0  0  0
  5  7  1  0  0  0  0
  7 14  1  1  0  0  0
  7  6  1  0  0  0  0
  8 14  2  0  0  0  0
  8 13  1  0  0  0  0
 10  8  1  0  0  0  0
 11 13  1  0  0  0  0
 12 15  1  0  0  0  0
 12  9  1  0  0  0  0
 13 12  2  0  0  0  0
 14 16  1  0  0  0  0
 16 15  2  0  0  0  0
 17 19  1  0  0  0  0
 18 20  2  0  0  0  0
 19 21  2  0  0  0  0
 20 21  1  0  0  0  0
 21 24  1  0  0  0  0
 22 18  1  0  0  0  0
 22 17  2  0  0  0  0
 23 25  2  0  0  0  0
 24 25  1  0  0  0  0
 25 26  1  0  0  0  0
 26 27  1  0  0  0  0
 27 29  1  0  0  0  0
 28 29  1  0  0  0  0
 30  4  1  0  0  0  0
 30 31  2  0  0  0  0
 32 38  1  0  0  0  0
 33 36  1  0  0  0  0
 33 37  1  0  0  0  0
 34 33  2  0  0  0  0
 35 32  2  0  0  0  0
 35 34  1  0  0  0  0
 38 30  1  0  0  0  0
 38 36  2  0  0  0  0
 40 39  2  0  0  0  0
 40 34  1  0  0  0  0
 41 40  2  0  0  0  0
M  END
>  <MODEL>
5

>  <REMARK>
 VINA RESULT:      -5.1      2.835     10.399
  Name = 
  8 active torsions:
  status: ('A' for Active; 'I' for Inactive)
    1  A    between atoms: N_4  and  C_19
    2  A    between atoms: N_5  and  C_15
    3  A    between atoms: N_12  and  C_35
    4  A    between atoms: C_17  and  C_40
    5  A    between atoms: O_18  and  N_21
    6  A    between atoms: N_21  and  N_41
    7  A    between atoms: N_25  and  C_32
    8  A    between atoms: C_35  and  C_38
                            x       y       z     vdW  Elec       q    Type
                         _______ _______ _______ _____ _____    ______ ____

>  <TORSDO>
F 8

$$$$
=
 OpenBabel11052411213D

 41 44  0  0  1  0  0  0  0  0999 V2000
  161.8330  209.8960  149.4640 N   0  0  0  0  0  0  0  0  0  0  0  0
  161.2780  208.7360  147.5190 O   0  0  0  0  0  1  0  0  0  0  0  0
  160.9490  208.9080  148.8660 C   0  0  1  0  0  3  0  0  0  0  0  0
  160.6510  206.5420  149.3530 N   0  0  0  0  0  0  0  0  0  0  0  0
  161.2520  207.6670  149.6130 C   0  0  0  0  0  0  0  0  0  0  0  0
  162.6810  209.3480  150.5200 C   0  0  0  0  0  2  0  0  0  0  0  0
  162.2780  207.8860  150.6840 C   0  0  1  0  0  3  0  0  0  0  0  0
  160.8560  208.5460  152.7130 C   0  0  0  0  0  0  0  0  0  0  0  0
  160.3950  206.8530  155.9290 F   0  0  0  0  0  0  0  0  0  0  0  0
  160.4390  209.6780  152.0920 F   0  0  0  0  0  0  0  0  0  0  0  0
  159.5310  209.1190  154.6140 F   0  0  0  0  0  0  0  0  0  0  0  0
  160.8320  207.1200  154.6750 C   0  0  0  0  0  0  0  0  0  0  0  0
  160.3990  208.2710  154.0070 C   0  0  0  0  0  0  0  0  0  0  0  0
  161.7400  207.6510  152.0710 C   0  0  0  0  0  0  0  0  0  0  0  0
  161.7230  206.2450  154.0500 C   0  0  0  0  0  3  0  0  0  0  0  0
  162.1770  206.5130  152.7570 C   0  0  0  0  0  3  0  0  0  0  0  0
  161.7970  211.2980  149.1440 C   0  0  0  0  0  0  0  0  0  0  0  0
  161.2820  213.5900  149.7690 C   0  0  0  0  0  3  0  0  0  0  0  0
  162.2290  211.7550  147.8880 C   0  0  0  0  0  3  0  0  0  0  0  0
  161.7170  214.0310  148.5170 C   0  0  0  0  0  3  0  0  0  0  0  0
  162.1950  213.1160  147.5680 C   0  0  0  0  0  0  0  0  0  0  0  0
  161.3240  212.2290  150.0810 C   0  0  0  0  0  3  0  0  0  0  0  0
  160.7050  213.0730  145.0300 O   0  0  0  0  0  0  0  0  0  0  0  0
  162.6450  213.5320  146.2710 N   0  0  0  0  0  2  0  0  0  0  0  0
  161.8960  213.4840  145.0470 C   0  0  0  0  0  0  0  0  0  0  0  0
  162.5040  213.8920  143.8250 N   0  0  0  0  0  2  0  0  0  0  0  0
  163.8350  214.3240  143.7880 N   0  0  0  0  0  2  0  0  0  0  0  0
  162.9660  214.2720  141.7970 C   0  0  0  0  0  1  0  0  0  0  0  0
  164.1660  214.4520  142.4830 O   0  0  0  0  0  0  0  0  0  0  0  0
  160.9270  205.2690  149.9560 C   0  0  0  0  0  0  0  0  0  0  0  0
  161.1750  205.1830  151.1900 O   0  0  0  0  0  0  0  0  0  0  0  0
  160.7840  202.7940  149.6920 C   0  0  0  0  0  3  0  0  0  0  0  0
  161.2610  203.0090  146.9390 C   0  0  0  0  0  0  0  0  0  0  0  0
  161.0680  201.7300  147.5190 C   0  0  0  0  0  0  0  0  0  0  0  0
  160.8350  201.6460  148.9000 C   0  0  0  0  0  3  0  0  0  0  0  0
  161.2050  204.1520  147.7420 C   0  0  0  0  0  3  0  0  0  0  0  0
  161.5390  203.2100  145.4880 C   0  0  0  0  0  1  0  0  0  0  0  0
  160.9650  204.0560  149.1180 C   0  0  0  0  0  0  0  0  0  0  0  0
  160.4760  200.4440  145.5320 O   0  0  0  0  0  0  0  0  0  0  0  0
  161.1080  200.5080  146.7540 N   0  0  0  0  0  0  0  0  0  0  0  0
  161.7590  199.5150  147.1390 O   0  0  0  0  0  0  0  0  0  0  0  0
  1  6  1  0  0  0  0
  3  2  1  6  0  0  0
  3  1  1  0  0  0  0
  3  5  1  0  0  0  0
  4  5  2  0  0  0  0
  4 30  1  0  0  0  0
  5  7  1  0  0  0  0
  6  7  1  0  0  0  0
  7 14  1  1  0  0  0
  8 13  1  0  0  0  0
 10  8  1  0  0  0  0
 12  9  1  0  0  0  0
 13 11  1  0  0  0  0
 13 12  2  0  0  0  0
 14  8  2  0  0  0  0
 14 16  1  0  0  0  0
 15 12  1  0  0  0  0
 16 15  2  0  0  0  0
 17  1  1  0  0  0  0
 17 22  1  0  0  0  0
 18 22  2  0  0  0  0
 19 17  2  0  0  0  0
 20 18  1  0  0  0  0
 21 19  1  0  0  0  0
 21 20  2  0  0  0  0
 23 25  2  0  0  0  0
 24 21  1  0  0  0  0
 25 24  1  0  0  0  0
 26 25  1  0  0  0  0
 27 26  1  0  0  0  0
 28 29  1  0  0  0  0
 29 27  1  0  0  0  0
 30 31  2  0  0  0  0
 33 34  2  0  0  0  0
 33 36  1  0  0  0  0
 34 35  1  0  0  0  0
 35 32  2  0  0  0  0
 36 38  2  0  0  0  0
 37 33  1  0  0  0  0
 38 32  1  0  0  0  0
 38 30  1  0  0  0  0
 39 40  2  0  0  0  0
 40 41  2  0  0  0  0
 40 34  1  0  0  0  0
M  END
>  <MODEL>
6

>  <REMARK>
 VINA RESULT:      -5.1      4.364      9.307
  Name = 
  8 active torsions:
  status: ('A' for Active; 'I' for Inactive)
    1  A    between atoms: N_4  and  C_19
    2  A    between atoms: N_5  and  C_15
    3  A    between atoms: N_12  and  C_35
    4  A    between atoms: C_17  and  C_40
    5  A    between atoms: O_18  and  N_21
    6  A    between atoms: N_21  and  N_41
    7  A    between atoms: N_25  and  C_32
    8  A    between atoms: C_35  and  C_38
                            x       y       z     vdW  Elec       q    Type
                         _______ _______ _______ _____ _____    ______ ____

>  <TORSDO>
F 8

$$$$
=
 OpenBabel11052411213D

 41 44  0  0  1  0  0  0  0  0999 V2000
  161.3260  210.9230  150.3640 N   0  0  0  0  0  0  0  0  0  0  0  0
  161.5350  211.0200  148.0430 O   0  0  0  0  0  1  0  0  0  0  0  0
  161.0730  210.2390  149.1050 C   0  0  1  0  0  3  0  0  0  0  0  0
  161.9230  208.1260  148.2480 N   0  0  0  0  0  0  0  0  0  0  0  0
  161.8860  209.0070  149.2050 C   0  0  0  0  0  0  0  0  0  0  0  0
  162.2580  210.2080  151.2320 C   0  0  0  0  0  2  0  0  0  0  0  0
  162.6020  208.9050  150.5180 C   0  0  1  0  0  3  0  0  0  0  0  0
  161.2140  207.8440  152.3950 C   0  0  0  0  0  0  0  0  0  0  0  0
  161.0610  204.3700  153.5490 F   0  0  0  0  0  0  0  0  0  0  0  0
  160.6620  209.0430  152.7080 F   0  0  0  0  0  0  0  0  0  0  0  0
  159.9260  206.8180  154.1230 F   0  0  0  0  0  0  0  0  0  0  0  0
  161.4150  205.4670  152.8380 C   0  0  0  0  0  0  0  0  0  0  0  0
  160.8440  206.7110  153.1290 C   0  0  0  0  0  0  0  0  0  0  0  0
  162.1510  207.7290  151.3450 C   0  0  0  0  0  0  0  0  0  0  0  0
  162.3580  205.3560  151.8140 C   0  0  0  0  0  3  0  0  0  0  0  0
  162.7260  206.4820  151.0750 C   0  0  0  0  0  3  0  0  0  0  0  0
  160.6390  212.1170  150.7760 C   0  0  0  0  0  0  0  0  0  0  0  0
  159.9840  214.4210  150.3590 C   0  0  0  0  0  3  0  0  0  0  0  0
  159.9600  212.1650  152.0040 C   0  0  0  0  0  3  0  0  0  0  0  0
  159.3100  214.4530  151.5820 C   0  0  0  0  0  3  0  0  0  0  0  0
  159.2920  213.3230  152.4120 C   0  0  0  0  0  0  0  0  0  0  0  0
  160.6440  213.2580  149.9580 C   0  0  0  0  0  3  0  0  0  0  0  0
  156.4430  213.8350  152.9470 O   0  0  0  0  0  0  0  0  0  0  0  0
  158.6150  213.3210  153.6770 N   0  0  0  0  0  2  0  0  0  0  0  0
  157.2230  213.5900  153.9060 C   0  0  0  0  0  0  0  0  0  0  0  0
  156.7100  213.5970  155.2350 N   0  0  0  0  0  2  0  0  0  0  0  0
  157.5450  213.3630  156.3350 N   0  0  0  0  0  2  0  0  0  0  0  0
  158.7570  211.6840  156.9910 C   0  0  0  0  0  1  0  0  0  0  0  0
  157.4650  212.0420  156.6110 O   0  0  0  0  0  0  0  0  0  0  0  0
  162.7380  206.9450  148.2060 C   0  0  0  0  0  0  0  0  0  0  0  0
  163.9100  206.9580  148.6730 O   0  0  0  0  0  0  0  0  0  0  0  0
  162.2320  205.5800  146.1830 C   0  0  0  0  0  3  0  0  0  0  0  0
  161.1710  203.5290  147.7710 C   0  0  0  0  0  0  0  0  0  0  0  0
  161.1930  203.3830  146.3600 C   0  0  0  0  0  0  0  0  0  0  0  0
  161.7240  204.4250  145.5860 C   0  0  0  0  0  3  0  0  0  0  0  0
  161.6840  204.6890  148.3580 C   0  0  0  0  0  3  0  0  0  0  0  0
  160.6080  202.4950  148.6850 C   0  0  0  0  0  1  0  0  0  0  0  0
  162.2180  205.7190  147.5740 C   0  0  0  0  0  0  0  0  0  0  0  0
  161.1790  200.9700  146.0060 O   0  0  0  0  0  0  0  0  0  0  0  0
  160.6860  202.2140  145.6840 N   0  0  0  0  0  0  0  0  0  0  0  0
  159.7570  202.2890  144.8540 O   0  0  0  0  0  0  0  0  0  0  0  0
  1 17  1  0  0  0  0
  1  6  1  0  0  0  0
  3  2  1  6  0  0  0
  3  5  1  0  0  0  0
  3  1  1  0  0  0  0
  4  5  2  0  0  0  0
  5  7  1  0  0  0  0
  7  6  1  0  0  0  0
  7 14  1  1  0  0  0
  8 10  1  0  0  0  0
  8 13  1  0  0  0  0
 12 13  2  0  0  0  0
 12  9  1  0  0  0  0
 13 11  1  0  0  0  0
 14  8  2  0  0  0  0
 15 12  1  0  0  0  0
 16 14  1  0  0  0  0
 16 15  2  0  0  0  0
 17 19  1  0  0  0  0
 18 20  2  0  0  0  0
 19 21  2  0  0  0  0
 20 21  1  0  0  0  0
 21 24  1  0  0  0  0
 22 18  1  0  0  0  0
 22 17  2  0  0  0  0
 23 25  2  0  0  0  0
 24 25  1  0  0  0  0
 25 26  1  0  0  0  0
 26 27  1  0  0  0  0
 27 29  1  0  0  0  0
 29 28  1  0  0  0  0
 30  4  1  0  0  0  0
 30 31  2  0  0  0  0
 32 38  1  0  0  0  0
 33 36  1  0  0  0  0
 33 37  1  0  0  0  0
 34 33  2  0  0  0  0
 35 32  2  0  0  0  0
 35 34  1  0  0  0  0
 38 30  1  0  0  0  0
 38 36  2  0  0  0  0
 40 39  2  0  0  0  0
 40 34  1  0  0  0  0
 41 40  2  0  0  0  0
M  END
>  <MODEL>
7

>  <REMARK>
 VINA RESULT:      -4.8      2.714     10.228
  Name = 
  8 active torsions:
  status: ('A' for Active; 'I' for Inactive)
    1  A    between atoms: N_4  and  C_19
    2  A    between atoms: N_5  and  C_15
    3  A    between atoms: N_12  and  C_35
    4  A    between atoms: C_17  and  C_40
    5  A    between atoms: O_18  and  N_21
    6  A    between atoms: N_21  and  N_41
    7  A    between atoms: N_25  and  C_32
    8  A    between atoms: C_35  and  C_38
                            x       y       z     vdW  Elec       q    Type
                         _______ _______ _______ _____ _____    ______ ____

>  <TORSDO>
F 8

$$$$
=
 OpenBabel11052411213D

 41 44  0  0  1  0  0  0  0  0999 V2000
  161.5710  207.1640  148.7400 N   0  0  0  0  0  0  0  0  0  0  0  0
  162.5760  209.1660  148.0890 O   0  0  0  0  0  1  0  0  0  0  0  0
  162.5250  208.2030  149.0990 C   0  0  1  0  0  3  0  0  0  0  0  0
  162.5290  209.7810  150.9510 N   0  0  0  0  0  0  0  0  0  0  0  0
  161.9500  208.7980  150.3250 C   0  0  0  0  0  0  0  0  0  0  0  0
  160.4300  207.0890  149.6480 C   0  0  0  0  0  2  0  0  0  0  0  0
  160.6810  208.1190  150.7450 C   0  0  1  0  0  3  0  0  0  0  0  0
  161.1420  206.0720  152.2180 C   0  0  0  0  0  0  0  0  0  0  0  0
  161.0150  205.7010  155.8610 F   0  0  0  0  0  0  0  0  0  0  0  0
  161.4010  205.3060  151.1280 F   0  0  0  0  0  0  0  0  0  0  0  0
  161.5800  204.1920  153.6220 F   0  0  0  0  0  0  0  0  0  0  0  0
  160.9410  206.2590  154.6280 C   0  0  0  0  0  0  0  0  0  0  0  0
  161.2230  205.4940  153.4910 C   0  0  0  0  0  0  0  0  0  0  0  0
  160.7950  207.4330  152.0820 C   0  0  0  0  0  0  0  0  0  0  0  0
  160.5770  207.6000  154.4940 C   0  0  0  0  0  3  0  0  0  0  0  0
  160.5000  208.1810  153.2270 C   0  0  0  0  0  3  0  0  0  0  0  0
  161.7800  206.2220  147.6740 C   0  0  0  0  0  0  0  0  0  0  0  0
  162.3260  205.7540  145.3520 C   0  0  0  0  0  3  0  0  0  0  0  0
  161.6320  204.8440  147.8980 C   0  0  0  0  0  3  0  0  0  0  0  0
  162.1780  204.3860  145.5890 C   0  0  0  0  0  3  0  0  0  0  0  0
  161.8310  203.9210  146.8670 C   0  0  0  0  0  0  0  0  0  0  0  0
  162.1290  206.6680  146.3890 C   0  0  0  0  0  3  0  0  0  0  0  0
  160.4470  202.6790  149.1490 O   0  0  0  0  0  0  0  0  0  0  0  0
  161.6650  202.5250  147.1470 N   0  0  0  0  0  2  0  0  0  0  0  0
  160.9950  201.9500  148.2790 C   0  0  0  0  0  0  0  0  0  0  0  0
  160.9570  200.5350  148.4400 N   0  0  0  0  0  2  0  0  0  0  0  0
  161.5810  199.6850  147.5190 N   0  0  0  0  0  2  0  0  0  0  0  0
  161.2990  198.6980  145.6040 C   0  0  0  0  0  1  0  0  0  0  0  0
  160.8970  199.7990  146.3580 O   0  0  0  0  0  0  0  0  0  0  0  0
  162.0190  210.4850  152.0930 C   0  0  0  0  0  0  0  0  0  0  0  0
  162.5460  210.3310  153.2290 O   0  0  0  0  0  0  0  0  0  0  0  0
  159.7370  211.2080  152.7900 C   0  0  0  0  0  3  0  0  0  0  0  0
  159.6920  213.1670  150.7880 C   0  0  0  0  0  0  0  0  0  0  0  0
  158.5740  213.0190  151.6480 C   0  0  0  0  0  0  0  0  0  0  0  0
  158.6180  212.0280  152.6400 C   0  0  0  0  0  3  0  0  0  0  0  0
  160.8080  212.3420  150.9490 C   0  0  0  0  0  3  0  0  0  0  0  0
  159.7400  214.1710  149.6860 C   0  0  0  0  0  1  0  0  0  0  0  0
  160.8420  211.3610  151.9470 C   0  0  0  0  0  0  0  0  0  0  0  0
  156.6950  213.8860  150.3570 O   0  0  0  0  0  0  0  0  0  0  0  0
  157.3900  213.8350  151.5440 N   0  0  0  0  0  0  0  0  0  0  0  0
  156.9330  214.4530  152.5280 O   0  0  0  0  0  0  0  0  0  0  0  0
  1  3  1  0  0  0  0
  1  6  1  0  0  0  0
  3  2  1  6  0  0  0
  3  5  1  0  0  0  0
  4 30  1  0  0  0  0
  5  7  1  0  0  0  0
  5  4  2  0  0  0  0
  6  7  1  0  0  0  0
  7 14  1  1  0  0  0
  8 13  1  0  0  0  0
 10  8  1  0  0  0  0
 12  9  1  0  0  0  0
 13 11  1  0  0  0  0
 13 12  2  0  0  0  0
 14  8  2  0  0  0  0
 14 16  1  0  0  0  0
 15 12  1  0  0  0  0
 16 15  2  0  0  0  0
 17 19  1  0  0  0  0
 17  1  1  0  0  0  0
 18 20  2  0  0  0  0
 18 22  1  0  0  0  0
 20 21  1  0  0  0  0
 21 24  1  0  0  0  0
 21 19  2  0  0  0  0
 22 17  2  0  0  0  0
 24 25  1  0  0  0  0
 25 26  1  0  0  0  0
 25 23  2  0  0  0  0
 27 26  1  0  0  0  0
 28 29  1  0  0  0  0
 29 27  1  0  0  0  0
 30 31  2  0  0  0  0
 33 36  2  0  0  0  0
 33 34  1  0  0  0  0
 34 35  2  0  0  0  0
 35 32  1  0  0  0  0
 36 38  1  0  0  0  0
 37 33  1  0  0  0  0
 38 30  1  0  0  0  0
 38 32  2  0  0  0  0
 39 40  2  0  0  0  0
 40 34  1  0  0  0  0
 40 41  2  0  0  0  0
M  END
>  <MODEL>
8

>  <REMARK>
 VINA RESULT:      -4.8      3.425      4.989
  Name = 
  8 active torsions:
  status: ('A' for Active; 'I' for Inactive)
    1  A    between atoms: N_4  and  C_19
    2  A    between atoms: N_5  and  C_15
    3  A    between atoms: N_12  and  C_35
    4  A    between atoms: C_17  and  C_40
    5  A    between atoms: O_18  and  N_21
    6  A    between atoms: N_21  and  N_41
    7  A    between atoms: N_25  and  C_32
    8  A    between atoms: C_35  and  C_38
                            x       y       z     vdW  Elec       q    Type
                         _______ _______ _______ _____ _____    ______ ____

>  <TORSDO>
F 8

$$$$
=
 OpenBabel11052411213D

 41 44  0  0  1  0  0  0  0  0999 V2000
  161.3060  207.6090  150.2610 N   0  0  0  0  0  0  0  0  0  0  0  0
  162.1870  209.6480  149.5480 O   0  0  0  0  0  1  0  0  0  0  0  0
  162.2070  208.7070  150.5800 C   0  0  1  0  0  3  0  0  0  0  0  0
  162.1560  210.3260  152.3960 N   0  0  0  0  0  0  0  0  0  0  0  0
  161.6210  209.2980  151.8030 C   0  0  0  0  0  0  0  0  0  0  0  0
  160.1870  207.4930  151.1930 C   0  0  0  0  0  2  0  0  0  0  0  0
  160.3990  208.5600  152.2610 C   0  0  1  0  0  3  0  0  0  0  0  0
  159.9360  208.3890  154.7770 C   0  0  0  0  0  0  0  0  0  0  0  0
  161.2140  206.0180  157.2610 F   0  0  0  0  0  0  0  0  0  0  0  0
  159.1160  209.4690  154.7320 F   0  0  0  0  0  0  0  0  0  0  0  0
  159.5170  208.1880  157.1180 F   0  0  0  0  0  0  0  0  0  0  0  0
  161.0050  206.6410  156.0760 C   0  0  0  0  0  0  0  0  0  0  0  0
  160.1470  207.7440  156.0020 C   0  0  0  0  0  0  0  0  0  0  0  0
  160.5730  207.9130  153.6100 C   0  0  0  0  0  0  0  0  0  0  0  0
  161.6520  206.1820  154.9270 C   0  0  0  0  0  3  0  0  0  0  0  0
  161.4400  206.8190  153.7020 C   0  0  0  0  0  3  0  0  0  0  0  0
  161.5490  206.6550  149.2130 C   0  0  0  0  0  0  0  0  0  0  0  0
  162.3340  206.1430  146.9700 C   0  0  0  0  0  3  0  0  0  0  0  0
  161.2280  205.3000  149.3920 C   0  0  0  0  0  3  0  0  0  0  0  0
  162.0130  204.7980  147.1620 C   0  0  0  0  0  3  0  0  0  0  0  0
  161.4600  204.3670  148.3770 C   0  0  0  0  0  0  0  0  0  0  0  0
  162.1040  207.0680  147.9920 C   0  0  0  0  0  3  0  0  0  0  0  0
  161.0410  203.0090  150.9550 O   0  0  0  0  0  0  0  0  0  0  0  0
  161.1130  202.9940  148.6080 N   0  0  0  0  0  2  0  0  0  0  0  0
  160.9300  202.3580  149.8820 C   0  0  0  0  0  0  0  0  0  0  0  0
  160.6330  200.9660  149.9460 N   0  0  0  0  0  2  0  0  0  0  0  0
  160.5330  200.1930  148.7820 N   0  0  0  0  0  2  0  0  0  0  0  0
  161.2570  199.9740  146.7460 C   0  0  0  0  0  1  0  0  0  0  0  0
  161.5360  200.5890  147.9650 O   0  0  0  0  0  0  0  0  0  0  0  0
  161.6270  211.0270  153.5310 C   0  0  0  0  0  0  0  0  0  0  0  0
  162.2100  210.9710  154.6480 O   0  0  0  0  0  0  0  0  0  0  0  0
  159.5510  211.9920  154.5180 C   0  0  0  0  0  3  0  0  0  0  0  0
  158.7640  212.9850  152.0190 C   0  0  0  0  0  0  0  0  0  0  0  0
  157.9390  213.2050  153.1510 C   0  0  0  0  0  0  0  0  0  0  0  0
  158.3520  212.6950  154.3910 C   0  0  0  0  0  3  0  0  0  0  0  0
  159.9640  212.2810  152.1580 C   0  0  0  0  0  3  0  0  0  0  0  0
  158.4090  213.4610  150.6510 C   0  0  0  0  0  1  0  0  0  0  0  0
  160.3680  211.7830  153.4030 C   0  0  0  0  0  0  0  0  0  0  0  0
  156.1420  214.4490  154.2330 O   0  0  0  0  0  0  0  0  0  0  0  0
  156.6910  213.9240  153.0850 N   0  0  0  0  0  0  0  0  0  0  0  0
  156.1190  214.1450  151.9970 O   0  0  0  0  0  0  0  0  0  0  0  0
  1  3  1  0  0  0  0
  1  6  1  0  0  0  0
  3  2  1  6  0  0  0
  3  5  1  0  0  0  0
  4 30  1  0  0  0  0
  5  7  1  0  0  0  0
  5  4  2  0  0  0  0
  6  7  1  0  0  0  0
  7 14  1  1  0  0  0
  8 13  1  0  0  0  0
 10  8  1  0  0  0  0
 12  9  1  0  0  0  0
 13 12  2  0  0  0  0
 13 11  1  0  0  0  0
 14 16  1  0  0  0  0
 14  8  2  0  0  0  0
 15 12  1  0  0  0  0
 16 15  2  0  0  0  0
 17 19  1  0  0  0  0
 17  1  1  0  0  0  0
 18 20  2  0  0  0  0
 18 22  1  0  0  0  0
 20 21  1  0  0  0  0
 21 24  1  0  0  0  0
 21 19  2  0  0  0  0
 22 17  2  0  0  0  0
 24 25  1  0  0  0  0
 25 26  1  0  0  0  0
 25 23  2  0  0  0  0
 27 26  1  0  0  0  0
 28 29  1  0  0  0  0
 29 27  1  0  0  0  0
 30 31  2  0  0  0  0
 33 36  2  0  0  0  0
 33 34  1  0  0  0  0
 34 35  2  0  0  0  0
 35 32  1  0  0  0  0
 36 38  1  0  0  0  0
 37 33  1  0  0  0  0
 38 30  1  0  0  0  0
 38 32  2  0  0  0  0
 40 34  1  0  0  0  0
 40 39  2  0  0  0  0
 41 40  2  0  0  0  0
M  END
>  <MODEL>
9

>  <REMARK>
 VINA RESULT:      -4.1      3.046      4.469
  Name = 
  8 active torsions:
  status: ('A' for Active; 'I' for Inactive)
    1  A    between atoms: N_4  and  C_19
    2  A    between atoms: N_5  and  C_15
    3  A    between atoms: N_12  and  C_35
    4  A    between atoms: C_17  and  C_40
    5  A    between atoms: O_18  and  N_21
    6  A    between atoms: N_21  and  N_41
    7  A    between atoms: N_25  and  C_32
    8  A    between atoms: C_35  and  C_38
                            x       y       z     vdW  Elec       q    Type
                         _______ _______ _______ _____ _____    ______ ____

>  <TORSDO>
F 8

$$$$
