=
 OpenBabel11042420313D

 49 56  0  0  1  0  0  0  0  0999 V2000
  161.5310  204.2660  148.3890 C   0  0  0  0  0  0  0  0  0  0  0  0
  160.9620  209.7910  147.6420 O   0  0  0  0  0  0  0  0  0  0  0  0
  161.2560  206.9110  151.7910 C   0  0  0  0  0  0  0  0  0  0  0  0
  161.2580  207.8880  148.9950 C   0  0  0  0  0  0  0  0  0  0  0  0
  161.6260  209.4280  154.5040 C   0  0  0  0  0  2  0  0  0  0  0  0
  161.1050  205.6780  148.0680 C   0  0  0  0  0  2  0  0  0  0  0  0
  161.3130  206.2650  153.1220 C   0  0  0  0  0  0  0  0  0  0  0  0
  161.3210  211.1180  147.5730 N   0  0  0  0  0  2  0  0  0  0  0  0
  161.2490  210.4010  150.9080 O   0  0  0  0  0  0  0  0  0  0  0  0
  161.1040  209.5000  151.9740 C   0  0  0  0  0  0  0  0  0  0  0  0
  160.7110  209.9690  153.3730 C   0  0  2  0  0  3  0  0  0  0  0  0
  161.3390  209.1780  148.8050 C   0  0  0  0  0  0  0  0  0  0  0  0
  160.9290  204.8260  153.2260 C   0  0  0  0  0  2  0  0  0  0  0  0
  160.7770  206.0880  150.6120 C   0  0  1  0  0  3  0  0  0  0  0  0
  161.9930  211.4080  148.8540 C   0  0  1  0  0  3  0  0  0  0  0  0
  161.2690  204.1150  151.9900 N   0  0  0  0  0  0  0  0  0  0  0  0
  161.2960  207.0470  154.1770 C   0  0  0  0  0  0  0  0  0  0  0  0
  161.1930  208.2180  151.7820 C   0  0  0  0  0  0  0  0  0  0  0  0
  161.2020  206.6010  149.2450 C   0  0  0  0  0  0  0  0  0  0  0  0
  161.9980  210.1400  149.7140 C   0  0  1  0  0  3  0  0  0  0  0  0
  161.2620  208.0500  155.0120 C   0  0  0  0  0  3  0  0  0  0  0  0
  161.5410  203.8050  149.6420 C   0  0  0  0  0  3  0  0  0  0  0  0
  161.1850  204.6380  150.8000 C   0  0  0  0  0  0  0  0  0  0  0  0
  160.5920  211.4920  153.5030 C   0  0  1  0  0  3  0  0  0  0  0  0
  159.9980  212.0400  152.3620 O   0  0  0  0  0  1  0  0  0  0  0  0
  159.8170  211.9200  154.7420 C   0  0  0  0  0  2  0  0  0  0  0  0
  157.2840  211.5620  154.6400 C   0  0  2  0  0  3  0  0  0  0  0  0
  158.6420  210.9810  155.0290 C   0  0  2  0  0  3  0  0  0  0  0  0
  157.3820  212.9080  154.2220 O   0  0  0  0  0  0  0  0  0  0  0  0
  157.6410  212.8800  156.5780 C   0  0  2  0  0  3  0  0  0  0  0  0
  157.2810  213.7090  155.3720 C   0  0  0  0  0  2  0  0  0  0  0  0
  158.9230  213.2740  157.1340 N   0  0  0  0  0  1  0  0  0  0  0  0
  157.6490  211.4430  156.1090 C   0  0  1  0  0  3  0  0  0  0  0  0
  161.8940  203.3870  147.3660 O   0  0  0  0  0  0  0  0  0  0  0  0
  161.1110  202.2520  147.0190 C   0  0  0  0  0  2  0  0  0  0  0  0
  160.8880  203.5530  144.9070 O   0  0  0  0  0  0  0  0  0  0  0  0
  160.1410  201.3870  145.0220 O   0  0  0  0  0  1  0  0  0  0  0  0
  160.6710  202.3700  145.6030 C   0  0  0  0  0  0  0  0  0  0  0  0
  163.4210  211.8540  148.6090 C   0  0  0  0  0  2  0  0  0  0  0  0
  163.4370  213.1710  147.9970 N   0  0  0  0  0  2  0  0  0  0  0  0
  163.4540  212.9660  146.5590 C   0  0  0  0  0  2  0  0  0  0  0  0
  161.9440  213.1630  144.6140 C   0  0  1  0  0  3  0  0  0  0  0  0
  162.8790  214.3540  144.5780 C   0  0  0  0  0  2  0  0  0  0  0  0
  162.3810  213.8220  145.9080 C   0  0  2  0  0  3  0  0  0  0  0  0
  160.6320  213.5890  144.2940 O   0  0  0  0  0  0  0  0  0  0  0  0
  158.6370  212.5400  144.9500 N   0  0  0  0  0  0  0  0  0  0  0  0
  159.6210  212.6510  144.1070 C   0  0  0  0  0  3  0  0  0  0  0  0
  158.5160  213.3740  146.1400 C   0  0  0  0  0  2  0  0  0  0  0  0
  157.6970  212.6590  147.2030 C   0  0  0  0  0  1  0  0  0  0  0  0
  1 22  2  0  0  0  0
  2 12  1  0  0  0  0
  3  7  1  0  0  0  0
  4 19  2  0  0  0  0
  5 21  1  0  0  0  0
  6  1  1  0  0  0  0
  6 19  1  0  0  0  0
  7 13  1  0  0  0  0
  7 17  2  0  0  0  0
  8  2  1  0  0  0  0
  8 15  1  0  0  0  0
  9 10  1  0  0  0  0
 10 11  1  0  0  0  0
 11 24  1  6  0  0  0
 11  5  1  0  0  0  0
 12  4  2  0  0  0  0
 14 19  1  6  0  0  0
 14 23  1  0  0  0  0
 14  3  1  0  0  0  0
 15 39  1  6  0  0  0
 15 20  1  0  0  0  0
 16 13  1  0  0  0  0
 17 21  2  0  0  0  0
 18  3  2  0  0  0  0
 18 10  2  0  0  0  0
 20 12  1  6  0  0  0
 20  9  1  0  0  0  0
 22 23  1  0  0  0  0
 23 16  2  0  0  0  0
 24 25  1  6  0  0  0
 24 26  1  0  0  0  0
 27 29  1  6  0  0  0
 27 28  1  0  0  0  0
 27 33  1  0  0  0  0
 28 26  1  6  0  0  0
 28 33  1  0  0  0  0
 29 31  1  0  0  0  0
 30 32  1  6  0  0  0
 31 30  1  0  0  0  0
 33 30  1  0  0  0  0
 34  1  1  0  0  0  0
 35 34  1  0  0  0  0
 36 38  2  0  0  0  0
 37 38  1  0  0  0  0
 38 35  1  0  0  0  0
 40 39  1  0  0  0  0
 41 40  1  0  0  0  0
 42 44  1  0  0  0  0
 43 42  1  0  0  0  0
 43 44  1  0  0  0  0
 44 41  1  0  0  0  0
 45 42  1  0  0  0  0
 46 48  1  0  0  0  0
 47 45  1  0  0  0  0
 47 46  2  0  0  0  0
 48 49  1  0  0  0  0
M  END
>  <MODEL>
1

>  <REMARK>
 VINA RESULT:      -7.2      0.000      0.000
  Name = 
  13 active torsions:
  status: ('A' for Active; 'I' for Inactive)
    1  A    between atoms: C_1  and  O_9
    2  A    between atoms: C_2  and  O_15
    3  A    between atoms: C_3  and  N_29
    4  A    between atoms: C_5  and  C_22
    5  A    between atoms: C_5  and  C_38
    6  A    between atoms: C_6  and  N_17
    7  A    between atoms: C_6  and  C_33
    8  A    between atoms: O_9  and  C_49
    9  A    between atoms: O_15  and  C_31
   10  A    between atoms: N_17  and  C_32
   11  A    between atoms: C_25  and  C_38
   12  A    between atoms: C_31  and  C_34
   13  A    between atoms: C_32  and  C_36
                            x       y       z     vdW  Elec       q    Type
                         _______ _______ _______ _____ _____    ______ ____

>  <TORSDO>
F 13

$$$$
=
 OpenBabel11042420313D

 49 56  0  0  1  0  0  0  0  0999 V2000
  160.6740  210.5090  154.9540 C   0  0  0  0  0  0  0  0  0  0  0  0
  162.5740  211.8480  149.8550 O   0  0  0  0  0  0  0  0  0  0  0  0
  161.1570  207.4600  151.9370 C   0  0  0  0  0  0  0  0  0  0  0  0
  161.6980  210.3250  151.4220 C   0  0  0  0  0  0  0  0  0  0  0  0
  161.0670  205.1630  149.0120 C   0  0  0  0  0  2  0  0  0  0  0  0
  161.4460  210.9380  153.7300 C   0  0  0  0  0  2  0  0  0  0  0  0
  160.8030  206.0800  152.3430 C   0  0  0  0  0  0  0  0  0  0  0  0
  162.5390  212.1320  148.5080 N   0  0  0  0  0  2  0  0  0  0  0  0
  162.0640  208.7590  148.7040 O   0  0  0  0  0  0  0  0  0  0  0  0
  161.8760  207.5800  149.4410 C   0  0  0  0  0  0  0  0  0  0  0  0
  162.2040  206.2080  148.8560 C   0  0  2  0  0  3  0  0  0  0  0  0
  161.9360  210.6840  150.1890 C   0  0  0  0  0  0  0  0  0  0  0  0
  160.8330  205.7430  153.7970 C   0  0  0  0  0  2  0  0  0  0  0  0
  161.5670  208.4450  153.0130 C   0  0  1  0  0  3  0  0  0  0  0  0
  161.8100  211.0080  147.8900 C   0  0  1  0  0  3  0  0  0  0  0  0
  160.4820  206.9180  154.6030 N   0  0  0  0  0  0  0  0  0  0  0  0
  160.8780  205.1400  151.4300 C   0  0  0  0  0  0  0  0  0  0  0  0
  161.5180  207.6210  150.6890 C   0  0  0  0  0  0  0  0  0  0  0  0
  161.4290  209.9120  152.6380 C   0  0  0  0  0  0  0  0  0  0  0  0
  161.4160  210.0080  148.9810 C   0  0  1  0  0  3  0  0  0  0  0  0
  161.0450  204.4400  150.3400 C   0  0  0  0  0  3  0  0  0  0  0  0
  160.4150  209.2240  155.2050 C   0  0  0  0  0  3  0  0  0  0  0  0
  160.8190  208.1390  154.2970 C   0  0  0  0  0  0  0  0  0  0  0  0
  162.6530  206.2530  147.3900 C   0  0  1  0  0  3  0  0  0  0  0  0
  163.7190  205.3750  147.1740 O   0  0  0  0  0  1  0  0  0  0  0  0
  161.5240  205.9380  146.4170 C   0  0  0  0  0  2  0  0  0  0  0  0
  160.9560  205.3600  143.9890 C   0  0  2  0  0  3  0  0  0  0  0  0
  162.0450  205.7310  144.9920 C   0  0  2  0  0  3  0  0  0  0  0  0
  159.7070  205.1510  144.6140 O   0  0  0  0  0  0  0  0  0  0  0  0
  161.0680  203.2730  145.1070 C   0  0  2  0  0  3  0  0  0  0  0  0
  159.6590  203.8020  145.0060 C   0  0  0  0  0  2  0  0  0  0  0  0
  161.4570  203.0500  146.4870 N   0  0  0  0  0  1  0  0  0  0  0  0
  161.9480  204.3010  144.4330 C   0  0  1  0  0  3  0  0  0  0  0  0
  160.2380  211.4560  155.8840 O   0  0  0  0  0  0  0  0  0  0  0  0
  159.4140  212.5570  155.5250 C   0  0  0  0  0  2  0  0  0  0  0  0
  157.2620  211.3240  155.7580 O   0  0  0  0  0  1  0  0  0  0  0  0
  157.8210  212.3200  153.7680 O   0  0  0  0  0  0  0  0  0  0  0  0
  158.1340  212.0520  154.9580 C   0  0  0  0  0  0  0  0  0  0  0  0
  160.5590  211.5120  147.1960 C   0  0  0  0  0  2  0  0  0  0  0  0
  160.7780  212.8500  146.6760 N   0  0  0  0  0  2  0  0  0  0  0  0
  159.7240  213.1040  145.7110 C   0  0  0  0  0  2  0  0  0  0  0  0
  160.9360  212.9290  143.5650 C   0  0  1  0  0  3  0  0  0  0  0  0
  159.4580  212.9760  143.2410 C   0  0  0  0  0  2  0  0  0  0  0  0
  159.9390  212.2420  144.4780 C   0  0  2  0  0  3  0  0  0  0  0  0
  161.5630  211.9590  142.7470 O   0  0  0  0  0  0  0  0  0  0  0  0
  162.2130  211.6940  140.5060 N   0  0  0  0  0  0  0  0  0  0  0  0
  162.2840  212.3550  141.6230 C   0  0  0  0  0  3  0  0  0  0  0  0
  161.3870  210.5030  140.3420 C   0  0  0  0  0  2  0  0  0  0  0  0
  159.9930  210.8900  139.8750 C   0  0  0  0  0  1  0  0  0  0  0  0
  1 22  2  0  0  0  0
  1 34  1  0  0  0  0
  2 12  1  0  0  0  0
  3  7  1  0  0  0  0
  4 19  2  0  0  0  0
  5 21  1  0  0  0  0
  6  1  1  0  0  0  0
  7 13  1  0  0  0  0
  8  2  1  0  0  0  0
  9 10  1  0  0  0  0
 10 18  2  0  0  0  0
 11 24  1  6  0  0  0
 11  5  1  0  0  0  0
 11 10  1  0  0  0  0
 12  4  2  0  0  0  0
 13 16  1  0  0  0  0
 14  3  1  6  0  0  0
 14 23  1  0  0  0  0
 15 39  1  1  0  0  0
 15  8  1  0  0  0  0
 15 20  1  0  0  0  0
 17  7  2  0  0  0  0
 18  3  2  0  0  0  0
 19 14  1  0  0  0  0
 19  6  1  0  0  0  0
 20  9  1  6  0  0  0
 20 12  1  0  0  0  0
 21 17  2  0  0  0  0
 23 16  2  0  0  0  0
 23 22  1  0  0  0  0
 24 25  1  1  0  0  0
 26 24  1  0  0  0  0
 27 33  1  0  0  0  0
 27 29  1  1  0  0  0
 27 28  1  0  0  0  0
 28 26  1  1  0  0  0
 29 31  1  0  0  0  0
 30 32  1  1  0  0  0
 31 30  1  0  0  0  0
 33 28  1  0  0  0  0
 33 30  1  0  0  0  0
 35 34  1  0  0  0  0
 37 38  2  0  0  0  0
 38 35  1  0  0  0  0
 38 36  1  0  0  0  0
 40 39  1  0  0  0  0
 41 40  1  0  0  0  0
 42 44  1  0  0  0  0
 43 42  1  0  0  0  0
 43 44  1  0  0  0  0
 44 41  1  0  0  0  0
 45 42  1  0  0  0  0
 46 47  2  0  0  0  0
 47 45  1  0  0  0  0
 48 46  1  0  0  0  0
 49 48  1  0  0  0  0
M  END
>  <MODEL>
2

>  <REMARK>
 VINA RESULT:      -6.6      2.281      8.079
  Name = 
  13 active torsions:
  status: ('A' for Active; 'I' for Inactive)
    1  A    between atoms: C_1  and  O_9
    2  A    between atoms: C_2  and  O_15
    3  A    between atoms: C_3  and  N_29
    4  A    between atoms: C_5  and  C_22
    5  A    between atoms: C_5  and  C_38
    6  A    between atoms: C_6  and  N_17
    7  A    between atoms: C_6  and  C_33
    8  A    between atoms: O_9  and  C_49
    9  A    between atoms: O_15  and  C_31
   10  A    between atoms: N_17  and  C_32
   11  A    between atoms: C_25  and  C_38
   12  A    between atoms: C_31  and  C_34
   13  A    between atoms: C_32  and  C_36
                            x       y       z     vdW  Elec       q    Type
                         _______ _______ _______ _____ _____    ______ ____

>  <TORSDO>
F 13

$$$$
=
 OpenBabel11042420313D

 49 56  0  0  1  0  0  0  0  0999 V2000
  159.9460  213.4540  142.7430 C   0  0  0  0  0  0  0  0  0  0  0  0
  163.3180  212.8660  147.1800 O   0  0  0  0  0  0  0  0  0  0  0  0
  158.3280  213.5790  146.7440 C   0  0  0  0  0  0  0  0  0  0  0  0
  161.1950  213.0890  146.1870 C   0  0  0  0  0  0  0  0  0  0  0  0
  157.1210  213.0250  150.2180 C   0  0  0  0  0  2  0  0  0  0  0  0
  160.9720  213.5640  143.8450 C   0  0  0  0  0  2  0  0  0  0  0  0
  156.8660  213.7910  146.8480 C   0  0  0  0  0  0  0  0  0  0  0  0
  163.9400  212.2540  148.2450 N   0  0  0  0  0  2  0  0  0  0  0  0
  160.7450  212.8200  149.3020 O   0  0  0  0  0  0  0  0  0  0  0  0
  159.4280  213.2490  149.0770 C   0  0  0  0  0  0  0  0  0  0  0  0
  158.5230  213.6920  150.2230 C   0  0  2  0  0  3  0  0  0  0  0  0
  161.9560  212.7410  147.1910 C   0  0  0  0  0  0  0  0  0  0  0  0
  156.1660  214.4530  145.7080 C   0  0  0  0  0  2  0  0  0  0  0  0
  159.0410  214.0780  145.5030 C   0  0  1  0  0  3  0  0  0  0  0  0
  162.8490  211.6800  149.0560 C   0  0  1  0  0  3  0  0  0  0  0  0
  156.8270  214.1260  144.4410 N   0  0  0  0  0  0  0  0  0  0  0  0
  156.3340  213.7700  148.0490 C   0  0  0  0  0  0  0  0  0  0  0  0
  158.9680  213.3880  147.8700 C   0  0  0  0  0  0  0  0  0  0  0  0
  160.3810  213.4180  145.2130 C   0  0  0  0  0  0  0  0  0  0  0  0
  161.5070  212.0110  148.3960 C   0  0  1  0  0  3  0  0  0  0  0  0
  156.0990  213.7000  149.3310 C   0  0  0  0  0  3  0  0  0  0  0  0
  158.6480  213.6670  142.9710 C   0  0  0  0  0  3  0  0  0  0  0  0
  158.1150  213.9790  144.3060 C   0  0  0  0  0  0  0  0  0  0  0  0
  159.1560  213.5290  151.6090 C   0  0  1  0  0  3  0  0  0  0  0  0
  158.3670  214.1420  152.5870 O   0  0  0  0  0  1  0  0  0  0  0  0
  159.3960  212.0710  151.9820 C   0  0  0  0  0  2  0  0  0  0  0  0
  159.4090  211.7160  154.5170 C   0  0  2  0  0  3  0  0  0  0  0  0
  158.5980  211.6650  153.2250 C   0  0  2  0  0  3  0  0  0  0  0  0
  160.7720  211.9980  154.2780 O   0  0  0  0  0  0  0  0  0  0  0  0
  160.3870  209.7540  153.6160 C   0  0  2  0  0  3  0  0  0  0  0  0
  161.4150  210.7700  154.0450 C   0  0  0  0  0  2  0  0  0  0  0  0
  160.5210  209.4190  152.2100 N   0  0  0  0  0  1  0  0  0  0  0  0
  159.0400  210.3690  153.9240 C   0  0  1  0  0  3  0  0  0  0  0  0
  160.3390  213.1590  141.4360 O   0  0  0  0  0  0  0  0  0  0  0  0
  159.6210  212.2570  140.6050 C   0  0  0  0  0  2  0  0  0  0  0  0
  161.2700  210.3910  140.5470 O   0  0  0  0  0  1  0  0  0  0  0  0
  160.7390  211.5330  138.6290 O   0  0  0  0  0  0  0  0  0  0  0  0
  160.5820  211.3900  139.8700 C   0  0  0  0  0  0  0  0  0  0  0  0
  163.0030  210.1750  149.1540 C   0  0  0  0  0  2  0  0  0  0  0  0
  161.7380  209.5220  148.8720 N   0  0  0  0  0  2  0  0  0  0  0  0
  162.0520  208.2090  148.3360 C   0  0  0  0  0  2  0  0  0  0  0  0
  161.5170  205.8300  148.7300 C   0  0  1  0  0  3  0  0  0  0  0  0
  160.7030  206.2790  147.5350 C   0  0  0  0  0  2  0  0  0  0  0  0
  160.9430  207.2330  148.6900 C   0  0  2  0  0  3  0  0  0  0  0  0
  160.7100  205.0210  149.5660 O   0  0  0  0  0  0  0  0  0  0  0  0
  161.4630  204.5900  151.7480 N   0  0  0  0  0  0  0  0  0  0  0  0
  161.3020  204.1960  150.5200 C   0  0  0  0  0  3  0  0  0  0  0  0
  161.0450  205.9050  152.2190 C   0  0  0  0  0  2  0  0  0  0  0  0
  161.5360  206.1360  153.6400 C   0  0  0  0  0  1  0  0  0  0  0  0
  1 22  2  0  0  0  0
  1  6  1  0  0  0  0
  2 12  1  0  0  0  0
  2  8  1  0  0  0  0
  3  7  1  0  0  0  0
  3 18  2  0  0  0  0
  4 12  2  0  0  0  0
  5 11  1  0  0  0  0
  6 19  1  0  0  0  0
  7 17  2  0  0  0  0
  8 15  1  0  0  0  0
 10  9  1  0  0  0  0
 10 11  1  0  0  0  0
 11 24  1  1  0  0  0
 13  7  1  0  0  0  0
 14 23  1  6  0  0  0
 14  3  1  0  0  0  0
 15 39  1  6  0  0  0
 16 13  1  0  0  0  0
 17 21  2  0  0  0  0
 18 10  2  0  0  0  0
 19 14  1  0  0  0  0
 19  4  2  0  0  0  0
 20 12  1  6  0  0  0
 20 15  1  0  0  0  0
 20  9  1  0  0  0  0
 21  5  1  0  0  0  0
 22 23  1  0  0  0  0
 23 16  2  0  0  0  0
 24 26  1  0  0  0  0
 24 25  1  1  0  0  0
 27 29  1  6  0  0  0
 28 26  1  6  0  0  0
 28 33  1  0  0  0  0
 28 27  1  0  0  0  0
 30 32  1  6  0  0  0
 30 33  1  0  0  0  0
 30 31  1  0  0  0  0
 31 29  1  0  0  0  0
 33 27  1  0  0  0  0
 34  1  1  0  0  0  0
 35 34  1  0  0  0  0
 37 38  2  0  0  0  0
 38 36  1  0  0  0  0
 38 35  1  0  0  0  0
 40 39  1  0  0  0  0
 41 44  1  0  0  0  0
 41 40  1  0  0  0  0
 42 45  1  0  0  0  0
 43 44  1  0  0  0  0
 43 42  1  0  0  0  0
 44 42  1  0  0  0  0
 45 47  1  0  0  0  0
 46 48  1  0  0  0  0
 47 46  2  0  0  0  0
 48 49  1  0  0  0  0
M  END
>  <MODEL>
3

>  <REMARK>
 VINA RESULT:      -6.0      2.397      8.030
  Name = 
  13 active torsions:
  status: ('A' for Active; 'I' for Inactive)
    1  A    between atoms: C_1  and  O_9
    2  A    between atoms: C_2  and  O_15
    3  A    between atoms: C_3  and  N_29
    4  A    between atoms: C_5  and  C_22
    5  A    between atoms: C_5  and  C_38
    6  A    between atoms: C_6  and  N_17
    7  A    between atoms: C_6  and  C_33
    8  A    between atoms: O_9  and  C_49
    9  A    between atoms: O_15  and  C_31
   10  A    between atoms: N_17  and  C_32
   11  A    between atoms: C_25  and  C_38
   12  A    between atoms: C_31  and  C_34
   13  A    between atoms: C_32  and  C_36
                            x       y       z     vdW  Elec       q    Type
                         _______ _______ _______ _____ _____    ______ ____

>  <TORSDO>
F 13

$$$$
=
 OpenBabel11042420313D

 49 56  0  0  1  0  0  0  0  0999 V2000
  160.1380  213.2390  142.6700 C   0  0  0  0  0  0  0  0  0  0  0  0
  163.4230  212.7230  147.1810 O   0  0  0  0  0  0  0  0  0  0  0  0
  158.4620  213.5580  146.6360 C   0  0  0  0  0  0  0  0  0  0  0  0
  161.3220  212.9680  146.1460 C   0  0  0  0  0  0  0  0  0  0  0  0
  157.1860  213.1680  150.1080 C   0  0  0  0  0  2  0  0  0  0  0  0
  161.1500  213.3620  143.7840 C   0  0  0  0  0  2  0  0  0  0  0  0
  157.0060  213.8140  146.7080 C   0  0  0  0  0  0  0  0  0  0  0  0
  164.0100  212.1340  148.2780 N   0  0  0  0  0  2  0  0  0  0  0  0
  160.8170  212.8280  149.2600 O   0  0  0  0  0  0  0  0  0  0  0  0
  159.5160  213.2850  148.9970 C   0  0  0  0  0  0  0  0  0  0  0  0
  158.6050  213.7960  150.1110 C   0  0  2  0  0  3  0  0  0  0  0  0
  162.0570  212.6370  147.1740 C   0  0  0  0  0  0  0  0  0  0  0  0
  156.3420  214.4530  145.5330 C   0  0  0  0  0  2  0  0  0  0  0  0
  159.2090  213.9910  145.3900 C   0  0  1  0  0  3  0  0  0  0  0  0
  162.8910  211.6220  149.0920 C   0  0  1  0  0  3  0  0  0  0  0  0
  157.0130  214.0610  144.2900 N   0  0  0  0  0  0  0  0  0  0  0  0
  156.4540  213.8530  147.8990 C   0  0  0  0  0  0  0  0  0  0  0  0
  159.0790  213.3920  147.7790 C   0  0  0  0  0  0  0  0  0  0  0  0
  160.5330  213.2830  145.1470 C   0  0  0  0  0  0  0  0  0  0  0  0
  161.5690  211.9650  148.3970 C   0  0  1  0  0  3  0  0  0  0  0  0
  156.1970  213.8380  149.1790 C   0  0  0  0  0  3  0  0  0  0  0  0
  158.8430  213.4970  142.8690 C   0  0  0  0  0  3  0  0  0  0  0  0
  158.2990  213.8730  144.1820 C   0  0  0  0  0  0  0  0  0  0  0  0
  159.2120  213.6670  151.5130 C   0  0  1  0  0  3  0  0  0  0  0  0
  158.3950  214.2870  152.4630 O   0  0  0  0  0  1  0  0  0  0  0  0
  159.4630  212.2190  151.9180 C   0  0  0  0  0  2  0  0  0  0  0  0
  158.8270  211.9070  154.3780 C   0  0  2  0  0  3  0  0  0  0  0  0
  158.4170  211.7210  152.9190 C   0  0  2  0  0  3  0  0  0  0  0  0
  160.1530  212.3780  154.5010 O   0  0  0  0  0  0  0  0  0  0  0  0
  160.2700  210.0930  153.8800 C   0  0  2  0  0  3  0  0  0  0  0  0
  160.9940  211.2520  154.5160 C   0  0  0  0  0  2  0  0  0  0  0  0
  160.8280  209.7600  152.5820 N   0  0  0  0  0  1  0  0  0  0  0  0
  158.8200  210.5120  153.7790 C   0  0  1  0  0  3  0  0  0  0  0  0
  160.5430  212.8860  141.3810 O   0  0  0  0  0  0  0  0  0  0  0  0
  161.6960  212.0920  141.1330 C   0  0  0  0  0  2  0  0  0  0  0  0
  162.3410  210.2060  139.6380 O   0  0  0  0  0  0  0  0  0  0  0  0
  160.1290  210.6920  140.0090 O   0  0  0  0  0  1  0  0  0  0  0  0
  161.3380  210.9720  140.2200 C   0  0  0  0  0  0  0  0  0  0  0  0
  163.0000  210.1170  149.2470 C   0  0  0  0  0  2  0  0  0  0  0  0
  161.7830  209.4750  148.7840 N   0  0  0  0  0  2  0  0  0  0  0  0
  161.4130  208.4990  149.7930 C   0  0  0  0  0  2  0  0  0  0  0  0
  160.8670  206.3920  148.6230 C   0  0  1  0  0  3  0  0  0  0  0  0
  161.1240  206.0450  150.0740 C   0  0  0  0  0  2  0  0  0  0  0  0
  161.9410  207.1300  149.3990 C   0  0  2  0  0  3  0  0  0  0  0  0
  161.4780  205.4190  147.7950 O   0  0  0  0  0  0  0  0  0  0  0  0
  162.9050  205.3420  145.9320 N   0  0  0  0  0  0  0  0  0  0  0  0
  162.6860  205.7000  147.1630 C   0  0  0  0  0  3  0  0  0  0  0  0
  161.9200  204.6280  145.1290 C   0  0  0  0  0  2  0  0  0  0  0  0
  161.3250  205.5550  144.0800 C   0  0  0  0  0  1  0  0  0  0  0  0
  1 22  2  0  0  0  0
  1  6  1  0  0  0  0
  2  8  1  0  0  0  0
  3  7  1  0  0  0  0
  3 18  2  0  0  0  0
  4 12  2  0  0  0  0
  5 11  1  0  0  0  0
  6 19  1  0  0  0  0
  7 17  2  0  0  0  0
  8 15  1  0  0  0  0
 10  9  1  0  0  0  0
 10 11  1  0  0  0  0
 11 24  1  1  0  0  0
 12  2  1  0  0  0  0
 13  7  1  0  0  0  0
 14 23  1  6  0  0  0
 14  3  1  0  0  0  0
 15 39  1  6  0  0  0
 16 13  1  0  0  0  0
 17 21  2  0  0  0  0
 18 10  2  0  0  0  0
 19 14  1  0  0  0  0
 19  4  2  0  0  0  0
 20 12  1  6  0  0  0
 20 15  1  0  0  0  0
 20  9  1  0  0  0  0
 21  5  1  0  0  0  0
 22 23  1  0  0  0  0
 23 16  2  0  0  0  0
 24 26  1  0  0  0  0
 24 25  1  1  0  0  0
 27 29  1  6  0  0  0
 28 26  1  6  0  0  0
 28 33  1  0  0  0  0
 28 27  1  0  0  0  0
 29 31  1  0  0  0  0
 30 32  1  6  0  0  0
 30 31  1  0  0  0  0
 33 30  1  0  0  0  0
 33 27  1  0  0  0  0
 34  1  1  0  0  0  0
 35 34  1  0  0  0  0
 36 38  2  0  0  0  0
 37 38  1  0  0  0  0
 38 35  1  0  0  0  0
 40 39  1  0  0  0  0
 40 41  1  0  0  0  0
 42 44  1  0  0  0  0
 42 43  1  0  0  0  0
 44 41  1  0  0  0  0
 44 43  1  0  0  0  0
 45 42  1  0  0  0  0
 46 47  2  0  0  0  0
 47 45  1  0  0  0  0
 48 46  1  0  0  0  0
 49 48  1  0  0  0  0
M  END
>  <MODEL>
4

>  <REMARK>
 VINA RESULT:      -5.6      2.640      7.769
  Name = 
  13 active torsions:
  status: ('A' for Active; 'I' for Inactive)
    1  A    between atoms: C_1  and  O_9
    2  A    between atoms: C_2  and  O_15
    3  A    between atoms: C_3  and  N_29
    4  A    between atoms: C_5  and  C_22
    5  A    between atoms: C_5  and  C_38
    6  A    between atoms: C_6  and  N_17
    7  A    between atoms: C_6  and  C_33
    8  A    between atoms: O_9  and  C_49
    9  A    between atoms: O_15  and  C_31
   10  A    between atoms: N_17  and  C_32
   11  A    between atoms: C_25  and  C_38
   12  A    between atoms: C_31  and  C_34
   13  A    between atoms: C_32  and  C_36
                            x       y       z     vdW  Elec       q    Type
                         _______ _______ _______ _____ _____    ______ ____

>  <TORSDO>
F 13

$$$$
