=
 OpenBabel11052411293D

 57 64  0  0  1  0  0  0  0  0999 V2000
  162.3640  206.7460  153.6820 O   0  0  0  0  0  0  0  0  0  0  0  0
  162.7030  210.6250  151.3930 C   0  0  0  0  0  1  0  0  0  0  0  0
  160.3760  210.2520  152.2100 C   0  0  1  0  0  3  0  0  0  0  0  0
  159.6250  209.1720  152.9840 C   0  0  0  0  0  2  0  0  0  0  0  0
  160.1020  207.3860  150.5430 O   0  0  0  0  0  0  0  0  0  0  0  0
  161.3550  204.7130  151.3380 C   0  0  2  0  0  0  0  0  0  0  0  0
  159.8440  207.3900  154.5900 O   0  0  0  0  0  0  0  0  0  0  0  0
  159.9120  206.2760  153.7420 C   0  0  0  0  0  2  0  0  0  0  0  0
  161.3450  205.7580  153.7560 C   0  0  1  0  0  3  0  0  0  0  0  0
  161.5210  209.6750  151.3650 C   0  0  2  0  0  3  0  0  0  0  0  0
  161.6130  204.5530  152.8480 C   0  0  0  0  0  2  0  0  0  0  0  0
  161.9700  208.2610  151.7750 C   0  0  1  0  0  3  0  0  0  0  0  0
  161.8850  205.9540  150.8450 O   0  0  0  0  0  0  0  0  0  0  0  0
  161.8710  208.0180  153.2950 C   0  0  1  0  0  3  0  0  0  0  0  0
  160.5420  208.4800  154.0080 C   0  0  1  0  0  0  0  0  0  0  0  0
  161.2620  207.1940  150.9990 C   0  0  0  0  0  0  0  0  0  0  0  0
  159.8600  204.5990  151.0720 C   0  0  0  0  0  1  0  0  0  0  0  0
  162.3140  209.8220  155.3970 C   0  0  2  0  0  3  0  0  0  0  0  0
  160.1500  211.0420  156.9150 C   0  0  0  0  0  3  0  0  0  0  0  0
  159.8610  210.0710  155.8490 C   0  0  0  0  0  0  0  0  0  0  0  0
  162.5790  210.7690  156.5660 C   0  0  1  0  0  0  0  0  0  0  0  0
  160.8550  209.4780  155.1320 C   0  0  0  0  0  0  0  0  0  0  0  0
  158.4170  209.7750  155.6130 C   0  0  0  0  0  1  0  0  0  0  0  0
  161.3920  211.3700  157.2530 C   0  0  0  0  0  3  0  0  0  0  0  0
  162.7360  209.2730  156.7610 C   0  0  0  0  0  2  0  0  0  0  0  0
  163.8750  211.5390  156.5290 C   0  0  0  0  0  0  0  0  0  0  0  0
  163.9570  212.6140  157.1000 O   0  0  0  0  0  0  0  0  0  0  0  0
  165.0670  211.0310  155.7840 C   0  0  0  0  0  1  0  0  0  0  0  0
  159.4840  210.9500  151.3890 O   0  0  0  0  0  0  0  0  0  0  0  0
  160.0860  212.2760  153.2840 C   0  0  0  0  0  1  0  0  0  0  0  0
  159.1310  212.0970  152.1120 C   0  0  1  0  0  3  0  0  0  0  0  0
  159.1200  213.3240  151.1960 C   0  0  1  0  0  3  0  0  0  0  0  0
  158.6710  214.4470  151.8930 O   0  0  0  0  0  1  0  0  0  0  0  0
  160.4450  213.5830  150.6360 N   0  0  0  0  0  2  0  0  0  0  0  0
  161.4140  212.9250  148.4630 C   0  0  2  0  0  3  0  0  0  0  0  0
  160.9370  212.3260  147.1240 C   0  0  0  0  0  2  0  0  0  0  0  0
  159.4680  214.1480  146.2190 C   0  0  0  0  0  3  0  0  0  0  0  0
  158.9020  213.5710  148.5960 C   0  0  0  0  0  2  0  0  0  0  0  0
  160.3180  213.7020  149.1870 C   0  0  1  0  0  0  0  0  0  0  0  0
  158.7020  214.3020  147.3030 C   0  0  0  0  0  3  0  0  0  0  0  0
  160.5800  213.2960  146.1390 O   0  0  0  0  0  0  0  0  0  0  0  0
  161.4390  214.4530  148.4860 C   0  0  0  0  0  2  0  0  0  0  0  0
  161.9950  203.5890  150.6430 N   0  0  0  0  0  2  0  0  0  0  0  0
  160.5840  201.9290  149.9490 C   0  0  0  0  0  1  0  0  0  0  0  0
  161.2080  203.1800  149.5500 N   0  0  0  0  0  0  0  0  0  0  0  0
  162.1180  202.8750  148.4510 C   0  0  0  0  0  2  0  0  0  0  0  0
  161.5890  203.3910  147.0920 C   0  0  2  0  0  0  0  0  0  0  0  0
  162.6880  203.3240  146.0250 C   0  0  0  0  0  1  0  0  0  0  0  0
  161.0290  205.6850  145.9600 C   0  0  2  0  0  0  0  0  0  0  0  0
  162.3190  207.0080  147.5050 O   0  0  0  0  0  1  0  0  0  0  0  0
  162.3280  205.8440  146.7370 C   0  0  1  0  0  3  0  0  0  0  0  0
  160.1350  206.7520  146.0750 O   0  0  0  0  0  1  0  0  0  0  0  0
  161.2370  204.8910  147.2450 C   0  0  2  0  0  3  0  0  0  0  0  0
  161.1560  205.0460  144.6140 C   0  0  0  0  0  3  0  0  0  0  0  0
  161.2500  205.7360  143.6140 O   0  0  0  0  0  0  0  0  0  0  0  0
  160.8520  201.3970  146.1500 C   0  0  0  0  0  1  0  0  0  0  0  0
  160.4530  202.6430  146.6730 O   0  0  0  0  0  0  0  0  0  0  0  0
  1  9  1  0  0  0  0
  3 29  1  6  0  0  0
  3  4  1  0  0  0  0
  4 15  1  0  0  0  0
  5 16  2  0  0  0  0
  6 17  1  6  0  0  0
  6 11  1  0  0  0  0
  8  9  1  0  0  0  0
  8  7  1  0  0  0  0
  9 11  1  6  0  0  0
 10  2  1  1  0  0  0
 10 12  1  0  0  0  0
 10  3  1  0  0  0  0
 12 16  1  6  0  0  0
 12 14  1  0  0  0  0
 13 16  1  0  0  0  0
 13  6  1  0  0  0  0
 14  1  1  6  0  0  0
 14 15  1  0  0  0  0
 15  7  1  0  0  0  0
 15 22  1  1  0  0  0
 18 21  1  0  0  0  0
 18 25  1  1  0  0  0
 19 24  2  0  0  0  0
 20 19  1  0  0  0  0
 21 26  1  6  0  0  0
 21 25  1  0  0  0  0
 21 24  1  0  0  0  0
 22 18  1  0  0  0  0
 22 20  2  0  0  0  0
 23 20  1  0  0  0  0
 26 27  2  0  0  0  0
 28 26  1  0  0  0  0
 29 31  1  0  0  0  0
 31 30  1  1  0  0  0
 32 33  1  1  0  0  0
 32 31  1  0  0  0  0
 34 32  1  0  0  0  0
 35 36  1  6  0  0  0
 35 42  1  0  0  0  0
 35 39  1  0  0  0  0
 37 40  2  0  0  0  0
 38 39  1  0  0  0  0
 39 34  1  1  0  0  0
 40 38  1  0  0  0  0
 41 37  1  0  0  0  0
 41 36  1  0  0  0  0
 42 39  1  0  0  0  0
 43  6  1  0  0  0  0
 45 44  1  0  0  0  0
 45 43  1  0  0  0  0
 46 45  1  0  0  0  0
 47 48  1  6  0  0  0
 47 46  1  0  0  0  0
 49 52  1  1  0  0  0
 49 51  1  0  0  0  0
 49 53  1  0  0  0  0
 51 53  1  0  0  0  0
 51 50  1  1  0  0  0
 53 47  1  6  0  0  0
 54 49  1  0  0  0  0
 55 54  2  0  0  0  0
 56 57  1  0  0  0  0
 57 47  1  0  0  0  0
M  END
>  <MODEL>
1

>  <REMARK>
 VINA RESULT:      -0.1      0.000      0.000
  Name = 
  14 active torsions:
  status: ('A' for Active; 'I' for Inactive)
    1  A    between atoms: C_1  and  C_10
    2  A    between atoms: C_8  and  O_46
    3  A    between atoms: N_9  and  C_16
    4  A    between atoms: N_9  and  C_33
    5  A    between atoms: C_16  and  C_43
    6  A    between atoms: C_18  and  N_35
    7  A    between atoms: C_18  and  C_54
    8  A    between atoms: C_19  and  N_49
    9  A    between atoms: C_25  and  C_42
   10  A    between atoms: O_28  and  C_54
   11  A    between atoms: C_29  and  C_54
   12  A    between atoms: N_35  and  N_49
   13  A    between atoms: C_37  and  C_45
   14  A    between atoms: C_43  and  O_46
                            x       y       z     vdW  Elec       q    Type
                         _______ _______ _______ _____ _____    ______ ____

>  <TORSDO>
F 14

$$$$
=
 OpenBabel11052411293D

 57 64  0  0  1  0  0  0  0  0999 V2000
  162.4250  206.2300  153.1960 O   0  0  0  0  0  0  0  0  0  0  0  0
  163.0050  210.2880  151.2990 C   0  0  0  0  0  1  0  0  0  0  0  0
  160.6700  209.9970  152.1260 C   0  0  1  0  0  3  0  0  0  0  0  0
  159.8550  208.8980  152.8050 C   0  0  0  0  0  2  0  0  0  0  0  0
  160.1670  207.3400  150.1880 O   0  0  0  0  0  0  0  0  0  0  0  0
  161.2400  204.5200  150.6840 C   0  0  2  0  0  0  0  0  0  0  0  0
  159.9720  206.9520  154.2190 O   0  0  0  0  0  0  0  0  0  0  0  0
  159.9470  205.9280  153.2630 C   0  0  0  0  0  2  0  0  0  0  0  0
  161.3400  205.3130  153.1940 C   0  0  1  0  0  3  0  0  0  0  0  0
  161.7570  209.4300  151.2030 C   0  0  2  0  0  3  0  0  0  0  0  0
  161.5080  204.1910  152.1640 C   0  0  0  0  0  2  0  0  0  0  0  0
  162.1120  207.9540  151.4590 C   0  0  1  0  0  3  0  0  0  0  0  0
  161.8480  205.7650  150.3060 O   0  0  0  0  0  0  0  0  0  0  0  0
  162.0190  207.5660  152.9500 C   0  0  1  0  0  3  0  0  0  0  0  0
  160.7360  208.0450  153.7340 C   0  0  1  0  0  0  0  0  0  0  0  0
  161.3170  207.0220  150.5960 C   0  0  0  0  0  0  0  0  0  0  0  0
  159.7360  204.5370  150.4410 C   0  0  0  0  0  1  0  0  0  0  0  0
  160.9520  210.4080  154.8470 C   0  0  2  0  0  3  0  0  0  0  0  0
  161.9720  209.1400  157.2610 C   0  0  0  0  0  3  0  0  0  0  0  0
  161.6050  208.3310  156.0890 C   0  0  0  0  0  0  0  0  0  0  0  0
  161.4240  211.2210  156.0510 C   0  0  1  0  0  0  0  0  0  0  0  0
  161.1360  208.9000  154.9450 C   0  0  0  0  0  0  0  0  0  0  0  0
  161.7870  206.8560  156.2340 C   0  0  0  0  0  1  0  0  0  0  0  0
  161.8950  210.4650  157.2560 C   0  0  0  0  0  3  0  0  0  0  0  0
  162.3190  211.0960  154.8330 C   0  0  0  0  0  2  0  0  0  0  0  0
  160.7950  212.5800  156.2350 C   0  0  0  0  0  0  0  0  0  0  0  0
  159.7990  212.8770  155.5980 O   0  0  0  0  0  0  0  0  0  0  0  0
  161.3790  213.5920  157.1660 C   0  0  0  0  0  1  0  0  0  0  0  0
  159.8170  210.8340  151.3990 O   0  0  0  0  0  0  0  0  0  0  0  0
  160.9050  212.6580  150.3050 C   0  0  0  0  0  1  0  0  0  0  0  0
  160.3060  212.1310  151.6010 C   0  0  1  0  0  3  0  0  0  0  0  0
  159.1970  213.0460  152.1280 C   0  0  1  0  0  3  0  0  0  0  0  0
  159.0200  214.1360  151.2740 O   0  0  0  0  0  1  0  0  0  0  0  0
  157.9370  212.3220  152.2800 N   0  0  0  0  0  2  0  0  0  0  0  0
  156.3010  213.9370  153.1790 C   0  0  2  0  0  3  0  0  0  0  0  0
  155.0610  213.9300  154.0960 C   0  0  0  0  0  2  0  0  0  0  0  0
  156.0430  213.2830  156.3130 C   0  0  0  0  0  3  0  0  0  0  0  0
  156.7610  211.7340  154.4740 C   0  0  0  0  0  2  0  0  0  0  0  0
  157.2710  212.8010  153.4870 C   0  0  1  0  0  0  0  0  0  0  0  0
  156.6930  212.1920  155.9000 C   0  0  0  0  0  3  0  0  0  0  0  0
  155.3470  214.1670  155.4750 O   0  0  0  0  0  0  0  0  0  0  0  0
  157.6130  214.2210  153.9100 C   0  0  0  0  0  2  0  0  0  0  0  0
  161.7880  203.4310  149.8660 N   0  0  0  0  0  2  0  0  0  0  0  0
  160.0800  201.9440  149.5420 C   0  0  0  0  0  1  0  0  0  0  0  0
  160.8400  203.0120  148.9140 N   0  0  0  0  0  0  0  0  0  0  0  0
  161.5760  202.4190  147.8020 C   0  0  0  0  0  2  0  0  0  0  0  0
  161.5350  203.3030  146.5330 C   0  0  2  0  0  0  0  0  0  0  0  0
  162.9040  203.3190  145.8430 C   0  0  0  0  0  1  0  0  0  0  0  0
  161.2850  205.8260  145.8740 C   0  0  2  0  0  0  0  0  0  0  0  0
  162.4310  206.6710  147.8170 O   0  0  0  0  0  1  0  0  0  0  0  0
  162.4720  205.6970  146.8190 C   0  0  1  0  0  3  0  0  0  0  0  0
  160.4540  206.9230  146.1110 O   0  0  0  0  0  1  0  0  0  0  0  0
  161.2620  204.7650  146.9680 C   0  0  2  0  0  3  0  0  0  0  0  0
  161.5570  205.4740  144.4460 C   0  0  0  0  0  3  0  0  0  0  0  0
  160.8720  205.9480  143.5570 O   0  0  0  0  0  0  0  0  0  0  0  0
  160.4730  201.4410  145.6360 C   0  0  0  0  0  1  0  0  0  0  0  0
  160.5360  202.8480  145.6290 O   0  0  0  0  0  0  0  0  0  0  0  0
  3 29  1  6  0  0  0
  3  4  1  0  0  0  0
  4 15  1  0  0  0  0
  5 16  2  0  0  0  0
  6 17  1  6  0  0  0
  6 11  1  0  0  0  0
  8  7  1  0  0  0  0
  9 11  1  6  0  0  0
  9  1  1  0  0  0  0
  9  8  1  0  0  0  0
 10  2  1  1  0  0  0
 10 12  1  0  0  0  0
 10  3  1  0  0  0  0
 12 16  1  6  0  0  0
 12 14  1  0  0  0  0
 13 16  1  0  0  0  0
 13  6  1  0  0  0  0
 14  1  1  6  0  0  0
 14 15  1  0  0  0  0
 15  7  1  0  0  0  0
 15 22  1  1  0  0  0
 18 25  1  6  0  0  0
 18 22  1  0  0  0  0
 18 21  1  0  0  0  0
 20 23  1  0  0  0  0
 20 19  1  0  0  0  0
 21 26  1  1  0  0  0
 21 24  1  0  0  0  0
 22 20  2  0  0  0  0
 24 19  2  0  0  0  0
 25 21  1  0  0  0  0
 26 28  1  0  0  0  0
 27 26  2  0  0  0  0
 29 31  1  0  0  0  0
 31 30  1  6  0  0  0
 31 32  1  0  0  0  0
 32 33  1  6  0  0  0
 32 34  1  0  0  0  0
 35 39  1  0  0  0  0
 35 42  1  1  0  0  0
 35 36  1  0  0  0  0
 36 41  1  0  0  0  0
 38 40  1  0  0  0  0
 39 34  1  6  0  0  0
 39 42  1  0  0  0  0
 39 38  1  0  0  0  0
 40 37  2  0  0  0  0
 41 37  1  0  0  0  0
 43  6  1  0  0  0  0
 45 44  1  0  0  0  0
 45 43  1  0  0  0  0
 46 45  1  0  0  0  0
 47 48  1  6  0  0  0
 47 46  1  0  0  0  0
 49 52  1  1  0  0  0
 49 51  1  0  0  0  0
 49 53  1  0  0  0  0
 51 53  1  0  0  0  0
 51 50  1  1  0  0  0
 53 47  1  6  0  0  0
 54 49  1  0  0  0  0
 55 54  2  0  0  0  0
 57 56  1  0  0  0  0
 57 47  1  0  0  0  0
M  END
>  <MODEL>
2

>  <REMARK>
 VINA RESULT:       0.1      1.778      3.494
  Name = 
  14 active torsions:
  status: ('A' for Active; 'I' for Inactive)
    1  A    between atoms: C_1  and  C_10
    2  A    between atoms: C_8  and  O_46
    3  A    between atoms: N_9  and  C_16
    4  A    between atoms: N_9  and  C_33
    5  A    between atoms: C_16  and  C_43
    6  A    between atoms: C_18  and  N_35
    7  A    between atoms: C_18  and  C_54
    8  A    between atoms: C_19  and  N_49
    9  A    between atoms: C_25  and  C_42
   10  A    between atoms: O_28  and  C_54
   11  A    between atoms: C_29  and  C_54
   12  A    between atoms: N_35  and  N_49
   13  A    between atoms: C_37  and  C_45
   14  A    between atoms: C_43  and  O_46
                            x       y       z     vdW  Elec       q    Type
                         _______ _______ _______ _____ _____    ______ ____

>  <TORSDO>
F 14

$$$$
=
 OpenBabel11052411293D

 57 64  0  0  1  0  0  0  0  0999 V2000
  162.3690  206.9330  153.8900 O   0  0  0  0  0  0  0  0  0  0  0  0
  163.0740  210.6320  151.3960 C   0  0  0  0  0  1  0  0  0  0  0  0
  160.7580  210.5870  152.3210 C   0  0  1  0  0  3  0  0  0  0  0  0
  159.9170  209.6440  153.1770 C   0  0  0  0  0  2  0  0  0  0  0  0
  160.0630  207.7040  150.8130 O   0  0  0  0  0  0  0  0  0  0  0  0
  161.0170  204.9360  151.6920 C   0  0  2  0  0  0  0  0  0  0  0  0
  159.9900  207.9240  154.8610 O   0  0  0  0  0  0  0  0  0  0  0  0
  159.8830  206.7730  154.0690 C   0  0  0  0  0  2  0  0  0  0  0  0
  161.2430  206.0830  154.0540 C   0  0  1  0  0  3  0  0  0  0  0  0
  161.7850  209.8350  151.4620 C   0  0  2  0  0  3  0  0  0  0  0  0
  161.3210  204.8140  153.1970 C   0  0  0  0  0  2  0  0  0  0  0  0
  162.0770  208.3960  151.9250 C   0  0  1  0  0  3  0  0  0  0  0  0
  161.6710  206.0780  151.1170 O   0  0  0  0  0  0  0  0  0  0  0  0
  162.0180  208.2360  153.4580 C   0  0  1  0  0  3  0  0  0  0  0  0
  160.7880  208.8920  154.1980 C   0  0  1  0  0  0  0  0  0  0  0  0
  161.2100  207.3910  151.2320 C   0  0  0  0  0  0  0  0  0  0  0  0
  159.5080  204.9950  151.4920 C   0  0  0  0  0  1  0  0  0  0  0  0
  162.7660  210.1590  155.3620 C   0  0  2  0  0  3  0  0  0  0  0  0
  160.8410  211.5320  157.0590 C   0  0  0  0  0  3  0  0  0  0  0  0
  160.3900  210.5570  156.0550 C   0  0  0  0  0  0  0  0  0  0  0  0
  163.2010  211.1130  156.4720 C   0  0  1  0  0  0  0  0  0  0  0  0
  161.2700  209.8940  155.2570 C   0  0  0  0  0  0  0  0  0  0  0  0
  158.9150  210.3400  155.9770 C   0  0  0  0  0  1  0  0  0  0  0  0
  162.1270  211.7960  157.2610 C   0  0  0  0  0  3  0  0  0  0  0  0
  163.2960  209.6150  156.6900 C   0  0  0  0  0  2  0  0  0  0  0  0
  164.5270  211.8070  156.2820 C   0  0  0  0  0  0  0  0  0  0  0  0
  165.3090  211.3990  155.4400 O   0  0  0  0  0  0  0  0  0  0  0  0
  164.9250  212.9770  157.1220 C   0  0  0  0  0  1  0  0  0  0  0  0
  159.9210  211.3510  151.5010 O   0  0  0  0  0  0  0  0  0  0  0  0
  159.6740  212.5390  153.5590 C   0  0  0  0  0  1  0  0  0  0  0  0
  158.9710  211.9170  152.3620 C   0  0  1  0  0  3  0  0  0  0  0  0
  158.1120  212.9400  151.6130 C   0  0  1  0  0  3  0  0  0  0  0  0
  157.5170  213.8260  152.5130 O   0  0  0  0  0  1  0  0  0  0  0  0
  158.9000  213.6810  150.6310 N   0  0  0  0  0  2  0  0  0  0  0  0
  156.7480  213.7770  149.4260 C   0  0  2  0  0  3  0  0  0  0  0  0
  156.1620  214.4530  148.1690 C   0  0  0  0  0  2  0  0  0  0  0  0
  157.4530  213.3500  146.3210 C   0  0  0  0  0  3  0  0  0  0  0  0
  158.9550  214.2240  148.1320 C   0  0  0  0  0  2  0  0  0  0  0  0
  158.2540  213.5530  149.3290 C   0  0  1  0  0  0  0  0  0  0  0  0
  158.6750  213.5760  146.8090 C   0  0  0  0  0  3  0  0  0  0  0  0
  156.2560  213.6670  146.9800 O   0  0  0  0  0  0  0  0  0  0  0  0
  157.3040  212.3760  149.1760 C   0  0  0  0  0  2  0  0  0  0  0  0
  161.4840  203.7110  151.0310 N   0  0  0  0  0  2  0  0  0  0  0  0
  160.6370  202.1420  149.5980 C   0  0  0  0  0  1  0  0  0  0  0  0
  160.8620  203.5670  149.7760 N   0  0  0  0  0  0  0  0  0  0  0  0
  161.8300  203.9790  148.7640 C   0  0  0  0  0  2  0  0  0  0  0  0
  161.3690  205.2380  147.9910 C   0  0  2  0  0  0  0  0  0  0  0  0
  160.1170  205.8390  148.6390 C   0  0  0  0  0  1  0  0  0  0  0  0
  162.0630  204.5590  145.5590 C   0  0  2  0  0  0  0  0  0  0  0  0
  160.2810  205.7710  144.4810 O   0  0  0  0  0  1  0  0  0  0  0  0
  161.2520  205.8460  145.4800 C   0  0  1  0  0  3  0  0  0  0  0  0
  161.7640  203.6090  144.5800 O   0  0  0  0  0  1  0  0  0  0  0  0
  160.9450  204.8050  146.5660 C   0  0  2  0  0  3  0  0  0  0  0  0
  163.5020  204.7260  145.9280 C   0  0  0  0  0  3  0  0  0  0  0  0
  164.3370  203.9410  145.5120 O   0  0  0  0  0  0  0  0  0  0  0  0
  161.8680  207.4930  147.7270 C   0  0  0  0  0  1  0  0  0  0  0  0
  162.4080  206.2090  147.9380 O   0  0  0  0  0  0  0  0  0  0  0  0
  1  9  1  0  0  0  0
  3 29  1  6  0  0  0
  3  4  1  0  0  0  0
  4 15  1  0  0  0  0
  5 16  2  0  0  0  0
  6 17  1  6  0  0  0
  6 11  1  0  0  0  0
  8  7  1  0  0  0  0
  9 11  1  6  0  0  0
  9  8  1  0  0  0  0
 10  2  1  1  0  0  0
 10 12  1  0  0  0  0
 10  3  1  0  0  0  0
 12 16  1  6  0  0  0
 12 14  1  0  0  0  0
 13 16  1  0  0  0  0
 13  6  1  0  0  0  0
 14  1  1  6  0  0  0
 14 15  1  0  0  0  0
 15  7  1  0  0  0  0
 15 22  1  1  0  0  0
 18 21  1  0  0  0  0
 18 25  1  1  0  0  0
 19 24  2  0  0  0  0
 20 19  1  0  0  0  0
 21 26  1  6  0  0  0
 21 25  1  0  0  0  0
 21 24  1  0  0  0  0
 22 18  1  0  0  0  0
 22 20  2  0  0  0  0
 23 20  1  0  0  0  0
 26 28  1  0  0  0  0
 27 26  2  0  0  0  0
 29 31  1  0  0  0  0
 31 30  1  1  0  0  0
 32 31  1  0  0  0  0
 32 33  1  1  0  0  0
 34 32  1  0  0  0  0
 35 36  1  6  0  0  0
 37 40  2  0  0  0  0
 37 41  1  0  0  0  0
 38 39  1  0  0  0  0
 39 35  1  0  0  0  0
 39 34  1  1  0  0  0
 40 38  1  0  0  0  0
 41 36  1  0  0  0  0
 42 39  1  0  0  0  0
 42 35  1  0  0  0  0
 43  6  1  0  0  0  0
 44 45  1  0  0  0  0
 45 43  1  0  0  0  0
 46 45  1  0  0  0  0
 47 48  1  1  0  0  0
 47 46  1  0  0  0  0
 49 52  1  6  0  0  0
 49 54  1  0  0  0  0
 49 53  1  0  0  0  0
 51 50  1  6  0  0  0
 51 49  1  0  0  0  0
 51 53  1  0  0  0  0
 53 47  1  1  0  0  0
 55 54  2  0  0  0  0
 56 57  1  0  0  0  0
 57 47  1  0  0  0  0
M  END
>  <MODEL>
3

>  <REMARK>
 VINA RESULT:       1.6      1.375      2.196
  Name = 
  14 active torsions:
  status: ('A' for Active; 'I' for Inactive)
    1  A    between atoms: C_1  and  C_10
    2  A    between atoms: C_8  and  O_46
    3  A    between atoms: N_9  and  C_16
    4  A    between atoms: N_9  and  C_33
    5  A    between atoms: C_16  and  C_43
    6  A    between atoms: C_18  and  N_35
    7  A    between atoms: C_18  and  C_54
    8  A    between atoms: C_19  and  N_49
    9  A    between atoms: C_25  and  C_42
   10  A    between atoms: O_28  and  C_54
   11  A    between atoms: C_29  and  C_54
   12  A    between atoms: N_35  and  N_49
   13  A    between atoms: C_37  and  C_45
   14  A    between atoms: C_43  and  O_46
                            x       y       z     vdW  Elec       q    Type
                         _______ _______ _______ _____ _____    ______ ____

>  <TORSDO>
F 14

$$$$
=
 OpenBabel11052411293D

 57 64  0  0  1  0  0  0  0  0999 V2000
  162.2780  207.0030  154.1760 O   0  0  0  0  0  0  0  0  0  0  0  0
  163.3850  210.6450  151.7450 C   0  0  0  0  0  1  0  0  0  0  0  0
  160.9250  210.5320  152.1450 C   0  0  1  0  0  3  0  0  0  0  0  0
  159.9500  209.5820  152.8350 C   0  0  0  0  0  2  0  0  0  0  0  0
  160.6780  207.5740  150.6420 O   0  0  0  0  0  0  0  0  0  0  0  0
  161.5110  204.8790  151.8220 C   0  0  2  0  0  0  0  0  0  0  0  0
  159.7120  207.9220  154.5650 O   0  0  0  0  0  0  0  0  0  0  0  0
  159.8210  206.7430  153.8160 C   0  0  0  0  0  2  0  0  0  0  0  0
  161.1740  206.1120  154.1260 C   0  0  1  0  0  3  0  0  0  0  0  0
  162.1400  209.7970  151.5620 C   0  0  2  0  0  3  0  0  0  0  0  0
  161.4820  204.8200  153.3600 C   0  0  0  0  0  2  0  0  0  0  0  0
  162.3740  208.3870  152.1370 C   0  0  1  0  0  3  0  0  0  0  0  0
  162.2350  206.0290  151.3560 O   0  0  0  0  0  0  0  0  0  0  0  0
  161.9860  208.2760  153.6260 C   0  0  1  0  0  3  0  0  0  0  0  0
  160.6020  208.9010  154.0520 C   0  0  1  0  0  0  0  0  0  0  0  0
  161.7150  207.3240  151.3140 C   0  0  0  0  0  0  0  0  0  0  0  0
  160.0820  204.8670  151.2950 C   0  0  0  0  0  1  0  0  0  0  0  0
  162.1910  210.0930  155.7620 C   0  0  2  0  0  3  0  0  0  0  0  0
  159.9800  211.8030  156.5730 C   0  0  0  0  0  3  0  0  0  0  0  0
  159.7900  210.7770  155.5380 C   0  0  0  0  0  0  0  0  0  0  0  0
  162.3280  211.1110  156.8920 C   0  0  1  0  0  0  0  0  0  0  0  0
  160.8050  209.9570  155.1480 C   0  0  0  0  0  0  0  0  0  0  0  0
  158.4190  210.6890  154.9530 C   0  0  0  0  0  1  0  0  0  0  0  0
  161.1380  211.9660  157.2020 C   0  0  0  0  0  3  0  0  0  0  0  0
  162.1580  209.6400  157.2230 C   0  0  0  0  0  2  0  0  0  0  0  0
  163.7110  211.6570  157.1440 C   0  0  0  0  0  0  0  0  0  0  0  0
  163.8800  212.8610  157.2360 O   0  0  0  0  0  0  0  0  0  0  0  0
  164.8990  210.7570  157.2600 C   0  0  0  0  0  1  0  0  0  0  0  0
  160.2620  211.2320  151.1310 O   0  0  0  0  0  0  0  0  0  0  0  0
  159.9260  212.8700  152.8380 C   0  0  0  0  0  1  0  0  0  0  0  0
  159.2770  211.9870  151.7830 C   0  0  1  0  0  3  0  0  0  0  0  0
  158.4750  212.8080  150.7700 C   0  0  1  0  0  3  0  0  0  0  0  0
  157.3080  213.2990  151.3580 O   0  0  0  0  0  1  0  0  0  0  0  0
  159.2660  213.9130  150.2340 N   0  0  0  0  0  2  0  0  0  0  0  0
  159.7530  213.9890  147.8150 C   0  0  2  0  0  3  0  0  0  0  0  0
  160.9750  214.1780  146.8920 C   0  0  0  0  0  2  0  0  0  0  0  0
  162.3260  212.1170  147.3720 C   0  0  0  0  0  3  0  0  0  0  0  0
  161.6300  213.3010  149.4730 C   0  0  0  0  0  2  0  0  0  0  0  0
  160.1230  213.3960  149.1710 C   0  0  1  0  0  0  0  0  0  0  0  0
  162.3490  212.2350  148.7020 C   0  0  0  0  0  3  0  0  0  0  0  0
  161.6130  212.9600  146.5050 O   0  0  0  0  0  0  0  0  0  0  0  0
  159.4320  212.5290  148.1310 C   0  0  0  0  0  2  0  0  0  0  0  0
  162.1540  203.6540  151.3290 N   0  0  0  0  0  2  0  0  0  0  0  0
  161.5150  201.4970  150.9210 C   0  0  0  0  0  1  0  0  0  0  0  0
  161.2350  202.8850  150.5920 N   0  0  0  0  0  0  0  0  0  0  0  0
  161.5550  203.0640  149.1790 C   0  0  0  0  0  2  0  0  0  0  0  0
  160.8690  202.0040  148.2840 C   0  0  2  0  0  0  0  0  0  0  0  0
  161.3400  200.5950  148.6620 C   0  0  0  0  0  1  0  0  0  0  0  0
  161.6130  203.6680  146.4030 C   0  0  2  0  0  0  0  0  0  0  0  0
  160.4090  202.5510  144.6400 O   0  0  0  0  0  1  0  0  0  0  0  0
  160.3210  202.9950  145.9590 C   0  0  1  0  0  3  0  0  0  0  0  0
  162.5840  203.8030  145.4080 O   0  0  0  0  0  1  0  0  0  0  0  0
  161.3320  202.2290  146.8230 C   0  0  2  0  0  3  0  0  0  0  0  0
  161.4520  204.8080  147.3560 C   0  0  0  0  0  3  0  0  0  0  0  0
  161.9920  205.8770  147.1300 O   0  0  0  0  0  0  0  0  0  0  0  0
  158.9190  200.8750  148.8550 C   0  0  0  0  0  1  0  0  0  0  0  0
  159.4530  202.0920  148.3870 O   0  0  0  0  0  0  0  0  0  0  0  0
  3 29  1  6  0  0  0
  3  4  1  0  0  0  0
  4 15  1  0  0  0  0
  5 16  2  0  0  0  0
  6 17  1  6  0  0  0
  6 11  1  0  0  0  0
  8  9  1  0  0  0  0
  8  7  1  0  0  0  0
  9 11  1  6  0  0  0
  9  1  1  0  0  0  0
 10  2  1  1  0  0  0
 10 12  1  0  0  0  0
 10  3  1  0  0  0  0
 12 16  1  6  0  0  0
 12 14  1  0  0  0  0
 13  6  1  0  0  0  0
 14 15  1  0  0  0  0
 14  1  1  6  0  0  0
 15  7  1  0  0  0  0
 15 22  1  1  0  0  0
 16 13  1  0  0  0  0
 18 21  1  0  0  0  0
 18 25  1  1  0  0  0
 19 24  2  0  0  0  0
 20 19  1  0  0  0  0
 21 26  1  1  0  0  0
 21 24  1  0  0  0  0
 21 25  1  0  0  0  0
 22 20  2  0  0  0  0
 22 18  1  0  0  0  0
 23 20  1  0  0  0  0
 26 27  2  0  0  0  0
 26 28  1  0  0  0  0
 29 31  1  0  0  0  0
 31 30  1  1  0  0  0
 32 33  1  1  0  0  0
 32 31  1  0  0  0  0
 34 32  1  0  0  0  0
 35 36  1  6  0  0  0
 35 42  1  0  0  0  0
 35 39  1  0  0  0  0
 37 40  2  0  0  0  0
 39 38  1  0  0  0  0
 39 34  1  1  0  0  0
 40 38  1  0  0  0  0
 41 36  1  0  0  0  0
 41 37  1  0  0  0  0
 42 39  1  0  0  0  0
 43  6  1  0  0  0  0
 45 44  1  0  0  0  0
 45 43  1  0  0  0  0
 46 45  1  0  0  0  0
 47 57  1  0  0  0  0
 47 48  1  1  0  0  0
 47 46  1  0  0  0  0
 49 52  1  6  0  0  0
 49 53  1  0  0  0  0
 49 54  1  0  0  0  0
 51 50  1  6  0  0  0
 51 49  1  0  0  0  0
 51 53  1  0  0  0  0
 53 47  1  1  0  0  0
 55 54  2  0  0  0  0
 57 56  1  0  0  0  0
M  END
>  <MODEL>
4

>  <REMARK>
 VINA RESULT:       1.8      1.115      1.924
  Name = 
  14 active torsions:
  status: ('A' for Active; 'I' for Inactive)
    1  A    between atoms: C_1  and  C_10
    2  A    between atoms: C_8  and  O_46
    3  A    between atoms: N_9  and  C_16
    4  A    between atoms: N_9  and  C_33
    5  A    between atoms: C_16  and  C_43
    6  A    between atoms: C_18  and  N_35
    7  A    between atoms: C_18  and  C_54
    8  A    between atoms: C_19  and  N_49
    9  A    between atoms: C_25  and  C_42
   10  A    between atoms: O_28  and  C_54
   11  A    between atoms: C_29  and  C_54
   12  A    between atoms: N_35  and  N_49
   13  A    between atoms: C_37  and  C_45
   14  A    between atoms: C_43  and  O_46
                            x       y       z     vdW  Elec       q    Type
                         _______ _______ _______ _____ _____    ______ ____

>  <TORSDO>
F 14

$$$$
=
 OpenBabel11052411293D

 57 65  0  0  1  0  0  0  0  0999 V2000
  160.5840  207.9420  150.1370 O   0  0  0  0  0  0  0  0  0  0  0  0
  158.8990  209.9820  153.7970 C   0  0  0  0  0  1  0  0  0  0  0  0
  161.2800  210.6200  153.4160 C   0  0  2  0  0  0  0  0  0  0  0  0
  162.3820  210.2730  152.4180 C   0  0  0  0  0  2  0  0  0  0  0  0
  162.3050  207.4620  153.6280 O   0  0  0  0  0  0  0  0  0  0  0  0
  161.9990  205.3200  151.4680 C   0  0  2  0  0  0  0  0  0  0  0  0
  162.8400  209.5210  150.1760 O   0  0  0  0  0  0  0  0  0  0  0  0
  163.0590  208.1540  150.3950 C   0  0  0  0  0  2  0  0  0  0  0  0
  161.8600  207.3910  149.8440 C   0  0  1  0  0  3  0  0  0  0  0  0
  160.3120  209.4510  153.6450 C   0  0  2  0  0  3  0  0  0  0  0  0
  161.9130  205.8700  150.0320 C   0  0  0  0  0  2  0  0  0  0  0  0
  160.3520  208.3630  152.5570 C   0  0  1  0  0  3  0  0  0  0  0  0
  161.0780  205.9920  152.3420 O   0  0  0  0  0  0  0  0  0  0  0  0
  160.6310  208.9320  151.1500 C   0  0  1  0  0  3  0  0  0  0  0  0
  161.8000  209.9830  151.0240 C   0  0  1  0  0  0  0  0  0  0  0  0
  161.2970  207.2530  152.9000 C   0  0  0  0  0  0  0  0  0  0  0  0
  163.4330  205.4450  151.9650 C   0  0  0  0  0  1  0  0  0  0  0  0
  161.6700  211.6480  149.0030 C   0  0  2  0  0  3  0  0  0  0  0  0
  159.9310  213.3710  150.5790 C   0  0  0  0  0  3  0  0  0  0  0  0
  160.4530  212.1180  151.1440 C   0  0  0  0  0  0  0  0  0  0  0  0
  161.1780  212.9970  148.4810 C   0  0  1  0  0  0  0  0  0  0  0  0
  161.2760  211.3000  150.4320 C   0  0  0  0  0  0  0  0  0  0  0  0
  160.0300  211.8090  152.5420 C   0  0  0  0  0  2  0  0  0  0  0  0
  160.2570  213.7860  149.3600 C   0  0  0  0  0  3  0  0  0  0  0  0
  162.5970  212.8650  149.0030 C   0  0  0  0  0  2  0  0  0  0  0  0
  161.0690  213.1410  146.9840 C   0  0  0  0  0  0  0  0  0  0  0  0
  161.9940  212.7870  146.2720 O   0  0  0  0  0  0  0  0  0  0  0  0
  159.8570  213.7330  146.3410 C   0  0  0  0  0  1  0  0  0  0  0  0
  161.8520  211.0100  154.6320 O   0  0  0  0  0  0  0  0  0  0  0  0
  161.5320  209.4240  156.3900 C   0  0  0  0  0  1  0  0  0  0  0  0
  160.9470  210.5980  155.6190 C   0  0  1  0  0  3  0  0  0  0  0  0
  160.5940  211.7670  156.5430 C   0  0  1  0  0  3  0  0  0  0  0  0
  161.7210  212.1760  157.2590 O   0  0  0  0  0  1  0  0  0  0  0  0
  160.0440  212.8930  155.7930 N   0  0  0  0  0  2  0  0  0  0  0  0
  157.8990  213.8440  155.0280 C   0  0  2  0  0  3  0  0  0  0  0  0
  156.4710  213.3550  154.7070 C   0  0  0  0  0  2  0  0  0  0  0  0
  155.6460  212.6090  156.9570 C   0  0  0  0  0  3  0  0  0  0  0  0
  157.8980  211.6450  156.4100 C   0  0  0  0  0  2  0  0  0  0  0  0
  158.6100  212.9630  156.0510 C   0  0  1  0  0  0  0  0  0  0  0  0
  156.6750  211.8140  157.2610 C   0  0  0  0  0  3  0  0  0  0  0  0
  155.5660  213.4140  155.8100 O   0  0  0  0  0  0  0  0  0  0  0  0
  158.0810  214.3270  156.4670 C   0  0  0  0  0  2  0  0  0  0  0  0
  161.6890  203.8860  151.4280 N   0  0  0  0  0  2  0  0  0  0  0  0
  159.4320  203.8940  151.0600 C   0  0  0  0  0  1  0  0  0  0  0  0
  160.7200  203.6240  150.4420 N   0  0  0  0  0  0  0  0  0  0  0  0
  160.7680  202.1930  150.1570 C   0  0  0  0  0  2  0  0  0  0  0  0
  160.7670  201.8980  148.6380 C   0  0  2  0  0  0  0  0  0  0  0  0
  161.9100  200.9440  148.2740 C   0  0  0  0  0  1  0  0  0  0  0  0
  161.0430  203.1650  146.3620 C   0  0  2  0  0  0  0  0  0  0  0  0
  162.9190  204.4930  147.0820 O   0  0  0  0  0  1  0  0  0  0  0  0
  162.3770  203.2080  147.0950 C   0  0  1  0  0  3  0  0  0  0  0  0
  160.6670  204.3600  145.7430 O   0  0  0  0  0  1  0  0  0  0  0  0
  161.0610  203.2200  147.8860 C   0  0  2  0  0  3  0  0  0  0  0  0
  160.7510  201.8970  145.6270 C   0  0  0  0  0  3  0  0  0  0  0  0
  159.6910  201.7560  145.0420 O   0  0  0  0  0  0  0  0  0  0  0  0
  158.7510  200.9880  149.3530 C   0  0  0  0  0  1  0  0  0  0  0  0
  159.5200  201.3490  148.2290 O   0  0  0  0  0  0  0  0  0  0  0  0
  3 10  1  0  0  0  0
  3 29  1  1  0  0  0
  4  3  1  0  0  0  0
  6 17  1  1  0  0  0
  6 13  1  0  0  0  0
  7  8  1  0  0  0  0
  7 15  1  0  0  0  0
  9 11  1  1  0  0  0
  9  1  1  0  0  0  0
  9  8  1  0  0  0  0
 10  2  1  6  0  0  0
 11  6  1  0  0  0  0
 12 16  1  1  0  0  0
 12 10  1  0  0  0  0
 13 16  1  0  0  0  0
 14  1  1  6  0  0  0
 14 12  1  0  0  0  0
 15 14  1  0  0  0  0
 15  4  1  1  0  0  0
 16  5  2  0  0  0  0
 18 25  1  1  0  0  0
 18 22  1  0  0  0  0
 19 20  1  0  0  0  0
 20 23  1  0  0  0  0
 21 26  1  6  0  0  0
 21 25  1  0  0  0  0
 21 18  1  0  0  0  0
 21 24  1  0  0  0  0
 22 15  1  0  0  0  0
 22 20  2  0  0  0  0
 23  3  1  0  0  0  0
 24 19  2  0  0  0  0
 27 26  2  0  0  0  0
 28 26  1  0  0  0  0
 29 31  1  0  0  0  0
 31 30  1  1  0  0  0
 31 32  1  0  0  0  0
 32 33  1  6  0  0  0
 34 32  1  0  0  0  0
 35 36  1  1  0  0  0
 35 39  1  0  0  0  0
 35 42  1  0  0  0  0
 36 41  1  0  0  0  0
 37 40  2  0  0  0  0
 38 40  1  0  0  0  0
 39 34  1  6  0  0  0
 39 38  1  0  0  0  0
 39 42  1  0  0  0  0
 41 37  1  0  0  0  0
 43  6  1  0  0  0  0
 45 44  1  0  0  0  0
 45 43  1  0  0  0  0
 46 45  1  0  0  0  0
 47 48  1  6  0  0  0
 47 46  1  0  0  0  0
 49 52  1  6  0  0  0
 49 51  1  0  0  0  0
 49 53  1  0  0  0  0
 51 50  1  6  0  0  0
 51 53  1  0  0  0  0
 53 47  1  1  0  0  0
 54 49  1  0  0  0  0
 55 54  2  0  0  0  0
 57 47  1  0  0  0  0
 57 56  1  0  0  0  0
M  END
>  <MODEL>
5

>  <REMARK>
 VINA RESULT:       2.9      2.079      5.737
  Name = 
  14 active torsions:
  status: ('A' for Active; 'I' for Inactive)
    1  A    between atoms: C_1  and  C_10
    2  A    between atoms: C_8  and  O_46
    3  A    between atoms: N_9  and  C_16
    4  A    between atoms: N_9  and  C_33
    5  A    between atoms: C_16  and  C_43
    6  A    between atoms: C_18  and  N_35
    7  A    between atoms: C_18  and  C_54
    8  A    between atoms: C_19  and  N_49
    9  A    between atoms: C_25  and  C_42
   10  A    between atoms: O_28  and  C_54
   11  A    between atoms: C_29  and  C_54
   12  A    between atoms: N_35  and  N_49
   13  A    between atoms: C_37  and  C_45
   14  A    between atoms: C_43  and  O_46
                            x       y       z     vdW  Elec       q    Type
                         _______ _______ _______ _____ _____    ______ ____

>  <TORSDO>
F 14

$$$$
