=
 OpenBabel11042421423D

 47 49  0  0  1  0  0  0  0  0999 V2000
  160.5450  209.8760  151.8420 C   0  0  1  0  0  3  0  0  0  0  0  0
  158.9050  211.1270  153.1990 C   0  0  0  0  0  3  0  0  0  0  0  0
  158.1010  212.2740  153.7750 C   0  0  2  0  0  3  0  0  0  0  0  0
  159.6000  213.4780  151.3600 C   0  0  0  0  0  0  0  0  0  0  0  0
  160.5760  212.4330  151.8260 C   0  0  0  0  0  2  0  0  0  0  0  0
  158.7500  213.6480  153.6690 C   0  0  0  0  0  2  0  0  0  0  0  0
  158.7790  214.0700  152.2340 C   0  0  0  0  0  3  0  0  0  0  0  0
  159.9220  211.1660  152.3080 C   0  0  0  0  0  0  0  0  0  0  0  0
  159.5560  213.8950  149.9220 C   0  0  2  0  0  3  0  0  0  0  0  0
  158.5900  212.9990  149.1260 C   0  0  0  0  0  2  0  0  0  0  0  0
  160.3960  212.1380  147.5880 C   0  0  1  0  0  3  0  0  0  0  0  0
  162.3620  212.0730  149.0110 N   0  0  0  0  0  2  0  0  0  0  0  0
  160.9700  214.0070  149.3220 C   0  0  0  0  0  2  0  0  0  0  0  0
  161.3580  212.7540  148.5900 C   0  0  0  0  0  0  0  0  0  0  0  0
  159.0270  212.8420  147.6730 C   0  0  0  0  0  2  0  0  0  0  0  0
  159.8230  212.2260  145.2720 C   0  0  0  0  0  1  0  0  0  0  0  0
  161.6220  213.4700  146.0260 C   0  0  0  0  0  1  0  0  0  0  0  0
  160.9340  212.1960  146.2170 N   0  0  0  0  0  0  0  0  0  0  0  0
  157.7790  211.9890  155.1710 N   0  0  0  0  0  2  0  0  0  0  0  0
  156.3330  212.0280  155.4030 C   0  0  0  0  0  3  0  0  0  0  0  0
  155.9700  212.8180  156.6530 C   0  0  0  0  0  1  0  0  0  0  0  0
  155.7240  210.6350  155.4330 C   0  0  0  0  0  1  0  0  0  0  0  0
  161.9330  210.0890  151.2320 C   0  0  1  0  0  3  0  0  0  0  0  0
  162.8550  210.4950  152.2040 O   0  0  0  0  0  1  0  0  0  0  0  0
  162.3950  208.8640  150.6000 N   0  0  0  0  0  2  0  0  0  0  0  0
  161.6760  208.7270  149.3430 C   0  0  0  0  0  2  0  0  0  0  0  0
  161.2350  204.9230  147.4110 C   0  0  0  0  0  2  0  0  0  0  0  0
  161.9140  207.3700  148.7670 C   0  0  0  0  0  0  0  0  0  0  0  0
  161.7610  206.1500  149.6300 C   0  0  0  0  0  2  0  0  0  0  0  0
  162.2120  207.2170  147.4710 C   0  0  0  0  0  3  0  0  0  0  0  0
  162.3800  205.8260  146.9260 C   0  0  2  0  0  3  0  0  0  0  0  0
  160.9050  205.0960  148.9150 C   0  0  2  0  0  3  0  0  0  0  0  0
  161.4940  204.8840  145.1300 C   0  0  0  0  0  1  0  0  0  0  0  0
  162.4090  205.8600  145.5290 O   0  0  0  0  0  0  0  0  0  0  0  0
  160.9500  203.7660  149.6660 C   0  0  1  0  0  3  0  0  0  0  0  0
  160.3270  203.9040  150.9100 O   0  0  0  0  0  0  0  0  0  0  0  0
  161.2680  203.4430  151.8350 C   0  0  0  0  0  1  0  0  0  0  0  0
  160.3050  202.7600  148.9300 O   0  0  0  0  0  0  0  0  0  0  0  0
  160.9150  200.7710  149.8580 O   0  0  0  0  0  1  0  0  0  0  0  0
  161.2190  201.7030  148.8650 C   0  0  1  0  0  3  0  0  0  0  0  0
  161.5940  199.8660  147.3830 O   0  0  0  0  0  1  0  0  0  0  0  0
  161.1540  201.0420  147.5240 C   0  0  0  0  0  0  0  0  0  0  0  0
  160.5780  201.7000  146.4410 O   0  0  0  0  0  0  0  0  0  0  0  0
  160.5480  208.8090  152.9350 C   0  0  0  0  0  2  0  0  0  0  0  0
  160.6460  207.4840  152.3420 N   0  0  0  0  0  2  0  0  0  0  0  0
  160.5390  206.8510  154.4590 O   0  0  0  0  0  1  0  0  0  0  0  0
  161.2230  206.6490  153.3070 N   0  0  0  0  0  2  0  0  0  0  0  0
  1  8  1  0  0  0  0
  1 44  1  1  0  0  0
  2  3  1  0  0  0  0
  3 19  1  1  0  0  0
  4  5  1  0  0  0  0
  4  7  2  0  0  0  0
  5  8  1  0  0  0  0
  6  3  1  0  0  0  0
  7  6  1  0  0  0  0
  8  2  2  0  0  0  0
  9  4  1  1  0  0  0
 10  9  1  0  0  0  0
 11 18  1  6  0  0  0
 11 15  1  0  0  0  0
 11 14  1  0  0  0  0
 13  9  1  0  0  0  0
 14 12  2  0  0  0  0
 14 13  1  0  0  0  0
 15 10  1  0  0  0  0
 16 18  1  0  0  0  0
 17 18  1  0  0  0  0
 19 20  1  0  0  0  0
 20 22  1  0  0  0  0
 20 21  1  0  0  0  0
 23  1  1  0  0  0  0
 23 24  1  1  0  0  0
 25 23  1  0  0  0  0
 26 25  1  0  0  0  0
 27 32  1  0  0  0  0
 28 26  1  0  0  0  0
 28 29  1  0  0  0  0
 30 28  2  0  0  0  0
 31 34  1  6  0  0  0
 31 27  1  0  0  0  0
 31 30  1  0  0  0  0
 32 29  1  0  0  0  0
 32 35  1  1  0  0  0
 33 34  1  0  0  0  0
 35 38  1  6  0  0  0
 35 36  1  0  0  0  0
 36 37  1  0  0  0  0
 40 38  1  0  0  0  0
 40 39  1  1  0  0  0
 41 42  1  0  0  0  0
 42 40  1  0  0  0  0
 43 42  2  0  0  0  0
 45 44  1  0  0  0  0
 45 47  1  0  0  0  0
 47 46  1  0  0  0  0
M  END
>  <MODEL>
1

>  <REMARK>
 VINA RESULT:      -6.8      0.000      0.000
  Name = 
  18 active torsions:
  status: ('A' for Active; 'I' for Inactive)
    1  A    between atoms: C_3  and  N_18
    2  A    between atoms: O_5  and  C_9
    3  A    between atoms: O_5  and  C_32
    4  A    between atoms: C_6  and  C_9
    5  A    between atoms: C_10  and  C_29
    6  A    between atoms: O_11  and  C_32
    7  A    between atoms: C_14  and  C_34
    8  A    between atoms: N_15  and  C_25
    9  A    between atoms: N_15  and  C_34
   10  A    between atoms: N_18  and  C_28
   11  A    between atoms: C_19  and  C_20
   12  A    between atoms: C_19  and  C_25
   13  A    between atoms: C_19  and  C_45
   14  A    between atoms: C_20  and  N_23
   15  A    between atoms: C_21  and  N_46
   16  A    between atoms: N_23  and  N_40
   17  A    between atoms: C_32  and  C_42
   18  A    between atoms: C_39  and  O_44
                            x       y       z     vdW  Elec       q    Type
                         _______ _______ _______ _____ _____    ______ ____

>  <TORSDO>
F 18

$$$$
=
 OpenBabel11042421423D

 47 49  0  0  1  0  0  0  0  0999 V2000
  161.5230  207.2830  148.8120 C   0  0  1  0  0  3  0  0  0  0  0  0
  160.9880  205.2120  150.0470 C   0  0  0  0  0  3  0  0  0  0  0  0
  160.7930  204.2360  151.1870 C   0  0  2  0  0  3  0  0  0  0  0  0
  161.2160  206.9770  152.5420 C   0  0  0  0  0  0  0  0  0  0  0  0
  162.0610  207.1220  151.3060 C   0  0  0  0  0  2  0  0  0  0  0  0
  161.5840  204.5410  152.4540 C   0  0  0  0  0  2  0  0  0  0  0  0
  161.0310  205.7740  153.0950 C   0  0  0  0  0  3  0  0  0  0  0  0
  161.4620  206.4790  150.0840 C   0  0  0  0  0  0  0  0  0  0  0  0
  160.5980  208.1790  153.1890 C   0  0  2  0  0  3  0  0  0  0  0  0
  161.5860  209.3590  153.1980 C   0  0  0  0  0  2  0  0  0  0  0  0
  161.6410  209.5060  155.7170 C   0  0  1  0  0  3  0  0  0  0  0  0
  161.3850  207.1960  156.4200 N   0  0  0  0  0  2  0  0  0  0  0  0
  159.9970  207.8330  154.5650 C   0  0  0  0  0  2  0  0  0  0  0  0
  160.9530  208.1520  155.6790 C   0  0  0  0  0  0  0  0  0  0  0  0
  161.3730  210.2690  154.4040 C   0  0  0  0  0  2  0  0  0  0  0  0
  161.8600  211.6030  156.8370 C   0  0  0  0  0  1  0  0  0  0  0  0
  159.7840  210.5840  156.7670 C   0  0  0  0  0  1  0  0  0  0  0  0
  161.2110  210.2970  156.8830 N   0  0  0  0  0  0  0  0  0  0  0  0
  161.1020  202.8840  150.7280 N   0  0  0  0  0  2  0  0  0  0  0  0
  160.3390  202.5430  149.5250 C   0  0  0  0  0  3  0  0  0  0  0  0
  159.5930  201.2240  149.6700 C   0  0  0  0  0  1  0  0  0  0  0  0
  161.2100  202.5510  148.2790 C   0  0  0  0  0  1  0  0  0  0  0  0
  162.3200  208.5790  148.9820 C   0  0  1  0  0  3  0  0  0  0  0  0
  163.5010  208.5480  148.2330 O   0  0  0  0  0  1  0  0  0  0  0  0
  161.5120  209.7180  148.5770 N   0  0  0  0  0  2  0  0  0  0  0  0
  162.1210  210.9080  149.1520 C   0  0  0  0  0  2  0  0  0  0  0  0
  159.7280  213.6600  146.8950 C   0  0  0  0  0  2  0  0  0  0  0  0
  161.5640  212.1300  148.5000 C   0  0  0  0  0  0  0  0  0  0  0  0
  162.0540  212.5470  147.1420 C   0  0  0  0  0  2  0  0  0  0  0  0
  160.5900  212.8370  149.0860 C   0  0  0  0  0  3  0  0  0  0  0  0
  160.0190  214.0230  148.3600 C   0  0  2  0  0  3  0  0  0  0  0  0
  160.8660  212.8540  146.2200 C   0  0  2  0  0  3  0  0  0  0  0  0
  157.9420  213.4050  148.8150 C   0  0  0  0  0  1  0  0  0  0  0  0
  158.8480  214.4530  148.9910 O   0  0  0  0  0  0  0  0  0  0  0  0
  161.3460  213.5140  144.9280 C   0  0  1  0  0  3  0  0  0  0  0  0
  162.6270  214.0420  145.1130 O   0  0  0  0  0  0  0  0  0  0  0  0
  163.3580  213.6050  144.0050 C   0  0  0  0  0  1  0  0  0  0  0  0
  161.3710  212.5850  143.8770 O   0  0  0  0  0  0  0  0  0  0  0  0
  159.6650  213.9660  143.2690 O   0  0  0  0  0  1  0  0  0  0  0  0
  160.0970  212.6390  143.3010 C   0  0  1  0  0  3  0  0  0  0  0  0
  160.8170  211.0620  141.6570 O   0  0  0  0  0  1  0  0  0  0  0  0
  160.1320  212.0930  141.9090 C   0  0  0  0  0  0  0  0  0  0  0  0
  159.3860  212.6910  140.8970 O   0  0  0  0  0  0  0  0  0  0  0  0
  162.0100  206.4520  147.6270 C   0  0  0  0  0  2  0  0  0  0  0  0
  161.3650  206.8970  146.4020 N   0  0  0  0  0  2  0  0  0  0  0  0
  160.1030  205.6920  145.0440 O   0  0  0  0  0  1  0  0  0  0  0  0
  160.1570  206.1970  146.3000 N   0  0  0  0  0  2  0  0  0  0  0  0
  1 44  1  6  0  0  0
  1 23  1  0  0  0  0
  1  8  1  0  0  0  0
  2  8  2  0  0  0  0
  2  3  1  0  0  0  0
  3 19  1  6  0  0  0
  3  6  1  0  0  0  0
  4  7  2  0  0  0  0
  5  4  1  0  0  0  0
  6  7  1  0  0  0  0
  8  5  1  0  0  0  0
  9  4  1  1  0  0  0
  9 10  1  0  0  0  0
  9 13  1  0  0  0  0
 10 15  1  0  0  0  0
 11 18  1  1  0  0  0
 13 14  1  0  0  0  0
 14 11  1  0  0  0  0
 14 12  2  0  0  0  0
 15 11  1  0  0  0  0
 16 18  1  0  0  0  0
 17 18  1  0  0  0  0
 20 21  1  0  0  0  0
 20 19  1  0  0  0  0
 22 20  1  0  0  0  0
 23 24  1  6  0  0  0
 25 23  1  0  0  0  0
 25 26  1  0  0  0  0
 27 31  1  0  0  0  0
 28 30  2  0  0  0  0
 28 26  1  0  0  0  0
 29 28  1  0  0  0  0
 31 34  1  1  0  0  0
 31 30  1  0  0  0  0
 32 35  1  6  0  0  0
 32 27  1  0  0  0  0
 32 29  1  0  0  0  0
 33 34  1  0  0  0  0
 35 38  1  6  0  0  0
 35 36  1  0  0  0  0
 37 36  1  0  0  0  0
 40 39  1  6  0  0  0
 40 38  1  0  0  0  0
 41 42  1  0  0  0  0
 42 40  1  0  0  0  0
 43 42  2  0  0  0  0
 45 44  1  0  0  0  0
 46 47  1  0  0  0  0
 47 45  1  0  0  0  0
M  END
>  <MODEL>
2

>  <REMARK>
 VINA RESULT:      -6.7      3.607      9.220
  Name = 
  18 active torsions:
  status: ('A' for Active; 'I' for Inactive)
    1  A    between atoms: C_3  and  N_18
    2  A    between atoms: O_5  and  C_9
    3  A    between atoms: O_5  and  C_32
    4  A    between atoms: C_6  and  C_9
    5  A    between atoms: C_10  and  C_29
    6  A    between atoms: O_11  and  C_32
    7  A    between atoms: C_14  and  C_34
    8  A    between atoms: N_15  and  C_25
    9  A    between atoms: N_15  and  C_34
   10  A    between atoms: N_18  and  C_28
   11  A    between atoms: C_19  and  C_20
   12  A    between atoms: C_19  and  C_25
   13  A    between atoms: C_19  and  C_45
   14  A    between atoms: C_20  and  N_23
   15  A    between atoms: C_21  and  N_46
   16  A    between atoms: N_23  and  N_40
   17  A    between atoms: C_32  and  C_42
   18  A    between atoms: C_39  and  O_44
                            x       y       z     vdW  Elec       q    Type
                         _______ _______ _______ _____ _____    ______ ____

>  <TORSDO>
F 18

$$$$
=
 OpenBabel11042421423D

 47 49  0  0  1  0  0  0  0  0999 V2000
  161.5930  207.5440  148.9760 C   0  0  1  0  0  3  0  0  0  0  0  0
  161.0880  205.4050  150.0990 C   0  0  0  0  0  3  0  0  0  0  0  0
  160.8930  204.3710  151.1890 C   0  0  2  0  0  3  0  0  0  0  0  0
  161.1960  207.0580  152.6780 C   0  0  0  0  0  0  0  0  0  0  0  0
  162.0700  207.2840  151.4740 C   0  0  0  0  0  2  0  0  0  0  0  0
  161.6400  204.6400  152.4890 C   0  0  0  0  0  2  0  0  0  0  0  0
  161.0340  205.8250  153.1710 C   0  0  0  0  0  3  0  0  0  0  0  0
  161.5230  206.6820  150.2080 C   0  0  0  0  0  0  0  0  0  0  0  0
  160.5250  208.2100  153.3620 C   0  0  2  0  0  3  0  0  0  0  0  0
  161.2740  209.5230  153.0730 C   0  0  0  0  0  2  0  0  0  0  0  0
  161.8170  209.9370  155.5030 C   0  0  1  0  0  3  0  0  0  0  0  0
  162.1160  207.7010  156.4010 N   0  0  0  0  0  2  0  0  0  0  0  0
  160.2880  207.9190  154.8550 C   0  0  0  0  0  2  0  0  0  0  0  0
  161.3820  208.4960  155.7090 C   0  0  0  0  0  0  0  0  0  0  0  0
  161.1580  210.5090  154.2320 C   0  0  0  0  0  2  0  0  0  0  0  0
  162.7510  211.2620  157.2560 C   0  0  0  0  0  1  0  0  0  0  0  0
  160.7940  211.9670  156.2420 C   0  0  0  0  0  1  0  0  0  0  0  0
  161.5040  210.7680  156.6790 N   0  0  0  0  0  0  0  0  0  0  0  0
  161.2550  203.0520  150.6770 N   0  0  0  0  0  2  0  0  0  0  0  0
  160.4100  202.6700  149.5440 C   0  0  0  0  0  3  0  0  0  0  0  0
  159.6170  201.3980  149.8180 C   0  0  0  0  0  1  0  0  0  0  0  0
  161.2060  202.5570  148.2530 C   0  0  0  0  0  1  0  0  0  0  0  0
  162.3870  208.8320  149.2130 C   0  0  1  0  0  3  0  0  0  0  0  0
  163.2980  209.0620  148.1760 O   0  0  0  0  0  1  0  0  0  0  0  0
  161.4810  209.9630  149.3310 N   0  0  0  0  0  2  0  0  0  0  0  0
  162.2360  211.1600  148.9950 C   0  0  0  0  0  2  0  0  0  0  0  0
  160.5700  214.4460  146.8000 C   0  0  0  0  0  2  0  0  0  0  0  0
  161.4530  212.0070  148.0470 C   0  0  0  0  0  0  0  0  0  0  0  0
  160.0840  212.4950  148.4320 C   0  0  0  0  0  2  0  0  0  0  0  0
  161.9720  212.3850  146.8730 C   0  0  0  0  0  3  0  0  0  0  0  0
  161.1670  213.2900  145.9830 C   0  0  2  0  0  3  0  0  0  0  0  0
  159.9570  213.9980  148.1510 C   0  0  2  0  0  3  0  0  0  0  0  0
  161.4390  213.2430  143.7860 C   0  0  0  0  0  1  0  0  0  0  0  0
  161.9720  213.7900  144.9550 O   0  0  0  0  0  0  0  0  0  0  0  0
  158.5060  214.4530  148.2990 C   0  0  1  0  0  3  0  0  0  0  0  0
  157.8770  214.4430  147.0510 O   0  0  0  0  0  0  0  0  0  0  0  0
  157.1760  213.2350  147.0130 C   0  0  0  0  0  1  0  0  0  0  0  0
  157.8110  213.6090  149.1790 O   0  0  0  0  0  0  0  0  0  0  0  0
  156.2050  214.3710  150.6040 O   0  0  0  0  0  1  0  0  0  0  0  0
  157.5720  214.3800  150.3230 C   0  0  1  0  0  3  0  0  0  0  0  0
  157.7210  213.1170  152.3450 O   0  0  0  0  0  1  0  0  0  0  0  0
  158.3240  213.8240  151.4900 C   0  0  0  0  0  0  0  0  0  0  0  0
  159.6920  214.0510  151.6200 O   0  0  0  0  0  0  0  0  0  0  0  0
  162.0910  206.7710  147.7570 C   0  0  0  0  0  2  0  0  0  0  0  0
  160.9760  206.4330  146.8860 N   0  0  0  0  0  2  0  0  0  0  0  0
  160.9680  205.7320  144.7880 O   0  0  0  0  0  1  0  0  0  0  0  0
  161.4230  205.4220  146.0260 N   0  0  0  0  0  2  0  0  0  0  0  0
  1 44  1  6  0  0  0
  1 23  1  0  0  0  0
  1  8  1  0  0  0  0
  2  8  2  0  0  0  0
  2  3  1  0  0  0  0
  3 19  1  6  0  0  0
  3  6  1  0  0  0  0
  4  7  2  0  0  0  0
  5  4  1  0  0  0  0
  6  7  1  0  0  0  0
  8  5  1  0  0  0  0
  9  4  1  1  0  0  0
  9 13  1  0  0  0  0
 10  9  1  0  0  0  0
 10 15  1  0  0  0  0
 11 14  1  0  0  0  0
 11 18  1  1  0  0  0
 13 14  1  0  0  0  0
 14 12  2  0  0  0  0
 15 11  1  0  0  0  0
 17 18  1  0  0  0  0
 18 16  1  0  0  0  0
 20 21  1  0  0  0  0
 20 19  1  0  0  0  0
 22 20  1  0  0  0  0
 23 24  1  6  0  0  0
 23 25  1  0  0  0  0
 26 25  1  0  0  0  0
 27 32  1  0  0  0  0
 28 29  1  0  0  0  0
 28 26  1  0  0  0  0
 30 28  2  0  0  0  0
 31 34  1  6  0  0  0
 31 27  1  0  0  0  0
 31 30  1  0  0  0  0
 32 35  1  6  0  0  0
 32 29  1  0  0  0  0
 33 34  1  0  0  0  0
 35 36  1  6  0  0  0
 35 38  1  0  0  0  0
 37 36  1  0  0  0  0
 38 40  1  0  0  0  0
 40 39  1  1  0  0  0
 40 42  1  0  0  0  0
 42 43  2  0  0  0  0
 42 41  1  0  0  0  0
 45 44  1  0  0  0  0
 46 47  1  0  0  0  0
 47 45  1  0  0  0  0
M  END
>  <MODEL>
3

>  <REMARK>
 VINA RESULT:      -6.5      3.425      9.186
  Name = 
  18 active torsions:
  status: ('A' for Active; 'I' for Inactive)
    1  A    between atoms: C_3  and  N_18
    2  A    between atoms: O_5  and  C_9
    3  A    between atoms: O_5  and  C_32
    4  A    between atoms: C_6  and  C_9
    5  A    between atoms: C_10  and  C_29
    6  A    between atoms: O_11  and  C_32
    7  A    between atoms: C_14  and  C_34
    8  A    between atoms: N_15  and  C_25
    9  A    between atoms: N_15  and  C_34
   10  A    between atoms: N_18  and  C_28
   11  A    between atoms: C_19  and  C_20
   12  A    between atoms: C_19  and  C_25
   13  A    between atoms: C_19  and  C_45
   14  A    between atoms: C_20  and  N_23
   15  A    between atoms: C_21  and  N_46
   16  A    between atoms: N_23  and  N_40
   17  A    between atoms: C_32  and  C_42
   18  A    between atoms: C_39  and  O_44
                            x       y       z     vdW  Elec       q    Type
                         _______ _______ _______ _____ _____    ______ ____

>  <TORSDO>
F 18

$$$$
=
 OpenBabel11042421423D

 47 49  0  0  1  0  0  0  0  0999 V2000
  160.4520  209.9150  151.6920 C   0  0  1  0  0  3  0  0  0  0  0  0
  158.9210  211.1790  153.1600 C   0  0  0  0  0  3  0  0  0  0  0  0
  158.1840  212.3350  153.8040 C   0  0  2  0  0  3  0  0  0  0  0  0
  159.6040  213.5580  151.3510 C   0  0  0  0  0  0  0  0  0  0  0  0
  160.5670  212.4690  151.7410 C   0  0  0  0  0  2  0  0  0  0  0  0
  158.8730  213.6900  153.7030 C   0  0  0  0  0  2  0  0  0  0  0  0
  158.8470  214.1510  152.2800 C   0  0  0  0  0  3  0  0  0  0  0  0
  159.8950  211.2100  152.2210 C   0  0  0  0  0  0  0  0  0  0  0  0
  159.5050  214.0160  149.9280 C   0  0  2  0  0  3  0  0  0  0  0  0
  158.5920  213.0780  149.1190 C   0  0  0  0  0  2  0  0  0  0  0  0
  160.4280  212.4000  147.5250 C   0  0  1  0  0  3  0  0  0  0  0  0
  162.4180  212.4320  148.9150 N   0  0  0  0  0  2  0  0  0  0  0  0
  160.8960  214.2490  149.3110 C   0  0  0  0  0  2  0  0  0  0  0  0
  161.3610  213.0520  148.5320 C   0  0  0  0  0  0  0  0  0  0  0  0
  159.0130  213.0000  147.6540 C   0  0  0  0  0  2  0  0  0  0  0  0
  159.8690  212.2040  145.2130 C   0  0  0  0  0  1  0  0  0  0  0  0
  161.2330  213.9460  145.8890 C   0  0  0  0  0  1  0  0  0  0  0  0
  160.9360  212.5400  146.1490 N   0  0  0  0  0  0  0  0  0  0  0  0
  157.9210  212.0210  155.2060 N   0  0  0  0  0  2  0  0  0  0  0  0
  156.4900  212.1090  155.5120 C   0  0  0  0  0  3  0  0  0  0  0  0
  155.8100  210.7470  155.4810 C   0  0  0  0  0  1  0  0  0  0  0  0
  155.7770  213.1030  154.6090 C   0  0  0  0  0  1  0  0  0  0  0  0
  161.6800  210.1310  150.8030 C   0  0  1  0  0  3  0  0  0  0  0  0
  162.8620  209.8520  151.4990 O   0  0  0  0  0  1  0  0  0  0  0  0
  161.5960  209.2900  149.6210 N   0  0  0  0  0  2  0  0  0  0  0  0
  162.4420  208.1300  149.8530 C   0  0  0  0  0  2  0  0  0  0  0  0
  161.2940  204.0560  149.1590 C   0  0  0  0  0  2  0  0  0  0  0  0
  161.6750  206.8780  149.5800 C   0  0  0  0  0  0  0  0  0  0  0  0
  161.4290  206.4430  148.1630 C   0  0  0  0  0  2  0  0  0  0  0  0
  161.2450  206.1030  150.5820 C   0  0  0  0  0  3  0  0  0  0  0  0
  160.5330  204.8210  150.2530 C   0  0  2  0  0  3  0  0  0  0  0  0
  161.7760  204.9580  147.9940 C   0  0  2  0  0  3  0  0  0  0  0  0
  161.1300  204.7180  152.3820 C   0  0  0  0  0  1  0  0  0  0  0  0
  160.4140  204.0300  151.4000 O   0  0  0  0  0  0  0  0  0  0  0  0
  161.2970  204.4440  146.6370 C   0  0  1  0  0  3  0  0  0  0  0  0
  161.6880  205.3310  145.6300 O   0  0  0  0  0  0  0  0  0  0  0  0
  160.4960  205.7190  145.0130 C   0  0  0  0  0  1  0  0  0  0  0  0
  161.8320  203.1730  146.3720 O   0  0  0  0  0  0  0  0  0  0  0  0
  160.3430  202.1070  145.0190 O   0  0  0  0  0  1  0  0  0  0  0  0
  160.7340  202.3060  146.3430 C   0  0  1  0  0  3  0  0  0  0  0  0
  161.1690  200.8900  148.2170 O   0  0  0  0  0  1  0  0  0  0  0  0
  161.0930  200.9920  146.9600 C   0  0  0  0  0  0  0  0  0  0  0  0
  161.3070  199.8720  146.1610 O   0  0  0  0  0  0  0  0  0  0  0  0
  160.7100  208.9010  152.8030 C   0  0  0  0  0  2  0  0  0  0  0  0
  161.0650  209.5860  154.0370 N   0  0  0  0  0  2  0  0  0  0  0  0
  161.8350  208.8880  155.9880 O   0  0  0  0  0  1  0  0  0  0  0  0
  160.8510  208.6790  155.0820 N   0  0  0  0  0  2  0  0  0  0  0  0
  1  8  1  0  0  0  0
  1 44  1  1  0  0  0
  2  3  1  0  0  0  0
  3 19  1  1  0  0  0
  4  5  1  0  0  0  0
  4  7  2  0  0  0  0
  5  8  1  0  0  0  0
  6  3  1  0  0  0  0
  7  6  1  0  0  0  0
  8  2  2  0  0  0  0
  9  4  1  1  0  0  0
 10  9  1  0  0  0  0
 11 18  1  6  0  0  0
 11 15  1  0  0  0  0
 11 14  1  0  0  0  0
 13  9  1  0  0  0  0
 14 12  2  0  0  0  0
 14 13  1  0  0  0  0
 15 10  1  0  0  0  0
 16 18  1  0  0  0  0
 17 18  1  0  0  0  0
 19 20  1  0  0  0  0
 21 20  1  0  0  0  0
 22 20  1  0  0  0  0
 23 24  1  1  0  0  0
 23  1  1  0  0  0  0
 25 26  1  0  0  0  0
 25 23  1  0  0  0  0
 27 31  1  0  0  0  0
 28 26  1  0  0  0  0
 28 30  2  0  0  0  0
 29 28  1  0  0  0  0
 31 30  1  0  0  0  0
 31 34  1  1  0  0  0
 32 35  1  6  0  0  0
 32 29  1  0  0  0  0
 32 27  1  0  0  0  0
 34 33  1  0  0  0  0
 35 36  1  6  0  0  0
 37 36  1  0  0  0  0
 38 35  1  0  0  0  0
 40 39  1  6  0  0  0
 40 38  1  0  0  0  0
 40 42  1  0  0  0  0
 42 41  1  0  0  0  0
 43 42  2  0  0  0  0
 44 45  1  0  0  0  0
 45 47  1  0  0  0  0
 47 46  1  0  0  0  0
M  END
>  <MODEL>
4

>  <REMARK>
 VINA RESULT:      -6.4      1.119      2.581
  Name = 
  18 active torsions:
  status: ('A' for Active; 'I' for Inactive)
    1  A    between atoms: C_3  and  N_18
    2  A    between atoms: O_5  and  C_9
    3  A    between atoms: O_5  and  C_32
    4  A    between atoms: C_6  and  C_9
    5  A    between atoms: C_10  and  C_29
    6  A    between atoms: O_11  and  C_32
    7  A    between atoms: C_14  and  C_34
    8  A    between atoms: N_15  and  C_25
    9  A    between atoms: N_15  and  C_34
   10  A    between atoms: N_18  and  C_28
   11  A    between atoms: C_19  and  C_20
   12  A    between atoms: C_19  and  C_25
   13  A    between atoms: C_19  and  C_45
   14  A    between atoms: C_20  and  N_23
   15  A    between atoms: C_21  and  N_46
   16  A    between atoms: N_23  and  N_40
   17  A    between atoms: C_32  and  C_42
   18  A    between atoms: C_39  and  O_44
                            x       y       z     vdW  Elec       q    Type
                         _______ _______ _______ _____ _____    ______ ____

>  <TORSDO>
F 18

$$$$
=
 OpenBabel11042421423D

 47 49  0  0  1  0  0  0  0  0999 V2000
  160.5010  210.4370  152.5090 C   0  0  1  0  0  3  0  0  0  0  0  0
  158.7920  212.1500  152.0200 C   0  0  0  0  0  3  0  0  0  0  0  0
  158.1030  213.3500  151.4040 C   0  0  2  0  0  3  0  0  0  0  0  0
  160.6040  212.8780  149.6580 C   0  0  0  0  0  0  0  0  0  0  0  0
  161.0900  212.4180  151.0050 C   0  0  0  0  0  2  0  0  0  0  0  0
  159.0290  214.3960  150.7940 C   0  0  0  0  0  2  0  0  0  0  0  0
  159.6710  213.8310  149.5670 C   0  0  0  0  0  3  0  0  0  0  0  0
  160.0470  211.6900  151.8090 C   0  0  0  0  0  0  0  0  0  0  0  0
  161.1810  212.3010  148.4010 C   0  0  2  0  0  3  0  0  0  0  0  0
  162.5520  212.9300  148.0950 C   0  0  0  0  0  2  0  0  0  0  0  0
  161.7970  213.9030  145.8910 C   0  0  1  0  0  3  0  0  0  0  0  0
  159.4660  214.4520  146.2900 N   0  0  0  0  0  2  0  0  0  0  0  0
  160.1730  212.3600  147.2380 C   0  0  0  0  0  2  0  0  0  0  0  0
  160.3960  213.5710  146.3770 C   0  0  0  0  0  0  0  0  0  0  0  0
  162.8250  212.9940  146.5950 C   0  0  0  0  0  2  0  0  0  0  0  0
  163.2800  213.4500  144.0760 C   0  0  0  0  0  1  0  0  0  0  0  0
  161.1160  212.6360  143.9820 C   0  0  0  0  0  1  0  0  0  0  0  0
  161.9030  213.7830  144.4270 N   0  0  0  0  0  0  0  0  0  0  0  0
  157.2400  213.9790  152.4000 N   0  0  0  0  0  2  0  0  0  0  0  0
  157.2260  213.2160  153.6510 C   0  0  0  0  0  3  0  0  0  0  0  0
  155.8120  212.9650  154.1580 C   0  0  0  0  0  1  0  0  0  0  0  0
  158.0900  213.8640  154.7210 C   0  0  0  0  0  1  0  0  0  0  0  0
  161.5050  209.6370  151.6750 C   0  0  1  0  0  3  0  0  0  0  0  0
  162.6070  209.2500  152.4460 O   0  0  0  0  0  1  0  0  0  0  0  0
  160.8630  208.4610  151.1120 N   0  0  0  0  0  2  0  0  0  0  0  0
  161.3910  207.3010  151.8120 C   0  0  0  0  0  2  0  0  0  0  0  0
  161.3920  203.6040  149.6380 C   0  0  0  0  0  2  0  0  0  0  0  0
  160.9910  206.0510  151.0990 C   0  0  0  0  0  0  0  0  0  0  0  0
  160.6750  206.0930  149.6310 C   0  0  0  0  0  2  0  0  0  0  0  0
  160.9600  204.8760  151.7390 C   0  0  0  0  0  3  0  0  0  0  0  0
  160.6120  203.6380  150.9610 C   0  0  2  0  0  3  0  0  0  0  0  0
  161.4120  204.9640  148.8960 C   0  0  2  0  0  3  0  0  0  0  0  0
  161.5700  201.6450  150.8410 C   0  0  0  0  0  1  0  0  0  0  0  0
  160.9000  202.4990  151.7200 O   0  0  0  0  0  0  0  0  0  0  0  0
  160.9080  204.8390  147.4590 C   0  0  1  0  0  3  0  0  0  0  0  0
  161.1470  206.0310  146.7680 O   0  0  0  0  0  0  0  0  0  0  0  0
  162.4230  206.4310  147.1750 C   0  0  0  0  0  1  0  0  0  0  0  0
  161.5520  203.7810  146.7990 O   0  0  0  0  0  0  0  0  0  0  0  0
  160.8800  203.6160  144.6290 O   0  0  0  0  0  1  0  0  0  0  0  0
  160.5890  203.2380  145.9410 C   0  0  1  0  0  3  0  0  0  0  0  0
  160.2820  201.0500  145.0310 O   0  0  0  0  0  0  0  0  0  0  0  0
  160.5870  201.7450  146.0400 C   0  0  0  0  0  0  0  0  0  0  0  0
  160.9560  201.1170  147.2270 O   0  0  0  0  0  1  0  0  0  0  0  0
  161.0100  210.7160  153.9220 C   0  0  0  0  0  2  0  0  0  0  0  0
  160.7650  209.5680  154.7810 N   0  0  0  0  0  2  0  0  0  0  0  0
  160.1290  210.4840  156.6900 O   0  0  0  0  0  1  0  0  0  0  0  0
  159.6540  209.8820  155.5740 N   0  0  0  0  0  2  0  0  0  0  0  0
  1 44  1  1  0  0  0
  3  2  1  0  0  0  0
  3 19  1  1  0  0  0
  4  5  1  0  0  0  0
  5  8  1  0  0  0  0
  6  3  1  0  0  0  0
  7  4  2  0  0  0  0
  7  6  1  0  0  0  0
  8  2  2  0  0  0  0
  8  1  1  0  0  0  0
  9  4  1  1  0  0  0
 10  9  1  0  0  0  0
 11 18  1  6  0  0  0
 11 14  1  0  0  0  0
 11 15  1  0  0  0  0
 12 14  2  0  0  0  0
 13  9  1  0  0  0  0
 14 13  1  0  0  0  0
 15 10  1  0  0  0  0
 16 18  1  0  0  0  0
 17 18  1  0  0  0  0
 19 20  1  0  0  0  0
 20 21  1  0  0  0  0
 20 22  1  0  0  0  0
 23 24  1  1  0  0  0
 23  1  1  0  0  0  0
 25 23  1  0  0  0  0
 25 26  1  0  0  0  0
 27 31  1  0  0  0  0
 28 30  2  0  0  0  0
 28 26  1  0  0  0  0
 29 28  1  0  0  0  0
 31 34  1  1  0  0  0
 31 30  1  0  0  0  0
 32 35  1  6  0  0  0
 32 29  1  0  0  0  0
 32 27  1  0  0  0  0
 33 34  1  0  0  0  0
 35 36  1  6  0  0  0
 36 37  1  0  0  0  0
 38 35  1  0  0  0  0
 40 39  1  6  0  0  0
 40 42  1  0  0  0  0
 40 38  1  0  0  0  0
 41 42  2  0  0  0  0
 42 43  1  0  0  0  0
 44 45  1  0  0  0  0
 45 47  1  0  0  0  0
 47 46  1  0  0  0  0
M  END
>  <MODEL>
5

>  <REMARK>
 VINA RESULT:      -6.2      1.792      3.374
  Name = 
  18 active torsions:
  status: ('A' for Active; 'I' for Inactive)
    1  A    between atoms: C_3  and  N_18
    2  A    between atoms: O_5  and  C_9
    3  A    between atoms: O_5  and  C_32
    4  A    between atoms: C_6  and  C_9
    5  A    between atoms: C_10  and  C_29
    6  A    between atoms: O_11  and  C_32
    7  A    between atoms: C_14  and  C_34
    8  A    between atoms: N_15  and  C_25
    9  A    between atoms: N_15  and  C_34
   10  A    between atoms: N_18  and  C_28
   11  A    between atoms: C_19  and  C_20
   12  A    between atoms: C_19  and  C_25
   13  A    between atoms: C_19  and  C_45
   14  A    between atoms: C_20  and  N_23
   15  A    between atoms: C_21  and  N_46
   16  A    between atoms: N_23  and  N_40
   17  A    between atoms: C_32  and  C_42
   18  A    between atoms: C_39  and  O_44
                            x       y       z     vdW  Elec       q    Type
                         _______ _______ _______ _____ _____    ______ ____

>  <TORSDO>
F 18

$$$$
=
 OpenBabel11042421423D

 47 49  0  0  1  0  0  0  0  0999 V2000
  162.2900  209.8360  150.9870 C   0  0  1  0  0  3  0  0  0  0  0  0
  161.3580  208.1660  152.5480 C   0  0  0  0  0  3  0  0  0  0  0  0
  160.7840  207.5440  153.8040 C   0  0  2  0  0  3  0  0  0  0  0  0
  160.7430  210.5860  154.3250 C   0  0  0  0  0  0  0  0  0  0  0  0
  161.9560  210.4510  153.4460 C   0  0  0  0  0  2  0  0  0  0  0  0
  161.1040  208.2740  155.1020 C   0  0  0  0  0  2  0  0  0  0  0  0
  160.3750  209.5810  155.1260 C   0  0  0  0  0  3  0  0  0  0  0  0
  161.8000  209.4300  152.3510 C   0  0  0  0  0  0  0  0  0  0  0  0
  159.9500  211.8580  154.3420 C   0  0  2  0  0  3  0  0  0  0  0  0
  160.0670  212.5510  155.7120 C   0  0  0  0  0  2  0  0  0  0  0  0
  157.5920  212.3970  156.1830 C   0  0  1  0  0  3  0  0  0  0  0  0
  156.9480  210.3100  155.1240 N   0  0  0  0  0  2  0  0  0  0  0  0
  158.5070  211.6300  153.8580 C   0  0  0  0  0  2  0  0  0  0  0  0
  157.5640  211.4310  155.0110 C   0  0  0  0  0  0  0  0  0  0  0  0
  158.8070  213.3390  156.0580 C   0  0  0  0  0  2  0  0  0  0  0  0
  155.8150  213.3900  154.9360 C   0  0  0  0  0  1  0  0  0  0  0  0
  155.3260  212.3480  156.9430 C   0  0  0  0  0  1  0  0  0  0  0  0
  156.3380  213.1650  156.2790 N   0  0  0  0  0  0  0  0  0  0  0  0
  161.2220  206.1540  153.9010 N   0  0  0  0  0  2  0  0  0  0  0  0
  161.4460  205.5730  152.5750 C   0  0  0  0  0  3  0  0  0  0  0  0
  160.5460  204.3720  152.3130 C   0  0  0  0  0  1  0  0  0  0  0  0
  162.9090  205.2270  152.3460 C   0  0  0  0  0  1  0  0  0  0  0  0
  162.5880  208.6290  150.0940 C   0  0  1  0  0  3  0  0  0  0  0  0
  162.6700  207.4520  150.8470 O   0  0  0  0  0  1  0  0  0  0  0  0
  161.5570  208.4910  149.0790 N   0  0  0  0  0  2  0  0  0  0  0  0
  160.8720  207.2320  149.3240 C   0  0  0  0  0  2  0  0  0  0  0  0
  161.5340  204.0700  146.5030 C   0  0  0  0  0  2  0  0  0  0  0  0
  161.4780  206.1520  148.4900 C   0  0  0  0  0  0  0  0  0  0  0  0
  161.5200  204.7400  149.0050 C   0  0  0  0  0  2  0  0  0  0  0  0
  161.9420  206.4100  147.2620 C   0  0  0  0  0  3  0  0  0  0  0  0
  162.4840  205.2760  146.4390 C   0  0  2  0  0  3  0  0  0  0  0  0
  161.0130  203.7680  147.9310 C   0  0  2  0  0  3  0  0  0  0  0  0
  161.4110  205.4810  144.5130 C   0  0  0  0  0  1  0  0  0  0  0  0
  162.6550  205.6850  145.1130 O   0  0  0  0  0  0  0  0  0  0  0  0
  161.2840  202.3220  148.3430 C   0  0  1  0  0  3  0  0  0  0  0  0
  161.1060  202.1820  149.7230 O   0  0  0  0  0  0  0  0  0  0  0  0
  160.2170  201.1130  149.8630 C   0  0  0  0  0  1  0  0  0  0  0  0
  160.4190  201.4450  147.6700 O   0  0  0  0  0  0  0  0  0  0  0  0
  161.5680  199.5480  147.1500 O   0  0  0  0  0  1  0  0  0  0  0  0
  161.2070  200.8180  146.6990 C   0  0  1  0  0  3  0  0  0  0  0  0
  160.4080  199.5830  144.8170 O   0  0  0  0  0  0  0  0  0  0  0  0
  160.4490  200.6940  145.4150 C   0  0  0  0  0  0  0  0  0  0  0  0
  159.7580  201.7860  144.8960 O   0  0  0  0  0  1  0  0  0  0  0  0
  161.3580  210.8410  150.3130 C   0  0  0  0  0  2  0  0  0  0  0  0
  162.1270  211.7870  149.5200 N   0  0  0  0  0  2  0  0  0  0  0  0
  161.0270  211.6510  147.6070 O   0  0  0  0  0  1  0  0  0  0  0  0
  161.2200  212.4500  148.6840 N   0  0  0  0  0  2  0  0  0  0  0  0
  1 44  1  6  0  0  0
  1  8  1  0  0  0  0
  2  3  1  0  0  0  0
  3 19  1  1  0  0  0
  3  6  1  0  0  0  0
  4  7  2  0  0  0  0
  5  4  1  0  0  0  0
  6  7  1  0  0  0  0
  8  2  2  0  0  0  0
  8  5  1  0  0  0  0
  9  4  1  1  0  0  0
  9 10  1  0  0  0  0
 10 15  1  0  0  0  0
 11 18  1  6  0  0  0
 13  9  1  0  0  0  0
 13 14  1  0  0  0  0
 14 12  2  0  0  0  0
 14 11  1  0  0  0  0
 15 11  1  0  0  0  0
 16 18  1  0  0  0  0
 18 17  1  0  0  0  0
 20 19  1  0  0  0  0
 21 20  1  0  0  0  0
 22 20  1  0  0  0  0
 23 24  1  1  0  0  0
 23  1  1  0  0  0  0
 25 26  1  0  0  0  0
 25 23  1  0  0  0  0
 27 32  1  0  0  0  0
 28 29  1  0  0  0  0
 28 26  1  0  0  0  0
 30 28  2  0  0  0  0
 31 34  1  6  0  0  0
 31 27  1  0  0  0  0
 31 30  1  0  0  0  0
 32 35  1  1  0  0  0
 32 29  1  0  0  0  0
 33 34  1  0  0  0  0
 35 38  1  6  0  0  0
 35 36  1  0  0  0  0
 36 37  1  0  0  0  0
 40 39  1  1  0  0  0
 40 38  1  0  0  0  0
 41 42  2  0  0  0  0
 42 40  1  0  0  0  0
 43 42  1  0  0  0  0
 45 44  1  0  0  0  0
 46 47  1  0  0  0  0
 47 45  1  0  0  0  0
M  END
>  <MODEL>
6

>  <REMARK>
 VINA RESULT:      -5.5      2.272      5.651
  Name = 
  18 active torsions:
  status: ('A' for Active; 'I' for Inactive)
    1  A    between atoms: C_3  and  N_18
    2  A    between atoms: O_5  and  C_9
    3  A    between atoms: O_5  and  C_32
    4  A    between atoms: C_6  and  C_9
    5  A    between atoms: C_10  and  C_29
    6  A    between atoms: O_11  and  C_32
    7  A    between atoms: C_14  and  C_34
    8  A    between atoms: N_15  and  C_25
    9  A    between atoms: N_15  and  C_34
   10  A    between atoms: N_18  and  C_28
   11  A    between atoms: C_19  and  C_20
   12  A    between atoms: C_19  and  C_25
   13  A    between atoms: C_19  and  C_45
   14  A    between atoms: C_20  and  N_23
   15  A    between atoms: C_21  and  N_46
   16  A    between atoms: N_23  and  N_40
   17  A    between atoms: C_32  and  C_42
   18  A    between atoms: C_39  and  O_44
                            x       y       z     vdW  Elec       q    Type
                         _______ _______ _______ _____ _____    ______ ____

>  <TORSDO>
F 18

$$$$
=
 OpenBabel11042421423D

 47 49  0  0  1  0  0  0  0  0999 V2000
  160.8660  208.6210  152.5610 C   0  0  1  0  0  3  0  0  0  0  0  0
  161.1770  210.6630  151.2090 C   0  0  0  0  0  3  0  0  0  0  0  0
  160.9810  212.0620  150.6620 C   0  0  2  0  0  3  0  0  0  0  0  0
  159.2130  211.9330  153.1900 C   0  0  0  0  0  0  0  0  0  0  0  0
  159.1490  210.5090  152.7090 C   0  0  0  0  0  2  0  0  0  0  0  0
  159.5910  212.6550  150.8630 C   0  0  0  0  0  2  0  0  0  0  0  0
  159.3780  212.9330  152.3170 C   0  0  0  0  0  3  0  0  0  0  0  0
  160.4470  210.0040  152.1390 C   0  0  0  0  0  0  0  0  0  0  0  0
  159.0580  212.2550  154.6450 C   0  0  2  0  0  3  0  0  0  0  0  0
  158.4510  211.0610  155.4040 C   0  0  0  0  0  2  0  0  0  0  0  0
  156.4010  212.3490  156.1190 C   0  0  1  0  0  3  0  0  0  0  0  0
  156.0070  213.8570  154.2570 N   0  0  0  0  0  2  0  0  0  0  0  0
  158.3200  213.5910  154.8520 C   0  0  0  0  0  2  0  0  0  0  0  0
  156.8530  213.3780  155.0960 C   0  0  0  0  0  0  0  0  0  0  0  0
  157.6080  211.5130  156.5920 C   0  0  0  0  0  2  0  0  0  0  0  0
  155.9430  214.4270  157.2010 C   0  0  0  0  0  1  0  0  0  0  0  0
  154.2780  212.8230  157.1100 C   0  0  0  0  0  1  0  0  0  0  0  0
  155.7210  212.9860  157.2610 N   0  0  0  0  0  0  0  0  0  0  0  0
  161.3230  212.0810  149.2430 N   0  0  0  0  0  2  0  0  0  0  0  0
  160.3730  212.8930  148.4770 C   0  0  0  0  0  3  0  0  0  0  0  0
  160.2730  212.4460  147.0250 C   0  0  0  0  0  1  0  0  0  0  0  0
  160.6830  214.3770  148.5790 C   0  0  0  0  0  1  0  0  0  0  0  0
  161.7950  207.9590  151.5400 C   0  0  1  0  0  3  0  0  0  0  0  0
  162.4520  206.8540  152.0950 O   0  0  0  0  0  1  0  0  0  0  0  0
  161.0370  207.5420  150.3710 N   0  0  0  0  0  2  0  0  0  0  0  0
  161.8870  206.6500  149.5980 C   0  0  0  0  0  2  0  0  0  0  0  0
  161.0910  202.4700  149.0660 C   0  0  0  0  0  2  0  0  0  0  0  0
  161.2270  205.3200  149.4490 C   0  0  0  0  0  0  0  0  0  0  0  0
  160.7830  204.8500  148.0920 C   0  0  0  0  0  2  0  0  0  0  0  0
  161.0690  204.5090  150.5020 C   0  0  0  0  0  3  0  0  0  0  0  0
  160.4560  203.1540  150.2870 C   0  0  2  0  0  3  0  0  0  0  0  0
  161.2570  203.4110  147.8460 C   0  0  2  0  0  3  0  0  0  0  0  0
  161.0810  203.2480  152.4090 C   0  0  0  0  0  1  0  0  0  0  0  0
  160.6300  202.3630  151.4270 O   0  0  0  0  0  0  0  0  0  0  0  0
  160.6050  202.8370  146.5890 C   0  0  1  0  0  3  0  0  0  0  0  0
  161.5190  202.8530  145.5320 O   0  0  0  0  0  0  0  0  0  0  0  0
  161.6590  204.2020  145.1990 C   0  0  0  0  0  1  0  0  0  0  0  0
  160.1730  201.5200  146.8130 O   0  0  0  0  0  0  0  0  0  0  0  0
  161.7810  199.9550  147.2030 O   0  0  0  0  0  1  0  0  0  0  0  0
  161.1410  200.7050  146.2160 C   0  0  1  0  0  3  0  0  0  0  0  0
  159.5680  200.2050  144.4890 O   0  0  0  0  0  0  0  0  0  0  0  0
  160.5050  199.7840  145.2240 C   0  0  0  0  0  0  0  0  0  0  0  0
  160.9630  198.4770  145.0790 O   0  0  0  0  0  1  0  0  0  0  0  0
  161.4460  208.5990  153.9740 C   0  0  0  0  0  2  0  0  0  0  0  0
  160.3900  208.3680  154.9470 N   0  0  0  0  0  2  0  0  0  0  0  0
  161.1910  209.6330  156.5750 O   0  0  0  0  0  1  0  0  0  0  0  0
  160.9970  208.3430  156.2090 N   0  0  0  0  0  2  0  0  0  0  0  0
  1 44  1  1  0  0  0
  2  8  2  0  0  0  0
  3 19  1  6  0  0  0
  3  6  1  0  0  0  0
  3  2  1  0  0  0  0
  5  4  1  0  0  0  0
  6  7  1  0  0  0  0
  7  4  2  0  0  0  0
  8  1  1  0  0  0  0
  8  5  1  0  0  0  0
  9  4  1  6  0  0  0
  9 13  1  0  0  0  0
  9 10  1  0  0  0  0
 10 15  1  0  0  0  0
 11 15  1  0  0  0  0
 11 18  1  1  0  0  0
 12 14  2  0  0  0  0
 13 14  1  0  0  0  0
 14 11  1  0  0  0  0
 16 18  1  0  0  0  0
 17 18  1  0  0  0  0
 20 22  1  0  0  0  0
 20 19  1  0  0  0  0
 21 20  1  0  0  0  0
 23 24  1  1  0  0  0
 23  1  1  0  0  0  0
 25 23  1  0  0  0  0
 26 25  1  0  0  0  0
 27 31  1  0  0  0  0
 28 26  1  0  0  0  0
 28 30  2  0  0  0  0
 29 28  1  0  0  0  0
 31 30  1  0  0  0  0
 31 34  1  1  0  0  0
 32 35  1  6  0  0  0
 32 29  1  0  0  0  0
 32 27  1  0  0  0  0
 34 33  1  0  0  0  0
 35 36  1  6  0  0  0
 35 38  1  0  0  0  0
 37 36  1  0  0  0  0
 40 38  1  0  0  0  0
 40 39  1  1  0  0  0
 41 42  2  0  0  0  0
 42 40  1  0  0  0  0
 43 42  1  0  0  0  0
 44 45  1  0  0  0  0
 45 47  1  0  0  0  0
 47 46  1  0  0  0  0
M  END
>  <MODEL>
7

>  <REMARK>
 VINA RESULT:      -4.4      1.713      5.900
  Name = 
  18 active torsions:
  status: ('A' for Active; 'I' for Inactive)
    1  A    between atoms: C_3  and  N_18
    2  A    between atoms: O_5  and  C_9
    3  A    between atoms: O_5  and  C_32
    4  A    between atoms: C_6  and  C_9
    5  A    between atoms: C_10  and  C_29
    6  A    between atoms: O_11  and  C_32
    7  A    between atoms: C_14  and  C_34
    8  A    between atoms: N_15  and  C_25
    9  A    between atoms: N_15  and  C_34
   10  A    between atoms: N_18  and  C_28
   11  A    between atoms: C_19  and  C_20
   12  A    between atoms: C_19  and  C_25
   13  A    between atoms: C_19  and  C_45
   14  A    between atoms: C_20  and  N_23
   15  A    between atoms: C_21  and  N_46
   16  A    between atoms: N_23  and  N_40
   17  A    between atoms: C_32  and  C_42
   18  A    between atoms: C_39  and  O_44
                            x       y       z     vdW  Elec       q    Type
                         _______ _______ _______ _____ _____    ______ ____

>  <TORSDO>
F 18

$$$$
=
 OpenBabel11042421423D

 47 49  0  0  1  0  0  0  0  0999 V2000
  161.4690  207.2820  149.1930 C   0  0  1  0  0  3  0  0  0  0  0  0
  161.9530  206.7920  151.5630 C   0  0  0  0  0  3  0  0  0  0  0  0
  162.0500  206.0530  152.8820 C   0  0  2  0  0  3  0  0  0  0  0  0
  161.2880  203.8970  150.8070 C   0  0  0  0  0  0  0  0  0  0  0  0
  160.6100  205.1120  150.2370 C   0  0  0  0  0  2  0  0  0  0  0  0
  161.0790  204.8910  153.0540 C   0  0  0  0  0  2  0  0  0  0  0  0
  161.4670  203.7820  152.1280 C   0  0  0  0  0  3  0  0  0  0  0  0
  161.4050  206.3810  150.3970 C   0  0  0  0  0  0  0  0  0  0  0  0
  161.7420  202.7850  149.9120 C   0  0  2  0  0  3  0  0  0  0  0  0
  161.9800  203.3020  148.4820 C   0  0  0  0  0  2  0  0  0  0  0  0
  160.2190  201.8010  147.4720 C   0  0  1  0  0  3  0  0  0  0  0  0
  158.5380  201.6540  149.2190 N   0  0  0  0  0  2  0  0  0  0  0  0
  160.8070  201.5650  150.0080 C   0  0  0  0  0  2  0  0  0  0  0  0
  159.7820  201.5700  148.9090 C   0  0  0  0  0  0  0  0  0  0  0  0
  161.7000  202.2260  147.4350 C   0  0  0  0  0  2  0  0  0  0  0  0
  159.7410  201.0260  145.2660 C   0  0  0  0  0  1  0  0  0  0  0  0
  161.2260  199.8290  146.5740 C   0  0  0  0  0  1  0  0  0  0  0  0
  159.9930  200.6060  146.6400 N   0  0  0  0  0  0  0  0  0  0  0  0
  161.8850  206.9980  153.9820 N   0  0  0  0  0  2  0  0  0  0  0  0
  160.4930  207.4410  154.0990 C   0  0  0  0  0  3  0  0  0  0  0  0
  160.3660  208.9590  154.0660 C   0  0  0  0  0  1  0  0  0  0  0  0
  159.8110  206.8560  155.3250 C   0  0  0  0  0  1  0  0  0  0  0  0
  162.5660  208.3430  149.3200 C   0  0  1  0  0  3  0  0  0  0  0  0
  163.4270  208.3150  148.2170 O   0  0  0  0  0  1  0  0  0  0  0  0
  161.9720  209.6640  149.4450 N   0  0  0  0  0  2  0  0  0  0  0  0
  161.6210  210.1110  148.1060 C   0  0  0  0  0  2  0  0  0  0  0  0
  160.5950  214.2300  147.4990 C   0  0  0  0  0  2  0  0  0  0  0  0
  161.6330  211.6020  148.0480 C   0  0  0  0  0  0  0  0  0  0  0  0
  162.1940  212.3020  146.8420 C   0  0  0  0  0  2  0  0  0  0  0  0
  161.1030  212.3340  149.0360 C   0  0  0  0  0  3  0  0  0  0  0  0
  161.0840  213.8300  148.8990 C   0  0  2  0  0  3  0  0  0  0  0  0
  161.2250  213.3900  146.3600 C   0  0  2  0  0  3  0  0  0  0  0  0
  158.9570  214.0970  149.4550 C   0  0  0  0  0  1  0  0  0  0  0  0
  160.2560  214.3890  149.8770 O   0  0  0  0  0  0  0  0  0  0  0  0
  161.8870  214.2690  145.3000 C   0  0  1  0  0  3  0  0  0  0  0  0
  163.0740  213.6730  144.8650 O   0  0  0  0  0  0  0  0  0  0  0  0
  163.4890  214.4500  143.7800 C   0  0  0  0  0  1  0  0  0  0  0  0
  161.0290  214.4530  144.2040 O   0  0  0  0  0  0  0  0  0  0  0  0
  159.0800  213.2770  144.2990 O   0  0  0  0  0  1  0  0  0  0  0  0
  160.4370  213.2050  143.9800 C   0  0  1  0  0  3  0  0  0  0  0  0
  160.0030  213.4650  141.6460 O   0  0  0  0  0  0  0  0  0  0  0  0
  160.5920  212.8060  142.5470 C   0  0  0  0  0  0  0  0  0  0  0  0
  161.4110  211.7350  142.1980 O   0  0  0  0  0  1  0  0  0  0  0  0
  161.5700  206.4970  147.8870 C   0  0  0  0  0  2  0  0  0  0  0  0
  160.6000  206.9960  146.9240 N   0  0  0  0  0  2  0  0  0  0  0  0
  159.7730  205.7760  145.2750 O   0  0  0  0  0  1  0  0  0  0  0  0
  160.9020  206.3970  145.6950 N   0  0  0  0  0  2  0  0  0  0  0  0
  1 44  1  6  0  0  0
  1 23  1  0  0  0  0
  1  8  1  0  0  0  0
  2  3  1  0  0  0  0
  3  6  1  0  0  0  0
  3 19  1  1  0  0  0
  4  7  2  0  0  0  0
  5  8  1  0  0  0  0
  5  4  1  0  0  0  0
  7  6  1  0  0  0  0
  8  2  2  0  0  0  0
  9 13  1  0  0  0  0
  9  4  1  1  0  0  0
 10  9  1  0  0  0  0
 11 18  1  6  0  0  0
 11 14  1  0  0  0  0
 14 12  2  0  0  0  0
 14 13  1  0  0  0  0
 15 11  1  0  0  0  0
 15 10  1  0  0  0  0
 16 18  1  0  0  0  0
 17 18  1  0  0  0  0
 19 20  1  0  0  0  0
 20 22  1  0  0  0  0
 21 20  1  0  0  0  0
 23 24  1  6  0  0  0
 23 25  1  0  0  0  0
 26 25  1  0  0  0  0
 27 31  1  0  0  0  0
 28 26  1  0  0  0  0
 28 30  2  0  0  0  0
 29 28  1  0  0  0  0
 31 30  1  0  0  0  0
 31 34  1  1  0  0  0
 32 35  1  6  0  0  0
 32 29  1  0  0  0  0
 32 27  1  0  0  0  0
 33 34  1  0  0  0  0
 35 38  1  6  0  0  0
 36 35  1  0  0  0  0
 37 36  1  0  0  0  0
 40 38  1  0  0  0  0
 40 39  1  6  0  0  0
 41 42  2  0  0  0  0
 42 40  1  0  0  0  0
 43 42  1  0  0  0  0
 45 44  1  0  0  0  0
 46 47  1  0  0  0  0
 47 45  1  0  0  0  0
M  END
>  <MODEL>
8

>  <REMARK>
 VINA RESULT:      -4.2      3.741      9.440
  Name = 
  18 active torsions:
  status: ('A' for Active; 'I' for Inactive)
    1  A    between atoms: C_3  and  N_18
    2  A    between atoms: O_5  and  C_9
    3  A    between atoms: O_5  and  C_32
    4  A    between atoms: C_6  and  C_9
    5  A    between atoms: C_10  and  C_29
    6  A    between atoms: O_11  and  C_32
    7  A    between atoms: C_14  and  C_34
    8  A    between atoms: N_15  and  C_25
    9  A    between atoms: N_15  and  C_34
   10  A    between atoms: N_18  and  C_28
   11  A    between atoms: C_19  and  C_20
   12  A    between atoms: C_19  and  C_25
   13  A    between atoms: C_19  and  C_45
   14  A    between atoms: C_20  and  N_23
   15  A    between atoms: C_21  and  N_46
   16  A    between atoms: N_23  and  N_40
   17  A    between atoms: C_32  and  C_42
   18  A    between atoms: C_39  and  O_44
                            x       y       z     vdW  Elec       q    Type
                         _______ _______ _______ _____ _____    ______ ____

>  <TORSDO>
F 18

$$$$
=
 OpenBabel11042421423D

 47 49  0  0  1  0  0  0  0  0999 V2000
  161.8690  212.0780  149.7920 C   0  0  1  0  0  3  0  0  0  0  0  0
  160.0120  213.5050  149.0100 C   0  0  0  0  0  3  0  0  0  0  0  0
  158.6710  214.2050  148.9530 C   0  0  2  0  0  3  0  0  0  0  0  0
  158.8290  213.0040  151.7920 C   0  0  0  0  0  0  0  0  0  0  0  0
  159.6160  211.9980  150.9990 C   0  0  0  0  0  2  0  0  0  0  0  0
  157.5530  213.5460  149.7530 C   0  0  0  0  0  2  0  0  0  0  0  0
  157.8400  213.6940  151.2140 C   0  0  0  0  0  3  0  0  0  0  0  0
  160.4660  212.6100  149.9180 C   0  0  0  0  0  0  0  0  0  0  0  0
  159.1170  213.2250  153.2460 C   0  0  2  0  0  3  0  0  0  0  0  0
  159.5240  211.9040  153.9250 C   0  0  0  0  0  2  0  0  0  0  0  0
  157.5730  211.9370  155.5260 C   0  0  1  0  0  3  0  0  0  0  0  0
  155.8020  212.9770  154.2320 N   0  0  0  0  0  2  0  0  0  0  0  0
  157.9680  213.9780  153.9420 C   0  0  0  0  0  2  0  0  0  0  0  0
  157.0230  213.0300  154.6250 C   0  0  0  0  0  0  0  0  0  0  0  0
  159.1080  211.8690  155.3930 C   0  0  0  0  0  2  0  0  0  0  0  0
  157.3060  213.5590  157.2570 C   0  0  0  0  0  1  0  0  0  0  0  0
  155.7500  211.8570  157.0700 C   0  0  0  0  0  1  0  0  0  0  0  0
  157.1750  212.1430  156.9300 N   0  0  0  0  0  0  0  0  0  0  0  0
  158.2570  214.3500  147.5590 N   0  0  0  0  0  2  0  0  0  0  0  0
  158.4290  213.0970  146.8200 C   0  0  0  0  0  3  0  0  0  0  0  0
  159.1380  213.3050  145.4890 C   0  0  0  0  0  1  0  0  0  0  0  0
  157.1110  212.3610  146.6350 C   0  0  0  0  0  1  0  0  0  0  0  0
  162.0410  210.7240  150.4870 C   0  0  1  0  0  3  0  0  0  0  0  0
  161.2860  210.6610  151.6640 O   0  0  0  0  0  1  0  0  0  0  0  0
  161.6460  209.6490  149.5920 N   0  0  0  0  0  2  0  0  0  0  0  0
  162.4230  208.4750  149.9550 C   0  0  0  0  0  2  0  0  0  0  0  0
  161.2100  204.4230  149.2410 C   0  0  0  0  0  2  0  0  0  0  0  0
  161.6370  207.2370  149.6740 C   0  0  0  0  0  0  0  0  0  0  0  0
  161.3890  206.8110  148.2540 C   0  0  0  0  0  2  0  0  0  0  0  0
  161.1900  206.4650  150.6720 C   0  0  0  0  0  3  0  0  0  0  0  0
  160.4570  205.1970  150.3350 C   0  0  2  0  0  3  0  0  0  0  0  0
  161.7120  205.3210  148.0820 C   0  0  2  0  0  3  0  0  0  0  0  0
  160.9570  203.2030  151.1580 C   0  0  0  0  0  1  0  0  0  0  0  0
  160.3200  204.4050  151.4780 O   0  0  0  0  0  0  0  0  0  0  0  0
  161.2300  204.8200  146.7210 C   0  0  1  0  0  3  0  0  0  0  0  0
  161.5880  205.7340  145.7260 O   0  0  0  0  0  0  0  0  0  0  0  0
  162.6390  205.1230  145.0390 C   0  0  0  0  0  1  0  0  0  0  0  0
  161.7920  203.5670  146.4280 O   0  0  0  0  0  0  0  0  0  0  0  0
  160.4880  202.5240  144.8780 O   0  0  0  0  0  1  0  0  0  0  0  0
  160.7040  202.7060  146.2450 C   0  0  1  0  0  3  0  0  0  0  0  0
  161.1630  201.3180  148.1350 O   0  0  0  0  0  1  0  0  0  0  0  0
  160.9770  201.3830  146.8870 C   0  0  0  0  0  0  0  0  0  0  0  0
  160.9890  200.2170  146.1250 O   0  0  0  0  0  0  0  0  0  0  0  0
  162.3490  212.0520  148.3430 C   0  0  0  0  0  2  0  0  0  0  0  0
  161.8640  213.2240  147.6310 N   0  0  0  0  0  2  0  0  0  0  0  0
  162.5390  212.9430  145.5440 O   0  0  0  0  0  1  0  0  0  0  0  0
  162.8520  213.5740  146.7020 N   0  0  0  0  0  2  0  0  0  0  0  0
  1 44  1  6  0  0  0
  1  8  1  0  0  0  0
  1 23  1  0  0  0  0
  2  8  2  0  0  0  0
  3 19  1  6  0  0  0
  3  2  1  0  0  0  0
  3  6  1  0  0  0  0
  5  4  1  0  0  0  0
  6  7  1  0  0  0  0
  7  4  2  0  0  0  0
  8  5  1  0  0  0  0
  9  4  1  6  0  0  0
  9 10  1  0  0  0  0
  9 13  1  0  0  0  0
 10 15  1  0  0  0  0
 11 18  1  1  0  0  0
 12 14  2  0  0  0  0
 13 14  1  0  0  0  0
 14 11  1  0  0  0  0
 15 11  1  0  0  0  0
 18 17  1  0  0  0  0
 18 16  1  0  0  0  0
 20 19  1  0  0  0  0
 21 20  1  0  0  0  0
 22 20  1  0  0  0  0
 23 24  1  1  0  0  0
 25 26  1  0  0  0  0
 25 23  1  0  0  0  0
 27 31  1  0  0  0  0
 28 26  1  0  0  0  0
 28 30  2  0  0  0  0
 29 28  1  0  0  0  0
 31 30  1  0  0  0  0
 31 34  1  1  0  0  0
 32 35  1  6  0  0  0
 32 29  1  0  0  0  0
 32 27  1  0  0  0  0
 33 34  1  0  0  0  0
 35 36  1  6  0  0  0
 37 36  1  0  0  0  0
 38 35  1  0  0  0  0
 40 39  1  6  0  0  0
 40 38  1  0  0  0  0
 40 42  1  0  0  0  0
 42 41  1  0  0  0  0
 43 42  2  0  0  0  0
 45 44  1  0  0  0  0
 46 47  1  0  0  0  0
 47 45  1  0  0  0  0
M  END
>  <MODEL>
9

>  <REMARK>
 VINA RESULT:      -4.0      1.820      6.174
  Name = 
  18 active torsions:
  status: ('A' for Active; 'I' for Inactive)
    1  A    between atoms: C_3  and  N_18
    2  A    between atoms: O_5  and  C_9
    3  A    between atoms: O_5  and  C_32
    4  A    between atoms: C_6  and  C_9
    5  A    between atoms: C_10  and  C_29
    6  A    between atoms: O_11  and  C_32
    7  A    between atoms: C_14  and  C_34
    8  A    between atoms: N_15  and  C_25
    9  A    between atoms: N_15  and  C_34
   10  A    between atoms: N_18  and  C_28
   11  A    between atoms: C_19  and  C_20
   12  A    between atoms: C_19  and  C_25
   13  A    between atoms: C_19  and  C_45
   14  A    between atoms: C_20  and  N_23
   15  A    between atoms: C_21  and  N_46
   16  A    between atoms: N_23  and  N_40
   17  A    between atoms: C_32  and  C_42
   18  A    between atoms: C_39  and  O_44
                            x       y       z     vdW  Elec       q    Type
                         _______ _______ _______ _____ _____    ______ ____

>  <TORSDO>
F 18

$$$$
