=
 OpenBabel11052411393D

 43 45  0  0  1  0  0  0  0  0999 V2000
  159.6730  212.1080  150.5000 O   0  0  0  0  0  0  0  0  0  0  0  0
  161.6040  210.7430  150.0330 C   0  0  0  0  0  2  0  0  0  0  0  0
  157.7820  213.6890  153.3440 C   0  0  0  0  0  2  0  0  0  0  0  0
  159.5440  212.7320  151.7760 C   0  0  2  0  0  0  0  0  0  0  0  0
  159.3020  210.3930  152.7450 C   0  0  0  0  0  2  0  0  0  0  0  0
  160.2440  209.2770  153.1640 C   0  0  0  0  0  2  0  0  0  0  0  0
  159.6480  212.3060  154.2800 C   0  0  0  0  0  0  0  0  0  0  0  0
  163.7170  210.9340  151.3340 C   0  0  0  0  0  1  0  0  0  0  0  0
  161.0070  212.1400  150.0290 C   0  0  1  0  0  3  0  0  0  0  0  0
  162.2750  210.4690  151.3720 C   0  0  2  0  0  3  0  0  0  0  0  0
  160.3280  214.0560  151.8680 C   0  0  0  0  0  1  0  0  0  0  0  0
  162.2270  209.0500  151.7120 N   0  0  0  0  0  2  0  0  0  0  0  0
  159.9640  211.7660  152.9050 C   0  0  2  0  0  3  0  0  0  0  0  0
  160.8410  208.6280  151.9190 C   0  0  1  0  0  3  0  0  0  0  0  0
  158.0600  213.0460  151.9810 C   0  0  0  0  0  2  0  0  0  0  0  0
  158.5740  213.1080  154.4970 C   0  0  0  0  0  0  0  0  0  0  0  0
  158.9540  214.4510  156.4220 O   0  0  0  0  0  0  0  0  0  0  0  0
  158.2200  213.5980  155.8550 C   0  0  0  0  0  0  0  0  0  0  0  0
  157.0140  213.1450  156.5690 C   0  0  0  0  0  3  0  0  0  0  0  0
  156.6270  211.8770  156.6090 C   0  0  0  0  0  2  0  0  0  0  0  0
  161.1530  211.4110  156.2710 C   0  0  0  0  0  3  0  0  0  0  0  0
  160.4660  211.8160  155.3670 C   0  0  0  0  0  0  0  0  0  0  0  0
  161.0240  212.6610  148.6030 C   0  0  0  0  0  2  0  0  0  0  0  0
  159.7920  213.5050  148.3290 C   0  0  0  0  0  2  0  0  0  0  0  0
  159.7580  212.9550  146.0160 O   0  0  0  0  0  0  0  0  0  0  0  0
  159.1110  213.0220  147.0950 C   0  0  0  0  0  0  0  0  0  0  0  0
  157.0280  212.5310  146.0830 O   0  0  0  0  0  0  0  0  0  0  0  0
  157.1280  212.2830  148.3260 F   0  0  0  0  0  0  0  0  0  0  0  0
  157.7060  212.6010  147.1410 C   0  0  0  0  0  0  0  0  0  0  0  0
  160.7980  207.1130  152.0440 C   0  0  0  0  0  2  0  0  0  0  0  0
  160.8650  207.0080  149.5560 C   0  0  0  0  0  1  0  0  0  0  0  0
  161.4470  206.4460  150.8420 C   0  0  2  0  0  3  0  0  0  0  0  0
  161.1870  204.9530  150.9090 C   0  0  0  0  0  2  0  0  0  0  0  0
  160.3900  204.5530  149.8190 O   0  0  0  0  0  0  0  0  0  0  0  0
  161.0880  203.6020  149.0350 C   0  0  1  0  0  3  0  0  0  0  0  0
  160.5270  201.6560  147.8010 O   0  0  0  0  0  0  0  0  0  0  0  0
  160.4970  202.1990  149.0960 C   0  0  1  0  0  3  0  0  0  0  0  0
  161.1530  203.9470  147.5680 C   0  0  2  0  0  3  0  0  0  0  0  0
  161.3180  201.3370  150.0330 C   0  0  0  0  0  1  0  0  0  0  0  0
  160.4140  202.7620  146.9450 C   0  0  1  0  0  3  0  0  0  0  0  0
  160.8440  202.4010  145.5310 C   0  0  0  0  0  1  0  0  0  0  0  0
  162.6220  204.0290  147.1700 C   0  0  0  0  0  2  0  0  0  0  0  0
  162.8860  205.2630  146.5770 O   0  0  0  0  0  1  0  0  0  0  0  0
  1  4  1  0  0  0  0
  2 10  1  0  0  0  0
  3 16  1  0  0  0  0
  4 11  1  1  0  0  0
  4 15  1  0  0  0  0
  4 13  1  0  0  0  0
  5  6  1  0  0  0  0
  7 16  2  0  0  0  0
  7 22  1  0  0  0  0
  9 23  1  6  0  0  0
  9  2  1  0  0  0  0
  9  1  1  0  0  0  0
 10  8  1  6  0  0  0
 10 12  1  0  0  0  0
 12 14  1  0  0  0  0
 13  5  1  6  0  0  0
 13  7  1  0  0  0  0
 14 30  1  1  0  0  0
 14  6  1  0  0  0  0
 15  3  1  0  0  0  0
 16 18  1  0  0  0  0
 18 17  2  0  0  0  0
 18 19  1  0  0  0  0
 19 20  2  0  0  0  0
 22 21  3  0  0  0  0
 24 23  1  0  0  0  0
 25 26  2  0  0  0  0
 26 29  1  0  0  0  0
 26 24  1  0  0  0  0
 27 29  2  0  0  0  0
 29 28  1  0  0  0  0
 32 31  1  6  0  0  0
 32 33  1  0  0  0  0
 32 30  1  0  0  0  0
 34 33  1  0  0  0  0
 35 37  1  0  0  0  0
 35 34  1  1  0  0  0
 36 37  1  0  0  0  0
 37 39  1  1  0  0  0
 38 42  1  6  0  0  0
 38 35  1  0  0  0  0
 40 41  1  6  0  0  0
 40 38  1  0  0  0  0
 40 36  1  0  0  0  0
 43 42  1  0  0  0  0
M  END
>  <MODEL>
1

>  <REMARK>
 VINA RESULT:      -3.2      0.000      0.000
  Name = 
  13 active torsions:
  status: ('A' for Active; 'I' for Inactive)
    1  A    between atoms: C_2  and  C_23
    2  A    between atoms: C_2  and  O_28
    3  A    between atoms: C_3  and  C_42
    4  A    between atoms: C_5  and  O_28
    5  A    between atoms: C_6  and  C_18
    6  A    between atoms: C_13  and  C_21
    7  A    between atoms: C_19  and  C_34
    8  A    between atoms: C_23  and  C_32
    9  A    between atoms: C_25  and  C_26
   10  A    between atoms: C_25  and  C_33
   11  A    between atoms: C_32  and  C_39
   12  A    between atoms: C_33  and  C_34
   13  A    between atoms: C_41  and  C_42
                            x       y       z     vdW  Elec       q    Type
                         _______ _______ _______ _____ _____    ______ ____

>  <TORSDO>
F 13

$$$$
=
 OpenBabel11052411393D

 43 45  0  0  1  0  0  0  0  0999 V2000
  159.5080  212.1290  150.6180 O   0  0  0  0  0  0  0  0  0  0  0  0
  161.4540  210.8450  150.0060 C   0  0  0  0  0  2  0  0  0  0  0  0
  157.7190  213.5500  153.6090 C   0  0  0  0  0  2  0  0  0  0  0  0
  159.4250  212.7060  151.9200 C   0  0  2  0  0  0  0  0  0  0  0  0
  159.3080  210.3290  152.8170 C   0  0  0  0  0  2  0  0  0  0  0  0
  160.3050  209.2310  153.1480 C   0  0  0  0  0  2  0  0  0  0  0  0
  159.6730  212.1990  154.3990 C   0  0  0  0  0  0  0  0  0  0  0  0
  163.6240  211.0630  151.2030 C   0  0  0  0  0  1  0  0  0  0  0  0
  160.8140  212.2210  150.0810 C   0  0  1  0  0  3  0  0  0  0  0  0
  162.2010  210.5490  151.2980 C   0  0  2  0  0  3  0  0  0  0  0  0
  160.1720  214.0510  152.0190 C   0  0  0  0  0  1  0  0  0  0  0  0
  162.2160  209.1190  151.5900 N   0  0  0  0  0  2  0  0  0  0  0  0
  159.9340  211.7170  152.9920 C   0  0  2  0  0  3  0  0  0  0  0  0
  160.8570  208.6450  151.8520 C   0  0  1  0  0  3  0  0  0  0  0  0
  157.9460  212.9630  152.2110 C   0  0  0  0  0  2  0  0  0  0  0  0
  158.5870  212.9580  154.6980 C   0  0  0  0  0  0  0  0  0  0  0  0
  158.7970  214.4530  156.5350 O   0  0  0  0  0  0  0  0  0  0  0  0
  158.2890  213.3900  156.0890 C   0  0  0  0  0  0  0  0  0  0  0  0
  157.3880  212.6330  156.9750 C   0  0  0  0  0  3  0  0  0  0  0  0
  156.1070  212.4240  156.7010 C   0  0  0  0  0  2  0  0  0  0  0  0
  161.3000  211.2780  156.2790 C   0  0  0  0  0  3  0  0  0  0  0  0
  160.5610  211.7010  155.4250 C   0  0  0  0  0  0  0  0  0  0  0  0
  160.7400  212.7910  148.6750 C   0  0  0  0  0  2  0  0  0  0  0  0
  161.9600  213.6460  148.3820 C   0  0  0  0  0  2  0  0  0  0  0  0
  163.6610  212.1830  147.5960 O   0  0  0  0  0  0  0  0  0  0  0  0
  162.7690  213.0210  147.2980 C   0  0  0  0  0  0  0  0  0  0  0  0
  161.5190  214.0710  145.5840 O   0  0  0  0  0  0  0  0  0  0  0  0
  163.3340  212.9010  144.9190 F   0  0  0  0  0  0  0  0  0  0  0  0
  162.5090  213.3570  145.8940 C   0  0  0  0  0  0  0  0  0  0  0  0
  160.8690  207.1260  151.9260 C   0  0  0  0  0  2  0  0  0  0  0  0
  160.8150  207.1720  149.4360 C   0  0  0  0  0  1  0  0  0  0  0  0
  161.4440  206.5200  150.6560 C   0  0  2  0  0  3  0  0  0  0  0  0
  161.1520  205.0320  150.6450 C   0  0  0  0  0  2  0  0  0  0  0  0
  160.5090  204.6750  149.4440 O   0  0  0  0  0  0  0  0  0  0  0  0
  161.1800  203.5820  148.8440 C   0  0  1  0  0  3  0  0  0  0  0  0
  160.5910  201.4110  148.0940 O   0  0  0  0  0  0  0  0  0  0  0  0
  160.6240  202.2210  149.2410 C   0  0  1  0  0  3  0  0  0  0  0  0
  161.1550  203.6020  147.3350 C   0  0  2  0  0  3  0  0  0  0  0  0
  161.5140  201.5890  150.2910 C   0  0  0  0  0  1  0  0  0  0  0  0
  160.4070  202.3050  147.0270 C   0  0  1  0  0  3  0  0  0  0  0  0
  160.7640  201.6500  145.7010 C   0  0  0  0  0  1  0  0  0  0  0  0
  162.5980  203.6080  146.8420 C   0  0  0  0  0  2  0  0  0  0  0  0
  162.9780  204.9050  146.4990 O   0  0  0  0  0  1  0  0  0  0  0  0
  1  4  1  0  0  0  0
  2  9  1  0  0  0  0
  2 10  1  0  0  0  0
  3 16  1  0  0  0  0
  4 11  1  1  0  0  0
  4 15  1  0  0  0  0
  4 13  1  0  0  0  0
  5  6  1  0  0  0  0
  7 16  2  0  0  0  0
  7 22  1  0  0  0  0
  9 23  1  6  0  0  0
  9  1  1  0  0  0  0
 10  8  1  6  0  0  0
 10 12  1  0  0  0  0
 12 14  1  0  0  0  0
 13  5  1  6  0  0  0
 13  7  1  0  0  0  0
 14 30  1  1  0  0  0
 14  6  1  0  0  0  0
 15  3  1  0  0  0  0
 16 18  1  0  0  0  0
 18 17  2  0  0  0  0
 18 19  1  0  0  0  0
 20 19  2  0  0  0  0
 22 21  3  0  0  0  0
 24 23  1  0  0  0  0
 26 25  2  0  0  0  0
 26 24  1  0  0  0  0
 27 29  2  0  0  0  0
 28 29  1  0  0  0  0
 29 26  1  0  0  0  0
 32 31  1  6  0  0  0
 32 30  1  0  0  0  0
 33 32  1  0  0  0  0
 34 33  1  0  0  0  0
 35 37  1  0  0  0  0
 35 34  1  1  0  0  0
 36 37  1  0  0  0  0
 37 39  1  1  0  0  0
 38 42  1  6  0  0  0
 38 35  1  0  0  0  0
 40 41  1  6  0  0  0
 40 38  1  0  0  0  0
 40 36  1  0  0  0  0
 43 42  1  0  0  0  0
M  END
>  <MODEL>
2

>  <REMARK>
 VINA RESULT:      -2.9      1.528      1.799
  Name = 
  13 active torsions:
  status: ('A' for Active; 'I' for Inactive)
    1  A    between atoms: C_2  and  C_23
    2  A    between atoms: C_2  and  O_28
    3  A    between atoms: C_3  and  C_42
    4  A    between atoms: C_5  and  O_28
    5  A    between atoms: C_6  and  C_18
    6  A    between atoms: C_13  and  C_21
    7  A    between atoms: C_19  and  C_34
    8  A    between atoms: C_23  and  C_32
    9  A    between atoms: C_25  and  C_26
   10  A    between atoms: C_25  and  C_33
   11  A    between atoms: C_32  and  C_39
   12  A    between atoms: C_33  and  C_34
   13  A    between atoms: C_41  and  C_42
                            x       y       z     vdW  Elec       q    Type
                         _______ _______ _______ _____ _____    ______ ____

>  <TORSDO>
F 13

$$$$
=
 OpenBabel11052411393D

 43 45  0  0  1  0  0  0  0  0999 V2000
  160.2700  204.8370  151.4450 O   0  0  0  0  0  0  0  0  0  0  0  0
  161.7750  206.6820  151.8220 C   0  0  0  0  0  2  0  0  0  0  0  0
  159.5880  202.0140  149.0510 C   0  0  0  0  0  2  0  0  0  0  0  0
  160.6300  203.8120  150.5210 C   0  0  2  0  0  0  0  0  0  0  0  0
  160.4350  205.5760  148.6990 C   0  0  0  0  0  2  0  0  0  0  0  0
  161.3220  206.6740  148.1350 C   0  0  0  0  0  2  0  0  0  0  0  0
  161.4770  203.3950  148.1600 C   0  0  0  0  0  0  0  0  0  0  0  0
  164.1990  206.5570  151.2750 C   0  0  0  0  0  1  0  0  0  0  0  0
  161.3780  205.2690  152.2130 C   0  0  1  0  0  3  0  0  0  0  0  0
  162.8000  206.6410  150.6980 C   0  0  2  0  0  3  0  0  0  0  0  0
  161.5540  202.7490  151.1460 C   0  0  0  0  0  1  0  0  0  0  0  0
  162.6960  207.8160  149.8370 N   0  0  0  0  0  2  0  0  0  0  0  0
  161.2710  204.4180  149.2520 C   0  0  2  0  0  3  0  0  0  0  0  0
  161.4090  207.8170  149.1420 C   0  0  1  0  0  3  0  0  0  0  0  0
  159.3380  203.1190  150.0840 C   0  0  0  0  0  2  0  0  0  0  0  0
  160.6320  202.3440  148.0050 C   0  0  0  0  0  0  0  0  0  0  0  0
  161.5650  200.3800  147.0420 O   0  0  0  0  0  0  0  0  0  0  0  0
  160.7910  201.3640  146.8990 C   0  0  0  0  0  0  0  0  0  0  0  0
  160.0490  201.4760  145.6310 C   0  0  0  0  0  3  0  0  0  0  0  0
  160.1610  202.5160  144.8150 C   0  0  0  0  0  2  0  0  0  0  0  0
  163.4190  203.8900  146.4240 C   0  0  0  0  0  3  0  0  0  0  0  0
  162.5350  203.6690  147.2130 C   0  0  0  0  0  0  0  0  0  0  0  0
  161.0000  205.2690  153.6840 C   0  0  0  0  0  2  0  0  0  0  0  0
  161.6000  206.4730  154.3880 C   0  0  0  0  0  2  0  0  0  0  0  0
  159.6550  206.6170  155.7470 O   0  0  0  0  0  0  0  0  0  0  0  0
  160.5290  207.2380  155.0850 C   0  0  0  0  0  0  0  0  0  0  0  0
  159.7960  209.3630  155.8270 O   0  0  0  0  0  0  0  0  0  0  0  0
  161.2550  209.3600  154.1020 F   0  0  0  0  0  0  0  0  0  0  0  0
  160.5080  208.7040  155.0240 C   0  0  0  0  0  0  0  0  0  0  0  0
  161.2290  209.1520  148.4360 C   0  0  0  0  0  2  0  0  0  0  0  0
  161.5470  210.6290  150.4180 C   0  0  0  0  0  1  0  0  0  0  0  0
  162.1050  210.2250  149.0630 C   0  0  2  0  0  3  0  0  0  0  0  0
  162.1360  211.4330  148.1460 C   0  0  0  0  0  2  0  0  0  0  0  0
  161.7410  212.5850  148.8510 O   0  0  0  0  0  0  0  0  0  0  0  0
  160.9270  213.4000  148.0260 C   0  0  1  0  0  3  0  0  0  0  0  0
  160.0130  213.2540  145.8430 O   0  0  0  0  0  0  0  0  0  0  0  0
  161.2330  213.2720  146.5390 C   0  0  1  0  0  3  0  0  0  0  0  0
  159.4500  213.1230  148.1580 C   0  0  2  0  0  3  0  0  0  0  0  0
  162.0660  214.4520  146.0840 C   0  0  0  0  0  1  0  0  0  0  0  0
  159.0960  212.6810  146.7380 C   0  0  1  0  0  3  0  0  0  0  0  0
  157.6650  212.9670  146.3080 C   0  0  0  0  0  1  0  0  0  0  0  0
  158.7660  214.4180  148.5840 C   0  0  0  0  0  2  0  0  0  0  0  0
  157.7810  214.1450  149.5320 O   0  0  0  0  0  1  0  0  0  0  0  0
  1  9  1  0  0  0  0
  2  9  1  0  0  0  0
  3 15  1  0  0  0  0
  4 11  1  1  0  0  0
  4  1  1  0  0  0  0
  6  5  1  0  0  0  0
  6 14  1  0  0  0  0
  7 13  1  0  0  0  0
  9 23  1  1  0  0  0
 10  8  1  1  0  0  0
 10  2  1  0  0  0  0
 12 10  1  0  0  0  0
 13  5  1  6  0  0  0
 13  4  1  0  0  0  0
 14 30  1  6  0  0  0
 14 12  1  0  0  0  0
 15  4  1  0  0  0  0
 16  7  2  0  0  0  0
 16  3  1  0  0  0  0
 18 17  2  0  0  0  0
 18 16  1  0  0  0  0
 19 18  1  0  0  0  0
 20 19  2  0  0  0  0
 21 22  3  0  0  0  0
 22  7  1  0  0  0  0
 23 24  1  0  0  0  0
 24 26  1  0  0  0  0
 26 25  2  0  0  0  0
 28 29  1  0  0  0  0
 29 26  1  0  0  0  0
 29 27  2  0  0  0  0
 30 32  1  0  0  0  0
 32 31  1  1  0  0  0
 33 34  1  0  0  0  0
 33 32  1  0  0  0  0
 35 38  1  0  0  0  0
 35 34  1  1  0  0  0
 36 37  1  0  0  0  0
 36 40  1  0  0  0  0
 37 39  1  6  0  0  0
 37 35  1  0  0  0  0
 38 42  1  6  0  0  0
 40 41  1  6  0  0  0
 40 38  1  0  0  0  0
 42 43  1  0  0  0  0
M  END
>  <MODEL>
3

>  <REMARK>
 VINA RESULT:      -2.8      3.064     10.039
  Name = 
  13 active torsions:
  status: ('A' for Active; 'I' for Inactive)
    1  A    between atoms: C_2  and  C_23
    2  A    between atoms: C_2  and  O_28
    3  A    between atoms: C_3  and  C_42
    4  A    between atoms: C_5  and  O_28
    5  A    between atoms: C_6  and  C_18
    6  A    between atoms: C_13  and  C_21
    7  A    between atoms: C_19  and  C_34
    8  A    between atoms: C_23  and  C_32
    9  A    between atoms: C_25  and  C_26
   10  A    between atoms: C_25  and  C_33
   11  A    between atoms: C_32  and  C_39
   12  A    between atoms: C_33  and  C_34
   13  A    between atoms: C_41  and  C_42
                            x       y       z     vdW  Elec       q    Type
                         _______ _______ _______ _____ _____    ______ ____

>  <TORSDO>
F 13

$$$$
=
 OpenBabel11052411393D

 43 45  0  0  1  0  0  0  0  0999 V2000
  159.9620  210.2250  138.9820 O   0  0  0  0  0  0  0  0  0  0  0  0
  161.5190  212.0480  139.2400 C   0  0  0  0  0  2  0  0  0  0  0  0
  156.2890  209.5010  138.6060 C   0  0  0  0  0  2  0  0  0  0  0  0
  158.6320  210.4920  138.5440 C   0  0  2  0  0  0  0  0  0  0  0  0
  158.2970  211.7150  140.7490 C   0  0  0  0  0  2  0  0  0  0  0  0
  158.6090  213.0990  141.2950 C   0  0  0  0  0  2  0  0  0  0  0  0
  156.5980  211.9590  138.9640 C   0  0  0  0  0  0  0  0  0  0  0  0
  161.1990  214.2420  138.1120 C   0  0  0  0  0  1  0  0  0  0  0  0
  160.9130  211.0200  138.2990 C   0  0  1  0  0  3  0  0  0  0  0  0
  160.6960  213.3280  139.2110 C   0  0  2  0  0  3  0  0  0  0  0  0
  158.5270  210.6150  137.0110 C   0  0  0  0  0  1  0  0  0  0  0  0
  160.7500  214.0260  140.4920 N   0  0  0  0  0  2  0  0  0  0  0  0
  158.0700  211.7550  139.2340 C   0  0  2  0  0  3  0  0  0  0  0  0
  160.1110  213.2200  141.5310 C   0  0  1  0  0  3  0  0  0  0  0  0
  157.7620  209.3140  138.9860 C   0  0  0  0  0  2  0  0  0  0  0  0
  155.7580  210.9080  138.7810 C   0  0  0  0  0  0  0  0  0  0  0  0
  153.8250  211.0560  137.4050 O   0  0  0  0  0  0  0  0  0  0  0  0
  154.2980  211.0950  138.5710 C   0  0  0  0  0  0  0  0  0  0  0  0
  153.3590  211.2980  139.6880 C   0  0  0  0  0  3  0  0  0  0  0  0
  152.9850  210.3240  140.5080 C   0  0  0  0  0  2  0  0  0  0  0  0
  155.7100  214.4530  139.1160 C   0  0  0  0  0  3  0  0  0  0  0  0
  156.1110  213.3190  139.0440 C   0  0  0  0  0  0  0  0  0  0  0  0
  162.0300  210.1320  137.7790 C   0  0  0  0  0  2  0  0  0  0  0  0
  162.1850  208.9030  138.6560 C   0  0  0  0  0  2  0  0  0  0  0  0
  160.6950  207.7890  137.1760 O   0  0  0  0  0  0  0  0  0  0  0  0
  161.7020  207.6970  137.9280 C   0  0  0  0  0  0  0  0  0  0  0  0
  162.5480  205.6600  137.0680 O   0  0  0  0  0  0  0  0  0  0  0  0
  162.9160  206.0420  139.2640 F   0  0  0  0  0  0  0  0  0  0  0  0
  162.4080  206.4180  138.0640 C   0  0  0  0  0  0  0  0  0  0  0  0
  160.3790  213.8560  142.8860 C   0  0  0  0  0  2  0  0  0  0  0  0
  158.4860  213.2790  144.3990 C   0  0  0  0  0  1  0  0  0  0  0  0
  159.9190  212.9500  144.0170 C   0  0  2  0  0  3  0  0  0  0  0  0
  160.8250  213.1610  145.2150 C   0  0  0  0  0  2  0  0  0  0  0  0
  160.0530  213.3740  146.3730 O   0  0  0  0  0  0  0  0  0  0  0  0
  160.8670  213.2460  147.5250 C   0  0  1  0  0  3  0  0  0  0  0  0
  160.7080  212.1500  149.6220 O   0  0  0  0  0  0  0  0  0  0  0  0
  160.0820  213.1220  148.8250 C   0  0  1  0  0  3  0  0  0  0  0  0
  161.7870  212.0510  147.4960 C   0  0  2  0  0  3  0  0  0  0  0  0
  160.0740  214.4520  149.5490 C   0  0  0  0  0  1  0  0  0  0  0  0
  161.2960  211.2610  148.7090 C   0  0  1  0  0  3  0  0  0  0  0  0
  162.3500  210.3990  149.3900 C   0  0  0  0  0  1  0  0  0  0  0  0
  163.2180  212.5580  147.6340 C   0  0  0  0  0  2  0  0  0  0  0  0
  163.2500  213.9430  147.4790 O   0  0  0  0  0  1  0  0  0  0  0  0
  3 16  1  0  0  0  0
  3 15  1  0  0  0  0
  4 11  1  6  0  0  0
  4  1  1  0  0  0  0
  4 15  1  0  0  0  0
  4 13  1  0  0  0  0
  5  6  1  0  0  0  0
  6 14  1  0  0  0  0
  7 22  1  0  0  0  0
  7 13  1  0  0  0  0
  9 23  1  1  0  0  0
  9  1  1  0  0  0  0
  9  2  1  0  0  0  0
 10  8  1  6  0  0  0
 10  2  1  0  0  0  0
 10 12  1  0  0  0  0
 12 14  1  0  0  0  0
 13  5  1  1  0  0  0
 14 30  1  1  0  0  0
 16  7  2  0  0  0  0
 17 18  2  0  0  0  0
 18 16  1  0  0  0  0
 18 19  1  0  0  0  0
 19 20  2  0  0  0  0
 22 21  3  0  0  0  0
 23 24  1  0  0  0  0
 25 26  2  0  0  0  0
 26 29  1  0  0  0  0
 26 24  1  0  0  0  0
 27 29  2  0  0  0  0
 29 28  1  0  0  0  0
 30 32  1  0  0  0  0
 32 31  1  1  0  0  0
 32 33  1  0  0  0  0
 33 34  1  0  0  0  0
 35 34  1  6  0  0  0
 35 37  1  0  0  0  0
 37 39  1  1  0  0  0
 37 36  1  0  0  0  0
 38 35  1  0  0  0  0
 38 42  1  1  0  0  0
 38 40  1  0  0  0  0
 40 41  1  1  0  0  0
 40 36  1  0  0  0  0
 43 42  1  0  0  0  0
M  END
>  <MODEL>
4

>  <REMARK>
 VINA RESULT:      -2.5      7.502     12.816
  Name = 
  13 active torsions:
  status: ('A' for Active; 'I' for Inactive)
    1  A    between atoms: C_2  and  C_23
    2  A    between atoms: C_2  and  O_28
    3  A    between atoms: C_3  and  C_42
    4  A    between atoms: C_5  and  O_28
    5  A    between atoms: C_6  and  C_18
    6  A    between atoms: C_13  and  C_21
    7  A    between atoms: C_19  and  C_34
    8  A    between atoms: C_23  and  C_32
    9  A    between atoms: C_25  and  C_26
   10  A    between atoms: C_25  and  C_33
   11  A    between atoms: C_32  and  C_39
   12  A    between atoms: C_33  and  C_34
   13  A    between atoms: C_41  and  C_42
                            x       y       z     vdW  Elec       q    Type
                         _______ _______ _______ _____ _____    ______ ____

>  <TORSDO>
F 13

$$$$
=
 OpenBabel11052411393D

 43 45  0  0  1  0  0  0  0  0999 V2000
  162.0640  207.5720  153.6780 O   0  0  0  0  0  0  0  0  0  0  0  0
  162.0620  207.1570  151.3030 C   0  0  0  0  0  2  0  0  0  0  0  0
  160.3630  209.6360  156.3250 C   0  0  0  0  0  2  0  0  0  0  0  0
  160.9620  208.2510  154.2750 C   0  0  2  0  0  0  0  0  0  0  0  0
  161.6880  210.3030  152.9590 C   0  0  0  0  0  2  0  0  0  0  0  0
  161.4990  210.8220  151.5430 C   0  0  0  0  0  2  0  0  0  0  0  0
  159.4800  210.3080  154.0800 C   0  0  0  0  0  0  0  0  0  0  0  0
  159.9740  207.1760  149.9500 C   0  0  0  0  0  1  0  0  0  0  0  0
  161.6450  206.6630  152.6780 C   0  0  1  0  0  3  0  0  0  0  0  0
  160.9660  208.0320  150.7120 C   0  0  2  0  0  3  0  0  0  0  0  0
  159.7820  207.3080  154.5820 C   0  0  0  0  0  1  0  0  0  0  0  0
  161.5170  209.0520  149.8240 N   0  0  0  0  0  2  0  0  0  0  0  0
  160.5030  209.4340  153.3940 C   0  0  2  0  0  3  0  0  0  0  0  0
  162.3440  209.9880  150.5840 C   0  0  1  0  0  3  0  0  0  0  0  0
  161.4540  208.8410  155.5990 C   0  0  0  0  0  2  0  0  0  0  0  0
  159.4860  210.4840  155.4260 C   0  0  0  0  0  0  0  0  0  0  0  0
  158.9370  212.4310  156.6740 O   0  0  0  0  0  0  0  0  0  0  0  0
  158.5210  211.3870  156.1060 C   0  0  0  0  0  0  0  0  0  0  0  0
  157.0710  211.1270  156.1210 C   0  0  0  0  0  3  0  0  0  0  0  0
  156.1830  211.9950  156.5880 C   0  0  0  0  0  2  0  0  0  0  0  0
  157.8400  211.6720  152.5040 C   0  0  0  0  0  3  0  0  0  0  0  0
  158.5850  211.0480  153.2190 C   0  0  0  0  0  0  0  0  0  0  0  0
  162.3010  205.3140  152.9180 C   0  0  0  0  0  2  0  0  0  0  0  0
  162.4150  204.5380  151.6180 C   0  0  0  0  0  2  0  0  0  0  0  0
  160.5920  203.2790  152.4820 O   0  0  0  0  0  0  0  0  0  0  0  0
  161.2390  203.6370  151.4610 C   0  0  0  0  0  0  0  0  0  0  0  0
  160.9390  203.9580  149.1350 O   0  0  0  0  0  0  0  0  0  0  0  0
  160.3030  201.9510  149.9530 F   0  0  0  0  0  0  0  0  0  0  0  0
  160.8200  203.1920  150.1270 C   0  0  0  0  0  0  0  0  0  0  0  0
  163.0850  210.8950  149.6140 C   0  0  0  0  0  2  0  0  0  0  0  0
  162.9120  212.2970  147.5620 C   0  0  0  0  0  1  0  0  0  0  0  0
  162.1330  211.5030  148.5970 C   0  0  2  0  0  3  0  0  0  0  0  0
  161.1640  212.4210  149.3180 C   0  0  0  0  0  2  0  0  0  0  0  0
  160.8040  213.4960  148.4830 O   0  0  0  0  0  0  0  0  0  0  0  0
  159.6140  213.1840  147.7810 C   0  0  1  0  0  3  0  0  0  0  0  0
  157.6860  214.3660  147.0690 O   0  0  0  0  0  0  0  0  0  0  0  0
  158.4070  214.0030  148.2190 C   0  0  1  0  0  3  0  0  0  0  0  0
  159.7140  213.3800  146.2890 C   0  0  2  0  0  3  0  0  0  0  0  0
  157.5300  213.1760  149.1350 C   0  0  0  0  0  1  0  0  0  0  0  0
  158.6490  214.4510  146.0520 C   0  0  1  0  0  3  0  0  0  0  0  0
  157.9940  214.4220  144.6790 C   0  0  0  0  0  1  0  0  0  0  0  0
  159.4000  212.0470  145.6180 C   0  0  0  0  0  2  0  0  0  0  0  0
  159.9490  212.0190  144.3360 O   0  0  0  0  0  1  0  0  0  0  0  0
  1  4  1  0  0  0  0
  2  9  1  0  0  0  0
  4 11  1  1  0  0  0
  4 15  1  0  0  0  0
  6  5  1  0  0  0  0
  7 16  2  0  0  0  0
  9 23  1  1  0  0  0
  9  1  1  0  0  0  0
 10  8  1  6  0  0  0
 10  2  1  0  0  0  0
 12 14  1  0  0  0  0
 12 10  1  0  0  0  0
 13  5  1  1  0  0  0
 13  7  1  0  0  0  0
 13  4  1  0  0  0  0
 14 30  1  6  0  0  0
 14  6  1  0  0  0  0
 15  3  1  0  0  0  0
 16 18  1  0  0  0  0
 16  3  1  0  0  0  0
 18 19  1  0  0  0  0
 18 17  2  0  0  0  0
 19 20  2  0  0  0  0
 21 22  3  0  0  0  0
 22  7  1  0  0  0  0
 24 23  1  0  0  0  0
 26 24  1  0  0  0  0
 26 25  2  0  0  0  0
 27 29  2  0  0  0  0
 28 29  1  0  0  0  0
 29 26  1  0  0  0  0
 32 31  1  6  0  0  0
 32 33  1  0  0  0  0
 32 30  1  0  0  0  0
 34 33  1  0  0  0  0
 35 37  1  0  0  0  0
 35 34  1  1  0  0  0
 36 37  1  0  0  0  0
 37 39  1  1  0  0  0
 38 42  1  6  0  0  0
 38 35  1  0  0  0  0
 40 41  1  6  0  0  0
 40 38  1  0  0  0  0
 40 36  1  0  0  0  0
 43 42  1  0  0  0  0
M  END
>  <MODEL>
5

>  <REMARK>
 VINA RESULT:      -2.5      2.599      7.528
  Name = 
  13 active torsions:
  status: ('A' for Active; 'I' for Inactive)
    1  A    between atoms: C_2  and  C_23
    2  A    between atoms: C_2  and  O_28
    3  A    between atoms: C_3  and  C_42
    4  A    between atoms: C_5  and  O_28
    5  A    between atoms: C_6  and  C_18
    6  A    between atoms: C_13  and  C_21
    7  A    between atoms: C_19  and  C_34
    8  A    between atoms: C_23  and  C_32
    9  A    between atoms: C_25  and  C_26
   10  A    between atoms: C_25  and  C_33
   11  A    between atoms: C_32  and  C_39
   12  A    between atoms: C_33  and  C_34
   13  A    between atoms: C_41  and  C_42
                            x       y       z     vdW  Elec       q    Type
                         _______ _______ _______ _____ _____    ______ ____

>  <TORSDO>
F 13

$$$$
=
 OpenBabel11052411393D

 43 45  0  0  1  0  0  0  0  0999 V2000
  159.1160  212.2130  150.7980 O   0  0  0  0  0  0  0  0  0  0  0  0
  160.8650  211.4950  149.3020 C   0  0  0  0  0  2  0  0  0  0  0  0
  158.3010  212.5490  154.4560 C   0  0  0  0  0  2  0  0  0  0  0  0
  159.4170  212.4510  152.1710 C   0  0  2  0  0  0  0  0  0  0  0  0
  159.8590  209.9540  152.3660 C   0  0  0  0  0  2  0  0  0  0  0  0
  161.0190  209.0180  152.0670 C   0  0  0  0  0  2  0  0  0  0  0  0
  160.5380  211.4480  154.2210 C   0  0  0  0  0  0  0  0  0  0  0  0
  163.2770  211.8400  149.8100 C   0  0  0  0  0  1  0  0  0  0  0  0
  160.1470  212.6710  149.9430 C   0  0  1  0  0  3  0  0  0  0  0  0
  162.0310  211.0590  150.1780 C   0  0  2  0  0  3  0  0  0  0  0  0
  160.0080  213.8550  152.4120 C   0  0  0  0  0  1  0  0  0  0  0  0
  162.2930  209.6280  150.0440 N   0  0  0  0  0  2  0  0  0  0  0  0
  160.3580  211.3580  152.7240 C   0  0  2  0  0  3  0  0  0  0  0  0
  161.1600  208.8590  150.5560 C   0  0  1  0  0  3  0  0  0  0  0  0
  158.1040  212.3500  152.9490 C   0  0  0  0  0  2  0  0  0  0  0  0
  159.5430  211.8990  155.0290 C   0  0  0  0  0  0  0  0  0  0  0  0
  159.4460  210.9030  157.1850 O   0  0  0  0  0  0  0  0  0  0  0  0
  159.6880  211.9380  156.5070 C   0  0  0  0  0  0  0  0  0  0  0  0
  160.1360  213.1420  157.2270 C   0  0  0  0  0  3  0  0  0  0  0  0
  160.0680  214.3630  156.7110 C   0  0  0  0  0  2  0  0  0  0  0  0
  162.7950  210.4560  155.1960 C   0  0  0  0  0  3  0  0  0  0  0  0
  161.7670  210.9060  154.7560 C   0  0  0  0  0  0  0  0  0  0  0  0
  159.5450  213.5220  148.8390 C   0  0  0  0  0  2  0  0  0  0  0  0
  159.7350  212.8540  147.4890 C   0  0  0  0  0  2  0  0  0  0  0  0
  157.4530  212.2120  147.3010 O   0  0  0  0  0  0  0  0  0  0  0  0
  158.4340  212.7950  146.7660 C   0  0  0  0  0  0  0  0  0  0  0  0
  159.0260  213.0910  144.4930 O   0  0  0  0  0  0  0  0  0  0  0  0
  157.3530  214.3990  145.2640 F   0  0  0  0  0  0  0  0  0  0  0  0
  158.2870  213.4340  145.4530 C   0  0  0  0  0  0  0  0  0  0  0  0
  161.3540  207.3940  150.1990 C   0  0  0  0  0  2  0  0  0  0  0  0
  162.9710  206.2210  151.6880 C   0  0  0  0  0  1  0  0  0  0  0  0
  161.5050  206.5410  151.4490 C   0  0  2  0  0  3  0  0  0  0  0  0
  160.7270  205.2530  151.2620 C   0  0  0  0  0  2  0  0  0  0  0  0
  161.5470  204.2760  150.6650 O   0  0  0  0  0  0  0  0  0  0  0  0
  160.9080  203.7470  149.5170 C   0  0  1  0  0  3  0  0  0  0  0  0
  161.5880  202.9800  147.3790 O   0  0  0  0  0  0  0  0  0  0  0  0
  161.5900  204.1150  148.2060 C   0  0  1  0  0  3  0  0  0  0  0  0
  160.8100  202.2410  149.5100 C   0  0  2  0  0  3  0  0  0  0  0  0
  160.8340  205.2420  147.5330 C   0  0  0  0  0  1  0  0  0  0  0  0
  161.6220  201.8900  148.2620 C   0  0  1  0  0  3  0  0  0  0  0  0
  161.2070  200.6060  147.5600 C   0  0  0  0  0  1  0  0  0  0  0  0
  159.3360  201.8670  149.4060 C   0  0  0  0  0  2  0  0  0  0  0  0
  159.1050  200.6580  150.0610 O   0  0  0  0  0  1  0  0  0  0  0  0
  1  4  1  0  0  0  0
  2  9  1  0  0  0  0
  2 10  1  0  0  0  0
  3 16  1  0  0  0  0
  4 11  1  1  0  0  0
  4 13  1  0  0  0  0
  4 15  1  0  0  0  0
  6  5  1  0  0  0  0
  7 22  1  0  0  0  0
  7 16  2  0  0  0  0
  9 23  1  6  0  0  0
  9  1  1  0  0  0  0
 10  8  1  6  0  0  0
 12 10  1  0  0  0  0
 12 14  1  0  0  0  0
 13  5  1  1  0  0  0
 13  7  1  0  0  0  0
 14 30  1  1  0  0  0
 14  6  1  0  0  0  0
 15  3  1  0  0  0  0
 16 18  1  0  0  0  0
 18 17  2  0  0  0  0
 18 19  1  0  0  0  0
 20 19  2  0  0  0  0
 22 21  3  0  0  0  0
 24 23  1  0  0  0  0
 26 25  2  0  0  0  0
 26 24  1  0  0  0  0
 27 29  2  0  0  0  0
 28 29  1  0  0  0  0
 29 26  1  0  0  0  0
 30 32  1  0  0  0  0
 32 31  1  6  0  0  0
 33 32  1  0  0  0  0
 34 33  1  0  0  0  0
 35 34  1  1  0  0  0
 36 37  1  0  0  0  0
 36 40  1  0  0  0  0
 37 39  1  6  0  0  0
 37 35  1  0  0  0  0
 38 42  1  6  0  0  0
 38 35  1  0  0  0  0
 40 41  1  6  0  0  0
 40 38  1  0  0  0  0
 42 43  1  0  0  0  0
M  END
>  <MODEL>
6

>  <REMARK>
 VINA RESULT:      -2.1      1.567      2.413
  Name = 
  13 active torsions:
  status: ('A' for Active; 'I' for Inactive)
    1  A    between atoms: C_2  and  C_23
    2  A    between atoms: C_2  and  O_28
    3  A    between atoms: C_3  and  C_42
    4  A    between atoms: C_5  and  O_28
    5  A    between atoms: C_6  and  C_18
    6  A    between atoms: C_13  and  C_21
    7  A    between atoms: C_19  and  C_34
    8  A    between atoms: C_23  and  C_32
    9  A    between atoms: C_25  and  C_26
   10  A    between atoms: C_25  and  C_33
   11  A    between atoms: C_32  and  C_39
   12  A    between atoms: C_33  and  C_34
   13  A    between atoms: C_41  and  C_42
                            x       y       z     vdW  Elec       q    Type
                         _______ _______ _______ _____ _____    ______ ____

>  <TORSDO>
F 13

$$$$
=
 OpenBabel11052411393D

 43 45  0  0  1  0  0  0  0  0999 V2000
  159.5930  211.3920  151.3560 O   0  0  0  0  0  0  0  0  0  0  0  0
  161.6580  210.1970  151.0080 C   0  0  0  0  0  2  0  0  0  0  0  0
  157.5250  213.0070  154.0540 C   0  0  0  0  0  2  0  0  0  0  0  0
  159.3890  212.1060  152.5740 C   0  0  2  0  0  0  0  0  0  0  0  0
  159.3800  209.8460  153.7400 C   0  0  0  0  0  2  0  0  0  0  0  0
  160.4270  208.8720  154.2530 C   0  0  0  0  0  2  0  0  0  0  0  0
  159.5140  211.9080  155.1050 C   0  0  0  0  0  0  0  0  0  0  0  0
  163.7280  210.7150  152.2890 C   0  0  0  0  0  1  0  0  0  0  0  0
  160.9210  211.5200  150.8840 C   0  0  1  0  0  3  0  0  0  0  0  0
  162.3410  210.1090  152.3660 C   0  0  2  0  0  3  0  0  0  0  0  0
  160.0330  213.5070  152.5520 C   0  0  0  0  0  1  0  0  0  0  0  0
  162.4350  208.7270  152.8270 N   0  0  0  0  0  2  0  0  0  0  0  0
  159.8960  211.2880  153.7820 C   0  0  2  0  0  3  0  0  0  0  0  0
  161.0990  208.1840  153.0680 C   0  0  1  0  0  3  0  0  0  0  0  0
  157.8800  212.2820  152.7510 C   0  0  0  0  0  2  0  0  0  0  0  0
  158.3620  212.6110  155.2530 C   0  0  0  0  0  0  0  0  0  0  0  0
  158.6420  214.0790  157.1020 O   0  0  0  0  0  0  0  0  0  0  0  0
  157.9470  213.1760  156.5630 C   0  0  0  0  0  0  0  0  0  0  0  0
  156.7240  212.7420  157.2600 C   0  0  0  0  0  3  0  0  0  0  0  0
  156.0840  211.6170  156.9690 C   0  0  0  0  0  2  0  0  0  0  0  0
  161.0760  211.3480  157.1730 C   0  0  0  0  0  3  0  0  0  0  0  0
  160.3680  211.5990  156.2310 C   0  0  0  0  0  0  0  0  0  0  0  0
  160.8970  211.9170  149.4190 C   0  0  0  0  0  2  0  0  0  0  0  0
  162.1010  211.3440  148.6920 C   0  0  0  0  0  2  0  0  0  0  0  0
  163.8540  212.8620  148.1680 O   0  0  0  0  0  0  0  0  0  0  0  0
  162.7290  212.3960  147.8450 C   0  0  0  0  0  0  0  0  0  0  0  0
  162.5700  213.7780  145.9290 O   0  0  0  0  0  0  0  0  0  0  0  0
  160.8750  212.3190  146.2470 F   0  0  0  0  0  0  0  0  0  0  0  0
  162.0560  212.8660  146.6280 C   0  0  0  0  0  0  0  0  0  0  0  0
  161.2100  206.6890  153.3240 C   0  0  0  0  0  2  0  0  0  0  0  0
  160.5790  204.4260  152.4950 C   0  0  0  0  0  1  0  0  0  0  0  0
  160.7280  205.8920  152.1220 C   0  0  2  0  0  3  0  0  0  0  0  0
  161.7400  206.0310  151.0010 C   0  0  0  0  0  2  0  0  0  0  0  0
  161.9750  204.7780  150.4040 O   0  0  0  0  0  0  0  0  0  0  0  0
  161.3060  204.7040  149.1590 C   0  0  1  0  0  3  0  0  0  0  0  0
  161.5410  205.7130  147.0260 O   0  0  0  0  0  0  0  0  0  0  0  0
  161.3090  206.0120  148.3780 C   0  0  1  0  0  3  0  0  0  0  0  0
  161.8770  203.6730  148.2170 C   0  0  2  0  0  3  0  0  0  0  0  0
  159.9690  206.7020  148.5280 C   0  0  0  0  0  1  0  0  0  0  0  0
  162.3220  204.5470  147.0430 C   0  0  1  0  0  3  0  0  0  0  0  0
  162.3100  203.8630  145.6850 C   0  0  0  0  0  1  0  0  0  0  0  0
  160.7640  202.6940  147.8620 C   0  0  0  0  0  2  0  0  0  0  0  0
  160.1990  202.1740  149.0260 O   0  0  0  0  0  1  0  0  0  0  0  0
  1  4  1  0  0  0  0
  2 10  1  0  0  0  0
  3 16  1  0  0  0  0
  4 11  1  6  0  0  0
  4 15  1  0  0  0  0
  4 13  1  0  0  0  0
  5  6  1  0  0  0  0
  7 16  2  0  0  0  0
  7 22  1  0  0  0  0
  9 23  1  6  0  0  0
  9  2  1  0  0  0  0
  9  1  1  0  0  0  0
 10  8  1  6  0  0  0
 10 12  1  0  0  0  0
 12 14  1  0  0  0  0
 13  5  1  1  0  0  0
 13  7  1  0  0  0  0
 14 30  1  1  0  0  0
 14  6  1  0  0  0  0
 15  3  1  0  0  0  0
 16 18  1  0  0  0  0
 18 17  2  0  0  0  0
 18 19  1  0  0  0  0
 20 19  2  0  0  0  0
 22 21  3  0  0  0  0
 24 23  1  0  0  0  0
 26 25  2  0  0  0  0
 26 24  1  0  0  0  0
 27 29  2  0  0  0  0
 28 29  1  0  0  0  0
 29 26  1  0  0  0  0
 32 31  1  1  0  0  0
 32 30  1  0  0  0  0
 33 32  1  0  0  0  0
 34 33  1  0  0  0  0
 35 34  1  1  0  0  0
 36 40  1  0  0  0  0
 36 37  1  0  0  0  0
 37 39  1  6  0  0  0
 37 35  1  0  0  0  0
 38 42  1  6  0  0  0
 38 35  1  0  0  0  0
 40 41  1  6  0  0  0
 40 38  1  0  0  0  0
 42 43  1  0  0  0  0
M  END
>  <MODEL>
7

>  <REMARK>
 VINA RESULT:      -2.0      1.803      2.515
  Name = 
  13 active torsions:
  status: ('A' for Active; 'I' for Inactive)
    1  A    between atoms: C_2  and  C_23
    2  A    between atoms: C_2  and  O_28
    3  A    between atoms: C_3  and  C_42
    4  A    between atoms: C_5  and  O_28
    5  A    between atoms: C_6  and  C_18
    6  A    between atoms: C_13  and  C_21
    7  A    between atoms: C_19  and  C_34
    8  A    between atoms: C_23  and  C_32
    9  A    between atoms: C_25  and  C_26
   10  A    between atoms: C_25  and  C_33
   11  A    between atoms: C_32  and  C_39
   12  A    between atoms: C_33  and  C_34
   13  A    between atoms: C_41  and  C_42
                            x       y       z     vdW  Elec       q    Type
                         _______ _______ _______ _____ _____    ______ ____

>  <TORSDO>
F 13

$$$$
=
 OpenBabel11052411393D

 43 45  0  0  1  0  0  0  0  0999 V2000
  160.9030  205.9520  149.6600 O   0  0  0  0  0  0  0  0  0  0  0  0
  161.5510  204.7710  151.6590 C   0  0  0  0  0  2  0  0  0  0  0  0
  161.2060  209.3000  147.9700 C   0  0  0  0  0  2  0  0  0  0  0  0
  161.5590  207.1710  149.3180 C   0  0  2  0  0  0  0  0  0  0  0  0
  160.4840  208.1720  151.3950 C   0  0  0  0  0  2  0  0  0  0  0  0
  160.7850  208.1930  152.8850 C   0  0  0  0  0  2  0  0  0  0  0  0
  162.2690  209.4350  150.2330 C   0  0  0  0  0  0  0  0  0  0  0  0
  163.7490  205.1340  152.7680 C   0  0  0  0  0  1  0  0  0  0  0  0
  161.8060  204.9930  150.1780 C   0  0  1  0  0  3  0  0  0  0  0  0
  162.3890  205.7390  152.4820 C   0  0  2  0  0  3  0  0  0  0  0  0
  162.8930  206.9400  148.5820 C   0  0  0  0  0  1  0  0  0  0  0  0
  161.7300  206.0800  153.7390 N   0  0  0  0  0  2  0  0  0  0  0  0
  161.7700  208.0500  150.5710 C   0  0  2  0  0  3  0  0  0  0  0  0
  160.4950  206.8170  153.4770 C   0  0  1  0  0  3  0  0  0  0  0  0
  160.6280  207.9410  148.3810 C   0  0  0  0  0  2  0  0  0  0  0  0
  161.9170  210.0520  149.0750 C   0  0  0  0  0  0  0  0  0  0  0  0
  163.4480  211.6250  148.1620 O   0  0  0  0  0  0  0  0  0  0  0  0
  162.3540  211.4370  148.7580 C   0  0  0  0  0  0  0  0  0  0  0  0
  161.5390  212.6180  149.0880 C   0  0  0  0  0  3  0  0  0  0  0  0
  160.6940  213.1800  148.2330 C   0  0  0  0  0  2  0  0  0  0  0  0
  163.6510  210.6800  152.1220 C   0  0  0  0  0  3  0  0  0  0  0  0
  163.0250  210.1160  151.2600 C   0  0  0  0  0  0  0  0  0  0  0  0
  161.6070  203.6720  149.4560 C   0  0  0  0  0  2  0  0  0  0  0  0
  160.4860  202.8770  150.1010 C   0  0  0  0  0  2  0  0  0  0  0  0
  158.9030  201.3060  149.2780 O   0  0  0  0  0  0  0  0  0  0  0  0
  160.0750  201.7610  149.2030 C   0  0  0  0  0  0  0  0  0  0  0  0
  160.8200  201.3790  146.9890 O   0  0  0  0  0  0  0  0  0  0  0  0
  162.1140  200.5310  148.6350 F   0  0  0  0  0  0  0  0  0  0  0  0
  161.0190  201.2150  148.2210 C   0  0  0  0  0  0  0  0  0  0  0  0
  159.7170  206.9590  154.7760 C   0  0  0  0  0  2  0  0  0  0  0  0
  160.5360  207.3480  157.0970 C   0  0  0  0  0  1  0  0  0  0  0  0
  160.3890  207.9530  155.7100 C   0  0  2  0  0  3  0  0  0  0  0  0
  159.5380  209.2050  155.7900 C   0  0  0  0  0  2  0  0  0  0  0  0
  160.3480  210.3490  155.6540 O   0  0  0  0  0  0  0  0  0  0  0  0
  159.6000  211.4050  155.0800 C   0  0  1  0  0  3  0  0  0  0  0  0
  157.8540  211.5980  153.4860 O   0  0  0  0  0  0  0  0  0  0  0  0
  159.1760  211.1500  153.6390 C   0  0  1  0  0  3  0  0  0  0  0  0
  158.3260  211.7260  155.8220 C   0  0  2  0  0  3  0  0  0  0  0  0
  160.0880  211.9060  152.6950 C   0  0  0  0  0  1  0  0  0  0  0  0
  157.2710  211.4380  154.7530 C   0  0  1  0  0  3  0  0  0  0  0  0
  155.9910  212.2530  154.8690 C   0  0  0  0  0  1  0  0  0  0  0  0
  158.3850  213.1900  156.2440 C   0  0  0  0  0  2  0  0  0  0  0  0
  159.4430  213.8290  155.5990 O   0  0  0  0  0  1  0  0  0  0  0  0
  1  9  1  0  0  0  0
  2 10  1  0  0  0  0
  3 15  1  0  0  0  0
  3 16  1  0  0  0  0
  4 11  1  6  0  0  0
  4  1  1  0  0  0  0
  4 13  1  0  0  0  0
  5  6  1  0  0  0  0
  6 14  1  0  0  0  0
  7 13  1  0  0  0  0
  7 22  1  0  0  0  0
  9 23  1  6  0  0  0
  9  2  1  0  0  0  0
 10  8  1  1  0  0  0
 10 12  1  0  0  0  0
 13  5  1  6  0  0  0
 14 12  1  0  0  0  0
 14 30  1  1  0  0  0
 15  4  1  0  0  0  0
 16  7  2  0  0  0  0
 17 18  2  0  0  0  0
 18 16  1  0  0  0  0
 18 19  1  0  0  0  0
 20 19  2  0  0  0  0
 22 21  3  0  0  0  0
 23 24  1  0  0  0  0
 26 25  2  0  0  0  0
 26 24  1  0  0  0  0
 27 29  2  0  0  0  0
 29 28  1  0  0  0  0
 29 26  1  0  0  0  0
 30 32  1  0  0  0  0
 32 33  1  0  0  0  0
 32 31  1  1  0  0  0
 34 33  1  0  0  0  0
 35 34  1  1  0  0  0
 35 38  1  0  0  0  0
 36 37  1  0  0  0  0
 36 40  1  0  0  0  0
 37 39  1  6  0  0  0
 37 35  1  0  0  0  0
 38 42  1  6  0  0  0
 40 41  1  1  0  0  0
 40 38  1  0  0  0  0
 43 42  1  0  0  0  0
M  END
>  <MODEL>
8

>  <REMARK>
 VINA RESULT:      -1.5      2.913      8.826
  Name = 
  13 active torsions:
  status: ('A' for Active; 'I' for Inactive)
    1  A    between atoms: C_2  and  C_23
    2  A    between atoms: C_2  and  O_28
    3  A    between atoms: C_3  and  C_42
    4  A    between atoms: C_5  and  O_28
    5  A    between atoms: C_6  and  C_18
    6  A    between atoms: C_13  and  C_21
    7  A    between atoms: C_19  and  C_34
    8  A    between atoms: C_23  and  C_32
    9  A    between atoms: C_25  and  C_26
   10  A    between atoms: C_25  and  C_33
   11  A    between atoms: C_32  and  C_39
   12  A    between atoms: C_33  and  C_34
   13  A    between atoms: C_41  and  C_42
                            x       y       z     vdW  Elec       q    Type
                         _______ _______ _______ _____ _____    ______ ____

>  <TORSDO>
F 13

$$$$
=
 OpenBabel11052411393D

 43 45  0  0  1  0  0  0  0  0999 V2000
  160.8860  206.0010  149.6980 O   0  0  0  0  0  0  0  0  0  0  0  0
  161.5500  204.8180  151.6910 C   0  0  0  0  0  2  0  0  0  0  0  0
  161.1960  209.3440  147.9970 C   0  0  0  0  0  2  0  0  0  0  0  0
  161.5470  207.2140  149.3450 C   0  0  2  0  0  0  0  0  0  0  0  0
  160.5100  208.2280  151.4340 C   0  0  0  0  0  2  0  0  0  0  0  0
  160.8310  208.2490  152.9200 C   0  0  0  0  0  2  0  0  0  0  0  0
  162.2900  209.4730  150.2450 C   0  0  0  0  0  0  0  0  0  0  0  0
  163.7660  205.1640  152.7690 C   0  0  0  0  0  1  0  0  0  0  0  0
  161.7870  205.0360  150.2060 C   0  0  1  0  0  3  0  0  0  0  0  0
  162.4070  205.7800  152.5000 C   0  0  2  0  0  3  0  0  0  0  0  0
  162.8690  206.9690  148.5910 C   0  0  0  0  0  1  0  0  0  0  0  0
  161.7690  206.1290  153.7650 N   0  0  0  0  0  2  0  0  0  0  0  0
  161.7830  208.0930  150.5930 C   0  0  2  0  0  3  0  0  0  0  0  0
  160.5360  206.8770  153.5180 C   0  0  1  0  0  3  0  0  0  0  0  0
  160.6110  207.9910  148.4180 C   0  0  0  0  0  2  0  0  0  0  0  0
  161.9280  210.0910  149.0920 C   0  0  0  0  0  0  0  0  0  0  0  0
  163.4870  211.6510  148.2060 O   0  0  0  0  0  0  0  0  0  0  0  0
  162.3730  211.4710  148.7660 C   0  0  0  0  0  0  0  0  0  0  0  0
  161.5440  212.6560  149.0460 C   0  0  0  0  0  3  0  0  0  0  0  0
  160.6470  213.1320  148.1920 C   0  0  0  0  0  2  0  0  0  0  0  0
  163.7120  210.7190  152.1050 C   0  0  0  0  0  3  0  0  0  0  0  0
  163.0660  210.1490  151.2610 C   0  0  0  0  0  0  0  0  0  0  0  0
  161.5660  203.7150  149.4890 C   0  0  0  0  0  2  0  0  0  0  0  0
  160.5320  202.8780  150.2210 C   0  0  0  0  0  2  0  0  0  0  0  0
  158.9400  201.2390  149.5650 O   0  0  0  0  0  0  0  0  0  0  0  0
  160.0580  201.7740  149.3400 C   0  0  0  0  0  0  0  0  0  0  0  0
  161.5680  200.2850  148.2880 O   0  0  0  0  0  0  0  0  0  0  0  0
  160.8850  202.0490  147.0520 F   0  0  0  0  0  0  0  0  0  0  0  0
  160.8740  201.3320  148.2030 C   0  0  0  0  0  0  0  0  0  0  0  0
  159.7780  207.0280  154.8270 C   0  0  0  0  0  2  0  0  0  0  0  0
  160.4280  206.7400  157.2150 C   0  0  0  0  0  1  0  0  0  0  0  0
  160.6940  207.5180  155.9370 C   0  0  2  0  0  3  0  0  0  0  0  0
  160.4310  208.9930  156.1760 C   0  0  0  0  0  2  0  0  0  0  0  0
  159.1240  209.3230  155.7690 O   0  0  0  0  0  0  0  0  0  0  0  0
  159.0660  210.6880  155.3980 C   0  0  1  0  0  3  0  0  0  0  0  0
  160.4460  212.1990  154.2000 O   0  0  0  0  0  0  0  0  0  0  0  0
  160.4270  211.3700  155.3330 C   0  0  1  0  0  3  0  0  0  0  0  0
  158.4310  210.9300  154.0510 C   0  0  2  0  0  3  0  0  0  0  0  0
  160.6450  212.2000  156.5810 C   0  0  0  0  0  1  0  0  0  0  0  0
  159.5840  211.5770  153.2830 C   0  0  1  0  0  3  0  0  0  0  0  0
  159.1700  212.5420  152.1830 C   0  0  0  0  0  1  0  0  0  0  0  0
  157.2370  211.8560  154.2540 C   0  0  0  0  0  2  0  0  0  0  0  0
  156.1210  211.1160  154.6440 O   0  0  0  0  0  1  0  0  0  0  0  0
  1  9  1  0  0  0  0
  2 10  1  0  0  0  0
  3 15  1  0  0  0  0
  3 16  1  0  0  0  0
  4 11  1  6  0  0  0
  4  1  1  0  0  0  0
  4 13  1  0  0  0  0
  5  6  1  0  0  0  0
  6 14  1  0  0  0  0
  7 13  1  0  0  0  0
  7 22  1  0  0  0  0
  9 23  1  6  0  0  0
  9  2  1  0  0  0  0
 10  8  1  1  0  0  0
 10 12  1  0  0  0  0
 13  5  1  6  0  0  0
 14 12  1  0  0  0  0
 14 30  1  1  0  0  0
 15  4  1  0  0  0  0
 16  7  2  0  0  0  0
 17 18  2  0  0  0  0
 18 19  1  0  0  0  0
 18 16  1  0  0  0  0
 20 19  2  0  0  0  0
 22 21  3  0  0  0  0
 23 24  1  0  0  0  0
 26 25  2  0  0  0  0
 26 24  1  0  0  0  0
 28 29  1  0  0  0  0
 29 27  2  0  0  0  0
 29 26  1  0  0  0  0
 30 32  1  0  0  0  0
 32 33  1  0  0  0  0
 32 31  1  1  0  0  0
 34 33  1  0  0  0  0
 35 34  1  6  0  0  0
 36 37  1  0  0  0  0
 37 35  1  0  0  0  0
 37 39  1  1  0  0  0
 38 42  1  1  0  0  0
 38 35  1  0  0  0  0
 40 41  1  6  0  0  0
 40 38  1  0  0  0  0
 40 36  1  0  0  0  0
 42 43  1  0  0  0  0
M  END
>  <MODEL>
9

>  <REMARK>
 VINA RESULT:      -1.4      2.802      8.644
  Name = 
  13 active torsions:
  status: ('A' for Active; 'I' for Inactive)
    1  A    between atoms: C_2  and  C_23
    2  A    between atoms: C_2  and  O_28
    3  A    between atoms: C_3  and  C_42
    4  A    between atoms: C_5  and  O_28
    5  A    between atoms: C_6  and  C_18
    6  A    between atoms: C_13  and  C_21
    7  A    between atoms: C_19  and  C_34
    8  A    between atoms: C_23  and  C_32
    9  A    between atoms: C_25  and  C_26
   10  A    between atoms: C_25  and  C_33
   11  A    between atoms: C_32  and  C_39
   12  A    between atoms: C_33  and  C_34
   13  A    between atoms: C_41  and  C_42
                            x       y       z     vdW  Elec       q    Type
                         _______ _______ _______ _____ _____    ______ ____

>  <TORSDO>
F 13

$$$$
