=
 OpenBabel11052409293D

 35 39  0  0  1  0  0  0  0  0999 V2000
  160.7800  211.6450  150.9490 C   0  0  0  0  0  0  0  0  0  0  0  0
  161.9260  209.2310  150.1610 C   0  0  0  0  0  0  0  0  0  0  0  0
  160.0580  212.9400  151.2080 C   0  0  0  0  0  2  0  0  0  0  0  0
  159.3600  213.7910  147.6530 N   0  0  0  0  0  0  0  0  0  0  0  0
  161.1780  209.2800  151.3660 C   0  0  0  0  0  0  0  0  0  0  0  0
  161.8010  213.0080  148.7680 S   0  0  0  0  0  0  0  0  0  0  0  0
  158.1320  214.1860  146.9050 C   0  0  0  0  0  2  0  0  0  0  0  0
  160.0550  213.4500  148.8460 C   0  0  0  0  0  0  0  0  0  0  0  0
  159.2950  214.0290  146.1820 C   0  0  0  0  0  2  0  0  0  0  0  0
  162.0830  210.3570  149.4150 N   0  0  0  0  0  0  0  0  0  0  0  0
  159.4130  213.3950  149.9760 N   0  0  0  0  0  0  0  0  0  0  0  0
  160.6060  210.5100  151.7570 C   0  0  0  0  0  0  0  0  0  0  0  0
  161.5540  211.5480  149.7870 C   0  0  0  0  0  0  0  0  0  0  0  0
  162.5050  207.9680  149.6200 C   0  0  0  0  0  2  0  0  0  0  0  0
  162.2130  207.8600  148.2610 O   0  0  0  0  0  1  0  0  0  0  0  0
  160.9590  208.1300  152.2050 N   0  0  0  0  0  2  0  0  0  0  0  0
  161.9630  207.1720  152.6370 C   0  0  0  0  0  2  0  0  0  0  0  0
  160.5820  203.6770  152.5740 C   0  0  0  0  0  1  0  0  0  0  0  0
  161.2660  204.9280  152.1470 C   0  0  0  0  0  0  0  0  0  0  0  0
  161.8650  204.9880  150.7750 C   0  0  0  0  0  1  0  0  0  0  0  0
  161.3230  205.9230  152.9640 N   0  0  0  0  0  0  0  0  0  0  0  0
  159.8030  210.5930  153.0310 C   0  0  0  0  0  2  0  0  0  0  0  0
  160.4280  211.5020  154.1040 C   0  0  2  0  0  3  0  0  0  0  0  0
  160.2060  209.3850  155.4780 C   0  0  0  0  0  2  0  0  0  0  0  0
  160.9490  210.7240  155.3310 C   0  0  1  0  0  3  0  0  0  0  0  0
  162.7580  210.1620  156.5410 C   0  0  0  0  0  2  0  0  0  0  0  0
  160.1460  207.0150  156.7970 Cl  0  0  0  0  0  0  0  0  0  0  0  0
  162.1510  208.8330  157.0200 C   0  0  0  0  0  2  0  0  0  0  0  0
  161.1200  208.2880  156.0290 C   0  0  2  0  0  3  0  0  0  0  0  0
  162.3350  210.4940  155.2390 O   0  0  0  0  0  0  0  0  0  0  0  0
  157.4470  212.8580  155.5280 C   0  0  0  0  0  2  0  0  0  0  0  0
  158.4930  213.6300  156.2860 C   0  0  0  0  0  2  0  0  0  0  0  0
  158.1410  212.3650  154.2750 C   0  0  0  0  0  2  0  0  0  0  0  0
  159.5700  212.6670  154.3910 N   0  0  0  0  0  0  0  0  0  0  0  0
  159.8040  213.1030  155.7590 C   0  0  0  0  0  2  0  0  0  0  0  0
  1  3  1  0  0  0  0
  1 12  1  0  0  0  0
  2  5  1  0  0  0  0
  4  8  1  0  0  0  0
  5 12  2  0  0  0  0
  5 16  1  0  0  0  0
  6  8  1  0  0  0  0
  6 13  1  0  0  0  0
  7  4  1  0  0  0  0
  8 11  2  0  0  0  0
  9  7  1  0  0  0  0
  9  4  1  0  0  0  0
 10 13  1  0  0  0  0
 10  2  2  0  0  0  0
 11  3  1  0  0  0  0
 12 22  1  0  0  0  0
 13  1  2  0  0  0  0
 14  2  1  0  0  0  0
 15 14  1  0  0  0  0
 16 17  1  0  0  0  0
 17 21  1  0  0  0  0
 19 18  1  0  0  0  0
 19 21  2  0  0  0  0
 20 19  1  0  0  0  0
 23 22  1  6  0  0  0
 23 34  1  0  0  0  0
 24 29  1  0  0  0  0
 25 23  1  6  0  0  0
 25 24  1  0  0  0  0
 26 28  1  0  0  0  0
 29 27  1  1  0  0  0
 29 28  1  0  0  0  0
 30 25  1  0  0  0  0
 30 26  1  0  0  0  0
 31 32  1  0  0  0  0
 33 34  1  0  0  0  0
 33 31  1  0  0  0  0
 34 35  1  0  0  0  0
 35 32  1  0  0  0  0
M  END
>  <MODEL>
1

>  <REMARK>
 VINA RESULT:      -5.2      0.000      0.000
  Name = 
  8 active torsions:
  status: ('A' for Active; 'I' for Inactive)
    1  A    between atoms: CA_4  and  C_10
    2  A    between atoms: C_5  and  C_18
    3  A    between atoms: C_8  and  N_25
    4  A    between atoms: C_18  and  N_27
    5  A    between atoms: C_18  and  C_28
    6  A    between atoms: N_22  and  C_35
    7  A    between atoms: N_25  and  C_35
    8  A    between atoms: C_28  and  C_32
                            x       y       z     vdW  Elec       q    Type
                         _______ _______ _______ _____ _____    ______ ____

>  <TORSDO>
F 8

$$$$
=
 OpenBabel11052409293D

 35 39  0  0  1  0  0  0  0  0999 V2000
  161.5640  208.8570  152.7230 C   0  0  0  0  0  0  0  0  0  0  0  0
  160.3050  207.6940  154.9190 C   0  0  0  0  0  0  0  0  0  0  0  0
  162.1200  209.3820  151.4260 C   0  0  0  0  0  2  0  0  0  0  0  0
  161.1330  206.4880  149.3050 N   0  0  0  0  0  0  0  0  0  0  0  0
  160.2660  209.1050  154.7670 C   0  0  0  0  0  0  0  0  0  0  0  0
  162.4600  206.4210  151.7640 S   0  0  0  0  0  0  0  0  0  0  0  0
  160.4050  206.3550  148.0100 C   0  0  0  0  0  2  0  0  0  0  0  0
  161.7120  207.2560  150.3520 C   0  0  0  0  0  0  0  0  0  0  0  0
  160.7830  205.1940  148.6500 C   0  0  0  0  0  2  0  0  0  0  0  0
  160.9610  206.9330  154.0030 N   0  0  0  0  0  0  0  0  0  0  0  0
  161.6400  208.5540  150.3190 N   0  0  0  0  0  0  0  0  0  0  0  0
  160.9120  209.6830  153.6530 C   0  0  0  0  0  0  0  0  0  0  0  0
  161.6000  207.4750  152.9380 C   0  0  0  0  0  0  0  0  0  0  0  0
  159.5920  206.9800  156.0160 C   0  0  0  0  0  2  0  0  0  0  0  0
  160.4080  206.9170  157.1450 O   0  0  0  0  0  1  0  0  0  0  0  0
  159.5850  209.9780  155.6880 N   0  0  0  0  0  2  0  0  0  0  0  0
  160.0210  210.3300  157.0290 C   0  0  0  0  0  2  0  0  0  0  0  0
  163.5620  211.5880  156.9540 C   0  0  0  0  0  1  0  0  0  0  0  0
  162.3970  210.6650  157.0490 C   0  0  0  0  0  0  0  0  0  0  0  0
  162.6520  209.2050  157.2610 C   0  0  0  0  0  1  0  0  0  0  0  0
  161.2060  211.1460  156.9490 N   0  0  0  0  0  0  0  0  0  0  0  0
  160.8850  211.1790  153.4620 C   0  0  0  0  0  2  0  0  0  0  0  0
  159.5130  211.7270  153.0330 C   0  0  2  0  0  3  0  0  0  0  0  0
  160.7620  212.4760  150.9600 C   0  0  0  0  0  2  0  0  0  0  0  0
  159.6060  212.7950  151.9230 C   0  0  1  0  0  3  0  0  0  0  0  0
  158.4530  214.1250  150.5240 C   0  0  0  0  0  2  0  0  0  0  0  0
  161.9350  213.1360  148.6030 Cl  0  0  0  0  0  0  0  0  0  0  0  0
  159.5660  214.1470  149.4630 C   0  0  0  0  0  2  0  0  0  0  0  0
  160.4340  212.8890  149.5220 C   0  0  2  0  0  3  0  0  0  0  0  0
  158.3990  212.8920  151.2040 O   0  0  0  0  0  0  0  0  0  0  0  0
  157.3680  214.0390  154.7080 C   0  0  0  0  0  2  0  0  0  0  0  0
  156.4610  212.8420  154.6070 C   0  0  0  0  0  2  0  0  0  0  0  0
  158.7730  213.4920  154.5630 C   0  0  0  0  0  2  0  0  0  0  0  0
  158.6810  212.0750  154.2000 N   0  0  0  0  0  0  0  0  0  0  0  0
  157.2860  211.8060  153.8850 C   0  0  0  0  0  2  0  0  0  0  0  0
  1 13  2  0  0  0  0
  1 12  1  0  0  0  0
  2 14  1  0  0  0  0
  3  1  1  0  0  0  0
  4  8  1  0  0  0  0
  5  2  1  0  0  0  0
  5 16  1  0  0  0  0
  6 13  1  0  0  0  0
  7  9  1  0  0  0  0
  7  4  1  0  0  0  0
  8  6  1  0  0  0  0
  9  4  1  0  0  0  0
 10  2  2  0  0  0  0
 11  8  2  0  0  0  0
 11  3  1  0  0  0  0
 12  5  2  0  0  0  0
 13 10  1  0  0  0  0
 14 15  1  0  0  0  0
 16 17  1  0  0  0  0
 18 19  1  0  0  0  0
 19 20  1  0  0  0  0
 21 17  1  0  0  0  0
 21 19  2  0  0  0  0
 22 12  1  0  0  0  0
 23 22  1  1  0  0  0
 23 34  1  0  0  0  0
 24 25  1  0  0  0  0
 25 23  1  1  0  0  0
 26 30  1  0  0  0  0
 28 29  1  0  0  0  0
 28 26  1  0  0  0  0
 29 27  1  6  0  0  0
 29 24  1  0  0  0  0
 30 25  1  0  0  0  0
 32 31  1  0  0  0  0
 33 31  1  0  0  0  0
 34 33  1  0  0  0  0
 35 34  1  0  0  0  0
 35 32  1  0  0  0  0
M  END
>  <MODEL>
2

>  <REMARK>
 VINA RESULT:      -5.1      3.295      6.223
  Name = 
  8 active torsions:
  status: ('A' for Active; 'I' for Inactive)
    1  A    between atoms: CA_4  and  C_10
    2  A    between atoms: C_5  and  C_18
    3  A    between atoms: C_8  and  N_25
    4  A    between atoms: C_18  and  N_27
    5  A    between atoms: C_18  and  C_28
    6  A    between atoms: N_22  and  C_35
    7  A    between atoms: N_25  and  C_35
    8  A    between atoms: C_28  and  C_32
                            x       y       z     vdW  Elec       q    Type
                         _______ _______ _______ _____ _____    ______ ____

>  <TORSDO>
F 8

$$$$
=
 OpenBabel11052409293D

 35 39  0  0  1  0  0  0  0  0999 V2000
  161.1340  211.4470  151.1500 C   0  0  0  0  0  0  0  0  0  0  0  0
  161.9780  209.2790  149.6180 C   0  0  0  0  0  0  0  0  0  0  0  0
  160.5060  212.6010  151.8860 C   0  0  0  0  0  2  0  0  0  0  0  0
  157.9890  213.4790  149.2890 N   0  0  0  0  0  0  0  0  0  0  0  0
  161.9560  209.1590  151.0330 C   0  0  0  0  0  0  0  0  0  0  0  0
  160.7260  213.0440  148.9270 S   0  0  0  0  0  0  0  0  0  0  0  0
  156.5150  213.7060  149.3110 C   0  0  0  0  0  2  0  0  0  0  0  0
  159.2320  213.2020  149.9220 C   0  0  0  0  0  0  0  0  0  0  0  0
  157.1500  213.7650  148.0890 C   0  0  0  0  0  2  0  0  0  0  0  0
  161.6000  210.4460  149.0320 N   0  0  0  0  0  0  0  0  0  0  0  0
  159.2720  212.9990  151.2070 N   0  0  0  0  0  0  0  0  0  0  0  0
  161.5300  210.2660  151.7980 C   0  0  0  0  0  0  0  0  0  0  0  0
  161.2060  211.5220  149.7550 C   0  0  0  0  0  0  0  0  0  0  0  0
  162.3360  208.1460  148.7170 C   0  0  0  0  0  2  0  0  0  0  0  0
  161.2060  207.7260  148.0170 O   0  0  0  0  0  1  0  0  0  0  0  0
  162.3320  207.9550  151.7270 N   0  0  0  0  0  2  0  0  0  0  0  0
  161.4800  206.8070  151.9920 C   0  0  0  0  0  2  0  0  0  0  0  0
  160.9960  204.0760  149.4550 C   0  0  0  0  0  1  0  0  0  0  0  0
  161.1740  204.7700  150.7600 C   0  0  0  0  0  0  0  0  0  0  0  0
  161.1990  203.9500  152.0130 C   0  0  0  0  0  1  0  0  0  0  0  0
  161.3030  206.0520  150.7770 N   0  0  0  0  0  0  0  0  0  0  0  0
  161.4930  210.1680  153.3020 C   0  0  0  0  0  2  0  0  0  0  0  0
  160.2030  209.5340  153.8530 C   0  0  2  0  0  3  0  0  0  0  0  0
  160.1540  211.6510  155.2430 C   0  0  0  0  0  2  0  0  0  0  0  0
  159.3050  210.5380  154.6050 C   0  0  1  0  0  3  0  0  0  0  0  0
  157.3590  211.6630  154.5880 C   0  0  0  0  0  2  0  0  0  0  0  0
  160.0800  214.0480  156.5140 Cl  0  0  0  0  0  0  0  0  0  0  0  0
  157.9110  212.8350  155.4180 C   0  0  0  0  0  2  0  0  0  0  0  0
  159.4220  212.9950  155.2410 C   0  0  2  0  0  3  0  0  0  0  0  0
  158.3420  211.1050  153.7490 O   0  0  0  0  0  0  0  0  0  0  0  0
  161.2630  207.7970  156.7880 C   0  0  0  0  0  2  0  0  0  0  0  0
  159.8830  207.2240  156.6090 C   0  0  0  0  0  2  0  0  0  0  0  0
  161.6520  208.3400  155.4280 C   0  0  0  0  0  2  0  0  0  0  0  0
  160.4810  208.2640  154.5500 N   0  0  0  0  0  0  0  0  0  0  0  0
  159.3410  207.9230  155.3880 C   0  0  0  0  0  2  0  0  0  0  0  0
  1 12  1  0  0  0  0
  1  3  1  0  0  0  0
  2  5  1  0  0  0  0
  4  7  1  0  0  0  0
  4  8  1  0  0  0  0
  5 16  1  0  0  0  0
  5 12  2  0  0  0  0
  6 13  1  0  0  0  0
  6  8  1  0  0  0  0
  8 11  2  0  0  0  0
  9  4  1  0  0  0  0
  9  7  1  0  0  0  0
 10  2  2  0  0  0  0
 10 13  1  0  0  0  0
 11  3  1  0  0  0  0
 12 22  1  0  0  0  0
 13  1  2  0  0  0  0
 14  2  1  0  0  0  0
 15 14  1  0  0  0  0
 16 17  1  0  0  0  0
 18 19  1  0  0  0  0
 19 21  2  0  0  0  0
 19 20  1  0  0  0  0
 21 17  1  0  0  0  0
 23 22  1  1  0  0  0
 23 34  1  0  0  0  0
 25 23  1  6  0  0  0
 25 24  1  0  0  0  0
 26 28  1  0  0  0  0
 29 24  1  0  0  0  0
 29 28  1  0  0  0  0
 29 27  1  1  0  0  0
 30 26  1  0  0  0  0
 30 25  1  0  0  0  0
 32 31  1  0  0  0  0
 33 31  1  0  0  0  0
 34 35  1  0  0  0  0
 34 33  1  0  0  0  0
 35 32  1  0  0  0  0
M  END
>  <MODEL>
3

>  <REMARK>
 VINA RESULT:      -4.9      1.953      3.371
  Name = 
  8 active torsions:
  status: ('A' for Active; 'I' for Inactive)
    1  A    between atoms: CA_4  and  C_10
    2  A    between atoms: C_5  and  C_18
    3  A    between atoms: C_8  and  N_25
    4  A    between atoms: C_18  and  N_27
    5  A    between atoms: C_18  and  C_28
    6  A    between atoms: N_22  and  C_35
    7  A    between atoms: N_25  and  C_35
    8  A    between atoms: C_28  and  C_32
                            x       y       z     vdW  Elec       q    Type
                         _______ _______ _______ _____ _____    ______ ____

>  <TORSDO>
F 8

$$$$
=
 OpenBabel11052409293D

 35 39  0  0  1  0  0  0  0  0999 V2000
  158.8310  212.8260  154.2820 C   0  0  0  0  0  0  0  0  0  0  0  0
  157.9740  213.8440  151.8340 C   0  0  0  0  0  0  0  0  0  0  0  0
  159.1200  212.1860  155.6130 C   0  0  0  0  0  2  0  0  0  0  0  0
  155.5860  211.8350  156.7250 N   0  0  0  0  0  0  0  0  0  0  0  0
  159.1220  213.0090  151.8720 C   0  0  0  0  0  0  0  0  0  0  0  0
  156.8240  214.1150  155.6840 S   0  0  0  0  0  0  0  0  0  0  0  0
  154.7770  210.7030  157.2610 C   0  0  0  0  0  2  0  0  0  0  0  0
  156.8020  212.4070  156.2600 C   0  0  0  0  0  0  0  0  0  0  0  0
  154.1320  211.9040  157.0540 C   0  0  0  0  0  2  0  0  0  0  0  0
  157.3170  214.1430  152.9860 N   0  0  0  0  0  0  0  0  0  0  0  0
  157.8760  211.6760  156.1900 N   0  0  0  0  0  0  0  0  0  0  0  0
  159.5490  212.5030  153.1190 C   0  0  0  0  0  0  0  0  0  0  0  0
  157.7250  213.6790  154.1920 C   0  0  0  0  0  0  0  0  0  0  0  0
  157.3970  214.3660  150.5630 C   0  0  0  0  0  2  0  0  0  0  0  0
  156.1790  213.7370  150.3050 O   0  0  0  0  0  1  0  0  0  0  0  0
  159.8660  212.6390  150.6960 N   0  0  0  0  0  2  0  0  0  0  0  0
  160.6190  213.5330  149.8320 C   0  0  0  0  0  2  0  0  0  0  0  0
  160.5840  212.5770  146.1980 C   0  0  0  0  0  1  0  0  0  0  0  0
  161.0560  212.7840  147.5940 C   0  0  0  0  0  0  0  0  0  0  0  0
  162.4570  212.3890  147.9460 C   0  0  0  0  0  1  0  0  0  0  0  0
  160.2500  213.2960  148.4590 N   0  0  0  0  0  0  0  0  0  0  0  0
  160.7630  211.6120  153.1910 C   0  0  0  0  0  2  0  0  0  0  0  0
  160.4330  210.1290  153.4370 C   0  0  2  0  0  3  0  0  0  0  0  0
  162.1930  210.5470  155.2100 C   0  0  0  0  0  2  0  0  0  0  0  0
  161.1920  209.5280  154.6390 C   0  0  1  0  0  3  0  0  0  0  0  0
  161.0410  208.2430  156.4770 C   0  0  0  0  0  2  0  0  0  0  0  0
  163.8910  211.0830  157.2590 Cl  0  0  0  0  0  0  0  0  0  0  0  0
  162.1820  208.9720  157.2060 C   0  0  0  0  0  2  0  0  0  0  0  0
  162.3290  210.4190  156.7300 C   0  0  2  0  0  3  0  0  0  0  0  0
  160.3050  209.1130  155.6490 O   0  0  0  0  0  0  0  0  0  0  0  0
  162.3330  208.5960  150.8310 C   0  0  0  0  0  2  0  0  0  0  0  0
  161.5870  207.4040  151.3680 C   0  0  0  0  0  2  0  0  0  0  0  0
  161.5310  209.8040  151.2710 C   0  0  0  0  0  2  0  0  0  0  0  0
  160.4790  209.3500  152.1860 N   0  0  0  0  0  0  0  0  0  0  0  0
  160.7610  207.9580  152.5030 C   0  0  0  0  0  2  0  0  0  0  0  0
  1  3  1  0  0  0  0
  2  5  2  0  0  0  0
  2 10  1  0  0  0  0
  3 11  1  0  0  0  0
  4  9  1  0  0  0  0
  4  7  1  0  0  0  0
  5 12  1  0  0  0  0
  6  8  1  0  0  0  0
  8  4  1  0  0  0  0
  9  7  1  0  0  0  0
 10 13  2  0  0  0  0
 11  8  2  0  0  0  0
 12 22  1  0  0  0  0
 12  1  2  0  0  0  0
 13  1  1  0  0  0  0
 13  6  1  0  0  0  0
 14  2  1  0  0  0  0
 15 14  1  0  0  0  0
 16  5  1  0  0  0  0
 17 16  1  0  0  0  0
 18 19  1  0  0  0  0
 19 20  1  0  0  0  0
 19 21  2  0  0  0  0
 21 17  1  0  0  0  0
 23 22  1  6  0  0  0
 24 29  1  0  0  0  0
 25 23  1  6  0  0  0
 25 24  1  0  0  0  0
 25 30  1  0  0  0  0
 26 28  1  0  0  0  0
 29 28  1  0  0  0  0
 29 27  1  6  0  0  0
 30 26  1  0  0  0  0
 31 33  1  0  0  0  0
 31 32  1  0  0  0  0
 32 35  1  0  0  0  0
 33 34  1  0  0  0  0
 34 35  1  0  0  0  0
 34 23  1  0  0  0  0
M  END
>  <MODEL>
4

>  <REMARK>
 VINA RESULT:      -4.9      2.946      6.748
  Name = 
  8 active torsions:
  status: ('A' for Active; 'I' for Inactive)
    1  A    between atoms: CA_4  and  C_10
    2  A    between atoms: C_5  and  C_18
    3  A    between atoms: C_8  and  N_25
    4  A    between atoms: C_18  and  N_27
    5  A    between atoms: C_18  and  C_28
    6  A    between atoms: N_22  and  C_35
    7  A    between atoms: N_25  and  C_35
    8  A    between atoms: C_28  and  C_32
                            x       y       z     vdW  Elec       q    Type
                         _______ _______ _______ _____ _____    ______ ____

>  <TORSDO>
F 8

$$$$
=
 OpenBabel11052409293D

 35 39  0  0  1  0  0  0  0  0999 V2000
  161.6020  211.2740  150.0530 C   0  0  0  0  0  0  0  0  0  0  0  0
  162.0270  208.6840  149.1200 C   0  0  0  0  0  0  0  0  0  0  0  0
  161.2060  212.6710  150.4520 C   0  0  0  0  0  2  0  0  0  0  0  0
  159.1200  213.4240  147.4630 N   0  0  0  0  0  0  0  0  0  0  0  0
  161.8900  208.9020  150.5160 C   0  0  0  0  0  0  0  0  0  0  0  0
  161.7050  212.3610  147.5100 S   0  0  0  0  0  0  0  0  0  0  0  0
  157.7370  213.9490  147.2720 C   0  0  0  0  0  2  0  0  0  0  0  0
  160.2260  213.0510  148.2760 C   0  0  0  0  0  0  0  0  0  0  0  0
  158.4440  213.5910  146.1440 C   0  0  0  0  0  2  0  0  0  0  0  0
  161.9600  209.7350  148.2610 N   0  0  0  0  0  0  0  0  0  0  0  0
  160.1400  213.1470  149.5700 N   0  0  0  0  0  0  0  0  0  0  0  0
  161.6800  210.2200  150.9770 C   0  0  0  0  0  0  0  0  0  0  0  0
  161.7750  211.0070  148.6900 C   0  0  0  0  0  0  0  0  0  0  0  0
  162.1750  207.3240  148.5260 C   0  0  0  0  0  2  0  0  0  0  0  0
  161.2060  207.1330  147.5410 O   0  0  0  0  0  1  0  0  0  0  0  0
  161.9400  207.8410  151.4880 N   0  0  0  0  0  2  0  0  0  0  0  0
  162.7060  206.6090  151.3850 C   0  0  0  0  0  2  0  0  0  0  0  0
  160.6950  203.5960  152.3860 C   0  0  0  0  0  1  0  0  0  0  0  0
  161.3550  204.6320  151.5450 C   0  0  0  0  0  0  0  0  0  0  0  0
  161.2060  204.5530  150.0570 C   0  0  0  0  0  1  0  0  0  0  0  0
  162.0340  205.5660  152.1180 N   0  0  0  0  0  0  0  0  0  0  0  0
  161.5270  210.4830  152.4540 C   0  0  0  0  0  2  0  0  0  0  0  0
  160.1230  210.1730  153.0000 C   0  0  2  0  0  3  0  0  0  0  0  0
  157.8740  211.0980  153.7070 C   0  0  0  0  0  2  0  0  0  0  0  0
  159.1500  211.3660  152.8910 C   0  0  1  0  0  3  0  0  0  0  0  0
  158.9570  213.6040  152.8170 C   0  0  0  0  0  2  0  0  0  0  0  0
  155.5830  212.1930  154.6670 Cl  0  0  0  0  0  0  0  0  0  0  0  0
  157.5490  213.6060  153.4360 C   0  0  0  0  0  2  0  0  0  0  0  0
  157.3170  212.3830  154.3270 C   0  0  2  0  0  3  0  0  0  0  0  0
  159.7540  212.5600  153.3260 O   0  0  0  0  0  0  0  0  0  0  0  0
  161.5800  207.7120  155.1390 C   0  0  0  0  0  2  0  0  0  0  0  0
  161.8600  208.9640  155.9250 C   0  0  0  0  0  2  0  0  0  0  0  0
  160.4340  208.0670  154.2130 C   0  0  0  0  0  2  0  0  0  0  0  0
  160.1890  209.5080  154.3160 N   0  0  0  0  0  0  0  0  0  0  0  0
  161.2910  210.0750  155.0780 C   0  0  0  0  0  2  0  0  0  0  0  0
  1  3  1  0  0  0  0
  1 12  1  0  0  0  0
  2  5  1  0  0  0  0
  4  8  1  0  0  0  0
  5 12  2  0  0  0  0
  5 16  1  0  0  0  0
  6  8  1  0  0  0  0
  6 13  1  0  0  0  0
  7  4  1  0  0  0  0
  8 11  2  0  0  0  0
  9  7  1  0  0  0  0
  9  4  1  0  0  0  0
 10 13  1  0  0  0  0
 10  2  2  0  0  0  0
 11  3  1  0  0  0  0
 12 22  1  0  0  0  0
 13  1  2  0  0  0  0
 14  2  1  0  0  0  0
 15 14  1  0  0  0  0
 17 16  1  0  0  0  0
 17 21  1  0  0  0  0
 19 21  2  0  0  0  0
 19 18  1  0  0  0  0
 20 19  1  0  0  0  0
 23 22  1  1  0  0  0
 23 34  1  0  0  0  0
 24 29  1  0  0  0  0
 25 23  1  1  0  0  0
 25 30  1  0  0  0  0
 25 24  1  0  0  0  0
 26 30  1  0  0  0  0
 26 28  1  0  0  0  0
 28 29  1  0  0  0  0
 29 27  1  6  0  0  0
 31 32  1  0  0  0  0
 33 34  1  0  0  0  0
 33 31  1  0  0  0  0
 34 35  1  0  0  0  0
 35 32  1  0  0  0  0
M  END
>  <MODEL>
5

>  <REMARK>
 VINA RESULT:      -4.9      1.917      3.275
  Name = 
  8 active torsions:
  status: ('A' for Active; 'I' for Inactive)
    1  A    between atoms: CA_4  and  C_10
    2  A    between atoms: C_5  and  C_18
    3  A    between atoms: C_8  and  N_25
    4  A    between atoms: C_18  and  N_27
    5  A    between atoms: C_18  and  C_28
    6  A    between atoms: N_22  and  C_35
    7  A    between atoms: N_25  and  C_35
    8  A    between atoms: C_28  and  C_32
                            x       y       z     vdW  Elec       q    Type
                         _______ _______ _______ _____ _____    ______ ____

>  <TORSDO>
F 8

$$$$
=
 OpenBabel11052409293D

 35 39  0  0  1  0  0  0  0  0999 V2000
  160.6320  212.0780  152.0010 C   0  0  0  0  0  0  0  0  0  0  0  0
  161.0410  211.9450  149.2480 C   0  0  0  0  0  0  0  0  0  0  0  0
  160.2200  212.1370  153.4480 C   0  0  0  0  0  2  0  0  0  0  0  0
  156.8110  213.5210  152.8930 N   0  0  0  0  0  0  0  0  0  0  0  0
  161.5860  210.9300  150.0780 C   0  0  0  0  0  0  0  0  0  0  0  0
  159.2200  214.4510  151.8220 S   0  0  0  0  0  0  0  0  0  0  0  0
  155.4470  213.1290  153.3530 C   0  0  0  0  0  2  0  0  0  0  0  0
  158.2240  213.3670  152.8640 C   0  0  0  0  0  0  0  0  0  0  0  0
  155.5450  214.1980  152.4870 C   0  0  0  0  0  2  0  0  0  0  0  0
  160.3400  212.9700  149.8040 N   0  0  0  0  0  0  0  0  0  0  0  0
  158.7850  212.4050  153.5360 N   0  0  0  0  0  0  0  0  0  0  0  0
  161.3760  211.0110  151.4710 C   0  0  0  0  0  0  0  0  0  0  0  0
  160.1460  213.0690  151.1410 C   0  0  0  0  0  0  0  0  0  0  0  0
  161.1400  211.9130  147.7610 C   0  0  0  0  0  2  0  0  0  0  0  0
  162.1830  212.7380  147.3400 O   0  0  0  0  0  1  0  0  0  0  0  0
  162.3310  209.8100  149.5650 N   0  0  0  0  0  2  0  0  0  0  0  0
  161.9630  208.9700  148.4370 C   0  0  0  0  0  2  0  0  0  0  0  0
  160.7310  205.4520  148.9230 C   0  0  0  0  0  1  0  0  0  0  0  0
  161.4430  206.6280  148.3520 C   0  0  0  0  0  0  0  0  0  0  0  0
  162.2890  206.4340  147.1310 C   0  0  0  0  0  1  0  0  0  0  0  0
  161.3130  207.7780  148.9190 N   0  0  0  0  0  0  0  0  0  0  0  0
  161.9390  209.9460  152.3780 C   0  0  0  0  0  2  0  0  0  0  0  0
  160.8700  209.0370  153.0090 C   0  0  2  0  0  3  0  0  0  0  0  0
  162.1270  209.8210  155.0640 C   0  0  0  0  0  2  0  0  0  0  0  0
  160.9110  209.0300  154.5520 C   0  0  1  0  0  3  0  0  0  0  0  0
  159.7000  209.1490  156.4420 C   0  0  0  0  0  2  0  0  0  0  0  0
  163.3280  210.8710  157.2590 Cl  0  0  0  0  0  0  0  0  0  0  0  0
  160.8470  209.7660  157.2600 C   0  0  0  0  0  2  0  0  0  0  0  0
  161.8200  210.5480  156.3750 C   0  0  2  0  0  3  0  0  0  0  0  0
  159.7290  209.5670  155.0970 O   0  0  0  0  0  0  0  0  0  0  0  0
  162.4370  205.9100  152.2840 C   0  0  0  0  0  2  0  0  0  0  0  0
  161.1850  205.4400  152.9740 C   0  0  0  0  0  2  0  0  0  0  0  0
  162.1280  207.3140  151.8040 C   0  0  0  0  0  2  0  0  0  0  0  0
  160.8310  207.7140  152.3560 N   0  0  0  0  0  0  0  0  0  0  0  0
  160.4580  206.7100  153.3410 C   0  0  0  0  0  2  0  0  0  0  0  0
  1  3  1  0  0  0  0
  2 10  2  0  0  0  0
  2  5  1  0  0  0  0
  3 11  1  0  0  0  0
  4  7  1  0  0  0  0
  5 12  2  0  0  0  0
  6  8  1  0  0  0  0
  8  4  1  0  0  0  0
  8 11  2  0  0  0  0
  9  4  1  0  0  0  0
  9  7  1  0  0  0  0
 10 13  1  0  0  0  0
 12  1  1  0  0  0  0
 12 22  1  0  0  0  0
 13  6  1  0  0  0  0
 13  1  2  0  0  0  0
 14  2  1  0  0  0  0
 15 14  1  0  0  0  0
 16  5  1  0  0  0  0
 17 21  1  0  0  0  0
 17 16  1  0  0  0  0
 19 21  2  0  0  0  0
 19 18  1  0  0  0  0
 20 19  1  0  0  0  0
 23 22  1  6  0  0  0
 24 29  1  0  0  0  0
 25 23  1  6  0  0  0
 25 24  1  0  0  0  0
 25 30  1  0  0  0  0
 26 28  1  0  0  0  0
 29 27  1  1  0  0  0
 29 28  1  0  0  0  0
 30 26  1  0  0  0  0
 31 32  1  0  0  0  0
 32 35  1  0  0  0  0
 33 31  1  0  0  0  0
 33 34  1  0  0  0  0
 34 23  1  0  0  0  0
 34 35  1  0  0  0  0
M  END
>  <MODEL>
6

>  <REMARK>
 VINA RESULT:      -4.5      2.261      4.599
  Name = 
  8 active torsions:
  status: ('A' for Active; 'I' for Inactive)
    1  A    between atoms: CA_4  and  C_10
    2  A    between atoms: C_5  and  C_18
    3  A    between atoms: C_8  and  N_25
    4  A    between atoms: C_18  and  N_27
    5  A    between atoms: C_18  and  C_28
    6  A    between atoms: N_22  and  C_35
    7  A    between atoms: N_25  and  C_35
    8  A    between atoms: C_28  and  C_32
                            x       y       z     vdW  Elec       q    Type
                         _______ _______ _______ _____ _____    ______ ____

>  <TORSDO>
F 8

$$$$
=
 OpenBabel11052409293D

 35 39  0  0  1  0  0  0  0  0999 V2000
  161.7140  209.5930  151.7470 C   0  0  0  0  0  0  0  0  0  0  0  0
  160.7090  208.5710  154.1360 C   0  0  0  0  0  0  0  0  0  0  0  0
  162.1330  210.0230  150.3670 C   0  0  0  0  0  2  0  0  0  0  0  0
  161.2280  206.8680  148.6140 N   0  0  0  0  0  0  0  0  0  0  0  0
  160.5490  209.9530  153.8540 C   0  0  0  0  0  0  0  0  0  0  0  0
  162.7280  207.1430  150.9570 S   0  0  0  0  0  0  0  0  0  0  0  0
  160.4220  206.5530  147.3990 C   0  0  0  0  0  2  0  0  0  0  0  0
  161.8180  207.7760  149.5350 C   0  0  0  0  0  0  0  0  0  0  0  0
  160.9350  205.4920  148.1150 C   0  0  0  0  0  2  0  0  0  0  0  0
  161.3560  207.7700  153.2480 N   0  0  0  0  0  0  0  0  0  0  0  0
  161.6420  209.0560  149.3840 N   0  0  0  0  0  0  0  0  0  0  0  0
  161.0660  210.4600  152.6430 C   0  0  0  0  0  0  0  0  0  0  0  0
  161.8730  208.2460  152.0900 C   0  0  0  0  0  0  0  0  0  0  0  0
  160.1340  207.9220  155.3490 C   0  0  0  0  0  2  0  0  0  0  0  0
  160.4290  206.5590  155.3380 O   0  0  0  0  0  1  0  0  0  0  0  0
  159.8690  210.8630  154.7380 N   0  0  0  0  0  2  0  0  0  0  0  0
  160.2690  211.2180  156.0900 C   0  0  0  0  0  2  0  0  0  0  0  0
  158.5300  214.3940  157.0980 C   0  0  0  0  0  1  0  0  0  0  0  0
  158.8000  212.9480  156.8710 C   0  0  0  0  0  0  0  0  0  0  0  0
  157.7520  211.9510  157.2600 C   0  0  0  0  0  1  0  0  0  0  0  0
  159.9220  212.5930  156.3470 N   0  0  0  0  0  0  0  0  0  0  0  0
  160.9080  211.9230  152.3130 C   0  0  0  0  0  2  0  0  0  0  0  0
  159.4620  212.3360  151.9910 C   0  0  2  0  0  3  0  0  0  0  0  0
  160.5420  213.0240  149.8050 C   0  0  0  0  0  2  0  0  0  0  0  0
  159.3520  213.2530  150.7540 C   0  0  1  0  0  3  0  0  0  0  0  0
  157.9690  214.1630  149.2340 C   0  0  0  0  0  2  0  0  0  0  0  0
  161.5610  213.5760  147.3520 Cl  0  0  0  0  0  0  0  0  0  0  0  0
  159.0530  214.2490  148.1470 C   0  0  0  0  0  2  0  0  0  0  0  0
  160.1350  213.1840  148.3380 C   0  0  2  0  0  3  0  0  0  0  0  0
  158.1440  213.0390  150.0640 O   0  0  0  0  0  0  0  0  0  0  0  0
  157.0120  214.4430  153.5140 C   0  0  0  0  0  2  0  0  0  0  0  0
  156.4870  213.0850  153.8950 C   0  0  0  0  0  2  0  0  0  0  0  0
  158.4780  214.2310  153.1940 C   0  0  0  0  0  2  0  0  0  0  0  0
  158.7470  212.7900  153.1990 N   0  0  0  0  0  0  0  0  0  0  0  0
  157.4590  212.1160  153.2700 C   0  0  0  0  0  2  0  0  0  0  0  0
  1 13  2  0  0  0  0
  1 12  1  0  0  0  0
  2 14  1  0  0  0  0
  3  1  1  0  0  0  0
  4  8  1  0  0  0  0
  5  2  1  0  0  0  0
  5 16  1  0  0  0  0
  6 13  1  0  0  0  0
  7  9  1  0  0  0  0
  7  4  1  0  0  0  0
  8  6  1  0  0  0  0
  9  4  1  0  0  0  0
 10  2  2  0  0  0  0
 11  8  2  0  0  0  0
 11  3  1  0  0  0  0
 12  5  2  0  0  0  0
 13 10  1  0  0  0  0
 15 14  1  0  0  0  0
 16 17  1  0  0  0  0
 17 21  1  0  0  0  0
 19 18  1  0  0  0  0
 19 20  1  0  0  0  0
 21 19  2  0  0  0  0
 22 12  1  0  0  0  0
 23 22  1  1  0  0  0
 23 34  1  0  0  0  0
 24 25  1  0  0  0  0
 25 23  1  1  0  0  0
 26 30  1  0  0  0  0
 28 29  1  0  0  0  0
 28 26  1  0  0  0  0
 29 27  1  6  0  0  0
 29 24  1  0  0  0  0
 30 25  1  0  0  0  0
 31 32  1  0  0  0  0
 33 34  1  0  0  0  0
 33 31  1  0  0  0  0
 34 35  1  0  0  0  0
 35 32  1  0  0  0  0
M  END
>  <MODEL>
7

>  <REMARK>
 VINA RESULT:      -4.1      3.306      6.582
  Name = 
  8 active torsions:
  status: ('A' for Active; 'I' for Inactive)
    1  A    between atoms: CA_4  and  C_10
    2  A    between atoms: C_5  and  C_18
    3  A    between atoms: C_8  and  N_25
    4  A    between atoms: C_18  and  N_27
    5  A    between atoms: C_18  and  C_28
    6  A    between atoms: N_22  and  C_35
    7  A    between atoms: N_25  and  C_35
    8  A    between atoms: C_28  and  C_32
                            x       y       z     vdW  Elec       q    Type
                         _______ _______ _______ _____ _____    ______ ____

>  <TORSDO>
F 8

$$$$
=
 OpenBabel11052409293D

 35 39  0  0  1  0  0  0  0  0999 V2000
  161.5730  210.8290  150.4620 C   0  0  0  0  0  0  0  0  0  0  0  0
  159.9610  211.0640  152.7210 C   0  0  0  0  0  0  0  0  0  0  0  0
  162.3230  210.5580  149.1850 C   0  0  0  0  0  2  0  0  0  0  0  0
  161.3110  206.9960  148.8110 N   0  0  0  0  0  0  0  0  0  0  0  0
  160.0770  212.1690  151.8370 C   0  0  0  0  0  0  0  0  0  0  0  0
  162.3310  208.2440  151.0950 S   0  0  0  0  0  0  0  0  0  0  0  0
  160.7270  206.1980  147.6950 C   0  0  0  0  0  2  0  0  0  0  0  0
  161.8370  208.1970  149.3620 C   0  0  0  0  0  0  0  0  0  0  0  0
  160.9140  205.5610  148.9030 C   0  0  0  0  0  2  0  0  0  0  0  0
  160.6400  209.9160  152.4630 N   0  0  0  0  0  0  0  0  0  0  0  0
  161.8960  209.2720  148.6320 N   0  0  0  0  0  0  0  0  0  0  0  0
  160.9010  212.0390  150.6980 C   0  0  0  0  0  0  0  0  0  0  0  0
  161.4480  209.7830  151.3830 C   0  0  0  0  0  0  0  0  0  0  0  0
  159.0590  211.0720  153.9090 C   0  0  0  0  0  2  0  0  0  0  0  0
  159.7770  210.7060  155.0470 O   0  0  0  0  0  1  0  0  0  0  0  0
  159.3830  213.4150  152.0370 N   0  0  0  0  0  2  0  0  0  0  0  0
  158.5460  213.7660  153.1730 C   0  0  0  0  0  2  0  0  0  0  0  0
  154.8080  214.0780  152.9380 C   0  0  0  0  0  1  0  0  0  0  0  0
  156.1690  213.8370  153.4920 C   0  0  0  0  0  0  0  0  0  0  0  0
  156.2990  213.4350  154.9290 C   0  0  0  0  0  1  0  0  0  0  0  0
  157.1940  213.9780  152.7240 N   0  0  0  0  0  0  0  0  0  0  0  0
  161.0420  213.1940  149.7390 C   0  0  0  0  0  2  0  0  0  0  0  0
  160.1570  213.0750  148.4860 C   0  0  2  0  0  3  0  0  0  0  0  0
  160.1710  212.3630  146.0550 C   0  0  0  0  0  2  0  0  0  0  0  0
  160.9620  213.0690  147.1700 C   0  0  1  0  0  3  0  0  0  0  0  0
  162.3330  214.2380  145.8260 C   0  0  0  0  0  2  0  0  0  0  0  0
  160.0800  211.8270  143.3970 Cl  0  0  0  0  0  0  0  0  0  0  0  0
  161.8610  213.5210  144.5500 C   0  0  0  0  0  2  0  0  0  0  0  0
  160.4300  212.9990  144.6860 C   0  0  2  0  0  3  0  0  0  0  0  0
  161.2930  214.3760  146.7660 O   0  0  0  0  0  0  0  0  0  0  0  0
  157.0790  214.2600  147.1160 C   0  0  0  0  0  2  0  0  0  0  0  0
  156.6340  213.8680  148.4990 C   0  0  0  0  0  2  0  0  0  0  0  0
  158.5790  214.4530  147.2160 C   0  0  0  0  0  2  0  0  0  0  0  0
  159.0130  214.0050  148.5420 N   0  0  0  0  0  0  0  0  0  0  0  0
  157.8800  213.3290  149.1560 C   0  0  0  0  0  2  0  0  0  0  0  0
  1 12  2  0  0  0  0
  1 13  1  0  0  0  0
  2 14  1  0  0  0  0
  3  1  1  0  0  0  0
  4  9  1  0  0  0  0
  4  8  1  0  0  0  0
  5 16  1  0  0  0  0
  5  2  2  0  0  0  0
  6 13  1  0  0  0  0
  7  4  1  0  0  0  0
  7  9  1  0  0  0  0
  8  6  1  0  0  0  0
 10  2  1  0  0  0  0
 11  3  1  0  0  0  0
 11  8  2  0  0  0  0
 12  5  1  0  0  0  0
 13 10  2  0  0  0  0
 14 15  1  0  0  0  0
 16 17  1  0  0  0  0
 18 19  1  0  0  0  0
 19 20  1  0  0  0  0
 21 17  1  0  0  0  0
 21 19  2  0  0  0  0
 22 12  1  0  0  0  0
 23 34  1  0  0  0  0
 23 22  1  1  0  0  0
 24 25  1  0  0  0  0
 25 23  1  1  0  0  0
 26 30  1  0  0  0  0
 28 29  1  0  0  0  0
 28 26  1  0  0  0  0
 29 27  1  6  0  0  0
 29 24  1  0  0  0  0
 30 25  1  0  0  0  0
 31 33  1  0  0  0  0
 31 32  1  0  0  0  0
 32 35  1  0  0  0  0
 33 34  1  0  0  0  0
 34 35  1  0  0  0  0
M  END
>  <MODEL>
8

>  <REMARK>
 VINA RESULT:      -3.9      3.631      7.991
  Name = 
  8 active torsions:
  status: ('A' for Active; 'I' for Inactive)
    1  A    between atoms: CA_4  and  C_10
    2  A    between atoms: C_5  and  C_18
    3  A    between atoms: C_8  and  N_25
    4  A    between atoms: C_18  and  N_27
    5  A    between atoms: C_18  and  C_28
    6  A    between atoms: N_22  and  C_35
    7  A    between atoms: N_25  and  C_35
    8  A    between atoms: C_28  and  C_32
                            x       y       z     vdW  Elec       q    Type
                         _______ _______ _______ _____ _____    ______ ____

>  <TORSDO>
F 8

$$$$
=
 OpenBabel11052409293D

 35 39  0  0  1  0  0  0  0  0999 V2000
  160.5230  211.6500  152.3970 C   0  0  0  0  0  0  0  0  0  0  0  0
  160.1820  213.2210  150.1220 C   0  0  0  0  0  0  0  0  0  0  0  0
  160.5130  210.7720  153.6200 C   0  0  0  0  0  2  0  0  0  0  0  0
  156.9950  211.4400  154.6310 N   0  0  0  0  0  0  0  0  0  0  0  0
  160.9980  212.0620  150.0460 C   0  0  0  0  0  0  0  0  0  0  0  0
  158.9560  213.3140  153.9570 S   0  0  0  0  0  0  0  0  0  0  0  0
  155.8350  210.5690  154.9820 C   0  0  0  0  0  2  0  0  0  0  0  0
  158.3550  211.6430  154.2690 C   0  0  0  0  0  0  0  0  0  0  0  0
  155.6230  211.9310  154.9520 C   0  0  0  0  0  2  0  0  0  0  0  0
  159.5890  213.5550  151.2990 N   0  0  0  0  0  0  0  0  0  0  0  0
  159.1400  210.6200  154.1010 N   0  0  0  0  0  0  0  0  0  0  0  0
  161.1670  211.2760  151.2070 C   0  0  0  0  0  0  0  0  0  0  0  0
  159.7560  212.8200  152.4250 C   0  0  0  0  0  0  0  0  0  0  0  0
  159.8780  214.0740  148.9380 C   0  0  0  0  0  2  0  0  0  0  0  0
  158.5680  213.8450  148.5170 O   0  0  0  0  0  1  0  0  0  0  0  0
  161.6520  211.6370  148.8350 N   0  0  0  0  0  2  0  0  0  0  0  0
  161.1630  211.8200  147.4780 C   0  0  0  0  0  2  0  0  0  0  0  0
  162.7060  214.2070  145.0200 C   0  0  0  0  0  1  0  0  0  0  0  0
  161.7120  213.3280  145.6940 C   0  0  0  0  0  0  0  0  0  0  0  0
  160.3400  213.2090  145.1040 C   0  0  0  0  0  1  0  0  0  0  0  0
  162.0570  212.6930  146.7610 N   0  0  0  0  0  0  0  0  0  0  0  0
  162.0250  210.0370  151.1560 C   0  0  0  0  0  2  0  0  0  0  0  0
  161.2530  208.7600  150.7820 C   0  0  2  0  0  3  0  0  0  0  0  0
  161.2050  207.9390  153.1780 C   0  0  0  0  0  2  0  0  0  0  0  0
  161.5480  207.5730  151.7230 C   0  0  1  0  0  3  0  0  0  0  0  0
  161.4630  205.3420  151.9810 C   0  0  0  0  0  2  0  0  0  0  0  0
  160.9150  206.9770  155.6990 Cl  0  0  0  0  0  0  0  0  0  0  0  0
  161.3220  205.4210  153.5110 C   0  0  0  0  0  2  0  0  0  0  0  0
  160.6710  206.7320  153.9550 C   0  0  2  0  0  3  0  0  0  0  0  0
  160.8310  206.4240  151.3390 O   0  0  0  0  0  0  0  0  0  0  0  0
  162.7060  206.9280  148.0820 C   0  0  0  0  0  2  0  0  0  0  0  0
  161.2540  206.5710  147.9110 C   0  0  0  0  0  2  0  0  0  0  0  0
  162.7110  208.2100  148.8920 C   0  0  0  0  0  2  0  0  0  0  0  0
  161.3410  208.4790  149.3370 N   0  0  0  0  0  0  0  0  0  0  0  0
  160.5540  207.2920  149.0350 C   0  0  0  0  0  2  0  0  0  0  0  0
  1 13  1  0  0  0  0
  1  3  1  0  0  0  0
  2 10  1  0  0  0  0
  3 11  1  0  0  0  0
  4  9  1  0  0  0  0
  4  7  1  0  0  0  0
  5  2  2  0  0  0  0
  5 12  1  0  0  0  0
  6  8  1  0  0  0  0
  8  4  1  0  0  0  0
  9  7  1  0  0  0  0
 10 13  2  0  0  0  0
 11  8  2  0  0  0  0
 12  1  2  0  0  0  0
 13  6  1  0  0  0  0
 14  2  1  0  0  0  0
 15 14  1  0  0  0  0
 16  5  1  0  0  0  0
 17 16  1  0  0  0  0
 18 19  1  0  0  0  0
 19 21  2  0  0  0  0
 20 19  1  0  0  0  0
 21 17  1  0  0  0  0
 22 12  1  0  0  0  0
 23 22  1  1  0  0  0
 24 29  1  0  0  0  0
 25 23  1  6  0  0  0
 25 24  1  0  0  0  0
 26 28  1  0  0  0  0
 28 29  1  0  0  0  0
 29 27  1  1  0  0  0
 30 25  1  0  0  0  0
 30 26  1  0  0  0  0
 31 33  1  0  0  0  0
 32 31  1  0  0  0  0
 32 35  1  0  0  0  0
 33 34  1  0  0  0  0
 34 23  1  0  0  0  0
 35 34  1  0  0  0  0
M  END
>  <MODEL>
9

>  <REMARK>
 VINA RESULT:      -3.7      2.505      6.883
  Name = 
  8 active torsions:
  status: ('A' for Active; 'I' for Inactive)
    1  A    between atoms: CA_4  and  C_10
    2  A    between atoms: C_5  and  C_18
    3  A    between atoms: C_8  and  N_25
    4  A    between atoms: C_18  and  N_27
    5  A    between atoms: C_18  and  C_28
    6  A    between atoms: N_22  and  C_35
    7  A    between atoms: N_25  and  C_35
    8  A    between atoms: C_28  and  C_32
                            x       y       z     vdW  Elec       q    Type
                         _______ _______ _______ _____ _____    ______ ____

>  <TORSDO>
F 8

$$$$
