=
 OpenBabel11042422333D

 60 68  0  0  1  0  0  0  0  0999 V2000
  160.2430  206.3250  149.9200 C   0  0  1  0  0  3  0  0  0  0  0  0
  159.9900  214.0330  147.5130 C   0  0  1  0  0  3  0  0  0  0  0  0
  160.9530  207.4040  154.7680 C   0  0  0  0  0  2  0  0  0  0  0  0
  161.6250  210.5090  155.5000 C   0  0  0  0  0  2  0  0  0  0  0  0
  160.6540  211.9320  151.1100 C   0  0  0  0  0  0  0  0  0  0  0  0
  160.6900  205.4810  148.7020 C   0  0  2  0  0  3  0  0  0  0  0  0
  161.1850  208.4600  148.6170 C   0  0  1  0  0  3  0  0  0  0  0  0
  157.5270  213.8260  151.5090 C   0  0  0  0  0  1  0  0  0  0  0  0
  159.3070  213.5350  148.7990 C   0  0  0  0  0  2  0  0  0  0  0  0
  161.2500  213.2830  147.1800 C   0  0  0  0  0  0  0  0  0  0  0  0
  158.5440  212.3920  153.2670 C   0  0  0  0  0  0  0  0  0  0  0  0
  160.8080  207.7370  149.9300 C   0  0  0  0  0  0  0  0  0  0  0  0
  161.6390  210.4240  154.1010 O   0  0  0  0  0  0  0  0  0  0  0  0
  161.2360  209.9710  148.7720 C   0  0  1  0  0  3  0  0  0  0  0  0
  160.4740  205.0710  153.5220 C   0  0  0  0  0  0  0  0  0  0  0  0
  161.9780  208.4400  156.8440 C   0  0  0  0  0  2  0  0  0  0  0  0
  160.9960  208.3400  151.1110 C   0  0  0  0  0  3  0  0  0  0  0  0
  161.6560  204.3210  148.6040 C   0  0  2  0  0  0  0  0  0  0  0  0
  162.3370  213.9720  146.6660 O   0  0  0  0  0  1  0  0  0  0  0  0
  160.4650  210.6870  151.8780 C   0  0  1  0  0  3  0  0  0  0  0  0
  163.1070  205.4200  147.5970 C   0  0  2  0  0  0  0  0  0  0  0  0
  162.6720  209.5570  156.0720 C   0  0  0  0  0  2  0  0  0  0  0  0
  158.8390  206.3320  149.9890 O   0  0  0  0  0  1  0  0  0  0  0  0
  160.3700  203.8760  151.3530 C   0  0  0  0  0  2  0  0  0  0  0  0
  160.7220  206.1170  154.0800 C   0  0  0  0  0  0  0  0  0  0  0  0
  162.4920  204.0860  147.3440 C   0  0  0  0  0  2  0  0  0  0  0  0
  161.5360  209.7450  151.2920 C   0  0  2  0  0  3  0  0  0  0  0  0
  161.7740  203.2700  149.7770 C   0  0  0  0  0  2  0  0  0  0  0  0
  161.7070  211.8090  150.2170 O   0  0  0  0  0  0  0  0  0  0  0  0
  160.5800  210.9530  153.3470 C   0  0  0  0  0  0  0  0  0  0  0  0
  164.3040  205.8700  146.9620 O   0  0  0  0  0  1  0  0  0  0  0  0
  162.0220  210.4470  150.0060 C   0  0  2  0  0  0  0  0  0  0  0  0
  162.2190  205.7540  148.7200 C   0  0  2  0  0  0  0  0  0  0  0  0
  157.5010  212.6000  153.9520 O   0  0  0  0  0  0  0  0  0  0  0  0
  160.0340  214.0040  150.0440 C   0  0  0  0  0  2  0  0  0  0  0  0
  160.1350  203.8080  152.8600 C   0  0  0  0  0  2  0  0  0  0  0  0
  162.4510  207.8650  147.9150 C   0  0  0  0  0  2  0  0  0  0  0  0
  162.1330  206.4980  147.4560 N   0  0  1  0  0  0  0  0  0  0  0  0
  163.5310  210.2910  149.8450 C   0  0  0  0  0  1  0  0  0  0  0  0
  161.7230  203.8630  151.0390 O   0  0  0  0  0  0  0  0  0  0  0  0
  161.3580  211.9890  147.3450 C   0  0  0  0  0  0  0  0  0  0  0  0
  159.6490  211.7110  153.9450 C   0  0  0  0  0  3  0  0  0  0  0  0
  161.5310  210.7030  147.4890 C   0  0  0  0  0  3  0  0  0  0  0  0
  159.8400  212.9900  151.1310 C   0  0  0  0  0  0  0  0  0  0  0  0
  158.6560  213.0180  151.9640 N   0  0  0  0  0  0  0  0  0  0  0  0
  161.7820  207.1620  156.0190 C   0  0  0  0  0  2  0  0  0  0  0  0
  157.8270  213.6170  146.5990 O   0  0  0  0  0  0  0  0  0  0  0  0
  159.0350  213.9390  146.3720 C   0  0  0  0  0  0  0  0  0  0  0  0
  159.4830  214.2060  145.0830 O   0  0  0  0  0  0  0  0  0  0  0  0
  161.4780  212.5650  143.8390 O   0  0  0  0  0  0  0  0  0  0  0  0
  159.2600  213.3030  144.0540 N   0  0  0  0  0  2  0  0  0  0  0  0
  160.3200  212.6560  143.3470 C   0  0  0  0  0  0  0  0  0  0  0  0
  160.0190  212.0750  141.9940 C   0  0  2  0  0  3  0  0  0  0  0  0
  161.6860  210.8280  140.8110 O   0  0  0  0  0  1  0  0  0  0  0  0
  161.2570  211.9670  141.1680 C   0  0  0  0  0  0  0  0  0  0  0  0
  161.9240  213.1080  140.7240 O   0  0  0  0  0  0  0  0  0  0  0  0
  158.9730  212.9230  141.2540 C   0  0  0  0  0  2  0  0  0  0  0  0
  158.2810  211.1010  139.6470 O   0  0  0  0  0  1  0  0  0  0  0  0
  158.9270  213.1790  138.8770 O   0  0  0  0  0  0  0  0  0  0  0  0
  158.6830  212.4250  139.8650 C   0  0  0  0  0  0  0  0  0  0  0  0
  1 12  1  0  0  0  0
  1 23  1  6  0  0  0
  2 48  1  6  0  0  0
  2  9  1  0  0  0  0
  3 46  1  0  0  0  0
  4 22  1  0  0  0  0
  5 44  2  0  0  0  0
  5 20  1  0  0  0  0
  6 33  1  0  0  0  0
  6  1  1  0  0  0  0
  7 14  1  0  0  0  0
  7 12  1  0  0  0  0
  8 45  1  0  0  0  0
  9 35  1  0  0  0  0
 10 41  2  0  0  0  0
 10  2  1  0  0  0  0
 11 42  1  0  0  0  0
 11 34  2  0  0  0  0
 12 17  2  0  0  0  0
 13  4  1  0  0  0  0
 14 32  1  0  0  0  0
 15 25  3  0  0  0  0
 17 27  1  0  0  0  0
 18  6  1  0  0  0  0
 18 33  1  0  0  0  0
 18 28  1  0  0  0  0
 19 10  1  0  0  0  0
 20 30  1  0  0  0  0
 21 33  1  0  0  0  0
 22 16  1  0  0  0  0
 24 36  1  0  0  0  0
 25  3  1  0  0  0  0
 26 21  1  0  0  0  0
 26 18  1  0  0  0  0
 27 20  1  0  0  0  0
 28 40  1  0  0  0  0
 29  5  1  0  0  0  0
 30 42  2  0  0  0  0
 30 13  1  0  0  0  0
 31 21  1  0  0  0  0
 32 29  1  0  0  0  0
 32 27  1  0  0  0  0
 35 44  1  0  0  0  0
 36 15  1  0  0  0  0
 37  7  1  0  0  0  0
 38 21  1  0  0  0  0
 38 37  1  0  0  0  0
 38 33  1  0  0  0  0
 39 32  1  0  0  0  0
 40 24  1  0  0  0  0
 41 43  2  0  0  0  0
 43 14  1  0  0  0  0
 44 45  1  0  0  0  0
 45 11  1  0  0  0  0
 46 16  1  0  0  0  0
 48 47  2  0  0  0  0
 49 48  1  0  0  0  0
 51 49  1  0  0  0  0
 52 50  2  0  0  0  0
 52 51  1  0  0  0  0
 53 52  1  0  0  0  0
 54 55  1  0  0  0  0
 55 53  1  0  0  0  0
 56 55  2  0  0  0  0
 57 53  1  0  0  0  0
 58 60  1  0  0  0  0
 59 60  2  0  0  0  0
 60 57  1  0  0  0  0
M  END
>  <MODEL>
1

>  <REMARK>
 VINA RESULT:       4.1      0.000      0.000
  Name = 
  7 active torsions:
  status: ('A' for Active; 'I' for Inactive)
    1  A    between atoms: C_2  and  C_36
    2  A    between atoms: C_3  and  C_20
    3  A    between atoms: C_3  and  C_22
    4  A    between atoms: C_3  and  C_23
    5  A    between atoms: O_4  and  N_11
    6  A    between atoms: O_4  and  C_36
    7  A    between atoms: C_20  and  C_58
                            x       y       z     vdW  Elec       q    Type
                         _______ _______ _______ _____ _____    ______ ____

>  <TORSDO>
F 7

$$$$
=
 OpenBabel11042422333D

 60 68  0  0  1  0  0  0  0  0999 V2000
  160.2820  206.2640  149.9640 C   0  0  1  0  0  3  0  0  0  0  0  0
  159.8820  213.9490  147.5010 C   0  0  1  0  0  3  0  0  0  0  0  0
  161.0460  207.3920  154.7930 C   0  0  0  0  0  2  0  0  0  0  0  0
  161.6830  210.5120  155.4910 C   0  0  0  0  0  2  0  0  0  0  0  0
  160.6290  211.8860  151.1050 C   0  0  0  0  0  0  0  0  0  0  0  0
  160.7240  205.4180  148.7470 C   0  0  2  0  0  3  0  0  0  0  0  0
  161.1740  208.4030  148.6310 C   0  0  1  0  0  3  0  0  0  0  0  0
  157.4800  213.7380  151.5350 C   0  0  0  0  0  1  0  0  0  0  0  0
  159.2250  213.4510  148.8010 C   0  0  0  0  0  2  0  0  0  0  0  0
  161.1480  213.2140  147.1560 C   0  0  0  0  0  0  0  0  0  0  0  0
  158.5440  212.3330  153.2890 C   0  0  0  0  0  0  0  0  0  0  0  0
  160.8270  207.6850  149.9550 C   0  0  0  0  0  0  0  0  0  0  0  0
  161.6780  210.4160  154.0930 O   0  0  0  0  0  0  0  0  0  0  0  0
  161.2050  209.9150  148.7740 C   0  0  1  0  0  3  0  0  0  0  0  0
  160.5830  205.0430  153.5720 C   0  0  0  0  0  0  0  0  0  0  0  0
  162.0860  208.4600  156.8460 C   0  0  0  0  0  2  0  0  0  0  0  0
  161.0230  208.3000  151.1290 C   0  0  0  0  0  3  0  0  0  0  0  0
  161.7050  204.2700  148.6440 C   0  0  2  0  0  0  0  0  0  0  0  0
  162.2170  213.9150  146.6210 O   0  0  0  0  0  1  0  0  0  0  0  0
  160.4690  210.6450  151.8860 C   0  0  1  0  0  3  0  0  0  0  0  0
  163.1250  205.3830  147.6070 C   0  0  2  0  0  0  0  0  0  0  0  0
  162.7520  209.5800  156.0550 C   0  0  0  0  0  2  0  0  0  0  0  0
  158.8790  206.2520  150.0540 O   0  0  0  0  0  1  0  0  0  0  0  0
  160.4660  203.8290  151.4140 C   0  0  0  0  0  2  0  0  0  0  0  0
  160.8240  206.0970  154.1190 C   0  0  0  0  0  0  0  0  0  0  0  0
  162.5260  204.0380  147.3740 C   0  0  0  0  0  2  0  0  0  0  0  0
  161.5450  209.7140  151.2900 C   0  0  2  0  0  3  0  0  0  0  0  0
  161.8550  203.2310  149.8230 C   0  0  0  0  0  2  0  0  0  0  0  0
  161.6700  211.7710  150.1970 O   0  0  0  0  0  0  0  0  0  0  0  0
  160.6010  210.9250  153.3500 C   0  0  0  0  0  0  0  0  0  0  0  0
  164.3060  205.8440  146.9510 O   0  0  0  0  0  1  0  0  0  0  0  0
  162.0020  210.4130  149.9920 C   0  0  2  0  0  0  0  0  0  0  0  0
  162.2480  205.7130  148.7410 C   0  0  2  0  0  0  0  0  0  0  0  0
  157.5080  212.5320  153.9870 O   0  0  0  0  0  0  0  0  0  0  0  0
  159.9630  213.9410  150.0320 C   0  0  0  0  0  2  0  0  0  0  0  0
  160.2540  203.7700  152.9250 C   0  0  0  0  0  2  0  0  0  0  0  0
  162.4380  207.8200  147.9150 C   0  0  0  0  0  2  0  0  0  0  0  0
  162.1330  206.4450  147.4720 N   0  0  1  0  0  0  0  0  0  0  0  0
  163.5110  210.2770  149.8110 C   0  0  0  0  0  1  0  0  0  0  0  0
  161.8140  203.8340  151.0810 O   0  0  0  0  0  0  0  0  0  0  0  0
  161.2770  211.9230  147.3300 C   0  0  0  0  0  0  0  0  0  0  0  0
  159.6680  211.6740  153.9560 C   0  0  0  0  0  3  0  0  0  0  0  0
  161.4710  210.6420  147.4810 C   0  0  0  0  0  3  0  0  0  0  0  0
  159.8000  212.9330  151.1290 C   0  0  0  0  0  0  0  0  0  0  0  0
  158.6280  212.9500  151.9800 N   0  0  0  0  0  0  0  0  0  0  0  0
  161.8960  207.1730  156.0340 C   0  0  0  0  0  2  0  0  0  0  0  0
  157.7820  213.2890  146.5830 O   0  0  0  0  0  0  0  0  0  0  0  0
  158.9130  213.8320  146.3750 C   0  0  0  0  0  0  0  0  0  0  0  0
  159.2610  214.3190  145.1210 O   0  0  0  0  0  0  0  0  0  0  0  0
  161.4270  214.4530  143.2470 O   0  0  0  0  0  0  0  0  0  0  0  0
  159.4630  213.4550  144.0560 N   0  0  0  0  0  2  0  0  0  0  0  0
  160.4480  213.6830  143.0470 C   0  0  0  0  0  0  0  0  0  0  0  0
  160.2930  212.9750  141.7300 C   0  0  2  0  0  3  0  0  0  0  0  0
  158.2530  214.2000  141.4590 O   0  0  0  0  0  1  0  0  0  0  0  0
  158.9170  213.1560  141.1810 C   0  0  0  0  0  0  0  0  0  0  0  0
  158.3660  212.2200  140.3070 O   0  0  0  0  0  0  0  0  0  0  0  0
  160.6030  211.4770  141.8730 C   0  0  0  0  0  2  0  0  0  0  0  0
  162.6710  211.8270  140.4670 O   0  0  0  0  0  1  0  0  0  0  0  0
  161.4800  209.8520  140.3540 O   0  0  0  0  0  0  0  0  0  0  0  0
  161.6310  210.9900  140.8920 C   0  0  0  0  0  0  0  0  0  0  0  0
  1 23  1  6  0  0  0
  2 48  1  6  0  0  0
  2  9  1  0  0  0  0
  3 46  1  0  0  0  0
  4 22  1  0  0  0  0
  5 44  2  0  0  0  0
  5 20  1  0  0  0  0
  6  1  1  0  0  0  0
  7 14  1  0  0  0  0
  7 12  1  0  0  0  0
  8 45  1  0  0  0  0
  9 35  1  0  0  0  0
 10 41  2  0  0  0  0
 10  2  1  0  0  0  0
 11 42  1  0  0  0  0
 11 34  2  0  0  0  0
 12  1  1  0  0  0  0
 12 17  2  0  0  0  0
 13  4  1  0  0  0  0
 14 32  1  0  0  0  0
 15 25  3  0  0  0  0
 17 27  1  0  0  0  0
 18 33  1  0  0  0  0
 18  6  1  0  0  0  0
 18 28  1  0  0  0  0
 19 10  1  0  0  0  0
 20 30  1  0  0  0  0
 21 33  1  0  0  0  0
 22 16  1  0  0  0  0
 24 36  1  0  0  0  0
 25  3  1  0  0  0  0
 26 21  1  0  0  0  0
 26 18  1  0  0  0  0
 27 20  1  0  0  0  0
 28 40  1  0  0  0  0
 29  5  1  0  0  0  0
 30 42  2  0  0  0  0
 30 13  1  0  0  0  0
 31 21  1  0  0  0  0
 32 29  1  0  0  0  0
 32 27  1  0  0  0  0
 33  6  1  0  0  0  0
 35 44  1  0  0  0  0
 36 15  1  0  0  0  0
 37  7  1  0  0  0  0
 38 21  1  0  0  0  0
 38 37  1  0  0  0  0
 38 33  1  0  0  0  0
 39 32  1  0  0  0  0
 40 24  1  0  0  0  0
 41 43  2  0  0  0  0
 43 14  1  0  0  0  0
 44 45  1  0  0  0  0
 45 11  1  0  0  0  0
 46 16  1  0  0  0  0
 48 47  2  0  0  0  0
 49 48  1  0  0  0  0
 51 49  1  0  0  0  0
 52 50  2  0  0  0  0
 52 51  1  0  0  0  0
 53 57  1  0  0  0  0
 53 52  1  0  0  0  0
 55 54  1  0  0  0  0
 55 53  1  0  0  0  0
 56 55  2  0  0  0  0
 58 60  1  0  0  0  0
 59 60  2  0  0  0  0
 60 57  1  0  0  0  0
M  END
>  <MODEL>
2

>  <REMARK>
 VINA RESULT:       4.2      0.602      1.341
  Name = 
  7 active torsions:
  status: ('A' for Active; 'I' for Inactive)
    1  A    between atoms: C_2  and  C_36
    2  A    between atoms: C_3  and  C_20
    3  A    between atoms: C_3  and  C_22
    4  A    between atoms: C_3  and  C_23
    5  A    between atoms: O_4  and  N_11
    6  A    between atoms: O_4  and  C_36
    7  A    between atoms: C_20  and  C_58
                            x       y       z     vdW  Elec       q    Type
                         _______ _______ _______ _____ _____    ______ ____

>  <TORSDO>
F 7

$$$$
