=
 OpenBabel11042420063D

 58 65  0  0  1  0  0  0  0  0999 V2000
  161.2810  209.4180  152.6080 C   0  0  2  0  0  3  0  0  0  0  0  0
  161.5540  206.9340  152.6570 C   0  0  1  0  0  3  0  0  0  0  0  0
  160.0340  206.6630  154.3610 N   0  0  0  0  0  1  0  0  0  0  0  0
  161.4010  206.5770  154.0620 N   0  0  0  0  0  0  0  0  0  0  0  0
  162.2070  208.2640  152.9780 C   0  0  2  0  0  3  0  0  0  0  0  0
  161.9950  207.8600  154.4210 C   0  0  0  0  0  2  0  0  0  0  0  0
  162.5690  206.0160  151.9900 C   0  0  0  0  0  2  0  0  0  0  0  0
  161.7070  203.6680  151.9430 C   0  0  0  0  0  3  0  0  0  0  0  0
  161.4490  205.0490  149.9680 C   0  0  0  0  0  3  0  0  0  0  0  0
  161.0990  202.6000  151.2760 C   0  0  0  0  0  3  0  0  0  0  0  0
  160.6710  202.7540  149.9510 C   0  0  0  0  0  0  0  0  0  0  0  0
  160.8380  203.9820  149.3020 C   0  0  0  0  0  3  0  0  0  0  0  0
  161.8890  204.8910  151.2880 C   0  0  0  0  0  0  0  0  0  0  0  0
  160.0320  201.6130  149.2350 C   0  0  0  0  0  2  0  0  0  0  0  0
  160.9480  201.2280  147.2660 C   0  0  0  0  0  1  0  0  0  0  0  0
  159.8970  201.9150  147.8780 O   0  0  0  0  0  0  0  0  0  0  0  0
  161.3100  209.6720  151.1330 C   0  0  0  0  0  0  0  0  0  0  0  0
  160.8970  208.7930  150.3250 O   0  0  0  0  0  0  0  0  0  0  0  0
  161.8230  210.9120  150.6520 N   0  0  0  0  0  2  0  0  0  0  0  0
  160.1230  212.7620  145.3610 C   0  0  2  0  0  3  0  0  0  0  0  0
  160.2380  212.3930  147.6440 C   0  0  1  0  0  3  0  0  0  0  0  0
  160.9520  212.4630  149.0140 C   0  0  1  0  0  3  0  0  0  0  0  0
  161.8290  211.2460  149.2390 C   0  0  1  0  0  3  0  0  0  0  0  0
  162.3600  213.0340  146.5940 C   0  0  0  0  0  0  0  0  0  0  0  0
  163.2400  212.6040  147.7100 C   0  0  0  0  0  2  0  0  0  0  0  0
  162.6490  214.0160  145.9270 O   0  0  0  0  0  0  0  0  0  0  0  0
  162.4900  212.6050  149.0470 C   0  0  1  0  0  3  0  0  0  0  0  0
  159.3660  213.4930  147.4890 O   0  0  0  0  0  0  0  0  0  0  0  0
  159.3280  213.8050  146.1130 C   0  0  0  0  0  2  0  0  0  0  0  0
  161.0930  212.2440  146.3950 C   0  0  2  0  0  3  0  0  0  0  0  0
  160.6530  214.4320  143.7420 O   0  0  0  0  0  0  0  0  0  0  0  0
  161.3360  212.2720  143.1710 N   0  0  0  0  0  2  0  0  0  0  0  0
  160.7140  213.2120  144.0550 C   0  0  0  0  0  0  0  0  0  0  0  0
  160.9710  212.6390  140.7720 C   0  0  2  0  0  3  0  0  0  0  0  0
  162.5510  210.4920  140.4910 O   0  0  0  0  0  0  0  0  0  0  0  0
  161.8820  212.6560  141.8780 C   0  0  1  0  0  0  0  0  0  0  0  0
  162.9400  213.5680  141.8790 O   0  0  0  0  0  1  0  0  0  0  0  0
  162.0200  211.5120  140.8910 C   0  0  0  0  0  0  0  0  0  0  0  0
  161.3720  213.5730  139.6390 C   0  0  0  0  0  2  0  0  0  0  0  0
  159.6010  213.8220  138.0990 O   0  0  0  0  0  0  0  0  0  0  0  0
  160.6270  213.2290  138.3930 C   0  0  0  0  0  3  0  0  0  0  0  0
  161.6630  210.5720  153.2990 O   0  0  0  0  0  0  0  0  0  0  0  0
  160.5900  210.8910  154.0650 N   0  0  0  0  0  2  0  0  0  0  0  0
  160.9690  210.6990  155.4010 N   0  0  0  0  0  2  0  0  0  0  0  0
  160.1050  208.9330  156.7950 C   0  0  0  0  0  2  0  0  0  0  0  0
  160.0610  210.2030  156.3910 C   0  0  0  0  0  0  0  0  0  0  0  0
  159.0240  211.1100  156.9540 C   0  0  0  0  0  2  0  0  0  0  0  0
  159.5720  212.5250  157.0590 C   0  0  0  0  0  2  0  0  0  0  0  0
  158.6070  213.5860  156.5270 C   0  0  1  0  0  3  0  0  0  0  0  0
  157.0050  212.8300  154.7030 C   0  0  1  0  0  0  0  0  0  0  0  0
  157.6340  213.8450  153.9410 O   0  0  0  0  0  0  0  0  0  0  0  0
  159.1710  214.4430  155.5540 O   0  0  0  0  0  0  0  0  0  0  0  0
  158.9990  213.8600  154.2840 C   0  0  0  0  0  2  0  0  0  0  0  0
  157.5290  211.5880  154.3780 F   0  0  0  0  0  0  0  0  0  0  0  0
  157.1880  213.0890  156.2030 C   0  0  0  0  0  2  0  0  0  0  0  0
  154.9030  214.0570  154.6060 O   0  0  0  0  0  0  0  0  0  0  0  0
  155.1100  213.6350  153.2810 C   0  0  0  0  0  2  0  0  0  0  0  0
  155.4930  212.7890  154.4340 C   0  0  1  0  0  3  0  0  0  0  0  0
  1 17  1  6  0  0  0
  1 42  1  0  0  0  0
  2  7  1  6  0  0  0
  2  5  1  0  0  0  0
  2  4  1  0  0  0  0
  4  3  1  0  0  0  0
  4  6  1  0  0  0  0
  5  1  1  6  0  0  0
  5  6  1  0  0  0  0
  9 13  2  0  0  0  0
 10  8  2  0  0  0  0
 11 10  1  0  0  0  0
 12 11  2  0  0  0  0
 12  9  1  0  0  0  0
 13  8  1  0  0  0  0
 13  7  1  0  0  0  0
 14 11  1  0  0  0  0
 15 16  1  0  0  0  0
 16 14  1  0  0  0  0
 18 17  2  0  0  0  0
 19 17  1  0  0  0  0
 20 33  1  6  0  0  0
 20 29  1  0  0  0  0
 20 30  1  0  0  0  0
 21 28  1  6  0  0  0
 21 22  1  0  0  0  0
 22 27  1  0  0  0  0
 22 23  1  0  0  0  0
 23 19  1  0  0  0  0
 24 25  1  0  0  0  0
 25 27  1  0  0  0  0
 26 24  2  0  0  0  0
 27 23  1  0  0  0  0
 29 28  1  0  0  0  0
 30 24  1  0  0  0  0
 30 21  1  0  0  0  0
 31 33  2  0  0  0  0
 32 33  1  0  0  0  0
 34 38  1  0  0  0  0
 34 36  1  0  0  0  0
 35 38  2  0  0  0  0
 36 37  1  0  0  0  0
 36 32  1  0  0  0  0
 38 36  1  0  0  0  0
 39 34  1  0  0  0  0
 40 41  2  0  0  0  0
 41 39  1  0  0  0  0
 42 43  1  0  0  0  0
 43 44  1  0  0  0  0
 44 46  1  0  0  0  0
 46 45  2  0  0  0  0
 46 47  1  0  0  0  0
 47 48  1  0  0  0  0
 49 48  1  0  0  0  0
 50 55  1  0  0  0  0
 51 53  1  0  0  0  0
 51 50  1  0  0  0  0
 52 49  1  0  0  0  0
 53 52  1  0  0  0  0
 54 50  1  0  0  0  0
 55 49  1  0  0  0  0
 57 58  1  0  0  0  0
 57 56  1  0  0  0  0
 58 56  1  0  0  0  0
 58 50  1  0  0  0  0
M  END
>  <MODEL>
1

>  <REMARK>
 VINA RESULT:      -5.4      0.000      0.000
  Name = 
  19 active torsions:
  status: ('A' for Active; 'I' for Inactive)
    1  A    between atoms: N_1  and  N_6
    2  A    between atoms: N_1  and  C_57
    3  A    between atoms: C_2  and  C_46
    4  A    between atoms: C_3  and  C_5
    5  A    between atoms: C_3  and  C_22
    6  A    between atoms: N_6  and  O_56
    7  A    between atoms: C_7  and  C_38
    8  A    between atoms: C_9  and  C_51
    9  A    between atoms: C_14  and  C_35
   10  A    between atoms: C_17  and  N_54
   11  A    between atoms: C_22  and  C_57
   12  A    between atoms: C_27  and  C_43
   13  A    between atoms: C_28  and  C_43
   14  A    between atoms: C_30  and  N_42
   15  A    between atoms: C_32  and  C_35
   16  A    between atoms: C_37  and  C_39
   17  A    between atoms: C_37  and  O_45
   18  A    between atoms: C_38  and  C_49
   19  A    between atoms: C_43  and  O_56
                            x       y       z     vdW  Elec       q    Type
                         _______ _______ _______ _____ _____    ______ ____

>  <TORSDO>
F 19

$$$$
=
 OpenBabel11042420063D

 58 65  0  0  1  0  0  0  0  0999 V2000
  161.7110  209.2460  151.3400 C   0  0  2  0  0  3  0  0  0  0  0  0
  161.2260  206.8100  151.6180 C   0  0  1  0  0  3  0  0  0  0  0  0
  160.1860  207.1100  153.6480 N   0  0  0  0  0  1  0  0  0  0  0  0
  161.3390  206.5770  153.0540 N   0  0  0  0  0  0  0  0  0  0  0  0
  162.3090  207.8710  151.6200 C   0  0  2  0  0  3  0  0  0  0  0  0
  162.3640  207.6130  153.1100 C   0  0  0  0  0  2  0  0  0  0  0  0
  161.7090  205.5890  150.8490 C   0  0  0  0  0  2  0  0  0  0  0  0
  162.2950  205.2150  148.4460 C   0  0  0  0  0  3  0  0  0  0  0  0
  160.2260  206.3590  148.9820 C   0  0  0  0  0  3  0  0  0  0  0  0
  162.0240  205.3650  147.0810 C   0  0  0  0  0  3  0  0  0  0  0  0
  160.8560  206.0170  146.6670 C   0  0  0  0  0  0  0  0  0  0  0  0
  159.9540  206.5050  147.6180 C   0  0  0  0  0  3  0  0  0  0  0  0
  161.4010  205.7190  149.3970 C   0  0  0  0  0  0  0  0  0  0  0  0
  160.5710  206.1860  145.2130 C   0  0  0  0  0  2  0  0  0  0  0  0
  160.7180  204.1620  144.3480 C   0  0  0  0  0  1  0  0  0  0  0  0
  161.4160  205.3660  144.4610 O   0  0  0  0  0  0  0  0  0  0  0  0
  161.8400  209.5970  149.8900 C   0  0  0  0  0  0  0  0  0  0  0  0
  162.3590  208.7800  149.0790 O   0  0  0  0  0  0  0  0  0  0  0  0
  161.3820  210.8700  149.4410 N   0  0  0  0  0  2  0  0  0  0  0  0
  159.7850  212.7820  144.1400 C   0  0  2  0  0  3  0  0  0  0  0  0
  159.8270  212.3410  146.4120 C   0  0  1  0  0  3  0  0  0  0  0  0
  160.4740  212.4130  147.8150 C   0  0  1  0  0  3  0  0  0  0  0  0
  161.4250  211.2530  148.0410 C   0  0  1  0  0  3  0  0  0  0  0  0
  161.9420  213.1650  145.4820 C   0  0  0  0  0  0  0  0  0  0  0  0
  162.8010  212.7590  146.6220 C   0  0  0  0  0  2  0  0  0  0  0  0
  162.1880  214.1880  144.8600 O   0  0  0  0  0  0  0  0  0  0  0  0
  161.9950  212.6610  147.9220 C   0  0  1  0  0  3  0  0  0  0  0  0
  158.8870  213.3820  146.2530 O   0  0  0  0  0  0  0  0  0  0  0  0
  158.8860  213.7390  144.8870 C   0  0  0  0  0  2  0  0  0  0  0  0
  160.7430  212.2960  145.1990 C   0  0  2  0  0  3  0  0  0  0  0  0
  159.8960  214.3410  142.3380 O   0  0  0  0  0  0  0  0  0  0  0  0
  161.5360  212.6770  142.2870 N   0  0  0  0  0  2  0  0  0  0  0  0
  160.3980  213.3170  142.8770 C   0  0  0  0  0  0  0  0  0  0  0  0
  161.4600  212.7590  139.8360 C   0  0  2  0  0  3  0  0  0  0  0  0
  163.6470  211.2190  139.9970 O   0  0  0  0  0  0  0  0  0  0  0  0
  162.1340  213.1350  141.0430 C   0  0  1  0  0  0  0  0  0  0  0  0
  162.8450  214.3360  141.0830 O   0  0  0  0  0  1  0  0  0  0  0  0
  162.7720  212.0370  140.2110 C   0  0  0  0  0  0  0  0  0  0  0  0
  161.7270  213.7010  138.6700 C   0  0  0  0  0  2  0  0  0  0  0  0
  159.4720  213.8520  137.9910 O   0  0  0  0  0  0  0  0  0  0  0  0
  160.4870  214.4500  138.3110 C   0  0  0  0  0  3  0  0  0  0  0  0
  162.3540  210.2100  152.1230 O   0  0  0  0  0  0  0  0  0  0  0  0
  161.5240  210.4140  153.1760 N   0  0  0  0  0  2  0  0  0  0  0  0
  162.3330  210.6250  154.3010 N   0  0  0  0  0  2  0  0  0  0  0  0
  161.7630  208.9610  155.9490 C   0  0  0  0  0  2  0  0  0  0  0  0
  161.9270  210.2420  155.6200 C   0  0  0  0  0  0  0  0  0  0  0  0
  161.6460  211.2950  156.6330 C   0  0  0  0  0  2  0  0  0  0  0  0
  160.7310  212.3570  156.0430 C   0  0  0  0  0  2  0  0  0  0  0  0
  159.4150  211.7890  155.5070 C   0  0  1  0  0  3  0  0  0  0  0  0
  157.4260  213.3740  155.5130 C   0  0  1  0  0  0  0  0  0  0  0  0
  156.8420  212.3930  156.3520 O   0  0  0  0  0  0  0  0  0  0  0  0
  158.6930  211.0200  156.4480 O   0  0  0  0  0  0  0  0  0  0  0  0
  157.8530  211.8780  157.1840 C   0  0  0  0  0  2  0  0  0  0  0  0
  157.9190  214.4260  156.2700 F   0  0  0  0  0  0  0  0  0  0  0  0
  158.5610  212.7650  154.6800 C   0  0  0  0  0  2  0  0  0  0  0  0
  156.4570  213.2860  153.2800 O   0  0  0  0  0  0  0  0  0  0  0  0
  155.3900  212.9360  154.1260 C   0  0  0  0  0  2  0  0  0  0  0  0
  156.3980  213.9440  154.5240 C   0  0  1  0  0  3  0  0  0  0  0  0
  1 17  1  6  0  0  0
  1 42  1  0  0  0  0
  2  7  1  6  0  0  0
  2  5  1  0  0  0  0
  2  4  1  0  0  0  0
  4  6  1  0  0  0  0
  4  3  1  0  0  0  0
  5  1  1  1  0  0  0
  5  6  1  0  0  0  0
  8 13  1  0  0  0  0
  9 13  2  0  0  0  0
 10  8  2  0  0  0  0
 11 10  1  0  0  0  0
 11 12  2  0  0  0  0
 12  9  1  0  0  0  0
 13  7  1  0  0  0  0
 14 11  1  0  0  0  0
 15 16  1  0  0  0  0
 16 14  1  0  0  0  0
 18 17  2  0  0  0  0
 19 17  1  0  0  0  0
 20 33  1  6  0  0  0
 20 29  1  0  0  0  0
 20 30  1  0  0  0  0
 21 28  1  6  0  0  0
 21 22  1  0  0  0  0
 22 27  1  0  0  0  0
 22 23  1  0  0  0  0
 23 19  1  0  0  0  0
 24 25  1  0  0  0  0
 25 27  1  0  0  0  0
 26 24  2  0  0  0  0
 27 23  1  0  0  0  0
 29 28  1  0  0  0  0
 30 24  1  0  0  0  0
 30 21  1  0  0  0  0
 31 33  2  0  0  0  0
 32 33  1  0  0  0  0
 34 38  1  0  0  0  0
 34 36  1  0  0  0  0
 35 38  2  0  0  0  0
 36 37  1  0  0  0  0
 36 32  1  0  0  0  0
 38 36  1  0  0  0  0
 39 34  1  0  0  0  0
 40 41  2  0  0  0  0
 41 39  1  0  0  0  0
 42 43  1  0  0  0  0
 43 44  1  0  0  0  0
 44 46  1  0  0  0  0
 46 45  2  0  0  0  0
 46 47  1  0  0  0  0
 48 47  1  0  0  0  0
 49 48  1  0  0  0  0
 49 52  1  0  0  0  0
 50 54  1  0  0  0  0
 50 51  1  0  0  0  0
 51 53  1  0  0  0  0
 52 53  1  0  0  0  0
 55 49  1  0  0  0  0
 55 50  1  0  0  0  0
 56 57  1  0  0  0  0
 56 58  1  0  0  0  0
 57 58  1  0  0  0  0
 58 50  1  0  0  0  0
M  END
>  <MODEL>
2

>  <REMARK>
 VINA RESULT:      -4.8      1.889      2.276
  Name = 
  19 active torsions:
  status: ('A' for Active; 'I' for Inactive)
    1  A    between atoms: N_1  and  N_6
    2  A    between atoms: N_1  and  C_57
    3  A    between atoms: C_2  and  C_46
    4  A    between atoms: C_3  and  C_5
    5  A    between atoms: C_3  and  C_22
    6  A    between atoms: N_6  and  O_56
    7  A    between atoms: C_7  and  C_38
    8  A    between atoms: C_9  and  C_51
    9  A    between atoms: C_14  and  C_35
   10  A    between atoms: C_17  and  N_54
   11  A    between atoms: C_22  and  C_57
   12  A    between atoms: C_27  and  C_43
   13  A    between atoms: C_28  and  C_43
   14  A    between atoms: C_30  and  N_42
   15  A    between atoms: C_32  and  C_35
   16  A    between atoms: C_37  and  C_39
   17  A    between atoms: C_37  and  O_45
   18  A    between atoms: C_38  and  C_49
   19  A    between atoms: C_43  and  O_56
                            x       y       z     vdW  Elec       q    Type
                         _______ _______ _______ _____ _____    ______ ____

>  <TORSDO>
F 19

$$$$
=
 OpenBabel11042420063D

 58 65  0  0  1  0  0  0  0  0999 V2000
  161.9530  212.6390  148.4700 C   0  0  2  0  0  3  0  0  0  0  0  0
  161.0300  212.5420  146.1490 C   0  0  1  0  0  3  0  0  0  0  0  0
  162.9340  213.4240  145.2090 N   0  0  0  0  0  1  0  0  0  0  0  0
  161.5900  213.7130  145.4850 N   0  0  0  0  0  0  0  0  0  0  0  0
  160.9480  213.2390  147.4930 C   0  0  2  0  0  3  0  0  0  0  0  0
  161.5600  214.4150  146.7620 C   0  0  0  0  0  2  0  0  0  0  0  0
  159.6260  212.2660  145.6320 C   0  0  0  0  0  2  0  0  0  0  0  0
  160.2100  211.6910  143.2680 C   0  0  0  0  0  3  0  0  0  0  0  0
  158.7960  213.6140  143.6900 C   0  0  0  0  0  3  0  0  0  0  0  0
  160.1550  211.9520  141.8950 C   0  0  0  0  0  3  0  0  0  0  0  0
  159.4260  213.0480  141.4190 C   0  0  0  0  0  0  0  0  0  0  0  0
  158.7400  213.8720  142.3160 C   0  0  0  0  0  3  0  0  0  0  0  0
  159.5370  212.5260  144.1670 C   0  0  0  0  0  0  0  0  0  0  0  0
  159.3750  213.3330  139.9560 C   0  0  0  0  0  2  0  0  0  0  0  0
  158.2630  211.8250  138.7930 C   0  0  0  0  0  1  0  0  0  0  0  0
  159.5480  212.1510  139.2320 O   0  0  0  0  0  0  0  0  0  0  0  0
  161.7930  211.1530  148.5520 C   0  0  0  0  0  0  0  0  0  0  0  0
  161.2140  210.5210  147.6250 O   0  0  0  0  0  0  0  0  0  0  0  0
  162.2910  210.4630  149.6960 N   0  0  0  0  0  2  0  0  0  0  0  0
  161.8790  205.0760  151.9580 C   0  0  2  0  0  3  0  0  0  0  0  0
  161.8010  207.3740  151.6890 C   0  0  1  0  0  3  0  0  0  0  0  0
  161.3170  208.6610  150.9800 C   0  0  1  0  0  3  0  0  0  0  0  0
  162.2190  209.0170  149.8150 C   0  0  1  0  0  3  0  0  0  0  0  0
  160.8480  206.0860  149.8330 C   0  0  0  0  0  0  0  0  0  0  0  0
  160.8430  207.1920  148.8410 C   0  0  0  0  0  2  0  0  0  0  0  0
  159.9580  205.2490  149.8240 O   0  0  0  0  0  0  0  0  0  0  0  0
  160.7940  208.5600  149.5300 C   0  0  1  0  0  3  0  0  0  0  0  0
  160.9980  207.1050  152.8180 O   0  0  0  0  0  0  0  0  0  0  0  0
  160.9510  205.7020  152.9730 C   0  0  0  0  0  2  0  0  0  0  0  0
  161.9500  206.1080  150.8600 C   0  0  2  0  0  3  0  0  0  0  0  0
  161.2190  202.8310  152.4200 O   0  0  0  0  0  0  0  0  0  0  0  0
  161.5610  203.2970  150.1570 N   0  0  0  0  0  2  0  0  0  0  0  0
  161.5340  203.6750  151.5380 C   0  0  0  0  0  0  0  0  0  0  0  0
  161.1920  201.7440  148.2930 C   0  0  2  0  0  3  0  0  0  0  0  0
  158.6790  201.6690  149.2230 O   0  0  0  0  0  0  0  0  0  0  0  0
  161.2750  201.9420  149.7100 C   0  0  1  0  0  0  0  0  0  0  0  0
  161.7220  200.8970  150.5210 O   0  0  0  0  0  1  0  0  0  0  0  0
  159.8890  201.7540  149.1220 C   0  0  0  0  0  0  0  0  0  0  0  0
  161.4930  200.3160  147.8590 C   0  0  0  0  0  2  0  0  0  0  0  0
  161.3960  199.1060  145.8350 O   0  0  0  0  0  0  0  0  0  0  0  0
  161.0270  200.0880  146.4600 C   0  0  0  0  0  3  0  0  0  0  0  0
  161.7810  213.2080  149.7360 O   0  0  0  0  0  0  0  0  0  0  0  0
  160.6520  213.9530  149.6330 N   0  0  0  0  0  2  0  0  0  0  0  0
  160.0290  213.9280  150.8890 N   0  0  0  0  0  2  0  0  0  0  0  0
  157.7560  213.3780  150.3050 C   0  0  0  0  0  2  0  0  0  0  0  0
  158.8000  213.2290  151.1200 C   0  0  0  0  0  0  0  0  0  0  0  0
  158.6720  212.3480  152.3120 C   0  0  0  0  0  2  0  0  0  0  0  0
  157.6690  212.9370  153.2920 C   0  0  0  0  0  2  0  0  0  0  0  0
  158.1990  213.0170  154.7240 C   0  0  1  0  0  3  0  0  0  0  0  0
  159.6800  211.0930  155.4800 C   0  0  1  0  0  0  0  0  0  0  0  0
  158.6820  210.9160  156.4710 O   0  0  0  0  0  0  0  0  0  0  0  0
  157.2800  212.5800  155.7050 O   0  0  0  0  0  0  0  0  0  0  0  0
  157.4340  211.1920  155.8820 C   0  0  0  0  0  2  0  0  0  0  0  0
  159.4980  210.1870  154.4460 F   0  0  0  0  0  0  0  0  0  0  0  0
  159.6410  212.5220  154.9250 C   0  0  0  0  0  2  0  0  0  0  0  0
  161.1010  209.8100  156.9860 O   0  0  0  0  0  0  0  0  0  0  0  0
  161.6280  209.5400  155.7100 C   0  0  0  0  0  2  0  0  0  0  0  0
  161.0840  210.8720  156.0600 C   0  0  1  0  0  3  0  0  0  0  0  0
  1 17  1  1  0  0  0
  1 42  1  0  0  0  0
  2  7  1  6  0  0  0
  2  5  1  0  0  0  0
  3  4  1  0  0  0  0
  4  2  1  0  0  0  0
  4  6  1  0  0  0  0
  5  1  1  1  0  0  0
  6  5  1  0  0  0  0
  8 13  1  0  0  0  0
  9 13  2  0  0  0  0
 10  8  2  0  0  0  0
 11 10  1  0  0  0  0
 11 12  2  0  0  0  0
 12  9  1  0  0  0  0
 13  7  1  0  0  0  0
 14 11  1  0  0  0  0
 15 16  1  0  0  0  0
 16 14  1  0  0  0  0
 17 19  1  0  0  0  0
 18 17  2  0  0  0  0
 19 23  1  0  0  0  0
 20 33  1  6  0  0  0
 20 29  1  0  0  0  0
 21 28  1  1  0  0  0
 22 21  1  0  0  0  0
 23 22  1  0  0  0  0
 24 30  1  0  0  0  0
 25 27  1  0  0  0  0
 25 24  1  0  0  0  0
 26 24  2  0  0  0  0
 27 23  1  0  0  0  0
 27 22  1  0  0  0  0
 28 29  1  0  0  0  0
 30 21  1  0  0  0  0
 30 20  1  0  0  0  0
 32 33  1  0  0  0  0
 33 31  2  0  0  0  0
 34 38  1  0  0  0  0
 34 36  1  0  0  0  0
 36 32  1  0  0  0  0
 36 37  1  0  0  0  0
 38 35  2  0  0  0  0
 38 36  1  0  0  0  0
 39 34  1  0  0  0  0
 40 41  2  0  0  0  0
 41 39  1  0  0  0  0
 43 42  1  0  0  0  0
 43 44  1  0  0  0  0
 44 46  1  0  0  0  0
 45 46  2  0  0  0  0
 46 47  1  0  0  0  0
 47 48  1  0  0  0  0
 48 49  1  0  0  0  0
 49 55  1  0  0  0  0
 49 52  1  0  0  0  0
 50 58  1  0  0  0  0
 50 51  1  0  0  0  0
 52 53  1  0  0  0  0
 53 51  1  0  0  0  0
 54 50  1  0  0  0  0
 55 50  1  0  0  0  0
 57 58  1  0  0  0  0
 57 56  1  0  0  0  0
 58 56  1  0  0  0  0
M  END
>  <MODEL>
3

>  <REMARK>
 VINA RESULT:      -4.6      2.469      9.626
  Name = 
  19 active torsions:
  status: ('A' for Active; 'I' for Inactive)
    1  A    between atoms: N_1  and  N_6
    2  A    between atoms: N_1  and  C_57
    3  A    between atoms: C_2  and  C_46
    4  A    between atoms: C_3  and  C_5
    5  A    between atoms: C_3  and  C_22
    6  A    between atoms: N_6  and  O_56
    7  A    between atoms: C_7  and  C_38
    8  A    between atoms: C_9  and  C_51
    9  A    between atoms: C_14  and  C_35
   10  A    between atoms: C_17  and  N_54
   11  A    between atoms: C_22  and  C_57
   12  A    between atoms: C_27  and  C_43
   13  A    between atoms: C_28  and  C_43
   14  A    between atoms: C_30  and  N_42
   15  A    between atoms: C_32  and  C_35
   16  A    between atoms: C_37  and  C_39
   17  A    between atoms: C_37  and  O_45
   18  A    between atoms: C_38  and  C_49
   19  A    between atoms: C_43  and  O_56
                            x       y       z     vdW  Elec       q    Type
                         _______ _______ _______ _____ _____    ______ ____

>  <TORSDO>
F 19

$$$$
=
 OpenBabel11042420063D

 58 65  0  0  1  0  0  0  0  0999 V2000
  161.6950  205.8560  144.5650 C   0  0  2  0  0  3  0  0  0  0  0  0
  162.0780  203.9900  146.1830 C   0  0  1  0  0  3  0  0  0  0  0  0
  164.2560  204.6060  146.5890 N   0  0  0  0  0  1  0  0  0  0  0  0
  163.4720  203.6140  145.9830 N   0  0  0  0  0  0  0  0  0  0  0  0
  161.8780  204.3510  144.7240 C   0  0  2  0  0  3  0  0  0  0  0  0
  163.3370  203.9780  144.5770 C   0  0  0  0  0  2  0  0  0  0  0  0
  161.2460  202.7610  146.5220 C   0  0  0  0  0  2  0  0  0  0  0  0
  161.1870  203.7440  148.8220 C   0  0  0  0  0  3  0  0  0  0  0  0
  160.8420  201.3590  148.5580 C   0  0  0  0  0  3  0  0  0  0  0  0
  161.0660  203.6070  150.2090 C   0  0  0  0  0  3  0  0  0  0  0  0
  160.8400  202.3450  150.7720 C   0  0  0  0  0  0  0  0  0  0  0  0
  160.7180  201.2240  149.9450 C   0  0  0  0  0  3  0  0  0  0  0  0
  161.0820  202.6190  147.9960 C   0  0  0  0  0  0  0  0  0  0  0  0
  160.7210  202.1970  152.2510 C   0  0  0  0  0  2  0  0  0  0  0  0
  160.1790  204.2190  152.9470 C   0  0  0  0  0  1  0  0  0  0  0  0
  161.2480  203.3230  152.8880 O   0  0  0  0  0  0  0  0  0  0  0  0
  161.1570  206.4630  145.8240 C   0  0  0  0  0  0  0  0  0  0  0  0
  159.9130  206.4860  146.0400 O   0  0  0  0  0  0  0  0  0  0  0  0
  162.0650  207.0260  146.7670 N   0  0  0  0  0  2  0  0  0  0  0  0
  160.9280  207.6590  152.4780 C   0  0  2  0  0  3  0  0  0  0  0  0
  161.7970  206.9170  150.4640 C   0  0  1  0  0  3  0  0  0  0  0  0
  162.5550  207.1260  149.1320 C   0  0  1  0  0  3  0  0  0  0  0  0
  161.6160  207.5800  148.0320 C   0  0  1  0  0  3  0  0  0  0  0  0
  161.7580  209.3540  150.7340 C   0  0  0  0  0  0  0  0  0  0  0  0
  161.9540  209.6890  149.3010 C   0  0  0  0  0  2  0  0  0  0  0  0
  162.2450  210.0620  151.6030 O   0  0  0  0  0  0  0  0  0  0  0  0
  162.6640  208.5540  148.5540 C   0  0  1  0  0  3  0  0  0  0  0  0
  162.6730  206.4170  151.4520 O   0  0  0  0  0  0  0  0  0  0  0  0
  162.2250  206.9140  152.6960 C   0  0  0  0  0  2  0  0  0  0  0  0
  161.0040  208.0830  151.0310 C   0  0  2  0  0  3  0  0  0  0  0  0
  159.7260  209.5840  153.2100 O   0  0  0  0  0  0  0  0  0  0  0  0
  161.3360  208.8110  154.7170 N   0  0  0  0  0  2  0  0  0  0  0  0
  160.6220  208.7380  153.4770 C   0  0  0  0  0  0  0  0  0  0  0  0
  161.2570  211.2100  155.2290 C   0  0  2  0  0  3  0  0  0  0  0  0
  163.4070  210.6720  156.7350 O   0  0  0  0  0  0  0  0  0  0  0  0
  161.1020  209.8630  155.6940 C   0  0  1  0  0  0  0  0  0  0  0  0
  160.1860  209.5930  156.7130 O   0  0  0  0  0  1  0  0  0  0  0  0
  162.3530  210.6030  156.1320 C   0  0  0  0  0  0  0  0  0  0  0  0
  160.4590  212.2270  156.0320 C   0  0  0  0  0  2  0  0  0  0  0  0
  158.2180  212.7860  155.5440 O   0  0  0  0  0  0  0  0  0  0  0  0
  159.3850  212.8300  155.1880 C   0  0  0  0  0  3  0  0  0  0  0  0
  160.8280  206.1180  143.5000 O   0  0  0  0  0  0  0  0  0  0  0  0
  161.5580  205.8670  142.3850 N   0  0  0  0  0  2  0  0  0  0  0  0
  161.5670  207.0470  141.6270 N   0  0  0  0  0  2  0  0  0  0  0  0
  162.7520  206.1190  139.7450 C   0  0  0  0  0  2  0  0  0  0  0  0
  161.9710  207.0710  140.2530 C   0  0  0  0  0  0  0  0  0  0  0  0
  161.5400  208.2000  139.3840 C   0  0  0  0  0  2  0  0  0  0  0  0
  162.1260  209.5060  139.8970 C   0  0  0  0  0  2  0  0  0  0  0  0
  161.4860  210.7440  139.2660 C   0  0  1  0  0  3  0  0  0  0  0  0
  160.0490  212.1710  140.8040 C   0  0  1  0  0  0  0  0  0  0  0  0
  159.0250  211.8730  139.8710 O   0  0  0  0  0  0  0  0  0  0  0  0
  160.2970  210.4760  138.5480 O   0  0  0  0  0  0  0  0  0  0  0  0
  159.2080  210.5470  139.4370 C   0  0  0  0  0  2  0  0  0  0  0  0
  159.9430  211.3500  141.9160 F   0  0  0  0  0  0  0  0  0  0  0  0
  161.4310  211.9920  140.1630 C   0  0  0  0  0  2  0  0  0  0  0  0
  158.6740  214.1640  141.0680 O   0  0  0  0  0  0  0  0  0  0  0  0
  158.9870  213.7920  142.3870 C   0  0  0  0  0  2  0  0  0  0  0  0
  159.9590  213.6280  141.2820 C   0  0  1  0  0  3  0  0  0  0  0  0
  1 42  1  6  0  0  0
  1 17  1  0  0  0  0
  2  7  1  6  0  0  0
  4  2  1  0  0  0  0
  4  3  1  0  0  0  0
  5  1  1  1  0  0  0
  5  2  1  0  0  0  0
  6  5  1  0  0  0  0
  6  4  1  0  0  0  0
  7 13  1  0  0  0  0
  8 10  1  0  0  0  0
  9 12  2  0  0  0  0
 10 11  2  0  0  0  0
 11 14  1  0  0  0  0
 12 11  1  0  0  0  0
 13  9  1  0  0  0  0
 13  8  2  0  0  0  0
 14 16  1  0  0  0  0
 16 15  1  0  0  0  0
 17 18  2  0  0  0  0
 17 19  1  0  0  0  0
 19 23  1  0  0  0  0
 20 29  1  0  0  0  0
 20 33  1  1  0  0  0
 21 30  1  0  0  0  0
 21 28  1  1  0  0  0
 22 21  1  0  0  0  0
 23 27  1  0  0  0  0
 23 22  1  0  0  0  0
 24 30  1  0  0  0  0
 24 26  2  0  0  0  0
 25 24  1  0  0  0  0
 27 22  1  0  0  0  0
 27 25  1  0  0  0  0
 28 29  1  0  0  0  0
 30 20  1  0  0  0  0
 31 33  2  0  0  0  0
 32 36  1  0  0  0  0
 33 32  1  0  0  0  0
 34 36  1  0  0  0  0
 34 39  1  0  0  0  0
 34 38  1  0  0  0  0
 36 38  1  0  0  0  0
 36 37  1  0  0  0  0
 38 35  2  0  0  0  0
 41 40  2  0  0  0  0
 41 39  1  0  0  0  0
 43 42  1  0  0  0  0
 44 43  1  0  0  0  0
 45 46  2  0  0  0  0
 46 44  1  0  0  0  0
 47 48  1  0  0  0  0
 47 46  1  0  0  0  0
 49 48  1  0  0  0  0
 49 55  1  0  0  0  0
 50 58  1  0  0  0  0
 50 54  1  0  0  0  0
 51 50  1  0  0  0  0
 52 49  1  0  0  0  0
 52 53  1  0  0  0  0
 53 51  1  0  0  0  0
 55 50  1  0  0  0  0
 56 58  1  0  0  0  0
 56 57  1  0  0  0  0
 58 57  1  0  0  0  0
M  END
>  <MODEL>
4

>  <REMARK>
 VINA RESULT:      -4.3      3.762     11.404
  Name = 
  19 active torsions:
  status: ('A' for Active; 'I' for Inactive)
    1  A    between atoms: N_1  and  N_6
    2  A    between atoms: N_1  and  C_57
    3  A    between atoms: C_2  and  C_46
    4  A    between atoms: C_3  and  C_5
    5  A    between atoms: C_3  and  C_22
    6  A    between atoms: N_6  and  O_56
    7  A    between atoms: C_7  and  C_38
    8  A    between atoms: C_9  and  C_51
    9  A    between atoms: C_14  and  C_35
   10  A    between atoms: C_17  and  N_54
   11  A    between atoms: C_22  and  C_57
   12  A    between atoms: C_27  and  C_43
   13  A    between atoms: C_28  and  C_43
   14  A    between atoms: C_30  and  N_42
   15  A    between atoms: C_32  and  C_35
   16  A    between atoms: C_37  and  C_39
   17  A    between atoms: C_37  and  O_45
   18  A    between atoms: C_38  and  C_49
   19  A    between atoms: C_43  and  O_56
                            x       y       z     vdW  Elec       q    Type
                         _______ _______ _______ _____ _____    ______ ____

>  <TORSDO>
F 19

$$$$
=
 OpenBabel11042420063D

 58 65  0  0  1  0  0  0  0  0999 V2000
  161.6780  205.7790  144.5500 C   0  0  2  0  0  3  0  0  0  0  0  0
  162.0150  204.0150  146.2880 C   0  0  1  0  0  3  0  0  0  0  0  0
  164.1920  204.6360  146.6940 N   0  0  0  0  0  1  0  0  0  0  0  0
  163.4090  203.6150  146.1370 N   0  0  0  0  0  0  0  0  0  0  0  0
  161.8430  204.2850  144.8060 C   0  0  2  0  0  3  0  0  0  0  0  0
  163.3020  203.8920  144.7090 C   0  0  0  0  0  2  0  0  0  0  0  0
  161.1650  202.8170  146.6890 C   0  0  0  0  0  2  0  0  0  0  0  0
  161.1060  203.8760  148.9550 C   0  0  0  0  0  3  0  0  0  0  0  0
  160.9020  201.4660  148.7820 C   0  0  0  0  0  3  0  0  0  0  0  0
  161.0300  203.7820  150.3480 C   0  0  0  0  0  3  0  0  0  0  0  0
  160.8970  202.5290  150.9600 C   0  0  0  0  0  0  0  0  0  0  0  0
  160.8240  201.3740  150.1760 C   0  0  0  0  0  3  0  0  0  0  0  0
  161.0500  202.7180  148.1710 C   0  0  0  0  0  0  0  0  0  0  0  0
  160.8270  202.4270  152.4460 C   0  0  0  0  0  2  0  0  0  0  0  0
  160.9990  204.4600  153.2850 C   0  0  0  0  0  1  0  0  0  0  0  0
  160.0620  203.4760  152.9620 O   0  0  0  0  0  0  0  0  0  0  0  0
  161.1510  206.4730  145.7680 C   0  0  0  0  0  0  0  0  0  0  0  0
  159.9060  206.5580  145.9650 O   0  0  0  0  0  0  0  0  0  0  0  0
  162.0710  207.0470  146.6930 N   0  0  0  0  0  2  0  0  0  0  0  0
  160.9150  208.0350  152.3490 C   0  0  2  0  0  3  0  0  0  0  0  0
  161.7740  207.1550  150.3880 C   0  0  1  0  0  3  0  0  0  0  0  0
  162.5480  207.2660  149.0530 C   0  0  1  0  0  3  0  0  0  0  0  0
  161.6300  207.6850  147.9210 C   0  0  1  0  0  3  0  0  0  0  0  0
  161.8080  209.6030  150.5210 C   0  0  0  0  0  0  0  0  0  0  0  0
  162.0230  209.8510  149.0730 C   0  0  0  0  0  2  0  0  0  0  0  0
  162.3100  210.3440  151.3530 O   0  0  0  0  0  0  0  0  0  0  0  0
  162.7040  208.6550  148.3960 C   0  0  1  0  0  3  0  0  0  0  0  0
  162.6280  206.6860  151.4110 O   0  0  0  0  0  0  0  0  0  0  0  0
  162.1870  207.2650  152.6200 C   0  0  0  0  0  2  0  0  0  0  0  0
  161.0140  208.3750  150.8820 C   0  0  2  0  0  3  0  0  0  0  0  0
  161.2060  209.2040  154.4080 O   0  0  0  0  0  0  0  0  0  0  0  0
  159.7320  210.2240  152.9100 N   0  0  0  0  0  2  0  0  0  0  0  0
  160.6350  209.1770  153.2840 C   0  0  0  0  0  0  0  0  0  0  0  0
  158.1580  211.2180  154.5100 C   0  0  2  0  0  3  0  0  0  0  0  0
  157.7730  213.0310  152.5740 O   0  0  0  0  0  0  0  0  0  0  0  0
  159.3980  211.3260  153.8000 C   0  0  1  0  0  0  0  0  0  0  0  0
  160.4620  212.0170  154.3840 O   0  0  0  0  0  1  0  0  0  0  0  0
  158.2530  212.1970  153.3190 C   0  0  0  0  0  0  0  0  0  0  0  0
  158.1270  212.0150  155.8060 C   0  0  0  0  0  2  0  0  0  0  0  0
  155.7760  211.9820  156.0180 O   0  0  0  0  0  0  0  0  0  0  0  0
  156.8550  211.7590  156.5440 C   0  0  0  0  0  3  0  0  0  0  0  0
  160.8110  205.9820  143.4720 O   0  0  0  0  0  0  0  0  0  0  0  0
  161.5720  205.7780  142.3680 N   0  0  0  0  0  2  0  0  0  0  0  0
  161.5980  206.9870  141.6590 N   0  0  0  0  0  2  0  0  0  0  0  0
  162.6520  206.0260  139.7170 C   0  0  0  0  0  2  0  0  0  0  0  0
  162.1230  207.0840  140.3300 C   0  0  0  0  0  0  0  0  0  0  0  0
  162.1120  208.3990  139.6340 C   0  0  0  0  0  2  0  0  0  0  0  0
  160.6790  208.8640  139.4190 C   0  0  0  0  0  2  0  0  0  0  0  0
  160.5800  210.3180  138.9540 C   0  0  1  0  0  3  0  0  0  0  0  0
  162.0030  212.0000  140.2220 C   0  0  1  0  0  0  0  0  0  0  0  0
  160.7560  212.6090  140.5080 O   0  0  0  0  0  0  0  0  0  0  0  0
  159.4590  211.0120  139.4650 O   0  0  0  0  0  0  0  0  0  0  0  0
  159.8100  211.5860  140.7020 C   0  0  0  0  0  2  0  0  0  0  0  0
  162.4280  211.2390  141.3000 F   0  0  0  0  0  0  0  0  0  0  0  0
  161.8970  211.1120  138.9760 C   0  0  0  0  0  2  0  0  0  0  0  0
  162.7790  213.8020  138.7790 O   0  0  0  0  0  0  0  0  0  0  0  0
  162.5520  214.4330  140.0150 C   0  0  0  0  0  2  0  0  0  0  0  0
  163.0830  213.0540  139.9330 C   0  0  1  0  0  3  0  0  0  0  0  0
  1 42  1  6  0  0  0
  1 17  1  0  0  0  0
  2  7  1  6  0  0  0
  4  2  1  0  0  0  0
  4  3  1  0  0  0  0
  5  1  1  1  0  0  0
  5  2  1  0  0  0  0
  6  5  1  0  0  0  0
  6  4  1  0  0  0  0
  7 13  1  0  0  0  0
  8 10  1  0  0  0  0
  9 12  2  0  0  0  0
 10 11  2  0  0  0  0
 11 14  1  0  0  0  0
 12 11  1  0  0  0  0
 13  9  1  0  0  0  0
 13  8  2  0  0  0  0
 14 16  1  0  0  0  0
 16 15  1  0  0  0  0
 17 18  2  0  0  0  0
 17 19  1  0  0  0  0
 19 23  1  0  0  0  0
 20 29  1  0  0  0  0
 20 33  1  1  0  0  0
 21 30  1  0  0  0  0
 21 28  1  1  0  0  0
 22 21  1  0  0  0  0
 23 27  1  0  0  0  0
 23 22  1  0  0  0  0
 24 30  1  0  0  0  0
 24 26  2  0  0  0  0
 25 24  1  0  0  0  0
 27 22  1  0  0  0  0
 27 25  1  0  0  0  0
 28 29  1  0  0  0  0
 30 20  1  0  0  0  0
 32 33  1  0  0  0  0
 32 36  1  0  0  0  0
 33 31  2  0  0  0  0
 34 39  1  0  0  0  0
 35 38  2  0  0  0  0
 36 37  1  0  0  0  0
 36 34  1  0  0  0  0
 38 36  1  0  0  0  0
 38 34  1  0  0  0  0
 39 41  1  0  0  0  0
 40 41  2  0  0  0  0
 43 42  1  0  0  0  0
 44 43  1  0  0  0  0
 45 46  2  0  0  0  0
 46 44  1  0  0  0  0
 47 46  1  0  0  0  0
 48 47  1  0  0  0  0
 49 55  1  0  0  0  0
 49 48  1  0  0  0  0
 49 52  1  0  0  0  0
 50 51  1  0  0  0  0
 50 54  1  0  0  0  0
 51 53  1  0  0  0  0
 52 53  1  0  0  0  0
 55 50  1  0  0  0  0
 56 58  1  0  0  0  0
 56 57  1  0  0  0  0
 58 57  1  0  0  0  0
 58 50  1  0  0  0  0
M  END
>  <MODEL>
5

>  <REMARK>
 VINA RESULT:      -4.2      3.799     11.455
  Name = 
  19 active torsions:
  status: ('A' for Active; 'I' for Inactive)
    1  A    between atoms: N_1  and  N_6
    2  A    between atoms: N_1  and  C_57
    3  A    between atoms: C_2  and  C_46
    4  A    between atoms: C_3  and  C_5
    5  A    between atoms: C_3  and  C_22
    6  A    between atoms: N_6  and  O_56
    7  A    between atoms: C_7  and  C_38
    8  A    between atoms: C_9  and  C_51
    9  A    between atoms: C_14  and  C_35
   10  A    between atoms: C_17  and  N_54
   11  A    between atoms: C_22  and  C_57
   12  A    between atoms: C_27  and  C_43
   13  A    between atoms: C_28  and  C_43
   14  A    between atoms: C_30  and  N_42
   15  A    between atoms: C_32  and  C_35
   16  A    between atoms: C_37  and  C_39
   17  A    between atoms: C_37  and  O_45
   18  A    between atoms: C_38  and  C_49
   19  A    between atoms: C_43  and  O_56
                            x       y       z     vdW  Elec       q    Type
                         _______ _______ _______ _____ _____    ______ ____

>  <TORSDO>
F 19

$$$$
