=
 OpenBabel11042421013D

 59 68  0  0  1  0  0  0  0  0999 V2000
  160.0840  213.2600  148.7120 C   0  0  0  0  0  0  0  0  0  0  0  0
  158.9490  214.0850  148.8140 C   0  0  0  0  0  3  0  0  0  0  0  0
  160.7260  212.8290  149.8950 C   0  0  0  0  0  0  0  0  0  0  0  0
  160.2130  213.2140  151.1380 C   0  0  0  0  0  3  0  0  0  0  0  0
  159.0690  214.0130  151.2350 C   0  0  0  0  0  0  0  0  0  0  0  0
  158.4420  214.4530  150.0650 C   0  0  0  0  0  3  0  0  0  0  0  0
  157.7430  210.5920  155.3860 N   0  0  0  0  0  2  0  0  0  0  0  0
  159.7710  212.7810  155.7730 C   0  0  0  0  0  2  0  0  0  0  0  0
  155.6180  211.4740  156.1980 C   0  0  0  0  0  1  0  0  0  0  0  0
  157.0540  213.3260  152.4330 C   0  0  1  0  0  3  0  0  0  0  0  0
  155.2000  213.1340  153.8020 O   0  0  0  0  0  0  0  0  0  0  0  0
  159.2060  213.6770  153.6290 N   0  0  0  0  0  0  0  0  0  0  0  0
  158.3540  214.1260  152.5450 C   0  0  1  0  0  3  0  0  0  0  0  0
  158.9920  210.4160  156.1170 C   0  0  0  0  0  2  0  0  0  0  0  0
  157.0790  211.7780  155.9220 C   0  0  2  0  0  3  0  0  0  0  0  0
  156.5000  212.7670  153.6660 C   0  0  1  0  0  0  0  0  0  0  0  0
  161.4030  210.9740  156.2420 C   0  0  0  0  0  1  0  0  0  0  0  0
  157.2780  212.9890  154.9820 C   0  0  2  0  0  3  0  0  0  0  0  0
  158.7620  213.2540  154.7610 C   0  0  0  0  0  0  0  0  0  0  0  0
  160.0950  211.3100  155.5530 C   0  0  2  0  0  3  0  0  0  0  0  0
  156.0150  214.0580  153.1690 N   0  0  1  0  0  0  0  0  0  0  0  0
  161.2630  213.7010  146.5030 C   0  0  0  0  0  2  0  0  0  0  0  0
  160.4650  212.3390  144.5030 O   0  0  0  0  0  0  0  0  0  0  0  0
  158.1810  212.2180  147.0070 O   0  0  0  0  0  0  0  0  0  0  0  0
  160.4930  212.6960  147.3700 C   0  0  2  0  0  3  0  0  0  0  0  0
  162.0310  214.0640  144.2390 N   0  0  0  0  0  0  0  0  0  0  0  0
  159.3280  212.1360  146.6020 C   0  0  0  0  0  0  0  0  0  0  0  0
  159.6250  211.4970  145.2910 C   0  0  0  0  0  2  0  0  0  0  0  0
  161.2970  213.3430  145.0320 C   0  0  0  0  0  0  0  0  0  0  0  0
  162.1500  213.8640  142.8190 C   0  0  0  0  0  0  0  0  0  0  0  0
  163.1480  213.2620  142.3400 O   0  0  0  0  0  0  0  0  0  0  0  0
  158.8530  213.2170  142.2150 C   0  0  0  0  0  2  0  0  0  0  0  0
  161.1410  211.7770  138.9880 C   0  0  0  0  0  0  0  0  0  0  0  0
  160.0010  211.1030  139.2610 C   0  0  0  0  0  0  0  0  0  0  0  0
  158.6800  209.1900  138.7960 O   0  0  0  0  0  0  0  0  0  0  0  0
  161.0630  214.3270  141.8810 C   0  0  2  0  0  3  0  0  0  0  0  0
  162.0290  211.4040  137.8260 C   0  0  0  0  0  2  0  0  0  0  0  0
  159.6470  209.9290  138.4550 C   0  0  0  0  0  0  0  0  0  0  0  0
  160.4430  209.5810  137.3230 N   0  0  0  0  0  0  0  0  0  0  0  0
  159.7040  214.4370  142.6130 C   0  0  0  0  0  2  0  0  0  0  0  0
  159.5760  212.6150  141.1190 N   0  0  0  0  0  0  0  0  0  0  0  0
  159.1630  211.5190  140.3520 N   0  0  0  0  0  2  0  0  0  0  0  0
  161.5690  212.9040  139.8560 C   0  0  0  0  0  3  0  0  0  0  0  0
  161.5190  210.2370  137.0130 C   0  0  0  0  0  3  0  0  0  0  0  0
  160.7890  213.2740  140.8740 C   0  0  0  0  0  0  0  0  0  0  0  0
  161.8800  211.8650  149.8630 C   0  0  0  0  0  2  0  0  0  0  0  0
  161.6990  210.7810  150.9230 C   0  0  0  0  0  2  0  0  0  0  0  0
  162.1180  208.0370  148.4170 N   0  0  0  0  0  0  0  0  0  0  0  0
  161.3170  208.3080  151.0390 C   0  0  0  0  0  3  0  0  0  0  0  0
  161.2950  207.0440  150.4420 C   0  0  0  0  0  0  0  0  0  0  0  0
  161.7200  206.9260  149.0970 C   0  0  0  0  0  0  0  0  0  0  0  0
  162.1380  209.2690  148.9920 C   0  0  0  0  0  3  0  0  0  0  0  0
  161.7380  209.4250  150.3170 C   0  0  0  0  0  0  0  0  0  0  0  0
  161.6820  205.1160  151.9670 C   0  0  0  0  0  1  0  0  0  0  0  0
  160.8350  205.9620  151.2080 O   0  0  0  0  0  0  0  0  0  0  0  0
  161.7560  205.6750  148.4690 O   0  0  0  0  0  0  0  0  0  0  0  0
  161.5850  205.5060  147.0620 C   0  0  0  0  0  2  0  0  0  0  0  0
  160.4410  206.0850  145.2580 C   0  0  0  0  0  1  0  0  0  0  0  0
  160.3470  206.0040  146.6510 O   0  0  0  0  0  0  0  0  0  0  0  0
  1  2  2  0  0  0  0
  1  3  1  0  0  0  0
  2  6  1  0  0  0  0
  3  4  2  0  0  0  0
  4  5  1  0  0  0  0
  5 13  1  0  0  0  0
  6  5  2  0  0  0  0
  7 15  1  0  0  0  0
  7 14  1  0  0  0  0
 10 13  1  0  0  0  0
 10 21  1  0  0  0  0
 10 16  1  0  0  0  0
 12 19  2  0  0  0  0
 13 12  1  0  0  0  0
 15  9  1  0  0  0  0
 16 11  1  0  0  0  0
 16 18  1  0  0  0  0
 18 15  1  0  0  0  0
 19 18  1  0  0  0  0
 19  8  1  0  0  0  0
 20  8  1  0  0  0  0
 20 14  1  0  0  0  0
 20 17  1  0  0  0  0
 21 16  1  0  0  0  0
 21 11  1  0  0  0  0
 22 25  1  0  0  0  0
 23 29  1  0  0  0  0
 23 28  1  0  0  0  0
 25  1  1  0  0  0  0
 26 29  2  0  0  0  0
 27 24  2  0  0  0  0
 27 25  1  0  0  0  0
 28 27  1  0  0  0  0
 29 22  1  0  0  0  0
 30 26  1  0  0  0  0
 31 30  2  0  0  0  0
 32 40  1  0  0  0  0
 33 34  2  0  0  0  0
 33 43  1  0  0  0  0
 34 42  1  0  0  0  0
 36 40  1  0  0  0  0
 36 30  1  0  0  0  0
 37 33  1  0  0  0  0
 38 35  2  0  0  0  0
 38 34  1  0  0  0  0
 39 38  1  0  0  0  0
 41 32  1  0  0  0  0
 42 41  1  0  0  0  0
 43 45  2  0  0  0  0
 44 39  2  0  0  0  0
 44 37  1  0  0  0  0
 45 41  1  0  0  0  0
 45 36  1  0  0  0  0
 46  3  1  0  0  0  0
 46 47  1  0  0  0  0
 48 52  1  0  0  0  0
 48 51  2  0  0  0  0
 50 49  2  0  0  0  0
 50 55  1  0  0  0  0
 51 50  1  0  0  0  0
 52 53  2  0  0  0  0
 53 47  1  0  0  0  0
 53 49  1  0  0  0  0
 55 54  1  0  0  0  0
 56 51  1  0  0  0  0
 57 56  1  0  0  0  0
 58 59  1  0  0  0  0
 59 57  1  0  0  0  0
M  END
>  <MODEL>
1

>  <REMARK>
 VINA RESULT:      -4.6      0.000      0.000
  Name = 
  11 active torsions:
  status: ('A' for Active; 'I' for Inactive)
    1  A    between atoms: C_10  and  C_24
    2  A    between atoms: C_10  and  N_44
    3  A    between atoms: C_13  and  C_43
    4  A    between atoms: C_13  and  C_53
    5  A    between atoms: C_14  and  C_32
    6  A    between atoms: C_20  and  C_51
    7  A    between atoms: C_25  and  O_45
    8  A    between atoms: C_29  and  O_52
    9  A    between atoms: C_29  and  O_57
   10  A    between atoms: C_33  and  C_53
   11  A    between atoms: C_36  and  O_57
                            x       y       z     vdW  Elec       q    Type
                         _______ _______ _______ _____ _____    ______ ____

>  <TORSDO>
F 11

$$$$
=
 OpenBabel11042421013D

 59 69  0  0  1  0  0  0  0  0999 V2000
  158.4860  214.0780  148.5540 C   0  0  0  0  0  0  0  0  0  0  0  0
  157.8240  214.0610  147.3130 C   0  0  0  0  0  3  0  0  0  0  0  0
  159.8990  214.0320  148.5770 C   0  0  0  0  0  0  0  0  0  0  0  0
  160.6070  213.9900  147.3730 C   0  0  0  0  0  3  0  0  0  0  0  0
  159.9450  214.0000  146.1400 C   0  0  0  0  0  0  0  0  0  0  0  0
  158.5480  214.0290  146.1160 C   0  0  0  0  0  3  0  0  0  0  0  0
  160.4110  211.7580  141.0960 N   0  0  0  0  0  2  0  0  0  0  0  0
  159.1020  214.4400  141.4820 C   0  0  0  0  0  2  0  0  0  0  0  0
  162.7290  212.2080  140.4810 C   0  0  0  0  0  1  0  0  0  0  0  0
  161.7290  213.1680  144.6930 C   0  0  1  0  0  3  0  0  0  0  0  0
  163.5050  212.8820  143.2400 O   0  0  0  0  0  0  0  0  0  0  0  0
  159.8130  214.4530  143.7650 N   0  0  0  0  0  0  0  0  0  0  0  0
  160.7140  214.2960  144.8910 C   0  0  1  0  0  3  0  0  0  0  0  0
  159.1930  212.1700  140.4070 C   0  0  0  0  0  2  0  0  0  0  0  0
  161.4040  212.8130  140.9070 C   0  0  2  0  0  3  0  0  0  0  0  0
  162.1500  212.8720  143.3240 C   0  0  1  0  0  0  0  0  0  0  0  0
  157.0450  213.3950  140.5740 C   0  0  0  0  0  1  0  0  0  0  0  0
  161.5190  213.6900  142.1750 C   0  0  2  0  0  3  0  0  0  0  0  0
  160.1630  214.2830  142.5380 C   0  0  0  0  0  0  0  0  0  0  0  0
  158.3670  213.1250  141.2670 C   0  0  2  0  0  3  0  0  0  0  0  0
  162.9610  213.7630  144.1600 N   0  0  1  0  0  0  0  0  0  0  0  0
  158.1820  213.4670  151.0030 C   0  0  2  0  0  3  0  0  0  0  0  0
  155.8450  213.7840  151.9670 O   0  0  0  0  0  0  0  0  0  0  0  0
  155.7410  213.7950  148.5780 O   0  0  0  0  0  0  0  0  0  0  0  0
  157.7070  214.3280  149.8260 C   0  0  2  0  0  3  0  0  0  0  0  0
  157.5380  212.7580  153.2240 N   0  0  0  0  0  0  0  0  0  0  0  0
  156.2240  214.1680  149.6330 C   0  0  0  0  0  0  0  0  0  0  0  0
  155.3540  214.4530  150.8070 C   0  0  0  0  0  2  0  0  0  0  0  0
  157.1770  213.3600  152.1310 C   0  0  0  0  0  0  0  0  0  0  0  0
  156.6920  212.5580  154.3710 C   0  0  0  0  0  0  0  0  0  0  0  0
  155.5140  212.1330  154.2280 O   0  0  0  0  0  0  0  0  0  0  0  0
  159.2860  214.1890  155.8750 C   0  0  0  0  0  2  0  0  0  0  0  0
  159.8380  210.0390  156.3200 C   0  0  0  0  0  0  0  0  0  0  0  0
  160.9620  210.7880  156.2490 C   0  0  0  0  0  0  0  0  0  0  0  0
  163.3260  210.7880  156.0770 O   0  0  0  0  0  0  0  0  0  0  0  0
  157.2100  212.8070  155.7650 C   0  0  2  0  0  3  0  0  0  0  0  0
  159.8880  208.5460  156.5350 C   0  0  0  0  0  2  0  0  0  0  0  0
  162.2720  210.1310  156.3080 C   0  0  0  0  0  0  0  0  0  0  0  0
  162.3490  208.7270  156.5550 N   0  0  0  0  0  0  0  0  0  0  0  0
  157.7470  214.2510  155.9100 C   0  0  0  0  0  2  0  0  0  0  0  0
  159.5920  212.7820  155.9860 N   0  0  0  0  0  0  0  0  0  0  0  0
  160.8680  212.2140  156.0870 N   0  0  0  0  0  2  0  0  0  0  0  0
  158.5050  210.6740  156.1600 C   0  0  0  0  0  3  0  0  0  0  0  0
  161.2870  207.9910  156.6700 C   0  0  0  0  0  3  0  0  0  0  0  0
  158.4300  211.9970  155.9970 C   0  0  0  0  0  0  0  0  0  0  0  0
  160.6730  214.1510  149.8610 C   0  0  0  0  0  2  0  0  0  0  0  0
  160.1120  213.1960  150.9120 C   0  0  2  0  0  3  0  0  0  0  0  0
  162.1700  210.3070  149.7280 N   0  0  0  0  0  0  0  0  0  0  0  0
  160.7350  211.0130  151.9720 C   0  0  0  0  0  3  0  0  0  0  0  0
  161.3610  209.7640  151.9220 C   0  0  0  0  0  0  0  0  0  0  0  0
  162.1020  209.4250  150.7650 C   0  0  0  0  0  0  0  0  0  0  0  0
  161.5600  211.5210  149.7690 C   0  0  0  0  0  3  0  0  0  0  0  0
  160.8310  211.8970  150.8960 C   0  0  0  0  0  0  0  0  0  0  0  0
  160.9090  207.5250  152.9090 C   0  0  0  0  0  1  0  0  0  0  0  0
  161.2060  208.9060  153.0220 O   0  0  0  0  0  0  0  0  0  0  0  0
  162.7820  208.2040  150.6860 O   0  0  0  0  0  0  0  0  0  0  0  0
  162.3110  207.1000  149.9130 C   0  0  0  0  0  2  0  0  0  0  0  0
  160.5100  206.1590  149.0350 C   0  0  0  0  0  1  0  0  0  0  0  0
  161.0860  207.4030  149.3140 O   0  0  0  0  0  0  0  0  0  0  0  0
  1  3  1  0  0  0  0
  1 25  1  0  0  0  0
  2  1  2  0  0  0  0
  3 46  1  0  0  0  0
  4  3  2  0  0  0  0
  5  4  1  0  0  0  0
  6  5  2  0  0  0  0
  6  2  1  0  0  0  0
  8 19  1  0  0  0  0
  9 15  1  0  0  0  0
 10 13  1  0  0  0  0
 11 16  1  0  0  0  0
 11 21  1  0  0  0  0
 12 13  1  0  0  0  0
 13  5  1  0  0  0  0
 14  7  1  0  0  0  0
 14 20  1  0  0  0  0
 15  7  1  0  0  0  0
 15 18  1  0  0  0  0
 16 21  1  0  0  0  0
 16 10  1  0  0  0  0
 17 20  1  0  0  0  0
 18 19  1  0  0  0  0
 18 16  1  0  0  0  0
 19 12  2  0  0  0  0
 20  8  1  0  0  0  0
 21 10  1  0  0  0  0
 22 29  1  0  0  0  0
 23 29  1  0  0  0  0
 24 27  2  0  0  0  0
 25 22  1  0  0  0  0
 26 30  1  0  0  0  0
 27 25  1  0  0  0  0
 27 28  1  0  0  0  0
 28 23  1  0  0  0  0
 29 26  2  0  0  0  0
 30 36  1  0  0  0  0
 31 30  2  0  0  0  0
 32 40  1  0  0  0  0
 32 41  1  0  0  0  0
 33 37  1  0  0  0  0
 34 38  1  0  0  0  0
 34 33  2  0  0  0  0
 35 38  2  0  0  0  0
 36 40  1  0  0  0  0
 36 45  1  0  0  0  0
 37 44  1  0  0  0  0
 38 39  1  0  0  0  0
 39 44  2  0  0  0  0
 41 45  1  0  0  0  0
 41 42  1  0  0  0  0
 42 34  1  0  0  0  0
 43 33  1  0  0  0  0
 45 43  2  0  0  0  0
 46 47  1  0  0  0  0
 47 22  1  0  0  0  0
 48 52  1  0  0  0  0
 48 51  2  0  0  0  0
 50 49  2  0  0  0  0
 50 55  1  0  0  0  0
 51 50  1  0  0  0  0
 52 53  2  0  0  0  0
 53 47  1  0  0  0  0
 53 49  1  0  0  0  0
 54 55  1  0  0  0  0
 56 51  1  0  0  0  0
 57 56  1  0  0  0  0
 58 59  1  0  0  0  0
 59 57  1  0  0  0  0
M  END
>  <MODEL>
2

>  <REMARK>
 VINA RESULT:      -3.7      2.123     11.357
  Name = 
  11 active torsions:
  status: ('A' for Active; 'I' for Inactive)
    1  A    between atoms: C_10  and  C_24
    2  A    between atoms: C_10  and  N_44
    3  A    between atoms: C_13  and  C_43
    4  A    between atoms: C_13  and  C_53
    5  A    between atoms: C_14  and  C_32
    6  A    between atoms: C_20  and  C_51
    7  A    between atoms: C_25  and  O_45
    8  A    between atoms: C_29  and  O_52
    9  A    between atoms: C_29  and  O_57
   10  A    between atoms: C_33  and  C_53
   11  A    between atoms: C_36  and  O_57
                            x       y       z     vdW  Elec       q    Type
                         _______ _______ _______ _____ _____    ______ ____

>  <TORSDO>
F 11

$$$$
=
 OpenBabel11042421013D

 59 68  0  0  1  0  0  0  0  0999 V2000
  160.9580  206.5160  152.2040 C   0  0  0  0  0  0  0  0  0  0  0  0
  161.1910  205.1720  152.5500 C   0  0  0  0  0  3  0  0  0  0  0  0
  161.2500  206.9450  150.8900 C   0  0  0  0  0  0  0  0  0  0  0  0
  161.7470  206.0280  149.9590 C   0  0  0  0  0  3  0  0  0  0  0  0
  161.9530  204.6870  150.2990 C   0  0  0  0  0  0  0  0  0  0  0  0
  161.6790  204.2640  151.6040 C   0  0  0  0  0  3  0  0  0  0  0  0
  159.5130  203.4140  145.4910 N   0  0  0  0  0  2  0  0  0  0  0  0
  162.2890  204.5760  145.5580 C   0  0  0  0  0  2  0  0  0  0  0  0
  159.7860  200.9950  145.3330 C   0  0  0  0  0  1  0  0  0  0  0  0
  160.9540  202.7220  149.2470 C   0  0  1  0  0  3  0  0  0  0  0  0
  160.5010  200.7220  148.1770 O   0  0  0  0  0  0  0  0  0  0  0  0
  162.3310  204.3230  147.9350 N   0  0  0  0  0  0  0  0  0  0  0  0
  162.1530  203.6720  149.2190 C   0  0  1  0  0  3  0  0  0  0  0  0
  159.9810  204.4430  144.5690 C   0  0  0  0  0  2  0  0  0  0  0  0
  160.4930  202.3300  145.4780 C   0  0  2  0  0  3  0  0  0  0  0  0
  160.5850  202.0650  147.9940 C   0  0  1  0  0  0  0  0  0  0  0  0
  161.3520  206.4880  144.2860 C   0  0  0  0  0  1  0  0  0  0  0  0
  161.4030  202.4000  146.7260 C   0  0  2  0  0  3  0  0  0  0  0  0
  162.0970  203.7540  146.8050 C   0  0  0  0  0  0  0  0  0  0  0  0
  161.0190  205.3490  145.2300 C   0  0  2  0  0  3  0  0  0  0  0  0
  161.4470  201.3700  148.9540 N   0  0  1  0  0  0  0  0  0  0  0  0
  160.4920  208.9190  152.8930 C   0  0  0  0  0  2  0  0  0  0  0  0
  159.9150  209.3010  155.3450 O   0  0  0  0  0  0  0  0  0  0  0  0
  161.3410  206.2530  154.9250 O   0  0  0  0  0  0  0  0  0  0  0  0
  160.2330  207.4310  153.1660 C   0  0  2  0  0  3  0  0  0  0  0  0
  160.2290  211.1090  153.8840 N   0  0  0  0  0  0  0  0  0  0  0  0
  160.5340  207.1090  154.6040 C   0  0  0  0  0  0  0  0  0  0  0  0
  159.8240  207.9090  155.6390 C   0  0  0  0  0  2  0  0  0  0  0  0
  160.1640  209.8230  154.0620 C   0  0  0  0  0  0  0  0  0  0  0  0
  159.9690  212.0940  154.9000 C   0  0  0  0  0  0  0  0  0  0  0  0
  159.9290  211.7630  156.1150 O   0  0  0  0  0  0  0  0  0  0  0  0
  157.5020  214.4520  154.9800 C   0  0  0  0  0  2  0  0  0  0  0  0
  158.3210  213.4660  150.9700 C   0  0  0  0  0  0  0  0  0  0  0  0
  157.0500  213.8360  151.2470 C   0  0  0  0  0  0  0  0  0  0  0  0
  154.8300  214.0320  150.4400 O   0  0  0  0  0  0  0  0  0  0  0  0
  159.7860  213.5460  154.5380 C   0  0  2  0  0  3  0  0  0  0  0  0
  158.7670  213.1390  149.5660 C   0  0  0  0  0  2  0  0  0  0  0  0
  156.0520  213.8530  150.1730 C   0  0  0  0  0  0  0  0  0  0  0  0
  156.4560  213.5920  148.8290 N   0  0  0  0  0  0  0  0  0  0  0  0
  158.9080  214.2760  155.5830 C   0  0  0  0  0  2  0  0  0  0  0  0
  157.6600  214.0990  153.5890 N   0  0  0  0  0  0  0  0  0  0  0  0
  156.6790  214.1810  152.5930 N   0  0  0  0  0  2  0  0  0  0  0  0
  159.3200  213.3440  152.0630 C   0  0  0  0  0  3  0  0  0  0  0  0
  157.6780  213.2760  148.5270 C   0  0  0  0  0  3  0  0  0  0  0  0
  158.9610  213.6550  153.3100 C   0  0  0  0  0  0  0  0  0  0  0  0
  160.9300  208.3390  150.4230 C   0  0  0  0  0  2  0  0  0  0  0  0
  162.1800  209.0170  149.8690 C   0  0  0  0  0  2  0  0  0  0  0  0
  160.8400  210.9490  146.9610 N   0  0  0  0  0  0  0  0  0  0  0  0
  162.2530  211.4490  149.2730 C   0  0  0  0  0  3  0  0  0  0  0  0
  161.9720  212.5030  148.3990 C   0  0  0  0  0  0  0  0  0  0  0  0
  161.2360  212.2270  147.2220 C   0  0  0  0  0  0  0  0  0  0  0  0
  161.1140  209.9200  147.8060 C   0  0  0  0  0  3  0  0  0  0  0  0
  161.8260  210.1530  148.9800 C   0  0  0  0  0  0  0  0  0  0  0  0
  163.4940  214.4370  148.0320 C   0  0  0  0  0  1  0  0  0  0  0  0
  162.4510  213.7800  148.7310 O   0  0  0  0  0  0  0  0  0  0  0  0
  160.8930  213.2560  146.3370 O   0  0  0  0  0  0  0  0  0  0  0  0
  161.3820  213.3260  144.9980 C   0  0  0  0  0  2  0  0  0  0  0  0
  163.1340  213.4550  143.6510 C   0  0  0  0  0  1  0  0  0  0  0  0
  162.7490  213.6180  144.9850 O   0  0  0  0  0  0  0  0  0  0  0  0
  1  2  1  0  0  0  0
  1 25  1  0  0  0  0
  3  1  2  0  0  0  0
  4  5  2  0  0  0  0
  4  3  1  0  0  0  0
  5  6  1  0  0  0  0
  6  2  2  0  0  0  0
  8 19  1  0  0  0  0
  9 15  1  0  0  0  0
 11 21  1  0  0  0  0
 12 13  1  0  0  0  0
 13 10  1  0  0  0  0
 13  5  1  0  0  0  0
 14 20  1  0  0  0  0
 14  7  1  0  0  0  0
 15  7  1  0  0  0  0
 15 18  1  0  0  0  0
 16 11  1  0  0  0  0
 16 21  1  0  0  0  0
 16 10  1  0  0  0  0
 17 20  1  0  0  0  0
 18 19  1  0  0  0  0
 18 16  1  0  0  0  0
 19 12  2  0  0  0  0
 20  8  1  0  0  0  0
 21 10  1  0  0  0  0
 22 25  1  0  0  0  0
 22 29  1  0  0  0  0
 23 28  1  0  0  0  0
 25 27  1  0  0  0  0
 26 29  2  0  0  0  0
 26 30  1  0  0  0  0
 27 24  2  0  0  0  0
 27 28  1  0  0  0  0
 29 23  1  0  0  0  0
 30 31  2  0  0  0  0
 32 40  1  0  0  0  0
 33 34  2  0  0  0  0
 33 43  1  0  0  0  0
 34 42  1  0  0  0  0
 36 30  1  0  0  0  0
 36 40  1  0  0  0  0
 37 33  1  0  0  0  0
 38 35  2  0  0  0  0
 38 34  1  0  0  0  0
 39 38  1  0  0  0  0
 41 32  1  0  0  0  0
 42 41  1  0  0  0  0
 43 45  2  0  0  0  0
 44 39  2  0  0  0  0
 44 37  1  0  0  0  0
 45 41  1  0  0  0  0
 45 36  1  0  0  0  0
 46  3  1  0  0  0  0
 47 46  1  0  0  0  0
 48 51  2  0  0  0  0
 48 52  1  0  0  0  0
 50 55  1  0  0  0  0
 50 49  2  0  0  0  0
 51 50  1  0  0  0  0
 52 53  2  0  0  0  0
 53 49  1  0  0  0  0
 53 47  1  0  0  0  0
 54 55  1  0  0  0  0
 56 51  1  0  0  0  0
 57 56  1  0  0  0  0
 58 59  1  0  0  0  0
 59 57  1  0  0  0  0
M  END
>  <MODEL>
3

>  <REMARK>
 VINA RESULT:      -2.8      3.586     10.901
  Name = 
  11 active torsions:
  status: ('A' for Active; 'I' for Inactive)
    1  A    between atoms: C_10  and  C_24
    2  A    between atoms: C_10  and  N_44
    3  A    between atoms: C_13  and  C_43
    4  A    between atoms: C_13  and  C_53
    5  A    between atoms: C_14  and  C_32
    6  A    between atoms: C_20  and  C_51
    7  A    between atoms: C_25  and  O_45
    8  A    between atoms: C_29  and  O_52
    9  A    between atoms: C_29  and  O_57
   10  A    between atoms: C_33  and  C_53
   11  A    between atoms: C_36  and  O_57
                            x       y       z     vdW  Elec       q    Type
                         _______ _______ _______ _____ _____    ______ ____

>  <TORSDO>
F 11

$$$$
=
 OpenBabel11042421013D

 59 68  0  0  1  0  0  0  0  0999 V2000
  160.9710  206.6050  152.3490 C   0  0  0  0  0  0  0  0  0  0  0  0
  161.2660  205.2600  152.6390 C   0  0  0  0  0  3  0  0  0  0  0  0
  161.2290  207.0970  151.0490 C   0  0  0  0  0  0  0  0  0  0  0  0
  161.7520  206.2380  150.0770 C   0  0  0  0  0  3  0  0  0  0  0  0
  162.0180  204.8950  150.3630 C   0  0  0  0  0  0  0  0  0  0  0  0
  161.7780  204.4110  151.6530 C   0  0  0  0  0  3  0  0  0  0  0  0
  159.4760  203.5920  145.6160 N   0  0  0  0  0  2  0  0  0  0  0  0
  162.1590  204.9570  145.6110 C   0  0  0  0  0  2  0  0  0  0  0  0
  159.9210  201.2050  145.3650 C   0  0  0  0  0  1  0  0  0  0  0  0
  161.1230  202.8930  149.2860 C   0  0  1  0  0  3  0  0  0  0  0  0
  160.7740  200.9000  148.1670 O   0  0  0  0  0  0  0  0  0  0  0  0
  162.3210  204.6340  147.9750 N   0  0  0  0  0  0  0  0  0  0  0  0
  162.2470  203.9320  149.2410 C   0  0  1  0  0  3  0  0  0  0  0  0
  159.8280  204.6800  144.7110 C   0  0  0  0  0  2  0  0  0  0  0  0
  160.5320  202.5850  145.5270 C   0  0  2  0  0  3  0  0  0  0  0  0
  160.7510  202.2500  148.0260 C   0  0  1  0  0  0  0  0  0  0  0  0
  161.0300  206.8310  144.4440 C   0  0  0  0  0  1  0  0  0  0  0  0
  161.4870  202.6850  146.7390 C   0  0  2  0  0  3  0  0  0  0  0  0
  162.0820  204.0840  146.8360 C   0  0  0  0  0  0  0  0  0  0  0  0
  160.8220  205.6410  145.3610 C   0  0  2  0  0  3  0  0  0  0  0  0
  161.7030  201.5920  148.9260 N   0  0  1  0  0  0  0  0  0  0  0  0
  160.5230  208.9500  153.2240 C   0  0  0  0  0  2  0  0  0  0  0  0
  159.8410  209.1330  155.6710 O   0  0  0  0  0  0  0  0  0  0  0  0
  161.2220  206.0990  155.0500 O   0  0  0  0  0  0  0  0  0  0  0  0
  160.2220  207.4510  153.3540 C   0  0  2  0  0  3  0  0  0  0  0  0
  160.2580  211.0520  154.3900 N   0  0  0  0  0  0  0  0  0  0  0  0
  160.4480  206.9980  154.7700 C   0  0  0  0  0  0  0  0  0  0  0  0
  159.7080  207.7220  155.8390 C   0  0  0  0  0  2  0  0  0  0  0  0
  160.1590  209.7580  154.4510 C   0  0  0  0  0  0  0  0  0  0  0  0
  159.9710  211.9520  155.4760 C   0  0  0  0  0  0  0  0  0  0  0  0
  159.8800  211.5190  156.6560 O   0  0  0  0  0  0  0  0  0  0  0  0
  157.7320  214.4350  156.1640 C   0  0  0  0  0  2  0  0  0  0  0  0
  157.6840  213.6590  152.0270 C   0  0  0  0  0  0  0  0  0  0  0  0
  156.5200  214.0820  152.5690 C   0  0  0  0  0  0  0  0  0  0  0  0
  154.2030  214.4520  152.2300 O   0  0  0  0  0  0  0  0  0  0  0  0
  159.8190  213.4320  155.2310 C   0  0  2  0  0  3  0  0  0  0  0  0
  157.8240  213.3980  150.5470 C   0  0  0  0  0  2  0  0  0  0  0  0
  155.3350  214.2220  151.7170 C   0  0  0  0  0  0  0  0  0  0  0  0
  155.4490  214.0250  150.3080 N   0  0  0  0  0  0  0  0  0  0  0  0
  159.2130  214.1420  156.4660 C   0  0  0  0  0  2  0  0  0  0  0  0
  157.5910  214.1610  154.7530 N   0  0  0  0  0  0  0  0  0  0  0  0
  156.4420  214.3610  153.9780 N   0  0  0  0  0  2  0  0  0  0  0  0
  158.8660  213.4130  152.8910 C   0  0  0  0  0  3  0  0  0  0  0  0
  156.5650  213.6610  149.7540 C   0  0  0  0  0  3  0  0  0  0  0  0
  158.7790  213.6630  154.2000 C   0  0  0  0  0  0  0  0  0  0  0  0
  160.8450  208.4930  150.6410 C   0  0  0  0  0  2  0  0  0  0  0  0
  162.0840  209.2970  150.2560 C   0  0  0  0  0  2  0  0  0  0  0  0
  161.2930  211.0450  147.0460 N   0  0  0  0  0  0  0  0  0  0  0  0
  161.6970  211.7060  149.6900 C   0  0  0  0  0  3  0  0  0  0  0  0
  161.4440  212.7190  148.7600 C   0  0  0  0  0  0  0  0  0  0  0  0
  161.2290  212.3560  147.4090 C   0  0  0  0  0  0  0  0  0  0  0  0
  161.5420  210.0560  147.9450 C   0  0  0  0  0  3  0  0  0  0  0  0
  161.7470  210.3710  149.2870 C   0  0  0  0  0  0  0  0  0  0  0  0
  161.0860  214.4210  150.5390 C   0  0  0  0  0  1  0  0  0  0  0  0
  161.4340  214.0450  149.2170 O   0  0  0  0  0  0  0  0  0  0  0  0
  160.9300  213.3310  146.4480 O   0  0  0  0  0  0  0  0  0  0  0  0
  159.6250  213.5070  145.9000 C   0  0  0  0  0  2  0  0  0  0  0  0
  157.5600  212.7240  146.0580 C   0  0  0  0  0  1  0  0  0  0  0  0
  158.6450  213.1510  146.8300 O   0  0  0  0  0  0  0  0  0  0  0  0
  1  2  1  0  0  0  0
  1 25  1  0  0  0  0
  3  1  2  0  0  0  0
  4  5  2  0  0  0  0
  4  3  1  0  0  0  0
  5  6  1  0  0  0  0
  6  2  2  0  0  0  0
  8 19  1  0  0  0  0
  9 15  1  0  0  0  0
 11 21  1  0  0  0  0
 12 13  1  0  0  0  0
 13 10  1  0  0  0  0
 13  5  1  0  0  0  0
 14 20  1  0  0  0  0
 14  7  1  0  0  0  0
 15  7  1  0  0  0  0
 15 18  1  0  0  0  0
 16 11  1  0  0  0  0
 16 21  1  0  0  0  0
 16 10  1  0  0  0  0
 17 20  1  0  0  0  0
 18 19  1  0  0  0  0
 18 16  1  0  0  0  0
 19 12  2  0  0  0  0
 20  8  1  0  0  0  0
 21 10  1  0  0  0  0
 22 25  1  0  0  0  0
 22 29  1  0  0  0  0
 23 28  1  0  0  0  0
 25 27  1  0  0  0  0
 26 29  2  0  0  0  0
 26 30  1  0  0  0  0
 27 24  2  0  0  0  0
 27 28  1  0  0  0  0
 29 23  1  0  0  0  0
 30 31  2  0  0  0  0
 32 40  1  0  0  0  0
 33 34  2  0  0  0  0
 33 43  1  0  0  0  0
 34 42  1  0  0  0  0
 36 30  1  0  0  0  0
 36 40  1  0  0  0  0
 37 33  1  0  0  0  0
 38 35  2  0  0  0  0
 38 34  1  0  0  0  0
 39 38  1  0  0  0  0
 41 32  1  0  0  0  0
 42 41  1  0  0  0  0
 43 45  2  0  0  0  0
 44 39  2  0  0  0  0
 44 37  1  0  0  0  0
 45 41  1  0  0  0  0
 45 36  1  0  0  0  0
 46  3  1  0  0  0  0
 47 46  1  0  0  0  0
 48 51  2  0  0  0  0
 48 52  1  0  0  0  0
 50 55  1  0  0  0  0
 50 49  2  0  0  0  0
 51 50  1  0  0  0  0
 52 53  2  0  0  0  0
 53 49  1  0  0  0  0
 53 47  1  0  0  0  0
 55 54  1  0  0  0  0
 56 51  1  0  0  0  0
 57 56  1  0  0  0  0
 57 59  1  0  0  0  0
 58 59  1  0  0  0  0
M  END
>  <MODEL>
4

>  <REMARK>
 VINA RESULT:      -2.1      3.892     11.233
  Name = 
  11 active torsions:
  status: ('A' for Active; 'I' for Inactive)
    1  A    between atoms: C_10  and  C_24
    2  A    between atoms: C_10  and  N_44
    3  A    between atoms: C_13  and  C_43
    4  A    between atoms: C_13  and  C_53
    5  A    between atoms: C_14  and  C_32
    6  A    between atoms: C_20  and  C_51
    7  A    between atoms: C_25  and  O_45
    8  A    between atoms: C_29  and  O_52
    9  A    between atoms: C_29  and  O_57
   10  A    between atoms: C_33  and  C_53
   11  A    between atoms: C_36  and  O_57
                            x       y       z     vdW  Elec       q    Type
                         _______ _______ _______ _____ _____    ______ ____

>  <TORSDO>
F 11

$$$$
