=
 OpenBabel11052410203D

 55 58  0  0  1  0  0  0  0  0999 V2000
  162.3180  210.0760  149.1580 C   0  0  0  0  0  2  0  0  0  0  0  0
  161.2040  209.4830  150.0390 C   0  0  2  0  0  3  0  0  0  0  0  0
  161.2500  207.6090  148.4860 O   0  0  0  0  0  1  0  0  0  0  0  0
  162.0100  208.2110  152.0030 C   0  0  2  0  0  3  0  0  0  0  0  0
  161.5580  209.5920  151.5240 C   0  0  0  0  0  2  0  0  0  0  0  0
  162.1140  207.3840  150.7260 C   0  0  2  0  0  3  0  0  0  0  0  0
  161.0590  207.9850  149.8160 C   0  0  1  0  0  3  0  0  0  0  0  0
  161.6170  208.9010  154.9180 O   0  0  0  0  0  0  0  0  0  0  0  0
  160.8330  207.9350  154.2870 C   0  0  0  0  0  0  0  0  0  0  0  0
  161.0120  207.6250  152.9010 N   0  0  0  0  0  2  0  0  0  0  0  0
  159.9310  207.3480  154.9400 O   0  0  0  0  0  1  0  0  0  0  0  0
  162.0210  205.8560  150.9600 C   0  0  1  0  0  3  0  0  0  0  0  0
  162.2710  205.3380  152.3470 C   0  0  0  0  0  0  0  0  0  0  0  0
  161.2480  204.7090  153.0430 O   0  0  0  0  0  1  0  0  0  0  0  0
  163.4060  205.4560  152.8830 O   0  0  0  0  0  0  0  0  0  0  0  0
  160.9380  205.2280  150.3050 O   0  0  0  0  0  0  0  0  0  0  0  0
  161.3320  203.9340  149.9300 C   0  0  0  0  0  2  0  0  0  0  0  0
  160.1680  203.1820  149.4930 N   0  0  0  0  0  2  0  0  0  0  0  0
  161.5800  203.6820  146.4360 C   0  0  2  0  0  0  0  0  0  0  0  0
  160.3960  202.8080  148.1070 C   0  0  2  0  0  3  0  0  0  0  0  0
  162.6830  204.7040  146.5820 C   0  0  0  0  0  2  0  0  0  0  0  0
  161.1340  203.8000  144.9860 C   0  0  2  0  0  3  0  0  0  0  0  0
  161.5390  201.9960  148.0160 O   0  0  0  0  0  0  0  0  0  0  0  0
  161.3170  205.2610  144.6220 C   0  0  0  0  0  2  0  0  0  0  0  0
  160.5450  203.9710  147.3280 O   0  0  0  0  0  0  0  0  0  0  0  0
  162.0690  202.3090  146.7670 C   0  0  0  0  0  2  0  0  0  0  0  0
  162.3300  205.8280  145.6120 C   0  0  0  0  0  2  0  0  0  0  0  0
  159.8030  203.4170  144.8200 O   0  0  0  0  0  1  0  0  0  0  0  0
  161.8210  211.1600  148.2040 C   0  0  0  0  0  2  0  0  0  0  0  0
  161.9950  212.5580  148.7750 C   0  0  1  0  0  3  0  0  0  0  0  0
  161.5030  213.5730  147.7510 C   0  0  0  0  0  2  0  0  0  0  0  0
  158.6830  212.6530  147.1380 O   0  0  0  0  0  0  0  0  0  0  0  0
  158.4060  212.9320  144.2180 N   0  0  0  0  0  1  0  0  0  0  0  0
  159.5280  213.0530  146.3480 C   0  0  0  0  0  0  0  0  0  0  0  0
  159.2200  213.7700  145.0820 C   0  0  1  0  0  3  0  0  0  0  0  0
  160.9850  212.8430  146.5140 C   0  0  1  0  0  3  0  0  0  0  0  0
  160.5360  213.9450  144.4890 N   0  0  0  0  0  0  0  0  0  0  0  0
  161.4760  213.5020  145.2700 C   0  0  0  0  0  0  0  0  0  0  0  0
  162.8540  213.4370  144.8640 N   0  0  0  0  0  0  0  0  0  0  0  0
  163.3030  213.4040  143.6430 C   0  0  0  0  0  3  0  0  0  0  0  0
  162.4220  213.4500  142.4350 C   0  0  0  0  0  2  0  0  0  0  0  0
  162.6890  212.1490  140.4550 O   0  0  0  0  0  1  0  0  0  0  0  0
  162.3200  212.0760  141.7990 C   0  0  2  0  0  3  0  0  0  0  0  0
  160.9000  211.5850  141.9090 C   0  0  0  0  0  1  0  0  0  0  0  0
  161.2070  212.6960  150.0600 C   0  0  0  0  0  2  0  0  0  0  0  0
  160.1550  213.7790  149.9130 C   0  0  0  0  0  2  0  0  0  0  0  0
  158.8980  213.3700  150.6480 C   0  0  0  0  0  2  0  0  0  0  0  0
  159.1200  213.3930  152.1530 C   0  0  0  0  0  2  0  0  0  0  0  0
  159.2180  212.0290  152.6530 N   0  0  0  0  0  2  0  0  0  0  0  0
  158.0820  211.8250  153.5320 C   0  0  0  0  0  2  0  0  0  0  0  0
  157.6790  213.1410  154.1690 C   0  0  0  0  0  2  0  0  0  0  0  0
  156.3410  212.8930  155.3190 S   0  0  0  0  0  0  0  0  0  0  0  0
  156.9120  213.2110  156.9710 C   0  0  0  0  0  1  0  0  0  0  0  0
  155.8720  211.4680  155.2220 O   0  0  0  0  0  0  0  0  0  0  0  0
  155.1950  213.8120  155.0010 O   0  0  0  0  0  0  0  0  0  0  0  0
  2  1  1  6  0  0  0
  2  5  1  0  0  0  0
  4 10  1  1  0  0  0
  5  4  1  0  0  0  0
  6 12  1  1  0  0  0
  6  4  1  0  0  0  0
  7  3  1  6  0  0  0
  7  2  1  0  0  0  0
  7  6  1  0  0  0  0
  9  8  2  0  0  0  0
  9 11  1  0  0  0  0
 10  9  1  0  0  0  0
 12 16  1  1  0  0  0
 12 13  1  0  0  0  0
 13 15  2  0  0  0  0
 13 14  1  0  0  0  0
 17 16  1  0  0  0  0
 18 17  1  0  0  0  0
 19 21  1  1  0  0  0
 19 26  1  0  0  0  0
 19 25  1  0  0  0  0
 20 18  1  1  0  0  0
 22 28  1  1  0  0  0
 22 19  1  0  0  0  0
 23 20  1  0  0  0  0
 24 22  1  0  0  0  0
 24 27  1  0  0  0  0
 25 20  1  0  0  0  0
 26 23  1  0  0  0  0
 27 21  1  0  0  0  0
 29 30  1  0  0  0  0
 29  1  1  0  0  0  0
 30 31  1  6  0  0  0
 30 45  1  0  0  0  0
 34 36  1  0  0  0  0
 34 32  2  0  0  0  0
 35 33  1  6  0  0  0
 35 34  1  0  0  0  0
 36 31  1  1  0  0  0
 37 35  1  0  0  0  0
 37 38  2  0  0  0  0
 38 36  1  0  0  0  0
 39 38  1  0  0  0  0
 40 39  2  0  0  0  0
 41 40  1  0  0  0  0
 42 43  1  0  0  0  0
 43 44  1  6  0  0  0
 43 41  1  0  0  0  0
 46 45  1  0  0  0  0
 46 47  1  0  0  0  0
 47 48  1  0  0  0  0
 48 49  1  0  0  0  0
 49 50  1  0  0  0  0
 50 51  1  0  0  0  0
 51 52  1  0  0  0  0
 52 53  1  0  0  0  0
 54 52  2  0  0  0  0
 55 52  2  0  0  0  0
M  END
>  <MODEL>
1

>  <REMARK>
 VINA RESULT:      -3.9      0.000      0.000
  Name = 
  23 active torsions:
  status: ('A' for Active; 'I' for Inactive)
    1  A    between atoms: C_1  and  C_23
    2  A    between atoms: C_1  and  C_47
    3  A    between atoms: C_2  and  C_29
    4  A    between atoms: S_5  and  C_31
    5  A    between atoms: C_7  and  C_20
    6  A    between atoms: C_8  and  N_45
    7  A    between atoms: N_9  and  C_26
    8  A    between atoms: N_9  and  C_47
    9  A    between atoms: N_12  and  C_49
   10  A    between atoms: C_15  and  C_16
   11  A    between atoms: C_15  and  C_23
   12  A    between atoms: C_16  and  C_40
   13  A    between atoms: C_16  and  C_55
   14  A    between atoms: C_19  and  C_43
   15  A    between atoms: C_20  and  O_38
   16  A    between atoms: C_20  and  C_46
   17  A    between atoms: C_21  and  O_38
   18  A    between atoms: C_21  and  N_45
   19  A    between atoms: C_25  and  C_40
   20  A    between atoms: C_26  and  C_31
   21  A    between atoms: C_29  and  C_55
   22  A    between atoms: C_30  and  N_42
   23  A    between atoms: C_41  and  C_43
                            x       y       z     vdW  Elec       q    Type
                         _______ _______ _______ _____ _____    ______ ____

>  <TORSDO>
F 23

$$$$
=
 OpenBabel11052410203D

 55 58  0  0  1  0  0  0  0  0999 V2000
  162.5260  207.1880  148.8420 C   0  0  0  0  0  2  0  0  0  0  0  0
  161.4590  208.2290  149.2230 C   0  0  2  0  0  3  0  0  0  0  0  0
  160.4710  206.4380  150.5420 O   0  0  0  0  0  1  0  0  0  0  0  0
  162.0590  209.6670  151.1460 C   0  0  2  0  0  3  0  0  0  0  0  0
  162.1020  209.5600  149.6200 C   0  0  0  0  0  2  0  0  0  0  0  0
  161.5860  208.2920  151.6070 C   0  0  2  0  0  3  0  0  0  0  0  0
  160.6990  207.8130  150.4730 C   0  0  1  0  0  3  0  0  0  0  0  0
  161.4070  212.2080  149.6450 O   0  0  0  0  0  0  0  0  0  0  0  0
  160.8020  211.9070  150.8660 C   0  0  0  0  0  0  0  0  0  0  0  0
  161.1010  210.6940  151.5630 N   0  0  0  0  0  2  0  0  0  0  0  0
  159.9540  212.7030  151.3470 O   0  0  0  0  0  1  0  0  0  0  0  0
  160.9470  208.2900  153.0180 C   0  0  1  0  0  3  0  0  0  0  0  0
  161.0340  207.0300  153.8300 C   0  0  0  0  0  0  0  0  0  0  0  0
  162.0110  206.0880  153.5380 O   0  0  0  0  0  0  0  0  0  0  0  0
  160.2380  206.8230  154.7860 O   0  0  0  0  0  1  0  0  0  0  0  0
  161.1750  209.4670  153.7650 O   0  0  0  0  0  0  0  0  0  0  0  0
  161.6770  209.1060  155.0250 C   0  0  0  0  0  2  0  0  0  0  0  0
  160.9550  209.8280  156.0590 N   0  0  0  0  0  2  0  0  0  0  0  0
  158.4370  212.1110  155.8860 C   0  0  2  0  0  0  0  0  0  0  0  0
  160.2590  210.9250  155.4080 C   0  0  2  0  0  3  0  0  0  0  0  0
  157.7670  212.1860  157.2390 C   0  0  0  0  0  2  0  0  0  0  0  0
  157.3620  212.5430  154.8990 C   0  0  2  0  0  3  0  0  0  0  0  0
  160.7470  212.1510  155.8910 O   0  0  0  0  0  0  0  0  0  0  0  0
  156.0500  212.0610  155.4900 C   0  0  0  0  0  2  0  0  0  0  0  0
  158.8760  210.8080  155.6460 O   0  0  0  0  0  0  0  0  0  0  0  0
  159.6410  212.9950  155.8310 C   0  0  0  0  0  2  0  0  0  0  0  0
  156.2950  211.8710  156.9840 C   0  0  0  0  0  2  0  0  0  0  0  0
  157.5630  211.9840  153.6370 O   0  0  0  0  0  1  0  0  0  0  0  0
  162.4580  206.7600  147.3780 C   0  0  0  0  0  2  0  0  0  0  0  0
  162.4150  205.2500  147.2180 C   0  0  1  0  0  3  0  0  0  0  0  0
  161.2270  204.7060  148.0010 C   0  0  0  0  0  2  0  0  0  0  0  0
  161.8960  203.6430  150.7580 O   0  0  0  0  0  0  0  0  0  0  0  0
  160.6700  200.9650  150.8630 N   0  0  0  0  0  1  0  0  0  0  0  0
  161.2580  203.0850  149.8750 C   0  0  0  0  0  0  0  0  0  0  0  0
  160.1630  202.1070  150.1220 C   0  0  1  0  0  3  0  0  0  0  0  0
  161.5090  203.2670  148.4260 C   0  0  1  0  0  3  0  0  0  0  0  0
  159.8010  201.6920  148.7760 N   0  0  0  0  0  0  0  0  0  0  0  0
  160.4750  202.3430  147.8760 C   0  0  0  0  0  0  0  0  0  0  0  0
  160.4020  202.0290  146.4740 N   0  0  0  0  0  0  0  0  0  0  0  0
  160.8850  200.9720  145.8900 C   0  0  0  0  0  3  0  0  0  0  0  0
  161.5990  199.8760  146.6170 C   0  0  0  0  0  2  0  0  0  0  0  0
  162.6000  198.0730  145.4210 O   0  0  0  0  0  1  0  0  0  0  0  0
  161.3850  198.5470  145.9170 C   0  0  2  0  0  3  0  0  0  0  0  0
  160.4140  198.7380  144.7810 C   0  0  0  0  0  1  0  0  0  0  0  0
  162.2790  204.8860  145.7550 C   0  0  0  0  0  2  0  0  0  0  0  0
  161.5170  205.9700  145.0160 C   0  0  0  0  0  2  0  0  0  0  0  0
  161.1580  205.4850  143.6290 C   0  0  0  0  0  2  0  0  0  0  0  0
  162.2110  205.9120  142.6170 C   0  0  0  0  0  2  0  0  0  0  0  0
  161.5590  206.4760  141.4440 N   0  0  0  0  0  2  0  0  0  0  0  0
  162.6150  206.9080  140.5490 C   0  0  0  0  0  2  0  0  0  0  0  0
  162.1550  206.7880  139.1090 C   0  0  0  0  0  2  0  0  0  0  0  0
  161.5520  208.3550  138.5140 S   0  0  0  0  0  0  0  0  0  0  0  0
  162.1340  209.6560  139.5750 C   0  0  0  0  0  1  0  0  0  0  0  0
  160.0490  208.3370  138.5290 O   0  0  0  0  0  0  0  0  0  0  0  0
  162.0280  208.6040  137.1110 O   0  0  0  0  0  0  0  0  0  0  0  0
  2  1  1  1  0  0  0
  2  5  1  0  0  0  0
  2  7  1  0  0  0  0
  4 10  1  6  0  0  0
  4  6  1  0  0  0  0
  5  4  1  0  0  0  0
  6 12  1  1  0  0  0
  7  3  1  6  0  0  0
  7  6  1  0  0  0  0
  8  9  2  0  0  0  0
  9 11  1  0  0  0  0
  9 10  1  0  0  0  0
 12 16  1  1  0  0  0
 12 13  1  0  0  0  0
 13 15  1  0  0  0  0
 14 13  2  0  0  0  0
 16 17  1  0  0  0  0
 17 18  1  0  0  0  0
 19 26  1  6  0  0  0
 19 21  1  0  0  0  0
 20 25  1  0  0  0  0
 20 23  1  0  0  0  0
 20 18  1  1  0  0  0
 22 28  1  6  0  0  0
 22 24  1  0  0  0  0
 22 19  1  0  0  0  0
 24 27  1  0  0  0  0
 25 19  1  0  0  0  0
 26 23  1  0  0  0  0
 27 21  1  0  0  0  0
 29  1  1  0  0  0  0
 30 45  1  6  0  0  0
 30 29  1  0  0  0  0
 30 31  1  0  0  0  0
 34 35  1  0  0  0  0
 34 32  2  0  0  0  0
 35 33  1  1  0  0  0
 36 31  1  6  0  0  0
 36 34  1  0  0  0  0
 37 35  1  0  0  0  0
 38 36  1  0  0  0  0
 38 37  2  0  0  0  0
 39 38  1  0  0  0  0
 40 39  2  0  0  0  0
 40 41  1  0  0  0  0
 42 43  1  0  0  0  0
 43 44  1  6  0  0  0
 43 41  1  0  0  0  0
 46 45  1  0  0  0  0
 47 46  1  0  0  0  0
 48 47  1  0  0  0  0
 49 48  1  0  0  0  0
 50 49  1  0  0  0  0
 51 50  1  0  0  0  0
 52 54  2  0  0  0  0
 52 51  1  0  0  0  0
 52 53  1  0  0  0  0
 55 52  2  0  0  0  0
M  END
>  <MODEL>
2

>  <REMARK>
 VINA RESULT:      -3.9      4.112     11.092
  Name = 
  23 active torsions:
  status: ('A' for Active; 'I' for Inactive)
    1  A    between atoms: C_1  and  C_23
    2  A    between atoms: C_1  and  C_47
    3  A    between atoms: C_2  and  C_29
    4  A    between atoms: S_5  and  C_31
    5  A    between atoms: C_7  and  C_20
    6  A    between atoms: C_8  and  N_45
    7  A    between atoms: N_9  and  C_26
    8  A    between atoms: N_9  and  C_47
    9  A    between atoms: N_12  and  C_49
   10  A    between atoms: C_15  and  C_16
   11  A    between atoms: C_15  and  C_23
   12  A    between atoms: C_16  and  C_40
   13  A    between atoms: C_16  and  C_55
   14  A    between atoms: C_19  and  C_43
   15  A    between atoms: C_20  and  O_38
   16  A    between atoms: C_20  and  C_46
   17  A    between atoms: C_21  and  O_38
   18  A    between atoms: C_21  and  N_45
   19  A    between atoms: C_25  and  C_40
   20  A    between atoms: C_26  and  C_31
   21  A    between atoms: C_29  and  C_55
   22  A    between atoms: C_30  and  N_42
   23  A    between atoms: C_41  and  C_43
                            x       y       z     vdW  Elec       q    Type
                         _______ _______ _______ _____ _____    ______ ____

>  <TORSDO>
F 23

$$$$
=
 OpenBabel11052410203D

 55 58  0  0  1  0  0  0  0  0999 V2000
  161.8430  206.5390  147.3450 C   0  0  0  0  0  2  0  0  0  0  0  0
  161.1320  207.6300  148.1660 C   0  0  2  0  0  3  0  0  0  0  0  0
  160.0850  205.7780  149.3470 O   0  0  0  0  0  1  0  0  0  0  0  0
  162.4250  208.4740  150.1000 C   0  0  2  0  0  3  0  0  0  0  0  0
  162.1180  208.7090  148.6200 C   0  0  0  0  0  2  0  0  0  0  0  0
  161.7760  207.1290  150.4100 C   0  0  2  0  0  3  0  0  0  0  0  0
  160.5850  207.0740  149.4720 C   0  0  1  0  0  3  0  0  0  0  0  0
  162.0730  211.3700  149.3140 O   0  0  0  0  0  0  0  0  0  0  0  0
  161.6710  210.9010  150.5650 C   0  0  0  0  0  0  0  0  0  0  0  0
  161.8240  209.5250  150.9250 N   0  0  0  0  0  2  0  0  0  0  0  0
  161.1350  211.6970  151.3800 O   0  0  0  0  0  1  0  0  0  0  0  0
  161.4680  206.9150  151.9140 C   0  0  1  0  0  3  0  0  0  0  0  0
  161.6680  205.5400  152.4860 C   0  0  0  0  0  0  0  0  0  0  0  0
  162.3820  204.5920  151.7670 O   0  0  0  0  0  0  0  0  0  0  0  0
  161.2050  205.2410  153.6190 O   0  0  0  0  0  1  0  0  0  0  0  0
  161.9180  207.9540  152.7580 O   0  0  0  0  0  0  0  0  0  0  0  0
  160.8380  208.3940  153.5400 C   0  0  0  0  0  2  0  0  0  0  0  0
  161.3390  209.1470  154.6760 N   0  0  0  0  0  2  0  0  0  0  0  0
  159.0780  211.6350  155.2090 C   0  0  2  0  0  0  0  0  0  0  0  0
  160.8750  210.5150  154.5210 C   0  0  2  0  0  3  0  0  0  0  0  0
  158.1420  211.1990  156.3120 C   0  0  0  0  0  2  0  0  0  0  0  0
  158.2720  212.6300  154.3890 C   0  0  2  0  0  3  0  0  0  0  0  0
  161.3320  211.2970  155.5960 O   0  0  0  0  0  0  0  0  0  0  0  0
  156.8340  212.1510  154.4670 C   0  0  0  0  0  2  0  0  0  0  0  0
  159.4690  210.5270  154.4550 O   0  0  0  0  0  0  0  0  0  0  0  0
  160.3240  212.2430  155.7690 C   0  0  0  0  0  2  0  0  0  0  0  0
  156.7400  211.2730  155.7110 C   0  0  0  0  0  2  0  0  0  0  0  0
  158.7000  212.6750  153.0620 O   0  0  0  0  0  1  0  0  0  0  0  0
  161.0180  206.0370  146.1640 C   0  0  0  0  0  2  0  0  0  0  0  0
  161.8830  205.6560  144.9740 C   0  0  1  0  0  3  0  0  0  0  0  0
  162.0160  204.1390  144.9270 C   0  0  0  0  0  2  0  0  0  0  0  0
  159.4560  203.0350  143.7430 O   0  0  0  0  0  0  0  0  0  0  0  0
  158.7370  200.7570  145.4680 N   0  0  0  0  0  1  0  0  0  0  0  0
  160.0630  202.6280  144.7260 C   0  0  0  0  0  0  0  0  0  0  0  0
  160.0850  201.2090  145.1700 C   0  0  1  0  0  3  0  0  0  0  0  0
  160.8320  203.4990  145.6460 C   0  0  1  0  0  3  0  0  0  0  0  0
  160.8600  201.2740  146.3980 N   0  0  0  0  0  0  0  0  0  0  0  0
  161.3000  202.4750  146.6250 C   0  0  0  0  0  0  0  0  0  0  0  0
  161.9810  202.8360  147.8390 N   0  0  0  0  0  0  0  0  0  0  0  0
  161.9430  202.1940  148.9700 C   0  0  0  0  0  3  0  0  0  0  0  0
  161.1730  200.9280  149.1780 C   0  0  0  0  0  2  0  0  0  0  0  0
  158.8290  201.3660  149.2200 O   0  0  0  0  0  1  0  0  0  0  0  0
  159.9480  201.1860  150.0350 C   0  0  2  0  0  3  0  0  0  0  0  0
  160.1760  202.4250  150.8620 C   0  0  0  0  0  1  0  0  0  0  0  0
  161.2530  206.1590  143.6920 C   0  0  0  0  0  2  0  0  0  0  0  0
  162.1330  205.8130  142.5070 C   0  0  0  0  0  2  0  0  0  0  0  0
  161.7770  206.6970  141.3320 C   0  0  0  0  0  2  0  0  0  0  0  0
  162.4940  206.2370  140.0720 C   0  0  0  0  0  2  0  0  0  0  0  0
  162.0840  207.0670  138.9480 N   0  0  0  0  0  2  0  0  0  0  0  0
  161.5340  208.2860  139.5090 C   0  0  0  0  0  2  0  0  0  0  0  0
  161.7220  209.4340  138.5360 C   0  0  0  0  0  2  0  0  0  0  0  0
  161.6220  210.9960  139.3880 S   0  0  0  0  0  0  0  0  0  0  0  0
  160.6180  212.1200  138.4480 C   0  0  0  0  0  1  0  0  0  0  0  0
  163.0060  211.5640  139.5280 O   0  0  0  0  0  0  0  0  0  0  0  0
  161.0230  210.8130  140.7540 O   0  0  0  0  0  0  0  0  0  0  0  0
  2  1  1  1  0  0  0
  2  5  1  0  0  0  0
  2  7  1  0  0  0  0
  4  6  1  0  0  0  0
  4 10  1  1  0  0  0
  5  4  1  0  0  0  0
  6 12  1  1  0  0  0
  7  3  1  6  0  0  0
  7  6  1  0  0  0  0
  8  9  2  0  0  0  0
  9 10  1  0  0  0  0
  9 11  1  0  0  0  0
 12 13  1  1  0  0  0
 12 16  1  0  0  0  0
 13 15  1  0  0  0  0
 14 13  2  0  0  0  0
 16 17  1  0  0  0  0
 17 18  1  0  0  0  0
 19 26  1  1  0  0  0
 19 21  1  0  0  0  0
 20 18  1  1  0  0  0
 20 23  1  0  0  0  0
 22 28  1  6  0  0  0
 22 24  1  0  0  0  0
 22 19  1  0  0  0  0
 23 26  1  0  0  0  0
 24 27  1  0  0  0  0
 25 20  1  0  0  0  0
 25 19  1  0  0  0  0
 27 21  1  0  0  0  0
 29  1  1  0  0  0  0
 30 45  1  6  0  0  0
 30 29  1  0  0  0  0
 31 30  1  0  0  0  0
 32 34  2  0  0  0  0
 34 35  1  0  0  0  0
 34 36  1  0  0  0  0
 35 33  1  1  0  0  0
 35 37  1  0  0  0  0
 36 31  1  6  0  0  0
 36 38  1  0  0  0  0
 37 38  2  0  0  0  0
 38 39  1  0  0  0  0
 39 40  2  0  0  0  0
 40 41  1  0  0  0  0
 41 43  1  0  0  0  0
 42 43  1  0  0  0  0
 43 44  1  6  0  0  0
 46 45  1  0  0  0  0
 47 46  1  0  0  0  0
 48 47  1  0  0  0  0
 49 50  1  0  0  0  0
 49 48  1  0  0  0  0
 51 52  1  0  0  0  0
 51 50  1  0  0  0  0
 52 54  2  0  0  0  0
 52 55  2  0  0  0  0
 53 52  1  0  0  0  0
M  END
>  <MODEL>
3

>  <REMARK>
 VINA RESULT:      -3.7      4.040     10.741
  Name = 
  23 active torsions:
  status: ('A' for Active; 'I' for Inactive)
    1  A    between atoms: C_1  and  C_23
    2  A    between atoms: C_1  and  C_47
    3  A    between atoms: C_2  and  C_29
    4  A    between atoms: S_5  and  C_31
    5  A    between atoms: C_7  and  C_20
    6  A    between atoms: C_8  and  N_45
    7  A    between atoms: N_9  and  C_26
    8  A    between atoms: N_9  and  C_47
    9  A    between atoms: N_12  and  C_49
   10  A    between atoms: C_15  and  C_16
   11  A    between atoms: C_15  and  C_23
   12  A    between atoms: C_16  and  C_40
   13  A    between atoms: C_16  and  C_55
   14  A    between atoms: C_19  and  C_43
   15  A    between atoms: C_20  and  O_38
   16  A    between atoms: C_20  and  C_46
   17  A    between atoms: C_21  and  O_38
   18  A    between atoms: C_21  and  N_45
   19  A    between atoms: C_25  and  C_40
   20  A    between atoms: C_26  and  C_31
   21  A    between atoms: C_29  and  C_55
   22  A    between atoms: C_30  and  N_42
   23  A    between atoms: C_41  and  C_43
                            x       y       z     vdW  Elec       q    Type
                         _______ _______ _______ _____ _____    ______ ____

>  <TORSDO>
F 23

$$$$
=
 OpenBabel11052410203D

 55 58  0  0  1  0  0  0  0  0999 V2000
  162.5070  209.5800  149.0640 C   0  0  0  0  0  2  0  0  0  0  0  0
  162.7510  208.1100  148.6810 C   0  0  2  0  0  3  0  0  0  0  0  0
  163.0340  207.7420  151.0700 O   0  0  0  0  0  1  0  0  0  0  0  0
  160.6960  206.7500  148.4510 C   0  0  2  0  0  3  0  0  0  0  0  0
  161.6980  207.6180  147.6850 C   0  0  0  0  0  2  0  0  0  0  0  0
  161.0740  206.9400  149.9150 C   0  0  2  0  0  3  0  0  0  0  0  0
  162.5700  207.1870  149.8760 C   0  0  1  0  0  3  0  0  0  0  0  0
  160.8860  205.6730  145.6330 O   0  0  0  0  0  0  0  0  0  0  0  0
  160.9130  204.8250  146.7410 C   0  0  0  0  0  0  0  0  0  0  0  0
  160.8410  205.3420  148.0730 N   0  0  0  0  0  2  0  0  0  0  0  0
  161.0360  203.5840  146.5650 O   0  0  0  0  0  1  0  0  0  0  0  0
  160.5980  205.7920  150.8400 C   0  0  1  0  0  3  0  0  0  0  0  0
  161.3470  204.4910  150.7920 C   0  0  0  0  0  0  0  0  0  0  0  0
  160.9910  203.5250  149.8600 O   0  0  0  0  0  0  0  0  0  0  0  0
  162.3060  204.2700  151.5800 O   0  0  0  0  0  1  0  0  0  0  0  0
  160.2460  206.1990  152.1460 O   0  0  0  0  0  0  0  0  0  0  0  0
  160.8500  207.4390  152.4060 C   0  0  0  0  0  2  0  0  0  0  0  0
  160.6310  207.8020  153.7950 N   0  0  0  0  0  2  0  0  0  0  0  0
  160.0090  210.8750  155.1210 C   0  0  2  0  0  0  0  0  0  0  0  0
  160.8900  209.2270  153.9100 C   0  0  2  0  0  3  0  0  0  0  0  0
  159.1510  210.6980  156.3520 C   0  0  0  0  0  2  0  0  0  0  0  0
  159.6930  212.2800  154.6290 C   0  0  2  0  0  3  0  0  0  0  0  0
  161.8250  209.4580  154.9340 O   0  0  0  0  0  0  0  0  0  0  0  0
  158.2370  212.5170  154.9820 C   0  0  0  0  0  2  0  0  0  0  0  0
  159.6840  209.9020  154.1730 O   0  0  0  0  0  0  0  0  0  0  0  0
  161.4580  210.7010  155.4430 C   0  0  0  0  0  2  0  0  0  0  0  0
  157.9010  211.5380  156.1040 C   0  0  0  0  0  2  0  0  0  0  0  0
  159.8890  212.4040  153.2540 O   0  0  0  0  0  1  0  0  0  0  0  0
  161.2950  210.1940  148.3680 C   0  0  0  0  0  2  0  0  0  0  0  0
  161.5030  211.6620  148.0310 C   0  0  1  0  0  3  0  0  0  0  0  0
  160.7630  212.5110  149.0560 C   0  0  0  0  0  2  0  0  0  0  0  0
  159.8300  212.4370  146.1750 O   0  0  0  0  0  0  0  0  0  0  0  0
  157.0560  213.4280  146.2440 N   0  0  0  0  0  1  0  0  0  0  0  0
  159.1970  212.8010  147.1580 C   0  0  0  0  0  0  0  0  0  0  0  0
  157.7210  212.6790  147.2960 C   0  0  1  0  0  3  0  0  0  0  0  0
  159.8030  213.4580  148.3390 C   0  0  1  0  0  3  0  0  0  0  0  0
  157.4710  213.3160  148.5780 N   0  0  0  0  0  0  0  0  0  0  0  0
  158.5760  213.6810  149.1570 C   0  0  0  0  0  0  0  0  0  0  0  0
  158.5980  214.4500  150.3710 N   0  0  0  0  0  0  0  0  0  0  0  0
  157.6980  214.4440  151.3110 C   0  0  0  0  0  3  0  0  0  0  0  0
  156.4690  213.5900  151.2750 C   0  0  0  0  0  2  0  0  0  0  0  0
  154.4220  213.9860  152.4320 O   0  0  0  0  0  1  0  0  0  0  0  0
  155.2230  214.4480  151.3860 C   0  0  2  0  0  3  0  0  0  0  0  0
  154.4570  214.3760  150.0910 C   0  0  0  0  0  1  0  0  0  0  0  0
  162.9800  211.9950  148.0530 C   0  0  0  0  0  2  0  0  0  0  0  0
  163.4100  212.5470  146.7070 C   0  0  0  0  0  2  0  0  0  0  0  0
  163.0530  214.0140  146.6220 C   0  0  0  0  0  2  0  0  0  0  0  0
  162.4740  214.3520  145.2550 C   0  0  0  0  0  2  0  0  0  0  0  0
  163.3210  213.7870  144.2150 N   0  0  0  0  0  2  0  0  0  0  0  0
  162.4740  212.9250  143.4110 C   0  0  0  0  0  2  0  0  0  0  0  0
  161.7240  213.7490  142.3840 C   0  0  0  0  0  2  0  0  0  0  0  0
  160.5500  212.7360  141.5070 S   0  0  0  0  0  0  0  0  0  0  0  0
  161.0570  212.5720  139.8120 C   0  0  0  0  0  1  0  0  0  0  0  0
  159.2010  213.3950  141.5600 O   0  0  0  0  0  0  0  0  0  0  0  0
  160.4580  211.3730  142.1350 O   0  0  0  0  0  0  0  0  0  0  0  0
  2  1  1  1  0  0  0
  2  7  1  0  0  0  0
  4 10  1  6  0  0  0
  4  6  1  0  0  0  0
  5  4  1  0  0  0  0
  5  2  1  0  0  0  0
  6 12  1  1  0  0  0
  7  6  1  0  0  0  0
  7  3  1  1  0  0  0
  8  9  2  0  0  0  0
  9 10  1  0  0  0  0
 11  9  1  0  0  0  0
 12 13  1  1  0  0  0
 12 16  1  0  0  0  0
 13 15  1  0  0  0  0
 14 13  2  0  0  0  0
 16 17  1  0  0  0  0
 17 18  1  0  0  0  0
 19 26  1  1  0  0  0
 19 21  1  0  0  0  0
 20 18  1  1  0  0  0
 20 25  1  0  0  0  0
 20 23  1  0  0  0  0
 22 28  1  6  0  0  0
 22 24  1  0  0  0  0
 22 19  1  0  0  0  0
 23 26  1  0  0  0  0
 24 27  1  0  0  0  0
 25 19  1  0  0  0  0
 27 21  1  0  0  0  0
 29  1  1  0  0  0  0
 30 45  1  1  0  0  0
 30 29  1  0  0  0  0
 30 31  1  0  0  0  0
 32 34  2  0  0  0  0
 34 35  1  0  0  0  0
 34 36  1  0  0  0  0
 35 33  1  6  0  0  0
 35 37  1  0  0  0  0
 36 31  1  1  0  0  0
 36 38  1  0  0  0  0
 37 38  2  0  0  0  0
 38 39  1  0  0  0  0
 39 40  2  0  0  0  0
 41 40  1  0  0  0  0
 41 43  1  0  0  0  0
 43 44  1  6  0  0  0
 43 42  1  0  0  0  0
 46 45  1  0  0  0  0
 47 46  1  0  0  0  0
 48 47  1  0  0  0  0
 49 48  1  0  0  0  0
 50 49  1  0  0  0  0
 51 50  1  0  0  0  0
 52 54  2  0  0  0  0
 52 55  2  0  0  0  0
 52 51  1  0  0  0  0
 53 52  1  0  0  0  0
M  END
>  <MODEL>
4

>  <REMARK>
 VINA RESULT:      -3.4      2.946      8.505
  Name = 
  23 active torsions:
  status: ('A' for Active; 'I' for Inactive)
    1  A    between atoms: C_1  and  C_23
    2  A    between atoms: C_1  and  C_47
    3  A    between atoms: C_2  and  C_29
    4  A    between atoms: S_5  and  C_31
    5  A    between atoms: C_7  and  C_20
    6  A    between atoms: C_8  and  N_45
    7  A    between atoms: N_9  and  C_26
    8  A    between atoms: N_9  and  C_47
    9  A    between atoms: N_12  and  C_49
   10  A    between atoms: C_15  and  C_16
   11  A    between atoms: C_15  and  C_23
   12  A    between atoms: C_16  and  C_40
   13  A    between atoms: C_16  and  C_55
   14  A    between atoms: C_19  and  C_43
   15  A    between atoms: C_20  and  O_38
   16  A    between atoms: C_20  and  C_46
   17  A    between atoms: C_21  and  O_38
   18  A    between atoms: C_21  and  N_45
   19  A    between atoms: C_25  and  C_40
   20  A    between atoms: C_26  and  C_31
   21  A    between atoms: C_29  and  C_55
   22  A    between atoms: C_30  and  N_42
   23  A    between atoms: C_41  and  C_43
                            x       y       z     vdW  Elec       q    Type
                         _______ _______ _______ _____ _____    ______ ____

>  <TORSDO>
F 23

$$$$
=
 OpenBabel11052410203D

 55 58  0  0  1  0  0  0  0  0999 V2000
  162.3260  209.7860  151.6920 C   0  0  0  0  0  2  0  0  0  0  0  0
  161.4160  208.5460  151.7450 C   0  0  2  0  0  3  0  0  0  0  0  0
  160.8420  209.1170  149.4490 O   0  0  0  0  0  1  0  0  0  0  0  0
  162.5470  206.4120  151.2060 C   0  0  2  0  0  3  0  0  0  0  0  0
  162.1500  207.3480  152.3500 C   0  0  0  0  0  2  0  0  0  0  0  0
  162.2220  207.2020  149.9430 C   0  0  2  0  0  3  0  0  0  0  0  0
  161.0450  208.0700  150.3480 C   0  0  1  0  0  3  0  0  0  0  0  0
  161.2060  205.2420  153.6480 O   0  0  0  0  0  1  0  0  0  0  0  0
  161.1310  204.6140  152.4050 C   0  0  0  0  0  0  0  0  0  0  0  0
  161.7530  205.1820  151.2480 N   0  0  0  0  0  2  0  0  0  0  0  0
  160.4770  203.5440  152.2920 O   0  0  0  0  0  0  0  0  0  0  0  0
  162.0150  206.3180  148.6870 C   0  0  1  0  0  3  0  0  0  0  0  0
  160.6210  206.1800  148.1440 C   0  0  0  0  0  0  0  0  0  0  0  0
  160.3110  206.7090  146.8990 O   0  0  0  0  0  0  0  0  0  0  0  0
  159.7310  205.5760  148.8010 O   0  0  0  0  0  1  0  0  0  0  0  0
  163.0020  206.4770  147.6900 O   0  0  0  0  0  0  0  0  0  0  0  0
  163.2490  205.2270  147.1020 C   0  0  0  0  0  2  0  0  0  0  0  0
  162.0870  204.8150  146.3330 N   0  0  0  0  0  2  0  0  0  0  0  0
  160.8610  201.8750  147.5320 C   0  0  2  0  0  0  0  0  0  0  0  0
  162.0410  203.3640  146.3710 C   0  0  2  0  0  3  0  0  0  0  0  0
  159.5870  202.1630  148.2900 C   0  0  0  0  0  2  0  0  0  0  0  0
  161.3950  200.5910  148.1490 C   0  0  2  0  0  3  0  0  0  0  0  0
  161.0710  202.8950  145.4690 O   0  0  0  0  0  0  0  0  0  0  0  0
  160.9880  200.6410  149.6090 C   0  0  0  0  0  2  0  0  0  0  0  0
  161.7530  202.9390  147.6810 O   0  0  0  0  0  0  0  0  0  0  0  0
  160.5970  201.7310  146.0670 C   0  0  0  0  0  2  0  0  0  0  0  0
  159.8130  201.6110  149.6950 C   0  0  0  0  0  2  0  0  0  0  0  0
  162.7820  200.4970  148.0320 O   0  0  0  0  0  1  0  0  0  0  0  0
  161.6060  211.0810  152.0610 C   0  0  0  0  0  2  0  0  0  0  0  0
  160.0950  210.9160  152.0860 C   0  0  1  0  0  3  0  0  0  0  0  0
  159.6420  210.7520  153.5310 C   0  0  0  0  0  2  0  0  0  0  0  0
  157.7170  213.0860  153.3650 O   0  0  0  0  0  0  0  0  0  0  0  0
  157.7490  214.2950  156.0520 N   0  0  0  0  0  1  0  0  0  0  0  0
  158.3710  212.7210  154.3340 C   0  0  0  0  0  0  0  0  0  0  0  0
  157.9370  212.8870  155.7470 C   0  0  1  0  0  3  0  0  0  0  0  0
  159.7120  212.0990  154.2450 C   0  0  1  0  0  3  0  0  0  0  0  0
  159.0780  212.3770  156.4900 N   0  0  0  0  0  0  0  0  0  0  0  0
  159.9960  211.9110  155.6970 C   0  0  0  0  0  0  0  0  0  0  0  0
  161.2800  211.4700  156.1720 N   0  0  0  0  0  0  0  0  0  0  0  0
  161.5250  210.3930  156.8610 C   0  0  0  0  0  3  0  0  0  0  0  0
  160.4720  209.4080  157.2600 C   0  0  0  0  0  2  0  0  0  0  0  0
  162.1600  208.0180  156.3090 O   0  0  0  0  0  1  0  0  0  0  0  0
  160.8660  208.0070  156.8320 C   0  0  2  0  0  3  0  0  0  0  0  0
  159.9010  207.5210  155.7830 C   0  0  0  0  0  1  0  0  0  0  0  0
  159.4300  212.1290  151.4700 C   0  0  0  0  0  2  0  0  0  0  0  0
  160.4360  212.9140  150.6490 C   0  0  0  0  0  2  0  0  0  0  0  0
  159.7130  213.9460  149.8110 C   0  0  0  0  0  2  0  0  0  0  0  0
  159.5220  213.4480  148.3860 C   0  0  0  0  0  2  0  0  0  0  0  0
  160.8150  213.1030  147.8130 N   0  0  0  0  0  2  0  0  0  0  0  0
  160.5540  212.1970  146.7110 C   0  0  0  0  0  2  0  0  0  0  0  0
  159.4570  212.7600  145.8280 C   0  0  0  0  0  2  0  0  0  0  0  0
  160.0420  212.9590  144.1570 S   0  0  0  0  0  0  0  0  0  0  0  0
  161.6630  213.6850  144.1790 C   0  0  0  0  0  1  0  0  0  0  0  0
  159.1010  213.8670  143.4160 O   0  0  0  0  0  0  0  0  0  0  0  0
  160.0990  211.6310  143.4570 O   0  0  0  0  0  0  0  0  0  0  0  0
  1 29  1  0  0  0  0
  2  1  1  6  0  0  0
  2  5  1  0  0  0  0
  4 10  1  6  0  0  0
  4  5  1  0  0  0  0
  6 12  1  6  0  0  0
  6  7  1  0  0  0  0
  6  4  1  0  0  0  0
  7  3  1  6  0  0  0
  7  2  1  0  0  0  0
  9  8  1  0  0  0  0
 10  9  1  0  0  0  0
 11  9  2  0  0  0  0
 12 16  1  6  0  0  0
 13 12  1  0  0  0  0
 13 15  1  0  0  0  0
 14 13  2  0  0  0  0
 17 16  1  0  0  0  0
 18 17  1  0  0  0  0
 19 26  1  6  0  0  0
 19 25  1  0  0  0  0
 19 22  1  0  0  0  0
 19 21  1  0  0  0  0
 20 18  1  1  0  0  0
 20 25  1  0  0  0  0
 21 27  1  0  0  0  0
 22 28  1  1  0  0  0
 22 24  1  0  0  0  0
 23 26  1  0  0  0  0
 23 20  1  0  0  0  0
 24 27  1  0  0  0  0
 29 30  1  0  0  0  0
 30 45  1  1  0  0  0
 30 31  1  0  0  0  0
 32 34  2  0  0  0  0
 34 35  1  0  0  0  0
 35 33  1  1  0  0  0
 35 37  1  0  0  0  0
 36 31  1  6  0  0  0
 36 34  1  0  0  0  0
 36 38  1  0  0  0  0
 38 39  1  0  0  0  0
 38 37  2  0  0  0  0
 39 40  2  0  0  0  0
 40 41  1  0  0  0  0
 42 43  1  0  0  0  0
 43 44  1  6  0  0  0
 43 41  1  0  0  0  0
 46 45  1  0  0  0  0
 47 46  1  0  0  0  0
 48 47  1  0  0  0  0
 49 48  1  0  0  0  0
 50 49  1  0  0  0  0
 51 50  1  0  0  0  0
 52 53  1  0  0  0  0
 52 51  1  0  0  0  0
 54 52  2  0  0  0  0
 55 52  2  0  0  0  0
M  END
>  <MODEL>
5

>  <REMARK>
 VINA RESULT:      -3.2      2.714      7.714
  Name = 
  23 active torsions:
  status: ('A' for Active; 'I' for Inactive)
    1  A    between atoms: C_1  and  C_23
    2  A    between atoms: C_1  and  C_47
    3  A    between atoms: C_2  and  C_29
    4  A    between atoms: S_5  and  C_31
    5  A    between atoms: C_7  and  C_20
    6  A    between atoms: C_8  and  N_45
    7  A    between atoms: N_9  and  C_26
    8  A    between atoms: N_9  and  C_47
    9  A    between atoms: N_12  and  C_49
   10  A    between atoms: C_15  and  C_16
   11  A    between atoms: C_15  and  C_23
   12  A    between atoms: C_16  and  C_40
   13  A    between atoms: C_16  and  C_55
   14  A    between atoms: C_19  and  C_43
   15  A    between atoms: C_20  and  O_38
   16  A    between atoms: C_20  and  C_46
   17  A    between atoms: C_21  and  O_38
   18  A    between atoms: C_21  and  N_45
   19  A    between atoms: C_25  and  C_40
   20  A    between atoms: C_26  and  C_31
   21  A    between atoms: C_29  and  C_55
   22  A    between atoms: C_30  and  N_42
   23  A    between atoms: C_41  and  C_43
                            x       y       z     vdW  Elec       q    Type
                         _______ _______ _______ _____ _____    ______ ____

>  <TORSDO>
F 23

$$$$
=
 OpenBabel11052410203D

 55 58  0  0  1  0  0  0  0  0999 V2000
  162.0290  206.2090  148.8440 C   0  0  0  0  0  2  0  0  0  0  0  0
  161.1610  207.4790  148.8480 C   0  0  2  0  0  3  0  0  0  0  0  0
  160.6210  206.8620  151.1390 O   0  0  0  0  0  1  0  0  0  0  0  0
  162.3760  209.5580  149.4190 C   0  0  2  0  0  3  0  0  0  0  0  0
  161.9220  208.6700  148.2590 C   0  0  0  0  0  2  0  0  0  0  0  0
  162.0530  208.7440  150.6670 C   0  0  2  0  0  3  0  0  0  0  0  0
  160.8390  207.9280  150.2650 C   0  0  1  0  0  3  0  0  0  0  0  0
  163.0780  212.0670  147.8870 O   0  0  0  0  0  0  0  0  0  0  0  0
  161.9610  212.0120  148.7210 C   0  0  0  0  0  0  0  0  0  0  0  0
  161.6240  210.8150  149.4300 N   0  0  0  0  0  2  0  0  0  0  0  0
  161.2190  213.0230  148.8270 O   0  0  0  0  0  1  0  0  0  0  0  0
  161.9050  209.5980  151.9510 C   0  0  1  0  0  3  0  0  0  0  0  0
  160.6730  210.4440  152.0970 C   0  0  0  0  0  0  0  0  0  0  0  0
  160.7880  211.8260  152.1440 O   0  0  0  0  0  0  0  0  0  0  0  0
  159.5320  209.9130  152.1650 O   0  0  0  0  0  1  0  0  0  0  0  0
  162.2880  208.9390  153.1400 O   0  0  0  0  0  0  0  0  0  0  0  0
  161.5650  209.4890  154.2090 C   0  0  0  0  0  2  0  0  0  0  0  0
  162.4070  210.4270  154.9320 N   0  0  0  0  0  2  0  0  0  0  0  0
  159.4610  211.6340  156.1360 C   0  0  2  0  0  0  0  0  0  0  0  0
  161.5920  211.0090  155.9850 C   0  0  2  0  0  3  0  0  0  0  0  0
  158.3550  211.2150  155.1960 C   0  0  0  0  0  2  0  0  0  0  0  0
  158.9410  212.8970  156.8050 C   0  0  2  0  0  3  0  0  0  0  0  0
  160.9720  209.9870  156.7250 O   0  0  0  0  0  0  0  0  0  0  0  0
  158.0840  213.5870  155.7610 C   0  0  0  0  0  2  0  0  0  0  0  0
  160.6330  211.8660  155.4140 O   0  0  0  0  0  0  0  0  0  0  0  0
  159.7650  210.5550  157.1250 C   0  0  0  0  0  2  0  0  0  0  0  0
  157.6780  212.5120  154.7580 C   0  0  0  0  0  2  0  0  0  0  0  0
  159.9810  213.7330  157.2130 O   0  0  0  0  0  1  0  0  0  0  0  0
  161.5410  205.1460  147.8630 C   0  0  0  0  0  2  0  0  0  0  0  0
  162.4050  205.0680  146.6160 C   0  0  1  0  0  3  0  0  0  0  0  0
  162.4460  203.6240  146.1330 C   0  0  0  0  0  2  0  0  0  0  0  0
  159.8880  203.6590  144.5100 O   0  0  0  0  0  0  0  0  0  0  0  0
  158.6730  201.0100  144.9430 N   0  0  0  0  0  1  0  0  0  0  0  0
  160.3250  202.7460  145.2000 C   0  0  0  0  0  0  0  0  0  0  0  0
  160.0950  201.3030  144.9230 C   0  0  1  0  0  3  0  0  0  0  0  0
  161.1130  202.9450  146.4380 C   0  0  1  0  0  3  0  0  0  0  0  0
  160.7400  200.6580  146.0540 N   0  0  0  0  0  0  0  0  0  0  0  0
  161.3250  201.5210  146.8300 C   0  0  0  0  0  0  0  0  0  0  0  0
  161.9220  201.1570  148.0860 N   0  0  0  0  0  0  0  0  0  0  0  0
  161.4390  201.3900  149.2720 C   0  0  0  0  0  3  0  0  0  0  0  0
  160.1340  202.0810  149.5130 C   0  0  0  0  0  2  0  0  0  0  0  0
  160.1910  204.0500  150.8570 O   0  0  0  0  0  1  0  0  0  0  0  0
  160.0910  202.6590  150.9150 C   0  0  2  0  0  3  0  0  0  0  0  0
  161.2390  202.1010  151.7150 C   0  0  0  0  0  1  0  0  0  0  0  0
  161.8350  205.9600  145.5330 C   0  0  0  0  0  2  0  0  0  0  0  0
  162.6410  205.8120  144.2570 C   0  0  0  0  0  2  0  0  0  0  0  0
  161.7060  205.7150  143.0720 C   0  0  0  0  0  2  0  0  0  0  0  0
  162.1850  206.6010  141.9310 C   0  0  0  0  0  2  0  0  0  0  0  0
  161.8870  205.9600  140.6580 N   0  0  0  0  0  2  0  0  0  0  0  0
  162.0080  206.9840  139.6380 C   0  0  0  0  0  2  0  0  0  0  0  0
  161.7420  208.3490  140.2410 C   0  0  0  0  0  2  0  0  0  0  0  0
  161.2960  209.5160  138.9710 S   0  0  0  0  0  0  0  0  0  0  0  0
  161.4150  208.7340  137.3800 C   0  0  0  0  0  1  0  0  0  0  0  0
  162.2430  210.6810  139.0230 O   0  0  0  0  0  0  0  0  0  0  0  0
  159.8930  210.0110  139.1800 O   0  0  0  0  0  0  0  0  0  0  0  0
  2  1  1  1  0  0  0
  2  7  1  0  0  0  0
  4 10  1  1  0  0  0
  4  6  1  0  0  0  0
  5  2  1  0  0  0  0
  5  4  1  0  0  0  0
  6 12  1  1  0  0  0
  7  6  1  0  0  0  0
  7  3  1  1  0  0  0
  8  9  2  0  0  0  0
  9 11  1  0  0  0  0
  9 10  1  0  0  0  0
 12 13  1  1  0  0  0
 12 16  1  0  0  0  0
 13 14  2  0  0  0  0
 13 15  1  0  0  0  0
 16 17  1  0  0  0  0
 17 18  1  0  0  0  0
 19 21  1  6  0  0  0
 19 22  1  0  0  0  0
 19 26  1  0  0  0  0
 20 18  1  6  0  0  0
 20 23  1  0  0  0  0
 22 28  1  6  0  0  0
 23 26  1  0  0  0  0
 24 22  1  0  0  0  0
 25 20  1  0  0  0  0
 25 19  1  0  0  0  0
 27 21  1  0  0  0  0
 27 24  1  0  0  0  0
 29  1  1  0  0  0  0
 30 45  1  6  0  0  0
 30 29  1  0  0  0  0
 31 30  1  0  0  0  0
 32 34  2  0  0  0  0
 34 36  1  0  0  0  0
 35 33  1  1  0  0  0
 35 34  1  0  0  0  0
 35 37  1  0  0  0  0
 36 31  1  6  0  0  0
 36 38  1  0  0  0  0
 37 38  2  0  0  0  0
 38 39  1  0  0  0  0
 39 40  2  0  0  0  0
 40 41  1  0  0  0  0
 41 43  1  0  0  0  0
 42 43  1  0  0  0  0
 43 44  1  1  0  0  0
 46 45  1  0  0  0  0
 47 46  1  0  0  0  0
 48 47  1  0  0  0  0
 49 48  1  0  0  0  0
 50 51  1  0  0  0  0
 50 49  1  0  0  0  0
 52 54  2  0  0  0  0
 52 55  2  0  0  0  0
 52 51  1  0  0  0  0
 53 52  1  0  0  0  0
M  END
>  <MODEL>
6

>  <REMARK>
 VINA RESULT:      -2.9      3.847     11.180
  Name = 
  23 active torsions:
  status: ('A' for Active; 'I' for Inactive)
    1  A    between atoms: C_1  and  C_23
    2  A    between atoms: C_1  and  C_47
    3  A    between atoms: C_2  and  C_29
    4  A    between atoms: S_5  and  C_31
    5  A    between atoms: C_7  and  C_20
    6  A    between atoms: C_8  and  N_45
    7  A    between atoms: N_9  and  C_26
    8  A    between atoms: N_9  and  C_47
    9  A    between atoms: N_12  and  C_49
   10  A    between atoms: C_15  and  C_16
   11  A    between atoms: C_15  and  C_23
   12  A    between atoms: C_16  and  C_40
   13  A    between atoms: C_16  and  C_55
   14  A    between atoms: C_19  and  C_43
   15  A    between atoms: C_20  and  O_38
   16  A    between atoms: C_20  and  C_46
   17  A    between atoms: C_21  and  O_38
   18  A    between atoms: C_21  and  N_45
   19  A    between atoms: C_25  and  C_40
   20  A    between atoms: C_26  and  C_31
   21  A    between atoms: C_29  and  C_55
   22  A    between atoms: C_30  and  N_42
   23  A    between atoms: C_41  and  C_43
                            x       y       z     vdW  Elec       q    Type
                         _______ _______ _______ _____ _____    ______ ____

>  <TORSDO>
F 23

$$$$
=
 OpenBabel11052410203D

 55 58  0  0  1  0  0  0  0  0999 V2000
  161.5870  207.9990  154.1850 C   0  0  0  0  0  2  0  0  0  0  0  0
  161.0310  209.0670  155.1430 C   0  0  2  0  0  3  0  0  0  0  0  0
  162.1340  210.6670  153.6800 O   0  0  0  0  0  1  0  0  0  0  0  0
  158.7220  209.8040  154.6400 C   0  0  2  0  0  3  0  0  0  0  0  0
  159.5540  208.8120  155.4570 C   0  0  0  0  0  2  0  0  0  0  0  0
  159.7320  210.4640  153.7070 C   0  0  2  0  0  3  0  0  0  0  0  0
  161.0260  210.4440  154.4970 C   0  0  1  0  0  3  0  0  0  0  0  0
  155.7620  210.3020  154.9910 O   0  0  0  0  0  0  0  0  0  0  0  0
  156.7140  211.0610  155.6710 C   0  0  0  0  0  0  0  0  0  0  0  0
  158.1140  210.8090  155.5150 N   0  0  0  0  0  2  0  0  0  0  0  0
  156.3330  211.9630  156.4620 O   0  0  0  0  0  1  0  0  0  0  0  0
  159.2810  211.8470  153.1750 C   0  0  1  0  0  3  0  0  0  0  0  0
  159.5060  213.0480  154.0490 C   0  0  0  0  0  0  0  0  0  0  0  0
  159.0370  214.2900  153.6480 O   0  0  0  0  0  0  0  0  0  0  0  0
  160.1070  212.9360  155.1520 O   0  0  0  0  0  1  0  0  0  0  0  0
  159.5720  212.0730  151.8110 O   0  0  0  0  0  0  0  0  0  0  0  0
  158.9710  213.2800  151.4200 C   0  0  0  0  0  2  0  0  0  0  0  0
  159.8390  213.9720  150.4830 N   0  0  0  0  0  2  0  0  0  0  0  0
  160.5430  213.1700  147.2510 C   0  0  2  0  0  0  0  0  0  0  0  0
  160.1930  213.0190  149.4440 C   0  0  2  0  0  3  0  0  0  0  0  0
  160.8100  214.4480  146.4900 C   0  0  0  0  0  2  0  0  0  0  0  0
  160.0610  212.1860  146.1950 C   0  0  2  0  0  3  0  0  0  0  0  0
  161.5900  212.9690  149.3010 O   0  0  0  0  0  0  0  0  0  0  0  0
  159.3100  213.0200  145.1740 C   0  0  0  0  0  2  0  0  0  0  0  0
  159.5790  213.3970  148.2350 O   0  0  0  0  0  0  0  0  0  0  0  0
  161.7750  212.6910  147.9490 C   0  0  0  0  0  2  0  0  0  0  0  0
  159.8130  214.4520  145.3340 C   0  0  0  0  0  2  0  0  0  0  0  0
  159.2260  211.2100  146.7390 O   0  0  0  0  0  1  0  0  0  0  0  0
  160.5180  207.3720  153.2930 C   0  0  0  0  0  2  0  0  0  0  0  0
  161.0640  206.2300  152.4510 C   0  0  1  0  0  3  0  0  0  0  0  0
  162.1500  206.7720  151.5310 C   0  0  0  0  0  2  0  0  0  0  0  0
  161.6490  209.6800  150.8460 O   0  0  0  0  0  0  0  0  0  0  0  0
  161.9870  209.8460  147.9230 N   0  0  0  0  0  1  0  0  0  0  0  0
  161.9290  208.7680  150.0790 C   0  0  0  0  0  0  0  0  0  0  0  0
  162.6930  208.9400  148.8140 C   0  0  1  0  0  3  0  0  0  0  0  0
  161.5110  207.3600  150.2760 C   0  0  1  0  0  3  0  0  0  0  0  0
  162.6820  207.5990  148.2530 N   0  0  0  0  0  0  0  0  0  0  0  0
  162.1030  206.7510  149.0490 C   0  0  0  0  0  0  0  0  0  0  0  0
  161.8440  205.3870  148.6740 N   0  0  0  0  0  0  0  0  0  0  0  0
  161.4380  204.9660  147.5120 C   0  0  0  0  0  3  0  0  0  0  0  0
  161.1890  205.8680  146.3440 C   0  0  0  0  0  2  0  0  0  0  0  0
  163.2150  205.3830  145.1860 O   0  0  0  0  0  1  0  0  0  0  0  0
  161.8250  205.3010  145.0900 C   0  0  2  0  0  3  0  0  0  0  0  0
  161.3540  206.0910  143.8970 C   0  0  0  0  0  1  0  0  0  0  0  0
  161.6360  205.1520  153.3470 C   0  0  0  0  0  2  0  0  0  0  0  0
  160.8710  203.8560  153.1590 C   0  0  0  0  0  2  0  0  0  0  0  0
  160.1700  203.8700  151.8180 C   0  0  0  0  0  2  0  0  0  0  0  0
  160.9460  203.0540  150.7940 C   0  0  0  0  0  2  0  0  0  0  0  0
  160.2850  201.7740  150.5880 N   0  0  0  0  0  2  0  0  0  0  0  0
  160.8970  201.1730  149.4180 C   0  0  0  0  0  2  0  0  0  0  0  0
  160.9630  202.1850  148.2920 C   0  0  0  0  0  2  0  0  0  0  0  0
  160.7600  201.3790  146.7160 S   0  0  0  0  0  0  0  0  0  0  0  0
  161.4930  199.7620  146.7780 C   0  0  0  0  0  1  0  0  0  0  0  0
  161.4480  202.1950  145.6580 O   0  0  0  0  0  0  0  0  0  0  0  0
  159.3030  201.2540  146.3720 O   0  0  0  0  0  0  0  0  0  0  0  0
  2  1  1  6  0  0  0
  2  5  1  0  0  0  0
  4  5  1  0  0  0  0
  4 10  1  1  0  0  0
  6 12  1  1  0  0  0
  6  7  1  0  0  0  0
  6  4  1  0  0  0  0
  7  3  1  6  0  0  0
  7  2  1  0  0  0  0
  8  9  2  0  0  0  0
  9 11  1  0  0  0  0
 10  9  1  0  0  0  0
 12 16  1  6  0  0  0
 12 13  1  0  0  0  0
 13 15  1  0  0  0  0
 14 13  2  0  0  0  0
 17 16  1  0  0  0  0
 18 17  1  0  0  0  0
 19 21  1  6  0  0  0
 19 26  1  0  0  0  0
 19 25  1  0  0  0  0
 20 18  1  1  0  0  0
 22 28  1  1  0  0  0
 22 19  1  0  0  0  0
 23 20  1  0  0  0  0
 24 27  1  0  0  0  0
 24 22  1  0  0  0  0
 25 20  1  0  0  0  0
 26 23  1  0  0  0  0
 27 21  1  0  0  0  0
 29  1  1  0  0  0  0
 30 31  1  6  0  0  0
 30 29  1  0  0  0  0
 30 45  1  0  0  0  0
 34 36  1  0  0  0  0
 34 32  2  0  0  0  0
 35 33  1  6  0  0  0
 35 34  1  0  0  0  0
 36 31  1  1  0  0  0
 37 35  1  0  0  0  0
 37 38  2  0  0  0  0
 38 36  1  0  0  0  0
 39 38  1  0  0  0  0
 40 39  2  0  0  0  0
 41 40  1  0  0  0  0
 43 44  1  6  0  0  0
 43 42  1  0  0  0  0
 43 41  1  0  0  0  0
 46 45  1  0  0  0  0
 47 46  1  0  0  0  0
 48 47  1  0  0  0  0
 49 48  1  0  0  0  0
 50 49  1  0  0  0  0
 51 50  1  0  0  0  0
 52 53  1  0  0  0  0
 52 51  1  0  0  0  0
 54 52  2  0  0  0  0
 55 52  2  0  0  0  0
M  END
>  <MODEL>
7

>  <REMARK>
 VINA RESULT:      -2.3      3.464      8.976
  Name = 
  23 active torsions:
  status: ('A' for Active; 'I' for Inactive)
    1  A    between atoms: C_1  and  C_23
    2  A    between atoms: C_1  and  C_47
    3  A    between atoms: C_2  and  C_29
    4  A    between atoms: S_5  and  C_31
    5  A    between atoms: C_7  and  C_20
    6  A    between atoms: C_8  and  N_45
    7  A    between atoms: N_9  and  C_26
    8  A    between atoms: N_9  and  C_47
    9  A    between atoms: N_12  and  C_49
   10  A    between atoms: C_15  and  C_16
   11  A    between atoms: C_15  and  C_23
   12  A    between atoms: C_16  and  C_40
   13  A    between atoms: C_16  and  C_55
   14  A    between atoms: C_19  and  C_43
   15  A    between atoms: C_20  and  O_38
   16  A    between atoms: C_20  and  C_46
   17  A    between atoms: C_21  and  O_38
   18  A    between atoms: C_21  and  N_45
   19  A    between atoms: C_25  and  C_40
   20  A    between atoms: C_26  and  C_31
   21  A    between atoms: C_29  and  C_55
   22  A    between atoms: C_30  and  N_42
   23  A    between atoms: C_41  and  C_43
                            x       y       z     vdW  Elec       q    Type
                         _______ _______ _______ _____ _____    ______ ____

>  <TORSDO>
F 23

$$$$
=
 OpenBabel11052410203D

 55 58  0  0  1  0  0  0  0  0999 V2000
  161.3370  207.8650  149.5310 C   0  0  0  0  0  2  0  0  0  0  0  0
  161.8840  207.8640  148.0930 C   0  0  2  0  0  3  0  0  0  0  0  0
  163.4570  206.1930  148.9050 O   0  0  0  0  0  1  0  0  0  0  0  0
  160.6880  206.3580  146.5350 C   0  0  2  0  0  3  0  0  0  0  0  0
  160.7470  207.7900  147.0700 C   0  0  0  0  0  2  0  0  0  0  0  0
  161.6540  205.5830  147.4240 C   0  0  2  0  0  3  0  0  0  0  0  0
  162.7000  206.6110  147.8100 C   0  0  1  0  0  3  0  0  0  0  0  0
  159.8070  204.3580  144.4480 O   0  0  0  0  0  1  0  0  0  0  0  0
  160.7380  205.3540  144.1540 C   0  0  0  0  0  0  0  0  0  0  0  0
  161.1380  206.3090  145.1420 N   0  0  0  0  0  2  0  0  0  0  0  0
  161.2110  205.4340  142.9900 O   0  0  0  0  0  0  0  0  0  0  0  0
  162.1880  204.2780  146.7810 C   0  0  1  0  0  3  0  0  0  0  0  0
  163.4770  204.3460  146.0130 C   0  0  0  0  0  0  0  0  0  0  0  0
  163.4800  204.0960  144.6480 O   0  0  0  0  0  0  0  0  0  0  0  0
  164.5570  204.6410  146.5930 O   0  0  0  0  0  1  0  0  0  0  0  0
  162.0710  203.1320  147.5980 O   0  0  0  0  0  0  0  0  0  0  0  0
  161.0200  202.3400  147.1110 C   0  0  0  0  0  2  0  0  0  0  0  0
  161.1730  200.9790  147.5980 N   0  0  0  0  0  2  0  0  0  0  0  0
  160.5090  202.6260  150.5020 C   0  0  2  0  0  0  0  0  0  0  0  0
  160.9530  201.0120  149.0340 C   0  0  2  0  0  3  0  0  0  0  0  0
  160.0020  204.0080  150.1610 C   0  0  0  0  0  2  0  0  0  0  0  0
  161.1160  202.7690  151.8900 C   0  0  2  0  0  3  0  0  0  0  0  0
  159.5810  200.8790  149.3070 O   0  0  0  0  0  0  0  0  0  0  0  0
  161.6790  204.1760  151.9440 C   0  0  0  0  0  2  0  0  0  0  0  0
  161.4520  202.2200  149.5560 O   0  0  0  0  0  0  0  0  0  0  0  0
  159.4010  201.6230  150.4710 C   0  0  0  0  0  2  0  0  0  0  0  0
  160.9450  204.9760  150.8720 C   0  0  0  0  0  2  0  0  0  0  0  0
  162.1230  201.8310  152.1140 O   0  0  0  0  0  1  0  0  0  0  0  0
  162.3390  208.3830  150.5590 C   0  0  0  0  0  2  0  0  0  0  0  0
  161.9460  209.7410  151.1160 C   0  0  1  0  0  3  0  0  0  0  0  0
  161.1170  210.4810  150.0740 C   0  0  0  0  0  2  0  0  0  0  0  0
  163.2290  211.0890  147.9880 O   0  0  0  0  0  0  0  0  0  0  0  0
  162.6220  213.8200  147.0610 N   0  0  0  0  0  1  0  0  0  0  0  0
  162.3200  211.8170  148.3690 C   0  0  0  0  0  0  0  0  0  0  0  0
  161.6530  212.8390  147.5180 C   0  0  1  0  0  3  0  0  0  0  0  0
  161.7790  211.8170  149.7480 C   0  0  1  0  0  3  0  0  0  0  0  0
  160.7270  213.4660  148.4470 N   0  0  0  0  0  0  0  0  0  0  0  0
  160.7540  212.8930  149.6130 C   0  0  0  0  0  0  0  0  0  0  0  0
  160.0310  213.4040  150.7460 N   0  0  0  0  0  0  0  0  0  0  0  0
  158.9040  214.0530  150.7180 C   0  0  0  0  0  3  0  0  0  0  0  0
  158.1550  214.3590  149.4600 C   0  0  0  0  0  2  0  0  0  0  0  0
  156.8450  213.1650  147.8650 O   0  0  0  0  0  1  0  0  0  0  0  0
  157.0560  213.3380  149.2340 C   0  0  2  0  0  3  0  0  0  0  0  0
  155.7870  213.8260  149.8830 C   0  0  0  0  0  1  0  0  0  0  0  0
  161.1420  209.5680  152.3880 C   0  0  0  0  0  2  0  0  0  0  0  0
  161.8910  210.1630  153.5640 C   0  0  0  0  0  2  0  0  0  0  0  0
  160.9990  211.1460  154.2900 C   0  0  0  0  0  2  0  0  0  0  0  0
  159.8490  210.4250  154.9800 C   0  0  0  0  0  2  0  0  0  0  0  0
  159.7760  210.8450  156.3720 N   0  0  0  0  0  2  0  0  0  0  0  0
  158.4730  211.4550  156.5560 C   0  0  0  0  0  2  0  0  0  0  0  0
  157.7480  211.5340  155.2270 C   0  0  0  0  0  2  0  0  0  0  0  0
  156.0000  211.7670  155.4830 S   0  0  0  0  0  0  0  0  0  0  0  0
  155.5540  213.4310  155.0480 C   0  0  0  0  0  1  0  0  0  0  0  0
  155.6840  211.5320  156.9330 O   0  0  0  0  0  0  0  0  0  0  0  0
  155.2110  210.8030  154.6430 O   0  0  0  0  0  0  0  0  0  0  0  0
  1 29  1  0  0  0  0
  2  1  1  1  0  0  0
  4 10  1  6  0  0  0
  4  5  1  0  0  0  0
  4  6  1  0  0  0  0
  5  2  1  0  0  0  0
  6 12  1  6  0  0  0
  6  7  1  0  0  0  0
  7  2  1  0  0  0  0
  7  3  1  1  0  0  0
  9  8  1  0  0  0  0
  9 10  1  0  0  0  0
 11  9  2  0  0  0  0
 12 13  1  1  0  0  0
 12 16  1  0  0  0  0
 13 15  1  0  0  0  0
 14 13  2  0  0  0  0
 17 16  1  0  0  0  0
 17 18  1  0  0  0  0
 19 21  1  6  0  0  0
 19 22  1  0  0  0  0
 20 18  1  6  0  0  0
 20 23  1  0  0  0  0
 20 25  1  0  0  0  0
 21 27  1  0  0  0  0
 22 24  1  0  0  0  0
 22 28  1  6  0  0  0
 23 26  1  0  0  0  0
 25 19  1  0  0  0  0
 26 19  1  0  0  0  0
 27 24  1  0  0  0  0
 29 30  1  0  0  0  0
 30 31  1  6  0  0  0
 30 45  1  0  0  0  0
 32 34  2  0  0  0  0
 34 36  1  0  0  0  0
 35 33  1  1  0  0  0
 35 34  1  0  0  0  0
 35 37  1  0  0  0  0
 36 31  1  6  0  0  0
 37 38  2  0  0  0  0
 38 36  1  0  0  0  0
 38 39  1  0  0  0  0
 40 39  2  0  0  0  0
 41 40  1  0  0  0  0
 42 43  1  0  0  0  0
 43 41  1  0  0  0  0
 43 44  1  1  0  0  0
 45 46  1  0  0  0  0
 46 47  1  0  0  0  0
 47 48  1  0  0  0  0
 48 49  1  0  0  0  0
 49 50  1  0  0  0  0
 51 52  1  0  0  0  0
 51 50  1  0  0  0  0
 52 54  2  0  0  0  0
 53 52  1  0  0  0  0
 55 52  2  0  0  0  0
M  END
>  <MODEL>
8

>  <REMARK>
 VINA RESULT:      -2.2      2.902      5.709
  Name = 
  23 active torsions:
  status: ('A' for Active; 'I' for Inactive)
    1  A    between atoms: C_1  and  C_23
    2  A    between atoms: C_1  and  C_47
    3  A    between atoms: C_2  and  C_29
    4  A    between atoms: S_5  and  C_31
    5  A    between atoms: C_7  and  C_20
    6  A    between atoms: C_8  and  N_45
    7  A    between atoms: N_9  and  C_26
    8  A    between atoms: N_9  and  C_47
    9  A    between atoms: N_12  and  C_49
   10  A    between atoms: C_15  and  C_16
   11  A    between atoms: C_15  and  C_23
   12  A    between atoms: C_16  and  C_40
   13  A    between atoms: C_16  and  C_55
   14  A    between atoms: C_19  and  C_43
   15  A    between atoms: C_20  and  O_38
   16  A    between atoms: C_20  and  C_46
   17  A    between atoms: C_21  and  O_38
   18  A    between atoms: C_21  and  N_45
   19  A    between atoms: C_25  and  C_40
   20  A    between atoms: C_26  and  C_31
   21  A    between atoms: C_29  and  C_55
   22  A    between atoms: C_30  and  N_42
   23  A    between atoms: C_41  and  C_43
                            x       y       z     vdW  Elec       q    Type
                         _______ _______ _______ _____ _____    ______ ____

>  <TORSDO>
F 23

$$$$
=
 OpenBabel11052410203D

 55 58  0  0  1  0  0  0  0  0999 V2000
  161.6870  207.9760  150.2660 C   0  0  0  0  0  2  0  0  0  0  0  0
  162.2320  207.7630  151.6900 C   0  0  2  0  0  3  0  0  0  0  0  0
  162.6980  210.1510  151.6540 O   0  0  0  0  0  1  0  0  0  0  0  0
  160.5220  207.8590  153.4750 C   0  0  2  0  0  3  0  0  0  0  0  0
  161.2700  206.9180  152.5280 C   0  0  0  0  0  2  0  0  0  0  0  0
  160.9150  209.2560  153.0070 C   0  0  2  0  0  3  0  0  0  0  0  0
  162.3160  209.0740  152.4550 C   0  0  1  0  0  3  0  0  0  0  0  0
  158.7640  207.0330  155.7910 O   0  0  0  0  0  0  0  0  0  0  0  0
  160.1260  207.2770  155.9620 C   0  0  0  0  0  0  0  0  0  0  0  0
  160.9570  207.6510  154.8590 N   0  0  0  0  0  2  0  0  0  0  0  0
  160.6400  207.1360  157.1020 O   0  0  0  0  0  1  0  0  0  0  0  0
  160.7470  210.3500  154.0920 C   0  0  1  0  0  3  0  0  0  0  0  0
  161.7800  210.4280  155.1800 C   0  0  0  0  0  0  0  0  0  0  0  0
  163.1010  210.7060  154.8570 O   0  0  0  0  0  0  0  0  0  0  0  0
  161.4570  210.2580  156.3870 O   0  0  0  0  0  1  0  0  0  0  0  0
  160.3450  211.6090  153.5960 O   0  0  0  0  0  0  0  0  0  0  0  0
  159.3650  211.4110  152.6110 C   0  0  0  0  0  2  0  0  0  0  0  0
  159.0920  212.6690  151.9390 N   0  0  0  0  0  2  0  0  0  0  0  0
  157.3600  213.1400  154.8310 C   0  0  2  0  0  0  0  0  0  0  0  0
  158.1380  213.3950  152.7610 C   0  0  2  0  0  3  0  0  0  0  0  0
  157.9960  212.2950  155.9100 C   0  0  0  0  0  2  0  0  0  0  0  0
  155.9140  213.3060  155.2740 C   0  0  2  0  0  3  0  0  0  0  0  0
  158.8090  214.3710  153.5170 O   0  0  0  0  0  0  0  0  0  0  0  0
  155.5600  212.0210  155.9970 C   0  0  0  0  0  2  0  0  0  0  0  0
  157.4600  212.4900  153.6000 O   0  0  0  0  0  0  0  0  0  0  0  0
  158.0620  214.4520  154.6900 C   0  0  0  0  0  2  0  0  0  0  0  0
  156.8800  211.3960  156.4370 C   0  0  0  0  0  2  0  0  0  0  0  0
  155.0600  213.5080  154.1890 O   0  0  0  0  0  1  0  0  0  0  0  0
  162.3110  209.1730  149.5530 C   0  0  0  0  0  2  0  0  0  0  0  0
  161.3250  209.8780  148.6360 C   0  0  1  0  0  3  0  0  0  0  0  0
  161.8100  211.3020  148.3930 C   0  0  0  0  0  2  0  0  0  0  0  0
  158.8980  212.1140  148.1960 O   0  0  0  0  0  0  0  0  0  0  0  0
  158.8770  214.4510  146.4020 N   0  0  0  0  0  1  0  0  0  0  0  0
  159.8610  212.6380  147.6490 C   0  0  0  0  0  0  0  0  0  0  0  0
  159.9480  214.0840  147.3120 C   0  0  1  0  0  3  0  0  0  0  0  0
  161.0650  211.9000  147.2030 C   0  0  1  0  0  3  0  0  0  0  0  0
  161.2240  214.1710  146.6220 N   0  0  0  0  0  0  0  0  0  0  0  0
  161.8420  213.0270  146.6090 C   0  0  0  0  0  0  0  0  0  0  0  0
  163.0600  212.8110  145.8760 N   0  0  0  0  0  0  0  0  0  0  0  0
  163.2310  212.9550  144.5940 C   0  0  0  0  0  3  0  0  0  0  0  0
  162.1500  213.3990  143.6600 C   0  0  0  0  0  2  0  0  0  0  0  0
  162.1040  211.9680  141.7530 O   0  0  0  0  0  1  0  0  0  0  0  0
  161.5010  212.2030  142.9900 C   0  0  2  0  0  3  0  0  0  0  0  0
  160.0340  212.4830  142.7930 C   0  0  0  0  0  1  0  0  0  0  0  0
  161.2180  209.1370  147.3200 C   0  0  0  0  0  2  0  0  0  0  0  0
  161.6420  207.6910  147.5000 C   0  0  0  0  0  2  0  0  0  0  0  0
  160.4210  206.8280  147.7270 C   0  0  0  0  0  2  0  0  0  0  0  0
  160.7630  205.3540  147.5650 C   0  0  0  0  0  2  0  0  0  0  0  0
  161.7290  205.1930  146.4880 N   0  0  0  0  0  2  0  0  0  0  0  0
  162.0030  203.7720  146.3840 C   0  0  0  0  0  2  0  0  0  0  0  0
  161.9850  203.1400  147.7620 C   0  0  0  0  0  2  0  0  0  0  0  0
  160.7740  201.8350  147.8330 S   0  0  0  0  0  0  0  0  0  0  0  0
  161.5410  200.3470  148.4300 C   0  0  0  0  0  1  0  0  0  0  0  0
  160.2350  201.5940  146.4510 O   0  0  0  0  0  0  0  0  0  0  0  0
  159.6430  202.2150  148.7450 O   0  0  0  0  0  0  0  0  0  0  0  0
  2  1  1  6  0  0  0
  2  7  1  0  0  0  0
  2  5  1  0  0  0  0
  4 10  1  1  0  0  0
  5  4  1  0  0  0  0
  6  4  1  0  0  0  0
  6 12  1  1  0  0  0
  7  3  1  6  0  0  0
  7  6  1  0  0  0  0
  8  9  2  0  0  0  0
  9 11  1  0  0  0  0
 10  9  1  0  0  0  0
 12 16  1  6  0  0  0
 12 13  1  0  0  0  0
 13 15  1  0  0  0  0
 14 13  2  0  0  0  0
 17 16  1  0  0  0  0
 18 17  1  0  0  0  0
 19 26  1  6  0  0  0
 19 22  1  0  0  0  0
 19 21  1  0  0  0  0
 20 18  1  1  0  0  0
 20 23  1  0  0  0  0
 20 25  1  0  0  0  0
 21 27  1  0  0  0  0
 22 28  1  6  0  0  0
 22 24  1  0  0  0  0
 23 26  1  0  0  0  0
 24 27  1  0  0  0  0
 25 19  1  0  0  0  0
 29  1  1  0  0  0  0
 30 45  1  6  0  0  0
 30 29  1  0  0  0  0
 31 30  1  0  0  0  0
 34 32  2  0  0  0  0
 35 33  1  6  0  0  0
 35 34  1  0  0  0  0
 36 34  1  0  0  0  0
 36 31  1  1  0  0  0
 37 35  1  0  0  0  0
 38 37  2  0  0  0  0
 38 36  1  0  0  0  0
 39 38  1  0  0  0  0
 40 39  2  0  0  0  0
 41 40  1  0  0  0  0
 42 43  1  0  0  0  0
 43 44  1  6  0  0  0
 43 41  1  0  0  0  0
 45 46  1  0  0  0  0
 46 47  1  0  0  0  0
 48 47  1  0  0  0  0
 49 48  1  0  0  0  0
 50 49  1  0  0  0  0
 50 51  1  0  0  0  0
 51 52  1  0  0  0  0
 52 53  1  0  0  0  0
 52 55  2  0  0  0  0
 54 52  2  0  0  0  0
M  END
>  <MODEL>
9

>  <REMARK>
 VINA RESULT:      -2.1      2.778      8.296
  Name = 
  23 active torsions:
  status: ('A' for Active; 'I' for Inactive)
    1  A    between atoms: C_1  and  C_23
    2  A    between atoms: C_1  and  C_47
    3  A    between atoms: C_2  and  C_29
    4  A    between atoms: S_5  and  C_31
    5  A    between atoms: C_7  and  C_20
    6  A    between atoms: C_8  and  N_45
    7  A    between atoms: N_9  and  C_26
    8  A    between atoms: N_9  and  C_47
    9  A    between atoms: N_12  and  C_49
   10  A    between atoms: C_15  and  C_16
   11  A    between atoms: C_15  and  C_23
   12  A    between atoms: C_16  and  C_40
   13  A    between atoms: C_16  and  C_55
   14  A    between atoms: C_19  and  C_43
   15  A    between atoms: C_20  and  O_38
   16  A    between atoms: C_20  and  C_46
   17  A    between atoms: C_21  and  O_38
   18  A    between atoms: C_21  and  N_45
   19  A    between atoms: C_25  and  C_40
   20  A    between atoms: C_26  and  C_31
   21  A    between atoms: C_29  and  C_55
   22  A    between atoms: C_30  and  N_42
   23  A    between atoms: C_41  and  C_43
                            x       y       z     vdW  Elec       q    Type
                         _______ _______ _______ _____ _____    ______ ____

>  <TORSDO>
F 23

$$$$
