=
 OpenBabel11052409483D

 26 28  0  0  1  0  0  0  0  0999 V2000
  162.1730  207.4170  150.9880 N   0  0  0  0  0  2  0  0  0  0  0  0
  160.7600  204.1380  152.2010 C   0  0  0  0  0  3  0  0  0  0  0  0
  161.5700  205.3820  149.8530 C   0  0  0  0  0  3  0  0  0  0  0  0
  160.3100  209.3960  153.2860 O   0  0  0  0  0  0  0  0  0  0  0  0
  161.1010  204.0680  149.8150 C   0  0  0  0  0  0  0  0  0  0  0  0
  161.2650  206.0520  153.5960 C   0  0  0  0  0  3  0  0  0  0  0  0
  160.7040  203.4420  150.9940 C   0  0  0  0  0  3  0  0  0  0  0  0
  161.2240  207.3330  153.9430 C   0  0  0  0  0  0  0  0  0  0  0  0
  161.8770  208.5150  151.8100 N   0  0  0  0  0  0  0  0  0  0  0  0
  161.0680  208.4330  152.9870 C   0  0  0  0  0  0  0  0  0  0  0  0
  161.6130  206.1020  151.0540 C   0  0  0  0  0  0  0  0  0  0  0  0
  161.2000  205.4670  152.2510 C   0  0  0  0  0  0  0  0  0  0  0  0
  161.2390  207.8840  156.4800 N   0  0  0  0  0  0  0  0  0  0  0  0
  161.2320  207.6380  155.3490 C   0  0  0  0  0  0  0  0  0  0  0  0
  161.0760  203.3230  148.5270 C   0  0  0  0  0  2  0  0  0  0  0  0
  162.0160  203.9230  147.5960 N   0  0  0  0  0  2  0  0  0  0  0  0
  160.4200  206.0970  145.0990 O   0  0  0  0  0  1  0  0  0  0  0  0
  162.1330  206.4780  146.7160 O   0  0  0  0  0  1  0  0  0  0  0  0
  161.2910  204.1450  146.3560 C   0  0  1  0  0  3  0  0  0  0  0  0
  161.4390  205.5830  145.8990 C   0  0  0  0  0  0  0  0  0  0  0  0
  162.2820  204.5190  145.2490 C   0  0  0  0  0  2  0  0  0  0  0  0
  162.3360  209.8250  151.3670 C   0  0  0  0  0  2  0  0  0  0  0  0
  161.9850  210.0310  149.9060 C   0  0  0  0  0  2  0  0  0  0  0  0
  161.8720  211.3940  149.6430 O   0  0  0  0  0  0  0  0  0  0  0  0
  162.2560  211.5270  148.3090 C   0  0  0  0  0  2  0  0  0  0  0  0
  161.1350  211.7940  147.5260 O   0  0  0  0  0  1  0  0  0  0  0  0
  1 11  1  0  0  0  0
  1  9  1  0  0  0  0
  2 12  1  0  0  0  0
  3 11  1  0  0  0  0
  5  3  2  0  0  0  0
  5  7  1  0  0  0  0
  6  8  2  0  0  0  0
  7  2  2  0  0  0  0
  8 14  1  0  0  0  0
  9 10  1  0  0  0  0
 10  4  2  0  0  0  0
 10  8  1  0  0  0  0
 11 12  2  0  0  0  0
 12  6  1  0  0  0  0
 14 13  3  0  0  0  0
 15  5  1  0  0  0  0
 16 15  1  0  0  0  0
 17 20  1  0  0  0  0
 19 16  1  1  0  0  0
 20 19  1  0  0  0  0
 20 18  1  0  0  0  0
 21 20  1  0  0  0  0
 21 19  1  0  0  0  0
 22  9  1  0  0  0  0
 23 22  1  0  0  0  0
 24 23  1  0  0  0  0
 25 24  1  0  0  0  0
 26 25  1  0  0  0  0
M  END
>  <MODEL>
1

>  <REMARK>
 VINA RESULT:      -8.1      0.000      0.000
  Name = 
  8 active torsions:
  status: ('A' for Active; 'I' for Inactive)
    1  A    between atoms: C_1  and  C_8
    2  A    between atoms: C_1  and  N_15
    3  A    between atoms: C_5  and  N_13
    4  A    between atoms: C_5  and  C_21
    5  A    between atoms: C_6  and  O_26
    6  A    between atoms: C_12  and  C_19
    7  A    between atoms: N_15  and  C_17
    8  A    between atoms: C_21  and  O_26
                            x       y       z     vdW  Elec       q    Type
                         _______ _______ _______ _____ _____    ______ ____

>  <TORSDO>
F 8

$$$$
=
 OpenBabel11052409483D

 26 28  0  0  1  0  0  0  0  0999 V2000
  160.8340  206.1130  149.0860 N   0  0  0  0  0  2  0  0  0  0  0  0
  161.0340  203.5970  151.8860 C   0  0  0  0  0  3  0  0  0  0  0  0
  161.0340  206.3440  151.4730 C   0  0  0  0  0  3  0  0  0  0  0  0
  162.7410  204.1530  146.8070 O   0  0  0  0  0  0  0  0  0  0  0  0
  161.1150  205.8390  152.7710 C   0  0  0  0  0  0  0  0  0  0  0  0
  160.8470  203.0650  149.5310 C   0  0  0  0  0  3  0  0  0  0  0  0
  161.1050  204.4610  152.9780 C   0  0  0  0  0  3  0  0  0  0  0  0
  161.1840  203.1440  148.2490 C   0  0  0  0  0  0  0  0  0  0  0  0
  161.2770  205.6340  147.8430 N   0  0  0  0  0  0  0  0  0  0  0  0
  161.8090  204.3220  147.6400 C   0  0  0  0  0  0  0  0  0  0  0  0
  160.9830  205.4880  150.3640 C   0  0  0  0  0  0  0  0  0  0  0  0
  160.9820  204.0880  150.5750 C   0  0  0  0  0  0  0  0  0  0  0  0
  160.8740  201.0110  146.8010 N   0  0  0  0  0  0  0  0  0  0  0  0
  161.0120  201.9630  147.4460 C   0  0  0  0  0  0  0  0  0  0  0  0
  161.1570  206.7690  153.9320 C   0  0  0  0  0  2  0  0  0  0  0  0
  160.7770  208.1030  153.5040 N   0  0  0  0  0  2  0  0  0  0  0  0
  162.3250  210.8840  155.3420 O   0  0  0  0  0  1  0  0  0  0  0  0
  162.1620  210.3750  153.0160 O   0  0  0  0  0  1  0  0  0  0  0  0
  160.9050  208.9680  154.6650 C   0  0  1  0  0  3  0  0  0  0  0  0
  161.6490  210.2390  154.3080 C   0  0  0  0  0  0  0  0  0  0  0  0
  160.1480  210.2750  154.4110 C   0  0  0  0  0  2  0  0  0  0  0  0
  161.2890  206.5730  146.7290 C   0  0  0  0  0  2  0  0  0  0  0  0
  160.2470  206.1730  145.7020 C   0  0  0  0  0  2  0  0  0  0  0  0
  160.7650  206.3500  144.4210 O   0  0  0  0  0  0  0  0  0  0  0  0
  161.2680  205.0980  144.0700 C   0  0  0  0  0  2  0  0  0  0  0  0
  160.3620  204.1100  144.4490 O   0  0  0  0  0  1  0  0  0  0  0  0
  1 11  1  0  0  0  0
  2  7  1  0  0  0  0
  3  5  1  0  0  0  0
  4 10  2  0  0  0  0
  5  7  2  0  0  0  0
  5 15  1  0  0  0  0
  6 12  1  0  0  0  0
  8  6  2  0  0  0  0
  9  1  1  0  0  0  0
 10  9  1  0  0  0  0
 10  8  1  0  0  0  0
 11 12  1  0  0  0  0
 11  3  2  0  0  0  0
 12  2  2  0  0  0  0
 13 14  3  0  0  0  0
 14  8  1  0  0  0  0
 16 15  1  0  0  0  0
 18 20  1  0  0  0  0
 19 16  1  6  0  0  0
 20 21  1  0  0  0  0
 20 19  1  0  0  0  0
 20 17  1  0  0  0  0
 21 19  1  0  0  0  0
 22  9  1  0  0  0  0
 23 22  1  0  0  0  0
 24 23  1  0  0  0  0
 25 24  1  0  0  0  0
 25 26  1  0  0  0  0
M  END
>  <MODEL>
2

>  <REMARK>
 VINA RESULT:      -8.1      2.411      7.156
  Name = 
  8 active torsions:
  status: ('A' for Active; 'I' for Inactive)
    1  A    between atoms: C_1  and  C_8
    2  A    between atoms: C_1  and  N_15
    3  A    between atoms: C_5  and  N_13
    4  A    between atoms: C_5  and  C_21
    5  A    between atoms: C_6  and  O_26
    6  A    between atoms: C_12  and  C_19
    7  A    between atoms: N_15  and  C_17
    8  A    between atoms: C_21  and  O_26
                            x       y       z     vdW  Elec       q    Type
                         _______ _______ _______ _____ _____    ______ ____

>  <TORSDO>
F 8

$$$$
=
 OpenBabel11052409483D

 26 28  0  0  1  0  0  0  0  0999 V2000
  160.8360  206.6260  148.7660 N   0  0  0  0  0  2  0  0  0  0  0  0
  161.1600  204.9570  152.1310 C   0  0  0  0  0  3  0  0  0  0  0  0
  161.1330  207.4910  150.9920 C   0  0  0  0  0  3  0  0  0  0  0  0
  162.6540  204.1100  147.0250 O   0  0  0  0  0  0  0  0  0  0  0  0
  161.2700  207.3540  152.3740 C   0  0  0  0  0  0  0  0  0  0  0  0
  160.8790  203.8120  150.0160 C   0  0  0  0  0  3  0  0  0  0  0  0
  161.2740  206.0830  152.9460 C   0  0  0  0  0  3  0  0  0  0  0  0
  161.1620  203.5390  148.7470 C   0  0  0  0  0  0  0  0  0  0  0  0
  161.2280  205.8270  147.6810 N   0  0  0  0  0  0  0  0  0  0  0  0
  161.7560  204.5040  147.8180 C   0  0  0  0  0  0  0  0  0  0  0  0
  161.0400  206.3690  150.1590 C   0  0  0  0  0  0  0  0  0  0  0  0
  161.0530  205.0770  150.7390 C   0  0  0  0  0  0  0  0  0  0  0  0
  160.8000  201.0980  147.9430 N   0  0  0  0  0  0  0  0  0  0  0  0
  160.9610  202.1860  148.3010 C   0  0  0  0  0  0  0  0  0  0  0  0
  161.3570  208.5620  153.2380 C   0  0  0  0  0  2  0  0  0  0  0  0
  160.2560  209.4610  152.9350 N   0  0  0  0  0  2  0  0  0  0  0  0
  160.0890  212.9490  151.7890 O   0  0  0  0  0  1  0  0  0  0  0  0
  158.4210  211.4000  152.5030 O   0  0  0  0  0  1  0  0  0  0  0  0
  160.8380  210.7750  152.7170 C   0  0  1  0  0  3  0  0  0  0  0  0
  159.7530  211.8160  152.5290 C   0  0  0  0  0  0  0  0  0  0  0  0
  160.4350  211.7050  153.8660 C   0  0  0  0  0  2  0  0  0  0  0  0
  161.1910  206.4300  146.3560 C   0  0  0  0  0  2  0  0  0  0  0  0
  159.9860  205.9220  145.5880 C   0  0  0  0  0  2  0  0  0  0  0  0
  160.3930  204.9590  144.6680 O   0  0  0  0  0  0  0  0  0  0  0  0
  161.5940  205.4500  144.1560 C   0  0  0  0  0  2  0  0  0  0  0  0
  161.4100  205.8420  142.8320 O   0  0  0  0  0  1  0  0  0  0  0  0
  1 11  1  0  0  0  0
  2  7  1  0  0  0  0
  3  5  1  0  0  0  0
  4 10  2  0  0  0  0
  5  7  2  0  0  0  0
  5 15  1  0  0  0  0
  6 12  1  0  0  0  0
  8  6  2  0  0  0  0
  9 10  1  0  0  0  0
  9  1  1  0  0  0  0
 10  8  1  0  0  0  0
 11 12  1  0  0  0  0
 11  3  2  0  0  0  0
 12  2  2  0  0  0  0
 13 14  3  0  0  0  0
 14  8  1  0  0  0  0
 16 15  1  0  0  0  0
 17 20  1  0  0  0  0
 18 20  1  0  0  0  0
 19 16  1  1  0  0  0
 19 21  1  0  0  0  0
 20 19  1  0  0  0  0
 20 21  1  0  0  0  0
 22  9  1  0  0  0  0
 23 22  1  0  0  0  0
 24 23  1  0  0  0  0
 25 24  1  0  0  0  0
 26 25  1  0  0  0  0
M  END
>  <MODEL>
3

>  <REMARK>
 VINA RESULT:      -7.4      2.262      7.008
  Name = 
  8 active torsions:
  status: ('A' for Active; 'I' for Inactive)
    1  A    between atoms: C_1  and  C_8
    2  A    between atoms: C_1  and  N_15
    3  A    between atoms: C_5  and  N_13
    4  A    between atoms: C_5  and  C_21
    5  A    between atoms: C_6  and  O_26
    6  A    between atoms: C_12  and  C_19
    7  A    between atoms: N_15  and  C_17
    8  A    between atoms: C_21  and  O_26
                            x       y       z     vdW  Elec       q    Type
                         _______ _______ _______ _____ _____    ______ ____

>  <TORSDO>
F 8

$$$$
=
 OpenBabel11052409483D

 26 28  0  0  1  0  0  0  0  0999 V2000
  160.5090  206.4760  149.3880 N   0  0  0  0  0  2  0  0  0  0  0  0
  161.1790  205.1680  152.8600 C   0  0  0  0  0  3  0  0  0  0  0  0
  161.0030  207.5690  151.4740 C   0  0  0  0  0  3  0  0  0  0  0  0
  162.1930  203.8030  147.7480 O   0  0  0  0  0  0  0  0  0  0  0  0
  161.2730  207.5780  152.8430 C   0  0  0  0  0  0  0  0  0  0  0  0
  160.7160  203.8070  150.9120 C   0  0  0  0  0  3  0  0  0  0  0  0
  161.3520  206.3730  153.5390 C   0  0  0  0  0  3  0  0  0  0  0  0
  160.8810  203.4050  149.6560 C   0  0  0  0  0  0  0  0  0  0  0  0
  160.8090  205.5700  148.3590 N   0  0  0  0  0  0  0  0  0  0  0  0
  161.3690  204.2720  148.5800 C   0  0  0  0  0  0  0  0  0  0  0  0
  160.8480  206.3660  150.7730 C   0  0  0  0  0  0  0  0  0  0  0  0
  160.9380  205.1420  151.4800 C   0  0  0  0  0  0  0  0  0  0  0  0
  160.4840  200.8910  149.1460 N   0  0  0  0  0  0  0  0  0  0  0  0
  160.6610  202.0120  149.3740 C   0  0  0  0  0  0  0  0  0  0  0  0
  161.4220  208.8700  153.5650 C   0  0  0  0  0  2  0  0  0  0  0  0
  160.9490  208.7250  154.9310 N   0  0  0  0  0  2  0  0  0  0  0  0
  160.8060  212.0870  156.4080 O   0  0  0  0  0  1  0  0  0  0  0  0
  159.1160  210.5240  155.7800 O   0  0  0  0  0  1  0  0  0  0  0  0
  161.5200  209.8240  155.6910 C   0  0  1  0  0  3  0  0  0  0  0  0
  160.4340  210.7650  156.1730 C   0  0  0  0  0  0  0  0  0  0  0  0
  161.0120  209.7620  157.1350 C   0  0  0  0  0  2  0  0  0  0  0  0
  160.6360  206.0320  146.9880 C   0  0  0  0  0  2  0  0  0  0  0  0
  161.9790  206.4200  146.3990 C   0  0  0  0  0  2  0  0  0  0  0  0
  162.1960  205.7040  145.2240 O   0  0  0  0  0  0  0  0  0  0  0  0
  160.9300  205.5740  144.6540 C   0  0  0  0  0  2  0  0  0  0  0  0
  160.6760  204.2300  144.3880 O   0  0  0  0  0  1  0  0  0  0  0  0
  1 11  1  0  0  0  0
  2  7  1  0  0  0  0
  3  5  1  0  0  0  0
  4 10  2  0  0  0  0
  5  7  2  0  0  0  0
  5 15  1  0  0  0  0
  6 12  1  0  0  0  0
  8  6  2  0  0  0  0
  9 10  1  0  0  0  0
  9  1  1  0  0  0  0
 10  8  1  0  0  0  0
 11  3  2  0  0  0  0
 11 12  1  0  0  0  0
 12  2  2  0  0  0  0
 13 14  3  0  0  0  0
 14  8  1  0  0  0  0
 15 16  1  0  0  0  0
 18 20  1  0  0  0  0
 19 16  1  6  0  0  0
 19 20  1  0  0  0  0
 19 21  1  0  0  0  0
 20 17  1  0  0  0  0
 20 21  1  0  0  0  0
 22  9  1  0  0  0  0
 23 22  1  0  0  0  0
 24 23  1  0  0  0  0
 25 24  1  0  0  0  0
 26 25  1  0  0  0  0
M  END
>  <MODEL>
4

>  <REMARK>
 VINA RESULT:      -7.2      2.738      7.484
  Name = 
  8 active torsions:
  status: ('A' for Active; 'I' for Inactive)
    1  A    between atoms: C_1  and  C_8
    2  A    between atoms: C_1  and  N_15
    3  A    between atoms: C_5  and  N_13
    4  A    between atoms: C_5  and  C_21
    5  A    between atoms: C_6  and  O_26
    6  A    between atoms: C_12  and  C_19
    7  A    between atoms: N_15  and  C_17
    8  A    between atoms: C_21  and  O_26
                            x       y       z     vdW  Elec       q    Type
                         _______ _______ _______ _____ _____    ______ ____

>  <TORSDO>
F 8

$$$$
=
 OpenBabel11052409483D

 26 28  0  0  1  0  0  0  0  0999 V2000
  161.8900  208.0790  151.7120 N   0  0  0  0  0  2  0  0  0  0  0  0
  160.8840  204.5410  152.5420 C   0  0  0  0  0  3  0  0  0  0  0  0
  161.4110  206.1580  150.3450 C   0  0  0  0  0  3  0  0  0  0  0  0
  160.0040  209.5370  154.3550 O   0  0  0  0  0  0  0  0  0  0  0  0
  161.0690  204.8190  150.1530 C   0  0  0  0  0  0  0  0  0  0  0  0
  161.2950  206.3000  154.1550 C   0  0  0  0  0  3  0  0  0  0  0  0
  160.8140  204.0060  151.2560 C   0  0  0  0  0  3  0  0  0  0  0  0
  161.1550  207.5140  154.6750 C   0  0  0  0  0  0  0  0  0  0  0  0
  161.5450  209.0250  152.6910 N   0  0  0  0  0  0  0  0  0  0  0  0
  160.8290  208.7060  153.8880 C   0  0  0  0  0  0  0  0  0  0  0  0
  161.4650  206.7160  151.6290 C   0  0  0  0  0  0  0  0  0  0  0  0
  161.1970  205.8910  152.7480 C   0  0  0  0  0  0  0  0  0  0  0  0
  161.2890  207.7290  157.2590 N   0  0  0  0  0  0  0  0  0  0  0  0
  161.2290  207.6330  156.1070 C   0  0  0  0  0  0  0  0  0  0  0  0
  161.0280  204.2490  148.7790 C   0  0  0  0  0  2  0  0  0  0  0  0
  161.7000  205.1470  147.8570 N   0  0  0  0  0  2  0  0  0  0  0  0
  160.7070  204.3830  144.4020 O   0  0  0  0  0  1  0  0  0  0  0  0
  160.4040  206.3040  145.7840 O   0  0  0  0  0  1  0  0  0  0  0  0
  161.8470  204.4260  146.6030 C   0  0  1  0  0  3  0  0  0  0  0  0
  161.1360  205.1550  145.4800 C   0  0  0  0  0  0  0  0  0  0  0  0
  162.6290  205.2910  145.6090 C   0  0  0  0  0  2  0  0  0  0  0  0
  161.8450  210.4220  152.4070 C   0  0  0  0  0  2  0  0  0  0  0  0
  160.6480  211.0870  151.7550 C   0  0  0  0  0  2  0  0  0  0  0  0
  160.2690  212.1990  152.5040 O   0  0  0  0  0  0  0  0  0  0  0  0
  159.3250  212.8510  151.7110 C   0  0  0  0  0  2  0  0  0  0  0  0
  159.9490  213.8580  150.9780 O   0  0  0  0  0  1  0  0  0  0  0  0
  1  9  1  0  0  0  0
  2 12  1  0  0  0  0
  3 11  1  0  0  0  0
  5  3  2  0  0  0  0
  5  7  1  0  0  0  0
  6  8  2  0  0  0  0
  7  2  2  0  0  0  0
  8 14  1  0  0  0  0
  9 10  1  0  0  0  0
 10  4  2  0  0  0  0
 10  8  1  0  0  0  0
 11  1  1  0  0  0  0
 11 12  2  0  0  0  0
 12  6  1  0  0  0  0
 14 13  3  0  0  0  0
 15  5  1  0  0  0  0
 16 15  1  0  0  0  0
 17 20  1  0  0  0  0
 19 16  1  1  0  0  0
 20 21  1  0  0  0  0
 20 18  1  0  0  0  0
 20 19  1  0  0  0  0
 21 19  1  0  0  0  0
 22  9  1  0  0  0  0
 23 22  1  0  0  0  0
 23 24  1  0  0  0  0
 25 24  1  0  0  0  0
 26 25  1  0  0  0  0
M  END
>  <MODEL>
5

>  <REMARK>
 VINA RESULT:      -7.0      1.628      1.760
  Name = 
  8 active torsions:
  status: ('A' for Active; 'I' for Inactive)
    1  A    between atoms: C_1  and  C_8
    2  A    between atoms: C_1  and  N_15
    3  A    between atoms: C_5  and  N_13
    4  A    between atoms: C_5  and  C_21
    5  A    between atoms: C_6  and  O_26
    6  A    between atoms: C_12  and  C_19
    7  A    between atoms: N_15  and  C_17
    8  A    between atoms: C_21  and  O_26
                            x       y       z     vdW  Elec       q    Type
                         _______ _______ _______ _____ _____    ______ ____

>  <TORSDO>
F 8

$$$$
=
 OpenBabel11052409483D

 26 28  0  0  1  0  0  0  0  0999 V2000
  160.6200  205.8570  149.2210 N   0  0  0  0  0  2  0  0  0  0  0  0
  161.1230  203.3810  152.0200 C   0  0  0  0  0  3  0  0  0  0  0  0
  160.9390  206.1200  151.5920 C   0  0  0  0  0  3  0  0  0  0  0  0
  162.5060  203.9910  146.8490 O   0  0  0  0  0  0  0  0  0  0  0  0
  161.1230  205.6320  152.8860 C   0  0  0  0  0  0  0  0  0  0  0  0
  160.8360  202.8190  149.6820 C   0  0  0  0  0  3  0  0  0  0  0  0
  161.2050  204.2580  153.1010 C   0  0  0  0  0  3  0  0  0  0  0  0
  161.0950  202.9060  148.3820 C   0  0  0  0  0  0  0  0  0  0  0  0
  161.0190  205.3940  147.9580 N   0  0  0  0  0  0  0  0  0  0  0  0
  161.6140  204.1120  147.7320 C   0  0  0  0  0  0  0  0  0  0  0  0
  160.8760  205.2540  150.4930 C   0  0  0  0  0  0  0  0  0  0  0  0
  160.9700  203.8580  150.7110 C   0  0  0  0  0  0  0  0  0  0  0  0
  160.8280  200.7470  146.9660 N   0  0  0  0  0  0  0  0  0  0  0  0
  160.9470  201.7100  147.5980 C   0  0  0  0  0  0  0  0  0  0  0  0
  161.1760  206.5730  154.0380 C   0  0  0  0  0  2  0  0  0  0  0  0
  160.8400  207.9130  153.5900 N   0  0  0  0  0  2  0  0  0  0  0  0
  162.2430  210.8040  155.3730 O   0  0  0  0  0  1  0  0  0  0  0  0
  162.0130  210.2910  153.0540 O   0  0  0  0  0  1  0  0  0  0  0  0
  160.9520  208.7820  154.7500 C   0  0  1  0  0  3  0  0  0  0  0  0
  161.5730  210.1100  154.3670 C   0  0  0  0  0  0  0  0  0  0  0  0
  160.0810  210.0250  154.5390 C   0  0  0  0  0  2  0  0  0  0  0  0
  160.9140  206.3220  146.8400 C   0  0  0  0  0  2  0  0  0  0  0  0
  161.1360  207.7430  147.3240 C   0  0  0  0  0  2  0  0  0  0  0  0
  162.3700  207.8290  147.9640 O   0  0  0  0  0  0  0  0  0  0  0  0
  162.3330  209.0510  148.6340 C   0  0  0  0  0  2  0  0  0  0  0  0
  161.9640  208.8430  149.9620 O   0  0  0  0  0  1  0  0  0  0  0  0
  1 11  1  0  0  0  0
  2  7  1  0  0  0  0
  3  5  1  0  0  0  0
  4 10  2  0  0  0  0
  5  7  2  0  0  0  0
  5 15  1  0  0  0  0
  6 12  1  0  0  0  0
  8  6  2  0  0  0  0
  9  1  1  0  0  0  0
 10  9  1  0  0  0  0
 10  8  1  0  0  0  0
 11 12  1  0  0  0  0
 11  3  2  0  0  0  0
 12  2  2  0  0  0  0
 13 14  3  0  0  0  0
 14  8  1  0  0  0  0
 16 15  1  0  0  0  0
 18 20  1  0  0  0  0
 19 16  1  6  0  0  0
 20 21  1  0  0  0  0
 20 19  1  0  0  0  0
 20 17  1  0  0  0  0
 21 19  1  0  0  0  0
 22 23  1  0  0  0  0
 22  9  1  0  0  0  0
 23 24  1  0  0  0  0
 24 25  1  0  0  0  0
 25 26  1  0  0  0  0
M  END
>  <MODEL>
6

>  <REMARK>
 VINA RESULT:      -6.9      1.992      6.702
  Name = 
  8 active torsions:
  status: ('A' for Active; 'I' for Inactive)
    1  A    between atoms: C_1  and  C_8
    2  A    between atoms: C_1  and  N_15
    3  A    between atoms: C_5  and  N_13
    4  A    between atoms: C_5  and  C_21
    5  A    between atoms: C_6  and  O_26
    6  A    between atoms: C_12  and  C_19
    7  A    between atoms: N_15  and  C_17
    8  A    between atoms: C_21  and  O_26
                            x       y       z     vdW  Elec       q    Type
                         _______ _______ _______ _____ _____    ______ ____

>  <TORSDO>
F 8

$$$$
=
 OpenBabel11052409483D

 26 28  0  0  1  0  0  0  0  0999 V2000
  160.5990  207.5160  151.3660 N   0  0  0  0  0  2  0  0  0  0  0  0
  161.7200  206.4600  147.9250 C   0  0  0  0  0  3  0  0  0  0  0  0
  160.7450  205.3700  150.2870 C   0  0  0  0  0  3  0  0  0  0  0  0
  163.0350  210.0920  151.6800 O   0  0  0  0  0  0  0  0  0  0  0  0
  161.0200  204.5370  149.2010 C   0  0  0  0  0  0  0  0  0  0  0  0
  161.6930  208.7340  148.7570 C   0  0  0  0  0  3  0  0  0  0  0  0
  161.5010  205.0860  148.0140 C   0  0  0  0  0  3  0  0  0  0  0  0
  161.9580  209.7000  149.6290 C   0  0  0  0  0  0  0  0  0  0  0  0
  161.1610  208.7210  151.8150 N   0  0  0  0  0  0  0  0  0  0  0  0
  162.1180  209.4790  151.0690 C   0  0  0  0  0  0  0  0  0  0  0  0
  160.9800  206.7490  150.2190 C   0  0  0  0  0  0  0  0  0  0  0  0
  161.4760  207.3050  149.0150 C   0  0  0  0  0  0  0  0  0  0  0  0
  162.3950  212.0760  148.6790 N   0  0  0  0  0  0  0  0  0  0  0  0
  162.2010  211.0170  149.1030 C   0  0  0  0  0  0  0  0  0  0  0  0
  160.7520  203.0770  149.2950 C   0  0  0  0  0  2  0  0  0  0  0  0
  161.5000  202.3750  148.2670 N   0  0  0  0  0  2  0  0  0  0  0  0
  159.5040  201.4270  145.3290 O   0  0  0  0  0  1  0  0  0  0  0  0
  161.5080  202.6980  145.5810 O   0  0  0  0  0  1  0  0  0  0  0  0
  160.5530  201.5160  147.5740 C   0  0  1  0  0  3  0  0  0  0  0  0
  160.6460  201.7160  146.0750 C   0  0  0  0  0  0  0  0  0  0  0  0
  161.3190  200.5220  146.6950 C   0  0  0  0  0  2  0  0  0  0  0  0
  160.8230  209.1560  153.1630 C   0  0  0  0  0  2  0  0  0  0  0  0
  160.9750  208.0010  154.1340 C   0  0  0  0  0  2  0  0  0  0  0  0
  161.3290  208.4920  155.3890 O   0  0  0  0  0  0  0  0  0  0  0  0
  160.1520  208.4290  156.1350 C   0  0  0  0  0  2  0  0  0  0  0  0
  159.5720  207.1710  155.9840 O   0  0  0  0  0  1  0  0  0  0  0  0
  1  9  1  0  0  0  0
  2  7  2  0  0  0  0
  2 12  1  0  0  0  0
  5 15  1  0  0  0  0
  5  3  2  0  0  0  0
  6 12  1  0  0  0  0
  6  8  2  0  0  0  0
  7  5  1  0  0  0  0
  8 10  1  0  0  0  0
  9 22  1  0  0  0  0
 10  4  2  0  0  0  0
 10  9  1  0  0  0  0
 11  3  1  0  0  0  0
 11  1  1  0  0  0  0
 12 11  2  0  0  0  0
 13 14  3  0  0  0  0
 14  8  1  0  0  0  0
 16 15  1  0  0  0  0
 17 20  1  0  0  0  0
 18 20  1  0  0  0  0
 19 16  1  1  0  0  0
 20 21  1  0  0  0  0
 20 19  1  0  0  0  0
 21 19  1  0  0  0  0
 22 23  1  0  0  0  0
 23 24  1  0  0  0  0
 24 25  1  0  0  0  0
 26 25  1  0  0  0  0
M  END
>  <MODEL>
7

>  <REMARK>
 VINA RESULT:      -6.9      2.300      4.753
  Name = 
  8 active torsions:
  status: ('A' for Active; 'I' for Inactive)
    1  A    between atoms: C_1  and  C_8
    2  A    between atoms: C_1  and  N_15
    3  A    between atoms: C_5  and  N_13
    4  A    between atoms: C_5  and  C_21
    5  A    between atoms: C_6  and  O_26
    6  A    between atoms: C_12  and  C_19
    7  A    between atoms: N_15  and  C_17
    8  A    between atoms: C_21  and  O_26
                            x       y       z     vdW  Elec       q    Type
                         _______ _______ _______ _____ _____    ______ ____

>  <TORSDO>
F 8

$$$$
=
 OpenBabel11052409483D

 26 28  0  0  1  0  0  0  0  0999 V2000
  160.9360  207.3960  154.6500 N   0  0  0  0  0  2  0  0  0  0  0  0
  160.8590  207.2180  150.8850 C   0  0  0  0  0  3  0  0  0  0  0  0
  161.2660  205.5880  153.0970 C   0  0  0  0  0  3  0  0  0  0  0  0
  162.4220  210.6280  154.7510 O   0  0  0  0  0  0  0  0  0  0  0  0
  161.3220  205.0410  151.8150 C   0  0  0  0  0  0  0  0  0  0  0  0
  160.4960  209.2160  152.2050 C   0  0  0  0  0  3  0  0  0  0  0  0
  161.1080  205.8580  150.7060 C   0  0  0  0  0  3  0  0  0  0  0  0
  160.7880  210.1070  153.1450 C   0  0  0  0  0  0  0  0  0  0  0  0
  161.2480  208.6640  155.1650 N   0  0  0  0  0  0  0  0  0  0  0  0
  161.5620  209.7980  154.3510 C   0  0  0  0  0  0  0  0  0  0  0  0
  161.0380  206.9560  153.2930 C   0  0  0  0  0  0  0  0  0  0  0  0
  160.8310  207.7870  152.1650 C   0  0  0  0  0  0  0  0  0  0  0  0
  160.0930  212.5700  152.7110 N   0  0  0  0  0  0  0  0  0  0  0  0
  160.4030  211.4720  152.9050 C   0  0  0  0  0  0  0  0  0  0  0  0
  161.5550  203.5830  151.6350 C   0  0  0  0  0  2  0  0  0  0  0  0
  160.6640  203.0670  150.6100 N   0  0  0  0  0  2  0  0  0  0  0  0
  161.3360  200.4150  148.1560 O   0  0  0  0  0  1  0  0  0  0  0  0
  159.3150  201.3360  149.0280 O   0  0  0  0  0  1  0  0  0  0  0  0
  161.5020  202.4070  149.6210 C   0  0  1  0  0  3  0  0  0  0  0  0
  160.6730  201.4910  148.7430 C   0  0  0  0  0  0  0  0  0  0  0  0
  161.0700  202.8440  148.2180 C   0  0  0  0  0  2  0  0  0  0  0  0
  161.3590  208.7900  156.6120 C   0  0  0  0  0  2  0  0  0  0  0  0
  160.0950  209.4090  157.1770 C   0  0  0  0  0  2  0  0  0  0  0  0
  160.2510  210.7910  157.2610 O   0  0  0  0  0  0  0  0  0  0  0  0
  158.9850  211.3040  156.9810 C   0  0  0  0  0  2  0  0  0  0  0  0
  158.5000  210.7320  155.8060 O   0  0  0  0  0  1  0  0  0  0  0  0
  1  9  1  0  0  0  0
  2 12  1  0  0  0  0
  3 11  1  0  0  0  0
  5  3  2  0  0  0  0
  6  8  2  0  0  0  0
  7  2  2  0  0  0  0
  7  5  1  0  0  0  0
  8 10  1  0  0  0  0
  9 22  1  0  0  0  0
 10  4  2  0  0  0  0
 10  9  1  0  0  0  0
 11  1  1  0  0  0  0
 12  6  1  0  0  0  0
 12 11  2  0  0  0  0
 13 14  3  0  0  0  0
 14  8  1  0  0  0  0
 15  5  1  0  0  0  0
 16 15  1  0  0  0  0
 17 20  1  0  0  0  0
 19 16  1  1  0  0  0
 20 18  1  0  0  0  0
 20 19  1  0  0  0  0
 21 20  1  0  0  0  0
 21 19  1  0  0  0  0
 22 23  1  0  0  0  0
 23 24  1  0  0  0  0
 25 24  1  0  0  0  0
 26 25  1  0  0  0  0
M  END
>  <MODEL>
8

>  <REMARK>
 VINA RESULT:      -6.7      3.332      4.919
  Name = 
  8 active torsions:
  status: ('A' for Active; 'I' for Inactive)
    1  A    between atoms: C_1  and  C_8
    2  A    between atoms: C_1  and  N_15
    3  A    between atoms: C_5  and  N_13
    4  A    between atoms: C_5  and  C_21
    5  A    between atoms: C_6  and  O_26
    6  A    between atoms: C_12  and  C_19
    7  A    between atoms: N_15  and  C_17
    8  A    between atoms: C_21  and  O_26
                            x       y       z     vdW  Elec       q    Type
                         _______ _______ _______ _____ _____    ______ ____

>  <TORSDO>
F 8

$$$$
=
 OpenBabel11052409483D

 26 28  0  0  1  0  0  0  0  0999 V2000
  161.9350  208.1930  150.3580 N   0  0  0  0  0  2  0  0  0  0  0  0
  160.7990  204.8770  151.7470 C   0  0  0  0  0  3  0  0  0  0  0  0
  161.4130  206.0850  149.3220 C   0  0  0  0  0  3  0  0  0  0  0  0
  160.0590  210.1310  152.6800 O   0  0  0  0  0  0  0  0  0  0  0  0
  161.0290  204.7440  149.3500 C   0  0  0  0  0  0  0  0  0  0  0  0
  161.2440  206.8680  153.0520 C   0  0  0  0  0  3  0  0  0  0  0  0
  160.7300  204.1360  150.5680 C   0  0  0  0  0  3  0  0  0  0  0  0
  161.1360  208.1560  153.3580 C   0  0  0  0  0  0  0  0  0  0  0  0
  161.6080  209.3000  151.1570 N   0  0  0  0  0  0  0  0  0  0  0  0
  160.8630  209.2090  152.3750 C   0  0  0  0  0  0  0  0  0  0  0  0
  161.4660  206.8490  150.4950 C   0  0  0  0  0  0  0  0  0  0  0  0
  161.1530  206.2330  151.7310 C   0  0  0  0  0  0  0  0  0  0  0  0
  161.2380  208.7980  155.8710 N   0  0  0  0  0  0  0  0  0  0  0  0
  161.1930  208.5120  154.7500 C   0  0  0  0  0  0  0  0  0  0  0  0
  160.9910  203.9520  148.0910 C   0  0  0  0  0  2  0  0  0  0  0  0
  161.5050  202.6160  148.3370 N   0  0  0  0  0  2  0  0  0  0  0  0
  159.6710  201.3380  145.4200 O   0  0  0  0  0  1  0  0  0  0  0  0
  161.6800  202.6070  145.6380 O   0  0  0  0  0  1  0  0  0  0  0  0
  160.5850  201.6900  147.6970 C   0  0  1  0  0  3  0  0  0  0  0  0
  160.7720  201.7030  146.1930 C   0  0  0  0  0  0  0  0  0  0  0  0
  161.3840  200.5870  146.9950 C   0  0  0  0  0  2  0  0  0  0  0  0
  161.9590  210.6190  150.6490 C   0  0  0  0  0  2  0  0  0  0  0  0
  161.9750  210.6040  149.1330 C   0  0  0  0  0  2  0  0  0  0  0  0
  162.6440  211.7320  148.6630 O   0  0  0  0  0  0  0  0  0  0  0  0
  161.8290  212.2230  147.6430 C   0  0  0  0  0  2  0  0  0  0  0  0
  161.6110  213.5860  147.8370 O   0  0  0  0  0  1  0  0  0  0  0  0
  1 11  1  0  0  0  0
  1  9  1  0  0  0  0
  3  5  2  0  0  0  0
  3 11  1  0  0  0  0
  5  7  1  0  0  0  0
  6  8  2  0  0  0  0
  7  2  2  0  0  0  0
  8 14  1  0  0  0  0
  9 10  1  0  0  0  0
 10  4  2  0  0  0  0
 10  8  1  0  0  0  0
 11 12  2  0  0  0  0
 12  2  1  0  0  0  0
 12  6  1  0  0  0  0
 14 13  3  0  0  0  0
 15 16  1  0  0  0  0
 15  5  1  0  0  0  0
 17 20  1  0  0  0  0
 18 20  1  0  0  0  0
 19 16  1  1  0  0  0
 20 21  1  0  0  0  0
 20 19  1  0  0  0  0
 21 19  1  0  0  0  0
 22  9  1  0  0  0  0
 23 22  1  0  0  0  0
 24 23  1  0  0  0  0
 25 26  1  0  0  0  0
 25 24  1  0  0  0  0
M  END
>  <MODEL>
9

>  <REMARK>
 VINA RESULT:      -6.6      1.760      2.035
  Name = 
  8 active torsions:
  status: ('A' for Active; 'I' for Inactive)
    1  A    between atoms: C_1  and  C_8
    2  A    between atoms: C_1  and  N_15
    3  A    between atoms: C_5  and  N_13
    4  A    between atoms: C_5  and  C_21
    5  A    between atoms: C_6  and  O_26
    6  A    between atoms: C_12  and  C_19
    7  A    between atoms: N_15  and  C_17
    8  A    between atoms: C_21  and  O_26
                            x       y       z     vdW  Elec       q    Type
                         _______ _______ _______ _____ _____    ______ ____

>  <TORSDO>
F 8

$$$$
