=
 OpenBabel11052410103D

 48 53  0  0  1  0  0  0  0  0999 V2000
  160.6220  210.3420  155.7810 N   0  0  0  0  0  2  0  0  0  0  0  0
  161.5130  207.6290  152.6980 N   0  0  0  0  0  0  0  0  0  0  0  0
  161.5410  207.5390  151.3410 C   0  0  0  0  0  0  0  0  0  0  0  0
  161.1540  206.6650  154.9000 N   0  0  0  0  0  2  0  0  0  0  0  0
  160.7400  211.7600  151.7600 C   0  0  0  0  0  0  0  0  0  0  0  0
  160.7970  211.3260  153.0930 O   0  0  0  0  0  0  0  0  0  0  0  0
  159.0990  213.5590  152.2670 N   0  0  0  0  0  1  0  0  0  0  0  0
  160.7980  205.2710  151.5080 N   0  0  0  0  0  0  0  0  0  0  0  0
  161.4730  211.4680  149.4750 N   0  0  0  0  0  0  0  0  0  0  0  0
  159.4950  208.9390  154.2960 O   0  0  0  0  0  0  0  0  0  0  0  0
  159.9250  211.5420  155.3400 C   0  0  2  0  0  3  0  0  0  0  0  0
  159.1290  214.4290  149.2050 S   0  0  0  0  0  0  0  0  0  0  0  0
  161.9480  208.6290  150.5510 C   0  0  0  0  0  0  0  0  0  0  0  0
  161.6210  207.2890  148.5520 C   0  0  0  0  0  3  0  0  0  0  0  0
  161.1970  206.2060  149.3250 C   0  0  0  0  0  0  0  0  0  0  0  0
  159.9500  213.2090  150.0090 C   0  0  0  0  0  0  0  0  0  0  0  0
  160.6800  212.2070  154.2030 C   0  0  0  0  0  2  0  0  0  0  0  0
  161.7460  207.9390  156.7460 O   0  0  0  0  0  0  0  0  0  0  0  0
  159.7930  214.0250  147.6980 C   0  0  0  0  0  3  0  0  0  0  0  0
  160.6330  212.9640  147.8120 N   0  0  0  0  0  0  0  0  0  0  0  0
  161.4960  211.0650  150.7820 C   0  0  0  0  0  0  0  0  0  0  0  0
  159.9370  212.8550  151.3540 C   0  0  0  0  0  0  0  0  0  0  0  0
  160.7790  205.3710  152.8630 C   0  0  0  0  0  3  0  0  0  0  0  0
  162.0010  208.4850  149.1580 C   0  0  0  0  0  3  0  0  0  0  0  0
  160.3820  209.0640  155.1850 C   0  0  0  0  0  0  0  0  0  0  0  0
  162.3820  209.9220  151.1770 C   0  0  0  0  0  2  0  0  0  0  0  0
  161.1390  207.8890  155.6440 C   0  0  0  0  0  0  0  0  0  0  0  0
  160.7110  212.5200  149.0920 C   0  0  0  0  0  0  0  0  0  0  0  0
  161.1700  206.3210  150.7260 C   0  0  0  0  0  0  0  0  0  0  0  0
  161.1320  206.5750  153.4730 C   0  0  0  0  0  0  0  0  0  0  0  0
  159.8200  212.5230  156.4910 C   0  0  0  0  0  2  0  0  0  0  0  0
  158.1740  212.4260  157.2560 S   0  0  0  0  0  0  0  0  0  0  0  0
  157.6330  214.4510  155.6940 F   0  0  0  0  0  0  0  0  0  0  0  0
  157.3620  213.0990  155.7790 C   0  0  2  0  0  3  0  0  0  0  0  0
  155.8620  212.8870  155.8810 C   0  0  0  0  0  2  0  0  0  0  0  0
  155.5340  211.5140  156.4580 C   0  0  0  0  0  2  0  0  0  0  0  0
  156.4800  209.6220  155.3480 F   0  0  0  0  0  0  0  0  0  0  0  0
  154.2600  209.6730  155.6940 F   0  0  0  0  0  0  0  0  0  0  0  0
  155.1770  211.0250  154.1460 F   0  0  0  0  0  0  0  0  0  0  0  0
  155.3670  210.4420  155.3860 C   0  0  0  0  0  0  0  0  0  0  0  0
  160.7400  204.9610  148.6310 C   0  0  0  0  0  2  0  0  0  0  0  0
  161.8780  203.9550  148.4780 C   0  0  0  0  0  2  0  0  0  0  0  0
  161.8960  203.3950  147.1320 N   0  0  0  0  0  2  0  0  0  0  0  0
  162.1190  204.1780  145.9520 C   0  0  0  0  0  0  0  0  0  0  0  0
  163.3200  204.6860  145.6860 C   0  0  0  0  0  2  0  0  0  0  0  0
  160.3580  205.6500  145.0130 C   0  0  0  0  0  2  0  0  0  0  0  0
  161.0400  204.2950  144.9220 C   0  0  0  0  0  3  0  0  0  0  0  0
  161.3870  205.3970  143.9350 C   0  0  0  0  0  2  0  0  0  0  0  0
  2 30  2  0  0  0  0
  3  2  1  0  0  0  0
  4 27  1  0  0  0  0
  5  6  1  0  0  0  0
  6 17  1  0  0  0  0
  8 23  2  0  0  0  0
  9 21  1  0  0  0  0
 10 25  2  0  0  0  0
 11  1  1  0  0  0  0
 11 31  1  1  0  0  0
 12 16  1  0  0  0  0
 13 26  1  0  0  0  0
 13  3  2  0  0  0  0
 14 24  2  0  0  0  0
 14 15  1  0  0  0  0
 15 29  2  0  0  0  0
 16 22  2  0  0  0  0
 17 11  1  0  0  0  0
 19 20  2  0  0  0  0
 19 12  1  0  0  0  0
 20 28  1  0  0  0  0
 21 26  1  0  0  0  0
 21  5  2  0  0  0  0
 22  5  1  0  0  0  0
 22  7  1  0  0  0  0
 23 30  1  0  0  0  0
 24 13  1  0  0  0  0
 25 27  1  0  0  0  0
 25  1  1  0  0  0  0
 27 18  2  0  0  0  0
 28  9  2  0  0  0  0
 28 16  1  0  0  0  0
 29  3  1  0  0  0  0
 29  8  1  0  0  0  0
 30  4  1  0  0  0  0
 31 32  1  0  0  0  0
 34 33  1  1  0  0  0
 34 35  1  0  0  0  0
 34 32  1  0  0  0  0
 35 36  1  0  0  0  0
 37 40  1  0  0  0  0
 39 40  1  0  0  0  0
 40 38  1  0  0  0  0
 40 36  1  0  0  0  0
 41 15  1  0  0  0  0
 42 41  1  0  0  0  0
 43 42  1  0  0  0  0
 44 43  1  0  0  0  0
 45 44  2  0  0  0  0
 47 46  1  0  0  0  0
 47 44  1  0  0  0  0
 48 47  1  0  0  0  0
 48 46  1  0  0  0  0
M  END
>  <MODEL>
1

>  <REMARK>
 VINA RESULT:      -6.8      0.000      0.000
  Name = 
  11 active torsions:
  status: ('A' for Active; 'I' for Inactive)
    1  A    between atoms: C_3  and  C_16
    2  A    between atoms: C_3  and  S_39
    3  A    between atoms: N_4  and  C_14
    4  A    between atoms: N_4  and  C_41
    5  A    between atoms: C_14  and  C_29
    6  A    between atoms: C_18  and  C_24
    7  A    between atoms: C_18  and  C_38
    8  A    between atoms: C_22  and  C_24
    9  A    between atoms: C_22  and  S_39
   10  A    between atoms: C_23  and  C_32
   11  A    between atoms: C_32  and  C_41
                            x       y       z     vdW  Elec       q    Type
                         _______ _______ _______ _____ _____    ______ ____

>  <TORSDO>
F 11

$$$$
=
 OpenBabel11052410103D

 48 53  0  0  1  0  0  0  0  0999 V2000
  160.4180  210.4690  155.1490 N   0  0  0  0  0  2  0  0  0  0  0  0
  161.5590  207.7520  152.1540 N   0  0  0  0  0  0  0  0  0  0  0  0
  161.6690  207.6500  150.8010 C   0  0  0  0  0  0  0  0  0  0  0  0
  161.0960  206.7990  154.3410 N   0  0  0  0  0  2  0  0  0  0  0  0
  160.7370  211.8520  151.1270 C   0  0  0  0  0  0  0  0  0  0  0  0
  160.7260  211.4320  152.4650 O   0  0  0  0  0  0  0  0  0  0  0  0
  159.0230  213.6110  151.5170 N   0  0  0  0  0  1  0  0  0  0  0  0
  160.9770  205.3650  150.9490 N   0  0  0  0  0  0  0  0  0  0  0  0
  161.6110  211.5580  148.8920 N   0  0  0  0  0  0  0  0  0  0  0  0
  159.4170  209.0230  153.6150 O   0  0  0  0  0  0  0  0  0  0  0  0
  159.7170  211.6460  154.6550 C   0  0  2  0  0  3  0  0  0  0  0  0
  159.2110  214.4530  148.4520 S   0  0  0  0  0  0  0  0  0  0  0  0
  162.0940  208.7420  150.0250 C   0  0  0  0  0  0  0  0  0  0  0  0
  161.9210  207.3760  148.0240 C   0  0  0  0  0  3  0  0  0  0  0  0
  161.4800  206.2890  148.7840 C   0  0  0  0  0  0  0  0  0  0  0  0
  160.0150  213.2630  149.3160 C   0  0  0  0  0  0  0  0  0  0  0  0
  160.5210  212.3200  153.5560 C   0  0  0  0  0  2  0  0  0  0  0  0
  161.5450  208.1060  156.2040 O   0  0  0  0  0  0  0  0  0  0  0  0
  159.9730  214.0530  146.9910 C   0  0  0  0  0  3  0  0  0  0  0  0
  160.8320  213.0150  147.1660 N   0  0  0  0  0  0  0  0  0  0  0  0
  161.5670  211.1680  150.2030 C   0  0  0  0  0  0  0  0  0  0  0  0
  159.9310  212.9220  150.6630 C   0  0  0  0  0  0  0  0  0  0  0  0
  160.8760  205.4770  152.2990 C   0  0  0  0  0  3  0  0  0  0  0  0
  162.2340  208.5870  148.6390 C   0  0  0  0  0  3  0  0  0  0  0  0
  160.2470  209.1800  154.5530 C   0  0  0  0  0  0  0  0  0  0  0  0
  162.4570  210.0520  150.6610 C   0  0  0  0  0  2  0  0  0  0  0  0
  161.0050  208.0290  155.0690 C   0  0  0  0  0  0  0  0  0  0  0  0
  160.8450  212.5860  148.4530 C   0  0  0  0  0  0  0  0  0  0  0  0
  161.3670  206.4170  150.1790 C   0  0  0  0  0  0  0  0  0  0  0  0
  161.1600  206.6960  152.9160 C   0  0  0  0  0  0  0  0  0  0  0  0
  159.5190  212.6350  155.7860 C   0  0  0  0  0  2  0  0  0  0  0  0
  158.6620  211.8400  157.1780 S   0  0  0  0  0  0  0  0  0  0  0  0
  156.1120  212.4140  157.2610 F   0  0  0  0  0  0  0  0  0  0  0  0
  157.3250  213.0670  157.1560 C   0  0  2  0  0  3  0  0  0  0  0  0
  157.3710  213.8470  155.8540 C   0  0  0  0  0  2  0  0  0  0  0  0
  155.9860  213.9640  155.2270 C   0  0  0  0  0  2  0  0  0  0  0  0
  156.9320  212.8210  153.3560 F   0  0  0  0  0  0  0  0  0  0  0  0
  155.3970  211.7580  154.6070 F   0  0  0  0  0  0  0  0  0  0  0  0
  154.7590  213.4340  153.2470 F   0  0  0  0  0  0  0  0  0  0  0  0
  155.7660  212.9820  154.0810 C   0  0  0  0  0  0  0  0  0  0  0  0
  161.0970  205.0260  148.0770 C   0  0  0  0  0  2  0  0  0  0  0  0
  161.3970  205.1080  146.5830 C   0  0  0  0  0  2  0  0  0  0  0  0
  161.7600  203.7970  146.0570 N   0  0  0  0  0  2  0  0  0  0  0  0
  161.2140  202.5660  146.5510 C   0  0  0  0  0  0  0  0  0  0  0  0
  160.5350  201.7490  145.7500 C   0  0  0  0  0  2  0  0  0  0  0  0
  160.2840  201.6950  148.6780 C   0  0  0  0  0  2  0  0  0  0  0  0
  161.5440  202.1110  147.9380 C   0  0  0  0  0  3  0  0  0  0  0  0
  161.1950  200.6410  148.0940 C   0  0  0  0  0  2  0  0  0  0  0  0
  2 30  2  0  0  0  0
  3  2  1  0  0  0  0
  4 27  1  0  0  0  0
  5  6  1  0  0  0  0
  6 17  1  0  0  0  0
  8 23  2  0  0  0  0
  9 21  1  0  0  0  0
 10 25  2  0  0  0  0
 11  1  1  0  0  0  0
 11 31  1  1  0  0  0
 12 16  1  0  0  0  0
 13 26  1  0  0  0  0
 13  3  2  0  0  0  0
 14 24  2  0  0  0  0
 14 15  1  0  0  0  0
 15 29  2  0  0  0  0
 16 22  2  0  0  0  0
 17 11  1  0  0  0  0
 19 20  2  0  0  0  0
 19 12  1  0  0  0  0
 20 28  1  0  0  0  0
 21 26  1  0  0  0  0
 21  5  2  0  0  0  0
 22  5  1  0  0  0  0
 22  7  1  0  0  0  0
 23 30  1  0  0  0  0
 24 13  1  0  0  0  0
 25 27  1  0  0  0  0
 25  1  1  0  0  0  0
 27 18  2  0  0  0  0
 28  9  2  0  0  0  0
 28 16  1  0  0  0  0
 29  3  1  0  0  0  0
 29  8  1  0  0  0  0
 30  4  1  0  0  0  0
 31 32  1  0  0  0  0
 34 32  1  0  0  0  0
 34 33  1  6  0  0  0
 35 34  1  0  0  0  0
 36 35  1  0  0  0  0
 37 40  1  0  0  0  0
 39 40  1  0  0  0  0
 40 38  1  0  0  0  0
 40 36  1  0  0  0  0
 41 15  1  0  0  0  0
 42 41  1  0  0  0  0
 43 44  1  0  0  0  0
 43 42  1  0  0  0  0
 44 47  1  0  0  0  0
 45 44  2  0  0  0  0
 47 48  1  0  0  0  0
 47 46  1  0  0  0  0
 48 46  1  0  0  0  0
M  END
>  <MODEL>
2

>  <REMARK>
 VINA RESULT:      -6.2      1.307      1.945
  Name = 
  11 active torsions:
  status: ('A' for Active; 'I' for Inactive)
    1  A    between atoms: C_3  and  C_16
    2  A    between atoms: C_3  and  S_39
    3  A    between atoms: N_4  and  C_14
    4  A    between atoms: N_4  and  C_41
    5  A    between atoms: C_14  and  C_29
    6  A    between atoms: C_18  and  C_24
    7  A    between atoms: C_18  and  C_38
    8  A    between atoms: C_22  and  C_24
    9  A    between atoms: C_22  and  S_39
   10  A    between atoms: C_23  and  C_32
   11  A    between atoms: C_32  and  C_41
                            x       y       z     vdW  Elec       q    Type
                         _______ _______ _______ _____ _____    ______ ____

>  <TORSDO>
F 11

$$$$
