=
 OpenBabel11042422203D

 52 57  0  0  1  0  0  0  0  0999 V2000
  160.6880  211.6120  152.4610 C   0  0  0  0  0  3  0  0  0  0  0  0
  161.2110  210.6750  151.6580 C   0  0  0  0  0  0  0  0  0  0  0  0
  161.4720  208.3690  151.1670 O   0  0  0  0  0  0  0  0  0  0  0  0
  160.3110  208.8110  153.2210 C   0  0  1  0  0  3  0  0  0  0  0  0
  160.2960  209.9330  154.2630 C   0  0  0  0  0  2  0  0  0  0  0  0
  159.8390  211.2580  153.6470 C   0  0  2  0  0  3  0  0  0  0  0  0
  161.0500  209.2380  151.9750 C   0  0  0  0  0  0  0  0  0  0  0  0
  158.4420  211.1710  153.2390 N   0  0  0  0  0  2  0  0  0  0  0  0
  157.7210  212.1560  153.9430 N   0  0  0  0  0  0  0  0  0  0  0  0
  158.1670  213.7710  152.1140 N   0  0  0  0  0  1  0  0  0  0  0  0
  156.9670  214.3760  154.0020 O   0  0  0  0  0  0  0  0  0  0  0  0
  157.5860  213.4720  153.3800 C   0  0  0  0  0  0  0  0  0  0  0  0
  157.1160  211.8610  155.2470 C   0  0  0  0  0  3  0  0  0  0  0  0
  156.0750  210.7640  155.1120 C   0  0  0  0  0  1  0  0  0  0  0  0
  158.1580  211.4640  156.2810 C   0  0  0  0  0  1  0  0  0  0  0  0
  160.9330  207.5610  153.8310 C   0  0  0  0  0  2  0  0  0  0  0  0
  161.7150  206.7680  152.7910 C   0  0  0  0  0  2  0  0  0  0  0  0
  161.2750  205.3120  152.7390 C   0  0  0  0  0  2  0  0  0  0  0  0
  161.9500  204.5650  151.6000 C   0  0  0  0  0  2  0  0  0  0  0  0
  160.0690  203.9180  150.2020 N   0  0  0  0  0  2  0  0  0  0  0  0
  161.2180  204.8270  150.2980 C   0  0  2  0  0  3  0  0  0  0  0  0
  161.2990  203.6440  149.4440 C   0  0  2  0  0  3  0  0  0  0  0  0
  161.1660  204.0130  147.9470 C   0  0  1  0  0  3  0  0  0  0  0  0
  159.9890  206.0050  146.0280 C   0  0  0  0  0  2  0  0  0  0  0  0
  161.7700  205.3330  147.6190 N   0  0  0  0  0  0  0  0  0  0  0  0
  160.9160  206.1570  144.9820 O   0  0  0  0  0  0  0  0  0  0  0  0
  161.8920  205.1520  145.1390 C   0  0  0  0  0  2  0  0  0  0  0  0
  162.6600  205.4010  146.4390 C   0  0  2  0  0  3  0  0  0  0  0  0
  160.6650  206.2740  147.3870 C   0  0  0  0  0  2  0  0  0  0  0  0
  163.7770  204.5700  146.5660 O   0  0  0  0  0  1  0  0  0  0  0  0
  160.8360  201.5930  147.2880 C   0  0  1  0  0  0  0  0  0  0  0  0
  161.6380  202.8270  147.0890 C   0  0  1  0  0  3  0  0  0  0  0  0
  160.6110  202.4450  146.1960 O   0  0  0  0  0  0  0  0  0  0  0  0
  161.3940  200.2550  146.8530 C   0  0  0  0  0  1  0  0  0  0  0  0
  159.7530  201.6080  148.1700 O   0  0  0  0  0  1  0  0  0  0  0  0
  161.9900  211.1140  150.4640 C   0  0  0  0  0  2  0  0  0  0  0  0
  161.2900  212.2660  149.7620 C   0  0  0  0  0  2  0  0  0  0  0  0
  161.3090  212.0540  148.2550 C   0  0  2  0  0  3  0  0  0  0  0  0
  161.6760  210.6170  147.9250 C   0  0  0  0  0  1  0  0  0  0  0  0
  163.6710  212.3710  147.0260 O   0  0  0  0  0  0  0  0  0  0  0  0
  162.9250  214.1920  148.4830 O   0  0  0  0  0  0  0  0  0  0  0  0
  162.4770  213.1600  147.4880 S   0  0  0  0  0  0  0  0  0  0  0  0
  160.3450  214.4530  146.4370 C   0  0  0  0  0  2  0  0  0  0  0  0
  159.4540  213.6610  145.5180 C   0  0  1  0  0  3  0  0  0  0  0  0
  161.6000  213.0460  144.9760 N   0  0  0  0  0  2  0  0  0  0  0  0
  161.7300  213.9830  146.0870 C   0  0  2  0  0  3  0  0  0  0  0  0
  160.2730  212.5820  144.9810 N   0  0  0  0  0  2  0  0  0  0  0  0
  157.0220  213.6650  145.7790 N   0  0  0  0  0  2  0  0  0  0  0  0
  158.2580  213.1010  146.2850 C   0  0  2  0  0  3  0  0  0  0  0  0
  156.2290  213.9310  146.9080 N   0  0  0  0  0  2  0  0  0  0  0  0
  158.3190  213.5230  147.7240 C   0  0  0  0  0  2  0  0  0  0  0  0
  157.1020  214.2730  147.9600 N   0  0  0  0  0  2  0  0  0  0  0  0
  1  6  1  0  0  0  0
  2  7  1  0  0  0  0
  2  1  2  0  0  0  0
  3  7  2  0  0  0  0
  4 16  1  1  0  0  0
  4  5  1  0  0  0  0
  6  8  1  6  0  0  0
  6  5  1  0  0  0  0
  7  4  1  0  0  0  0
  8  9  1  0  0  0  0
  9 13  1  0  0  0  0
 10 12  1  0  0  0  0
 12  9  1  0  0  0  0
 12 11  2  0  0  0  0
 13 15  1  0  0  0  0
 14 13  1  0  0  0  0
 17 16  1  0  0  0  0
 18 17  1  0  0  0  0
 19 18  1  0  0  0  0
 20 21  1  0  0  0  0
 21 19  1  1  0  0  0
 22 23  1  6  0  0  0
 22 20  1  0  0  0  0
 22 21  1  0  0  0  0
 23 25  1  1  0  0  0
 24 29  1  0  0  0  0
 26 27  1  0  0  0  0
 26 24  1  0  0  0  0
 27 28  1  0  0  0  0
 28 30  1  1  0  0  0
 28 25  1  0  0  0  0
 29 25  1  0  0  0  0
 31 34  1  6  0  0  0
 31 35  1  0  0  0  0
 32 31  1  0  0  0  0
 32 23  1  1  0  0  0
 33 32  1  0  0  0  0
 33 31  1  0  0  0  0
 36  2  1  0  0  0  0
 37 36  1  0  0  0  0
 38 39  1  1  0  0  0
 38 37  1  0  0  0  0
 40 42  2  0  0  0  0
 42 38  1  0  0  0  0
 42 41  2  0  0  0  0
 44 49  1  0  0  0  0
 44 43  1  1  0  0  0
 45 47  1  0  0  0  0
 45 46  1  0  0  0  0
 46 43  1  0  0  0  0
 46 42  1  1  0  0  0
 47 44  1  0  0  0  0
 48 49  1  0  0  0  0
 48 50  1  0  0  0  0
 49 51  1  1  0  0  0
 50 52  1  0  0  0  0
 51 52  1  0  0  0  0
M  END
>  <MODEL>
1

>  <REMARK>
 VINA RESULT:      -6.3      0.000      0.000
  Name = 
  17 active torsions:
  status: ('A' for Active; 'I' for Inactive)
    1  A    between atoms: N_2  and  C_45
    2  A    between atoms: C_3  and  C_10
    3  A    between atoms: C_3  and  C_51
    4  A    between atoms: C_7  and  N_18
    5  A    between atoms: C_9  and  C_12
    6  A    between atoms: C_9  and  C_39
    7  A    between atoms: C_11  and  C_32
    8  A    between atoms: C_12  and  C_17
    9  A    between atoms: N_18  and  N_48
   10  A    between atoms: C_25  and  C_45
   11  A    between atoms: C_26  and  S_30
   12  A    between atoms: C_26  and  C_51
   13  A    between atoms: S_30  and  C_36
   14  A    between atoms: C_35  and  C_52
   15  A    between atoms: C_39  and  C_52
   16  A    between atoms: C_40  and  C_45
   17  A    between atoms: C_42  and  N_48
                            x       y       z     vdW  Elec       q    Type
                         _______ _______ _______ _____ _____    ______ ____

>  <TORSDO>
F 17

$$$$
=
 OpenBabel11042422203D

 52 57  0  0  1  0  0  0  0  0999 V2000
  161.1490  211.7000  151.4710 C   0  0  0  0  0  3  0  0  0  0  0  0
  161.5030  211.1040  150.3240 C   0  0  0  0  0  0  0  0  0  0  0  0
  161.8830  209.0800  149.1460 O   0  0  0  0  0  0  0  0  0  0  0  0
  161.3890  208.7840  151.4770 C   0  0  1  0  0  3  0  0  0  0  0  0
  161.5650  209.6050  152.7570 C   0  0  0  0  0  2  0  0  0  0  0  0
  160.7730  210.9140  152.6930 C   0  0  2  0  0  3  0  0  0  0  0  0
  161.6340  209.6310  150.2520 C   0  0  0  0  0  0  0  0  0  0  0  0
  159.3420  210.6380  152.6740 N   0  0  0  0  0  2  0  0  0  0  0  0
  158.7330  211.4280  153.6700 N   0  0  0  0  0  0  0  0  0  0  0  0
  159.2850  209.7000  155.3610 N   0  0  0  0  0  1  0  0  0  0  0  0
  158.1370  211.6320  155.9290 O   0  0  0  0  0  0  0  0  0  0  0  0
  158.6970  210.9540  155.0260 C   0  0  0  0  0  0  0  0  0  0  0  0
  158.1260  212.7220  153.3390 C   0  0  0  0  0  3  0  0  0  0  0  0
  159.0410  213.8600  153.7580 C   0  0  0  0  0  1  0  0  0  0  0  0
  157.7990  212.8370  151.8580 C   0  0  0  0  0  1  0  0  0  0  0  0
  162.3240  207.5820  151.5140 C   0  0  0  0  0  2  0  0  0  0  0  0
  161.6430  206.3340  150.9620 C   0  0  0  0  0  2  0  0  0  0  0  0
  161.5500  205.2310  152.0080 C   0  0  0  0  0  2  0  0  0  0  0  0
  161.4530  203.8580  151.3610 C   0  0  0  0  0  2  0  0  0  0  0  0
  160.2890  202.6300  149.6150 N   0  0  0  0  0  2  0  0  0  0  0  0
  160.7600  203.9620  150.0160 C   0  0  2  0  0  3  0  0  0  0  0  0
  161.5070  203.2000  149.0190 C   0  0  2  0  0  3  0  0  0  0  0  0
  161.2680  203.7440  147.5910 C   0  0  1  0  0  3  0  0  0  0  0  0
  160.0010  205.9300  145.9630 C   0  0  0  0  0  2  0  0  0  0  0  0
  161.8590  205.0940  147.3780 N   0  0  0  0  0  0  0  0  0  0  0  0
  160.8750  206.1980  144.8940 O   0  0  0  0  0  0  0  0  0  0  0  0
  161.8540  205.1850  144.8900 C   0  0  0  0  0  2  0  0  0  0  0  0
  162.6880  205.2920  146.1690 C   0  0  2  0  0  3  0  0  0  0  0  0
  160.7460  206.0520  147.3070 C   0  0  0  0  0  2  0  0  0  0  0  0
  163.8080  204.4560  146.1480 O   0  0  0  0  0  1  0  0  0  0  0  0
  160.6600  201.5880  146.4160 C   0  0  1  0  0  0  0  0  0  0  0  0
  161.6670  202.6690  146.5660 C   0  0  1  0  0  3  0  0  0  0  0  0
  160.7330  202.6510  145.5040 O   0  0  0  0  0  0  0  0  0  0  0  0
  161.0550  200.2730  145.7810 C   0  0  0  0  0  1  0  0  0  0  0  0
  159.4760  201.6400  147.1570 O   0  0  0  0  0  1  0  0  0  0  0  0
  161.8000  211.9590  149.1380 C   0  0  0  0  0  2  0  0  0  0  0  0
  161.2200  213.3520  149.3230 C   0  0  0  0  0  2  0  0  0  0  0  0
  160.5310  213.8090  148.0460 C   0  0  2  0  0  3  0  0  0  0  0  0
  159.0710  213.3890  148.0510 C   0  0  0  0  0  1  0  0  0  0  0  0
  160.6770  211.8230  146.2490 O   0  0  0  0  0  0  0  0  0  0  0  0
  162.7890  212.8490  146.9430 O   0  0  0  0  0  0  0  0  0  0  0  0
  161.3470  213.1170  146.6200 S   0  0  0  0  0  0  0  0  0  0  0  0
  160.4010  213.6740  144.1470 C   0  0  0  0  0  2  0  0  0  0  0  0
  161.3560  213.4950  142.9970 C   0  0  1  0  0  3  0  0  0  0  0  0
  162.5920  214.4530  144.6810 N   0  0  0  0  0  2  0  0  0  0  0  0
  161.2580  214.2500  145.2400 C   0  0  2  0  0  3  0  0  0  0  0  0
  162.6980  213.6180  143.5540 N   0  0  0  0  0  2  0  0  0  0  0  0
  162.2610  211.8320  141.4480 N   0  0  0  0  0  2  0  0  0  0  0  0
  161.1640  212.1250  142.3500 C   0  0  2  0  0  3  0  0  0  0  0  0
  161.6810  211.2310  140.3180 N   0  0  0  0  0  2  0  0  0  0  0  0
  159.9380  212.1250  141.4850 C   0  0  0  0  0  2  0  0  0  0  0  0
  160.4040  211.8020  140.1520 N   0  0  0  0  0  2  0  0  0  0  0  0
  1  6  1  0  0  0  0
  2  1  2  0  0  0  0
  3  7  2  0  0  0  0
  4 16  1  1  0  0  0
  4  5  1  0  0  0  0
  6  8  1  6  0  0  0
  6  5  1  0  0  0  0
  7  2  1  0  0  0  0
  7  4  1  0  0  0  0
  8  9  1  0  0  0  0
  9 12  1  0  0  0  0
 12 10  1  0  0  0  0
 12 11  2  0  0  0  0
 13  9  1  0  0  0  0
 13 14  1  0  0  0  0
 15 13  1  0  0  0  0
 17 16  1  0  0  0  0
 17 18  1  0  0  0  0
 19 18  1  0  0  0  0
 20 21  1  0  0  0  0
 21 19  1  1  0  0  0
 22 23  1  6  0  0  0
 22 20  1  0  0  0  0
 22 21  1  0  0  0  0
 23 25  1  6  0  0  0
 24 29  1  0  0  0  0
 26 24  1  0  0  0  0
 27 26  1  0  0  0  0
 27 28  1  0  0  0  0
 28 30  1  6  0  0  0
 28 25  1  0  0  0  0
 29 25  1  0  0  0  0
 31 34  1  6  0  0  0
 31 32  1  0  0  0  0
 31 35  1  0  0  0  0
 32 23  1  1  0  0  0
 33 31  1  0  0  0  0
 33 32  1  0  0  0  0
 36 37  1  0  0  0  0
 36  2  1  0  0  0  0
 38 39  1  1  0  0  0
 38 37  1  0  0  0  0
 40 42  2  0  0  0  0
 42 41  2  0  0  0  0
 42 38  1  0  0  0  0
 43 46  1  0  0  0  0
 44 47  1  0  0  0  0
 44 43  1  1  0  0  0
 45 46  1  0  0  0  0
 46 42  1  1  0  0  0
 47 45  1  0  0  0  0
 48 49  1  0  0  0  0
 49 51  1  6  0  0  0
 49 44  1  0  0  0  0
 50 48  1  0  0  0  0
 52 50  1  0  0  0  0
 52 51  1  0  0  0  0
M  END
>  <MODEL>
2

>  <REMARK>
 VINA RESULT:      -6.3      2.072      3.060
  Name = 
  17 active torsions:
  status: ('A' for Active; 'I' for Inactive)
    1  A    between atoms: N_2  and  C_45
    2  A    between atoms: C_3  and  C_10
    3  A    between atoms: C_3  and  C_51
    4  A    between atoms: C_7  and  N_18
    5  A    between atoms: C_9  and  C_12
    6  A    between atoms: C_9  and  C_39
    7  A    between atoms: C_11  and  C_32
    8  A    between atoms: C_12  and  C_17
    9  A    between atoms: N_18  and  N_48
   10  A    between atoms: C_25  and  C_45
   11  A    between atoms: C_26  and  S_30
   12  A    between atoms: C_26  and  C_51
   13  A    between atoms: S_30  and  C_36
   14  A    between atoms: C_35  and  C_52
   15  A    between atoms: C_39  and  C_52
   16  A    between atoms: C_40  and  C_45
   17  A    between atoms: C_42  and  N_48
                            x       y       z     vdW  Elec       q    Type
                         _______ _______ _______ _____ _____    ______ ____

>  <TORSDO>
F 17

$$$$
=
 OpenBabel11042422203D

 52 57  0  0  1  0  0  0  0  0999 V2000
  160.9070  209.8020  153.7540 C   0  0  0  0  0  3  0  0  0  0  0  0
  161.1500  208.9640  154.7710 C   0  0  0  0  0  0  0  0  0  0  0  0
  161.6110  206.7470  155.4790 O   0  0  0  0  0  0  0  0  0  0  0  0
  161.1540  206.9540  153.1310 C   0  0  1  0  0  3  0  0  0  0  0  0
  160.3430  207.9010  152.2420 C   0  0  0  0  0  2  0  0  0  0  0  0
  160.8730  209.3350  152.3280 C   0  0  2  0  0  3  0  0  0  0  0  0
  161.2970  207.5110  154.5270 C   0  0  0  0  0  0  0  0  0  0  0  0
  162.2130  209.4140  151.7570 N   0  0  0  0  0  2  0  0  0  0  0  0
  162.0820  209.5420  150.3590 N   0  0  0  0  0  0  0  0  0  0  0  0
  162.8220  207.1910  150.0860 N   0  0  0  0  0  1  0  0  0  0  0  0
  162.3110  208.5220  148.2600 O   0  0  0  0  0  0  0  0  0  0  0  0
  162.3960  208.4230  149.5130 C   0  0  0  0  0  0  0  0  0  0  0  0
  161.6430  210.8050  149.7550 C   0  0  0  0  0  3  0  0  0  0  0  0
  160.9600  211.6790  150.7930 C   0  0  0  0  0  1  0  0  0  0  0  0
  162.7970  211.5630  149.1160 C   0  0  0  0  0  1  0  0  0  0  0  0
  160.4890  205.5830  153.1490 C   0  0  0  0  0  2  0  0  0  0  0  0
  161.3200  204.5560  152.3880 C   0  0  0  0  0  2  0  0  0  0  0  0
  160.4440  203.5790  151.6160 C   0  0  0  0  0  2  0  0  0  0  0  0
  161.2800  202.5580  150.8600 C   0  0  0  0  0  2  0  0  0  0  0  0
  161.8180  204.6260  149.7000 N   0  0  0  0  0  2  0  0  0  0  0  0
  161.8040  203.1630  149.5730 C   0  0  2  0  0  3  0  0  0  0  0  0
  160.7520  203.9540  148.9400 C   0  0  2  0  0  3  0  0  0  0  0  0
  160.9620  204.0600  147.4100 C   0  0  1  0  0  3  0  0  0  0  0  0
  159.8650  205.9270  145.3260 C   0  0  0  0  0  2  0  0  0  0  0  0
  161.6000  205.3410  147.0000 N   0  0  0  0  0  0  0  0  0  0  0  0
  160.8170  205.9850  144.2910 O   0  0  0  0  0  0  0  0  0  0  0  0
  161.7680  204.9760  144.5430 C   0  0  0  0  0  2  0  0  0  0  0  0
  162.5150  205.3050  145.8380 C   0  0  2  0  0  3  0  0  0  0  0  0
  160.5180  206.2830  146.6760 C   0  0  0  0  0  2  0  0  0  0  0  0
  163.6120  204.4650  146.0500 O   0  0  0  0  0  1  0  0  0  0  0  0
  160.8310  201.5530  147.1050 C   0  0  1  0  0  0  0  0  0  0  0  0
  161.6430  202.7790  146.9020 C   0  0  1  0  0  3  0  0  0  0  0  0
  160.8720  202.2060  145.8650 O   0  0  0  0  0  0  0  0  0  0  0  0
  161.4920  200.1930  147.0480 C   0  0  0  0  0  1  0  0  0  0  0  0
  159.5640  201.6530  147.6850 O   0  0  0  0  0  1  0  0  0  0  0  0
  161.2300  209.5220  156.1520 C   0  0  0  0  0  2  0  0  0  0  0  0
  160.2000  210.6230  156.3440 C   0  0  0  0  0  2  0  0  0  0  0  0
  160.8550  211.9880  156.1940 C   0  0  2  0  0  3  0  0  0  0  0  0
  162.0020  212.1380  157.1790 C   0  0  0  0  0  1  0  0  0  0  0  0
  160.3020  214.3860  157.2610 O   0  0  0  0  0  0  0  0  0  0  0  0
  158.4920  212.7370  157.2390 O   0  0  0  0  0  0  0  0  0  0  0  0
  159.6600  213.2820  156.4670 S   0  0  0  0  0  0  0  0  0  0  0  0
  157.6110  214.2560  154.9930 C   0  0  0  0  0  2  0  0  0  0  0  0
  156.9770  213.3150  154.0040 C   0  0  1  0  0  3  0  0  0  0  0  0
  159.2360  212.9260  153.8620 N   0  0  0  0  0  2  0  0  0  0  0  0
  159.0770  213.9330  154.9070 C   0  0  2  0  0  3  0  0  0  0  0  0
  157.9840  212.3100  153.6880 N   0  0  0  0  0  2  0  0  0  0  0  0
  155.4670  213.2040  155.9260 N   0  0  0  0  0  2  0  0  0  0  0  0
  155.7340  212.6620  154.6080 C   0  0  2  0  0  3  0  0  0  0  0  0
  155.0880  212.1090  156.7220 N   0  0  0  0  0  2  0  0  0  0  0  0
  155.9710  211.1970  154.8280 C   0  0  0  0  0  2  0  0  0  0  0  0
  155.7950  210.9860  156.2510 N   0  0  0  0  0  2  0  0  0  0  0  0
  1  2  2  0  0  0  0
  2 36  1  0  0  0  0
  4 16  1  1  0  0  0
  4  7  1  0  0  0  0
  5  6  1  0  0  0  0
  5  4  1  0  0  0  0
  6  8  1  1  0  0  0
  6  1  1  0  0  0  0
  7  2  1  0  0  0  0
  7  3  2  0  0  0  0
  9  8  1  0  0  0  0
 11 12  2  0  0  0  0
 12 10  1  0  0  0  0
 12  9  1  0  0  0  0
 13  9  1  0  0  0  0
 13 14  1  0  0  0  0
 15 13  1  0  0  0  0
 17 16  1  0  0  0  0
 18 17  1  0  0  0  0
 19 18  1  0  0  0  0
 21 20  1  0  0  0  0
 21 19  1  1  0  0  0
 22 23  1  6  0  0  0
 22 21  1  0  0  0  0
 22 20  1  0  0  0  0
 23 25  1  1  0  0  0
 24 29  1  0  0  0  0
 26 27  1  0  0  0  0
 26 24  1  0  0  0  0
 27 28  1  0  0  0  0
 28 30  1  1  0  0  0
 28 25  1  0  0  0  0
 29 25  1  0  0  0  0
 31 34  1  1  0  0  0
 31 35  1  0  0  0  0
 32 31  1  0  0  0  0
 32 23  1  1  0  0  0
 33 32  1  0  0  0  0
 33 31  1  0  0  0  0
 36 37  1  0  0  0  0
 38 37  1  0  0  0  0
 38 42  1  0  0  0  0
 38 39  1  1  0  0  0
 42 41  2  0  0  0  0
 42 40  2  0  0  0  0
 44 49  1  0  0  0  0
 44 43  1  1  0  0  0
 45 46  1  0  0  0  0
 46 43  1  0  0  0  0
 46 42  1  1  0  0  0
 47 45  1  0  0  0  0
 47 44  1  0  0  0  0
 48 50  1  0  0  0  0
 49 51  1  1  0  0  0
 49 48  1  0  0  0  0
 51 52  1  0  0  0  0
 52 50  1  0  0  0  0
M  END
>  <MODEL>
3

>  <REMARK>
 VINA RESULT:      -4.8      3.287      6.091
  Name = 
  17 active torsions:
  status: ('A' for Active; 'I' for Inactive)
    1  A    between atoms: N_2  and  C_45
    2  A    between atoms: C_3  and  C_10
    3  A    between atoms: C_3  and  C_51
    4  A    between atoms: C_7  and  N_18
    5  A    between atoms: C_9  and  C_12
    6  A    between atoms: C_9  and  C_39
    7  A    between atoms: C_11  and  C_32
    8  A    between atoms: C_12  and  C_17
    9  A    between atoms: N_18  and  N_48
   10  A    between atoms: C_25  and  C_45
   11  A    between atoms: C_26  and  S_30
   12  A    between atoms: C_26  and  C_51
   13  A    between atoms: S_30  and  C_36
   14  A    between atoms: C_35  and  C_52
   15  A    between atoms: C_39  and  C_52
   16  A    between atoms: C_40  and  C_45
   17  A    between atoms: C_42  and  N_48
                            x       y       z     vdW  Elec       q    Type
                         _______ _______ _______ _____ _____    ______ ____

>  <TORSDO>
F 17

$$$$
=
 OpenBabel11042422203D

 52 57  0  0  1  0  0  0  0  0999 V2000
  162.3940  209.3870  148.2570 C   0  0  0  0  0  3  0  0  0  0  0  0
  161.9640  208.3890  149.0420 C   0  0  0  0  0  0  0  0  0  0  0  0
  160.8880  207.7370  151.0530 O   0  0  0  0  0  0  0  0  0  0  0  0
  161.2530  210.1020  150.8550 C   0  0  1  0  0  3  0  0  0  0  0  0
  162.2630  211.0090  150.1460 C   0  0  0  0  0  2  0  0  0  0  0  0
  162.2020  210.8290  148.6270 C   0  0  2  0  0  3  0  0  0  0  0  0
  161.3670  208.6780  150.3650 C   0  0  0  0  0  0  0  0  0  0  0  0
  160.9210  211.2990  148.1130 N   0  0  0  0  0  2  0  0  0  0  0  0
  161.1450  212.5110  147.4300 N   0  0  0  0  0  0  0  0  0  0  0  0
  158.8450  212.4010  146.5090 N   0  0  0  0  0  1  0  0  0  0  0  0
  160.2850  214.1360  145.9730 O   0  0  0  0  0  0  0  0  0  0  0  0
  160.1000  213.0660  146.6130 C   0  0  0  0  0  0  0  0  0  0  0  0
  162.4320  213.2070  147.5300 C   0  0  0  0  0  3  0  0  0  0  0  0
  162.9310  213.6000  146.1510 C   0  0  0  0  0  1  0  0  0  0  0  0
  162.3480  214.4360  148.4220 C   0  0  0  0  0  1  0  0  0  0  0  0
  161.4660  210.1860  152.3620 C   0  0  0  0  0  2  0  0  0  0  0  0
  161.5120  208.7990  152.9920 C   0  0  0  0  0  2  0  0  0  0  0  0
  160.7920  208.7640  154.3340 C   0  0  0  0  0  2  0  0  0  0  0  0
  161.5480  209.5510  155.3930 C   0  0  0  0  0  2  0  0  0  0  0  0
  159.6870  209.9570  156.9040 N   0  0  0  0  0  2  0  0  0  0  0  0
  160.6460  210.6070  156.0010 C   0  0  2  0  0  3  0  0  0  0  0  0
  159.2700  210.3880  155.5610 C   0  0  2  0  0  3  0  0  0  0  0  0
  158.4490  211.6990  155.5900 C   0  0  1  0  0  3  0  0  0  0  0  0
  155.7820  212.7410  156.5060 C   0  0  0  0  0  2  0  0  0  0  0  0
  158.1500  212.1660  156.9720 N   0  0  0  0  0  0  0  0  0  0  0  0
  155.9820  214.0780  156.8980 O   0  0  0  0  0  0  0  0  0  0  0  0
  157.2770  214.4460  156.4820 C   0  0  0  0  0  2  0  0  0  0  0  0
  158.3040  213.6110  157.2510 C   0  0  2  0  0  3  0  0  0  0  0  0
  156.7530  211.8110  157.2610 C   0  0  0  0  0  2  0  0  0  0  0  0
  159.6140  214.0560  157.0480 O   0  0  0  0  0  1  0  0  0  0  0  0
  158.9230  212.4380  153.2180 C   0  0  1  0  0  0  0  0  0  0  0  0
  159.1090  212.7320  154.6620 C   0  0  1  0  0  3  0  0  0  0  0  0
  158.1210  213.3770  153.8840 O   0  0  0  0  0  0  0  0  0  0  0  0
  159.8240  213.0930  152.1940 C   0  0  0  0  0  1  0  0  0  0  0  0
  158.1770  211.3220  152.8320 O   0  0  0  0  0  1  0  0  0  0  0  0
  162.1380  206.9850  148.5690 C   0  0  0  0  0  2  0  0  0  0  0  0
  160.9810  206.5740  147.6730 C   0  0  0  0  0  2  0  0  0  0  0  0
  161.5010  206.1220  146.3160 C   0  0  2  0  0  3  0  0  0  0  0  0
  160.4190  206.2640  145.2590 C   0  0  0  0  0  1  0  0  0  0  0  0
  163.2130  204.3250  147.3300 O   0  0  0  0  0  0  0  0  0  0  0  0
  162.4630  203.9650  145.0280 O   0  0  0  0  0  0  0  0  0  0  0  0
  162.0410  204.4250  146.3940 S   0  0  0  0  0  0  0  0  0  0  0  0
  160.3870  203.7060  148.4110 C   0  0  0  0  0  2  0  0  0  0  0  0
  160.7360  202.4490  149.1620 C   0  0  1  0  0  3  0  0  0  0  0  0
  161.1460  201.9800  146.9510 N   0  0  0  0  0  2  0  0  0  0  0  0
  160.7190  203.3750  146.9820 C   0  0  2  0  0  3  0  0  0  0  0  0
  161.5420  201.6400  148.2570 N   0  0  0  0  0  2  0  0  0  0  0  0
  160.8890  202.1840  151.5890 N   0  0  0  0  0  2  0  0  0  0  0  0
  161.5190  202.7840  150.4300 C   0  0  2  0  0  3  0  0  0  0  0  0
  160.9550  203.1510  152.6070 N   0  0  0  0  0  2  0  0  0  0  0  0
  161.4850  204.2620  150.6880 C   0  0  0  0  0  2  0  0  0  0  0  0
  160.8660  204.4140  151.9900 N   0  0  0  0  0  2  0  0  0  0  0  0
  1  6  1  0  0  0  0
  1  2  2  0  0  0  0
  2  7  1  0  0  0  0
  4 16  1  1  0  0  0
  5  4  1  0  0  0  0
  6  8  1  1  0  0  0
  6  5  1  0  0  0  0
  7  4  1  0  0  0  0
  7  3  2  0  0  0  0
  9 13  1  0  0  0  0
  9  8  1  0  0  0  0
 10 12  1  0  0  0  0
 11 12  2  0  0  0  0
 12  9  1  0  0  0  0
 13 15  1  0  0  0  0
 14 13  1  0  0  0  0
 16 17  1  0  0  0  0
 17 18  1  0  0  0  0
 18 19  1  0  0  0  0
 21 19  1  6  0  0  0
 21 20  1  0  0  0  0
 22 23  1  1  0  0  0
 22 21  1  0  0  0  0
 22 20  1  0  0  0  0
 23 25  1  1  0  0  0
 24 26  1  0  0  0  0
 24 29  1  0  0  0  0
 25 28  1  0  0  0  0
 25 29  1  0  0  0  0
 27 26  1  0  0  0  0
 27 28  1  0  0  0  0
 28 30  1  6  0  0  0
 31 34  1  6  0  0  0
 31 33  1  0  0  0  0
 31 32  1  0  0  0  0
 32 23  1  1  0  0  0
 33 32  1  0  0  0  0
 35 31  1  0  0  0  0
 36  2  1  0  0  0  0
 37 36  1  0  0  0  0
 38 39  1  6  0  0  0
 38 42  1  0  0  0  0
 38 37  1  0  0  0  0
 41 42  2  0  0  0  0
 42 40  2  0  0  0  0
 44 43  1  6  0  0  0
 44 49  1  0  0  0  0
 45 46  1  0  0  0  0
 45 47  1  0  0  0  0
 46 42  1  1  0  0  0
 46 43  1  0  0  0  0
 47 44  1  0  0  0  0
 48 50  1  0  0  0  0
 49 51  1  1  0  0  0
 49 48  1  0  0  0  0
 51 52  1  0  0  0  0
 52 50  1  0  0  0  0
M  END
>  <MODEL>
4

>  <REMARK>
 VINA RESULT:      -4.5      2.493      9.799
  Name = 
  17 active torsions:
  status: ('A' for Active; 'I' for Inactive)
    1  A    between atoms: N_2  and  C_45
    2  A    between atoms: C_3  and  C_10
    3  A    between atoms: C_3  and  C_51
    4  A    between atoms: C_7  and  N_18
    5  A    between atoms: C_9  and  C_12
    6  A    between atoms: C_9  and  C_39
    7  A    between atoms: C_11  and  C_32
    8  A    between atoms: C_12  and  C_17
    9  A    between atoms: N_18  and  N_48
   10  A    between atoms: C_25  and  C_45
   11  A    between atoms: C_26  and  S_30
   12  A    between atoms: C_26  and  C_51
   13  A    between atoms: S_30  and  C_36
   14  A    between atoms: C_35  and  C_52
   15  A    between atoms: C_39  and  C_52
   16  A    between atoms: C_40  and  C_45
   17  A    between atoms: C_42  and  N_48
                            x       y       z     vdW  Elec       q    Type
                         _______ _______ _______ _____ _____    ______ ____

>  <TORSDO>
F 17

$$$$
=
 OpenBabel11042422203D

 52 57  0  0  1  0  0  0  0  0999 V2000
  160.8990  210.5860  150.9620 C   0  0  0  0  0  3  0  0  0  0  0  0
  161.5030  209.5000  151.4640 C   0  0  0  0  0  0  0  0  0  0  0  0
  163.0050  207.6970  151.1160 O   0  0  0  0  0  0  0  0  0  0  0  0
  162.5780  209.0130  149.1540 C   0  0  1  0  0  3  0  0  0  0  0  0
  161.4260  209.8750  148.6310 C   0  0  0  0  0  2  0  0  0  0  0  0
  161.1510  211.0600  149.5600 C   0  0  2  0  0  3  0  0  0  0  0  0
  162.3750  208.6630  150.6090 C   0  0  0  0  0  0  0  0  0  0  0  0
  162.2810  211.9810  149.5520 N   0  0  0  0  0  2  0  0  0  0  0  0
  162.0050  213.0000  148.6190 N   0  0  0  0  0  0  0  0  0  0  0  0
  163.8090  212.1310  147.1560 N   0  0  0  0  0  1  0  0  0  0  0  0
  162.5680  213.9990  146.5720 O   0  0  0  0  0  0  0  0  0  0  0  0
  162.7800  213.0820  147.4100 C   0  0  0  0  0  0  0  0  0  0  0  0
  160.9460  213.9850  148.8670 C   0  0  0  0  0  3  0  0  0  0  0  0
  159.6620  213.5710  148.1690 C   0  0  0  0  0  1  0  0  0  0  0  0
  160.6880  214.1820  150.3530 C   0  0  0  0  0  1  0  0  0  0  0  0
  162.7020  207.7590  148.2970 C   0  0  0  0  0  2  0  0  0  0  0  0
  161.3570  207.3600  147.7010 C   0  0  0  0  0  2  0  0  0  0  0  0
  161.5230  206.5010  146.4540 C   0  0  0  0  0  2  0  0  0  0  0  0
  162.5900  205.4350  146.6500 C   0  0  0  0  0  2  0  0  0  0  0  0
  160.4850  204.2790  147.0360 N   0  0  0  0  0  2  0  0  0  0  0  0
  161.9440  204.1120  147.0160 C   0  0  2  0  0  3  0  0  0  0  0  0
  161.2480  204.2440  148.2930 C   0  0  2  0  0  3  0  0  0  0  0  0
  161.1280  202.8830  149.0190 C   0  0  1  0  0  3  0  0  0  0  0  0
  160.7970  205.4030  150.6240 C   0  0  0  0  0  2  0  0  0  0  0  0
  160.3890  202.9760  150.3090 N   0  0  0  0  0  0  0  0  0  0  0  0
  161.4300  205.1820  151.8610 O   0  0  0  0  0  0  0  0  0  0  0  0
  162.1530  203.9780  151.7510 C   0  0  0  0  0  2  0  0  0  0  0  0
  161.1700  202.8210  151.5550 C   0  0  2  0  0  3  0  0  0  0  0  0
  159.7530  204.3020  150.3520 C   0  0  0  0  0  2  0  0  0  0  0  0
  161.7910  201.5720  151.6420 O   0  0  0  0  0  1  0  0  0  0  0  0
  161.4800  200.6180  147.9490 C   0  0  1  0  0  0  0  0  0  0  0  0
  160.6160  201.8240  148.0290 C   0  0  1  0  0  3  0  0  0  0  0  0
  160.3100  200.6300  148.7220 O   0  0  0  0  0  0  0  0  0  0  0  0
  161.3640  199.6850  146.7640 C   0  0  0  0  0  1  0  0  0  0  0  0
  162.6170  200.5290  148.7570 O   0  0  0  0  0  1  0  0  0  0  0  0
  161.2450  209.1350  152.8870 C   0  0  0  0  0  2  0  0  0  0  0  0
  161.6140  210.2840  153.8100 C   0  0  0  0  0  2  0  0  0  0  0  0
  161.1910  209.9680  155.2380 C   0  0  2  0  0  3  0  0  0  0  0  0
  160.4150  208.6630  155.2860 C   0  0  0  0  0  1  0  0  0  0  0  0
  160.9240  211.9570  157.0160 O   0  0  0  0  0  0  0  0  0  0  0  0
  158.8950  210.7250  156.4170 O   0  0  0  0  0  0  0  0  0  0  0  0
  160.1850  211.2860  155.8920 S   0  0  0  0  0  0  0  0  0  0  0  0
  158.8860  213.5380  155.1420 C   0  0  0  0  0  2  0  0  0  0  0  0
  157.6450  213.3630  154.3080 C   0  0  1  0  0  3  0  0  0  0  0  0
  159.1540  211.8320  153.4980 N   0  0  0  0  0  2  0  0  0  0  0  0
  159.8240  212.4870  154.6170 C   0  0  2  0  0  3  0  0  0  0  0  0
  157.7760  212.0730  153.6430 N   0  0  0  0  0  2  0  0  0  0  0  0
  156.7700  213.4470  156.5920 N   0  0  0  0  0  2  0  0  0  0  0  0
  156.3990  213.3900  155.1910 C   0  0  2  0  0  3  0  0  0  0  0  0
  155.8880  212.5810  157.2590 N   0  0  0  0  0  2  0  0  0  0  0  0
  155.6280  212.1110  155.0440 C   0  0  0  0  0  2  0  0  0  0  0  0
  155.5800  211.5320  156.3710 N   0  0  0  0  0  2  0  0  0  0  0  0
  1  2  2  0  0  0  0
  2 36  1  0  0  0  0
  4 16  1  6  0  0  0
  4  7  1  0  0  0  0
  5  4  1  0  0  0  0
  5  6  1  0  0  0  0
  6  8  1  1  0  0  0
  6  1  1  0  0  0  0
  7  3  2  0  0  0  0
  7  2  1  0  0  0  0
  9 13  1  0  0  0  0
  9  8  1  0  0  0  0
 10 12  1  0  0  0  0
 11 12  2  0  0  0  0
 12  9  1  0  0  0  0
 13 15  1  0  0  0  0
 14 13  1  0  0  0  0
 17 16  1  0  0  0  0
 18 19  1  0  0  0  0
 18 17  1  0  0  0  0
 20 22  1  0  0  0  0
 21 19  1  6  0  0  0
 21 20  1  0  0  0  0
 21 22  1  0  0  0  0
 22 23  1  1  0  0  0
 23 25  1  1  0  0  0
 24 26  1  0  0  0  0
 25 29  1  0  0  0  0
 25 28  1  0  0  0  0
 27 26  1  0  0  0  0
 28 30  1  6  0  0  0
 28 27  1  0  0  0  0
 29 24  1  0  0  0  0
 31 34  1  6  0  0  0
 31 32  1  0  0  0  0
 31 33  1  0  0  0  0
 31 35  1  0  0  0  0
 32 33  1  0  0  0  0
 32 23  1  1  0  0  0
 36 37  1  0  0  0  0
 37 38  1  0  0  0  0
 38 39  1  6  0  0  0
 38 42  1  0  0  0  0
 42 41  2  0  0  0  0
 42 40  2  0  0  0  0
 44 43  1  1  0  0  0
 44 49  1  0  0  0  0
 45 47  1  0  0  0  0
 45 46  1  0  0  0  0
 46 43  1  0  0  0  0
 46 42  1  1  0  0  0
 47 44  1  0  0  0  0
 48 50  1  0  0  0  0
 49 51  1  1  0  0  0
 49 48  1  0  0  0  0
 51 52  1  0  0  0  0
 52 50  1  0  0  0  0
M  END
>  <MODEL>
5

>  <REMARK>
 VINA RESULT:      -4.1      2.776      6.529
  Name = 
  17 active torsions:
  status: ('A' for Active; 'I' for Inactive)
    1  A    between atoms: N_2  and  C_45
    2  A    between atoms: C_3  and  C_10
    3  A    between atoms: C_3  and  C_51
    4  A    between atoms: C_7  and  N_18
    5  A    between atoms: C_9  and  C_12
    6  A    between atoms: C_9  and  C_39
    7  A    between atoms: C_11  and  C_32
    8  A    between atoms: C_12  and  C_17
    9  A    between atoms: N_18  and  N_48
   10  A    between atoms: C_25  and  C_45
   11  A    between atoms: C_26  and  S_30
   12  A    between atoms: C_26  and  C_51
   13  A    between atoms: S_30  and  C_36
   14  A    between atoms: C_35  and  C_52
   15  A    between atoms: C_39  and  C_52
   16  A    between atoms: C_40  and  C_45
   17  A    between atoms: C_42  and  N_48
                            x       y       z     vdW  Elec       q    Type
                         _______ _______ _______ _____ _____    ______ ____

>  <TORSDO>
F 17

$$$$
=
 OpenBabel11042422203D

 52 57  0  0  1  0  0  0  0  0999 V2000
  160.6600  209.4180  152.0600 C   0  0  0  0  0  3  0  0  0  0  0  0
  161.3420  208.3440  152.4830 C   0  0  0  0  0  0  0  0  0  0  0  0
  162.9050  206.6320  151.9800 O   0  0  0  0  0  0  0  0  0  0  0  0
  162.3090  208.0020  150.1010 C   0  0  1  0  0  3  0  0  0  0  0  0
  161.0900  208.8270  149.6770 C   0  0  0  0  0  2  0  0  0  0  0  0
  160.8120  209.9590  150.6690 C   0  0  2  0  0  3  0  0  0  0  0  0
  162.2040  207.5860  151.5480 C   0  0  0  0  0  0  0  0  0  0  0  0
  161.8950  210.9350  150.6390 N   0  0  0  0  0  2  0  0  0  0  0  0
  161.6370  211.8410  149.5910 N   0  0  0  0  0  0  0  0  0  0  0  0
  160.2610  213.2120  151.1330 N   0  0  0  0  0  1  0  0  0  0  0  0
  160.5410  213.7990  148.9080 O   0  0  0  0  0  0  0  0  0  0  0  0
  160.8060  212.9880  149.8360 C   0  0  0  0  0  0  0  0  0  0  0  0
  162.1940  211.6230  148.2510 C   0  0  0  0  0  3  0  0  0  0  0  0
  161.2610  212.1840  147.1920 C   0  0  0  0  0  1  0  0  0  0  0  0
  163.5770  212.2370  148.1020 C   0  0  0  0  0  1  0  0  0  0  0  0
  162.4440  206.7910  149.1860 C   0  0  0  0  0  2  0  0  0  0  0  0
  162.6890  207.2130  147.7420 C   0  0  0  0  0  2  0  0  0  0  0  0
  162.1330  206.1970  146.7530 C   0  0  0  0  0  2  0  0  0  0  0  0
  163.1370  205.0920  146.4660 C   0  0  0  0  0  2  0  0  0  0  0  0
  161.0630  203.8860  146.0670 N   0  0  0  0  0  2  0  0  0  0  0  0
  162.4530  203.7390  146.5180 C   0  0  2  0  0  3  0  0  0  0  0  0
  161.3730  203.7740  147.5010 C   0  0  2  0  0  3  0  0  0  0  0  0
  161.0690  202.3650  148.0630 C   0  0  1  0  0  3  0  0  0  0  0  0
  161.3870  204.3310  150.3140 C   0  0  0  0  0  2  0  0  0  0  0  0
  160.2190  202.3990  149.2850 N   0  0  0  0  0  0  0  0  0  0  0  0
  161.7070  203.5840  151.4630 O   0  0  0  0  0  0  0  0  0  0  0  0
  161.9780  202.2670  151.0420 C   0  0  0  0  0  2  0  0  0  0  0  0
  160.6980  201.6520  150.4690 C   0  0  2  0  0  3  0  0  0  0  0  0
  160.0820  203.8080  149.6820 C   0  0  0  0  0  2  0  0  0  0  0  0
  160.8280  200.2830  150.2180 O   0  0  0  0  0  1  0  0  0  0  0  0
  161.2800  200.1620  146.8380 C   0  0  1  0  0  0  0  0  0  0  0  0
  160.5680  201.4620  146.9230 C   0  0  1  0  0  3  0  0  0  0  0  0
  160.0270  200.2710  147.4600 O   0  0  0  0  0  0  0  0  0  0  0  0
  161.2090  199.3450  145.5660 C   0  0  0  0  0  1  0  0  0  0  0  0
  162.2790  199.8600  147.7680 O   0  0  0  0  0  1  0  0  0  0  0  0
  161.1810  207.9110  153.9010 C   0  0  0  0  0  2  0  0  0  0  0  0
  160.2680  208.8650  154.6530 C   0  0  0  0  0  2  0  0  0  0  0  0
  161.0700  210.0350  155.2060 C   0  0  2  0  0  3  0  0  0  0  0  0
  161.6640  209.6780  156.5580 C   0  0  0  0  0  1  0  0  0  0  0  0
  159.9440  212.1710  154.0400 O   0  0  0  0  0  0  0  0  0  0  0  0
  160.6300  212.4160  156.3780 O   0  0  0  0  0  0  0  0  0  0  0  0
  160.0330  211.4750  155.3700 S   0  0  0  0  0  0  0  0  0  0  0  0
  157.3620  211.5170  154.9400 C   0  0  0  0  0  2  0  0  0  0  0  0
  156.5570  212.4930  155.7550 C   0  0  1  0  0  3  0  0  0  0  0  0
  158.1060  211.6120  157.2040 N   0  0  0  0  0  2  0  0  0  0  0  0
  158.3930  211.0060  155.9070 C   0  0  2  0  0  3  0  0  0  0  0  0
  157.3310  212.7600  156.9600 N   0  0  0  0  0  2  0  0  0  0  0  0
  155.3670  213.5570  153.9010 N   0  0  0  0  0  2  0  0  0  0  0  0
  156.3220  213.7810  154.9680 C   0  0  2  0  0  3  0  0  0  0  0  0
  155.8600  214.2600  152.7890 N   0  0  0  0  0  2  0  0  0  0  0  0
  157.5850  214.2070  154.2790 C   0  0  0  0  0  2  0  0  0  0  0  0
  157.2660  214.2300  152.8660 N   0  0  0  0  0  2  0  0  0  0  0  0
  1  2  2  0  0  0  0
  2 36  1  0  0  0  0
  4 16  1  6  0  0  0
  4  7  1  0  0  0  0
  5  4  1  0  0  0  0
  5  6  1  0  0  0  0
  6  8  1  1  0  0  0
  6  1  1  0  0  0  0
  7  3  2  0  0  0  0
  7  2  1  0  0  0  0
  9 12  1  0  0  0  0
  9  8  1  0  0  0  0
 11 12  2  0  0  0  0
 12 10  1  0  0  0  0
 13  9  1  0  0  0  0
 14 13  1  0  0  0  0
 15 13  1  0  0  0  0
 17 16  1  0  0  0  0
 18 17  1  0  0  0  0
 19 18  1  0  0  0  0
 20 21  1  0  0  0  0
 20 22  1  0  0  0  0
 21 19  1  1  0  0  0
 21 22  1  0  0  0  0
 22 23  1  6  0  0  0
 23 25  1  1  0  0  0
 24 26  1  0  0  0  0
 25 29  1  0  0  0  0
 25 28  1  0  0  0  0
 27 26  1  0  0  0  0
 28 30  1  6  0  0  0
 28 27  1  0  0  0  0
 29 24  1  0  0  0  0
 31 34  1  6  0  0  0
 31 32  1  0  0  0  0
 31 33  1  0  0  0  0
 31 35  1  0  0  0  0
 32 33  1  0  0  0  0
 32 23  1  1  0  0  0
 36 37  1  0  0  0  0
 37 38  1  0  0  0  0
 38 42  1  0  0  0  0
 38 39  1  1  0  0  0
 40 42  2  0  0  0  0
 42 41  2  0  0  0  0
 43 46  1  0  0  0  0
 44 43  1  6  0  0  0
 44 47  1  0  0  0  0
 46 42  1  6  0  0  0
 46 45  1  0  0  0  0
 47 45  1  0  0  0  0
 48 49  1  0  0  0  0
 49 51  1  6  0  0  0
 49 44  1  0  0  0  0
 50 52  1  0  0  0  0
 50 48  1  0  0  0  0
 52 51  1  0  0  0  0
M  END
>  <MODEL>
6

>  <REMARK>
 VINA RESULT:      -3.6      2.937      6.403
  Name = 
  17 active torsions:
  status: ('A' for Active; 'I' for Inactive)
    1  A    between atoms: N_2  and  C_45
    2  A    between atoms: C_3  and  C_10
    3  A    between atoms: C_3  and  C_51
    4  A    between atoms: C_7  and  N_18
    5  A    between atoms: C_9  and  C_12
    6  A    between atoms: C_9  and  C_39
    7  A    between atoms: C_11  and  C_32
    8  A    between atoms: C_12  and  C_17
    9  A    between atoms: N_18  and  N_48
   10  A    between atoms: C_25  and  C_45
   11  A    between atoms: C_26  and  S_30
   12  A    between atoms: C_26  and  C_51
   13  A    between atoms: S_30  and  C_36
   14  A    between atoms: C_35  and  C_52
   15  A    between atoms: C_39  and  C_52
   16  A    between atoms: C_40  and  C_45
   17  A    between atoms: C_42  and  N_48
                            x       y       z     vdW  Elec       q    Type
                         _______ _______ _______ _____ _____    ______ ____

>  <TORSDO>
F 17

$$$$
=
 OpenBabel11042422203D

 52 57  0  0  1  0  0  0  0  0999 V2000
  159.1310  210.6800  153.9180 C   0  0  0  0  0  3  0  0  0  0  0  0
  160.3410  210.2360  153.5520 C   0  0  0  0  0  0  0  0  0  0  0  0
  162.1750  210.4080  152.0560 O   0  0  0  0  0  0  0  0  0  0  0  0
  160.3100  211.8090  151.4900 C   0  0  1  0  0  3  0  0  0  0  0  0
  158.7940  211.7700  151.7020 C   0  0  0  0  0  2  0  0  0  0  0  0
  158.4390  211.7950  153.1910 C   0  0  2  0  0  3  0  0  0  0  0  0
  161.0020  210.7710  152.3390 C   0  0  0  0  0  0  0  0  0  0  0  0
  158.8210  213.0730  153.7800 N   0  0  0  0  0  2  0  0  0  0  0  0
  157.9840  213.3080  154.8890 N   0  0  0  0  0  0  0  0  0  0  0  0
  156.0350  213.4830  153.3660 N   0  0  0  0  0  1  0  0  0  0  0  0
  155.8130  213.7580  155.6560 O   0  0  0  0  0  0  0  0  0  0  0  0
  156.5770  213.5220  154.6820 C   0  0  0  0  0  0  0  0  0  0  0  0
  158.5290  213.3490  156.2510 C   0  0  0  0  0  3  0  0  0  0  0  0
  158.6860  211.9430  156.8020 C   0  0  0  0  0  1  0  0  0  0  0  0
  159.8610  214.0820  156.3090 C   0  0  0  0  0  1  0  0  0  0  0  0
  160.6200  211.6100  150.0110 C   0  0  0  0  0  2  0  0  0  0  0  0
  162.0870  211.2550  149.7970 C   0  0  0  0  0  2  0  0  0  0  0  0
  162.4360  211.1600  148.3180 C   0  0  0  0  0  2  0  0  0  0  0  0
  162.3950  212.5240  147.6470 C   0  0  0  0  0  2  0  0  0  0  0  0
  162.0780  213.4280  145.4120 N   0  0  0  0  0  2  0  0  0  0  0  0
  161.5570  212.4600  146.3850 C   0  0  2  0  0  3  0  0  0  0  0  0
  160.8670  213.7320  146.1900 C   0  0  2  0  0  3  0  0  0  0  0  0
  159.5730  213.5570  145.3600 C   0  0  1  0  0  3  0  0  0  0  0  0
  158.2490  213.0220  148.0060 C   0  0  0  0  0  2  0  0  0  0  0  0
  158.4250  214.3330  145.9060 N   0  0  0  0  0  0  0  0  0  0  0  0
  156.9160  212.6700  147.7280 O   0  0  0  0  0  0  0  0  0  0  0  0
  156.8140  212.4830  146.3350 C   0  0  0  0  0  2  0  0  0  0  0  0
  157.0640  213.8200  145.6330 C   0  0  2  0  0  3  0  0  0  0  0  0
  158.5880  214.3840  147.3670 C   0  0  0  0  0  2  0  0  0  0  0  0
  156.7810  213.7660  144.2650 O   0  0  0  0  0  1  0  0  0  0  0  0
  160.3500  212.5630  143.1680 C   0  0  1  0  0  0  0  0  0  0  0  0
  159.8890  213.7860  143.8730 C   0  0  1  0  0  3  0  0  0  0  0  0
  159.0220  213.0050  143.0740 O   0  0  0  0  0  0  0  0  0  0  0  0
  161.0790  212.6840  141.8480 C   0  0  0  0  0  1  0  0  0  0  0  0
  160.4310  211.3540  143.8650 O   0  0  0  0  0  1  0  0  0  0  0  0
  160.9860  209.1670  154.3680 C   0  0  0  0  0  2  0  0  0  0  0  0
  161.8350  208.2620  153.4910 C   0  0  0  0  0  2  0  0  0  0  0  0
  160.9590  207.2300  152.7960 C   0  0  2  0  0  3  0  0  0  0  0  0
  160.7120  206.0410  153.7090 C   0  0  0  0  0  1  0  0  0  0  0  0
  161.7330  205.1730  151.2600 O   0  0  0  0  0  0  0  0  0  0  0  0
  163.1490  207.1700  151.2350 O   0  0  0  0  0  0  0  0  0  0  0  0
  161.7310  206.6760  151.2880 S   0  0  0  0  0  0  0  0  0  0  0  0
  160.5120  206.1710  148.9260 C   0  0  0  0  0  2  0  0  0  0  0  0
  161.2820  206.5080  147.6770 C   0  0  1  0  0  3  0  0  0  0  0  0
  161.6820  208.2400  149.1330 N   0  0  0  0  0  2  0  0  0  0  0  0
  160.8420  207.2970  149.8670 C   0  0  2  0  0  3  0  0  0  0  0  0
  162.2440  207.5370  148.0520 N   0  0  0  0  0  2  0  0  0  0  0  0
  161.4200  204.8570  145.8770 N   0  0  0  0  0  2  0  0  0  0  0  0
  161.9990  205.2700  147.1400 C   0  0  2  0  0  3  0  0  0  0  0  0
  161.3550  203.4540  145.9230 N   0  0  0  0  0  2  0  0  0  0  0  0
  161.7900  204.1060  148.0640 C   0  0  0  0  0  2  0  0  0  0  0  0
  161.1340  203.0900  147.2660 N   0  0  0  0  0  2  0  0  0  0  0  0
  2  1  2  0  0  0  0
  2 36  1  0  0  0  0
  3  7  2  0  0  0  0
  4 16  1  6  0  0  0
  4  5  1  0  0  0  0
  4  7  1  0  0  0  0
  5  6  1  0  0  0  0
  6  8  1  1  0  0  0
  6  1  1  0  0  0  0
  7  2  1  0  0  0  0
  8  9  1  0  0  0  0
  9 13  1  0  0  0  0
 10 12  1  0  0  0  0
 12  9  1  0  0  0  0
 12 11  2  0  0  0  0
 13 15  1  0  0  0  0
 13 14  1  0  0  0  0
 17 16  1  0  0  0  0
 18 17  1  0  0  0  0
 19 18  1  0  0  0  0
 20 22  1  0  0  0  0
 20 21  1  0  0  0  0
 21 19  1  1  0  0  0
 22 23  1  6  0  0  0
 22 21  1  0  0  0  0
 23 25  1  1  0  0  0
 25 29  1  0  0  0  0
 26 24  1  0  0  0  0
 27 26  1  0  0  0  0
 28 30  1  6  0  0  0
 28 25  1  0  0  0  0
 28 27  1  0  0  0  0
 29 24  1  0  0  0  0
 31 34  1  6  0  0  0
 31 35  1  0  0  0  0
 31 32  1  0  0  0  0
 32 23  1  1  0  0  0
 33 31  1  0  0  0  0
 33 32  1  0  0  0  0
 37 36  1  0  0  0  0
 38 37  1  0  0  0  0
 38 39  1  1  0  0  0
 40 42  2  0  0  0  0
 41 42  2  0  0  0  0
 42 38  1  0  0  0  0
 43 46  1  0  0  0  0
 44 47  1  0  0  0  0
 44 43  1  1  0  0  0
 45 46  1  0  0  0  0
 46 42  1  1  0  0  0
 47 45  1  0  0  0  0
 48 50  1  0  0  0  0
 48 49  1  0  0  0  0
 49 44  1  0  0  0  0
 49 51  1  1  0  0  0
 50 52  1  0  0  0  0
 52 51  1  0  0  0  0
M  END
>  <MODEL>
7

>  <REMARK>
 VINA RESULT:      -3.5      2.642      7.783
  Name = 
  17 active torsions:
  status: ('A' for Active; 'I' for Inactive)
    1  A    between atoms: N_2  and  C_45
    2  A    between atoms: C_3  and  C_10
    3  A    between atoms: C_3  and  C_51
    4  A    between atoms: C_7  and  N_18
    5  A    between atoms: C_9  and  C_12
    6  A    between atoms: C_9  and  C_39
    7  A    between atoms: C_11  and  C_32
    8  A    between atoms: C_12  and  C_17
    9  A    between atoms: N_18  and  N_48
   10  A    between atoms: C_25  and  C_45
   11  A    between atoms: C_26  and  S_30
   12  A    between atoms: C_26  and  C_51
   13  A    between atoms: S_30  and  C_36
   14  A    between atoms: C_35  and  C_52
   15  A    between atoms: C_39  and  C_52
   16  A    between atoms: C_40  and  C_45
   17  A    between atoms: C_42  and  N_48
                            x       y       z     vdW  Elec       q    Type
                         _______ _______ _______ _____ _____    ______ ____

>  <TORSDO>
F 17

$$$$
=
 OpenBabel11042422203D

 52 57  0  0  1  0  0  0  0  0999 V2000
  161.2550  208.8430  151.1580 C   0  0  0  0  0  3  0  0  0  0  0  0
  161.6550  209.7170  150.2240 C   0  0  0  0  0  0  0  0  0  0  0  0
  161.8550  211.9820  149.5480 O   0  0  0  0  0  0  0  0  0  0  0  0
  160.6610  211.6720  151.6080 C   0  0  1  0  0  3  0  0  0  0  0  0
  159.8110  210.5640  152.2370 C   0  0  0  0  0  2  0  0  0  0  0  0
  160.6280  209.2870  152.4460 C   0  0  2  0  0  3  0  0  0  0  0  0
  161.3970  211.1650  150.3910 C   0  0  0  0  0  0  0  0  0  0  0  0
  161.6670  209.5090  153.4440 N   0  0  0  0  0  2  0  0  0  0  0  0
  161.2570  208.8950  154.6440 N   0  0  0  0  0  0  0  0  0  0  0  0
  162.9950  210.1660  155.8750 N   0  0  0  0  0  1  0  0  0  0  0  0
  161.5970  208.6640  156.9530 O   0  0  0  0  0  0  0  0  0  0  0  0
  161.9300  209.2190  155.8720 C   0  0  0  0  0  0  0  0  0  0  0  0
  160.1610  207.9200  154.6560 C   0  0  0  0  0  3  0  0  0  0  0  0
  160.7080  206.5080  154.7780 C   0  0  0  0  0  1  0  0  0  0  0  0
  159.1690  208.1900  155.7770 C   0  0  0  0  0  1  0  0  0  0  0  0
  159.7710  212.8590  151.2610 C   0  0  0  0  0  2  0  0  0  0  0  0
  158.3820  212.7050  151.8690 C   0  0  0  0  0  2  0  0  0  0  0  0
  157.7470  214.0550  152.1800 C   0  0  0  0  0  2  0  0  0  0  0  0
  156.2380  213.9400  152.3250 C   0  0  0  0  0  2  0  0  0  0  0  0
  155.1560  213.9290  154.5020 N   0  0  0  0  0  2  0  0  0  0  0  0
  155.8930  213.1010  153.5400 C   0  0  2  0  0  3  0  0  0  0  0  0
  156.5810  213.6320  154.7140 C   0  0  2  0  0  3  0  0  0  0  0  0
  156.8040  212.5400  155.7860 C   0  0  1  0  0  3  0  0  0  0  0  0
  159.0870  214.4510  155.3740 C   0  0  0  0  0  2  0  0  0  0  0  0
  157.7640  212.9550  156.8460 N   0  0  0  0  0  0  0  0  0  0  0  0
  160.2690  213.7320  155.6280 O   0  0  0  0  0  0  0  0  0  0  0  0
  159.9160  212.3720  155.7360 C   0  0  0  0  0  2  0  0  0  0  0  0
  159.0220  212.1850  156.9650 C   0  0  2  0  0  3  0  0  0  0  0  0
  158.1310  214.3530  156.5790 C   0  0  0  0  0  2  0  0  0  0  0  0
  158.7960  210.8370  157.2600 O   0  0  0  0  0  1  0  0  0  0  0  0
  155.2050  210.5910  155.9930 C   0  0  1  0  0  0  0  0  0  0  0  0
  155.4410  212.0290  156.2800 C   0  0  1  0  0  3  0  0  0  0  0  0
  155.6320  211.0240  157.2570 O   0  0  0  0  0  0  0  0  0  0  0  0
  153.7980  210.0350  156.0340 C   0  0  0  0  0  1  0  0  0  0  0  0
  156.1980  209.8430  155.3550 O   0  0  0  0  0  1  0  0  0  0  0  0
  162.3280  209.1940  148.9990 C   0  0  0  0  0  2  0  0  0  0  0  0
  161.5020  208.0870  148.3650 C   0  0  0  0  0  2  0  0  0  0  0  0
  162.2230  206.7530  148.4950 C   0  0  2  0  0  3  0  0  0  0  0  0
  162.7620  206.3070  147.1460 C   0  0  0  0  0  1  0  0  0  0  0  0
  160.9990  204.3940  148.1380 O   0  0  0  0  0  0  0  0  0  0  0  0
  159.7590  206.1130  149.3650 O   0  0  0  0  0  0  0  0  0  0  0  0
  161.1170  205.5110  149.1370 S   0  0  0  0  0  0  0  0  0  0  0  0
  162.2550  203.4650  150.4920 C   0  0  0  0  0  2  0  0  0  0  0  0
  161.3440  202.6230  151.3450 C   0  0  1  0  0  3  0  0  0  0  0  0
  160.6510  204.7900  151.6580 N   0  0  0  0  0  2  0  0  0  0  0  0
  161.7360  204.8630  150.6840 C   0  0  2  0  0  3  0  0  0  0  0  0
  160.1960  203.4590  151.6710 N   0  0  0  0  0  2  0  0  0  0  0  0
  161.9570  200.9210  149.6980 N   0  0  0  0  0  2  0  0  0  0  0  0
  160.9020  201.3740  150.5830 C   0  0  2  0  0  3  0  0  0  0  0  0
  161.3210  200.5400  148.5040 N   0  0  0  0  0  2  0  0  0  0  0  0
  159.7470  201.6970  149.6810 C   0  0  0  0  0  2  0  0  0  0  0  0
  160.2010  201.3790  148.3420 N   0  0  0  0  0  2  0  0  0  0  0  0
  1  6  1  0  0  0  0
  2  7  1  0  0  0  0
  2  1  2  0  0  0  0
  3  7  2  0  0  0  0
  4 16  1  6  0  0  0
  4  5  1  0  0  0  0
  5  6  1  0  0  0  0
  6  8  1  1  0  0  0
  7  4  1  0  0  0  0
  8  9  1  0  0  0  0
  9 13  1  0  0  0  0
  9 12  1  0  0  0  0
 12 10  1  0  0  0  0
 12 11  2  0  0  0  0
 13 14  1  0  0  0  0
 13 15  1  0  0  0  0
 16 17  1  0  0  0  0
 17 18  1  0  0  0  0
 18 19  1  0  0  0  0
 20 22  1  0  0  0  0
 21 19  1  6  0  0  0
 21 20  1  0  0  0  0
 21 22  1  0  0  0  0
 22 23  1  1  0  0  0
 23 25  1  1  0  0  0
 24 26  1  0  0  0  0
 24 29  1  0  0  0  0
 25 28  1  0  0  0  0
 26 27  1  0  0  0  0
 27 28  1  0  0  0  0
 28 30  1  6  0  0  0
 29 25  1  0  0  0  0
 31 34  1  6  0  0  0
 31 32  1  0  0  0  0
 31 33  1  0  0  0  0
 32 23  1  6  0  0  0
 32 33  1  0  0  0  0
 35 31  1  0  0  0  0
 36  2  1  0  0  0  0
 37 38  1  0  0  0  0
 37 36  1  0  0  0  0
 38 39  1  6  0  0  0
 38 42  1  0  0  0  0
 40 42  2  0  0  0  0
 42 41  2  0  0  0  0
 43 46  1  0  0  0  0
 44 43  1  6  0  0  0
 44 47  1  0  0  0  0
 45 47  1  0  0  0  0
 46 42  1  6  0  0  0
 46 45  1  0  0  0  0
 48 49  1  0  0  0  0
 49 51  1  6  0  0  0
 49 44  1  0  0  0  0
 50 48  1  0  0  0  0
 52 50  1  0  0  0  0
 52 51  1  0  0  0  0
M  END
>  <MODEL>
8

>  <REMARK>
 VINA RESULT:      -3.3      3.884      9.951
  Name = 
  17 active torsions:
  status: ('A' for Active; 'I' for Inactive)
    1  A    between atoms: N_2  and  C_45
    2  A    between atoms: C_3  and  C_10
    3  A    between atoms: C_3  and  C_51
    4  A    between atoms: C_7  and  N_18
    5  A    between atoms: C_9  and  C_12
    6  A    between atoms: C_9  and  C_39
    7  A    between atoms: C_11  and  C_32
    8  A    between atoms: C_12  and  C_17
    9  A    between atoms: N_18  and  N_48
   10  A    between atoms: C_25  and  C_45
   11  A    between atoms: C_26  and  S_30
   12  A    between atoms: C_26  and  C_51
   13  A    between atoms: S_30  and  C_36
   14  A    between atoms: C_35  and  C_52
   15  A    between atoms: C_39  and  C_52
   16  A    between atoms: C_40  and  C_45
   17  A    between atoms: C_42  and  N_48
                            x       y       z     vdW  Elec       q    Type
                         _______ _______ _______ _____ _____    ______ ____

>  <TORSDO>
F 17

$$$$
