=
 OpenBabel11052412113D

 56 58  0  0  1  0  0  0  0  0999 V2000
  160.6460  204.6630  146.2910 C   0  0  0  0  0  2  0  0  0  0  0  0
  163.4190  205.0510  146.6150 C   0  0  0  0  0  2  0  0  0  0  0  0
  161.4640  204.6330  144.9950 C   0  0  2  0  0  3  0  0  0  0  0  0
  163.4700  203.3310  144.9740 F   0  0  0  0  0  0  0  0  0  0  0  0
  161.1010  205.7300  147.3150 C   0  0  2  0  0  3  0  0  0  0  0  0
  162.9870  204.6020  145.2160 C   0  0  2  0  0  3  0  0  0  0  0  0
  162.5390  206.2080  147.0830 C   0  0  0  0  0  2  0  0  0  0  0  0
  161.1000  205.7330  144.0460 C   0  0  0  0  0  0  0  0  0  0  0  0
  160.4170  206.7150  144.4310 O   0  0  0  0  0  0  0  0  0  0  0  0
  161.6660  205.7250  142.7370 N   0  0  0  0  0  0  0  0  0  0  0  0
  161.6030  206.8480  141.8990 N   0  0  0  0  0  0  0  0  0  0  0  0
  162.1660  206.7980  140.5900 C   0  0  0  0  0  0  0  0  0  0  0  0
  162.8180  205.7810  140.2270 O   0  0  0  0  0  0  0  0  0  0  0  0
  162.0190  207.9850  139.6840 C   0  0  1  0  0  3  0  0  0  0  0  0
  160.7490  207.9450  138.9820 N   0  0  0  0  0  1  0  0  0  0  0  0
  162.2210  209.3330  140.3850 C   0  0  0  0  0  2  0  0  0  0  0  0
  161.2510  210.3990  139.8780 C   0  0  0  0  0  2  0  0  0  0  0  0
  161.6290  211.8260  140.2910 C   0  0  1  0  0  0  0  0  0  0  0  0
  161.8750  211.8660  141.7380 N   0  0  0  0  0  2  0  0  0  0  0  0
  162.3600  212.9730  142.5100 C   0  0  0  0  0  0  0  0  0  0  0  0
  162.9290  212.7550  143.6040 O   0  0  0  0  0  1  0  0  0  0  0  0
  162.2600  214.2780  142.0450 O   0  0  0  0  0  0  0  0  0  0  0  0
  163.0690  212.3950  139.3380 S   0  0  0  0  0  3  0  0  0  0  0  0
  162.6280  213.6740  138.6380 O   0  0  0  0  0  0  0  0  0  0  0  0
  160.4150  212.6980  139.9130 C   0  0  0  0  0  2  0  0  0  0  0  0
  159.0310  212.2780  140.4250 C   0  0  1  0  0  3  0  0  0  0  0  0
  158.7080  212.9630  141.5970 O   0  0  0  0  0  1  0  0  0  0  0  0
  158.0080  212.4960  139.4130 N   0  0  0  0  0  2  0  0  0  0  0  0
  155.8450  211.4110  139.1780 C   0  0  0  0  0  1  0  0  0  0  0  0
  157.3460  211.2220  139.1760 C   0  0  0  0  0  2  0  0  0  0  0  0
  161.0000  205.2100  148.6760 N   0  0  0  0  0  2  0  0  0  0  0  0
  160.3590  206.1750  149.4770 N   0  0  0  0  0  2  0  0  0  0  0  0
  161.3430  206.6940  150.4270 C   0  0  1  0  0  3  0  0  0  0  0  0
  162.0360  209.8660  148.4590 C   0  0  0  0  0  3  0  0  0  0  0  0
  161.9860  210.8460  149.4620 C   0  0  0  0  0  0  0  0  0  0  0  0
  161.8530  210.4380  150.8010 C   0  0  0  0  0  3  0  0  0  0  0  0
  161.6880  209.0830  151.1160 C   0  0  0  0  0  3  0  0  0  0  0  0
  161.6820  208.1190  150.1030 C   0  0  0  0  0  0  0  0  0  0  0  0
  161.8700  208.5150  148.7710 C   0  0  0  0  0  3  0  0  0  0  0  0
  160.7330  212.7960  148.5150 C   0  0  0  0  0  2  0  0  0  0  0  0
  162.0610  212.3100  149.0880 C   0  0  2  0  0  3  0  0  0  0  0  0
  162.4820  213.3390  147.0330 C   0  0  0  0  0  2  0  0  0  0  0  0
  163.0890  212.5110  148.0680 N   0  0  0  0  0  2  0  0  0  0  0  0
  161.0060  213.0720  147.0630 C   0  0  0  0  0  2  0  0  0  0  0  0
  160.8150  206.6230  151.7880 N   0  0  0  0  0  2  0  0  0  0  0  0
  161.8460  206.0730  152.6490 C   0  0  0  0  0  2  0  0  0  0  0  0
  161.7260  206.6510  153.9800 N   0  0  0  0  0  2  0  0  0  0  0  0
  160.4400  207.2060  154.0740 N   0  0  0  0  0  2  0  0  0  0  0  0
  160.4770  208.2050  155.1380 C   0  0  2  0  0  3  0  0  0  0  0  0
  161.0910  209.5220  154.6550 C   0  0  2  0  0  3  0  0  0  0  0  0
  162.2190  209.9670  155.5720 C   0  0  0  0  0  1  0  0  0  0  0  0
  160.4820  211.9460  154.1450 N   0  0  0  0  0  1  0  0  0  0  0  0
  160.0800  210.6170  154.4690 C   0  0  0  0  0  0  0  0  0  0  0  0
  158.8550  210.3700  154.6400 O   0  0  0  0  0  0  0  0  0  0  0  0
  161.1910  207.6640  156.3680 C   0  0  0  0  0  2  0  0  0  0  0  0
  160.2660  207.0270  157.1930 O   0  0  0  0  0  1  0  0  0  0  0  0
  1  5  1  0  0  0  0
  2  7  1  0  0  0  0
  3  8  1  6  0  0  0
  3  6  1  0  0  0  0
  3  1  1  0  0  0  0
  5 31  1  1  0  0  0
  6  4  1  1  0  0  0
  6  2  1  0  0  0  0
  7  5  1  0  0  0  0
  8  9  2  0  0  0  0
 10  8  1  0  0  0  0
 11 10  2  0  0  0  0
 12 11  1  0  0  0  0
 13 12  2  0  0  0  0
 14 15  1  1  0  0  0
 14 16  1  0  0  0  0
 14 12  1  0  0  0  0
 17 16  1  0  0  0  0
 18 17  1  6  0  0  0
 18 19  1  0  0  0  0
 19 20  1  0  0  0  0
 20 21  1  0  0  0  0
 22 20  2  0  0  0  0
 23 18  1  0  0  0  0
 24 23  2  0  0  0  0
 25 18  1  0  0  0  0
 25 26  1  0  0  0  0
 26 27  1  1  0  0  0
 28 26  1  0  0  0  0
 30 29  1  0  0  0  0
 30 28  1  0  0  0  0
 31 32  1  0  0  0  0
 33 32  1  6  0  0  0
 33 45  1  0  0  0  0
 34 39  2  0  0  0  0
 34 35  1  0  0  0  0
 35 36  2  0  0  0  0
 36 37  1  0  0  0  0
 38 33  1  0  0  0  0
 38 37  2  0  0  0  0
 39 38  1  0  0  0  0
 40 41  1  0  0  0  0
 41 35  1  6  0  0  0
 42 44  1  0  0  0  0
 42 43  1  0  0  0  0
 43 41  1  0  0  0  0
 44 40  1  0  0  0  0
 45 46  1  0  0  0  0
 46 47  1  0  0  0  0
 47 48  1  0  0  0  0
 48 49  1  0  0  0  0
 49 55  1  1  0  0  0
 50 49  1  0  0  0  0
 50 51  1  1  0  0  0
 52 53  1  0  0  0  0
 53 54  2  0  0  0  0
 53 50  1  0  0  0  0
 55 56  1  0  0  0  0
M  END
>  <MODEL>
1

>  <REMARK>
 VINA RESULT:      -5.0      0.000      0.000
  Name = 
  25 active torsions:
  status: ('A' for Active; 'I' for Inactive)
    1  A    between atoms: C_1  and  C_17
    2  A    between atoms: C_3  and  C_38
    3  A    between atoms: C_3  and  C_52
    4  A    between atoms: N_4  and  C_16
    5  A    between atoms: N_4  and  N_26
    6  A    between atoms: C_5  and  C_17
    7  A    between atoms: C_5  and  C_36
    8  A    between atoms: C_8  and  C_20
    9  A    between atoms: N_12  and  C_52
   10  A    between atoms: C_14  and  N_24
   11  A    between atoms: C_15  and  C_38
   12  A    between atoms: C_15  and  C_44
   13  A    between atoms: C_16  and  N_48
   14  A    between atoms: C_17  and  N_26
   15  A    between atoms: C_18  and  C_22
   16  A    between atoms: N_24  and  C_43
   17  A    between atoms: N_27  and  N_28
   18  A    between atoms: C_29  and  N_39
   19  A    between atoms: N_30  and  C_34
   20  A    between atoms: N_30  and  N_39
   21  A    between atoms: S_31  and  C_52
   22  A    between atoms: C_34  and  C_45
   23  A    between atoms: C_34  and  N_48
   24  A    between atoms: C_37  and  C_43
   25  A    between atoms: C_37  and  C_52
                            x       y       z     vdW  Elec       q    Type
                         _______ _______ _______ _____ _____    ______ ____

>  <TORSDO>
F 25

$$$$
=
 OpenBabel11052412113D

 56 58  0  0  1  0  0  0  0  0999 V2000
  162.6020  211.7580  147.1040 C   0  0  0  0  0  2  0  0  0  0  0  0
  161.7790  213.7680  148.8990 C   0  0  0  0  0  2  0  0  0  0  0  0
  163.1130  213.1670  146.7830 C   0  0  2  0  0  3  0  0  0  0  0  0
  164.0330  214.4530  148.5770 F   0  0  0  0  0  0  0  0  0  0  0  0
  161.1430  211.7030  147.6130 C   0  0  2  0  0  3  0  0  0  0  0  0
  162.8580  214.1960  147.9000 C   0  0  2  0  0  3  0  0  0  0  0  0
  160.6510  213.0450  148.1670 C   0  0  0  0  0  2  0  0  0  0  0  0
  162.6110  213.6890  145.4720 C   0  0  0  0  0  0  0  0  0  0  0  0
  163.4120  214.0880  144.5900 O   0  0  0  0  0  0  0  0  0  0  0  0
  161.2190  213.5890  145.1810 N   0  0  0  0  0  2  0  0  0  0  0  0
  160.7190  213.7900  143.8860 N   0  0  0  0  0  2  0  0  0  0  0  0
  159.6890  212.9470  143.3760 C   0  0  0  0  0  0  0  0  0  0  0  0
  159.3050  211.9510  144.0470 O   0  0  0  0  0  0  0  0  0  0  0  0
  159.1170  213.2290  142.0180 C   0  0  1  0  0  3  0  0  0  0  0  0
  159.6750  214.4520  141.4680 N   0  0  0  0  0  1  0  0  0  0  0  0
  159.2520  212.0670  141.0300 C   0  0  0  0  0  2  0  0  0  0  0  0
  158.3500  212.2390  139.8080 C   0  0  0  0  0  2  0  0  0  0  0  0
  158.3500  211.0290  138.8650 C   0  0  1  0  0  0  0  0  0  0  0  0
  157.1300  210.2420  139.0830 N   0  0  0  0  0  2  0  0  0  0  0  0
  155.7760  210.6470  138.8430 C   0  0  0  0  0  0  0  0  0  0  0  0
  154.8460  210.0810  139.4630 O   0  0  0  0  0  1  0  0  0  0  0  0
  155.4760  211.6910  137.9760 O   0  0  0  0  0  0  0  0  0  0  0  0
  158.5080  211.5780  137.1400 S   0  0  0  0  0  3  0  0  0  0  0  0
  158.7750  213.0780  137.2000 O   0  0  0  0  0  0  0  0  0  0  0  0
  159.6060  210.2180  139.2400 C   0  0  0  0  0  2  0  0  0  0  0  0
  160.8000  210.2390  138.2760 C   0  0  1  0  0  3  0  0  0  0  0  0
  161.9730  210.5830  138.9490 O   0  0  0  0  0  1  0  0  0  0  0  0
  160.9570  208.9580  137.6050 N   0  0  0  0  0  2  0  0  0  0  0  0
  162.1870  206.9070  138.0440 C   0  0  0  0  0  1  0  0  0  0  0  0
  161.2730  207.9660  138.6220 C   0  0  0  0  0  2  0  0  0  0  0  0
  161.0020  210.6920  148.6580 N   0  0  0  0  0  2  0  0  0  0  0  0
  162.2860  210.3390  149.1150 N   0  0  0  0  0  2  0  0  0  0  0  0
  162.2380  208.9450  149.5570 C   0  0  1  0  0  3  0  0  0  0  0  0
  161.4940  209.9880  153.1320 C   0  0  0  0  0  3  0  0  0  0  0  0
  160.9870  208.7990  153.6800 C   0  0  0  0  0  0  0  0  0  0  0  0
  161.0160  207.6290  152.9020 C   0  0  0  0  0  3  0  0  0  0  0  0
  161.4650  207.6700  151.5750 C   0  0  0  0  0  3  0  0  0  0  0  0
  161.9150  208.8720  151.0200 C   0  0  0  0  0  0  0  0  0  0  0  0
  161.9400  210.0310  151.8090 C   0  0  0  0  0  3  0  0  0  0  0  0
  161.4060  209.3840  156.0780 C   0  0  0  0  0  2  0  0  0  0  0  0
  160.4110  208.8030  155.0790 C   0  0  2  0  0  3  0  0  0  0  0  0
  160.6590  207.2810  156.8350 C   0  0  0  0  0  2  0  0  0  0  0  0
  160.1060  207.4350  155.4950 N   0  0  0  0  0  2  0  0  0  0  0  0
  161.8190  208.2270  156.9440 C   0  0  0  0  0  2  0  0  0  0  0  0
  161.2230  208.2130  148.8030 N   0  0  0  0  0  2  0  0  0  0  0  0
  161.2380  206.8300  149.2430 C   0  0  0  0  0  2  0  0  0  0  0  0
  160.7620  205.9730  148.1660 N   0  0  0  0  0  2  0  0  0  0  0  0
  161.8050  205.0870  147.8520 N   0  0  0  0  0  2  0  0  0  0  0  0
  161.2500  204.0610  146.9730 C   0  0  2  0  0  3  0  0  0  0  0  0
  161.3240  202.6720  147.6100 C   0  0  2  0  0  3  0  0  0  0  0  0
  160.7360  201.6160  146.6890 C   0  0  0  0  0  1  0  0  0  0  0  0
  161.3210  203.2200  150.1010 N   0  0  0  0  0  1  0  0  0  0  0  0
  160.6990  202.6080  148.9750 C   0  0  0  0  0  0  0  0  0  0  0  0
  159.6240  201.9680  149.1380 O   0  0  0  0  0  0  0  0  0  0  0  0
  161.9180  204.0950  145.6070 C   0  0  0  0  0  2  0  0  0  0  0  0
  161.6130  205.2990  144.9760 O   0  0  0  0  0  1  0  0  0  0  0  0
  1  5  1  0  0  0  0
  3  8  1  6  0  0  0
  3  1  1  0  0  0  0
  3  6  1  0  0  0  0
  5  7  1  0  0  0  0
  5 31  1  1  0  0  0
  6  4  1  1  0  0  0
  6  2  1  0  0  0  0
  7  2  1  0  0  0  0
  9  8  2  0  0  0  0
 10  8  1  0  0  0  0
 11 10  1  0  0  0  0
 12 11  1  0  0  0  0
 12 13  2  0  0  0  0
 14 15  1  6  0  0  0
 14 12  1  0  0  0  0
 16 14  1  0  0  0  0
 17 16  1  0  0  0  0
 18 19  1  0  0  0  0
 18 25  1  1  0  0  0
 18 17  1  0  0  0  0
 20 19  1  0  0  0  0
 20 21  1  0  0  0  0
 22 20  2  0  0  0  0
 23 24  2  0  0  0  0
 23 18  1  0  0  0  0
 26 27  1  1  0  0  0
 26 25  1  0  0  0  0
 28 26  1  0  0  0  0
 28 30  1  0  0  0  0
 29 30  1  0  0  0  0
 31 32  1  0  0  0  0
 32 33  1  0  0  0  0
 33 45  1  6  0  0  0
 33 38  1  0  0  0  0
 34 35  1  0  0  0  0
 36 35  2  0  0  0  0
 37 36  1  0  0  0  0
 38 37  2  0  0  0  0
 38 39  1  0  0  0  0
 39 34  2  0  0  0  0
 40 44  1  0  0  0  0
 41 35  1  6  0  0  0
 41 43  1  0  0  0  0
 41 40  1  0  0  0  0
 42 44  1  0  0  0  0
 43 42  1  0  0  0  0
 45 46  1  0  0  0  0
 47 46  1  0  0  0  0
 48 47  1  0  0  0  0
 49 55  1  6  0  0  0
 49 50  1  0  0  0  0
 49 48  1  0  0  0  0
 50 51  1  6  0  0  0
 50 53  1  0  0  0  0
 53 54  2  0  0  0  0
 53 52  1  0  0  0  0
 56 55  1  0  0  0  0
M  END
>  <MODEL>
2

>  <REMARK>
 VINA RESULT:      -4.4      3.315      7.443
  Name = 
  25 active torsions:
  status: ('A' for Active; 'I' for Inactive)
    1  A    between atoms: C_1  and  C_17
    2  A    between atoms: C_3  and  C_38
    3  A    between atoms: C_3  and  C_52
    4  A    between atoms: N_4  and  C_16
    5  A    between atoms: N_4  and  N_26
    6  A    between atoms: C_5  and  C_17
    7  A    between atoms: C_5  and  C_36
    8  A    between atoms: C_8  and  C_20
    9  A    between atoms: N_12  and  C_52
   10  A    between atoms: C_14  and  N_24
   11  A    between atoms: C_15  and  C_38
   12  A    between atoms: C_15  and  C_44
   13  A    between atoms: C_16  and  N_48
   14  A    between atoms: C_17  and  N_26
   15  A    between atoms: C_18  and  C_22
   16  A    between atoms: N_24  and  C_43
   17  A    between atoms: N_27  and  N_28
   18  A    between atoms: C_29  and  N_39
   19  A    between atoms: N_30  and  C_34
   20  A    between atoms: N_30  and  N_39
   21  A    between atoms: S_31  and  C_52
   22  A    between atoms: C_34  and  C_45
   23  A    between atoms: C_34  and  N_48
   24  A    between atoms: C_37  and  C_43
   25  A    between atoms: C_37  and  C_52
                            x       y       z     vdW  Elec       q    Type
                         _______ _______ _______ _____ _____    ______ ____

>  <TORSDO>
F 25

$$$$
=
 OpenBabel11052412113D

 56 58  0  0  1  0  0  0  0  0999 V2000
  160.7820  204.5350  146.2610 C   0  0  0  0  0  2  0  0  0  0  0  0
  163.5150  205.1140  146.6290 C   0  0  0  0  0  2  0  0  0  0  0  0
  161.6180  204.5760  144.9770 C   0  0  2  0  0  3  0  0  0  0  0  0
  163.7110  203.4180  144.9730 F   0  0  0  0  0  0  0  0  0  0  0  0
  161.1460  205.6210  147.3000 C   0  0  2  0  0  3  0  0  0  0  0  0
  163.1370  204.6490  145.2200 C   0  0  2  0  0  3  0  0  0  0  0  0
  162.5500  206.2010  147.0940 C   0  0  0  0  0  2  0  0  0  0  0  0
  161.1910  205.6570  144.0320 C   0  0  0  0  0  0  0  0  0  0  0  0
  160.4830  206.6160  144.4300 O   0  0  0  0  0  0  0  0  0  0  0  0
  161.7220  205.6620  142.7090 N   0  0  0  0  0  0  0  0  0  0  0  0
  161.5990  206.7770  141.8670 N   0  0  0  0  0  0  0  0  0  0  0  0
  162.1620  206.7530  140.5580 C   0  0  0  0  0  0  0  0  0  0  0  0
  162.8670  205.7720  140.1970 O   0  0  0  0  0  0  0  0  0  0  0  0
  161.9500  207.9280  139.6490 C   0  0  1  0  0  3  0  0  0  0  0  0
  160.8340  207.6910  138.7500 N   0  0  0  0  0  1  0  0  0  0  0  0
  161.7940  209.2640  140.3820 C   0  0  0  0  0  2  0  0  0  0  0  0
  162.2820  210.4450  139.5430 C   0  0  0  0  0  2  0  0  0  0  0  0
  161.8790  211.8120  140.1070 C   0  0  1  0  0  0  0  0  0  0  0  0
  163.0070  212.7430  139.9830 N   0  0  0  0  0  2  0  0  0  0  0  0
  163.8080  212.9920  138.8200 C   0  0  0  0  0  0  0  0  0  0  0  0
  164.9660  213.4480  138.9590 O   0  0  0  0  0  1  0  0  0  0  0  0
  163.3470  212.6890  137.5450 O   0  0  0  0  0  0  0  0  0  0  0  0
  160.3920  212.4250  139.2600 S   0  0  0  0  0  3  0  0  0  0  0  0
  159.9740  211.3220  138.2950 O   0  0  0  0  0  0  0  0  0  0  0  0
  161.5310  211.5580  141.5870 C   0  0  0  0  0  2  0  0  0  0  0  0
  162.0510  212.5500  142.6370 C   0  0  1  0  0  3  0  0  0  0  0  0
  161.9740  213.8590  142.1620 O   0  0  0  0  0  1  0  0  0  0  0  0
  161.3190  212.4210  143.8880 N   0  0  0  0  0  2  0  0  0  0  0  0
  159.0310  212.3910  144.7090 C   0  0  0  0  0  1  0  0  0  0  0  0
  159.9530  212.0400  143.5620 C   0  0  0  0  0  2  0  0  0  0  0  0
  161.0630  205.0820  148.6560 N   0  0  0  0  0  2  0  0  0  0  0  0
  160.3600  205.9990  149.4590 N   0  0  0  0  0  2  0  0  0  0  0  0
  161.2810  206.4980  150.4810 C   0  0  1  0  0  3  0  0  0  0  0  0
  162.0270  209.6800  148.5500 C   0  0  0  0  0  3  0  0  0  0  0  0
  162.1540  210.6230  149.5820 C   0  0  0  0  0  0  0  0  0  0  0  0
  162.1200  210.1750  150.9140 C   0  0  0  0  0  3  0  0  0  0  0  0
  161.8800  208.8260  151.2040 C   0  0  0  0  0  3  0  0  0  0  0  0
  161.6980  207.9040  150.1680 C   0  0  0  0  0  0  0  0  0  0  0  0
  161.7860  208.3350  148.8360 C   0  0  0  0  0  3  0  0  0  0  0  0
  160.9470  212.7740  149.1520 C   0  0  0  0  0  2  0  0  0  0  0  0
  162.3070  212.0900  149.2460 C   0  0  2  0  0  3  0  0  0  0  0  0
  162.1890  213.2060  147.1960 C   0  0  0  0  0  2  0  0  0  0  0  0
  162.9730  212.2370  147.9520 N   0  0  0  0  0  2  0  0  0  0  0  0
  160.7780  213.1190  147.6980 C   0  0  0  0  0  2  0  0  0  0  0  0
  160.6400  206.4680  151.7940 N   0  0  0  0  0  2  0  0  0  0  0  0
  161.5690  207.0130  152.7670 C   0  0  0  0  0  2  0  0  0  0  0  0
  161.2000  206.5550  154.1000 N   0  0  0  0  0  2  0  0  0  0  0  0
  161.3900  207.6360  154.9750 N   0  0  0  0  0  2  0  0  0  0  0  0
  160.0680  208.0690  155.4190 C   0  0  2  0  0  3  0  0  0  0  0  0
  159.9050  209.5880  155.3080 C   0  0  2  0  0  3  0  0  0  0  0  0
  160.6000  210.1230  154.0670 C   0  0  0  0  0  1  0  0  0  0  0  0
  159.4620  211.1820  157.2500 N   0  0  0  0  0  1  0  0  0  0  0  0
  160.3520  210.3260  156.5380 C   0  0  0  0  0  0  0  0  0  0  0  0
  161.5470  210.2180  156.9300 O   0  0  0  0  0  0  0  0  0  0  0  0
  159.7740  207.5690  156.8250 C   0  0  0  0  0  2  0  0  0  0  0  0
  160.7440  206.6380  157.1930 O   0  0  0  0  0  1  0  0  0  0  0  0
  1  5  1  0  0  0  0
  2  7  1  0  0  0  0
  3  8  1  1  0  0  0
  3  6  1  0  0  0  0
  3  1  1  0  0  0  0
  5 31  1  1  0  0  0
  6  4  1  1  0  0  0
  6  2  1  0  0  0  0
  7  5  1  0  0  0  0
  8  9  2  0  0  0  0
 10  8  1  0  0  0  0
 11 10  2  0  0  0  0
 12 11  1  0  0  0  0
 13 12  2  0  0  0  0
 14 15  1  1  0  0  0
 14 16  1  0  0  0  0
 14 12  1  0  0  0  0
 17 16  1  0  0  0  0
 18 17  1  6  0  0  0
 18 25  1  0  0  0  0
 19 18  1  0  0  0  0
 20 21  1  0  0  0  0
 20 19  1  0  0  0  0
 22 20  2  0  0  0  0
 23 18  1  0  0  0  0
 24 23  2  0  0  0  0
 25 26  1  0  0  0  0
 26 27  1  6  0  0  0
 26 28  1  0  0  0  0
 30 28  1  0  0  0  0
 30 29  1  0  0  0  0
 31 32  1  0  0  0  0
 33 32  1  6  0  0  0
 33 45  1  0  0  0  0
 34 39  2  0  0  0  0
 34 35  1  0  0  0  0
 35 36  2  0  0  0  0
 36 37  1  0  0  0  0
 38 33  1  0  0  0  0
 38 37  2  0  0  0  0
 39 38  1  0  0  0  0
 40 41  1  0  0  0  0
 41 35  1  6  0  0  0
 42 44  1  0  0  0  0
 42 43  1  0  0  0  0
 43 41  1  0  0  0  0
 44 40  1  0  0  0  0
 45 46  1  0  0  0  0
 46 47  1  0  0  0  0
 47 48  1  0  0  0  0
 48 49  1  0  0  0  0
 49 55  1  1  0  0  0
 50 51  1  6  0  0  0
 50 49  1  0  0  0  0
 50 53  1  0  0  0  0
 53 54  2  0  0  0  0
 53 52  1  0  0  0  0
 55 56  1  0  0  0  0
M  END
>  <MODEL>
3

>  <REMARK>
 VINA RESULT:      -4.0      1.717      2.181
  Name = 
  25 active torsions:
  status: ('A' for Active; 'I' for Inactive)
    1  A    between atoms: C_1  and  C_17
    2  A    between atoms: C_3  and  C_38
    3  A    between atoms: C_3  and  C_52
    4  A    between atoms: N_4  and  C_16
    5  A    between atoms: N_4  and  N_26
    6  A    between atoms: C_5  and  C_17
    7  A    between atoms: C_5  and  C_36
    8  A    between atoms: C_8  and  C_20
    9  A    between atoms: N_12  and  C_52
   10  A    between atoms: C_14  and  N_24
   11  A    between atoms: C_15  and  C_38
   12  A    between atoms: C_15  and  C_44
   13  A    between atoms: C_16  and  N_48
   14  A    between atoms: C_17  and  N_26
   15  A    between atoms: C_18  and  C_22
   16  A    between atoms: N_24  and  C_43
   17  A    between atoms: N_27  and  N_28
   18  A    between atoms: C_29  and  N_39
   19  A    between atoms: N_30  and  C_34
   20  A    between atoms: N_30  and  N_39
   21  A    between atoms: S_31  and  C_52
   22  A    between atoms: C_34  and  C_45
   23  A    between atoms: C_34  and  N_48
   24  A    between atoms: C_37  and  C_43
   25  A    between atoms: C_37  and  C_52
                            x       y       z     vdW  Elec       q    Type
                         _______ _______ _______ _____ _____    ______ ____

>  <TORSDO>
F 25

$$$$
=
 OpenBabel11052412113D

 56 58  0  0  1  0  0  0  0  0999 V2000
  162.1550  211.8560  147.4930 C   0  0  0  0  0  2  0  0  0  0  0  0
  162.0280  214.3850  148.7300 C   0  0  0  0  0  2  0  0  0  0  0  0
  162.8490  212.9900  146.7300 C   0  0  2  0  0  3  0  0  0  0  0  0
  164.2790  214.4530  147.9680 F   0  0  0  0  0  0  0  0  0  0  0  0
  160.8200  212.2540  148.1640 C   0  0  2  0  0  3  0  0  0  0  0  0
  162.9780  214.2980  147.5320 C   0  0  2  0  0  3  0  0  0  0  0  0
  160.6800  213.7660  148.3680 C   0  0  0  0  0  2  0  0  0  0  0  0
  162.2310  213.2610  145.3930 C   0  0  0  0  0  0  0  0  0  0  0  0
  162.6710  214.1790  144.6560 O   0  0  0  0  0  0  0  0  0  0  0  0
  161.2350  212.3660  144.9020 N   0  0  0  0  0  2  0  0  0  0  0  0
  160.8190  212.3870  143.5620 N   0  0  0  0  0  2  0  0  0  0  0  0
  159.6230  213.0680  143.1930 C   0  0  0  0  0  0  0  0  0  0  0  0
  158.8800  213.5580  144.0870 O   0  0  0  0  0  0  0  0  0  0  0  0
  159.2400  213.1410  141.7450 C   0  0  1  0  0  3  0  0  0  0  0  0
  159.5390  214.4530  141.1970 N   0  0  0  0  0  1  0  0  0  0  0  0
  159.8480  212.0310  140.8820 C   0  0  0  0  0  2  0  0  0  0  0  0
  158.8290  211.4240  139.9180 C   0  0  0  0  0  2  0  0  0  0  0  0
  159.1460  211.6820  138.4400 C   0  0  1  0  0  0  0  0  0  0  0  0
  158.1050  211.0720  137.6040 N   0  0  0  0  0  2  0  0  0  0  0  0
  156.8320  210.5650  138.0290 C   0  0  0  0  0  0  0  0  0  0  0  0
  156.2510  209.7030  137.3300 O   0  0  0  0  0  0  0  0  0  0  0  0
  156.2550  210.9700  139.2260 O   0  0  0  0  0  1  0  0  0  0  0  0
  159.3090  213.4660  138.1360 S   0  0  0  0  0  3  0  0  0  0  0  0
  157.9210  214.0560  138.3510 O   0  0  0  0  0  0  0  0  0  0  0  0
  160.5140  211.0140  138.1920 C   0  0  0  0  0  2  0  0  0  0  0  0
  161.7830  211.8230  138.4900 C   0  0  1  0  0  3  0  0  0  0  0  0
  162.9260  211.0740  138.2100 O   0  0  0  0  0  1  0  0  0  0  0  0
  161.7990  213.0710  137.7420 N   0  0  0  0  0  2  0  0  0  0  0  0
  163.9840  213.7500  138.5620 C   0  0  0  0  0  1  0  0  0  0  0  0
  163.1770  213.3330  137.3530 C   0  0  0  0  0  2  0  0  0  0  0  0
  160.6810  211.5970  149.4610 N   0  0  0  0  0  2  0  0  0  0  0  0
  161.9660  211.2950  149.9490 N   0  0  0  0  0  2  0  0  0  0  0  0
  162.0000  209.8680  150.2720 C   0  0  1  0  0  3  0  0  0  0  0  0
  161.0850  208.1990  153.5570 C   0  0  0  0  0  3  0  0  0  0  0  0
  160.5120  209.2610  154.2730 C   0  0  0  0  0  0  0  0  0  0  0  0
  160.3150  210.4900  153.6170 C   0  0  0  0  0  3  0  0  0  0  0  0
  160.7590  210.6710  152.3010 C   0  0  0  0  0  3  0  0  0  0  0  0
  161.3810  209.6220  151.6160 C   0  0  0  0  0  0  0  0  0  0  0  0
  161.5310  208.3780  152.2460 C   0  0  0  0  0  3  0  0  0  0  0  0
  161.3000  209.4340  156.6430 C   0  0  0  0  0  2  0  0  0  0  0  0
  160.1360  209.0730  155.7260 C   0  0  2  0  0  3  0  0  0  0  0  0
  160.5070  207.2810  157.1780 C   0  0  0  0  0  2  0  0  0  0  0  0
  159.7880  207.6750  155.9730 N   0  0  0  0  0  2  0  0  0  0  0  0
  161.7390  208.1330  157.2550 C   0  0  0  0  0  2  0  0  0  0  0  0
  161.2720  209.1060  149.2600 N   0  0  0  0  0  2  0  0  0  0  0  0
  161.2950  207.7050  149.6420 C   0  0  0  0  0  2  0  0  0  0  0  0
  160.5900  206.9180  148.6390 N   0  0  0  0  0  2  0  0  0  0  0  0
  161.4980  206.6660  147.5990 N   0  0  0  0  0  2  0  0  0  0  0  0
  161.0460  205.4590  146.9130 C   0  0  2  0  0  3  0  0  0  0  0  0
  161.9840  204.2780  147.1710 C   0  0  2  0  0  3  0  0  0  0  0  0
  163.3640  204.5390  146.5890 C   0  0  0  0  0  1  0  0  0  0  0  0
  161.0880  201.9300  147.6080 N   0  0  0  0  0  1  0  0  0  0  0  0
  161.4340  202.9650  146.6910 C   0  0  0  0  0  0  0  0  0  0  0  0
  161.3120  202.7560  145.4530 O   0  0  0  0  0  0  0  0  0  0  0  0
  160.8540  205.7170  145.4260 C   0  0  0  0  0  2  0  0  0  0  0  0
  159.4930  205.8260  145.1500 O   0  0  0  0  0  1  0  0  0  0  0  0
  1  5  1  0  0  0  0
  3  8  1  6  0  0  0
  3  1  1  0  0  0  0
  3  6  1  0  0  0  0
  5  7  1  0  0  0  0
  5 31  1  1  0  0  0
  6  4  1  1  0  0  0
  6  2  1  0  0  0  0
  7  2  1  0  0  0  0
  9  8  2  0  0  0  0
 10  8  1  0  0  0  0
 11 10  1  0  0  0  0
 12 11  1  0  0  0  0
 12 13  2  0  0  0  0
 14 15  1  6  0  0  0
 14 12  1  0  0  0  0
 16 14  1  0  0  0  0
 17 16  1  0  0  0  0
 18 25  1  6  0  0  0
 18 17  1  0  0  0  0
 19 20  1  0  0  0  0
 19 18  1  0  0  0  0
 20 22  1  0  0  0  0
 21 20  2  0  0  0  0
 23 24  2  0  0  0  0
 23 18  1  0  0  0  0
 25 26  1  0  0  0  0
 26 27  1  6  0  0  0
 28 26  1  0  0  0  0
 30 28  1  0  0  0  0
 30 29  1  0  0  0  0
 31 32  1  0  0  0  0
 32 33  1  0  0  0  0
 33 45  1  6  0  0  0
 33 38  1  0  0  0  0
 34 35  1  0  0  0  0
 36 35  2  0  0  0  0
 37 36  1  0  0  0  0
 38 39  1  0  0  0  0
 38 37  2  0  0  0  0
 39 34  2  0  0  0  0
 40 44  1  0  0  0  0
 41 35  1  6  0  0  0
 41 43  1  0  0  0  0
 41 40  1  0  0  0  0
 42 44  1  0  0  0  0
 43 42  1  0  0  0  0
 45 46  1  0  0  0  0
 47 46  1  0  0  0  0
 48 47  1  0  0  0  0
 49 55  1  6  0  0  0
 49 50  1  0  0  0  0
 49 48  1  0  0  0  0
 50 51  1  6  0  0  0
 53 50  1  0  0  0  0
 53 52  1  0  0  0  0
 54 53  2  0  0  0  0
 56 55  1  0  0  0  0
M  END
>  <MODEL>
4

>  <REMARK>
 VINA RESULT:      -2.8      3.575      7.573
  Name = 
  25 active torsions:
  status: ('A' for Active; 'I' for Inactive)
    1  A    between atoms: C_1  and  C_17
    2  A    between atoms: C_3  and  C_38
    3  A    between atoms: C_3  and  C_52
    4  A    between atoms: N_4  and  C_16
    5  A    between atoms: N_4  and  N_26
    6  A    between atoms: C_5  and  C_17
    7  A    between atoms: C_5  and  C_36
    8  A    between atoms: C_8  and  C_20
    9  A    between atoms: N_12  and  C_52
   10  A    between atoms: C_14  and  N_24
   11  A    between atoms: C_15  and  C_38
   12  A    between atoms: C_15  and  C_44
   13  A    between atoms: C_16  and  N_48
   14  A    between atoms: C_17  and  N_26
   15  A    between atoms: C_18  and  C_22
   16  A    between atoms: N_24  and  C_43
   17  A    between atoms: N_27  and  N_28
   18  A    between atoms: C_29  and  N_39
   19  A    between atoms: N_30  and  C_34
   20  A    between atoms: N_30  and  N_39
   21  A    between atoms: S_31  and  C_52
   22  A    between atoms: C_34  and  C_45
   23  A    between atoms: C_34  and  N_48
   24  A    between atoms: C_37  and  C_43
   25  A    between atoms: C_37  and  C_52
                            x       y       z     vdW  Elec       q    Type
                         _______ _______ _______ _____ _____    ______ ____

>  <TORSDO>
F 25

$$$$
