=
 OpenBabel11042421063D

 36 38  0  0  1  0  0  0  0  0999 V2000
  161.4390  202.7220  148.0730 C   0  0  0  0  0  0  0  0  0  0  0  0
  162.3500  204.6270  145.1570 C   0  0  0  0  0  1  0  0  0  0  0  0
  161.2500  204.5420  146.1970 C   0  0  1  0  0  3  0  0  0  0  0  0
  160.7430  204.0320  148.4510 C   0  0  1  0  0  3  0  0  0  0  0  0
  161.9900  206.8190  148.3550 C   0  0  2  0  0  3  0  0  0  0  0  0
  161.2190  204.7930  149.6750 C   0  0  1  0  0  3  0  0  0  0  0  0
  161.3710  207.0580  146.9600 C   0  0  0  0  0  2  0  0  0  0  0  0
  161.5750  201.5130  148.1510 O   0  0  0  0  0  0  0  0  0  0  0  0
  161.0010  206.2910  149.4080 C   0  0  0  0  0  2  0  0  0  0  0  0
  161.8330  204.0930  147.5250 C   0  0  1  0  0  3  0  0  0  0  0  0
  160.5400  205.9080  146.3470 C   0  0  0  0  0  2  0  0  0  0  0  0
  162.6370  208.1040  148.8370 C   0  0  0  0  0  2  0  0  0  0  0  0
  161.7720  209.3010  148.4770 C   0  0  0  0  0  2  0  0  0  0  0  0
  162.2900  210.5560  149.1610 C   0  0  0  0  0  2  0  0  0  0  0  0
  161.8630  211.8100  148.4120 C   0  0  2  0  0  3  0  0  0  0  0  0
  160.9390  211.4650  147.4430 F   0  0  0  0  0  0  0  0  0  0  0  0
  163.0670  212.4660  147.7580 C   0  0  0  0  0  2  0  0  0  0  0  0
  162.6230  213.3130  146.5820 C   0  0  0  0  0  1  0  0  0  0  0  0
  160.4080  204.3860  150.8910 C   0  0  0  0  0  2  0  0  0  0  0  0
  161.3270  203.9780  152.0270 C   0  0  0  0  0  2  0  0  0  0  0  0
  161.1420  204.9250  153.1920 C   0  0  0  0  0  2  0  0  0  0  0  0
  161.7270  206.2760  152.8380 C   0  0  0  0  0  2  0  0  0  0  0  0
  160.8340  207.3710  153.3820 C   0  0  0  0  0  2  0  0  0  0  0  0
  160.7770  208.5120  152.3910 C   0  0  0  0  0  2  0  0  0  0  0  0
  162.0620  209.3150  152.4720 C   0  0  0  0  0  2  0  0  0  0  0  0
  161.8490  210.4970  153.2350 O   0  0  0  0  0  0  0  0  0  0  0  0
  158.4510  211.2630  155.6100 C   0  0  0  0  0  0  0  0  0  0  0  0
  160.6880  210.3600  155.3380 C   0  0  0  0  0  0  0  0  0  0  0  0
  159.5710  211.4520  153.4710 C   0  0  0  0  0  0  0  0  0  0  0  0
  160.6980  210.7730  153.9940 C   0  0  0  0  0  0  0  0  0  0  0  0
  157.3380  211.4990  156.4070 O   0  0  0  0  0  1  0  0  0  0  0  0
  159.5400  211.9130  152.1600 O   0  0  0  0  0  1  0  0  0  0  0  0
  159.5610  210.6060  156.1370 C   0  0  0  0  0  3  0  0  0  0  0  0
  158.4570  211.6860  154.2820 C   0  0  0  0  0  3  0  0  0  0  0  0
  161.8080  209.7000  155.8550 O   0  0  0  0  0  0  0  0  0  0  0  0
  162.8170  210.3640  156.6060 C   0  0  0  0  0  1  0  0  0  0  0  0
  1  8  2  0  0  0  0
  3  2  1  6  0  0  0
  3 11  1  0  0  0  0
  3 10  1  0  0  0  0
  4  1  1  1  0  0  0
  4  6  1  0  0  0  0
  5 12  1  1  0  0  0
  5  9  1  0  0  0  0
  6 19  1  1  0  0  0
  7  5  1  0  0  0  0
  9  6  1  0  0  0  0
 10  1  1  6  0  0  0
 10  4  1  0  0  0  0
 11  7  1  0  0  0  0
 13 12  1  0  0  0  0
 13 14  1  0  0  0  0
 15 16  1  6  0  0  0
 15 14  1  0  0  0  0
 17 15  1  0  0  0  0
 18 17  1  0  0  0  0
 19 20  1  0  0  0  0
 20 21  1  0  0  0  0
 22 21  1  0  0  0  0
 22 23  1  0  0  0  0
 24 25  1  0  0  0  0
 24 23  1  0  0  0  0
 25 26  1  0  0  0  0
 26 30  1  0  0  0  0
 27 33  1  0  0  0  0
 27 31  1  0  0  0  0
 28 35  1  0  0  0  0
 28 33  2  0  0  0  0
 29 30  2  0  0  0  0
 29 34  1  0  0  0  0
 30 28  1  0  0  0  0
 32 29  1  0  0  0  0
 34 27  2  0  0  0  0
 35 36  1  0  0  0  0
M  END
>  <MODEL>
1

>  <REMARK>
 VINA RESULT:      -7.4      0.000      0.000
  Name = 
  15 active torsions:
  status: ('A' for Active; 'I' for Inactive)
    1  A    between atoms: C_2  and  C_13
    2  A    between atoms: C_3  and  C_14
    3  A    between atoms: C_3  and  C_24
    4  A    between atoms: C_6  and  C_26
    5  A    between atoms: C_6  and  C_32
    6  A    between atoms: C_7  and  O_33
    7  A    between atoms: C_10  and  O_21
    8  A    between atoms: C_11  and  C_26
    9  A    between atoms: C_11  and  C_29
   10  A    between atoms: C_13  and  C_24
   11  A    between atoms: C_14  and  C_15
   12  A    between atoms: C_16  and  C_27
   13  A    between atoms: C_18  and  C_27
   14  A    between atoms: C_18  and  C_29
   15  A    between atoms: O_21  and  C_32
                            x       y       z     vdW  Elec       q    Type
                         _______ _______ _______ _____ _____    ______ ____

>  <TORSDO>
F 15

$$$$
=
 OpenBabel11042421063D

 36 38  0  0  1  0  0  0  0  0999 V2000
  161.1330  205.2190  145.1140 C   0  0  0  0  0  0  0  0  0  0  0  0
  160.0880  201.7940  145.4980 C   0  0  0  0  0  1  0  0  0  0  0  0
  161.2470  202.7070  145.8510 C   0  0  1  0  0  3  0  0  0  0  0  0
  161.8790  204.9150  146.4150 C   0  0  1  0  0  3  0  0  0  0  0  0
  160.6890  203.5930  148.8990 C   0  0  2  0  0  3  0  0  0  0  0  0
  161.4950  205.6670  147.6770 C   0  0  1  0  0  3  0  0  0  0  0  0
  161.2270  202.2210  148.4370 C   0  0  0  0  0  2  0  0  0  0  0  0
  160.9760  205.8540  144.0850 O   0  0  0  0  0  0  0  0  0  0  0  0
  161.7280  204.7270  148.8710 C   0  0  0  0  0  2  0  0  0  0  0  0
  160.7370  204.1160  146.0940 C   0  0  1  0  0  3  0  0  0  0  0  0
  161.9940  202.1750  147.0970 C   0  0  0  0  0  2  0  0  0  0  0  0
  160.1010  203.4520  150.2900 C   0  0  0  0  0  2  0  0  0  0  0  0
  161.2070  203.3110  151.3220 C   0  0  0  0  0  2  0  0  0  0  0  0
  160.9150  204.1780  152.5380 C   0  0  0  0  0  2  0  0  0  0  0  0
  161.3920  205.6070  152.3240 C   0  0  2  0  0  3  0  0  0  0  0  0
  162.7010  205.5850  151.8790 F   0  0  0  0  0  0  0  0  0  0  0  0
  161.3100  206.3860  153.6260 C   0  0  0  0  0  2  0  0  0  0  0  0
  160.9390  207.8290  153.3450 C   0  0  0  0  0  1  0  0  0  0  0  0
  162.3690  206.8960  147.8400 C   0  0  0  0  0  2  0  0  0  0  0  0
  161.5520  208.0610  148.3650 C   0  0  0  0  0  2  0  0  0  0  0  0
  162.0360  208.4360  149.7480 C   0  0  0  0  0  2  0  0  0  0  0  0
  161.9740  209.9390  149.9110 C   0  0  0  0  0  2  0  0  0  0  0  0
  162.3300  210.6040  148.5980 C   0  0  0  0  0  2  0  0  0  0  0  0
  161.7890  212.0170  148.5870 C   0  0  0  0  0  2  0  0  0  0  0  0
  162.6020  212.8610  147.6240 C   0  0  0  0  0  2  0  0  0  0  0  0
  161.7360  213.5230  146.7090 O   0  0  0  0  0  0  0  0  0  0  0  0
  160.5880  212.0610  142.9240 C   0  0  0  0  0  0  0  0  0  0  0  0
  160.0770  212.5870  145.2390 C   0  0  0  0  0  0  0  0  0  0  0  0
  162.2990  213.0200  144.3450 C   0  0  0  0  0  0  0  0  0  0  0  0
  161.3920  213.0460  145.4320 C   0  0  0  0  0  0  0  0  0  0  0  0
  160.1920  211.5680  141.6880 O   0  0  0  0  0  1  0  0  0  0  0  0
  163.6000  213.4930  144.4690 O   0  0  0  0  0  1  0  0  0  0  0  0
  159.6840  212.0940  143.9850 C   0  0  0  0  0  3  0  0  0  0  0  0
  161.8900  212.5250  143.1040 C   0  0  0  0  0  3  0  0  0  0  0  0
  159.1790  212.6240  146.3120 O   0  0  0  0  0  0  0  0  0  0  0  0
  157.7680  212.6080  146.1380 C   0  0  0  0  0  1  0  0  0  0  0  0
  3  2  1  1  0  0  0
  3 10  1  0  0  0  0
  3 11  1  0  0  0  0
  4  1  1  6  0  0  0
  4  6  1  0  0  0  0
  5 12  1  1  0  0  0
  6 19  1  1  0  0  0
  6  9  1  0  0  0  0
  7  5  1  0  0  0  0
  8  1  2  0  0  0  0
  9  5  1  0  0  0  0
 10  1  1  6  0  0  0
 10  4  1  0  0  0  0
 11  7  1  0  0  0  0
 12 13  1  0  0  0  0
 13 14  1  0  0  0  0
 15 16  1  1  0  0  0
 15 14  1  0  0  0  0
 15 17  1  0  0  0  0
 18 17  1  0  0  0  0
 19 20  1  0  0  0  0
 20 21  1  0  0  0  0
 21 22  1  0  0  0  0
 23 22  1  0  0  0  0
 24 23  1  0  0  0  0
 25 24  1  0  0  0  0
 26 25  1  0  0  0  0
 27 34  2  0  0  0  0
 27 33  1  0  0  0  0
 28 30  1  0  0  0  0
 28 35  1  0  0  0  0
 29 32  1  0  0  0  0
 29 30  2  0  0  0  0
 30 26  1  0  0  0  0
 31 27  1  0  0  0  0
 33 28  2  0  0  0  0
 34 29  1  0  0  0  0
 36 35  1  0  0  0  0
M  END
>  <MODEL>
2

>  <REMARK>
 VINA RESULT:      -7.4      3.838      7.571
  Name = 
  15 active torsions:
  status: ('A' for Active; 'I' for Inactive)
    1  A    between atoms: C_2  and  C_13
    2  A    between atoms: C_3  and  C_14
    3  A    between atoms: C_3  and  C_24
    4  A    between atoms: C_6  and  C_26
    5  A    between atoms: C_6  and  C_32
    6  A    between atoms: C_7  and  O_33
    7  A    between atoms: C_10  and  O_21
    8  A    between atoms: C_11  and  C_26
    9  A    between atoms: C_11  and  C_29
   10  A    between atoms: C_13  and  C_24
   11  A    between atoms: C_14  and  C_15
   12  A    between atoms: C_16  and  C_27
   13  A    between atoms: C_18  and  C_27
   14  A    between atoms: C_18  and  C_29
   15  A    between atoms: O_21  and  C_32
                            x       y       z     vdW  Elec       q    Type
                         _______ _______ _______ _____ _____    ______ ____

>  <TORSDO>
F 15

$$$$
=
 OpenBabel11042421063D

 36 38  0  0  1  0  0  0  0  0999 V2000
  161.3310  206.3690  153.3150 C   0  0  0  0  0  0  0  0  0  0  0  0
  159.6890  207.2620  156.3930 C   0  0  0  0  0  1  0  0  0  0  0  0
  160.8890  207.6570  155.5540 C   0  0  1  0  0  3  0  0  0  0  0  0
  161.7480  207.8410  153.3570 C   0  0  1  0  0  3  0  0  0  0  0  0
  159.8940  210.2160  153.8650 C   0  0  2  0  0  3  0  0  0  0  0  0
  161.2500  208.7790  152.2720 C   0  0  1  0  0  3  0  0  0  0  0  0
  160.2820  210.2110  155.3590 C   0  0  0  0  0  2  0  0  0  0  0  0
  161.4850  205.2150  152.9500 O   0  0  0  0  0  0  0  0  0  0  0  0
  161.0880  210.1740  152.8960 C   0  0  0  0  0  2  0  0  0  0  0  0
  160.5760  207.4530  154.0820 C   0  0  1  0  0  3  0  0  0  0  0  0
  161.2790  209.1290  155.8290 C   0  0  0  0  0  2  0  0  0  0  0  0
  159.0290  211.4290  153.5810 C   0  0  0  0  0  2  0  0  0  0  0  0
  159.4090  212.0510  152.2470 C   0  0  0  0  0  2  0  0  0  0  0  0
  159.1900  213.5560  152.2800 C   0  0  0  0  0  2  0  0  0  0  0  0
  157.9210  213.9460  151.5350 C   0  0  2  0  0  3  0  0  0  0  0  0
  156.8250  213.6460  152.3220 F   0  0  0  0  0  0  0  0  0  0  0  0
  157.8300  213.1870  150.2220 C   0  0  0  0  0  2  0  0  0  0  0  0
  156.6080  213.6360  149.4460 C   0  0  0  0  0  1  0  0  0  0  0  0
  162.2640  208.8570  151.1450 C   0  0  0  0  0  2  0  0  0  0  0  0
  161.8970  209.9690  150.1810 C   0  0  0  0  0  2  0  0  0  0  0  0
  161.9760  209.4530  148.7600 C   0  0  0  0  0  2  0  0  0  0  0  0
  162.3350  207.9830  148.7790 C   0  0  0  0  0  2  0  0  0  0  0  0
  161.3010  207.2010  147.9960 C   0  0  0  0  0  2  0  0  0  0  0  0
  160.4320  206.4170  148.9540 C   0  0  0  0  0  2  0  0  0  0  0  0
  161.1520  205.1460  149.3650 C   0  0  0  0  0  2  0  0  0  0  0  0
  161.9060  204.6400  148.2700 O   0  0  0  0  0  0  0  0  0  0  0  0
  160.5250  201.6960  145.5850 C   0  0  0  0  0  0  0  0  0  0  0  0
  161.1430  202.4010  147.8250 C   0  0  0  0  0  0  0  0  0  0  0  0
  161.2660  203.9700  145.9680 C   0  0  0  0  0  0  0  0  0  0  0  0
  161.4460  203.6870  147.3430 C   0  0  0  0  0  0  0  0  0  0  0  0
  160.0750  200.7100  144.7170 O   0  0  0  0  0  1  0  0  0  0  0  0
  161.5170  205.2320  145.4430 O   0  0  0  0  0  1  0  0  0  0  0  0
  160.6860  201.4120  146.9400 C   0  0  0  0  0  3  0  0  0  0  0  0
  160.8120  202.9710  145.1020 C   0  0  0  0  0  3  0  0  0  0  0  0
  161.3100  202.1280  149.1870 O   0  0  0  0  0  0  0  0  0  0  0  0
  160.3190  201.4760  149.9710 C   0  0  0  0  0  1  0  0  0  0  0  0
  3 11  1  0  0  0  0
  3  2  1  1  0  0  0
  4  1  1  6  0  0  0
  4 10  1  0  0  0  0
  5 12  1  6  0  0  0
  5  7  1  0  0  0  0
  6 19  1  6  0  0  0
  6  9  1  0  0  0  0
  6  4  1  0  0  0  0
  7 11  1  0  0  0  0
  8  1  2  0  0  0  0
  9  5  1  0  0  0  0
 10  1  1  1  0  0  0
 10  3  1  0  0  0  0
 13 14  1  0  0  0  0
 13 12  1  0  0  0  0
 15 14  1  0  0  0  0
 15 16  1  1  0  0  0
 17 15  1  0  0  0  0
 18 17  1  0  0  0  0
 20 19  1  0  0  0  0
 21 22  1  0  0  0  0
 21 20  1  0  0  0  0
 23 22  1  0  0  0  0
 23 24  1  0  0  0  0
 24 25  1  0  0  0  0
 26 25  1  0  0  0  0
 27 33  1  0  0  0  0
 28 35  1  0  0  0  0
 29 30  2  0  0  0  0
 30 28  1  0  0  0  0
 30 26  1  0  0  0  0
 31 27  1  0  0  0  0
 32 29  1  0  0  0  0
 33 28  2  0  0  0  0
 34 27  2  0  0  0  0
 34 29  1  0  0  0  0
 35 36  1  0  0  0  0
M  END
>  <MODEL>
3

>  <REMARK>
 VINA RESULT:      -7.1      2.889      8.579
  Name = 
  15 active torsions:
  status: ('A' for Active; 'I' for Inactive)
    1  A    between atoms: C_2  and  C_13
    2  A    between atoms: C_3  and  C_14
    3  A    between atoms: C_3  and  C_24
    4  A    between atoms: C_6  and  C_26
    5  A    between atoms: C_6  and  C_32
    6  A    between atoms: C_7  and  O_33
    7  A    between atoms: C_10  and  O_21
    8  A    between atoms: C_11  and  C_26
    9  A    between atoms: C_11  and  C_29
   10  A    between atoms: C_13  and  C_24
   11  A    between atoms: C_14  and  C_15
   12  A    between atoms: C_16  and  C_27
   13  A    between atoms: C_18  and  C_27
   14  A    between atoms: C_18  and  C_29
   15  A    between atoms: O_21  and  C_32
                            x       y       z     vdW  Elec       q    Type
                         _______ _______ _______ _____ _____    ______ ____

>  <TORSDO>
F 15

$$$$
=
 OpenBabel11042421063D

 36 38  0  0  1  0  0  0  0  0999 V2000
  161.0510  204.5200  144.8230 C   0  0  0  0  0  0  0  0  0  0  0  0
  159.4780  201.2870  145.0190 C   0  0  0  0  0  1  0  0  0  0  0  0
  160.7900  201.9690  145.3590 C   0  0  1  0  0  3  0  0  0  0  0  0
  161.8080  203.9920  146.0430 C   0  0  1  0  0  3  0  0  0  0  0  0
  160.5540  202.6700  148.4960 C   0  0  2  0  0  3  0  0  0  0  0  0
  161.6220  204.6850  147.3820 C   0  0  1  0  0  3  0  0  0  0  0  0
  160.8320  201.2740  147.8970 C   0  0  0  0  0  2  0  0  0  0  0  0
  160.9440  205.2580  143.8570 O   0  0  0  0  0  0  0  0  0  0  0  0
  161.7630  203.6210  148.4830 C   0  0  0  0  0  2  0  0  0  0  0  0
  160.5330  203.4160  145.7420 C   0  0  1  0  0  3  0  0  0  0  0  0
  161.5060  201.2200  146.5080 C   0  0  0  0  0  2  0  0  0  0  0  0
  160.0280  202.5070  149.9100 C   0  0  0  0  0  2  0  0  0  0  0  0
  161.1780  202.4770  150.9040 C   0  0  0  0  0  2  0  0  0  0  0  0
  160.7810  203.1720  152.1970 C   0  0  0  0  0  2  0  0  0  0  0  0
  161.1070  204.6580  152.1480 C   0  0  2  0  0  3  0  0  0  0  0  0
  162.3630  204.8270  151.5960 F   0  0  0  0  0  0  0  0  0  0  0  0
  161.0840  205.2460  153.5500 C   0  0  0  0  0  2  0  0  0  0  0  0
  161.5780  206.6780  153.5200 C   0  0  0  0  0  1  0  0  0  0  0  0
  162.6950  205.7400  147.5760 C   0  0  0  0  0  2  0  0  0  0  0  0
  162.0640  207.0940  147.8390 C   0  0  0  0  0  2  0  0  0  0  0  0
  160.8850  206.9290  148.7740 C   0  0  0  0  0  2  0  0  0  0  0  0
  161.1990  207.5930  150.0970 C   0  0  0  0  0  2  0  0  0  0  0  0
  162.0530  208.8200  149.8560 C   0  0  0  0  0  2  0  0  0  0  0  0
  162.1960  209.5940  151.1480 C   0  0  0  0  0  2  0  0  0  0  0  0
  160.8880  209.5440  151.9140 C   0  0  0  0  0  2  0  0  0  0  0  0
  160.7910  210.6660  152.7840 O   0  0  0  0  0  0  0  0  0  0  0  0
  157.6460  211.3740  155.5020 C   0  0  0  0  0  0  0  0  0  0  0  0
  158.6510  211.6340  153.3070 C   0  0  0  0  0  0  0  0  0  0  0  0
  159.7950  210.3570  155.0350 C   0  0  0  0  0  0  0  0  0  0  0  0
  159.7630  210.8780  153.7190 C   0  0  0  0  0  0  0  0  0  0  0  0
  156.6030  211.6240  156.3840 O   0  0  0  0  0  1  0  0  0  0  0  0
  160.8510  209.5730  155.4840 O   0  0  0  0  0  1  0  0  0  0  0  0
  157.6000  211.8800  154.2040 C   0  0  0  0  0  3  0  0  0  0  0  0
  158.7390  210.6130  155.9140 C   0  0  0  0  0  3  0  0  0  0  0  0
  158.6170  212.1390  152.0020 O   0  0  0  0  0  0  0  0  0  0  0  0
  159.2290  213.3690  151.6340 C   0  0  0  0  0  1  0  0  0  0  0  0
  3  2  1  1  0  0  0
  3 10  1  0  0  0  0
  3 11  1  0  0  0  0
  4  1  1  6  0  0  0
  4  6  1  0  0  0  0
  5 12  1  1  0  0  0
  6 19  1  1  0  0  0
  6  9  1  0  0  0  0
  7  5  1  0  0  0  0
  8  1  2  0  0  0  0
  9  5  1  0  0  0  0
 10  1  1  6  0  0  0
 10  4  1  0  0  0  0
 11  7  1  0  0  0  0
 12 13  1  0  0  0  0
 13 14  1  0  0  0  0
 15 16  1  1  0  0  0
 15 14  1  0  0  0  0
 15 17  1  0  0  0  0
 18 17  1  0  0  0  0
 19 20  1  0  0  0  0
 20 21  1  0  0  0  0
 21 22  1  0  0  0  0
 23 22  1  0  0  0  0
 23 24  1  0  0  0  0
 24 25  1  0  0  0  0
 25 26  1  0  0  0  0
 26 30  1  0  0  0  0
 27 34  1  0  0  0  0
 27 31  1  0  0  0  0
 28 30  2  0  0  0  0
 28 33  1  0  0  0  0
 29 32  1  0  0  0  0
 29 34  2  0  0  0  0
 30 29  1  0  0  0  0
 33 27  2  0  0  0  0
 35 28  1  0  0  0  0
 36 35  1  0  0  0  0
M  END
>  <MODEL>
4

>  <REMARK>
 VINA RESULT:      -7.1      2.394      4.928
  Name = 
  15 active torsions:
  status: ('A' for Active; 'I' for Inactive)
    1  A    between atoms: C_2  and  C_13
    2  A    between atoms: C_3  and  C_14
    3  A    between atoms: C_3  and  C_24
    4  A    between atoms: C_6  and  C_26
    5  A    between atoms: C_6  and  C_32
    6  A    between atoms: C_7  and  O_33
    7  A    between atoms: C_10  and  O_21
    8  A    between atoms: C_11  and  C_26
    9  A    between atoms: C_11  and  C_29
   10  A    between atoms: C_13  and  C_24
   11  A    between atoms: C_14  and  C_15
   12  A    between atoms: C_16  and  C_27
   13  A    between atoms: C_18  and  C_27
   14  A    between atoms: C_18  and  C_29
   15  A    between atoms: O_21  and  C_32
                            x       y       z     vdW  Elec       q    Type
                         _______ _______ _______ _____ _____    ______ ____

>  <TORSDO>
F 15

$$$$
=
 OpenBabel11042421063D

 36 38  0  0  1  0  0  0  0  0999 V2000
  161.6480  208.6240  148.6500 C   0  0  0  0  0  0  0  0  0  0  0  0
  160.9710  206.3170  145.9700 C   0  0  0  0  0  1  0  0  0  0  0  0
  161.9460  206.5240  147.1130 C   0  0  1  0  0  3  0  0  0  0  0  0
  162.2190  207.3650  149.3070 C   0  0  1  0  0  3  0  0  0  0  0  0
  160.8320  204.6490  149.4860 C   0  0  2  0  0  3  0  0  0  0  0  0
  161.5610  206.8270  150.5650 C   0  0  1  0  0  3  0  0  0  0  0  0
  161.5920  204.1680  148.2310 C   0  0  0  0  0  2  0  0  0  0  0  0
  161.5740  209.8350  148.5250 O   0  0  0  0  0  0  0  0  0  0  0  0
  161.7210  205.2990  150.5600 C   0  0  0  0  0  2  0  0  0  0  0  0
  161.2410  207.2000  148.2750 C   0  0  1  0  0  3  0  0  0  0  0  0
  162.5530  205.1710  147.5560 C   0  0  0  0  0  2  0  0  0  0  0  0
  160.0600  203.4840  150.0760 C   0  0  0  0  0  2  0  0  0  0  0  0
  160.7440  202.1690  149.7370 C   0  0  0  0  0  2  0  0  0  0  0  0
  159.8940  201.3610  148.7680 C   0  0  0  0  0  2  0  0  0  0  0  0
  160.7480  200.7350  147.6750 C   0  0  2  0  0  3  0  0  0  0  0  0
  161.9740  200.3800  148.2060 F   0  0  0  0  0  0  0  0  0  0  0  0
  160.9510  201.7230  146.5380 C   0  0  0  0  0  2  0  0  0  0  0  0
  160.1190  201.3120  145.3390 C   0  0  0  0  0  1  0  0  0  0  0  0
  162.2490  207.3910  151.7950 C   0  0  0  0  0  2  0  0  0  0  0  0
  161.2230  207.9250  152.7760 C   0  0  0  0  0  2  0  0  0  0  0  0
  160.7910  209.3120  152.3510 C   0  0  0  0  0  2  0  0  0  0  0  0
  161.2890  210.3230  153.3610 C   0  0  0  0  0  2  0  0  0  0  0  0
  160.3660  211.5230  153.3710 C   0  0  0  0  0  2  0  0  0  0  0  0
  160.1290  211.9870  151.9510 C   0  0  0  0  0  2  0  0  0  0  0  0
  159.4000  213.3170  151.9680 C   0  0  0  0  0  2  0  0  0  0  0  0
  159.6290  214.0120  150.7480 O   0  0  0  0  0  0  0  0  0  0  0  0
  158.3600  212.7770  146.9210 C   0  0  0  0  0  0  0  0  0  0  0  0
  160.1250  213.2730  148.5130 C   0  0  0  0  0  0  0  0  0  0  0  0
  157.7900  213.4980  149.1620 C   0  0  0  0  0  0  0  0  0  0  0  0
  159.1650  213.6030  149.4850 C   0  0  0  0  0  0  0  0  0  0  0  0
  157.9630  212.3750  145.6530 O   0  0  0  0  0  1  0  0  0  0  0  0
  156.7980  213.7780  150.0950 O   0  0  0  0  0  1  0  0  0  0  0  0
  159.7150  212.8640  147.2340 C   0  0  0  0  0  3  0  0  0  0  0  0
  157.4010  213.0910  147.8840 C   0  0  0  0  0  3  0  0  0  0  0  0
  161.4830  213.3660  148.8380 O   0  0  0  0  0  0  0  0  0  0  0  0
  162.5170  213.2850  147.8650 C   0  0  0  0  0  1  0  0  0  0  0  0
  3  2  1  6  0  0  0
  3 11  1  0  0  0  0
  3 10  1  0  0  0  0
  4  1  1  1  0  0  0
  4  6  1  0  0  0  0
  5 12  1  1  0  0  0
  5  9  1  0  0  0  0
  6 19  1  1  0  0  0
  7  5  1  0  0  0  0
  8  1  2  0  0  0  0
  9  6  1  0  0  0  0
 10  1  1  6  0  0  0
 10  4  1  0  0  0  0
 11  7  1  0  0  0  0
 13 12  1  0  0  0  0
 14 13  1  0  0  0  0
 15 16  1  1  0  0  0
 15 14  1  0  0  0  0
 17 15  1  0  0  0  0
 18 17  1  0  0  0  0
 19 20  1  0  0  0  0
 21 20  1  0  0  0  0
 21 22  1  0  0  0  0
 22 23  1  0  0  0  0
 24 25  1  0  0  0  0
 24 23  1  0  0  0  0
 26 25  1  0  0  0  0
 27 33  2  0  0  0  0
 27 34  1  0  0  0  0
 28 35  1  0  0  0  0
 28 30  2  0  0  0  0
 29 30  1  0  0  0  0
 29 32  1  0  0  0  0
 30 26  1  0  0  0  0
 31 27  1  0  0  0  0
 33 28  1  0  0  0  0
 34 29  2  0  0  0  0
 36 35  1  0  0  0  0
M  END
>  <MODEL>
5

>  <REMARK>
 VINA RESULT:      -7.0      3.348      6.684
  Name = 
  15 active torsions:
  status: ('A' for Active; 'I' for Inactive)
    1  A    between atoms: C_2  and  C_13
    2  A    between atoms: C_3  and  C_14
    3  A    between atoms: C_3  and  C_24
    4  A    between atoms: C_6  and  C_26
    5  A    between atoms: C_6  and  C_32
    6  A    between atoms: C_7  and  O_33
    7  A    between atoms: C_10  and  O_21
    8  A    between atoms: C_11  and  C_26
    9  A    between atoms: C_11  and  C_29
   10  A    between atoms: C_13  and  C_24
   11  A    between atoms: C_14  and  C_15
   12  A    between atoms: C_16  and  C_27
   13  A    between atoms: C_18  and  C_27
   14  A    between atoms: C_18  and  C_29
   15  A    between atoms: O_21  and  C_32
                            x       y       z     vdW  Elec       q    Type
                         _______ _______ _______ _____ _____    ______ ____

>  <TORSDO>
F 15

$$$$
=
 OpenBabel11042421063D

 36 38  0  0  1  0  0  0  0  0999 V2000
  161.4690  202.5760  148.0300 C   0  0  0  0  0  0  0  0  0  0  0  0
  162.3550  204.7670  145.3140 C   0  0  0  0  0  1  0  0  0  0  0  0
  161.2410  204.5470  146.3190 C   0  0  1  0  0  3  0  0  0  0  0  0
  160.7140  203.8180  148.5070 C   0  0  1  0  0  3  0  0  0  0  0  0
  161.8490  206.6490  148.6850 C   0  0  2  0  0  3  0  0  0  0  0  0
  161.1370  204.4850  149.8040 C   0  0  1  0  0  3  0  0  0  0  0  0
  161.2470  206.9870  147.3040 C   0  0  0  0  0  2  0  0  0  0  0  0
  161.6520  201.3700  148.0030 O   0  0  0  0  0  0  0  0  0  0  0  0
  160.8640  205.9910  149.6660 C   0  0  0  0  0  2  0  0  0  0  0  0
  161.8170  204.0040  147.6150 C   0  0  1  0  0  3  0  0  0  0  0  0
  160.4740  205.8660  146.5740 C   0  0  0  0  0  2  0  0  0  0  0  0
  162.4350  207.9090  149.2930 C   0  0  0  0  0  2  0  0  0  0  0  0
  161.9790  209.1340  148.5170 C   0  0  0  0  0  2  0  0  0  0  0  0
  162.1640  210.3920  149.3520 C   0  0  0  0  0  2  0  0  0  0  0  0
  162.1370  211.6410  148.4830 C   0  0  2  0  0  3  0  0  0  0  0  0
  163.4250  212.1250  148.3470 F   0  0  0  0  0  0  0  0  0  0  0  0
  161.2570  212.7040  149.1200 C   0  0  0  0  0  2  0  0  0  0  0  0
  161.4030  214.0150  148.3720 C   0  0  0  0  0  1  0  0  0  0  0  0
  160.3210  203.9400  150.9620 C   0  0  0  0  0  2  0  0  0  0  0  0
  160.2350  204.9640  152.0760 C   0  0  0  0  0  2  0  0  0  0  0  0
  161.5030  204.9230  152.9010 C   0  0  0  0  0  2  0  0  0  0  0  0
  161.8800  206.3300  153.3120 C   0  0  0  0  0  2  0  0  0  0  0  0
  160.6940  206.9960  153.9770 C   0  0  0  0  0  2  0  0  0  0  0  0
  161.1260  207.5850  155.3020 C   0  0  0  0  0  2  0  0  0  0  0  0
  160.0300  208.4880  155.8350 C   0  0  0  0  0  2  0  0  0  0  0  0
  160.3680  209.8510  155.6030 O   0  0  0  0  0  0  0  0  0  0  0  0
  158.8270  212.2040  152.4610 C   0  0  0  0  0  0  0  0  0  0  0  0
  158.6070  211.1910  154.6570 C   0  0  0  0  0  0  0  0  0  0  0  0
  160.6460  210.8820  153.3640 C   0  0  0  0  0  0  0  0  0  0  0  0
  159.8910  210.6310  154.5340 C   0  0  0  0  0  0  0  0  0  0  0  0
  158.2990  212.9750  151.4350 O   0  0  0  0  0  1  0  0  0  0  0  0
  161.9340  210.3840  153.2040 O   0  0  0  0  0  1  0  0  0  0  0  0
  158.0820  211.9720  153.6150 C   0  0  0  0  0  3  0  0  0  0  0  0
  160.1060  211.6620  152.3370 C   0  0  0  0  0  3  0  0  0  0  0  0
  157.8670  210.9500  155.8200 O   0  0  0  0  0  0  0  0  0  0  0  0
  157.2070  211.9810  156.5420 C   0  0  0  0  0  1  0  0  0  0  0  0
  3  2  1  6  0  0  0
  3 11  1  0  0  0  0
  3 10  1  0  0  0  0
  4  1  1  1  0  0  0
  4  6  1  0  0  0  0
  5 12  1  1  0  0  0
  5  9  1  0  0  0  0
  6 19  1  1  0  0  0
  7  5  1  0  0  0  0
  8  1  2  0  0  0  0
  9  6  1  0  0  0  0
 10  1  1  6  0  0  0
 10  4  1  0  0  0  0
 11  7  1  0  0  0  0
 13 12  1  0  0  0  0
 13 14  1  0  0  0  0
 15 16  1  1  0  0  0
 15 17  1  0  0  0  0
 15 14  1  0  0  0  0
 18 17  1  0  0  0  0
 19 20  1  0  0  0  0
 20 21  1  0  0  0  0
 21 22  1  0  0  0  0
 22 23  1  0  0  0  0
 23 24  1  0  0  0  0
 24 25  1  0  0  0  0
 26 25  1  0  0  0  0
 27 33  1  0  0  0  0
 28 35  1  0  0  0  0
 29 30  2  0  0  0  0
 30 28  1  0  0  0  0
 30 26  1  0  0  0  0
 31 27  1  0  0  0  0
 32 29  1  0  0  0  0
 33 28  2  0  0  0  0
 34 27  2  0  0  0  0
 34 29  1  0  0  0  0
 35 36  1  0  0  0  0
M  END
>  <MODEL>
6

>  <REMARK>
 VINA RESULT:      -7.0      1.230      2.238
  Name = 
  15 active torsions:
  status: ('A' for Active; 'I' for Inactive)
    1  A    between atoms: C_2  and  C_13
    2  A    between atoms: C_3  and  C_14
    3  A    between atoms: C_3  and  C_24
    4  A    between atoms: C_6  and  C_26
    5  A    between atoms: C_6  and  C_32
    6  A    between atoms: C_7  and  O_33
    7  A    between atoms: C_10  and  O_21
    8  A    between atoms: C_11  and  C_26
    9  A    between atoms: C_11  and  C_29
   10  A    between atoms: C_13  and  C_24
   11  A    between atoms: C_14  and  C_15
   12  A    between atoms: C_16  and  C_27
   13  A    between atoms: C_18  and  C_27
   14  A    between atoms: C_18  and  C_29
   15  A    between atoms: O_21  and  C_32
                            x       y       z     vdW  Elec       q    Type
                         _______ _______ _______ _____ _____    ______ ____

>  <TORSDO>
F 15

$$$$
=
 OpenBabel11042421063D

 36 38  0  0  1  0  0  0  0  0999 V2000
  161.5460  206.3090  153.2310 C   0  0  0  0  0  0  0  0  0  0  0  0
  161.6180  203.0880  151.6220 C   0  0  0  0  0  1  0  0  0  0  0  0
  160.8080  204.3700  151.6300 C   0  0  1  0  0  3  0  0  0  0  0  0
  160.8880  206.7170  151.9110 C   0  0  1  0  0  3  0  0  0  0  0  0
  161.9140  206.0500  149.1120 C   0  0  2  0  0  3  0  0  0  0  0  0
  161.6010  207.7080  151.0080 C   0  0  1  0  0  3  0  0  0  0  0  0
  160.9660  204.8330  149.0440 C   0  0  0  0  0  2  0  0  0  0  0  0
  161.7660  206.4670  154.4200 O   0  0  0  0  0  0  0  0  0  0  0  0
  161.2400  207.3590  149.5550 C   0  0  0  0  0  2  0  0  0  0  0  0
  161.7180  205.5510  151.9150 C   0  0  1  0  0  3  0  0  0  0  0  0
  160.0790  204.5560  150.2790 C   0  0  0  0  0  2  0  0  0  0  0  0
  162.5840  206.2320  147.7630 C   0  0  0  0  0  2  0  0  0  0  0  0
  161.5510  206.1910  146.6480 C   0  0  0  0  0  2  0  0  0  0  0  0
  162.1530  205.5870  145.3880 C   0  0  0  0  0  2  0  0  0  0  0  0
  161.3780  204.3560  144.9410 C   0  0  2  0  0  3  0  0  0  0  0  0
  160.1250  204.7450  144.5030 F   0  0  0  0  0  0  0  0  0  0  0  0
  161.2330  203.3790  146.0970 C   0  0  0  0  0  2  0  0  0  0  0  0
  160.6840  202.0590  145.5950 C   0  0  0  0  0  1  0  0  0  0  0  0
  161.1310  209.1190  151.3080 C   0  0  0  0  0  2  0  0  0  0  0  0
  161.9700  209.7320  152.4120 C   0  0  0  0  0  2  0  0  0  0  0  0
  161.1830  210.8280  153.0970 C   0  0  0  0  0  2  0  0  0  0  0  0
  159.7470  210.3820  153.2700 C   0  0  0  0  0  2  0  0  0  0  0  0
  158.8170  211.4750  152.7890 C   0  0  0  0  0  2  0  0  0  0  0  0
  159.5890  212.4480  151.9260 C   0  0  0  0  0  2  0  0  0  0  0  0
  158.6180  213.2810  151.1100 C   0  0  0  0  0  2  0  0  0  0  0  0
  159.2950  213.8780  150.0100 O   0  0  0  0  0  0  0  0  0  0  0  0
  159.1070  212.5930  145.9980 C   0  0  0  0  0  0  0  0  0  0  0  0
  160.3480  212.9510  148.0550 C   0  0  0  0  0  0  0  0  0  0  0  0
  157.9820  213.5110  147.9370 C   0  0  0  0  0  0  0  0  0  0  0  0
  159.1900  213.4580  148.6720 C   0  0  0  0  0  0  0  0  0  0  0  0
  159.0680  212.1720  144.6750 O   0  0  0  0  0  1  0  0  0  0  0  0
  156.8000  213.9700  148.5070 O   0  0  0  0  0  1  0  0  0  0  0  0
  160.2980  212.5250  146.7180 C   0  0  0  0  0  3  0  0  0  0  0  0
  157.9520  213.0830  146.6070 C   0  0  0  0  0  3  0  0  0  0  0  0
  161.5380  212.8880  148.7870 O   0  0  0  0  0  0  0  0  0  0  0  0
  162.7450  212.3590  148.2540 C   0  0  0  0  0  1  0  0  0  0  0  0
  1  8  2  0  0  0  0
  3  2  1  6  0  0  0
  3 10  1  0  0  0  0
  4 10  1  0  0  0  0
  4  1  1  1  0  0  0
  5 12  1  6  0  0  0
  5  9  1  0  0  0  0
  6 19  1  1  0  0  0
  6  4  1  0  0  0  0
  7  5  1  0  0  0  0
  7 11  1  0  0  0  0
  9  6  1  0  0  0  0
 10  1  1  1  0  0  0
 11  3  1  0  0  0  0
 13 12  1  0  0  0  0
 14 13  1  0  0  0  0
 15 16  1  1  0  0  0
 15 14  1  0  0  0  0
 15 17  1  0  0  0  0
 18 17  1  0  0  0  0
 19 20  1  0  0  0  0
 20 21  1  0  0  0  0
 21 22  1  0  0  0  0
 23 22  1  0  0  0  0
 24 23  1  0  0  0  0
 25 24  1  0  0  0  0
 26 25  1  0  0  0  0
 27 34  2  0  0  0  0
 27 33  1  0  0  0  0
 28 30  1  0  0  0  0
 28 35  1  0  0  0  0
 29 32  1  0  0  0  0
 29 30  2  0  0  0  0
 30 26  1  0  0  0  0
 31 27  1  0  0  0  0
 33 28  2  0  0  0  0
 34 29  1  0  0  0  0
 36 35  1  0  0  0  0
M  END
>  <MODEL>
7

>  <REMARK>
 VINA RESULT:      -6.9      2.823      6.561
  Name = 
  15 active torsions:
  status: ('A' for Active; 'I' for Inactive)
    1  A    between atoms: C_2  and  C_13
    2  A    between atoms: C_3  and  C_14
    3  A    between atoms: C_3  and  C_24
    4  A    between atoms: C_6  and  C_26
    5  A    between atoms: C_6  and  C_32
    6  A    between atoms: C_7  and  O_33
    7  A    between atoms: C_10  and  O_21
    8  A    between atoms: C_11  and  C_26
    9  A    between atoms: C_11  and  C_29
   10  A    between atoms: C_13  and  C_24
   11  A    between atoms: C_14  and  C_15
   12  A    between atoms: C_16  and  C_27
   13  A    between atoms: C_18  and  C_27
   14  A    between atoms: C_18  and  C_29
   15  A    between atoms: O_21  and  C_32
                            x       y       z     vdW  Elec       q    Type
                         _______ _______ _______ _____ _____    ______ ____

>  <TORSDO>
F 15

$$$$
=
 OpenBabel11042421063D

 36 38  0  0  1  0  0  0  0  0999 V2000
  161.0050  207.3260  154.5650 C   0  0  0  0  0  0  0  0  0  0  0  0
  159.9330  209.7070  157.0450 C   0  0  0  0  0  1  0  0  0  0  0  0
  160.9250  209.5770  155.9050 C   0  0  1  0  0  3  0  0  0  0  0  0
  161.3360  208.6030  153.7890 C   0  0  1  0  0  3  0  0  0  0  0  0
  159.4790  210.9980  153.4000 C   0  0  2  0  0  3  0  0  0  0  0  0
  160.5850  208.8980  152.5020 C   0  0  1  0  0  3  0  0  0  0  0  0
  160.1450  211.7190  154.5910 C   0  0  0  0  0  2  0  0  0  0  0  0
  161.1520  206.1380  154.7990 O   0  0  0  0  0  0  0  0  0  0  0  0
  160.4660  210.4240  152.3690 C   0  0  0  0  0  2  0  0  0  0  0  0
  160.3490  208.6820  154.8220 C   0  0  1  0  0  3  0  0  0  0  0  0
  161.2750  210.9700  155.3320 C   0  0  0  0  0  2  0  0  0  0  0  0
  158.5060  211.9470  152.7260 C   0  0  0  0  0  2  0  0  0  0  0  0
  158.8020  213.3830  153.1280 C   0  0  0  0  0  2  0  0  0  0  0  0
  157.5330  214.0730  153.6060 C   0  0  0  0  0  2  0  0  0  0  0  0
  156.5180  213.0650  154.1250 C   0  0  2  0  0  3  0  0  0  0  0  0
  155.3000  213.2950  153.5140 F   0  0  0  0  0  0  0  0  0  0  0  0
  156.3670  213.2030  155.6310 C   0  0  0  0  0  2  0  0  0  0  0  0
  156.8580  211.9440  156.3200 C   0  0  0  0  0  1  0  0  0  0  0  0
  161.3590  208.3580  151.3120 C   0  0  0  0  0  2  0  0  0  0  0  0
  162.0150  207.0370  151.6640 C   0  0  0  0  0  2  0  0  0  0  0  0
  161.0940  205.8980  151.2850 C   0  0  0  0  0  2  0  0  0  0  0  0
  161.6280  204.6070  151.8680 C   0  0  0  0  0  2  0  0  0  0  0  0
  160.5760  203.5250  151.7440 C   0  0  0  0  0  2  0  0  0  0  0  0
  161.0480  202.4760  150.7610 C   0  0  0  0  0  2  0  0  0  0  0  0
  160.5630  202.8340  149.3690 C   0  0  0  0  0  2  0  0  0  0  0  0
  161.5810  203.5390  148.6660 O   0  0  0  0  0  0  0  0  0  0  0  0
  161.3260  204.9640  144.7060 C   0  0  0  0  0  0  0  0  0  0  0  0
  161.7040  205.3390  147.0750 C   0  0  0  0  0  0  0  0  0  0  0  0
  161.2060  203.1030  146.2530 C   0  0  0  0  0  0  0  0  0  0  0  0
  161.4890  203.9740  147.3320 C   0  0  0  0  0  0  0  0  0  0  0  0
  161.2390  205.4540  143.4100 O   0  0  0  0  0  1  0  0  0  0  0  0
  161.0190  201.7390  146.4450 O   0  0  0  0  0  1  0  0  0  0  0  0
  161.6180  205.8260  145.7610 C   0  0  0  0  0  3  0  0  0  0  0  0
  161.1230  203.6060  144.9520 C   0  0  0  0  0  3  0  0  0  0  0  0
  161.9950  206.1960  148.1430 O   0  0  0  0  0  0  0  0  0  0  0  0
  162.3370  207.5640  147.9630 C   0  0  0  0  0  1  0  0  0  0  0  0
  1  8  2  0  0  0  0
  3  2  1  1  0  0  0
  4  1  1  6  0  0  0
  4 10  1  0  0  0  0
  5 12  1  6  0  0  0
  5  7  1  0  0  0  0
  6 19  1  6  0  0  0
  6  4  1  0  0  0  0
  7 11  1  0  0  0  0
  9  6  1  0  0  0  0
  9  5  1  0  0  0  0
 10  1  1  1  0  0  0
 10  3  1  0  0  0  0
 11  3  1  0  0  0  0
 12 13  1  0  0  0  0
 13 14  1  0  0  0  0
 14 15  1  0  0  0  0
 15 16  1  6  0  0  0
 15 17  1  0  0  0  0
 17 18  1  0  0  0  0
 19 20  1  0  0  0  0
 21 20  1  0  0  0  0
 21 22  1  0  0  0  0
 23 22  1  0  0  0  0
 24 23  1  0  0  0  0
 25 24  1  0  0  0  0
 26 25  1  0  0  0  0
 27 34  2  0  0  0  0
 27 33  1  0  0  0  0
 28 30  1  0  0  0  0
 28 35  1  0  0  0  0
 29 32  1  0  0  0  0
 29 30  2  0  0  0  0
 30 26  1  0  0  0  0
 31 27  1  0  0  0  0
 33 28  2  0  0  0  0
 34 29  1  0  0  0  0
 36 35  1  0  0  0  0
M  END
>  <MODEL>
8

>  <REMARK>
 VINA RESULT:      -6.8      3.060      8.910
  Name = 
  15 active torsions:
  status: ('A' for Active; 'I' for Inactive)
    1  A    between atoms: C_2  and  C_13
    2  A    between atoms: C_3  and  C_14
    3  A    between atoms: C_3  and  C_24
    4  A    between atoms: C_6  and  C_26
    5  A    between atoms: C_6  and  C_32
    6  A    between atoms: C_7  and  O_33
    7  A    between atoms: C_10  and  O_21
    8  A    between atoms: C_11  and  C_26
    9  A    between atoms: C_11  and  C_29
   10  A    between atoms: C_13  and  C_24
   11  A    between atoms: C_14  and  C_15
   12  A    between atoms: C_16  and  C_27
   13  A    between atoms: C_18  and  C_27
   14  A    between atoms: C_18  and  C_29
   15  A    between atoms: O_21  and  C_32
                            x       y       z     vdW  Elec       q    Type
                         _______ _______ _______ _____ _____    ______ ____

>  <TORSDO>
F 15

$$$$
=
 OpenBabel11042421063D

 36 38  0  0  1  0  0  0  0  0999 V2000
  161.0360  204.5410  144.5980 C   0  0  0  0  0  0  0  0  0  0  0  0
  159.5380  201.3310  145.2450 C   0  0  0  0  0  1  0  0  0  0  0  0
  160.8350  202.0820  145.4800 C   0  0  1  0  0  3  0  0  0  0  0  0
  161.8100  204.2010  145.8740 C   0  0  1  0  0  3  0  0  0  0  0  0
  160.5970  203.1990  148.4930 C   0  0  2  0  0  3  0  0  0  0  0  0
  161.6140  205.0660  147.1070 C   0  0  1  0  0  3  0  0  0  0  0  0
  160.9040  201.7410  148.0880 C   0  0  0  0  0  2  0  0  0  0  0  0
  160.9080  205.1380  143.5420 O   0  0  0  0  0  0  0  0  0  0  0  0
  161.7840  204.1660  148.3410 C   0  0  0  0  0  2  0  0  0  0  0  0
  160.5470  203.5610  145.6630 C   0  0  1  0  0  3  0  0  0  0  0  0
  161.5730  201.5130  146.7150 C   0  0  0  0  0  2  0  0  0  0  0  0
  160.0810  203.2200  149.9200 C   0  0  0  0  0  2  0  0  0  0  0  0
  160.8530  202.2300  150.7770 C   0  0  0  0  0  2  0  0  0  0  0  0
  161.4840  202.9360  151.9680 C   0  0  0  0  0  2  0  0  0  0  0  0
  161.2300  204.4360  151.9180 C   0  0  2  0  0  3  0  0  0  0  0  0
  162.3150  205.0580  151.3280 F   0  0  0  0  0  0  0  0  0  0  0  0
  161.0320  204.9810  153.3230 C   0  0  0  0  0  2  0  0  0  0  0  0
  161.2040  206.4870  153.3250 C   0  0  0  0  0  1  0  0  0  0  0  0
  162.6640  206.1620  147.1470 C   0  0  0  0  0  2  0  0  0  0  0  0
  162.5640  206.9410  148.4440 C   0  0  0  0  0  2  0  0  0  0  0  0
  161.6120  208.1030  148.2640 C   0  0  0  0  0  2  0  0  0  0  0  0
  161.9560  209.1920  149.2570 C   0  0  0  0  0  2  0  0  0  0  0  0
  162.3310  208.5660  150.5830 C   0  0  0  0  0  2  0  0  0  0  0  0
  162.2490  209.6110  151.6740 C   0  0  0  0  0  2  0  0  0  0  0  0
  160.7940  209.8760  152.0110 C   0  0  0  0  0  2  0  0  0  0  0  0
  160.6940  210.9900  152.8900 O   0  0  0  0  0  0  0  0  0  0  0  0
  157.6090  211.5840  155.7020 C   0  0  0  0  0  0  0  0  0  0  0  0
  159.7860  210.6940  155.0980 C   0  0  0  0  0  0  0  0  0  0  0  0
  158.4740  211.9350  153.4670 C   0  0  0  0  0  0  0  0  0  0  0  0
  159.6440  211.2120  153.7990 C   0  0  0  0  0  0  0  0  0  0  0  0
  156.6010  211.7630  156.6410 O   0  0  0  0  0  1  0  0  0  0  0  0
  158.2970  212.4990  152.2090 O   0  0  0  0  0  1  0  0  0  0  0  0
  158.7630  210.8820  156.0420 C   0  0  0  0  0  3  0  0  0  0  0  0
  157.4660  212.1110  154.4190 C   0  0  0  0  0  3  0  0  0  0  0  0
  160.9490  209.9890  155.4270 O   0  0  0  0  0  0  0  0  0  0  0  0
  162.1410  210.6280  155.8640 C   0  0  0  0  0  1  0  0  0  0  0  0
  3  2  1  1  0  0  0
  3 10  1  0  0  0  0
  3 11  1  0  0  0  0
  4  1  1  6  0  0  0
  4  6  1  0  0  0  0
  5 12  1  1  0  0  0
  6 19  1  1  0  0  0
  6  9  1  0  0  0  0
  7  5  1  0  0  0  0
  8  1  2  0  0  0  0
  9  5  1  0  0  0  0
 10  1  1  6  0  0  0
 10  4  1  0  0  0  0
 11  7  1  0  0  0  0
 12 13  1  0  0  0  0
 13 14  1  0  0  0  0
 15 16  1  1  0  0  0
 15 14  1  0  0  0  0
 15 17  1  0  0  0  0
 17 18  1  0  0  0  0
 19 20  1  0  0  0  0
 21 20  1  0  0  0  0
 21 22  1  0  0  0  0
 22 23  1  0  0  0  0
 23 24  1  0  0  0  0
 24 25  1  0  0  0  0
 25 26  1  0  0  0  0
 26 30  1  0  0  0  0
 27 33  1  0  0  0  0
 27 31  1  0  0  0  0
 28 35  1  0  0  0  0
 28 33  2  0  0  0  0
 29 30  2  0  0  0  0
 29 34  1  0  0  0  0
 30 28  1  0  0  0  0
 32 29  1  0  0  0  0
 34 27  2  0  0  0  0
 35 36  1  0  0  0  0
M  END
>  <MODEL>
9

>  <REMARK>
 VINA RESULT:      -6.7      2.210      4.606
  Name = 
  15 active torsions:
  status: ('A' for Active; 'I' for Inactive)
    1  A    between atoms: C_2  and  C_13
    2  A    between atoms: C_3  and  C_14
    3  A    between atoms: C_3  and  C_24
    4  A    between atoms: C_6  and  C_26
    5  A    between atoms: C_6  and  C_32
    6  A    between atoms: C_7  and  O_33
    7  A    between atoms: C_10  and  O_21
    8  A    between atoms: C_11  and  C_26
    9  A    between atoms: C_11  and  C_29
   10  A    between atoms: C_13  and  C_24
   11  A    between atoms: C_14  and  C_15
   12  A    between atoms: C_16  and  C_27
   13  A    between atoms: C_18  and  C_27
   14  A    between atoms: C_18  and  C_29
   15  A    between atoms: O_21  and  C_32
                            x       y       z     vdW  Elec       q    Type
                         _______ _______ _______ _____ _____    ______ ____

>  <TORSDO>
F 15

$$$$
