=
 OpenBabel11052411063D

 34 37  0  0  0  0  0  0  0  0999 V2000
  161.2960  206.8060  149.5060 C   0  0  0  0  0  3  0  0  0  0  0  0
  161.8970  208.9480  149.5800 N   0  0  0  0  0  0  0  0  0  0  0  0
  161.4740  207.9210  150.3000 C   0  0  0  0  0  0  0  0  0  0  0  0
  161.6560  207.2750  148.2310 C   0  0  0  0  0  0  0  0  0  0  0  0
  161.6400  209.5140  151.9810 C   0  0  0  0  0  0  0  0  0  0  0  0
  161.3090  208.1810  151.6730 C   0  0  0  0  0  0  0  0  0  0  0  0
  162.0330  208.6190  148.2930 C   0  0  0  0  0  3  0  0  0  0  0  0
  162.1160  210.2740  150.5440 S   0  0  0  0  0  0  0  0  0  0  0  0
  160.6760  206.5400  146.2060 O   0  0  0  0  0  0  0  0  0  0  0  0
  162.7040  205.6140  146.7230 O   0  0  0  0  0  1  0  0  0  0  0  0
  161.6440  206.4670  147.0060 C   0  0  0  0  0  0  0  0  0  0  0  0
  160.8780  207.2350  152.6560 N   0  0  0  0  0  2  0  0  0  0  0  0
  161.7310  206.1780  153.1770 C   0  0  0  0  0  2  0  0  0  0  0  0
  161.0830  204.8220  152.9440 C   0  0  0  0  0  2  0  0  0  0  0  0
  161.6000  204.1720  151.6660 C   0  0  0  0  0  2  0  0  0  0  0  0
  160.4600  203.6740  150.7910 C   0  0  0  0  0  2  0  0  0  0  0  0
  160.9260  202.5320  149.9090 C   0  0  0  0  0  2  0  0  0  0  0  0
  161.1040  203.0340  148.4880 C   0  0  0  0  0  2  0  0  0  0  0  0
  161.1030  201.9140  147.5570 N   0  0  0  0  0  0  0  0  0  0  0  0
  161.1730  200.5610  148.1020 C   0  0  0  0  0  2  0  0  0  0  0  0
  160.8290  202.1090  146.1590 C   0  0  0  0  0  0  0  0  0  0  0  0
  160.8020  201.0050  145.3020 O   0  0  0  0  0  0  0  0  0  0  0  0
  161.6880  199.5790  147.0530 C   0  0  0  0  0  2  0  0  0  0  0  0
  160.6570  203.2660  145.6910 O   0  0  0  0  0  0  0  0  0  0  0  0
  160.8070  199.6740  145.8120 C   0  0  0  0  0  2  0  0  0  0  0  0
  161.6180  210.1570  153.3280 C   0  0  0  0  0  2  0  0  0  0  0  0
  158.2670  211.6350  153.4740 N   0  0  0  0  0  0  0  0  0  0  0  0
  159.4040  211.3470  152.8030 C   0  0  0  0  0  3  0  0  0  0  0  0
  157.3370  211.2730  155.7120 C   0  0  0  0  0  1  0  0  0  0  0  0
  159.5600  210.5480  154.8520 C   0  0  0  0  0  0  0  0  0  0  0  0
  160.2490  210.6540  153.6570 C   0  0  0  0  0  0  0  0  0  0  0  0
  158.3720  211.1530  154.7020 N   0  0  0  0  0  0  0  0  0  0  0  0
  159.9660  209.9300  156.0410 O   0  0  0  0  0  0  0  0  0  0  0  0
  160.0260  208.5200  156.2010 C   0  0  0  0  0  1  0  0  0  0  0  0
  1  3  2  0  0  0  0
  2  3  1  0  0  0  0
  2  8  1  0  0  0  0
  3  6  1  0  0  0  0
  4  7  2  0  0  0  0
  4  1  1  0  0  0  0
  5 26  1  0  0  0  0
  6  5  2  0  0  0  0
  6 12  1  0  0  0  0
  7  2  1  0  0  0  0
  8  5  1  0  0  0  0
  9 11  2  0  0  0  0
 10 11  1  0  0  0  0
 11  4  1  0  0  0  0
 12 13  1  0  0  0  0
 14 13  1  0  0  0  0
 15 14  1  0  0  0  0
 16 15  1  0  0  0  0
 17 16  1  0  0  0  0
 18 17  1  0  0  0  0
 19 20  1  0  0  0  0
 19 18  1  0  0  0  0
 21 19  1  0  0  0  0
 22 25  1  0  0  0  0
 22 21  1  0  0  0  0
 23 20  1  0  0  0  0
 24 21  2  0  0  0  0
 25 23  1  0  0  0  0
 26 31  1  0  0  0  0
 27 32  1  0  0  0  0
 28 27  2  0  0  0  0
 28 31  1  0  0  0  0
 30 33  1  0  0  0  0
 31 30  2  0  0  0  0
 32 30  1  0  0  0  0
 32 29  1  0  0  0  0
 33 34  1  0  0  0  0
M  END
>  <MODEL>
1

>  <REMARK>
 VINA RESULT:      -7.3      0.000      0.000
  Name = 
  12 active torsions:
  status: ('A' for Active; 'I' for Inactive)
    1  A    between atoms: N_1  and  C_14
    2  A    between atoms: O_7  and  C_25
    3  A    between atoms: C_9  and  C_12
    4  A    between atoms: C_10  and  N_13
    5  A    between atoms: C_10  and  C_22
    6  A    between atoms: N_13  and  C_30
    7  A    between atoms: C_14  and  C_15
    8  A    between atoms: C_15  and  C_29
    9  A    between atoms: C_20  and  C_21
   10  A    between atoms: C_20  and  C_26
   11  A    between atoms: C_22  and  C_33
   12  A    between atoms: C_29  and  C_33
                            x       y       z     vdW  Elec       q    Type
                         _______ _______ _______ _____ _____    ______ ____

>  <TORSDO>
F 12

$$$$
=
 OpenBabel11052411063D

 34 37  0  0  0  0  0  0  0  0999 V2000
  161.1920  206.2570  151.4340 C   0  0  0  0  0  3  0  0  0  0  0  0
  161.1110  206.5590  153.6380 N   0  0  0  0  0  0  0  0  0  0  0  0
  161.1760  207.1720  152.4680 C   0  0  0  0  0  0  0  0  0  0  0  0
  161.1320  205.0280  152.1110 C   0  0  0  0  0  0  0  0  0  0  0  0
  161.1630  209.0280  153.8640 C   0  0  0  0  0  0  0  0  0  0  0  0
  161.2080  208.5780  152.5310 C   0  0  0  0  0  0  0  0  0  0  0  0
  161.0790  205.2320  153.4920 C   0  0  0  0  0  3  0  0  0  0  0  0
  161.0820  207.6650  154.8660 S   0  0  0  0  0  0  0  0  0  0  0  0
  161.8190  202.7710  151.9170 O   0  0  0  0  0  1  0  0  0  0  0  0
  160.3350  203.4980  150.3340 O   0  0  0  0  0  0  0  0  0  0  0  0
  161.1200  203.7120  151.4610 C   0  0  0  0  0  0  0  0  0  0  0  0
  161.2630  209.4630  151.4070 N   0  0  0  0  0  2  0  0  0  0  0  0
  162.2900  209.3870  150.3800 C   0  0  0  0  0  2  0  0  0  0  0  0
  161.6810  208.9170  149.0680 C   0  0  0  0  0  2  0  0  0  0  0  0
  162.4750  207.7620  148.4690 C   0  0  0  0  0  2  0  0  0  0  0  0
  161.6380  206.9610  147.4830 C   0  0  0  0  0  2  0  0  0  0  0  0
  161.6020  205.4980  147.8820 C   0  0  0  0  0  2  0  0  0  0  0  0
  162.4160  204.6870  146.8900 C   0  0  0  0  0  2  0  0  0  0  0  0
  161.5760  203.6790  146.2590 N   0  0  0  0  0  0  0  0  0  0  0  0
  161.2320  202.4850  147.0270 C   0  0  0  0  0  2  0  0  0  0  0  0
  160.9280  203.9310  145.0020 C   0  0  0  0  0  0  0  0  0  0  0  0
  160.1010  202.9530  144.4430 O   0  0  0  0  0  0  0  0  0  0  0  0
  160.8320  201.3400  146.1010 C   0  0  0  0  0  2  0  0  0  0  0  0
  161.1300  205.0070  144.3770 O   0  0  0  0  0  0  0  0  0  0  0  0
  159.7000  201.8090  145.1940 C   0  0  0  0  0  2  0  0  0  0  0  0
  161.1510  210.4450  154.3340 C   0  0  0  0  0  2  0  0  0  0  0  0
  158.0820  211.2200  156.1830 N   0  0  0  0  0  0  0  0  0  0  0  0
  159.3760  210.8320  156.1490 C   0  0  0  0  0  3  0  0  0  0  0  0
  156.3460  211.8940  154.5920 C   0  0  0  0  0  1  0  0  0  0  0  0
  158.6940  211.2310  154.0910 C   0  0  0  0  0  0  0  0  0  0  0  0
  159.7940  210.8280  154.8270 C   0  0  0  0  0  0  0  0  0  0  0  0
  157.6840  211.4560  154.9430 N   0  0  0  0  0  0  0  0  0  0  0  0
  158.5870  211.4010  152.7050 O   0  0  0  0  0  0  0  0  0  0  0  0
  159.0670  212.5520  152.0260 C   0  0  0  0  0  1  0  0  0  0  0  0
  1  4  1  0  0  0  0
  1  3  2  0  0  0  0
  2  8  1  0  0  0  0
  3  6  1  0  0  0  0
  3  2  1  0  0  0  0
  4  7  2  0  0  0  0
  5 26  1  0  0  0  0
  5  8  1  0  0  0  0
  6  5  2  0  0  0  0
  7  2  1  0  0  0  0
 10 11  2  0  0  0  0
 11  9  1  0  0  0  0
 11  4  1  0  0  0  0
 12  6  1  0  0  0  0
 13 12  1  0  0  0  0
 14 13  1  0  0  0  0
 15 14  1  0  0  0  0
 16 17  1  0  0  0  0
 16 15  1  0  0  0  0
 18 17  1  0  0  0  0
 19 18  1  0  0  0  0
 19 20  1  0  0  0  0
 21 19  1  0  0  0  0
 22 21  1  0  0  0  0
 22 25  1  0  0  0  0
 23 20  1  0  0  0  0
 24 21  2  0  0  0  0
 25 23  1  0  0  0  0
 26 31  1  0  0  0  0
 28 27  2  0  0  0  0
 29 32  1  0  0  0  0
 30 31  2  0  0  0  0
 30 32  1  0  0  0  0
 31 28  1  0  0  0  0
 32 27  1  0  0  0  0
 33 30  1  0  0  0  0
 34 33  1  0  0  0  0
M  END
>  <MODEL>
2

>  <REMARK>
 VINA RESULT:      -7.3      2.156      3.675
  Name = 
  12 active torsions:
  status: ('A' for Active; 'I' for Inactive)
    1  A    between atoms: N_1  and  C_14
    2  A    between atoms: O_7  and  C_25
    3  A    between atoms: C_9  and  C_12
    4  A    between atoms: C_10  and  N_13
    5  A    between atoms: C_10  and  C_22
    6  A    between atoms: N_13  and  C_30
    7  A    between atoms: C_14  and  C_15
    8  A    between atoms: C_15  and  C_29
    9  A    between atoms: C_20  and  C_21
   10  A    between atoms: C_20  and  C_26
   11  A    between atoms: C_22  and  C_33
   12  A    between atoms: C_29  and  C_33
                            x       y       z     vdW  Elec       q    Type
                         _______ _______ _______ _____ _____    ______ ____

>  <TORSDO>
F 12

$$$$
=
 OpenBabel11052411063D

 34 37  0  0  0  0  0  0  0  0999 V2000
  161.2270  207.0390  150.0670 C   0  0  0  0  0  3  0  0  0  0  0  0
  161.8980  209.1590  150.1570 N   0  0  0  0  0  0  0  0  0  0  0  0
  161.4730  208.1310  150.8740 C   0  0  0  0  0  0  0  0  0  0  0  0
  161.5490  207.5220  148.7880 C   0  0  0  0  0  0  0  0  0  0  0  0
  161.7570  209.6830  152.5770 C   0  0  0  0  0  0  0  0  0  0  0  0
  161.3730  208.3680  152.2580 C   0  0  0  0  0  0  0  0  0  0  0  0
  161.9700  208.8520  148.8600 C   0  0  0  0  0  3  0  0  0  0  0  0
  162.1980  210.4570  151.1360 S   0  0  0  0  0  0  0  0  0  0  0  0
  162.5070  206.3390  146.9760 O   0  0  0  0  0  0  0  0  0  0  0  0
  160.2210  206.4380  147.0010 O   0  0  0  0  0  1  0  0  0  0  0  0
  161.4610  206.7400  147.5490 C   0  0  0  0  0  0  0  0  0  0  0  0
  160.9530  207.4150  153.2390 N   0  0  0  0  0  2  0  0  0  0  0  0
  161.6690  206.1790  153.5120 C   0  0  0  0  0  2  0  0  0  0  0  0
  160.8360  204.9850  153.0720 C   0  0  0  0  0  2  0  0  0  0  0  0
  161.5620  204.1610  152.0140 C   0  0  0  0  0  2  0  0  0  0  0  0
  160.6140  203.6970  150.9200 C   0  0  0  0  0  2  0  0  0  0  0  0
  161.3270  202.7670  149.9570 C   0  0  0  0  0  2  0  0  0  0  0  0
  161.2190  203.3230  148.5490 C   0  0  0  0  0  2  0  0  0  0  0  0
  161.1440  202.2330  147.5850 N   0  0  0  0  0  0  0  0  0  0  0  0
  161.0230  200.8690  148.0920 C   0  0  0  0  0  2  0  0  0  0  0  0
  160.9830  202.4910  146.1810 C   0  0  0  0  0  0  0  0  0  0  0  0
  160.8800  201.4190  145.2900 O   0  0  0  0  0  0  0  0  0  0  0  0
  161.4830  199.8570  147.0450 C   0  0  0  0  0  2  0  0  0  0  0  0
  160.9770  203.6710  145.7390 O   0  0  0  0  0  0  0  0  0  0  0  0
  160.6980  200.0850  145.7590 C   0  0  0  0  0  2  0  0  0  0  0  0
  161.8120  210.2990  153.9360 C   0  0  0  0  0  2  0  0  0  0  0  0
  158.5230  210.4440  155.5480 N   0  0  0  0  0  0  0  0  0  0  0  0
  159.7300  209.8620  155.3760 C   0  0  0  0  0  3  0  0  0  0  0  0
  157.2980  212.3790  154.6790 C   0  0  0  0  0  1  0  0  0  0  0  0
  159.5960  211.6340  154.0710 C   0  0  0  0  0  0  0  0  0  0  0  0
  160.4370  210.6000  154.4380 C   0  0  0  0  0  0  0  0  0  0  0  0
  158.4530  211.5040  154.7600 N   0  0  0  0  0  0  0  0  0  0  0  0
  159.8330  212.6680  153.1570 O   0  0  0  0  0  0  0  0  0  0  0  0
  159.4530  212.5980  151.7900 C   0  0  0  0  0  1  0  0  0  0  0  0
  1  3  2  0  0  0  0
  2  3  1  0  0  0  0
  2  8  1  0  0  0  0
  3  6  1  0  0  0  0
  4  7  2  0  0  0  0
  4  1  1  0  0  0  0
  5 26  1  0  0  0  0
  6  5  2  0  0  0  0
  6 12  1  0  0  0  0
  7  2  1  0  0  0  0
  8  5  1  0  0  0  0
  9 11  2  0  0  0  0
 10 11  1  0  0  0  0
 11  4  1  0  0  0  0
 12 13  1  0  0  0  0
 14 13  1  0  0  0  0
 15 14  1  0  0  0  0
 16 15  1  0  0  0  0
 17 16  1  0  0  0  0
 18 17  1  0  0  0  0
 19 20  1  0  0  0  0
 19 18  1  0  0  0  0
 21 19  1  0  0  0  0
 22 25  1  0  0  0  0
 22 21  1  0  0  0  0
 23 20  1  0  0  0  0
 24 21  2  0  0  0  0
 25 23  1  0  0  0  0
 26 31  1  0  0  0  0
 28 27  2  0  0  0  0
 29 32  1  0  0  0  0
 30 31  2  0  0  0  0
 30 32  1  0  0  0  0
 31 28  1  0  0  0  0
 32 27  1  0  0  0  0
 33 30  1  0  0  0  0
 34 33  1  0  0  0  0
M  END
>  <MODEL>
3

>  <REMARK>
 VINA RESULT:      -6.9      0.989      1.616
  Name = 
  12 active torsions:
  status: ('A' for Active; 'I' for Inactive)
    1  A    between atoms: N_1  and  C_14
    2  A    between atoms: O_7  and  C_25
    3  A    between atoms: C_9  and  C_12
    4  A    between atoms: C_10  and  N_13
    5  A    between atoms: C_10  and  C_22
    6  A    between atoms: N_13  and  C_30
    7  A    between atoms: C_14  and  C_15
    8  A    between atoms: C_15  and  C_29
    9  A    between atoms: C_20  and  C_21
   10  A    between atoms: C_20  and  C_26
   11  A    between atoms: C_22  and  C_33
   12  A    between atoms: C_29  and  C_33
                            x       y       z     vdW  Elec       q    Type
                         _______ _______ _______ _____ _____    ______ ____

>  <TORSDO>
F 12

$$$$
=
 OpenBabel11052411063D

 34 37  0  0  0  0  0  0  0  0999 V2000
  161.5370  205.5730  149.1590 C   0  0  0  0  0  3  0  0  0  0  0  0
  161.1430  205.8600  151.3310 N   0  0  0  0  0  0  0  0  0  0  0  0
  161.5820  206.4450  150.2280 C   0  0  0  0  0  0  0  0  0  0  0  0
  161.0250  204.4010  149.7400 C   0  0  0  0  0  0  0  0  0  0  0  0
  161.8190  208.2160  151.7120 C   0  0  0  0  0  0  0  0  0  0  0  0
  161.9810  207.7860  150.3810 C   0  0  0  0  0  0  0  0  0  0  0  0
  160.7800  204.5960  151.1010 C   0  0  0  0  0  3  0  0  0  0  0  0
  161.1920  206.9170  152.6010 S   0  0  0  0  0  0  0  0  0  0  0  0
  161.1880  203.0010  147.8380 O   0  0  0  0  0  0  0  0  0  0  0  0
  160.0790  202.1150  149.6330 O   0  0  0  0  0  1  0  0  0  0  0  0
  160.7750  203.1470  149.0170 C   0  0  0  0  0  0  0  0  0  0  0  0
  162.4770  208.6330  149.3400 N   0  0  0  0  0  2  0  0  0  0  0  0
  161.6520  209.6050  148.6390 C   0  0  0  0  0  2  0  0  0  0  0  0
  162.0820  211.0160  149.0090 C   0  0  0  0  0  2  0  0  0  0  0  0
  161.7160  212.0130  147.9140 C   0  0  0  0  0  2  0  0  0  0  0  0
  162.8780  212.9400  147.5920 C   0  0  0  0  0  2  0  0  0  0  0  0
  162.6070  213.7080  146.3130 C   0  0  0  0  0  2  0  0  0  0  0  0
  161.1990  213.4050  145.8330 C   0  0  0  0  0  2  0  0  0  0  0  0
  161.2310  212.9310  144.4570 N   0  0  0  0  0  0  0  0  0  0  0  0
  162.5120  212.9220  143.7570 C   0  0  0  0  0  2  0  0  0  0  0  0
  160.0870  212.2930  143.8630 C   0  0  0  0  0  0  0  0  0  0  0  0
  160.1660  211.8190  142.5510 O   0  0  0  0  0  0  0  0  0  0  0  0
  162.3060  212.9200  142.2450 C   0  0  0  0  0  2  0  0  0  0  0  0
  159.0020  212.1960  144.4970 O   0  0  0  0  0  0  0  0  0  0  0  0
  161.4150  211.7420  141.8680 C   0  0  0  0  0  2  0  0  0  0  0  0
  162.1060  209.5750  152.2580 C   0  0  0  0  0  2  0  0  0  0  0  0
  159.0070  210.9760  153.6270 N   0  0  0  0  0  0  0  0  0  0  0  0
  159.7900  210.6370  152.5780 C   0  0  0  0  0  3  0  0  0  0  0  0
  159.0970  210.8600  156.0720 C   0  0  0  0  0  1  0  0  0  0  0  0
  160.8230  210.0930  154.4480 C   0  0  0  0  0  0  0  0  0  0  0  0
  160.9570  210.0730  153.0720 C   0  0  0  0  0  0  0  0  0  0  0  0
  159.6370  210.6450  154.7430 N   0  0  0  0  0  0  0  0  0  0  0  0
  161.7210  209.6320  155.4190 O   0  0  0  0  0  0  0  0  0  0  0  0
  161.5770  208.3820  156.0770 C   0  0  0  0  0  1  0  0  0  0  0  0
  1  4  1  0  0  0  0
  1  3  2  0  0  0  0
  2  8  1  0  0  0  0
  3  6  1  0  0  0  0
  3  2  1  0  0  0  0
  4  7  2  0  0  0  0
  5 26  1  0  0  0  0
  5  8  1  0  0  0  0
  6  5  2  0  0  0  0
  7  2  1  0  0  0  0
  9 11  2  0  0  0  0
 11 10  1  0  0  0  0
 11  4  1  0  0  0  0
 12  6  1  0  0  0  0
 13 14  1  0  0  0  0
 13 12  1  0  0  0  0
 15 14  1  0  0  0  0
 16 15  1  0  0  0  0
 17 16  1  0  0  0  0
 18 17  1  0  0  0  0
 19 18  1  0  0  0  0
 20 19  1  0  0  0  0
 21 19  1  0  0  0  0
 21 24  2  0  0  0  0
 22 21  1  0  0  0  0
 23 20  1  0  0  0  0
 25 23  1  0  0  0  0
 25 22  1  0  0  0  0
 26 31  1  0  0  0  0
 27 32  1  0  0  0  0
 28 31  1  0  0  0  0
 28 27  2  0  0  0  0
 30 32  1  0  0  0  0
 30 33  1  0  0  0  0
 31 30  2  0  0  0  0
 32 29  1  0  0  0  0
 33 34  1  0  0  0  0
M  END
>  <MODEL>
4

>  <REMARK>
 VINA RESULT:      -6.4      3.702      7.013
  Name = 
  12 active torsions:
  status: ('A' for Active; 'I' for Inactive)
    1  A    between atoms: N_1  and  C_14
    2  A    between atoms: O_7  and  C_25
    3  A    between atoms: C_9  and  C_12
    4  A    between atoms: C_10  and  N_13
    5  A    between atoms: C_10  and  C_22
    6  A    between atoms: N_13  and  C_30
    7  A    between atoms: C_14  and  C_15
    8  A    between atoms: C_15  and  C_29
    9  A    between atoms: C_20  and  C_21
   10  A    between atoms: C_20  and  C_26
   11  A    between atoms: C_22  and  C_33
   12  A    between atoms: C_29  and  C_33
                            x       y       z     vdW  Elec       q    Type
                         _______ _______ _______ _____ _____    ______ ____

>  <TORSDO>
F 12

$$$$
=
 OpenBabel11052411063D

 34 37  0  0  0  0  0  0  0  0999 V2000
  161.0180  204.4270  148.6670 C   0  0  0  0  0  3  0  0  0  0  0  0
  161.2110  204.4310  150.8850 N   0  0  0  0  0  0  0  0  0  0  0  0
  161.1360  205.1960  149.8070 C   0  0  0  0  0  0  0  0  0  0  0  0
  161.0330  203.1180  149.1760 C   0  0  0  0  0  0  0  0  0  0  0  0
  161.3080  206.8490  151.4290 C   0  0  0  0  0  0  0  0  0  0  0  0
  161.1850  206.5810  150.0530 C   0  0  0  0  0  0  0  0  0  0  0  0
  161.1520  203.1350  150.5680 C   0  0  0  0  0  3  0  0  0  0  0  0
  161.3420  205.3640  152.2430 S   0  0  0  0  0  0  0  0  0  0  0  0
  160.6900  201.9790  147.1300 O   0  0  0  0  0  0  0  0  0  0  0  0
  161.0990  200.6520  148.9500 O   0  0  0  0  0  1  0  0  0  0  0  0
  160.9310  201.9000  148.3620 C   0  0  0  0  0  0  0  0  0  0  0  0
  161.1090  207.6080  149.0590 N   0  0  0  0  0  2  0  0  0  0  0  0
  162.2110  208.5040  148.7480 C   0  0  0  0  0  2  0  0  0  0  0  0
  161.6780  209.8800  148.3840 C   0  0  0  0  0  2  0  0  0  0  0  0
  162.1830  210.9450  149.3520 C   0  0  0  0  0  2  0  0  0  0  0  0
  162.0040  212.3450  148.7860 C   0  0  0  0  0  2  0  0  0  0  0  0
  162.9500  212.5730  147.6230 C   0  0  0  0  0  2  0  0  0  0  0  0
  162.4330  213.7180  146.7710 C   0  0  0  0  0  2  0  0  0  0  0  0
  161.7120  213.1990  145.6180 N   0  0  0  0  0  0  0  0  0  0  0  0
  160.2610  213.0630  145.7130 C   0  0  0  0  0  2  0  0  0  0  0  0
  162.3650  213.0200  144.3500 C   0  0  0  0  0  0  0  0  0  0  0  0
  161.6320  212.5520  143.2570 O   0  0  0  0  0  0  0  0  0  0  0  0
  159.7420  212.0530  144.6930 C   0  0  0  0  0  2  0  0  0  0  0  0
  163.6000  213.2380  144.2250 O   0  0  0  0  0  0  0  0  0  0  0  0
  160.2090  212.4690  143.3030 C   0  0  0  0  0  2  0  0  0  0  0  0
  161.3650  208.1900  152.0820 C   0  0  0  0  0  2  0  0  0  0  0  0
  160.5030  207.2400  155.5160 N   0  0  0  0  0  0  0  0  0  0  0  0
  160.7600  206.9180  154.2290 C   0  0  0  0  0  3  0  0  0  0  0  0
  160.4080  209.2610  156.8980 C   0  0  0  0  0  1  0  0  0  0  0  0
  160.9410  209.1020  154.4700 C   0  0  0  0  0  0  0  0  0  0  0  0
  161.0430  208.0860  153.5360 C   0  0  0  0  0  0  0  0  0  0  0  0
  160.6140  208.5520  155.6480 N   0  0  0  0  0  0  0  0  0  0  0  0
  161.1390  210.4760  154.2870 O   0  0  0  0  0  0  0  0  0  0  0  0
  160.1690  211.3270  153.6950 C   0  0  0  0  0  1  0  0  0  0  0  0
  1  4  1  0  0  0  0
  1  3  2  0  0  0  0
  2  8  1  0  0  0  0
  3  6  1  0  0  0  0
  3  2  1  0  0  0  0
  4  7  2  0  0  0  0
  5 26  1  0  0  0  0
  5  8  1  0  0  0  0
  6  5  2  0  0  0  0
  7  2  1  0  0  0  0
  9 11  2  0  0  0  0
 11 10  1  0  0  0  0
 11  4  1  0  0  0  0
 12  6  1  0  0  0  0
 13 12  1  0  0  0  0
 14 13  1  0  0  0  0
 14 15  1  0  0  0  0
 16 15  1  0  0  0  0
 17 16  1  0  0  0  0
 18 17  1  0  0  0  0
 19 20  1  0  0  0  0
 19 18  1  0  0  0  0
 21 19  1  0  0  0  0
 22 25  1  0  0  0  0
 22 21  1  0  0  0  0
 23 20  1  0  0  0  0
 24 21  2  0  0  0  0
 25 23  1  0  0  0  0
 26 31  1  0  0  0  0
 27 32  1  0  0  0  0
 28 27  2  0  0  0  0
 30 32  1  0  0  0  0
 31 28  1  0  0  0  0
 31 30  2  0  0  0  0
 32 29  1  0  0  0  0
 33 30  1  0  0  0  0
 34 33  1  0  0  0  0
M  END
>  <MODEL>
5

>  <REMARK>
 VINA RESULT:      -6.4      3.619      7.224
  Name = 
  12 active torsions:
  status: ('A' for Active; 'I' for Inactive)
    1  A    between atoms: N_1  and  C_14
    2  A    between atoms: O_7  and  C_25
    3  A    between atoms: C_9  and  C_12
    4  A    between atoms: C_10  and  N_13
    5  A    between atoms: C_10  and  C_22
    6  A    between atoms: N_13  and  C_30
    7  A    between atoms: C_14  and  C_15
    8  A    between atoms: C_15  and  C_29
    9  A    between atoms: C_20  and  C_21
   10  A    between atoms: C_20  and  C_26
   11  A    between atoms: C_22  and  C_33
   12  A    between atoms: C_29  and  C_33
                            x       y       z     vdW  Elec       q    Type
                         _______ _______ _______ _____ _____    ______ ____

>  <TORSDO>
F 12

$$$$
=
 OpenBabel11052411063D

 34 37  0  0  0  0  0  0  0  0999 V2000
  161.5030  209.2620  151.6770 C   0  0  0  0  0  3  0  0  0  0  0  0
  161.1520  207.0750  151.4550 N   0  0  0  0  0  0  0  0  0  0  0  0
  161.5320  208.1750  150.8260 C   0  0  0  0  0  0  0  0  0  0  0  0
  161.0630  208.6950  152.8850 C   0  0  0  0  0  0  0  0  0  0  0  0
  161.7350  206.6580  149.0800 C   0  0  0  0  0  0  0  0  0  0  0  0
  161.8770  208.0020  149.4720 C   0  0  0  0  0  0  0  0  0  0  0  0
  160.8490  207.3230  152.7320 C   0  0  0  0  0  3  0  0  0  0  0  0
  161.2010  205.7800  150.4280 S   0  0  0  0  0  0  0  0  0  0  0  0
  161.1620  208.9140  155.2400 O   0  0  0  0  0  1  0  0  0  0  0  0
  160.3340  210.7220  154.1060 O   0  0  0  0  0  0  0  0  0  0  0  0
  160.8610  209.4370  154.1350 C   0  0  0  0  0  0  0  0  0  0  0  0
  162.3300  209.0320  148.5880 N   0  0  0  0  0  2  0  0  0  0  0  0
  161.5820  210.2530  148.3330 C   0  0  0  0  0  2  0  0  0  0  0  0
  162.3910  211.4610  148.7780 C   0  0  0  0  0  2  0  0  0  0  0  0
  161.5840  212.7490  148.6450 C   0  0  0  0  0  2  0  0  0  0  0  0
  162.3680  213.8260  147.9120 C   0  0  0  0  0  2  0  0  0  0  0  0
  162.4890  213.4860  146.4390 C   0  0  0  0  0  2  0  0  0  0  0  0
  161.1050  213.4530  145.8160 C   0  0  0  0  0  2  0  0  0  0  0  0
  161.1860  212.9820  144.4400 N   0  0  0  0  0  0  0  0  0  0  0  0
  162.4900  212.9920  143.7820 C   0  0  0  0  0  2  0  0  0  0  0  0
  160.0710  212.3310  143.8090 C   0  0  0  0  0  0  0  0  0  0  0  0
  160.1980  211.8610  142.5000 O   0  0  0  0  0  0  0  0  0  0  0  0
  162.3310  212.9910  142.2640 C   0  0  0  0  0  2  0  0  0  0  0  0
  158.9680  212.2170  144.4080 O   0  0  0  0  0  0  0  0  0  0  0  0
  161.4700  211.8010  141.8570 C   0  0  0  0  0  2  0  0  0  0  0  0
  162.0290  206.0770  147.7370 C   0  0  0  0  0  2  0  0  0  0  0  0
  160.8960  202.6320  148.2710 N   0  0  0  0  0  0  0  0  0  0  0  0
  161.2060  203.8610  148.7400 C   0  0  0  0  0  3  0  0  0  0  0  0
  160.8310  201.4750  146.1130 C   0  0  0  0  0  1  0  0  0  0  0  0
  161.4870  203.8370  146.5530 C   0  0  0  0  0  0  0  0  0  0  0  0
  161.5880  204.6520  147.6660 C   0  0  0  0  0  0  0  0  0  0  0  0
  161.0690  202.6290  146.9590 N   0  0  0  0  0  0  0  0  0  0  0  0
  161.7510  204.1530  145.2150 O   0  0  0  0  0  0  0  0  0  0  0  0
  161.1280  205.2330  144.5350 C   0  0  0  0  0  1  0  0  0  0  0  0
  1  4  1  0  0  0  0
  2  7  1  0  0  0  0
  3  2  1  0  0  0  0
  3  1  2  0  0  0  0
  4 11  1  0  0  0  0
  5  6  2  0  0  0  0
  5  8  1  0  0  0  0
  6  3  1  0  0  0  0
  7  4  2  0  0  0  0
  8  2  1  0  0  0  0
 10 11  2  0  0  0  0
 11  9  1  0  0  0  0
 12  6  1  0  0  0  0
 13 12  1  0  0  0  0
 13 14  1  0  0  0  0
 15 14  1  0  0  0  0
 16 15  1  0  0  0  0
 17 16  1  0  0  0  0
 18 17  1  0  0  0  0
 19 18  1  0  0  0  0
 20 19  1  0  0  0  0
 21 24  2  0  0  0  0
 21 19  1  0  0  0  0
 22 21  1  0  0  0  0
 23 20  1  0  0  0  0
 25 23  1  0  0  0  0
 25 22  1  0  0  0  0
 26  5  1  0  0  0  0
 27 28  2  0  0  0  0
 29 32  1  0  0  0  0
 30 32  1  0  0  0  0
 30 31  2  0  0  0  0
 31 26  1  0  0  0  0
 31 28  1  0  0  0  0
 32 27  1  0  0  0  0
 33 30  1  0  0  0  0
 34 33  1  0  0  0  0
M  END
>  <MODEL>
6

>  <REMARK>
 VINA RESULT:      -6.1      3.767      9.366
  Name = 
  12 active torsions:
  status: ('A' for Active; 'I' for Inactive)
    1  A    between atoms: N_1  and  C_14
    2  A    between atoms: O_7  and  C_25
    3  A    between atoms: C_9  and  C_12
    4  A    between atoms: C_10  and  N_13
    5  A    between atoms: C_10  and  C_22
    6  A    between atoms: N_13  and  C_30
    7  A    between atoms: C_14  and  C_15
    8  A    between atoms: C_15  and  C_29
    9  A    between atoms: C_20  and  C_21
   10  A    between atoms: C_20  and  C_26
   11  A    between atoms: C_22  and  C_33
   12  A    between atoms: C_29  and  C_33
                            x       y       z     vdW  Elec       q    Type
                         _______ _______ _______ _____ _____    ______ ____

>  <TORSDO>
F 12

$$$$
=
 OpenBabel11052411063D

 34 37  0  0  0  0  0  0  0  0999 V2000
  161.6950  207.4010  149.0200 C   0  0  0  0  0  3  0  0  0  0  0  0
  161.1830  206.9530  151.1390 N   0  0  0  0  0  0  0  0  0  0  0  0
  161.6210  207.8860  150.3100 C   0  0  0  0  0  0  0  0  0  0  0  0
  161.2550  206.0740  149.1650 C   0  0  0  0  0  0  0  0  0  0  0  0
  161.6470  209.1020  152.2880 C   0  0  0  0  0  0  0  0  0  0  0  0
  161.9020  209.1310  150.9050 C   0  0  0  0  0  0  0  0  0  0  0  0
  160.9350  205.8080  150.4980 C   0  0  0  0  0  3  0  0  0  0  0  0
  161.0900  207.5500  152.6780 S   0  0  0  0  0  0  0  0  0  0  0  0
  161.1730  203.8690  148.3090 O   0  0  0  0  0  1  0  0  0  0  0  0
  160.9980  205.5450  146.7590 O   0  0  0  0  0  0  0  0  0  0  0  0
  161.1410  205.1040  148.0690 C   0  0  0  0  0  0  0  0  0  0  0  0
  162.3710  210.2960  150.2200 N   0  0  0  0  0  2  0  0  0  0  0  0
  161.8690  210.7180  148.9210 C   0  0  0  0  0  2  0  0  0  0  0  0
  161.8640  212.2360  148.8320 C   0  0  0  0  0  2  0  0  0  0  0  0
  162.6260  212.7220  147.6040 C   0  0  0  0  0  2  0  0  0  0  0  0
  161.6830  213.0800  146.4670 C   0  0  0  0  0  2  0  0  0  0  0  0
  162.4650  213.3990  145.2070 C   0  0  0  0  0  2  0  0  0  0  0  0
  161.5140  213.9070  144.1390 C   0  0  0  0  0  2  0  0  0  0  0  0
  161.7170  213.1740  142.8980 N   0  0  0  0  0  0  0  0  0  0  0  0
  162.8540  213.5380  142.0570 C   0  0  0  0  0  2  0  0  0  0  0  0
  160.9580  211.9910  142.5990 C   0  0  0  0  0  0  0  0  0  0  0  0
  161.2050  211.2930  141.4140 O   0  0  0  0  0  0  0  0  0  0  0  0
  162.6320  213.0850  140.6160 C   0  0  0  0  0  2  0  0  0  0  0  0
  160.0430  211.6000  143.3730 O   0  0  0  0  0  0  0  0  0  0  0  0
  162.3430  211.5880  140.6070 C   0  0  0  0  0  2  0  0  0  0  0  0
  161.7970  210.2310  153.2540 C   0  0  0  0  0  2  0  0  0  0  0  0
  158.9300  210.5540  155.5150 N   0  0  0  0  0  0  0  0  0  0  0  0
  160.1940  210.1490  155.2580 C   0  0  0  0  0  3  0  0  0  0  0  0
  157.1170  211.7070  154.3380 C   0  0  0  0  0  1  0  0  0  0  0  0
  159.3780  211.1340  153.4620 C   0  0  0  0  0  0  0  0  0  0  0  0
  160.5070  210.5040  153.9540 C   0  0  0  0  0  0  0  0  0  0  0  0
  158.4510  211.1430  154.4310 N   0  0  0  0  0  0  0  0  0  0  0  0
  159.1740  211.6910  152.1940 O   0  0  0  0  0  0  0  0  0  0  0  0
  159.6420  212.9800  151.8280 C   0  0  0  0  0  1  0  0  0  0  0  0
  1  4  1  0  0  0  0
  1  3  2  0  0  0  0
  2  8  1  0  0  0  0
  3  6  1  0  0  0  0
  3  2  1  0  0  0  0
  4  7  2  0  0  0  0
  5  8  1  0  0  0  0
  5 26  1  0  0  0  0
  6  5  2  0  0  0  0
  7  2  1  0  0  0  0
 10 11  2  0  0  0  0
 11  9  1  0  0  0  0
 11  4  1  0  0  0  0
 12  6  1  0  0  0  0
 13 12  1  0  0  0  0
 14 13  1  0  0  0  0
 15 14  1  0  0  0  0
 16 15  1  0  0  0  0
 17 16  1  0  0  0  0
 18 17  1  0  0  0  0
 19 18  1  0  0  0  0
 20 19  1  0  0  0  0
 21 19  1  0  0  0  0
 21 24  2  0  0  0  0
 22 21  1  0  0  0  0
 23 20  1  0  0  0  0
 25 23  1  0  0  0  0
 25 22  1  0  0  0  0
 26 31  1  0  0  0  0
 28 27  2  0  0  0  0
 29 32  1  0  0  0  0
 30 31  2  0  0  0  0
 30 32  1  0  0  0  0
 31 28  1  0  0  0  0
 32 27  1  0  0  0  0
 33 30  1  0  0  0  0
 34 33  1  0  0  0  0
M  END
>  <MODEL>
7

>  <REMARK>
 VINA RESULT:      -6.0      4.193      7.278
  Name = 
  12 active torsions:
  status: ('A' for Active; 'I' for Inactive)
    1  A    between atoms: N_1  and  C_14
    2  A    between atoms: O_7  and  C_25
    3  A    between atoms: C_9  and  C_12
    4  A    between atoms: C_10  and  N_13
    5  A    between atoms: C_10  and  C_22
    6  A    between atoms: N_13  and  C_30
    7  A    between atoms: C_14  and  C_15
    8  A    between atoms: C_15  and  C_29
    9  A    between atoms: C_20  and  C_21
   10  A    between atoms: C_20  and  C_26
   11  A    between atoms: C_22  and  C_33
   12  A    between atoms: C_29  and  C_33
                            x       y       z     vdW  Elec       q    Type
                         _______ _______ _______ _____ _____    ______ ____

>  <TORSDO>
F 12

$$$$
=
 OpenBabel11052411063D

 34 37  0  0  0  0  0  0  0  0999 V2000
  160.8640  209.7050  153.2870 C   0  0  0  0  0  3  0  0  0  0  0  0
  159.6060  211.4920  153.7120 N   0  0  0  0  0  0  0  0  0  0  0  0
  160.4060  210.9220  152.8250 C   0  0  0  0  0  0  0  0  0  0  0  0
  160.2550  209.6060  154.5490 C   0  0  0  0  0  0  0  0  0  0  0  0
  159.8850  212.8670  151.6670 C   0  0  0  0  0  0  0  0  0  0  0  0
  160.6030  211.6570  151.6400 C   0  0  0  0  0  0  0  0  0  0  0  0
  159.4670  210.7320  154.8020 C   0  0  0  0  0  3  0  0  0  0  0  0
  159.0560  212.9430  153.1430 S   0  0  0  0  0  0  0  0  0  0  0  0
  160.5160  208.6770  156.7110 O   0  0  0  0  0  1  0  0  0  0  0  0
  160.4630  207.1770  154.9830 O   0  0  0  0  0  0  0  0  0  0  0  0
  160.4170  208.4760  155.4720 C   0  0  0  0  0  0  0  0  0  0  0  0
  161.4080  211.2490  150.5300 N   0  0  0  0  0  2  0  0  0  0  0  0
  162.1140  209.9780  150.4780 C   0  0  0  0  0  2  0  0  0  0  0  0
  161.9570  209.3500  149.1020 C   0  0  0  0  0  2  0  0  0  0  0  0
  161.8130  207.8350  149.1960 C   0  0  0  0  0  2  0  0  0  0  0  0
  161.3620  207.2340  147.8740 C   0  0  0  0  0  2  0  0  0  0  0  0
  161.4180  205.7200  147.9310 C   0  0  0  0  0  2  0  0  0  0  0  0
  160.9100  205.2490  149.2820 C   0  0  0  0  0  2  0  0  0  0  0  0
  160.9070  203.7930  149.3350 N   0  0  0  0  0  0  0  0  0  0  0  0
  161.2070  203.0550  148.1120 C   0  0  0  0  0  2  0  0  0  0  0  0
  160.8210  203.0950  150.5890 C   0  0  0  0  0  0  0  0  0  0  0  0
  160.8560  201.6980  150.6030 O   0  0  0  0  0  0  0  0  0  0  0  0
  160.6580  201.6330  148.1870 C   0  0  0  0  0  2  0  0  0  0  0  0
  160.6710  203.7260  151.6690 O   0  0  0  0  0  0  0  0  0  0  0  0
  161.2070  200.9560  149.4380 C   0  0  0  0  0  2  0  0  0  0  0  0
  159.8190  213.8970  150.5890 C   0  0  0  0  0  2  0  0  0  0  0  0
  156.7850  213.0380  148.7200 N   0  0  0  0  0  0  0  0  0  0  0  0
  157.4170  213.3350  149.8770 C   0  0  0  0  0  3  0  0  0  0  0  0
  157.3540  212.8010  146.3490 C   0  0  0  0  0  1  0  0  0  0  0  0
  158.8810  213.3820  148.2300 C   0  0  0  0  0  0  0  0  0  0  0  0
  158.7570  213.5580  149.5960 C   0  0  0  0  0  0  0  0  0  0  0  0
  157.6730  213.0690  147.7390 N   0  0  0  0  0  0  0  0  0  0  0  0
  160.0290  213.5000  147.4360 O   0  0  0  0  0  0  0  0  0  0  0  0
  160.9790  212.4560  147.2860 C   0  0  0  0  0  1  0  0  0  0  0  0
  1  4  1  0  0  0  0
  2  7  1  0  0  0  0
  3  1  2  0  0  0  0
  3  2  1  0  0  0  0
  4  7  2  0  0  0  0
  4 11  1  0  0  0  0
  5  8  1  0  0  0  0
  6  5  2  0  0  0  0
  6  3  1  0  0  0  0
  8  2  1  0  0  0  0
 10 11  2  0  0  0  0
 11  9  1  0  0  0  0
 12  6  1  0  0  0  0
 13 12  1  0  0  0  0
 14 15  1  0  0  0  0
 14 13  1  0  0  0  0
 16 17  1  0  0  0  0
 16 15  1  0  0  0  0
 17 18  1  0  0  0  0
 18 19  1  0  0  0  0
 19 21  1  0  0  0  0
 20 23  1  0  0  0  0
 20 19  1  0  0  0  0
 21 22  1  0  0  0  0
 21 24  2  0  0  0  0
 23 25  1  0  0  0  0
 25 22  1  0  0  0  0
 26  5  1  0  0  0  0
 27 28  2  0  0  0  0
 29 32  1  0  0  0  0
 30 31  2  0  0  0  0
 31 28  1  0  0  0  0
 31 26  1  0  0  0  0
 32 30  1  0  0  0  0
 32 27  1  0  0  0  0
 33 30  1  0  0  0  0
 34 33  1  0  0  0  0
M  END
>  <MODEL>
8

>  <REMARK>
 VINA RESULT:      -6.0      3.315      5.989
  Name = 
  12 active torsions:
  status: ('A' for Active; 'I' for Inactive)
    1  A    between atoms: N_1  and  C_14
    2  A    between atoms: O_7  and  C_25
    3  A    between atoms: C_9  and  C_12
    4  A    between atoms: C_10  and  N_13
    5  A    between atoms: C_10  and  C_22
    6  A    between atoms: N_13  and  C_30
    7  A    between atoms: C_14  and  C_15
    8  A    between atoms: C_15  and  C_29
    9  A    between atoms: C_20  and  C_21
   10  A    between atoms: C_20  and  C_26
   11  A    between atoms: C_22  and  C_33
   12  A    between atoms: C_29  and  C_33
                            x       y       z     vdW  Elec       q    Type
                         _______ _______ _______ _____ _____    ______ ____

>  <TORSDO>
F 12

$$$$
=
 OpenBabel11052411063D

 34 37  0  0  0  0  0  0  0  0999 V2000
  160.9780  208.0950  152.9920 C   0  0  0  0  0  3  0  0  0  0  0  0
  161.2820  205.9340  152.5530 N   0  0  0  0  0  0  0  0  0  0  0  0
  161.1540  207.1350  152.0150 C   0  0  0  0  0  0  0  0  0  0  0  0
  161.0130  207.3380  154.1750 C   0  0  0  0  0  0  0  0  0  0  0  0
  161.4250  205.8840  150.0780 C   0  0  0  0  0  0  0  0  0  0  0  0
  161.2270  207.1720  150.6090 C   0  0  0  0  0  0  0  0  0  0  0  0
  161.2060  205.9860  153.8850 C   0  0  0  0  0  3  0  0  0  0  0  0
  161.5010  204.7960  151.3740 S   0  0  0  0  0  0  0  0  0  0  0  0
  161.8740  207.9810  156.2840 O   0  0  0  0  0  1  0  0  0  0  0  0
  159.6300  208.3160  155.9820 O   0  0  0  0  0  0  0  0  0  0  0  0
  160.8720  207.8910  155.5280 C   0  0  0  0  0  0  0  0  0  0  0  0
  161.1320  208.3480  149.7990 N   0  0  0  0  0  2  0  0  0  0  0  0
  162.0920  209.4390  149.8570 C   0  0  0  0  0  2  0  0  0  0  0  0
  161.9690  210.3080  148.6160 C   0  0  0  0  0  2  0  0  0  0  0  0
  162.2940  211.7660  148.9240 C   0  0  0  0  0  2  0  0  0  0  0  0
  162.4010  212.5940  147.6530 C   0  0  0  0  0  2  0  0  0  0  0  0
  161.3570  213.6940  147.6460 C   0  0  0  0  0  2  0  0  0  0  0  0
  160.0230  213.1180  147.2050 C   0  0  0  0  0  2  0  0  0  0  0  0
  159.0200  213.3320  148.2390 N   0  0  0  0  0  0  0  0  0  0  0  0
  159.4180  214.0360  149.4550 C   0  0  0  0  0  2  0  0  0  0  0  0
  157.6310  213.0500  147.9980 C   0  0  0  0  0  0  0  0  0  0  0  0
  156.6920  213.3000  149.0020 O   0  0  0  0  0  0  0  0  0  0  0  0
  158.4650  213.7180  150.6040 C   0  0  0  0  0  2  0  0  0  0  0  0
  157.2570  212.5410  146.9080 O   0  0  0  0  0  0  0  0  0  0  0  0
  157.0400  214.0410  150.1700 C   0  0  0  0  0  2  0  0  0  0  0  0
  161.5800  205.5200  148.6380 C   0  0  0  0  0  2  0  0  0  0  0  0
  160.6420  201.9800  148.7920 N   0  0  0  0  0  0  0  0  0  0  0  0
  160.8300  203.1810  149.3840 C   0  0  0  0  0  3  0  0  0  0  0  0
  160.8280  201.0120  146.5500 C   0  0  0  0  0  1  0  0  0  0  0  0
  161.2870  203.3630  147.2350 C   0  0  0  0  0  0  0  0  0  0  0  0
  161.2430  204.0830  148.4150 C   0  0  0  0  0  0  0  0  0  0  0  0
  160.9190  202.1010  147.5040 N   0  0  0  0  0  0  0  0  0  0  0  0
  161.6350  203.8080  145.9540 O   0  0  0  0  0  0  0  0  0  0  0  0
  162.9050  204.3650  145.6450 C   0  0  0  0  0  1  0  0  0  0  0  0
  1  4  1  0  0  0  0
  2  7  1  0  0  0  0
  3  2  1  0  0  0  0
  3  1  2  0  0  0  0
  4 11  1  0  0  0  0
  5  6  2  0  0  0  0
  5  8  1  0  0  0  0
  6  3  1  0  0  0  0
  7  4  2  0  0  0  0
  8  2  1  0  0  0  0
 11 10  2  0  0  0  0
 11  9  1  0  0  0  0
 12 13  1  0  0  0  0
 12  6  1  0  0  0  0
 14 15  1  0  0  0  0
 14 13  1  0  0  0  0
 16 15  1  0  0  0  0
 17 16  1  0  0  0  0
 18 17  1  0  0  0  0
 18 19  1  0  0  0  0
 19 20  1  0  0  0  0
 20 23  1  0  0  0  0
 21 19  1  0  0  0  0
 21 22  1  0  0  0  0
 22 25  1  0  0  0  0
 24 21  2  0  0  0  0
 25 23  1  0  0  0  0
 26  5  1  0  0  0  0
 27 28  2  0  0  0  0
 29 32  1  0  0  0  0
 30 32  1  0  0  0  0
 30 31  2  0  0  0  0
 31 26  1  0  0  0  0
 31 28  1  0  0  0  0
 32 27  1  0  0  0  0
 33 30  1  0  0  0  0
 34 33  1  0  0  0  0
M  END
>  <MODEL>
9

>  <REMARK>
 VINA RESULT:      -6.0      3.356      9.649
  Name = 
  12 active torsions:
  status: ('A' for Active; 'I' for Inactive)
    1  A    between atoms: N_1  and  C_14
    2  A    between atoms: O_7  and  C_25
    3  A    between atoms: C_9  and  C_12
    4  A    between atoms: C_10  and  N_13
    5  A    between atoms: C_10  and  C_22
    6  A    between atoms: N_13  and  C_30
    7  A    between atoms: C_14  and  C_15
    8  A    between atoms: C_15  and  C_29
    9  A    between atoms: C_20  and  C_21
   10  A    between atoms: C_20  and  C_26
   11  A    between atoms: C_22  and  C_33
   12  A    between atoms: C_29  and  C_33
                            x       y       z     vdW  Elec       q    Type
                         _______ _______ _______ _____ _____    ______ ____

>  <TORSDO>
F 12

$$$$
