=
 OpenBabel11042420233D

 36 39  0  0  1  0  0  0  0  0999 V2000
  161.1230  208.9550  151.8290 C   0  0  1  0  0  3  0  0  0  0  0  0
  160.7370  211.9070  150.9010 C   0  0  0  0  0  0  0  0  0  0  0  0
  159.2270  210.9370  154.0590 O   0  0  0  0  0  0  0  0  0  0  0  0
  160.9520  209.5980  153.1810 C   0  0  0  0  0  2  0  0  0  0  0  0
  162.1720  209.7550  151.1000 C   0  0  0  0  0  2  0  0  0  0  0  0
  160.0520  210.7900  153.1210 C   0  0  0  0  0  0  0  0  0  0  0  0
  160.1030  211.8470  152.0870 C   0  0  0  0  0  3  0  0  0  0  0  0
  161.5540  210.8500  150.3740 N   0  0  0  0  0  2  0  0  0  0  0  0
  160.5730  206.9090  149.8410 N   0  0  0  0  0  2  0  0  0  0  0  0
  161.3750  206.6010  150.9820 C   0  0  0  0  0  0  0  0  0  0  0  0
  161.5880  207.5870  151.9940 N   0  0  0  0  0  2  0  0  0  0  0  0
  161.8960  205.4610  151.1070 O   0  0  0  0  0  0  0  0  0  0  0  0
  160.4370  206.0060  148.7090 C   0  0  0  0  0  2  0  0  0  0  0  0
  160.6140  206.6920  146.4520 F   0  0  0  0  0  0  0  0  0  0  0  0
  162.0480  207.5900  147.9350 F   0  0  0  0  0  0  0  0  0  0  0  0
  161.3680  206.4350  147.5820 C   0  0  0  0  0  0  0  0  0  0  0  0
  162.3590  205.3180  147.2600 C   0  0  0  0  0  2  0  0  0  0  0  0
  161.6880  204.0110  146.9570 C   0  0  0  0  0  0  0  0  0  0  0  0
  160.9570  201.3970  146.2540 C   0  0  0  0  0  2  0  0  0  0  0  0
  161.3970  203.1630  147.9580 C   0  0  0  0  0  3  0  0  0  0  0  0
  160.7510  201.8280  147.7030 C   0  0  0  0  0  2  0  0  0  0  0  0
  160.5770  202.4940  145.3670 N   0  0  0  0  0  2  0  0  0  0  0  0
  161.5550  203.5730  145.5190 C   0  0  0  0  0  2  0  0  0  0  0  0
  160.0040  214.1940  150.6680 O   0  0  0  0  0  1  0  0  0  0  0  0
  160.5450  213.0880  150.0980 N   0  0  0  0  0  0  0  0  0  0  0  0
  160.5870  212.6650  146.4340 C   0  0  0  0  0  0  0  0  0  0  0  0
  159.7300  212.2530  145.3190 C   0  0  0  0  0  3  0  0  0  0  0  0
  160.9760  213.1510  148.7560 N   0  0  0  0  0  0  0  0  0  0  0  0
  160.1390  212.6620  147.6890 C   0  0  0  0  0  3  0  0  0  0  0  0
  162.1400  213.9300  148.4210 C   0  0  0  0  0  3  0  0  0  0  0  0
  162.0220  213.0270  146.1370 C   0  0  2  0  0  3  0  0  0  0  0  0
  160.1040  212.5460  144.0710 C   0  0  0  0  0  3  0  0  0  0  0  0
  162.6260  213.9270  147.1770 C   0  0  0  0  0  3  0  0  0  0  0  0
  161.6120  213.8360  142.4560 C   0  0  0  0  0  1  0  0  0  0  0  0
  162.1780  213.5750  144.7860 N   0  0  0  0  0  0  0  0  0  0  0  0
  161.3480  213.3050  143.8180 C   0  0  0  0  0  0  0  0  0  0  0  0
  1 11  1  1  0  0  0
  1  4  1  0  0  0  0
  2  7  2  0  0  0  0
  5  1  1  0  0  0  0
  6  4  1  0  0  0  0
  6  3  2  0  0  0  0
  7  6  1  0  0  0  0
  8  2  1  0  0  0  0
  8  5  1  0  0  0  0
  9 10  1  0  0  0  0
 10 12  2  0  0  0  0
 10 11  1  0  0  0  0
 13  9  1  0  0  0  0
 14 16  1  0  0  0  0
 16 15  1  0  0  0  0
 16 13  1  0  0  0  0
 17 16  1  0  0  0  0
 18 17  1  0  0  0  0
 18 20  2  0  0  0  0
 19 21  1  0  0  0  0
 21 20  1  0  0  0  0
 22 23  1  0  0  0  0
 22 19  1  0  0  0  0
 23 18  1  0  0  0  0
 25 24  1  0  0  0  0
 25  2  1  0  0  0  0
 26 29  2  0  0  0  0
 27 26  1  0  0  0  0
 28 25  1  0  0  0  0
 29 28  1  0  0  0  0
 30 28  1  0  0  0  0
 31 26  1  0  0  0  0
 31 33  1  1  0  0  0
 32 27  2  0  0  0  0
 33 30  2  0  0  0  0
 34 36  1  0  0  0  0
 35 31  1  0  0  0  0
 36 32  1  0  0  0  0
 36 35  2  0  0  0  0
M  END
>  <MODEL>
1

>  <REMARK>
 VINA RESULT:      -8.4      0.000      0.000
  Name = 
  7 active torsions:
  status: ('A' for Active; 'I' for Inactive)
    1  A    between atoms: C_2  and  C_12
    2  A    between atoms: N_4  and  N_29
    3  A    between atoms: C_5  and  N_16
    4  A    between atoms: C_5  and  C_20
    5  A    between atoms: C_6  and  N_24
    6  A    between atoms: C_7  and  N_29
    7  A    between atoms: C_12  and  C_20
                            x       y       z     vdW  Elec       q    Type
                         _______ _______ _______ _____ _____    ______ ____

>  <TORSDO>
F 7

$$$$
=
 OpenBabel11042420233D

 36 39  0  0  1  0  0  0  0  0999 V2000
  159.5440  210.8820  153.8240 C   0  0  1  0  0  3  0  0  0  0  0  0
  158.8000  212.9640  151.6260 C   0  0  0  0  0  0  0  0  0  0  0  0
  156.5420  212.6390  154.4520 O   0  0  0  0  0  0  0  0  0  0  0  0
  158.7410  211.8330  154.6740 C   0  0  0  0  0  2  0  0  0  0  0  0
  160.5520  211.7160  153.0760 C   0  0  0  0  0  2  0  0  0  0  0  0
  157.6590  212.5010  153.8900 C   0  0  0  0  0  0  0  0  0  0  0  0
  157.8170  213.0790  152.5380 C   0  0  0  0  0  3  0  0  0  0  0  0
  159.9880  212.1800  151.8220 N   0  0  0  0  0  2  0  0  0  0  0  0
  160.5500  208.3580  152.7940 N   0  0  0  0  0  2  0  0  0  0  0  0
  160.7950  208.7250  154.1530 C   0  0  0  0  0  0  0  0  0  0  0  0
  160.2410  209.9330  154.6790 N   0  0  0  0  0  2  0  0  0  0  0  0
  161.4940  207.9880  154.8970 O   0  0  0  0  0  0  0  0  0  0  0  0
  161.2010  207.2230  152.1580 C   0  0  0  0  0  2  0  0  0  0  0  0
  162.4280  208.9930  151.1790 F   0  0  0  0  0  0  0  0  0  0  0  0
  163.1380  206.8920  150.8020 F   0  0  0  0  0  0  0  0  0  0  0  0
  162.0170  207.6920  150.9600 C   0  0  0  0  0  0  0  0  0  0  0  0
  161.1640  207.6600  149.6930 C   0  0  0  0  0  2  0  0  0  0  0  0
  161.4880  206.5010  148.8000 C   0  0  0  0  0  0  0  0  0  0  0  0
  161.5620  204.4010  146.9420 C   0  0  0  0  0  2  0  0  0  0  0  0
  162.1840  206.7040  147.6680 C   0  0  0  0  0  3  0  0  0  0  0  0
  162.5080  205.5790  146.7240 C   0  0  0  0  0  2  0  0  0  0  0  0
  161.5180  204.0760  148.3650 N   0  0  0  0  0  2  0  0  0  0  0  0
  160.8370  205.1650  149.0690 C   0  0  0  0  0  2  0  0  0  0  0  0
  157.5560  214.4520  150.1910 O   0  0  0  0  0  1  0  0  0  0  0  0
  158.6260  213.6360  150.3630 N   0  0  0  0  0  0  0  0  0  0  0  0
  160.1330  212.8480  147.0900 C   0  0  0  0  0  0  0  0  0  0  0  0
  159.7740  212.3990  145.7420 C   0  0  0  0  0  3  0  0  0  0  0  0
  159.5780  213.5300  149.3270 N   0  0  0  0  0  0  0  0  0  0  0  0
  159.2080  213.0070  148.0360 C   0  0  0  0  0  3  0  0  0  0  0  0
  160.8590  214.1720  149.4740 C   0  0  0  0  0  3  0  0  0  0  0  0
  161.5940  213.0590  147.4070 C   0  0  2  0  0  3  0  0  0  0  0  0
  160.6630  212.5350  144.7540 C   0  0  0  0  0  3  0  0  0  0  0  0
  161.8130  214.0060  148.5540 C   0  0  0  0  0  3  0  0  0  0  0  0
  162.8430  213.5300  143.8590 C   0  0  0  0  0  1  0  0  0  0  0  0
  162.3580  213.4550  146.2210 N   0  0  0  0  0  0  0  0  0  0  0  0
  161.9790  213.1600  145.0100 C   0  0  0  0  0  0  0  0  0  0  0  0
  1  4  1  0  0  0  0
  1 11  1  1  0  0  0
  2  8  1  0  0  0  0
  2  7  2  0  0  0  0
  5  1  1  0  0  0  0
  6  3  2  0  0  0  0
  6  4  1  0  0  0  0
  7  6  1  0  0  0  0
  8  5  1  0  0  0  0
  9 10  1  0  0  0  0
 10 11  1  0  0  0  0
 10 12  2  0  0  0  0
 13  9  1  0  0  0  0
 15 16  1  0  0  0  0
 16 14  1  0  0  0  0
 16 13  1  0  0  0  0
 17 16  1  0  0  0  0
 18 23  1  0  0  0  0
 18 17  1  0  0  0  0
 19 22  1  0  0  0  0
 20 18  2  0  0  0  0
 21 19  1  0  0  0  0
 21 20  1  0  0  0  0
 22 23  1  0  0  0  0
 24 25  1  0  0  0  0
 25  2  1  0  0  0  0
 26 31  1  0  0  0  0
 26 29  2  0  0  0  0
 27 26  1  0  0  0  0
 28 30  1  0  0  0  0
 28 25  1  0  0  0  0
 29 28  1  0  0  0  0
 31 33  1  1  0  0  0
 32 36  1  0  0  0  0
 32 27  2  0  0  0  0
 33 30  2  0  0  0  0
 34 36  1  0  0  0  0
 35 31  1  0  0  0  0
 36 35  2  0  0  0  0
M  END
>  <MODEL>
2

>  <REMARK>
 VINA RESULT:      -8.1      2.137      2.991
  Name = 
  7 active torsions:
  status: ('A' for Active; 'I' for Inactive)
    1  A    between atoms: C_2  and  C_12
    2  A    between atoms: N_4  and  N_29
    3  A    between atoms: C_5  and  N_16
    4  A    between atoms: C_5  and  C_20
    5  A    between atoms: C_6  and  N_24
    6  A    between atoms: C_7  and  N_29
    7  A    between atoms: C_12  and  C_20
                            x       y       z     vdW  Elec       q    Type
                         _______ _______ _______ _____ _____    ______ ____

>  <TORSDO>
F 7

$$$$
=
 OpenBabel11042420233D

 36 39  0  0  1  0  0  0  0  0999 V2000
  160.2790  211.7250  153.0100 C   0  0  1  0  0  3  0  0  0  0  0  0
  160.9520  208.7100  153.4400 C   0  0  0  0  0  0  0  0  0  0  0  0
  162.2120  211.0710  155.8960 O   0  0  0  0  0  0  0  0  0  0  0  0
  160.4310  211.7370  154.5090 C   0  0  0  0  0  2  0  0  0  0  0  0
  159.3370  210.5940  152.6810 C   0  0  0  0  0  2  0  0  0  0  0  0
  161.4270  210.7260  154.9750 C   0  0  0  0  0  0  0  0  0  0  0  0
  161.5160  209.3300  154.4940 C   0  0  0  0  0  3  0  0  0  0  0  0
  160.0800  209.3600  152.5010 N   0  0  0  0  0  2  0  0  0  0  0  0
  160.6340  212.6970  150.2940 N   0  0  0  0  0  2  0  0  0  0  0  0
  159.8150  213.4220  151.2130 C   0  0  0  0  0  0  0  0  0  0  0  0
  159.6960  212.9820  152.5670 N   0  0  0  0  0  2  0  0  0  0  0  0
  159.1970  214.4530  150.8390 O   0  0  0  0  0  0  0  0  0  0  0  0
  160.6830  213.0040  148.8740 C   0  0  0  0  0  2  0  0  0  0  0  0
  162.6470  211.7260  149.2050 F   0  0  0  0  0  0  0  0  0  0  0  0
  161.3690  211.2400  147.4180 F   0  0  0  0  0  0  0  0  0  0  0  0
  161.8440  212.2670  148.2180 C   0  0  0  0  0  0  0  0  0  0  0  0
  162.6840  213.2360  147.3880 C   0  0  0  0  0  2  0  0  0  0  0  0
  162.2350  213.3240  145.9600 C   0  0  0  0  0  0  0  0  0  0  0  0
  161.4970  214.0420  143.3520 C   0  0  0  0  0  2  0  0  0  0  0  0
  163.0910  213.0150  144.9710 C   0  0  0  0  0  3  0  0  0  0  0  0
  162.6980  213.1160  143.5230 C   0  0  0  0  0  2  0  0  0  0  0  0
  160.4510  213.6520  144.2950 N   0  0  0  0  0  2  0  0  0  0  0  0
  160.9070  213.9690  145.6500 C   0  0  0  0  0  2  0  0  0  0  0  0
  161.5980  206.5460  154.2870 O   0  0  0  0  0  1  0  0  0  0  0  0
  161.2810  207.3240  153.2220 N   0  0  0  0  0  0  0  0  0  0  0  0
  161.4100  206.9410  149.5560 C   0  0  0  0  0  0  0  0  0  0  0  0
  161.8310  207.6500  148.3440 C   0  0  0  0  0  3  0  0  0  0  0  0
  161.2060  206.7360  151.9420 N   0  0  0  0  0  0  0  0  0  0  0  0
  161.5510  207.4880  150.7630 C   0  0  0  0  0  3  0  0  0  0  0  0
  161.0260  205.3110  151.8270 C   0  0  0  0  0  3  0  0  0  0  0  0
  160.7400  205.5970  149.4010 C   0  0  2  0  0  3  0  0  0  0  0  0
  161.9500  206.9690  147.2020 C   0  0  0  0  0  3  0  0  0  0  0  0
  160.8540  204.7420  150.6310 C   0  0  0  0  0  3  0  0  0  0  0  0
  162.0730  204.7370  145.9580 C   0  0  0  0  0  1  0  0  0  0  0  0
  161.2040  204.8920  148.2030 N   0  0  0  0  0  0  0  0  0  0  0  0
  161.6920  205.5120  147.1670 C   0  0  0  0  0  0  0  0  0  0  0  0
  1 11  1  1  0  0  0
  1  4  1  0  0  0  0
  2  7  2  0  0  0  0
  4  6  1  0  0  0  0
  5  1  1  0  0  0  0
  6  3  2  0  0  0  0
  7  6  1  0  0  0  0
  8  5  1  0  0  0  0
  8  2  1  0  0  0  0
  9 10  1  0  0  0  0
 10 11  1  0  0  0  0
 12 10  2  0  0  0  0
 13  9  1  0  0  0  0
 15 16  1  0  0  0  0
 16 13  1  0  0  0  0
 16 14  1  0  0  0  0
 17 16  1  0  0  0  0
 18 17  1  0  0  0  0
 19 21  1  0  0  0  0
 19 22  1  0  0  0  0
 20 18  2  0  0  0  0
 21 20  1  0  0  0  0
 22 23  1  0  0  0  0
 23 18  1  0  0  0  0
 25  2  1  0  0  0  0
 25 24  1  0  0  0  0
 26 29  2  0  0  0  0
 27 26  1  0  0  0  0
 28 25  1  0  0  0  0
 29 28  1  0  0  0  0
 30 28  1  0  0  0  0
 31 26  1  0  0  0  0
 31 33  1  1  0  0  0
 32 27  2  0  0  0  0
 33 30  2  0  0  0  0
 34 36  1  0  0  0  0
 35 31  1  0  0  0  0
 36 32  1  0  0  0  0
 36 35  2  0  0  0  0
M  END
>  <MODEL>
3

>  <REMARK>
 VINA RESULT:      -8.0      2.114      7.590
  Name = 
  7 active torsions:
  status: ('A' for Active; 'I' for Inactive)
    1  A    between atoms: C_2  and  C_12
    2  A    between atoms: N_4  and  N_29
    3  A    between atoms: C_5  and  N_16
    4  A    between atoms: C_5  and  C_20
    5  A    between atoms: C_6  and  N_24
    6  A    between atoms: C_7  and  N_29
    7  A    between atoms: C_12  and  C_20
                            x       y       z     vdW  Elec       q    Type
                         _______ _______ _______ _____ _____    ______ ____

>  <TORSDO>
F 7

$$$$
=
 OpenBabel11042420233D

 36 39  0  0  1  0  0  0  0  0999 V2000
  160.8180  209.2760  153.3040 C   0  0  1  0  0  3  0  0  0  0  0  0
  161.2470  206.3660  152.2690 C   0  0  0  0  0  0  0  0  0  0  0  0
  162.3170  209.0830  150.1090 O   0  0  0  0  0  0  0  0  0  0  0  0
  161.9940  209.5280  152.3970 C   0  0  0  0  0  2  0  0  0  0  0  0
  161.1940  208.1130  154.1870 C   0  0  0  0  0  2  0  0  0  0  0  0
  162.0040  208.5990  151.2270 C   0  0  0  0  0  0  0  0  0  0  0  0
  161.7480  207.1430  151.2910 C   0  0  0  0  0  3  0  0  0  0  0  0
  160.8260  206.8620  153.5500 N   0  0  0  0  0  2  0  0  0  0  0  0
  159.6240  211.6890  152.2110 N   0  0  0  0  0  2  0  0  0  0  0  0
  159.9270  211.6090  153.6050 C   0  0  0  0  0  0  0  0  0  0  0  0
  160.5770  210.4490  154.1300 N   0  0  0  0  0  2  0  0  0  0  0  0
  159.6280  212.5560  154.3780 O   0  0  0  0  0  0  0  0  0  0  0  0
  158.8370  212.7700  151.6400 C   0  0  0  0  0  2  0  0  0  0  0  0
  158.7830  214.1570  149.7230 F   0  0  0  0  0  0  0  0  0  0  0  0
  160.4680  214.4530  151.1830 F   0  0  0  0  0  0  0  0  0  0  0  0
  159.6490  213.5090  150.5840 C   0  0  0  0  0  0  0  0  0  0  0  0
  160.4880  212.5220  149.7750 C   0  0  0  0  0  2  0  0  0  0  0  0
  160.9060  213.0650  148.4410 C   0  0  0  0  0  0  0  0  0  0  0  0
  161.9840  213.5990  145.9080 C   0  0  0  0  0  2  0  0  0  0  0  0
  160.0840  212.9460  147.3850 C   0  0  0  0  0  3  0  0  0  0  0  0
  160.4700  213.4470  146.0200 C   0  0  0  0  0  2  0  0  0  0  0  0
  162.4780  214.3580  147.0550 N   0  0  0  0  0  2  0  0  0  0  0  0
  162.3290  213.5340  148.2560 C   0  0  0  0  0  2  0  0  0  0  0  0
  160.8200  204.1120  153.0180 O   0  0  0  0  0  1  0  0  0  0  0  0
  161.0850  204.9610  151.9930 N   0  0  0  0  0  0  0  0  0  0  0  0
  161.2160  202.5710  149.1860 C   0  0  0  0  0  0  0  0  0  0  0  0
  161.1350  201.1360  148.8990 C   0  0  0  0  0  3  0  0  0  0  0  0
  161.1160  204.4550  150.6760 N   0  0  0  0  0  0  0  0  0  0  0  0
  161.1160  203.0350  150.4320 C   0  0  0  0  0  3  0  0  0  0  0  0
  160.8950  205.3480  149.5680 C   0  0  0  0  0  3  0  0  0  0  0  0
  161.4890  203.5150  148.0400 C   0  0  2  0  0  3  0  0  0  0  0  0
  160.9410  200.7370  147.6400 C   0  0  0  0  0  3  0  0  0  0  0  0
  161.0170  204.9160  148.3100 C   0  0  0  0  0  3  0  0  0  0  0  0
  160.3160  201.2730  145.2180 C   0  0  0  0  0  1  0  0  0  0  0  0
  160.9650  202.9990  146.7720 N   0  0  0  0  0  0  0  0  0  0  0  0
  160.7780  201.7280  146.5540 C   0  0  0  0  0  0  0  0  0  0  0  0
  1 11  1  1  0  0  0
  1  5  1  0  0  0  0
  2  8  1  0  0  0  0
  3  6  2  0  0  0  0
  4  1  1  0  0  0  0
  6  7  1  0  0  0  0
  6  4  1  0  0  0  0
  7  2  2  0  0  0  0
  8  5  1  0  0  0  0
  9 10  1  0  0  0  0
 10 11  1  0  0  0  0
 10 12  2  0  0  0  0
 13  9  1  0  0  0  0
 14 16  1  0  0  0  0
 16 15  1  0  0  0  0
 16 13  1  0  0  0  0
 17 16  1  0  0  0  0
 18 17  1  0  0  0  0
 19 21  1  0  0  0  0
 19 22  1  0  0  0  0
 20 18  2  0  0  0  0
 21 20  1  0  0  0  0
 22 23  1  0  0  0  0
 23 18  1  0  0  0  0
 25  2  1  0  0  0  0
 25 24  1  0  0  0  0
 26 29  2  0  0  0  0
 27 26  1  0  0  0  0
 28 25  1  0  0  0  0
 29 28  1  0  0  0  0
 30 28  1  0  0  0  0
 31 33  1  1  0  0  0
 31 26  1  0  0  0  0
 32 27  2  0  0  0  0
 33 30  2  0  0  0  0
 34 36  1  0  0  0  0
 35 31  1  0  0  0  0
 36 35  2  0  0  0  0
 36 32  1  0  0  0  0
M  END
>  <MODEL>
4

>  <REMARK>
 VINA RESULT:      -7.9      2.605      8.761
  Name = 
  7 active torsions:
  status: ('A' for Active; 'I' for Inactive)
    1  A    between atoms: C_2  and  C_12
    2  A    between atoms: N_4  and  N_29
    3  A    between atoms: C_5  and  N_16
    4  A    between atoms: C_5  and  C_20
    5  A    between atoms: C_6  and  N_24
    6  A    between atoms: C_7  and  N_29
    7  A    between atoms: C_12  and  C_20
                            x       y       z     vdW  Elec       q    Type
                         _______ _______ _______ _____ _____    ______ ____

>  <TORSDO>
F 7

$$$$
=
 OpenBabel11042420233D

 36 39  0  0  1  0  0  0  0  0999 V2000
  160.7880  209.2490  152.9280 C   0  0  1  0  0  3  0  0  0  0  0  0
  159.6560  212.1160  152.4530 C   0  0  0  0  0  0  0  0  0  0  0  0
  158.6200  210.3890  155.4760 O   0  0  0  0  0  0  0  0  0  0  0  0
  160.5540  209.6420  154.3630 C   0  0  0  0  0  2  0  0  0  0  0  0
  161.5700  210.3710  152.2940 C   0  0  0  0  0  2  0  0  0  0  0  0
  159.3960  210.5750  154.5040 C   0  0  0  0  0  0  0  0  0  0  0  0
  159.1310  211.7430  153.6350 C   0  0  0  0  0  3  0  0  0  0  0  0
  160.6660  211.3700  151.7540 N   0  0  0  0  0  2  0  0  0  0  0  0
  161.2760  207.8530  150.4260 N   0  0  0  0  0  2  0  0  0  0  0  0
  161.8690  207.3800  151.6370 C   0  0  0  0  0  0  0  0  0  0  0  0
  161.5730  208.0250  152.8780 N   0  0  0  0  0  2  0  0  0  0  0  0
  162.6500  206.3930  151.6220 O   0  0  0  0  0  0  0  0  0  0  0  0
  161.6460  207.3380  149.1180 C   0  0  0  0  0  2  0  0  0  0  0  0
  159.9280  205.8630  149.8040 F   0  0  0  0  0  0  0  0  0  0  0  0
  159.8810  206.6100  147.6830 F   0  0  0  0  0  0  0  0  0  0  0  0
  160.7100  206.2040  148.7170 C   0  0  0  0  0  0  0  0  0  0  0  0
  161.5160  204.9770  148.2960 C   0  0  0  0  0  2  0  0  0  0  0  0
  161.1400  203.7410  149.0570 C   0  0  0  0  0  0  0  0  0  0  0  0
  160.9390  201.2380  150.3040 C   0  0  0  0  0  2  0  0  0  0  0  0
  161.3030  203.7030  150.3900 C   0  0  0  0  0  3  0  0  0  0  0  0
  160.9680  202.4770  151.1950 C   0  0  0  0  0  2  0  0  0  0  0  0
  160.1080  201.5060  149.1330 N   0  0  0  0  0  2  0  0  0  0  0  0
  160.7960  202.4870  148.2910 C   0  0  0  0  0  2  0  0  0  0  0  0
  158.8920  214.3990  152.6100 O   0  0  0  0  0  1  0  0  0  0  0  0
  159.1400  213.3120  151.8370 N   0  0  0  0  0  0  0  0  0  0  0  0
  159.9110  213.5940  148.2410 C   0  0  0  0  0  0  0  0  0  0  0  0
  161.0350  213.5370  147.3020 C   0  0  0  0  0  3  0  0  0  0  0  0
  158.9600  213.4100  150.4410 N   0  0  0  0  0  0  0  0  0  0  0  0
  160.0930  213.4320  149.5510 C   0  0  0  0  0  3  0  0  0  0  0  0
  157.6440  213.2360  149.8820 C   0  0  0  0  0  3  0  0  0  0  0  0
  158.5400  213.9150  147.6950 C   0  0  2  0  0  3  0  0  0  0  0  0
  160.7850  213.4070  145.9970 C   0  0  0  0  0  3  0  0  0  0  0  0
  157.4290  213.4210  148.5770 C   0  0  0  0  0  3  0  0  0  0  0  0
  159.1510  212.8930  144.0960 C   0  0  0  0  0  1  0  0  0  0  0  0
  158.3830  213.4560  146.3120 N   0  0  0  0  0  0  0  0  0  0  0  0
  159.3940  213.2890  145.5070 C   0  0  0  0  0  0  0  0  0  0  0  0
  1 11  1  1  0  0  0
  1  4  1  0  0  0  0
  2  7  2  0  0  0  0
  4  6  1  0  0  0  0
  5  1  1  0  0  0  0
  6  3  2  0  0  0  0
  7  6  1  0  0  0  0
  8  5  1  0  0  0  0
  8  2  1  0  0  0  0
  9 10  1  0  0  0  0
 10 11  1  0  0  0  0
 12 10  2  0  0  0  0
 13  9  1  0  0  0  0
 15 16  1  0  0  0  0
 16 13  1  0  0  0  0
 16 14  1  0  0  0  0
 17 16  1  0  0  0  0
 17 18  1  0  0  0  0
 18 20  2  0  0  0  0
 19 21  1  0  0  0  0
 20 21  1  0  0  0  0
 22 19  1  0  0  0  0
 23 18  1  0  0  0  0
 23 22  1  0  0  0  0
 25  2  1  0  0  0  0
 25 24  1  0  0  0  0
 26 29  2  0  0  0  0
 27 26  1  0  0  0  0
 28 25  1  0  0  0  0
 29 28  1  0  0  0  0
 30 28  1  0  0  0  0
 31 26  1  0  0  0  0
 31 33  1  1  0  0  0
 32 27  2  0  0  0  0
 33 30  2  0  0  0  0
 34 36  1  0  0  0  0
 35 31  1  0  0  0  0
 36 32  1  0  0  0  0
 36 35  2  0  0  0  0
M  END
>  <MODEL>
5

>  <REMARK>
 VINA RESULT:      -7.9      1.973      2.658
  Name = 
  7 active torsions:
  status: ('A' for Active; 'I' for Inactive)
    1  A    between atoms: C_2  and  C_12
    2  A    between atoms: N_4  and  N_29
    3  A    between atoms: C_5  and  N_16
    4  A    between atoms: C_5  and  C_20
    5  A    between atoms: C_6  and  N_24
    6  A    between atoms: C_7  and  N_29
    7  A    between atoms: C_12  and  C_20
                            x       y       z     vdW  Elec       q    Type
                         _______ _______ _______ _____ _____    ______ ____

>  <TORSDO>
F 7

$$$$
=
 OpenBabel11042420233D

 36 39  0  0  1  0  0  0  0  0999 V2000
  161.2600  207.4960  153.4560 C   0  0  1  0  0  3  0  0  0  0  0  0
  161.4690  207.0490  150.3760 C   0  0  0  0  0  0  0  0  0  0  0  0
  161.5900  204.1080  152.5040 O   0  0  0  0  0  0  0  0  0  0  0  0
  160.7010  206.0990  153.3900 C   0  0  0  0  0  2  0  0  0  0  0  0
  160.5100  208.3100  152.4310 C   0  0  0  0  0  2  0  0  0  0  0  0
  161.3020  205.3100  152.2720 C   0  0  0  0  0  0  0  0  0  0  0  0
  161.5170  205.8080  150.8960 C   0  0  0  0  0  3  0  0  0  0  0  0
  161.1730  208.2280  151.1430 N   0  0  0  0  0  2  0  0  0  0  0  0
  160.8610  210.3470  153.8590 N   0  0  0  0  0  2  0  0  0  0  0  0
  160.7630  209.4470  154.9640 C   0  0  0  0  0  0  0  0  0  0  0  0
  161.0270  208.0540  154.7790 N   0  0  0  0  0  2  0  0  0  0  0  0
  160.4480  209.8720  156.1060 O   0  0  0  0  0  0  0  0  0  0  0  0
  160.4650  211.7430  153.9460 C   0  0  0  0  0  2  0  0  0  0  0  0
  158.8250  211.0550  152.3850 F   0  0  0  0  0  0  0  0  0  0  0  0
  158.1360  211.6040  154.4550 F   0  0  0  0  0  0  0  0  0  0  0  0
  159.0360  211.9140  153.4470 C   0  0  0  0  0  0  0  0  0  0  0  0
  158.8130  213.3460  152.9630 C   0  0  0  0  0  2  0  0  0  0  0  0
  158.7760  213.4580  151.4680 C   0  0  0  0  0  0  0  0  0  0  0  0
  158.5920  214.2160  148.7740 C   0  0  0  0  0  2  0  0  0  0  0  0
  159.9240  213.5630  150.7790 C   0  0  0  0  0  3  0  0  0  0  0  0
  159.9390  213.7080  149.2810 C   0  0  0  0  0  2  0  0  0  0  0  0
  157.5240  213.4000  149.3480 N   0  0  0  0  0  2  0  0  0  0  0  0
  157.4480  213.6780  150.7840 C   0  0  0  0  0  2  0  0  0  0  0  0
  162.3090  208.3720  148.5420 O   0  0  0  0  0  1  0  0  0  0  0  0
  161.7750  207.2030  148.9770 N   0  0  0  0  0  0  0  0  0  0  0  0
  161.4060  203.7860  147.6360 C   0  0  0  0  0  0  0  0  0  0  0  0
  161.2070  202.4000  148.0700 C   0  0  0  0  0  3  0  0  0  0  0  0
  161.6060  206.1440  148.0590 N   0  0  0  0  0  0  0  0  0  0  0  0
  161.4950  204.7820  148.5170 C   0  0  0  0  0  3  0  0  0  0  0  0
  161.2950  206.4400  146.6850 C   0  0  0  0  0  3  0  0  0  0  0  0
  161.5810  204.0540  146.1610 C   0  0  2  0  0  3  0  0  0  0  0  0
  160.8300  201.4870  147.1730 C   0  0  0  0  0  3  0  0  0  0  0  0
  161.2280  205.4630  145.7760 C   0  0  0  0  0  3  0  0  0  0  0  0
  159.9270  200.9050  144.8510 C   0  0  0  0  0  1  0  0  0  0  0  0
  160.8690  203.0710  145.3400 N   0  0  0  0  0  0  0  0  0  0  0  0
  160.5840  201.8740  145.7660 C   0  0  0  0  0  0  0  0  0  0  0  0
  1 11  1  1  0  0  0
  2  7  2  0  0  0  0
  2  8  1  0  0  0  0
  4  1  1  0  0  0  0
  5  1  1  0  0  0  0
  6  3  2  0  0  0  0
  6  4  1  0  0  0  0
  7  6  1  0  0  0  0
  8  5  1  0  0  0  0
  9 13  1  0  0  0  0
  9 10  1  0  0  0  0
 10 12  2  0  0  0  0
 11 10  1  0  0  0  0
 14 16  1  0  0  0  0
 16 13  1  0  0  0  0
 16 15  1  0  0  0  0
 17 16  1  0  0  0  0
 18 17  1  0  0  0  0
 19 21  1  0  0  0  0
 19 22  1  0  0  0  0
 20 18  2  0  0  0  0
 21 20  1  0  0  0  0
 22 23  1  0  0  0  0
 23 18  1  0  0  0  0
 24 25  1  0  0  0  0
 25  2  1  0  0  0  0
 26 27  1  0  0  0  0
 26 29  2  0  0  0  0
 28 29  1  0  0  0  0
 28 25  1  0  0  0  0
 30 28  1  0  0  0  0
 31 33  1  1  0  0  0
 31 26  1  0  0  0  0
 32 27  2  0  0  0  0
 33 30  2  0  0  0  0
 34 36  1  0  0  0  0
 35 36  2  0  0  0  0
 35 31  1  0  0  0  0
 36 32  1  0  0  0  0
M  END
>  <MODEL>
6

>  <REMARK>
 VINA RESULT:      -7.9      3.451      8.602
  Name = 
  7 active torsions:
  status: ('A' for Active; 'I' for Inactive)
    1  A    between atoms: C_2  and  C_12
    2  A    between atoms: N_4  and  N_29
    3  A    between atoms: C_5  and  N_16
    4  A    between atoms: C_5  and  C_20
    5  A    between atoms: C_6  and  N_24
    6  A    between atoms: C_7  and  N_29
    7  A    between atoms: C_12  and  C_20
                            x       y       z     vdW  Elec       q    Type
                         _______ _______ _______ _____ _____    ______ ____

>  <TORSDO>
F 7

$$$$
=
 OpenBabel11042420233D

 36 39  0  0  1  0  0  0  0  0999 V2000
  161.6250  209.3450  151.8640 C   0  0  1  0  0  3  0  0  0  0  0  0
  162.0880  210.9290  149.2180 C   0  0  0  0  0  0  0  0  0  0  0  0
  162.1340  207.3030  149.0240 O   0  0  0  0  0  0  0  0  0  0  0  0
  161.1170  208.3140  150.8890 C   0  0  0  0  0  2  0  0  0  0  0  0
  160.9330  210.6400  151.5230 C   0  0  0  0  0  2  0  0  0  0  0  0
  161.8280  208.3900  149.5770 C   0  0  0  0  0  0  0  0  0  0  0  0
  162.1350  209.6370  148.8430 C   0  0  0  0  0  3  0  0  0  0  0  0
  161.6970  211.3700  150.5280 N   0  0  0  0  0  2  0  0  0  0  0  0
  161.1860  206.5620  152.5770 N   0  0  0  0  0  2  0  0  0  0  0  0
  161.1250  207.5760  153.5810 C   0  0  0  0  0  0  0  0  0  0  0  0
  161.2730  208.9510  153.2190 N   0  0  0  0  0  2  0  0  0  0  0  0
  160.9380  207.2690  154.7880 O   0  0  0  0  0  0  0  0  0  0  0  0
  161.1900  205.1430  152.8940 C   0  0  0  0  0  2  0  0  0  0  0  0
  162.7240  204.9350  151.1040 F   0  0  0  0  0  0  0  0  0  0  0  0
  161.9540  203.0440  152.0490 F   0  0  0  0  0  0  0  0  0  0  0  0
  161.6160  204.3350  151.6740 C   0  0  0  0  0  0  0  0  0  0  0  0
  160.4930  204.3070  150.6400 C   0  0  0  0  0  2  0  0  0  0  0  0
  160.8130  203.4470  149.4530 C   0  0  0  0  0  0  0  0  0  0  0  0
  160.8510  201.8650  147.1390 C   0  0  0  0  0  2  0  0  0  0  0  0
  161.2910  204.0100  148.3310 C   0  0  0  0  0  3  0  0  0  0  0  0
  161.5990  203.1950  147.1050 C   0  0  0  0  0  2  0  0  0  0  0  0
  161.0720  201.2210  148.4320 N   0  0  0  0  0  2  0  0  0  0  0  0
  160.3810  202.0010  149.4610 C   0  0  0  0  0  2  0  0  0  0  0  0
  163.8090  212.2600  148.1740 O   0  0  0  0  0  1  0  0  0  0  0  0
  162.4980  211.9220  148.2570 N   0  0  0  0  0  0  0  0  0  0  0  0
  161.1740  213.6310  145.2680 C   0  0  0  0  0  0  0  0  0  0  0  0
  161.5870  214.1130  143.9470 C   0  0  0  0  0  3  0  0  0  0  0  0
  161.5850  212.4940  147.3460 N   0  0  0  0  0  0  0  0  0  0  0  0
  162.0370  213.0320  146.0880 C   0  0  0  0  0  3  0  0  0  0  0  0
  160.1700  212.3200  147.5560 C   0  0  0  0  0  3  0  0  0  0  0  0
  159.7560  213.8960  145.7140 C   0  0  2  0  0  3  0  0  0  0  0  0
  160.6510  214.4310  143.0510 C   0  0  0  0  0  3  0  0  0  0  0  0
  159.2850  212.9330  146.7660 C   0  0  0  0  0  3  0  0  0  0  0  0
  158.2090  214.3870  142.2880 C   0  0  0  0  0  1  0  0  0  0  0  0
  158.8310  213.9580  144.5790 N   0  0  0  0  0  0  0  0  0  0  0  0
  159.2160  214.2700  143.3740 C   0  0  0  0  0  0  0  0  0  0  0  0
  1 11  1  1  0  0  0
  2  8  1  0  0  0  0
  3  6  2  0  0  0  0
  4  1  1  0  0  0  0
  5  1  1  0  0  0  0
  6  4  1  0  0  0  0
  7  2  2  0  0  0  0
  7  6  1  0  0  0  0
  8  5  1  0  0  0  0
  9 13  1  0  0  0  0
  9 10  1  0  0  0  0
 10 12  2  0  0  0  0
 11 10  1  0  0  0  0
 14 16  1  0  0  0  0
 16 15  1  0  0  0  0
 16 13  1  0  0  0  0
 17 16  1  0  0  0  0
 18 23  1  0  0  0  0
 18 17  1  0  0  0  0
 19 22  1  0  0  0  0
 20 18  2  0  0  0  0
 21 19  1  0  0  0  0
 21 20  1  0  0  0  0
 22 23  1  0  0  0  0
 24 25  1  0  0  0  0
 25  2  1  0  0  0  0
 26 31  1  0  0  0  0
 26 29  2  0  0  0  0
 27 26  1  0  0  0  0
 28 30  1  0  0  0  0
 28 25  1  0  0  0  0
 29 28  1  0  0  0  0
 31 33  1  1  0  0  0
 32 36  1  0  0  0  0
 32 27  2  0  0  0  0
 33 30  2  0  0  0  0
 34 36  1  0  0  0  0
 35 31  1  0  0  0  0
 36 35  2  0  0  0  0
M  END
>  <MODEL>
7

>  <REMARK>
 VINA RESULT:      -7.8      2.415      3.413
  Name = 
  7 active torsions:
  status: ('A' for Active; 'I' for Inactive)
    1  A    between atoms: C_2  and  C_12
    2  A    between atoms: N_4  and  N_29
    3  A    between atoms: C_5  and  N_16
    4  A    between atoms: C_5  and  C_20
    5  A    between atoms: C_6  and  N_24
    6  A    between atoms: C_7  and  N_29
    7  A    between atoms: C_12  and  C_20
                            x       y       z     vdW  Elec       q    Type
                         _______ _______ _______ _____ _____    ______ ____

>  <TORSDO>
F 7

$$$$
=
 OpenBabel11042420233D

 36 39  0  0  1  0  0  0  0  0999 V2000
  160.5860  210.6760  152.0860 C   0  0  1  0  0  3  0  0  0  0  0  0
  161.3820  207.6880  152.4950 C   0  0  0  0  0  0  0  0  0  0  0  0
  162.2270  209.2230  149.3130 O   0  0  0  0  0  0  0  0  0  0  0  0
  161.7630  210.6230  151.1470 C   0  0  0  0  0  2  0  0  0  0  0  0
  161.0540  210.0980  153.3980 C   0  0  0  0  0  2  0  0  0  0  0  0
  161.9250  209.2700  150.5330 C   0  0  0  0  0  0  0  0  0  0  0  0
  161.8330  207.9860  151.2620 C   0  0  0  0  0  3  0  0  0  0  0  0
  160.8560  208.6610  153.4120 N   0  0  0  0  0  2  0  0  0  0  0  0
  160.5370  212.5800  149.8910 N   0  0  0  0  0  2  0  0  0  0  0  0
  160.0920  212.9730  151.1910 C   0  0  0  0  0  0  0  0  0  0  0  0
  160.1820  212.0590  152.2850 N   0  0  0  0  0  2  0  0  0  0  0  0
  159.6240  214.1260  151.3820 O   0  0  0  0  0  0  0  0  0  0  0  0
  160.3390  213.4050  148.7100 C   0  0  0  0  0  2  0  0  0  0  0  0
  162.6090  213.0770  148.1260 F   0  0  0  0  0  0  0  0  0  0  0  0
  161.0820  211.7000  147.2120 F   0  0  0  0  0  0  0  0  0  0  0  0
  161.3240  213.0030  147.6200 C   0  0  0  0  0  0  0  0  0  0  0  0
  161.2150  213.9560  146.4310 C   0  0  0  0  0  2  0  0  0  0  0  0
  161.2250  213.2460  145.1100 C   0  0  0  0  0  0  0  0  0  0  0  0
  160.9990  212.3950  142.4480 C   0  0  0  0  0  2  0  0  0  0  0  0
  162.3490  213.2210  144.3750 C   0  0  0  0  0  3  0  0  0  0  0  0
  162.4020  212.5480  143.0300 C   0  0  0  0  0  2  0  0  0  0  0  0
  160.1250  211.7950  143.4530 N   0  0  0  0  0  2  0  0  0  0  0  0
  159.9170  212.7680  144.5270 C   0  0  0  0  0  2  0  0  0  0  0  0
  161.5360  205.9980  154.2100 O   0  0  0  0  0  1  0  0  0  0  0  0
  161.3900  206.3040  152.8960 N   0  0  0  0  0  0  0  0  0  0  0  0
  161.0760  204.5070  149.6900 C   0  0  0  0  0  0  0  0  0  0  0  0
  161.3260  204.6710  148.2560 C   0  0  0  0  0  3  0  0  0  0  0  0
  161.1730  205.2610  151.9700 N   0  0  0  0  0  0  0  0  0  0  0  0
  161.3510  205.4810  150.5580 C   0  0  0  0  0  3  0  0  0  0  0  0
  161.0170  203.9110  152.4480 C   0  0  0  0  0  3  0  0  0  0  0  0
  160.4260  203.2270  150.1610 C   0  0  2  0  0  3  0  0  0  0  0  0
  161.3200  203.5920  147.4690 C   0  0  0  0  0  3  0  0  0  0  0  0
  160.7130  202.9220  151.6040 C   0  0  0  0  0  3  0  0  0  0  0  0
  161.3450  201.0490  147.1980 C   0  0  0  0  0  1  0  0  0  0  0  0
  160.7570  202.0960  149.2890 N   0  0  0  0  0  0  0  0  0  0  0  0
  161.0970  202.2460  148.0410 C   0  0  0  0  0  0  0  0  0  0  0  0
  1 11  1  1  0  0  0
  1  5  1  0  0  0  0
  2 25  1  0  0  0  0
  2  8  1  0  0  0  0
  3  6  2  0  0  0  0
  4  1  1  0  0  0  0
  5  8  1  0  0  0  0
  6  4  1  0  0  0  0
  6  7  1  0  0  0  0
  7  2  2  0  0  0  0
  9 10  1  0  0  0  0
 10 12  2  0  0  0  0
 10 11  1  0  0  0  0
 13  9  1  0  0  0  0
 15 16  1  0  0  0  0
 16 14  1  0  0  0  0
 16 13  1  0  0  0  0
 17 16  1  0  0  0  0
 18 17  1  0  0  0  0
 19 21  1  0  0  0  0
 19 22  1  0  0  0  0
 20 18  2  0  0  0  0
 21 20  1  0  0  0  0
 22 23  1  0  0  0  0
 23 18  1  0  0  0  0
 25 24  1  0  0  0  0
 26 31  1  0  0  0  0
 26 29  2  0  0  0  0
 27 26  1  0  0  0  0
 28 30  1  0  0  0  0
 28 25  1  0  0  0  0
 29 28  1  0  0  0  0
 31 33  1  1  0  0  0
 32 36  1  0  0  0  0
 32 27  2  0  0  0  0
 33 30  2  0  0  0  0
 34 36  1  0  0  0  0
 35 31  1  0  0  0  0
 36 35  2  0  0  0  0
M  END
>  <MODEL>
8

>  <REMARK>
 VINA RESULT:      -7.8      2.235      8.430
  Name = 
  7 active torsions:
  status: ('A' for Active; 'I' for Inactive)
    1  A    between atoms: C_2  and  C_12
    2  A    between atoms: N_4  and  N_29
    3  A    between atoms: C_5  and  N_16
    4  A    between atoms: C_5  and  C_20
    5  A    between atoms: C_6  and  N_24
    6  A    between atoms: C_7  and  N_29
    7  A    between atoms: C_12  and  C_20
                            x       y       z     vdW  Elec       q    Type
                         _______ _______ _______ _____ _____    ______ ____

>  <TORSDO>
F 7

$$$$
=
 OpenBabel11042420233D

 36 39  0  0  1  0  0  0  0  0999 V2000
  160.6890  210.2200  154.2460 C   0  0  1  0  0  3  0  0  0  0  0  0
  161.2190  207.3610  153.1210 C   0  0  0  0  0  0  0  0  0  0  0  0
  162.0510  210.1780  150.9850 O   0  0  0  0  0  0  0  0  0  0  0  0
  161.8090  210.5540  153.2950 C   0  0  0  0  0  2  0  0  0  0  0  0
  161.1640  209.0590  155.0820 C   0  0  0  0  0  2  0  0  0  0  0  0
  161.8140  209.6530  152.1030 C   0  0  0  0  0  0  0  0  0  0  0  0
  161.6360  208.1850  152.1420 C   0  0  0  0  0  3  0  0  0  0  0  0
  160.8320  207.8050  154.4310 N   0  0  0  0  0  2  0  0  0  0  0  0
  159.3560  212.6060  153.2570 N   0  0  0  0  0  2  0  0  0  0  0  0
  159.7090  212.5030  154.6370 C   0  0  0  0  0  0  0  0  0  0  0  0
  160.4260  211.3600  155.1100 N   0  0  0  0  0  2  0  0  0  0  0  0
  159.3960  213.4170  155.4450 O   0  0  0  0  0  0  0  0  0  0  0  0
  158.5040  213.6650  152.7410 C   0  0  0  0  0  2  0  0  0  0  0  0
  158.3490  212.2030  150.8870 F   0  0  0  0  0  0  0  0  0  0  0  0
  157.1960  214.1330  150.7980 F   0  0  0  0  0  0  0  0  0  0  0  0
  158.3750  213.5430  151.2270 C   0  0  0  0  0  0  0  0  0  0  0  0
  159.5720  214.1950  150.5390 C   0  0  0  0  0  2  0  0  0  0  0  0
  159.9640  213.5040  149.2680 C   0  0  0  0  0  0  0  0  0  0  0  0
  160.8180  212.7340  146.7100 C   0  0  0  0  0  2  0  0  0  0  0  0
  161.1670  212.9140  149.1730 C   0  0  0  0  0  3  0  0  0  0  0  0
  161.6190  212.2330  147.9090 C   0  0  0  0  0  2  0  0  0  0  0  0
  159.3920  212.6690  147.0220 N   0  0  0  0  0  2  0  0  0  0  0  0
  159.0950  213.6740  148.0450 C   0  0  0  0  0  2  0  0  0  0  0  0
  160.9320  205.0730  153.8310 O   0  0  0  0  0  1  0  0  0  0  0  0
  161.1170  205.9560  152.8170 N   0  0  0  0  0  0  0  0  0  0  0  0
  161.1620  205.9380  149.1290 C   0  0  0  0  0  0  0  0  0  0  0  0
  161.3400  206.8310  147.9810 C   0  0  0  0  0  3  0  0  0  0  0  0
  161.1270  205.4810  151.4890 N   0  0  0  0  0  0  0  0  0  0  0  0
  161.2230  206.3950  150.3790 C   0  0  0  0  0  3  0  0  0  0  0  0
  161.2930  204.0710  151.2410 C   0  0  0  0  0  3  0  0  0  0  0  0
  160.8310  204.4890  148.8620 C   0  0  2  0  0  3  0  0  0  0  0  0
  161.5670  206.3030  146.7760 C   0  0  0  0  0  3  0  0  0  0  0  0
  161.2070  203.5840  150.0010 C   0  0  0  0  0  3  0  0  0  0  0  0
  162.1680  204.2870  145.3200 C   0  0  0  0  0  1  0  0  0  0  0  0
  161.3950  204.0270  147.5910 N   0  0  0  0  0  0  0  0  0  0  0  0
  161.6680  204.8360  146.6070 C   0  0  0  0  0  0  0  0  0  0  0  0
  1  5  1  0  0  0  0
  1 11  1  1  0  0  0
  2  8  1  0  0  0  0
  3  6  2  0  0  0  0
  4  1  1  0  0  0  0
  6  7  1  0  0  0  0
  6  4  1  0  0  0  0
  7  2  2  0  0  0  0
  8  5  1  0  0  0  0
  9 10  1  0  0  0  0
 10 11  1  0  0  0  0
 10 12  2  0  0  0  0
 13  9  1  0  0  0  0
 14 16  1  0  0  0  0
 15 16  1  0  0  0  0
 16 13  1  0  0  0  0
 17 16  1  0  0  0  0
 18 17  1  0  0  0  0
 19 22  1  0  0  0  0
 19 21  1  0  0  0  0
 20 18  2  0  0  0  0
 21 20  1  0  0  0  0
 22 23  1  0  0  0  0
 23 18  1  0  0  0  0
 25  2  1  0  0  0  0
 25 24  1  0  0  0  0
 26 29  2  0  0  0  0
 27 26  1  0  0  0  0
 28 25  1  0  0  0  0
 29 28  1  0  0  0  0
 30 28  1  0  0  0  0
 31 26  1  0  0  0  0
 31 33  1  1  0  0  0
 32 27  2  0  0  0  0
 33 30  2  0  0  0  0
 34 36  1  0  0  0  0
 35 31  1  0  0  0  0
 36 32  1  0  0  0  0
 36 35  2  0  0  0  0
M  END
>  <MODEL>
9

>  <REMARK>
 VINA RESULT:      -7.7      2.845      8.083
  Name = 
  7 active torsions:
  status: ('A' for Active; 'I' for Inactive)
    1  A    between atoms: C_2  and  C_12
    2  A    between atoms: N_4  and  N_29
    3  A    between atoms: C_5  and  N_16
    4  A    between atoms: C_5  and  C_20
    5  A    between atoms: C_6  and  N_24
    6  A    between atoms: C_7  and  N_29
    7  A    between atoms: C_12  and  C_20
                            x       y       z     vdW  Elec       q    Type
                         _______ _______ _______ _____ _____    ______ ____

>  <TORSDO>
F 7

$$$$
