=
 OpenBabel11042420523D

 52 54  0  0  1  0  0  0  0  0999 V2000
  160.4640  204.7300  149.4630 C   0  0  0  0  0  3  0  0  0  0  0  0
  160.5050  203.4350  149.9950 C   0  0  0  0  0  0  0  0  0  0  0  0
  160.9250  201.9250  151.9990 C   0  0  0  0  0  1  0  0  0  0  0  0
  161.1850  205.6890  151.5710 C   0  0  0  0  0  0  0  0  0  0  0  0
  160.7960  205.8390  150.2380 C   0  0  0  0  0  3  0  0  0  0  0  0
  161.2230  204.3950  152.1290 C   0  0  0  0  0  0  0  0  0  0  0  0
  160.8870  203.2720  151.3500 C   0  0  0  0  0  0  0  0  0  0  0  0
  161.5690  204.2160  153.4320 F   0  0  0  0  0  0  0  0  0  0  0  0
  161.5530  206.8950  152.3460 C   0  0  0  0  0  0  0  0  0  0  0  0
  161.8560  208.1250  151.6810 N   0  0  0  0  0  2  0  0  0  0  0  0
  161.5660  206.8490  153.6060 O   0  0  0  0  0  0  0  0  0  0  0  0
  162.2170  209.3360  152.4030 C   0  0  0  0  0  2  0  0  0  0  0  0
  161.6450  210.9860  150.6390 C   0  0  0  0  0  3  0  0  0  0  0  0
  160.4110  211.1080  152.7370 C   0  0  0  0  0  0  0  0  0  0  0  0
  159.9750  212.7000  150.9480 C   0  0  0  0  0  3  0  0  0  0  0  0
  161.3960  210.4920  151.9250 C   0  0  0  0  0  0  0  0  0  0  0  0
  160.9360  212.0840  150.1370 C   0  0  0  0  0  0  0  0  0  0  0  0
  159.7190  212.2180  152.2310 C   0  0  0  0  0  3  0  0  0  0  0  0
  159.6760  209.3500  154.4580 C   0  0  0  0  0  3  0  0  0  0  0  0
  160.0770  210.6240  154.1020 C   0  0  0  0  0  0  0  0  0  0  0  0
  159.4130  209.3040  155.7820 N   0  0  0  0  0  2  0  0  0  0  0  0
  160.0440  211.3670  155.2630 C   0  0  0  0  0  0  0  0  0  0  0  0
  159.6370  210.5340  156.2840 C   0  0  0  0  0  3  0  0  0  0  0  0
  160.3820  212.7180  155.3780 O   0  0  0  0  0  0  0  0  0  0  0  0
  159.4720  213.6910  155.8780 C   0  0  0  0  0  2  0  0  0  0  0  0
  157.4900  214.4420  153.9250 N   0  0  0  0  0  2  0  0  0  0  0  0
  157.1890  213.5280  154.7890 C   0  0  0  0  0  0  0  0  0  0  0  0
  158.1110  213.1740  155.8250 N   0  0  0  0  0  2  0  0  0  0  0  0
  155.9310  211.4040  154.7270 C   0  0  0  0  0  1  0  0  0  0  0  0
  155.8280  212.9170  154.7600 C   0  0  2  0  0  3  0  0  0  0  0  0
  155.1290  213.3630  153.6390 O   0  0  0  0  0  1  0  0  0  0  0  0
  161.0250  211.7470  147.7450 O   0  0  0  0  0  1  0  0  0  0  0  0
  161.6030  213.9410  148.5680 C   0  0  0  0  0  1  0  0  0  0  0  0
  161.2000  212.5650  148.8090 N   0  0  0  0  0  0  0  0  0  0  0  0
  160.1830  202.2800  149.1070 C   0  0  0  0  0  0  0  0  0  0  0  0
  159.0000  201.8470  149.0550 O   0  0  0  0  0  0  0  0  0  0  0  0
  161.2140  201.5960  148.2920 C   0  0  0  0  0  0  0  0  0  0  0  0
  162.0260  200.7910  148.8260 O   0  0  0  0  0  0  0  0  0  0  0  0
  161.2810  201.8440  146.8160 C   0  0  1  0  0  3  0  0  0  0  0  0
  160.1390  201.2370  146.1490 N   0  0  0  0  0  2  0  0  0  0  0  0
  160.6280  200.3910  145.2120 O   0  0  0  0  0  0  0  0  0  0  0  0
  161.1370  199.3150  145.9430 C   0  0  0  0  0  2  0  0  0  0  0  0
  161.3960  198.1490  145.0110 C   0  0  0  0  0  1  0  0  0  0  0  0
  161.3200  203.3410  146.5520 C   0  0  0  0  0  2  0  0  0  0  0  0
  161.1480  203.6270  145.0700 C   0  0  0  0  0  2  0  0  0  0  0  0
  161.6530  205.0220  144.7330 C   0  0  0  0  0  2  0  0  0  0  0  0
  161.1370  208.2170  147.7300 N   0  0  0  0  0  2  0  0  0  0  0  0
  161.3030  205.9970  145.8070 C   0  0  0  0  0  0  0  0  0  0  0  0
  163.2570  207.6580  148.7090 C   0  0  0  0  0  1  0  0  0  0  0  0
  160.1240  206.4310  145.8900 O   0  0  0  0  0  0  0  0  0  0  0  0
  162.1580  207.4250  147.7350 C   0  0  0  0  0  0  0  0  0  0  0  0
  162.3060  206.3980  146.7480 N   0  0  0  0  0  2  0  0  0  0  0  0
  1  2  2  0  0  0  0
  1  5  1  0  0  0  0
  2  7  1  0  0  0  0
  4  6  1  0  0  0  0
  4  9  1  0  0  0  0
  5  4  2  0  0  0  0
  6  8  1  0  0  0  0
  7  3  1  0  0  0  0
  7  6  2  0  0  0  0
  9 11  2  0  0  0  0
 10  9  1  0  0  0  0
 10 12  1  0  0  0  0
 13 16  1  0  0  0  0
 14 20  1  0  0  0  0
 15 18  2  0  0  0  0
 16 12  1  0  0  0  0
 16 14  2  0  0  0  0
 17 13  2  0  0  0  0
 17 15  1  0  0  0  0
 18 14  1  0  0  0  0
 19 21  1  0  0  0  0
 20 19  2  0  0  0  0
 20 22  1  0  0  0  0
 21 23  1  0  0  0  0
 22 24  1  0  0  0  0
 22 23  2  0  0  0  0
 24 25  1  0  0  0  0
 26 27  2  0  0  0  0
 27 28  1  0  0  0  0
 28 25  1  0  0  0  0
 30 29  1  6  0  0  0
 30 27  1  0  0  0  0
 31 30  1  0  0  0  0
 32 34  1  0  0  0  0
 33 34  1  0  0  0  0
 34 17  1  0  0  0  0
 35  2  1  0  0  0  0
 36 35  2  0  0  0  0
 37 38  2  0  0  0  0
 37 35  1  0  0  0  0
 39 44  1  1  0  0  0
 39 37  1  0  0  0  0
 40 39  1  0  0  0  0
 41 42  1  0  0  0  0
 41 40  1  0  0  0  0
 43 42  1  0  0  0  0
 45 44  1  0  0  0  0
 46 45  1  0  0  0  0
 46 48  1  0  0  0  0
 47 51  2  0  0  0  0
 48 50  2  0  0  0  0
 48 52  1  0  0  0  0
 51 49  1  0  0  0  0
 52 51  1  0  0  0  0
M  END
>  <MODEL>
1

>  <REMARK>
 VINA RESULT:      -5.7      0.000      0.000
  Name = 
  19 active torsions:
  status: ('A' for Active; 'I' for Inactive)
    1  A    between atoms: O_1  and  C_20
    2  A    between atoms: O_1  and  C_36
    3  A    between atoms: C_2  and  C_23
    4  A    between atoms: C_2  and  C_25
    5  A    between atoms: C_3  and  C_9
    6  A    between atoms: C_3  and  C_18
    7  A    between atoms: C_5  and  C_12
    8  A    between atoms: O_6  and  N_21
    9  A    between atoms: O_6  and  C_35
   10  A    between atoms: C_9  and  C_23
   11  A    between atoms: C_13  and  C_16
   12  A    between atoms: C_17  and  C_22
   13  A    between atoms: C_17  and  C_25
   14  A    between atoms: N_21  and  C_23
   15  A    between atoms: C_27  and  C_28
   16  A    between atoms: N_31  and  C_43
   17  A    between atoms: C_32  and  C_43
   18  A    between atoms: C_34  and  N_49
   19  A    between atoms: C_36  and  N_37
                            x       y       z     vdW  Elec       q    Type
                         _______ _______ _______ _____ _____    ______ ____

>  <TORSDO>
F 19

$$$$
=
 OpenBabel11042420523D

 52 54  0  0  1  0  0  0  0  0999 V2000
  160.4920  205.8840  149.1490 C   0  0  0  0  0  3  0  0  0  0  0  0
  161.2070  205.5660  147.9860 C   0  0  0  0  0  0  0  0  0  0  0  0
  163.0280  206.1850  146.3220 C   0  0  0  0  0  1  0  0  0  0  0  0
  161.7140  207.9630  149.4090 C   0  0  0  0  0  0  0  0  0  0  0  0
  160.7430  207.0610  149.8500 C   0  0  0  0  0  3  0  0  0  0  0  0
  162.4500  207.6580  148.2460 C   0  0  0  0  0  0  0  0  0  0  0  0
  162.2020  206.4690  147.5360 C   0  0  0  0  0  0  0  0  0  0  0  0
  163.4230  208.5000  147.8070 F   0  0  0  0  0  0  0  0  0  0  0  0
  161.9250  209.2130  150.1730 C   0  0  0  0  0  0  0  0  0  0  0  0
  161.8120  210.4880  149.5330 N   0  0  0  0  0  2  0  0  0  0  0  0
  162.1720  209.1570  151.4090 O   0  0  0  0  0  0  0  0  0  0  0  0
  162.0060  211.7410  150.2470 C   0  0  0  0  0  2  0  0  0  0  0  0
  159.9100  212.3780  151.4140 C   0  0  0  0  0  3  0  0  0  0  0  0
  160.3200  213.3580  149.2220 C   0  0  0  0  0  0  0  0  0  0  0  0
  158.2780  213.8670  150.4460 C   0  0  0  0  0  3  0  0  0  0  0  0
  160.7290  212.5200  150.2880 C   0  0  0  0  0  0  0  0  0  0  0  0
  158.6870  213.0520  151.5080 C   0  0  0  0  0  0  0  0  0  0  0  0
  159.0850  214.0160  149.3170 C   0  0  0  0  0  3  0  0  0  0  0  0
  162.2930  214.3410  147.9040 C   0  0  0  0  0  3  0  0  0  0  0  0
  161.1470  213.5740  148.0060 C   0  0  2  0  0  3  0  0  0  0  0  0
  162.7360  214.3380  146.6280 N   0  0  0  0  0  0  0  0  0  0  0  0
  160.8960  213.1020  146.7340 C   0  0  0  0  0  0  0  0  0  0  0  0
  161.8880  213.5810  145.9040 C   0  0  0  0  0  3  0  0  0  0  0  0
  159.8340  212.2730  146.3660 O   0  0  0  0  0  0  0  0  0  0  0  0
  159.5840  211.9100  145.0120 C   0  0  0  0  0  2  0  0  0  0  0  0
  160.4540  211.5530  142.2880 N   0  0  0  0  0  2  0  0  0  0  0  0
  160.3690  212.7560  142.7550 C   0  0  0  0  0  0  0  0  0  0  0  0
  160.0130  212.9820  144.1230 N   0  0  0  0  0  2  0  0  0  0  0  0
  160.8530  213.4570  140.4370 C   0  0  0  0  0  1  0  0  0  0  0  0
  160.7430  213.9060  141.8820 C   0  0  2  0  0  3  0  0  0  0  0  0
  161.9610  214.4430  142.2970 O   0  0  0  0  0  1  0  0  0  0  0  0
  156.7300  213.6210  152.8090 O   0  0  0  0  0  1  0  0  0  0  0  0
  158.2090  211.9470  153.7220 C   0  0  0  0  0  1  0  0  0  0  0  0
  157.8700  212.9020  152.6810 N   0  0  0  0  0  0  0  0  0  0  0  0
  160.8660  204.3140  147.2510 C   0  0  0  0  0  0  0  0  0  0  0  0
  160.1050  204.3700  146.2470 O   0  0  0  0  0  0  0  0  0  0  0  0
  161.3700  202.9860  147.6710 C   0  0  0  0  0  0  0  0  0  0  0  0
  162.6100  202.7620  147.7440 O   0  0  0  0  0  0  0  0  0  0  0  0
  160.4010  201.9030  148.0350 C   0  0  1  0  0  3  0  0  0  0  0  0
  161.0200  200.5960  147.8750 N   0  0  0  0  0  2  0  0  0  0  0  0
  160.7180  200.1620  146.6290 O   0  0  0  0  0  0  0  0  0  0  0  0
  161.7760  199.3200  146.2830 C   0  0  0  0  0  2  0  0  0  0  0  0
  161.2840  198.2580  145.3230 C   0  0  0  0  0  1  0  0  0  0  0  0
  159.9330  202.1000  149.4690 C   0  0  0  0  0  2  0  0  0  0  0  0
  161.1060  202.0120  150.4310 C   0  0  0  0  0  2  0  0  0  0  0  0
  160.7310  202.5940  151.7850 C   0  0  0  0  0  2  0  0  0  0  0  0
  162.5990  206.3990  153.0050 N   0  0  0  0  0  2  0  0  0  0  0  0
  161.3590  203.9310  151.9910 C   0  0  0  0  0  0  0  0  0  0  0  0
  160.7000  206.9040  154.3850 C   0  0  0  0  0  1  0  0  0  0  0  0
  162.3220  204.2820  151.2600 O   0  0  0  0  0  0  0  0  0  0  0  0
  161.4180  206.0530  153.3990 C   0  0  0  0  0  0  0  0  0  0  0  0
  160.8340  204.8090  152.9940 N   0  0  0  0  0  2  0  0  0  0  0  0
  1  5  1  0  0  0  0
  2  1  2  0  0  0  0
  3  7  1  0  0  0  0
  4  5  2  0  0  0  0
  4  9  1  0  0  0  0
  6  4  1  0  0  0  0
  7  2  1  0  0  0  0
  7  6  2  0  0  0  0
  8  6  1  0  0  0  0
  9 11  2  0  0  0  0
 10  9  1  0  0  0  0
 10 12  1  0  0  0  0
 12 16  1  0  0  0  0
 13 17  1  0  0  0  0
 14 18  2  0  0  0  0
 14 16  1  0  0  0  0
 15 17  2  0  0  0  0
 16 13  2  0  0  0  0
 17 34  1  0  0  0  0
 18 15  1  0  0  0  0
 19 20  1  0  0  0  0
 20 14  1  6  0  0  0
 21 19  2  0  0  0  0
 22 20  1  0  0  0  0
 23 21  1  0  0  0  0
 23 22  2  0  0  0  0
 24 22  1  0  0  0  0
 25 24  1  0  0  0  0
 26 27  2  0  0  0  0
 27 28  1  0  0  0  0
 28 25  1  0  0  0  0
 30 29  1  6  0  0  0
 30 31  1  0  0  0  0
 30 27  1  0  0  0  0
 34 32  1  0  0  0  0
 34 33  1  0  0  0  0
 35 37  1  0  0  0  0
 35  2  1  0  0  0  0
 36 35  2  0  0  0  0
 37 38  2  0  0  0  0
 37 39  1  0  0  0  0
 39 44  1  1  0  0  0
 40 39  1  0  0  0  0
 41 40  1  0  0  0  0
 42 41  1  0  0  0  0
 43 42  1  0  0  0  0
 44 45  1  0  0  0  0
 45 46  1  0  0  0  0
 46 48  1  0  0  0  0
 47 51  2  0  0  0  0
 48 52  1  0  0  0  0
 50 48  2  0  0  0  0
 51 49  1  0  0  0  0
 52 51  1  0  0  0  0
M  END
>  <MODEL>
2

>  <REMARK>
 VINA RESULT:      -4.7      3.027      6.878
  Name = 
  19 active torsions:
  status: ('A' for Active; 'I' for Inactive)
    1  A    between atoms: O_1  and  C_20
    2  A    between atoms: O_1  and  C_36
    3  A    between atoms: C_2  and  C_23
    4  A    between atoms: C_2  and  C_25
    5  A    between atoms: C_3  and  C_9
    6  A    between atoms: C_3  and  C_18
    7  A    between atoms: C_5  and  C_12
    8  A    between atoms: O_6  and  N_21
    9  A    between atoms: O_6  and  C_35
   10  A    between atoms: C_9  and  C_23
   11  A    between atoms: C_13  and  C_16
   12  A    between atoms: C_17  and  C_22
   13  A    between atoms: C_17  and  C_25
   14  A    between atoms: N_21  and  C_23
   15  A    between atoms: C_27  and  C_28
   16  A    between atoms: N_31  and  C_43
   17  A    between atoms: C_32  and  C_43
   18  A    between atoms: C_34  and  N_49
   19  A    between atoms: C_36  and  N_37
                            x       y       z     vdW  Elec       q    Type
                         _______ _______ _______ _____ _____    ______ ____

>  <TORSDO>
F 19

$$$$
=
 OpenBabel11042420523D

 52 54  0  0  1  0  0  0  0  0999 V2000
  160.2710  205.3410  149.6390 C   0  0  0  0  0  3  0  0  0  0  0  0
  160.4500  204.3130  150.5730 C   0  0  0  0  0  0  0  0  0  0  0  0
  161.0770  203.6150  152.9380 C   0  0  0  0  0  1  0  0  0  0  0  0
  160.9720  207.0140  151.2480 C   0  0  0  0  0  0  0  0  0  0  0  0
  160.5250  206.6690  149.9710 C   0  0  0  0  0  3  0  0  0  0  0  0
  161.1500  205.9960  152.2070 C   0  0  0  0  0  0  0  0  0  0  0  0
  160.8920  204.6530  151.8760 C   0  0  0  0  0  0  0  0  0  0  0  0
  161.5550  206.3000  153.4680 F   0  0  0  0  0  0  0  0  0  0  0  0
  161.2540  208.4370  151.5450 C   0  0  0  0  0  0  0  0  0  0  0  0
  160.2200  209.3010  152.0260 N   0  0  0  0  0  2  0  0  0  0  0  0
  162.4250  208.8850  151.4060 O   0  0  0  0  0  0  0  0  0  0  0  0
  160.4540  210.7040  152.3360 C   0  0  0  0  0  2  0  0  0  0  0  0
  161.3970  210.2590  154.5880 C   0  0  0  0  0  3  0  0  0  0  0  0
  159.4660  211.7370  154.4490 C   0  0  0  0  0  0  0  0  0  0  0  0
  160.4530  211.1860  156.6050 C   0  0  0  0  0  3  0  0  0  0  0  0
  160.4350  210.9200  153.8170 C   0  0  0  0  0  0  0  0  0  0  0  0
  161.4210  210.3900  155.9820 C   0  0  0  0  0  0  0  0  0  0  0  0
  159.4870  211.8490  155.8470 C   0  0  0  0  0  3  0  0  0  0  0  0
  157.0840  212.5840  153.9980 C   0  0  0  0  0  3  0  0  0  0  0  0
  158.4290  212.4870  153.6930 C   0  0  2  0  0  3  0  0  0  0  0  0
  156.4500  213.3080  153.0510 N   0  0  0  0  0  0  0  0  0  0  0  0
  158.5970  213.1760  152.5100 C   0  0  0  0  0  0  0  0  0  0  0  0
  157.3670  213.6760  152.1360 C   0  0  0  0  0  3  0  0  0  0  0  0
  159.8050  213.3470  151.8290 O   0  0  0  0  0  0  0  0  0  0  0  0
  159.8850  214.0140  150.5740 C   0  0  0  0  0  2  0  0  0  0  0  0
  160.2150  213.7670  147.7210 N   0  0  0  0  0  2  0  0  0  0  0  0
  161.2540  213.6230  148.4770 C   0  0  0  0  0  0  0  0  0  0  0  0
  161.1290  213.6620  149.9020 N   0  0  0  0  0  2  0  0  0  0  0  0
  162.5420  213.6330  146.3690 C   0  0  0  0  0  1  0  0  0  0  0  0
  162.5720  213.3120  147.8520 C   0  0  2  0  0  3  0  0  0  0  0  0
  162.8800  211.9640  148.0310 O   0  0  0  0  0  1  0  0  0  0  0  0
  162.3290  208.3800  156.9730 O   0  0  0  0  0  1  0  0  0  0  0  0
  163.5930  210.4160  157.2610 C   0  0  0  0  0  1  0  0  0  0  0  0
  162.4280  209.7120  156.7510 N   0  0  0  0  0  0  0  0  0  0  0  0
  160.2060  202.9030  150.1500 C   0  0  0  0  0  0  0  0  0  0  0  0
  159.0330  202.4410  150.1770 O   0  0  0  0  0  0  0  0  0  0  0  0
  161.3010  202.0050  149.7170 C   0  0  0  0  0  0  0  0  0  0  0  0
  161.9640  201.3440  150.5640 O   0  0  0  0  0  0  0  0  0  0  0  0
  161.6140  201.8620  148.2590 C   0  0  1  0  0  3  0  0  0  0  0  0
  160.6810  200.9400  147.6300 N   0  0  0  0  0  2  0  0  0  0  0  0
  161.3860  199.8400  147.2750 O   0  0  0  0  0  0  0  0  0  0  0  0
  161.2070  199.7390  145.8940 C   0  0  0  0  0  2  0  0  0  0  0  0
  161.3650  198.2940  145.4690 C   0  0  0  0  0  1  0  0  0  0  0  0
  161.5520  203.2250  147.5890 C   0  0  0  0  0  2  0  0  0  0  0  0
  161.2180  203.0820  146.1130 C   0  0  0  0  0  2  0  0  0  0  0  0
  161.4360  204.3990  145.3850 C   0  0  0  0  0  2  0  0  0  0  0  0
  163.3190  207.1990  148.2250 N   0  0  0  0  0  2  0  0  0  0  0  0
  162.2380  205.3460  146.2110 C   0  0  0  0  0  0  0  0  0  0  0  0
  161.5230  208.7580  147.9010 C   0  0  0  0  0  1  0  0  0  0  0  0
  163.4430  205.0810  146.4640 O   0  0  0  0  0  0  0  0  0  0  0  0
  162.2320  207.4890  147.5900 C   0  0  0  0  0  0  0  0  0  0  0  0
  161.6360  206.5600  146.6760 N   0  0  0  0  0  2  0  0  0  0  0  0
  1  5  2  0  0  0  0
  1  2  1  0  0  0  0
  2  7  2  0  0  0  0
  4  9  1  0  0  0  0
  4  6  2  0  0  0  0
  5  4  1  0  0  0  0
  6  8  1  0  0  0  0
  7  6  1  0  0  0  0
  7  3  1  0  0  0  0
  9 10  1  0  0  0  0
 10 12  1  0  0  0  0
 11  9  2  0  0  0  0
 12 16  1  0  0  0  0
 13 17  1  0  0  0  0
 14 18  2  0  0  0  0
 16 14  1  0  0  0  0
 16 13  2  0  0  0  0
 17 15  2  0  0  0  0
 17 34  1  0  0  0  0
 18 15  1  0  0  0  0
 20 19  1  0  0  0  0
 20 14  1  6  0  0  0
 21 19  2  0  0  0  0
 22 20  1  0  0  0  0
 23 22  2  0  0  0  0
 23 21  1  0  0  0  0
 24 22  1  0  0  0  0
 25 24  1  0  0  0  0
 26 27  2  0  0  0  0
 27 28  1  0  0  0  0
 28 25  1  0  0  0  0
 30 29  1  6  0  0  0
 30 31  1  0  0  0  0
 30 27  1  0  0  0  0
 34 32  1  0  0  0  0
 34 33  1  0  0  0  0
 35 36  2  0  0  0  0
 35  2  1  0  0  0  0
 37 35  1  0  0  0  0
 37 38  2  0  0  0  0
 39 44  1  6  0  0  0
 39 37  1  0  0  0  0
 40 39  1  0  0  0  0
 41 40  1  0  0  0  0
 42 41  1  0  0  0  0
 43 42  1  0  0  0  0
 45 44  1  0  0  0  0
 46 45  1  0  0  0  0
 46 48  1  0  0  0  0
 48 50  2  0  0  0  0
 48 52  1  0  0  0  0
 51 49  1  0  0  0  0
 51 47  2  0  0  0  0
 52 51  1  0  0  0  0
M  END
>  <MODEL>
3

>  <REMARK>
 VINA RESULT:      -4.6      1.807      4.506
  Name = 
  19 active torsions:
  status: ('A' for Active; 'I' for Inactive)
    1  A    between atoms: O_1  and  C_20
    2  A    between atoms: O_1  and  C_36
    3  A    between atoms: C_2  and  C_23
    4  A    between atoms: C_2  and  C_25
    5  A    between atoms: C_3  and  C_9
    6  A    between atoms: C_3  and  C_18
    7  A    between atoms: C_5  and  C_12
    8  A    between atoms: O_6  and  N_21
    9  A    between atoms: O_6  and  C_35
   10  A    between atoms: C_9  and  C_23
   11  A    between atoms: C_13  and  C_16
   12  A    between atoms: C_17  and  C_22
   13  A    between atoms: C_17  and  C_25
   14  A    between atoms: N_21  and  C_23
   15  A    between atoms: C_27  and  C_28
   16  A    between atoms: N_31  and  C_43
   17  A    between atoms: C_32  and  C_43
   18  A    between atoms: C_34  and  N_49
   19  A    between atoms: C_36  and  N_37
                            x       y       z     vdW  Elec       q    Type
                         _______ _______ _______ _____ _____    ______ ____

>  <TORSDO>
F 19

$$$$
=
 OpenBabel11042420523D

 52 54  0  0  1  0  0  0  0  0999 V2000
  160.4670  205.0440  149.5490 C   0  0  0  0  0  3  0  0  0  0  0  0
  160.5220  203.7780  150.1460 C   0  0  0  0  0  0  0  0  0  0  0  0
  160.9310  202.3790  152.2310 C   0  0  0  0  0  1  0  0  0  0  0  0
  161.1250  206.1220  151.6200 C   0  0  0  0  0  0  0  0  0  0  0  0
  160.7600  206.1970  150.2740 C   0  0  0  0  0  3  0  0  0  0  0  0
  161.1780  204.8580  152.2430 C   0  0  0  0  0  0  0  0  0  0  0  0
  160.8800  203.6910  151.5150 C   0  0  0  0  0  0  0  0  0  0  0  0
  161.5000  204.7520  153.5590 F   0  0  0  0  0  0  0  0  0  0  0  0
  161.4530  207.3720  152.3410 C   0  0  0  0  0  0  0  0  0  0  0  0
  161.6580  208.5940  151.6250 N   0  0  0  0  0  2  0  0  0  0  0  0
  161.5170  207.3700  153.6000 O   0  0  0  0  0  0  0  0  0  0  0  0
  161.9770  209.8470  152.2930 C   0  0  0  0  0  2  0  0  0  0  0  0
  160.0220  210.4800  153.6840 C   0  0  0  0  0  3  0  0  0  0  0  0
  160.2600  211.5670  151.5170 C   0  0  0  0  0  0  0  0  0  0  0  0
  158.3590  212.0680  152.9530 C   0  0  0  0  0  3  0  0  0  0  0  0
  160.7370  210.6600  152.4950 C   0  0  0  0  0  0  0  0  0  0  0  0
  158.8360  211.1840  153.9280 C   0  0  0  0  0  0  0  0  0  0  0  0
  159.0620  212.2540  151.7620 C   0  0  0  0  0  3  0  0  0  0  0  0
  162.0990  211.1680  149.7700 C   0  0  0  0  0  3  0  0  0  0  0  0
  160.9770  211.8250  150.2410 C   0  0  2  0  0  3  0  0  0  0  0  0
  162.4930  211.7150  148.6000 N   0  0  0  0  0  0  0  0  0  0  0  0
  160.7000  212.8080  149.3140 C   0  0  0  0  0  0  0  0  0  0  0  0
  161.6420  212.7190  148.3120 C   0  0  0  0  0  3  0  0  0  0  0  0
  159.6390  213.7150  149.3790 O   0  0  0  0  0  0  0  0  0  0  0  0
  158.6070  213.7530  148.4000 C   0  0  0  0  0  2  0  0  0  0  0  0
  158.4980  212.5460  145.7850 N   0  0  0  0  0  2  0  0  0  0  0  0
  158.9630  213.7480  145.8900 C   0  0  0  0  0  0  0  0  0  0  0  0
  159.1060  214.3630  147.1740 N   0  0  0  0  0  2  0  0  0  0  0  0
  158.4090  214.3590  143.5620 C   0  0  0  0  0  1  0  0  0  0  0  0
  159.4440  214.4530  144.6670 C   0  0  2  0  0  3  0  0  0  0  0  0
  160.6430  213.8890  144.2320 O   0  0  0  0  0  1  0  0  0  0  0  0
  158.8110  210.7820  156.3120 O   0  0  0  0  0  1  0  0  0  0  0  0
  156.6770  211.0760  155.2240 C   0  0  0  0  0  1  0  0  0  0  0  0
  158.1270  210.9940  155.1630 N   0  0  0  0  0  0  0  0  0  0  0  0
  160.2420  202.5740  149.3110 C   0  0  0  0  0  0  0  0  0  0  0  0
  159.0490  202.2150  149.1190 O   0  0  0  0  0  0  0  0  0  0  0  0
  161.3220  201.7580  148.7110 C   0  0  0  0  0  0  0  0  0  0  0  0
  161.9620  200.9230  149.4090 O   0  0  0  0  0  0  0  0  0  0  0  0
  161.6460  201.9060  147.2550 C   0  0  1  0  0  3  0  0  0  0  0  0
  160.9880  200.8640  146.4820 N   0  0  0  0  0  2  0  0  0  0  0  0
  161.6300  199.7030  146.7500 O   0  0  0  0  0  0  0  0  0  0  0  0
  160.9580  198.7460  145.9880 C   0  0  0  0  0  2  0  0  0  0  0  0
  161.7720  198.4210  144.7530 C   0  0  0  0  0  1  0  0  0  0  0  0
  161.2140  203.2830  146.7760 C   0  0  0  0  0  2  0  0  0  0  0  0
  161.1220  203.3160  145.2590 C   0  0  0  0  0  2  0  0  0  0  0  0
  161.5090  204.6890  144.7310 C   0  0  0  0  0  2  0  0  0  0  0  0
  161.1580  208.1080  147.4950 N   0  0  0  0  0  2  0  0  0  0  0  0
  161.2070  205.7560  145.7280 C   0  0  0  0  0  0  0  0  0  0  0  0
  163.2140  207.4750  148.5600 C   0  0  0  0  0  1  0  0  0  0  0  0
  160.0590  206.2740  145.7530 O   0  0  0  0  0  0  0  0  0  0  0  0
  162.1210  207.2510  147.5770 C   0  0  0  0  0  0  0  0  0  0  0  0
  162.2170  206.1510  146.6640 N   0  0  0  0  0  2  0  0  0  0  0  0
  1  2  2  0  0  0  0
  1  5  1  0  0  0  0
  2  7  1  0  0  0  0
  4  6  1  0  0  0  0
  4  9  1  0  0  0  0
  5  4  2  0  0  0  0
  6  8  1  0  0  0  0
  7  3  1  0  0  0  0
  7  6  2  0  0  0  0
  9 11  2  0  0  0  0
 10 12  1  0  0  0  0
 10  9  1  0  0  0  0
 12 16  1  0  0  0  0
 13 17  1  0  0  0  0
 14 18  2  0  0  0  0
 14 16  1  0  0  0  0
 15 17  2  0  0  0  0
 16 13  2  0  0  0  0
 17 34  1  0  0  0  0
 18 15  1  0  0  0  0
 19 20  1  0  0  0  0
 20 14  1  1  0  0  0
 21 19  2  0  0  0  0
 22 24  1  0  0  0  0
 22 20  1  0  0  0  0
 23 21  1  0  0  0  0
 23 22  2  0  0  0  0
 25 24  1  0  0  0  0
 26 27  2  0  0  0  0
 27 28  1  0  0  0  0
 28 25  1  0  0  0  0
 30 29  1  6  0  0  0
 30 27  1  0  0  0  0
 31 30  1  0  0  0  0
 34 33  1  0  0  0  0
 34 32  1  0  0  0  0
 35  2  1  0  0  0  0
 36 35  2  0  0  0  0
 37 35  1  0  0  0  0
 37 38  2  0  0  0  0
 39 44  1  6  0  0  0
 39 37  1  0  0  0  0
 40 41  1  0  0  0  0
 40 39  1  0  0  0  0
 42 41  1  0  0  0  0
 43 42  1  0  0  0  0
 45 44  1  0  0  0  0
 46 45  1  0  0  0  0
 46 48  1  0  0  0  0
 47 51  2  0  0  0  0
 48 50  2  0  0  0  0
 48 52  1  0  0  0  0
 51 49  1  0  0  0  0
 52 51  1  0  0  0  0
M  END
>  <MODEL>
4

>  <REMARK>
 VINA RESULT:      -4.6      1.792      4.777
  Name = 
  19 active torsions:
  status: ('A' for Active; 'I' for Inactive)
    1  A    between atoms: O_1  and  C_20
    2  A    between atoms: O_1  and  C_36
    3  A    between atoms: C_2  and  C_23
    4  A    between atoms: C_2  and  C_25
    5  A    between atoms: C_3  and  C_9
    6  A    between atoms: C_3  and  C_18
    7  A    between atoms: C_5  and  C_12
    8  A    between atoms: O_6  and  N_21
    9  A    between atoms: O_6  and  C_35
   10  A    between atoms: C_9  and  C_23
   11  A    between atoms: C_13  and  C_16
   12  A    between atoms: C_17  and  C_22
   13  A    between atoms: C_17  and  C_25
   14  A    between atoms: N_21  and  C_23
   15  A    between atoms: C_27  and  C_28
   16  A    between atoms: N_31  and  C_43
   17  A    between atoms: C_32  and  C_43
   18  A    between atoms: C_34  and  N_49
   19  A    between atoms: C_36  and  N_37
                            x       y       z     vdW  Elec       q    Type
                         _______ _______ _______ _____ _____    ______ ____

>  <TORSDO>
F 19

$$$$
=
 OpenBabel11042420523D

 52 54  0  0  1  0  0  0  0  0999 V2000
  160.4870  206.8940  154.5530 C   0  0  0  0  0  3  0  0  0  0  0  0
  161.1240  206.7570  153.3130 C   0  0  0  0  0  0  0  0  0  0  0  0
  162.2490  207.8640  151.3180 C   0  0  0  0  0  1  0  0  0  0  0  0
  160.6460  209.3120  154.4410 C   0  0  0  0  0  0  0  0  0  0  0  0
  160.2550  208.1500  155.1090 C   0  0  0  0  0  3  0  0  0  0  0  0
  161.2970  209.1960  153.1950 C   0  0  0  0  0  0  0  0  0  0  0  0
  161.5360  207.9290  152.6310 C   0  0  0  0  0  0  0  0  0  0  0  0
  161.7180  210.3060  152.5330 F   0  0  0  0  0  0  0  0  0  0  0  0
  160.3530  210.6240  155.0600 C   0  0  0  0  0  0  0  0  0  0  0  0
  159.6980  211.6540  154.3130 N   0  0  0  0  0  2  0  0  0  0  0  0
  160.6520  210.8260  156.2690 O   0  0  0  0  0  0  0  0  0  0  0  0
  159.3860  212.9560  154.8840 C   0  0  0  0  0  2  0  0  0  0  0  0
  157.0330  213.1600  155.6450 C   0  0  0  0  0  3  0  0  0  0  0  0
  157.5270  213.7740  153.3400 C   0  0  0  0  0  0  0  0  0  0  0  0
  155.2500  213.8860  154.1910 C   0  0  0  0  0  3  0  0  0  0  0  0
  157.9600  213.3160  154.6080 C   0  0  0  0  0  0  0  0  0  0  0  0
  155.6770  213.4490  155.4500 C   0  0  0  0  0  0  0  0  0  0  0  0
  156.1640  214.0440  153.1500 C   0  0  0  0  0  3  0  0  0  0  0  0
  159.8060  214.2840  152.2710 C   0  0  0  0  0  3  0  0  0  0  0  0
  158.4590  213.9850  152.2000 C   0  0  2  0  0  3  0  0  0  0  0  0
  160.3050  214.4520  151.0280 N   0  0  0  0  0  0  0  0  0  0  0  0
  158.1440  213.9840  150.8570 C   0  0  0  0  0  0  0  0  0  0  0  0
  159.2950  214.2700  150.1550 C   0  0  0  0  0  3  0  0  0  0  0  0
  156.8830  213.7210  150.3140 O   0  0  0  0  0  0  0  0  0  0  0  0
  156.7140  213.1790  149.0090 C   0  0  0  0  0  2  0  0  0  0  0  0
  157.0910  212.3170  146.2850 N   0  0  0  0  0  2  0  0  0  0  0  0
  157.9940  213.0690  146.8240 C   0  0  0  0  0  0  0  0  0  0  0  0
  157.8900  213.4620  148.1960 N   0  0  0  0  0  2  0  0  0  0  0  0
  159.7670  212.2220  145.3280 C   0  0  0  0  0  1  0  0  0  0  0  0
  159.2010  213.4410  146.0310 C   0  0  2  0  0  3  0  0  0  0  0  0
  160.1720  213.9880  146.8700 O   0  0  0  0  0  1  0  0  0  0  0  0
  154.7340  212.1520  157.2600 O   0  0  0  0  0  1  0  0  0  0  0  0
  153.8380  214.3650  156.9110 C   0  0  0  0  0  1  0  0  0  0  0  0
  154.7450  213.2940  156.5340 N   0  0  0  0  0  0  0  0  0  0  0  0
  161.3070  205.3900  152.7440 C   0  0  0  0  0  0  0  0  0  0  0  0
  160.7610  204.4040  153.3080 O   0  0  0  0  0  0  0  0  0  0  0  0
  162.1350  205.1380  151.5420 C   0  0  0  0  0  0  0  0  0  0  0  0
  163.3680  205.4050  151.5410 O   0  0  0  0  0  0  0  0  0  0  0  0
  161.5090  204.5370  150.3200 C   0  0  1  0  0  3  0  0  0  0  0  0
  161.1210  203.1580  150.5760 N   0  0  0  0  0  2  0  0  0  0  0  0
  161.6770  202.4010  149.6020 O   0  0  0  0  0  0  0  0  0  0  0  0
  160.5990  202.0010  148.8090 C   0  0  0  0  0  2  0  0  0  0  0  0
  159.5100  201.4260  149.6900 C   0  0  0  0  0  1  0  0  0  0  0  0
  160.3010  205.3640  149.9080 C   0  0  0  0  0  2  0  0  0  0  0  0
  160.6400  206.2510  148.7210 C   0  0  0  0  0  2  0  0  0  0  0  0
  162.0000  205.8820  148.1490 C   0  0  0  0  0  2  0  0  0  0  0  0
  161.1190  205.1090  143.8970 N   0  0  0  0  0  2  0  0  0  0  0  0
  161.9120  205.5910  146.6890 C   0  0  0  0  0  0  0  0  0  0  0  0
  159.7210  203.2570  144.5100 C   0  0  0  0  0  1  0  0  0  0  0  0
  162.6960  206.1730  145.8930 O   0  0  0  0  0  0  0  0  0  0  0  0
  160.6640  204.3560  144.8430 C   0  0  0  0  0  0  0  0  0  0  0  0
  160.9600  204.6310  146.2180 N   0  0  0  0  0  2  0  0  0  0  0  0
  1  5  1  0  0  0  0
  2  1  2  0  0  0  0
  3  7  1  0  0  0  0
  4  9  1  0  0  0  0
  4  5  2  0  0  0  0
  6  4  1  0  0  0  0
  7  6  2  0  0  0  0
  7  2  1  0  0  0  0
  8  6  1  0  0  0  0
  9 11  2  0  0  0  0
 10 12  1  0  0  0  0
 10  9  1  0  0  0  0
 14 16  1  0  0  0  0
 15 17  2  0  0  0  0
 16 12  1  0  0  0  0
 16 13  2  0  0  0  0
 17 13  1  0  0  0  0
 17 34  1  0  0  0  0
 18 14  2  0  0  0  0
 18 15  1  0  0  0  0
 20 19  1  0  0  0  0
 20 14  1  1  0  0  0
 21 19  2  0  0  0  0
 22 20  1  0  0  0  0
 23 22  2  0  0  0  0
 23 21  1  0  0  0  0
 24 22  1  0  0  0  0
 25 24  1  0  0  0  0
 26 27  2  0  0  0  0
 27 28  1  0  0  0  0
 28 25  1  0  0  0  0
 30 29  1  1  0  0  0
 30 27  1  0  0  0  0
 30 31  1  0  0  0  0
 34 33  1  0  0  0  0
 34 32  1  0  0  0  0
 35 36  2  0  0  0  0
 35  2  1  0  0  0  0
 37 35  1  0  0  0  0
 38 37  2  0  0  0  0
 39 44  1  1  0  0  0
 39 40  1  0  0  0  0
 39 37  1  0  0  0  0
 41 40  1  0  0  0  0
 42 41  1  0  0  0  0
 42 43  1  0  0  0  0
 45 44  1  0  0  0  0
 46 45  1  0  0  0  0
 47 51  2  0  0  0  0
 48 46  1  0  0  0  0
 49 51  1  0  0  0  0
 50 48  2  0  0  0  0
 51 52  1  0  0  0  0
 52 48  1  0  0  0  0
M  END
>  <MODEL>
5

>  <REMARK>
 VINA RESULT:      -4.3      2.574      6.192
  Name = 
  19 active torsions:
  status: ('A' for Active; 'I' for Inactive)
    1  A    between atoms: O_1  and  C_20
    2  A    between atoms: O_1  and  C_36
    3  A    between atoms: C_2  and  C_23
    4  A    between atoms: C_2  and  C_25
    5  A    between atoms: C_3  and  C_9
    6  A    between atoms: C_3  and  C_18
    7  A    between atoms: C_5  and  C_12
    8  A    between atoms: O_6  and  N_21
    9  A    between atoms: O_6  and  C_35
   10  A    between atoms: C_9  and  C_23
   11  A    between atoms: C_13  and  C_16
   12  A    between atoms: C_17  and  C_22
   13  A    between atoms: C_17  and  C_25
   14  A    between atoms: N_21  and  C_23
   15  A    between atoms: C_27  and  C_28
   16  A    between atoms: N_31  and  C_43
   17  A    between atoms: C_32  and  C_43
   18  A    between atoms: C_34  and  N_49
   19  A    between atoms: C_36  and  N_37
                            x       y       z     vdW  Elec       q    Type
                         _______ _______ _______ _____ _____    ______ ____

>  <TORSDO>
F 19

$$$$
=
 OpenBabel11042420523D

 52 54  0  0  1  0  0  0  0  0999 V2000
  159.2480  211.4470  153.1380 C   0  0  0  0  0  3  0  0  0  0  0  0
  159.2120  212.7550  152.6390 C   0  0  0  0  0  0  0  0  0  0  0  0
  159.9840  214.4310  150.8880 C   0  0  0  0  0  1  0  0  0  0  0  0
  160.8190  210.7650  151.4200 C   0  0  0  0  0  0  0  0  0  0  0  0
  160.0350  210.4670  152.5380 C   0  0  0  0  0  3  0  0  0  0  0  0
  160.7900  212.0740  150.8960 C   0  0  0  0  0  0  0  0  0  0  0  0
  159.9930  213.0650  151.4990 C   0  0  0  0  0  0  0  0  0  0  0  0
  161.5170  212.3900  149.7920 F   0  0  0  0  0  0  0  0  0  0  0  0
  161.6590  209.6970  150.8340 C   0  0  0  0  0  0  0  0  0  0  0  0
  161.3280  209.1210  149.5670 N   0  0  0  0  0  2  0  0  0  0  0  0
  162.6980  209.3160  151.4390 O   0  0  0  0  0  0  0  0  0  0  0  0
  162.1290  208.0730  148.9510 C   0  0  0  0  0  2  0  0  0  0  0  0
  161.7430  206.3990  150.7420 C   0  0  0  0  0  3  0  0  0  0  0  0
  161.1270  205.7760  148.4690 C   0  0  0  0  0  0  0  0  0  0  0  0
  160.8420  204.2040  150.3050 C   0  0  0  0  0  3  0  0  0  0  0  0
  161.6450  206.7250  149.3850 C   0  0  0  0  0  0  0  0  0  0  0  0
  161.3370  205.1450  151.2150 C   0  0  0  0  0  0  0  0  0  0  0  0
  160.7400  204.5170  148.9490 C   0  0  0  0  0  3  0  0  0  0  0  0
  159.8820  206.6380  146.3940 C   0  0  0  0  0  3  0  0  0  0  0  0
  160.9730  206.0610  147.0180 C   0  0  2  0  0  3  0  0  0  0  0  0
  160.0890  206.6870  145.0610 N   0  0  0  0  0  0  0  0  0  0  0  0
  161.8610  205.7480  146.0090 C   0  0  0  0  0  0  0  0  0  0  0  0
  161.2970  206.1450  144.8150 C   0  0  0  0  0  3  0  0  0  0  0  0
  163.1120  205.1510  146.1800 O   0  0  0  0  0  0  0  0  0  0  0  0
  163.3180  203.7520  146.0130 C   0  0  0  0  0  2  0  0  0  0  0  0
  161.5540  201.8660  147.2930 N   0  0  0  0  0  2  0  0  0  0  0  0
  161.2640  202.2690  146.1000 C   0  0  0  0  0  0  0  0  0  0  0  0
  162.1460  203.1470  145.3930 N   0  0  0  0  0  2  0  0  0  0  0  0
  160.1800  200.2320  145.2190 C   0  0  0  0  0  1  0  0  0  0  0  0
  160.0490  201.7290  145.4230 C   0  0  2  0  0  3  0  0  0  0  0  0
  159.8730  202.3560  144.1900 O   0  0  0  0  0  1  0  0  0  0  0  0
  161.2740  203.5630  153.0430 O   0  0  0  0  0  1  0  0  0  0  0  0
  161.7590  205.8620  153.5950 C   0  0  0  0  0  1  0  0  0  0  0  0
  161.4350  204.8380  152.6160 N   0  0  0  0  0  0  0  0  0  0  0  0
  158.3850  213.7740  153.3480 C   0  0  0  0  0  0  0  0  0  0  0  0
  157.5420  214.4510  152.7000 O   0  0  0  0  0  0  0  0  0  0  0  0
  158.5340  214.0450  154.7970 C   0  0  0  0  0  0  0  0  0  0  0  0
  159.6320  214.4530  155.2660 O   0  0  0  0  0  0  0  0  0  0  0  0
  157.3630  213.8560  155.7130 C   0  0  1  0  0  3  0  0  0  0  0  0
  156.5220  212.7670  155.2410 N   0  0  0  0  0  2  0  0  0  0  0  0
  155.4880  212.6590  156.1080 O   0  0  0  0  0  0  0  0  0  0  0  0
  155.3160  211.2840  156.2790 C   0  0  0  0  0  2  0  0  0  0  0  0
  155.6390  210.5680  154.9840 C   0  0  0  0  0  1  0  0  0  0  0  0
  157.8610  213.5740  157.1220 C   0  0  0  0  0  2  0  0  0  0  0  0
  159.1250  212.7320  157.0840 C   0  0  0  0  0  2  0  0  0  0  0  0
  158.8000  211.2960  156.7030 C   0  0  0  0  0  2  0  0  0  0  0  0
  162.6130  209.1500  157.2580 N   0  0  0  0  0  2  0  0  0  0  0  0
  160.0180  210.4380  156.7400 C   0  0  0  0  0  0  0  0  0  0  0  0
  163.8290  211.1210  156.6270 C   0  0  0  0  0  1  0  0  0  0  0  0
  159.8930  209.1860  156.8060 O   0  0  0  0  0  0  0  0  0  0  0  0
  162.5630  210.3690  156.8330 C   0  0  0  0  0  0  0  0  0  0  0  0
  161.3130  211.0470  156.6660 N   0  0  0  0  0  2  0  0  0  0  0  0
  2  1  1  0  0  0  0
  2 35  1  0  0  0  0
  3  7  1  0  0  0  0
  4  5  1  0  0  0  0
  5  1  2  0  0  0  0
  6  4  2  0  0  0  0
  6  7  1  0  0  0  0
  7  2  2  0  0  0  0
  8  6  1  0  0  0  0
  9  4  1  0  0  0  0
  9 11  2  0  0  0  0
 10  9  1  0  0  0  0
 12 16  1  0  0  0  0
 12 10  1  0  0  0  0
 13 17  1  0  0  0  0
 14 18  2  0  0  0  0
 14 16  1  0  0  0  0
 15 17  2  0  0  0  0
 16 13  2  0  0  0  0
 17 34  1  0  0  0  0
 18 15  1  0  0  0  0
 19 20  1  0  0  0  0
 20 14  1  6  0  0  0
 21 19  2  0  0  0  0
 22 24  1  0  0  0  0
 22 20  1  0  0  0  0
 23 21  1  0  0  0  0
 23 22  2  0  0  0  0
 25 24  1  0  0  0  0
 27 26  2  0  0  0  0
 28 25  1  0  0  0  0
 28 27  1  0  0  0  0
 30 29  1  6  0  0  0
 30 27  1  0  0  0  0
 31 30  1  0  0  0  0
 34 32  1  0  0  0  0
 34 33  1  0  0  0  0
 35 37  1  0  0  0  0
 36 35  2  0  0  0  0
 37 38  2  0  0  0  0
 37 39  1  0  0  0  0
 39 44  1  1  0  0  0
 40 39  1  0  0  0  0
 40 41  1  0  0  0  0
 41 42  1  0  0  0  0
 43 42  1  0  0  0  0
 45 44  1  0  0  0  0
 46 48  1  0  0  0  0
 46 45  1  0  0  0  0
 48 50  2  0  0  0  0
 49 51  1  0  0  0  0
 51 47  2  0  0  0  0
 52 48  1  0  0  0  0
 52 51  1  0  0  0  0
M  END
>  <MODEL>
6

>  <REMARK>
 VINA RESULT:      -4.0      2.483     11.477
  Name = 
  19 active torsions:
  status: ('A' for Active; 'I' for Inactive)
    1  A    between atoms: O_1  and  C_20
    2  A    between atoms: O_1  and  C_36
    3  A    between atoms: C_2  and  C_23
    4  A    between atoms: C_2  and  C_25
    5  A    between atoms: C_3  and  C_9
    6  A    between atoms: C_3  and  C_18
    7  A    between atoms: C_5  and  C_12
    8  A    between atoms: O_6  and  N_21
    9  A    between atoms: O_6  and  C_35
   10  A    between atoms: C_9  and  C_23
   11  A    between atoms: C_13  and  C_16
   12  A    between atoms: C_17  and  C_22
   13  A    between atoms: C_17  and  C_25
   14  A    between atoms: N_21  and  C_23
   15  A    between atoms: C_27  and  C_28
   16  A    between atoms: N_31  and  C_43
   17  A    between atoms: C_32  and  C_43
   18  A    between atoms: C_34  and  N_49
   19  A    between atoms: C_36  and  N_37
                            x       y       z     vdW  Elec       q    Type
                         _______ _______ _______ _____ _____    ______ ____

>  <TORSDO>
F 19

$$$$
=
 OpenBabel11042420523D

 52 54  0  0  1  0  0  0  0  0999 V2000
  160.3690  205.6400  148.7590 C   0  0  0  0  0  3  0  0  0  0  0  0
  161.2220  205.1950  147.7410 C   0  0  0  0  0  0  0  0  0  0  0  0
  163.2430  205.6300  146.2580 C   0  0  0  0  0  1  0  0  0  0  0  0
  161.5630  207.7450  148.9280 C   0  0  0  0  0  0  0  0  0  0  0  0
  160.5380  206.8930  149.3450 C   0  0  0  0  0  3  0  0  0  0  0  0
  162.4390  207.3120  147.9100 C   0  0  0  0  0  0  0  0  0  0  0  0
  162.2720  206.0470  147.3180 C   0  0  0  0  0  0  0  0  0  0  0  0
  163.4650  208.1050  147.5020 F   0  0  0  0  0  0  0  0  0  0  0  0
  161.6860  209.0760  149.5620 C   0  0  0  0  0  0  0  0  0  0  0  0
  161.5690  209.2220  150.9810 N   0  0  0  0  0  2  0  0  0  0  0  0
  161.9310  210.0880  148.8500 O   0  0  0  0  0  0  0  0  0  0  0  0
  161.6880  210.5110  151.6470 C   0  0  0  0  0  2  0  0  0  0  0  0
  161.3100  209.5750  153.9150 C   0  0  0  0  0  3  0  0  0  0  0  0
  159.8380  211.3710  153.1780 C   0  0  0  0  0  0  0  0  0  0  0  0
  159.5380  210.3380  155.3620 C   0  0  0  0  0  3  0  0  0  0  0  0
  160.9300  210.5020  152.9370 C   0  0  0  0  0  0  0  0  0  0  0  0
  160.6280  209.4890  155.1340 C   0  0  0  0  0  0  0  0  0  0  0  0
  159.1490  211.2650  154.3960 C   0  0  0  0  0  3  0  0  0  0  0  0
  159.9180  212.6260  150.9400 C   0  0  0  0  0  3  0  0  0  0  0  0
  159.3920  212.3940  152.1970 C   0  0  2  0  0  3  0  0  0  0  0  0
  159.2860  213.6710  150.3630 N   0  0  0  0  0  0  0  0  0  0  0  0
  158.4110  213.3470  152.3760 C   0  0  0  0  0  0  0  0  0  0  0  0
  158.3610  214.1190  151.2340 C   0  0  0  0  0  3  0  0  0  0  0  0
  157.6050  213.4870  153.5090 O   0  0  0  0  0  0  0  0  0  0  0  0
  157.9660  214.3230  154.6020 C   0  0  0  0  0  2  0  0  0  0  0  0
  155.0880  214.3560  154.7780 N   0  0  0  0  0  2  0  0  0  0  0  0
  155.7630  213.9250  155.7930 C   0  0  0  0  0  0  0  0  0  0  0  0
  157.1940  213.9580  155.7830 N   0  0  0  0  0  2  0  0  0  0  0  0
  155.2400  212.0000  157.2490 C   0  0  0  0  0  1  0  0  0  0  0  0
  155.0350  213.4860  157.0190 C   0  0  2  0  0  3  0  0  0  0  0  0
  153.6730  213.7550  156.8870 O   0  0  0  0  0  1  0  0  0  0  0  0
  162.3190  208.5540  156.5870 O   0  0  0  0  0  1  0  0  0  0  0  0
  160.1120  207.5830  156.7000 C   0  0  0  0  0  1  0  0  0  0  0  0
  161.0450  208.5390  156.1270 N   0  0  0  0  0  0  0  0  0  0  0  0
  160.9670  203.8630  147.1180 C   0  0  0  0  0  0  0  0  0  0  0  0
  160.3950  203.8010  145.9970 O   0  0  0  0  0  0  0  0  0  0  0  0
  161.3410  202.5940  147.7840 C   0  0  0  0  0  0  0  0  0  0  0  0
  162.4110  202.5050  148.4450 O   0  0  0  0  0  0  0  0  0  0  0  0
  160.4290  201.4080  147.6900 C   0  0  1  0  0  3  0  0  0  0  0  0
  161.2030  200.1870  147.5230 N   0  0  0  0  0  2  0  0  0  0  0  0
  161.6340  200.1630  146.2400 O   0  0  0  0  0  0  0  0  0  0  0  0
  160.6650  199.4260  145.5570 C   0  0  0  0  0  2  0  0  0  0  0  0
  161.2900  198.1660  144.9960 C   0  0  0  0  0  1  0  0  0  0  0  0
  159.5690  201.3280  148.9420 C   0  0  0  0  0  2  0  0  0  0  0  0
  159.8430  202.5110  149.8560 C   0  0  0  0  0  2  0  0  0  0  0  0
  160.7050  202.0880  151.0340 C   0  0  0  0  0  2  0  0  0  0  0  0
  161.3430  205.8440  153.2580 N   0  0  0  0  0  2  0  0  0  0  0  0
  160.9640  203.2340  151.9540 C   0  0  0  0  0  0  0  0  0  0  0  0
  163.1100  206.4510  151.7510 C   0  0  0  0  0  1  0  0  0  0  0  0
  160.4210  203.2510  153.0900 O   0  0  0  0  0  0  0  0  0  0  0  0
  162.0810  205.5030  152.2530 C   0  0  0  0  0  0  0  0  0  0  0  0
  161.8510  204.2810  151.5430 N   0  0  0  0  0  2  0  0  0  0  0  0
  1  5  1  0  0  0  0
  2  1  2  0  0  0  0
  3  7  1  0  0  0  0
  4  5  2  0  0  0  0
  4  9  1  0  0  0  0
  6  4  1  0  0  0  0
  7  2  1  0  0  0  0
  7  6  2  0  0  0  0
  8  6  1  0  0  0  0
  9 10  1  0  0  0  0
 10 12  1  0  0  0  0
 11  9  2  0  0  0  0
 12 16  1  0  0  0  0
 13 17  1  0  0  0  0
 14 18  2  0  0  0  0
 16 14  1  0  0  0  0
 16 13  2  0  0  0  0
 17 15  2  0  0  0  0
 17 34  1  0  0  0  0
 18 15  1  0  0  0  0
 19 20  1  0  0  0  0
 20 22  1  0  0  0  0
 20 14  1  1  0  0  0
 21 19  2  0  0  0  0
 21 23  1  0  0  0  0
 22 24  1  0  0  0  0
 23 22  2  0  0  0  0
 24 25  1  0  0  0  0
 25 28  1  0  0  0  0
 26 27  2  0  0  0  0
 27 30  1  0  0  0  0
 28 27  1  0  0  0  0
 30 29  1  6  0  0  0
 31 30  1  0  0  0  0
 34 32  1  0  0  0  0
 34 33  1  0  0  0  0
 35  2  1  0  0  0  0
 35 37  1  0  0  0  0
 36 35  2  0  0  0  0
 37 38  2  0  0  0  0
 39 37  1  0  0  0  0
 39 44  1  1  0  0  0
 40 39  1  0  0  0  0
 41 40  1  0  0  0  0
 42 41  1  0  0  0  0
 43 42  1  0  0  0  0
 44 45  1  0  0  0  0
 45 46  1  0  0  0  0
 46 48  1  0  0  0  0
 48 50  2  0  0  0  0
 49 51  1  0  0  0  0
 51 47  2  0  0  0  0
 52 48  1  0  0  0  0
 52 51  1  0  0  0  0
M  END
>  <MODEL>
7

>  <REMARK>
 VINA RESULT:      -3.8      2.147      4.590
  Name = 
  19 active torsions:
  status: ('A' for Active; 'I' for Inactive)
    1  A    between atoms: O_1  and  C_20
    2  A    between atoms: O_1  and  C_36
    3  A    between atoms: C_2  and  C_23
    4  A    between atoms: C_2  and  C_25
    5  A    between atoms: C_3  and  C_9
    6  A    between atoms: C_3  and  C_18
    7  A    between atoms: C_5  and  C_12
    8  A    between atoms: O_6  and  N_21
    9  A    between atoms: O_6  and  C_35
   10  A    between atoms: C_9  and  C_23
   11  A    between atoms: C_13  and  C_16
   12  A    between atoms: C_17  and  C_22
   13  A    between atoms: C_17  and  C_25
   14  A    between atoms: N_21  and  C_23
   15  A    between atoms: C_27  and  C_28
   16  A    between atoms: N_31  and  C_43
   17  A    between atoms: C_32  and  C_43
   18  A    between atoms: C_34  and  N_49
   19  A    between atoms: C_36  and  N_37
                            x       y       z     vdW  Elec       q    Type
                         _______ _______ _______ _____ _____    ______ ____

>  <TORSDO>
F 19

$$$$
=
 OpenBabel11042420523D

 52 54  0  0  1  0  0  0  0  0999 V2000
  160.4740  208.8080  154.5390 C   0  0  0  0  0  3  0  0  0  0  0  0
  160.1870  210.1780  154.5000 C   0  0  0  0  0  0  0  0  0  0  0  0
  160.0530  212.3290  153.1470 C   0  0  0  0  0  1  0  0  0  0  0  0
  161.1270  208.8110  152.2030 C   0  0  0  0  0  0  0  0  0  0  0  0
  160.9340  208.1350  153.4100 C   0  0  0  0  0  3  0  0  0  0  0  0
  160.8340  210.1890  152.1390 C   0  0  0  0  0  0  0  0  0  0  0  0
  160.3680  210.8720  153.2780 C   0  0  0  0  0  0  0  0  0  0  0  0
  160.9820  210.8710  150.9730 F   0  0  0  0  0  0  0  0  0  0  0  0
  161.6420  208.0580  151.0380 C   0  0  0  0  0  0  0  0  0  0  0  0
  160.8090  207.8170  149.8990 N   0  0  0  0  0  2  0  0  0  0  0  0
  162.8370  207.6540  151.0320 O   0  0  0  0  0  0  0  0  0  0  0  0
  161.2770  207.0860  148.7300 C   0  0  0  0  0  2  0  0  0  0  0  0
  161.2220  205.1630  150.2990 C   0  0  0  0  0  3  0  0  0  0  0  0
  161.1320  204.6720  147.9140 C   0  0  0  0  0  0  0  0  0  0  0  0
  161.1330  202.8710  149.5510 C   0  0  0  0  0  3  0  0  0  0  0  0
  161.1980  205.6110  148.9730 C   0  0  0  0  0  0  0  0  0  0  0  0
  161.1810  203.7960  150.6000 C   0  0  0  0  0  0  0  0  0  0  0  0
  161.1100  203.3050  148.2260 C   0  0  0  0  0  3  0  0  0  0  0  0
  160.9480  206.3580  145.9850 C   0  0  0  0  0  3  0  0  0  0  0  0
  161.0810  205.0760  146.4840 C   0  0  2  0  0  3  0  0  0  0  0  0
  160.8890  206.3220  144.6370 N   0  0  0  0  0  0  0  0  0  0  0  0
  161.0930  204.2430  145.3840 C   0  0  0  0  0  0  0  0  0  0  0  0
  160.9780  205.0320  144.2590 C   0  0  0  0  0  3  0  0  0  0  0  0
  161.2180  202.8520  145.4140 O   0  0  0  0  0  0  0  0  0  0  0  0
  160.0900  201.9870  145.4750 C   0  0  0  0  0  2  0  0  0  0  0  0
  161.5020  200.0640  147.0940 N   0  0  0  0  0  2  0  0  0  0  0  0
  161.1060  199.7060  145.9160 C   0  0  0  0  0  0  0  0  0  0  0  0
  160.4670  200.6460  145.0460 N   0  0  0  0  0  2  0  0  0  0  0  0
  160.1610  197.6730  144.8810 C   0  0  0  0  0  1  0  0  0  0  0  0
  161.4130  198.3300  145.4310 C   0  0  2  0  0  3  0  0  0  0  0  0
  161.9240  197.5590  146.4750 O   0  0  0  0  0  1  0  0  0  0  0  0
  161.4610  202.0670  152.2670 O   0  0  0  0  0  1  0  0  0  0  0  0
  160.9750  204.2930  153.0630 C   0  0  0  0  0  1  0  0  0  0  0  0
  161.1930  203.3610  151.9700 N   0  0  0  0  0  0  0  0  0  0  0  0
  159.7400  210.8570  155.7510 C   0  0  0  0  0  0  0  0  0  0  0  0
  159.7630  210.2270  156.8420 O   0  0  0  0  0  0  0  0  0  0  0  0
  159.2410  212.2520  155.7600 C   0  0  0  0  0  0  0  0  0  0  0  0
  160.0400  213.2230  155.6650 O   0  0  0  0  0  0  0  0  0  0  0  0
  157.7690  212.5140  155.8590 C   0  0  1  0  0  3  0  0  0  0  0  0
  157.2160  211.8570  157.0340 N   0  0  0  0  0  2  0  0  0  0  0  0
  155.8680  211.9210  156.9280 O   0  0  0  0  0  0  0  0  0  0  0  0
  155.5200  210.7890  156.1890 C   0  0  0  0  0  2  0  0  0  0  0  0
  154.1290  210.3370  156.5810 C   0  0  0  0  0  1  0  0  0  0  0  0
  157.5220  214.0130  155.9200 C   0  0  0  0  0  2  0  0  0  0  0  0
  156.5840  214.4470  154.8050 C   0  0  0  0  0  2  0  0  0  0  0  0
  156.4060  213.3270  153.7910 C   0  0  0  0  0  2  0  0  0  0  0  0
  156.4830  214.3870  149.5100 N   0  0  0  0  0  2  0  0  0  0  0  0
  156.3320  213.8640  152.4020 C   0  0  0  0  0  0  0  0  0  0  0  0
  158.8830  214.3170  149.5230 C   0  0  0  0  0  1  0  0  0  0  0  0
  155.2380  214.3150  151.9690 O   0  0  0  0  0  0  0  0  0  0  0  0
  157.5630  214.2390  150.2040 C   0  0  0  0  0  0  0  0  0  0  0  0
  157.5130  213.8900  151.5920 N   0  0  0  0  0  2  0  0  0  0  0  0
  2  1  1  0  0  0  0
  2 35  1  0  0  0  0
  3  7  1  0  0  0  0
  4  5  1  0  0  0  0
  5  1  2  0  0  0  0
  6  4  2  0  0  0  0
  6  7  1  0  0  0  0
  7  2  2  0  0  0  0
  8  6  1  0  0  0  0
  9  4  1  0  0  0  0
 10  9  1  0  0  0  0
 11  9  2  0  0  0  0
 12 16  1  0  0  0  0
 12 10  1  0  0  0  0
 13 17  1  0  0  0  0
 14 18  2  0  0  0  0
 14 16  1  0  0  0  0
 15 17  2  0  0  0  0
 16 13  2  0  0  0  0
 17 34  1  0  0  0  0
 18 15  1  0  0  0  0
 19 20  1  0  0  0  0
 20 14  1  1  0  0  0
 21 19  2  0  0  0  0
 22 24  1  0  0  0  0
 22 20  1  0  0  0  0
 23 21  1  0  0  0  0
 23 22  2  0  0  0  0
 24 25  1  0  0  0  0
 27 26  2  0  0  0  0
 28 25  1  0  0  0  0
 28 27  1  0  0  0  0
 30 29  1  1  0  0  0
 30 27  1  0  0  0  0
 30 31  1  0  0  0  0
 34 32  1  0  0  0  0
 34 33  1  0  0  0  0
 35 37  1  0  0  0  0
 35 36  2  0  0  0  0
 37 39  1  0  0  0  0
 38 37  2  0  0  0  0
 39 44  1  1  0  0  0
 39 40  1  0  0  0  0
 41 40  1  0  0  0  0
 42 43  1  0  0  0  0
 42 41  1  0  0  0  0
 45 44  1  0  0  0  0
 46 45  1  0  0  0  0
 47 51  2  0  0  0  0
 48 46  1  0  0  0  0
 49 51  1  0  0  0  0
 50 48  2  0  0  0  0
 51 52  1  0  0  0  0
 52 48  1  0  0  0  0
M  END
>  <MODEL>
8

>  <REMARK>
 VINA RESULT:      -3.5      2.318     11.762
  Name = 
  19 active torsions:
  status: ('A' for Active; 'I' for Inactive)
    1  A    between atoms: O_1  and  C_20
    2  A    between atoms: O_1  and  C_36
    3  A    between atoms: C_2  and  C_23
    4  A    between atoms: C_2  and  C_25
    5  A    between atoms: C_3  and  C_9
    6  A    between atoms: C_3  and  C_18
    7  A    between atoms: C_5  and  C_12
    8  A    between atoms: O_6  and  N_21
    9  A    between atoms: O_6  and  C_35
   10  A    between atoms: C_9  and  C_23
   11  A    between atoms: C_13  and  C_16
   12  A    between atoms: C_17  and  C_22
   13  A    between atoms: C_17  and  C_25
   14  A    between atoms: N_21  and  C_23
   15  A    between atoms: C_27  and  C_28
   16  A    between atoms: N_31  and  C_43
   17  A    between atoms: C_32  and  C_43
   18  A    between atoms: C_34  and  N_49
   19  A    between atoms: C_36  and  N_37
                            x       y       z     vdW  Elec       q    Type
                         _______ _______ _______ _____ _____    ______ ____

>  <TORSDO>
F 19

$$$$
=
 OpenBabel11042420523D

 52 54  0  0  1  0  0  0  0  0999 V2000
  160.8000  206.9100  149.3720 C   0  0  0  0  0  3  0  0  0  0  0  0
  160.8660  205.7980  150.2210 C   0  0  0  0  0  0  0  0  0  0  0  0
  161.1530  204.8800  152.5760 C   0  0  0  0  0  1  0  0  0  0  0  0
  161.2080  208.4270  151.2210 C   0  0  0  0  0  0  0  0  0  0  0  0
  160.9650  208.2030  149.8630 C   0  0  0  0  0  3  0  0  0  0  0  0
  161.2690  207.3220  152.0940 C   0  0  0  0  0  0  0  0  0  0  0  0
  161.1000  206.0140  151.6020 C   0  0  0  0  0  0  0  0  0  0  0  0
  161.4740  207.5060  153.4250 F   0  0  0  0  0  0  0  0  0  0  0  0
  161.4030  209.8170  151.6900 C   0  0  0  0  0  0  0  0  0  0  0  0
  160.4210  210.4540  152.5130 N   0  0  0  0  0  2  0  0  0  0  0  0
  162.4610  210.4350  151.3920 O   0  0  0  0  0  0  0  0  0  0  0  0
  160.5740  211.8170  153.0010 C   0  0  0  0  0  2  0  0  0  0  0  0
  159.1920  212.6640  151.1220 C   0  0  0  0  0  3  0  0  0  0  0  0
  158.7070  213.5190  153.3510 C   0  0  0  0  0  0  0  0  0  0  0  0
  157.4520  214.3080  151.4200 C   0  0  0  0  0  3  0  0  0  0  0  0
  159.4610  212.6790  152.4950 C   0  0  0  0  0  0  0  0  0  0  0  0
  158.1850  213.4670  150.5740 C   0  0  0  0  0  0  0  0  0  0  0  0
  157.7120  214.3340  152.7900 C   0  0  0  0  0  3  0  0  0  0  0  0
  159.7850  214.4050  155.5070 C   0  0  0  0  0  3  0  0  0  0  0  0
  158.9220  213.5710  154.8210 C   0  0  0  0  0  0  0  0  0  0  0  0
  159.7410  214.1250  156.8270 N   0  0  0  0  0  2  0  0  0  0  0  0
  158.3480  212.7560  155.7750 C   0  0  0  0  0  0  0  0  0  0  0  0
  158.8640  213.1170  157.0020 C   0  0  0  0  0  3  0  0  0  0  0  0
  157.4010  211.7580  155.5330 O   0  0  0  0  0  0  0  0  0  0  0  0
  157.7530  210.4870  154.9970 C   0  0  0  0  0  2  0  0  0  0  0  0
  160.6040  210.1360  155.2390 N   0  0  0  0  0  2  0  0  0  0  0  0
  159.8390  209.6010  156.1330 C   0  0  0  0  0  0  0  0  0  0  0  0
  158.4150  209.6830  156.0170 N   0  0  0  0  0  2  0  0  0  0  0  0
  161.9610  208.9640  157.2240 C   0  0  0  0  0  1  0  0  0  0  0  0
  160.4520  208.8060  157.2370 C   0  0  2  0  0  3  0  0  0  0  0  0
  160.1220  207.4590  157.0950 O   0  0  0  0  0  1  0  0  0  0  0  0
  158.9380  213.5050  148.2770 O   0  0  0  0  0  1  0  0  0  0  0  0
  156.5690  213.2390  148.6530 C   0  0  0  0  0  1  0  0  0  0  0  0
  157.9180  213.4240  149.1630 N   0  0  0  0  0  0  0  0  0  0  0  0
  160.7260  204.4340  149.6340 C   0  0  0  0  0  0  0  0  0  0  0  0
  159.9240  203.6120  150.1540 O   0  0  0  0  0  0  0  0  0  0  0  0
  161.5190  203.9900  148.4640 C   0  0  0  0  0  0  0  0  0  0  0  0
  162.1010  204.8310  147.7250 O   0  0  0  0  0  0  0  0  0  0  0  0
  161.6530  202.5280  148.1660 C   0  0  1  0  0  3  0  0  0  0  0  0
  161.8680  201.7790  149.3960 N   0  0  0  0  0  2  0  0  0  0  0  0
  160.9120  200.8220  149.4510 O   0  0  0  0  0  0  0  0  0  0  0  0
  160.7950  200.5210  150.8090 C   0  0  0  0  0  2  0  0  0  0  0  0
  161.5640  201.5420  151.6220 C   0  0  0  0  0  1  0  0  0  0  0  0
  160.4020  202.0370  147.4540 C   0  0  0  0  0  2  0  0  0  0  0  0
  160.7620  201.3760  146.1340 C   0  0  0  0  0  2  0  0  0  0  0  0
  159.7330  201.7170  145.0680 C   0  0  0  0  0  2  0  0  0  0  0  0
  160.9690  205.5720  143.3170 N   0  0  0  0  0  2  0  0  0  0  0  0
  159.9540  203.0870  144.5220 C   0  0  0  0  0  0  0  0  0  0  0  0
  162.7060  205.7770  144.9610 C   0  0  0  0  0  1  0  0  0  0  0  0
  159.1010  203.5880  143.7410 O   0  0  0  0  0  0  0  0  0  0  0  0
  161.5300  205.0830  144.3730 C   0  0  0  0  0  0  0  0  0  0  0  0
  161.1150  203.8260  144.9200 N   0  0  0  0  0  2  0  0  0  0  0  0
  1  5  2  0  0  0  0
  1  2  1  0  0  0  0
  2  7  2  0  0  0  0
  4  9  1  0  0  0  0
  4  6  2  0  0  0  0
  5  4  1  0  0  0  0
  6  8  1  0  0  0  0
  7  6  1  0  0  0  0
  7  3  1  0  0  0  0
  9 10  1  0  0  0  0
 10 12  1  0  0  0  0
 11  9  2  0  0  0  0
 13 16  1  0  0  0  0
 14 20  1  0  0  0  0
 15 18  2  0  0  0  0
 16 12  1  0  0  0  0
 16 14  2  0  0  0  0
 17 13  2  0  0  0  0
 17 15  1  0  0  0  0
 18 14  1  0  0  0  0
 19 21  1  0  0  0  0
 20 19  2  0  0  0  0
 20 22  1  0  0  0  0
 21 23  1  0  0  0  0
 22 23  2  0  0  0  0
 24 22  1  0  0  0  0
 25 24  1  0  0  0  0
 25 28  1  0  0  0  0
 26 27  2  0  0  0  0
 27 30  1  0  0  0  0
 28 27  1  0  0  0  0
 30 29  1  6  0  0  0
 31 30  1  0  0  0  0
 32 34  1  0  0  0  0
 33 34  1  0  0  0  0
 34 17  1  0  0  0  0
 35 36  2  0  0  0  0
 35  2  1  0  0  0  0
 37 35  1  0  0  0  0
 38 37  2  0  0  0  0
 39 44  1  1  0  0  0
 39 37  1  0  0  0  0
 39 40  1  0  0  0  0
 40 41  1  0  0  0  0
 41 42  1  0  0  0  0
 42 43  1  0  0  0  0
 45 44  1  0  0  0  0
 46 45  1  0  0  0  0
 47 51  2  0  0  0  0
 48 52  1  0  0  0  0
 48 46  1  0  0  0  0
 50 48  2  0  0  0  0
 51 52  1  0  0  0  0
 51 49  1  0  0  0  0
M  END
>  <MODEL>
9

>  <REMARK>
 VINA RESULT:      -3.4      2.277      3.938
  Name = 
  19 active torsions:
  status: ('A' for Active; 'I' for Inactive)
    1  A    between atoms: O_1  and  C_20
    2  A    between atoms: O_1  and  C_36
    3  A    between atoms: C_2  and  C_23
    4  A    between atoms: C_2  and  C_25
    5  A    between atoms: C_3  and  C_9
    6  A    between atoms: C_3  and  C_18
    7  A    between atoms: C_5  and  C_12
    8  A    between atoms: O_6  and  N_21
    9  A    between atoms: O_6  and  C_35
   10  A    between atoms: C_9  and  C_23
   11  A    between atoms: C_13  and  C_16
   12  A    between atoms: C_17  and  C_22
   13  A    between atoms: C_17  and  C_25
   14  A    between atoms: N_21  and  C_23
   15  A    between atoms: C_27  and  C_28
   16  A    between atoms: N_31  and  C_43
   17  A    between atoms: C_32  and  C_43
   18  A    between atoms: C_34  and  N_49
   19  A    between atoms: C_36  and  N_37
                            x       y       z     vdW  Elec       q    Type
                         _______ _______ _______ _____ _____    ______ ____

>  <TORSDO>
F 19

$$$$
