=
 OpenBabel11052411573D

 56 63  0  0  1  0  0  0  0  0999 V2000
  158.9980  212.9770  146.8960 C   0  0  0  0  0  3  0  0  0  0  0  0
  160.4640  214.4530  144.5750 S   0  0  0  0  0  0  0  0  0  0  0  0
  158.4710  212.7780  149.9600 C   0  0  0  0  0  0  0  0  0  0  0  0
  161.4910  213.0480  146.7240 C   0  0  0  0  0  0  0  0  0  0  0  0
  159.8310  212.2060  149.7930 C   0  0  0  0  0  3  0  0  0  0  0  0
  160.2200  212.8230  147.4050 C   0  0  0  0  0  0  0  0  0  0  0  0
  163.0510  213.7510  144.9470 C   0  0  0  0  0  2  0  0  0  0  0  0
  161.7140  213.7000  145.5720 C   0  0  0  0  0  0  0  0  0  0  0  0
  160.5540  212.1660  148.6670 C   0  0  0  0  0  0  0  0  0  0  0  0
  162.5460  212.4470  147.4740 N   0  0  0  0  0  2  0  0  0  0  0  0
  157.7830  212.4220  147.5630 C   0  0  0  0  0  2  0  0  0  0  0  0
  157.5910  212.9210  148.9610 C   0  0  0  0  0  3  0  0  0  0  0  0
  162.0100  211.7910  148.6670 C   0  0  2  0  0  3  0  0  0  0  0  0
  161.4820  214.0090  143.1360 C   0  0  1  0  0  3  0  0  0  0  0  0
  162.8950  213.8180  143.4950 N   0  0  0  0  0  2  0  0  0  0  0  0
  158.5790  214.3290  153.4220 C   0  0  0  0  0  3  0  0  0  0  0  0
  158.0850  213.2270  151.3130 C   0  0  0  0  0  0  0  0  0  0  0  0
  156.4070  213.3200  153.0720 C   0  0  0  0  0  0  0  0  0  0  0  0
  158.9810  213.9300  152.1450 C   0  0  0  0  0  0  0  0  0  0  0  0
  160.2670  214.2410  151.7150 O   0  0  0  0  0  1  0  0  0  0  0  0
  157.2970  214.0330  153.8910 C   0  0  0  0  0  0  0  0  0  0  0  0
  156.8030  212.9260  151.7910 C   0  0  0  0  0  3  0  0  0  0  0  0
  155.1790  212.9730  153.5250 F   0  0  0  0  0  0  0  0  0  0  0  0
  156.9220  214.4520  155.2800 C   0  0  0  0  0  2  0  0  0  0  0  0
  156.1740  212.6930  156.6310 C   0  0  0  0  0  2  0  0  0  0  0  0
  157.8290  211.1370  155.9360 C   0  0  0  0  0  2  0  0  0  0  0  0
  158.2760  212.5400  155.6110 C   0  0  0  0  0  2  0  0  0  0  0  0
  156.3480  211.2760  156.1210 C   0  0  0  0  0  2  0  0  0  0  0  0
  157.3570  213.4670  156.2660 N   0  0  0  0  0  0  0  0  0  0  0  0
  160.9100  212.7870  142.4180 C   0  0  2  0  0  3  0  0  0  0  0  0
  160.4360  211.8420  143.3330 O   0  0  0  0  0  1  0  0  0  0  0  0
  161.9360  212.1840  141.5770 N   0  0  0  0  0  2  0  0  0  0  0  0
  161.9460  210.6880  138.2720 C   0  0  2  0  0  3  0  0  0  0  0  0
  161.1810  212.7610  139.2940 C   0  0  1  0  0  3  0  0  0  0  0  0
  161.1600  211.9640  138.0060 C   0  0  0  0  0  2  0  0  0  0  0  0
  161.2670  211.6950  140.3780 C   0  0  1  0  0  3  0  0  0  0  0  0
  161.0670  209.6660  138.9700 C   0  0  2  0  0  3  0  0  0  0  0  0
  162.3260  213.5690  139.3040 O   0  0  0  0  0  1  0  0  0  0  0  0
  162.0250  210.5260  139.7790 C   0  0  1  0  0  3  0  0  0  0  0  0
  162.0690  207.5780  139.9750 N   0  0  0  0  0  2  0  0  0  0  0  0
  162.5930  206.2250  139.8960 C   0  0  0  0  0  1  0  0  0  0  0  0
  161.6760  207.7510  137.6780 O   0  0  0  0  0  0  0  0  0  0  0  0
  161.6330  208.2920  138.8160 C   0  0  0  0  0  0  0  0  0  0  0  0
  161.1860  209.6450  147.6200 C   0  0  0  0  0  1  0  0  0  0  0  0
  162.2050  210.2730  148.5560 C   0  0  2  0  0  3  0  0  0  0  0  0
  162.1740  210.2930  151.0000 N   0  0  0  0  0  0  0  0  0  0  0  0
  162.1540  209.3780  152.1360 C   0  0  2  0  0  3  0  0  0  0  0  0
  162.0010  208.2020  150.0530 N   0  0  0  0  0  2  0  0  0  0  0  0
  162.0910  209.6170  149.8950 C   0  0  0  0  0  0  0  0  0  0  0  0
  162.0250  208.0590  151.4610 C   0  0  0  0  0  0  0  0  0  0  0  0
  161.9990  206.9430  152.0430 O   0  0  0  0  0  0  0  0  0  0  0  0
  160.5340  210.9810  152.8470 O   0  0  0  0  0  1  0  0  0  0  0  0
  161.0120  209.6960  153.1180 C   0  0  2  0  0  3  0  0  0  0  0  0
  161.6300  210.9640  155.1940 C   0  0  0  0  0  1  0  0  0  0  0  0
  161.3990  209.5820  154.6020 C   0  0  1  0  0  3  0  0  0  0  0  0
  160.3870  208.9480  155.3260 O   0  0  0  0  0  1  0  0  0  0  0  0
  1  6  2  0  0  0  0
  1 11  1  0  0  0  0
  2  8  1  0  0  0  0
  3 17  1  0  0  0  0
  4  6  1  0  0  0  0
  4 10  1  0  0  0  0
  5  3  1  0  0  0  0
  6  9  1  0  0  0  0
  7  8  1  0  0  0  0
  8  4  2  0  0  0  0
  9  5  2  0  0  0  0
 10 13  1  0  0  0  0
 11 12  1  0  0  0  0
 12  3  2  0  0  0  0
 13 45  1  6  0  0  0
 13  9  1  0  0  0  0
 14 30  1  1  0  0  0
 14 15  1  0  0  0  0
 14  2  1  0  0  0  0
 15  7  1  0  0  0  0
 16 21  1  0  0  0  0
 17 22  2  0  0  0  0
 17 19  1  0  0  0  0
 18 23  1  0  0  0  0
 18 21  2  0  0  0  0
 19 16  2  0  0  0  0
 20 19  1  0  0  0  0
 21 24  1  0  0  0  0
 22 18  1  0  0  0  0
 24 29  1  0  0  0  0
 26 28  1  0  0  0  0
 27 26  1  0  0  0  0
 27 29  1  0  0  0  0
 28 25  1  0  0  0  0
 29 25  1  0  0  0  0
 30 31  1  1  0  0  0
 32 30  1  0  0  0  0
 33 35  1  1  0  0  0
 33 37  1  0  0  0  0
 33 39  1  0  0  0  0
 34 38  1  6  0  0  0
 34 36  1  0  0  0  0
 35 34  1  0  0  0  0
 36 32  1  1  0  0  0
 37 43  1  6  0  0  0
 37 39  1  0  0  0  0
 39 36  1  0  0  0  0
 41 40  1  0  0  0  0
 42 43  2  0  0  0  0
 43 40  1  0  0  0  0
 44 45  1  0  0  0  0
 45 49  1  0  0  0  0
 46 47  1  0  0  0  0
 47 53  1  0  0  0  0
 48 50  1  0  0  0  0
 49 48  1  0  0  0  0
 49 46  2  0  0  0  0
 50 51  2  0  0  0  0
 50 47  1  0  0  0  0
 52 53  1  0  0  0  0
 53 55  1  0  0  0  0
 55 54  1  0  0  0  0
 55 56  1  0  0  0  0
M  END
>  <MODEL>
1

>  <REMARK>
 VINA RESULT:      -3.9      0.000      0.000
  Name = 
  11 active torsions:
  status: ('A' for Active; 'I' for Inactive)
    1  A    between atoms: C_4  and  C_41
    2  A    between atoms: C_4  and  N_56
    3  A    between atoms: C_7  and  C_22
    4  A    between atoms: C_9  and  C_47
    5  A    between atoms: C_9  and  N_48
    6  A    between atoms: C_10  and  C_32
    7  A    between atoms: C_23  and  N_48
    8  A    between atoms: C_29  and  C_32
    9  A    between atoms: C_31  and  C_37
   10  A    between atoms: C_37  and  C_45
   11  A    between atoms: C_39  and  C_52
                            x       y       z     vdW  Elec       q    Type
                         _______ _______ _______ _____ _____    ______ ____

>  <TORSDO>
F 11

$$$$
=
 OpenBabel11052411573D

 56 63  0  0  1  0  0  0  0  0999 V2000
  159.0650  212.8920  146.4830 C   0  0  0  0  0  3  0  0  0  0  0  0
  160.4420  214.4530  144.1630 S   0  0  0  0  0  0  0  0  0  0  0  0
  158.4020  212.7580  149.5240 C   0  0  0  0  0  0  0  0  0  0  0  0
  161.5310  213.3010  146.4280 C   0  0  0  0  0  0  0  0  0  0  0  0
  159.8350  212.3740  149.4520 C   0  0  0  0  0  3  0  0  0  0  0  0
  160.2680  212.9320  147.0570 C   0  0  0  0  0  0  0  0  0  0  0  0
  163.0760  214.1350  144.6950 C   0  0  0  0  0  2  0  0  0  0  0  0
  161.7260  213.9260  145.2560 C   0  0  0  0  0  0  0  0  0  0  0  0
  160.6180  212.3840  148.3660 C   0  0  0  0  0  0  0  0  0  0  0  0
  162.6160  212.8860  147.2580 N   0  0  0  0  0  2  0  0  0  0  0  0
  157.9020  212.2040  147.1180 C   0  0  0  0  0  2  0  0  0  0  0  0
  157.5670  212.7330  148.4770 C   0  0  0  0  0  3  0  0  0  0  0  0
  162.1090  212.2160  148.4560 C   0  0  2  0  0  3  0  0  0  0  0  0
  161.5880  214.0910  142.7990 C   0  0  1  0  0  3  0  0  0  0  0  0
  162.9920  214.1150  143.2350 N   0  0  0  0  0  2  0  0  0  0  0  0
  158.2170  213.9480  153.1220 C   0  0  0  0  0  3  0  0  0  0  0  0
  157.8860  213.2080  150.8310 C   0  0  0  0  0  0  0  0  0  0  0  0
  155.9730  213.6980  152.2530 C   0  0  0  0  0  0  0  0  0  0  0  0
  158.7480  213.5350  151.8980 C   0  0  0  0  0  0  0  0  0  0  0  0
  160.1300  213.4560  151.7550 O   0  0  0  0  0  1  0  0  0  0  0  0
  156.8360  214.0370  153.3070 C   0  0  0  0  0  0  0  0  0  0  0  0
  156.5000  213.2920  151.0250 C   0  0  0  0  0  3  0  0  0  0  0  0
  154.6290  213.7230  152.4250 F   0  0  0  0  0  0  0  0  0  0  0  0
  156.3120  214.4530  154.6480 C   0  0  0  0  0  2  0  0  0  0  0  0
  155.8180  212.1660  154.7110 C   0  0  0  0  0  2  0  0  0  0  0  0
  157.7500  211.5370  155.9400 C   0  0  0  0  0  2  0  0  0  0  0  0
  157.4960  213.0150  156.1060 C   0  0  0  0  0  2  0  0  0  0  0  0
  156.9730  211.1850  154.7080 C   0  0  0  0  0  2  0  0  0  0  0  0
  156.1800  213.3080  155.5440 N   0  0  0  0  0  0  0  0  0  0  0  0
  161.2290  212.7710  142.1190 C   0  0  2  0  0  3  0  0  0  0  0  0
  162.3660  211.9840  141.9140 O   0  0  0  0  0  1  0  0  0  0  0  0
  160.5780  213.0350  140.8420 N   0  0  0  0  0  2  0  0  0  0  0  0
  159.9020  210.4540  138.3830 C   0  0  2  0  0  3  0  0  0  0  0  0
  158.6150  212.0140  139.7370 C   0  0  1  0  0  3  0  0  0  0  0  0
  158.4860  210.8420  138.7880 C   0  0  0  0  0  2  0  0  0  0  0  0
  159.9580  211.7860  140.4160 C   0  0  1  0  0  3  0  0  0  0  0  0
  160.5320  209.5770  139.4510 C   0  0  2  0  0  3  0  0  0  0  0  0
  158.6340  213.1990  138.9890 O   0  0  0  0  0  1  0  0  0  0  0  0
  160.8360  211.0660  139.4110 C   0  0  1  0  0  3  0  0  0  0  0  0
  162.0520  207.5630  139.4790 N   0  0  0  0  0  2  0  0  0  0  0  0
  163.1400  206.7540  138.9570 C   0  0  0  0  0  1  0  0  0  0  0  0
  162.2970  209.2450  137.8760 O   0  0  0  0  0  0  0  0  0  0  0  0
  161.6860  208.8130  138.8910 C   0  0  0  0  0  0  0  0  0  0  0  0
  161.7920  209.9740  147.3350 C   0  0  0  0  0  1  0  0  0  0  0  0
  162.5150  210.7360  148.4330 C   0  0  2  0  0  3  0  0  0  0  0  0
  161.5180  208.9900  149.8210 N   0  0  0  0  0  0  0  0  0  0  0  0
  161.2920  208.6530  151.2230 C   0  0  2  0  0  3  0  0  0  0  0  0
  162.5930  210.6530  150.9950 N   0  0  0  0  0  2  0  0  0  0  0  0
  162.2220  210.0770  149.7430 C   0  0  0  0  0  0  0  0  0  0  0  0
  162.0200  209.7480  151.9190 C   0  0  0  0  0  0  0  0  0  0  0  0
  162.0820  209.9020  153.1670 O   0  0  0  0  0  0  0  0  0  0  0  0
  163.1610  207.1680  151.2670 O   0  0  0  0  0  1  0  0  0  0  0  0
  161.7980  207.2410  151.5700 C   0  0  2  0  0  3  0  0  0  0  0  0
  161.8440  205.5950  149.6760 C   0  0  0  0  0  1  0  0  0  0  0  0
  161.0430  206.1030  150.8640 C   0  0  1  0  0  3  0  0  0  0  0  0
  160.8230  205.0410  151.7440 O   0  0  0  0  0  1  0  0  0  0  0  0
  1  6  2  0  0  0  0
  1 11  1  0  0  0  0
  2  8  1  0  0  0  0
  3 17  1  0  0  0  0
  4  6  1  0  0  0  0
  4 10  1  0  0  0  0
  5  3  1  0  0  0  0
  6  9  1  0  0  0  0
  7  8  1  0  0  0  0
  8  4  2  0  0  0  0
  9 13  1  0  0  0  0
  9  5  2  0  0  0  0
 10 13  1  0  0  0  0
 11 12  1  0  0  0  0
 12  3  2  0  0  0  0
 13 45  1  6  0  0  0
 14 30  1  1  0  0  0
 14 15  1  0  0  0  0
 14  2  1  0  0  0  0
 15  7  1  0  0  0  0
 16 21  1  0  0  0  0
 17 22  2  0  0  0  0
 17 19  1  0  0  0  0
 18 23  1  0  0  0  0
 18 21  2  0  0  0  0
 19 16  2  0  0  0  0
 20 19  1  0  0  0  0
 21 24  1  0  0  0  0
 22 18  1  0  0  0  0
 24 29  1  0  0  0  0
 25 29  1  0  0  0  0
 26 27  1  0  0  0  0
 28 25  1  0  0  0  0
 28 26  1  0  0  0  0
 29 27  1  0  0  0  0
 30 31  1  6  0  0  0
 32 30  1  0  0  0  0
 33 35  1  1  0  0  0
 33 39  1  0  0  0  0
 33 37  1  0  0  0  0
 34 38  1  6  0  0  0
 34 36  1  0  0  0  0
 35 34  1  0  0  0  0
 36 32  1  6  0  0  0
 37 43  1  6  0  0  0
 39 37  1  0  0  0  0
 39 36  1  0  0  0  0
 41 40  1  0  0  0  0
 42 43  2  0  0  0  0
 43 40  1  0  0  0  0
 44 45  1  0  0  0  0
 45 49  1  0  0  0  0
 46 47  1  0  0  0  0
 47 53  1  0  0  0  0
 47 50  1  0  0  0  0
 48 50  1  0  0  0  0
 49 46  2  0  0  0  0
 49 48  1  0  0  0  0
 50 51  2  0  0  0  0
 52 53  1  0  0  0  0
 54 55  1  0  0  0  0
 55 53  1  0  0  0  0
 55 56  1  0  0  0  0
M  END
>  <MODEL>
2

>  <REMARK>
 VINA RESULT:      -1.4      1.313      2.093
  Name = 
  11 active torsions:
  status: ('A' for Active; 'I' for Inactive)
    1  A    between atoms: C_4  and  C_41
    2  A    between atoms: C_4  and  N_56
    3  A    between atoms: C_7  and  C_22
    4  A    between atoms: C_9  and  C_47
    5  A    between atoms: C_9  and  N_48
    6  A    between atoms: C_10  and  C_32
    7  A    between atoms: C_23  and  N_48
    8  A    between atoms: C_29  and  C_32
    9  A    between atoms: C_31  and  C_37
   10  A    between atoms: C_37  and  C_45
   11  A    between atoms: C_39  and  C_52
                            x       y       z     vdW  Elec       q    Type
                         _______ _______ _______ _____ _____    ______ ____

>  <TORSDO>
F 11

$$$$
