=
 OpenBabel11042420273D

 31 31  0  0  1  0  0  0  0  0999 V2000
  161.0260  207.3150  151.5320 C   0  0  1  0  0  3  0  0  0  0  0  0
  161.2230  205.8290  151.5750 C   0  0  0  0  0  3  0  0  0  0  0  0
  160.7010  205.0450  150.6340 C   0  0  0  0  0  2  0  0  0  0  0  0
  160.8010  207.9080  152.9310 C   0  0  2  0  0  3  0  0  0  0  0  0
  161.1300  209.3980  152.9970 C   0  0  2  0  0  3  0  0  0  0  0  0
  160.1150  210.1080  153.8070 C   0  0  2  0  0  3  0  0  0  0  0  0
  160.0900  210.1330  152.4000 O   0  0  0  0  0  0  0  0  0  0  0  0
  160.6910  211.4120  154.3250 C   0  0  2  0  0  3  0  0  0  0  0  0
  161.0180  211.2660  155.8000 C   0  0  0  0  0  1  0  0  0  0  0  0
  159.6850  212.5320  154.1260 C   0  0  0  0  0  2  0  0  0  0  0  0
  158.5920  212.3490  154.9740 O   0  0  0  0  0  0  0  0  0  0  0  0
  157.5710  213.1040  154.3990 C   0  0  0  0  0  2  0  0  0  0  0  0
  156.2530  212.3760  154.5580 C   0  0  0  0  0  2  0  0  0  0  0  0
  155.2520  210.1920  155.1380 C   0  0  0  0  0  1  0  0  0  0  0  0
  156.4880  211.0560  155.2610 C   0  0  0  0  0  2  0  0  0  0  0  0
  160.6880  206.9830  154.9400 C   0  0  0  0  0  1  0  0  0  0  0  0
  161.5610  207.2110  153.8750 O   0  0  0  0  0  0  0  0  0  0  0  0
  162.1880  207.9970  150.8110 C   0  0  0  0  0  2  0  0  0  0  0  0
  161.7440  208.6050  149.4860 C   0  0  0  0  0  2  0  0  0  0  0  0
  162.5040  208.0000  148.3120 C   0  0  0  0  0  2  0  0  0  0  0  0
  161.6790  206.9450  147.5920 C   0  0  0  0  0  2  0  0  0  0  0  0
  162.4170  205.6160  147.5670 C   0  0  0  0  0  2  0  0  0  0  0  0
  163.5760  204.7010  145.6990 O   0  0  0  0  0  1  0  0  0  0  0  0
  162.3000  204.9680  146.1970 C   0  0  1  0  0  3  0  0  0  0  0  0
  161.4820  202.9410  147.4780 N   0  0  0  0  0  2  0  0  0  0  0  0
  161.5110  203.7010  146.2650 C   0  0  0  0  0  0  0  0  0  0  0  0
  160.7990  203.3430  145.2470 N   0  0  0  0  0  2  0  0  0  0  0  0
  160.7360  201.6970  147.6070 C   0  0  0  0  0  2  0  0  0  0  0  0
  160.1130  201.5840  148.9910 C   0  0  0  0  0  2  0  0  0  0  0  0
  160.9990  202.0150  151.1680 O   0  0  0  0  0  1  0  0  0  0  0  0
  161.1460  201.2060  150.0400 C   0  0  0  0  0  2  0  0  0  0  0  0
  1 18  1  1  0  0  0
  1  2  1  0  0  0  0
  1  4  1  0  0  0  0
  3  2  2  0  0  0  0
  4 17  1  1  0  0  0
  5  4  1  6  0  0  0
  5  6  1  0  0  0  0
  6  8  1  1  0  0  0
  7  5  1  0  0  0  0
  7  6  1  0  0  0  0
  8  9  1  1  0  0  0
 10  8  1  0  0  0  0
 10 11  1  0  0  0  0
 12 13  1  0  0  0  0
 12 11  1  0  0  0  0
 13 15  1  0  0  0  0
 14 15  1  0  0  0  0
 17 16  1  0  0  0  0
 19 18  1  0  0  0  0
 20 19  1  0  0  0  0
 21 20  1  0  0  0  0
 22 21  1  0  0  0  0
 24 23  1  1  0  0  0
 24 26  1  0  0  0  0
 24 22  1  0  0  0  0
 25 28  1  0  0  0  0
 26 25  1  0  0  0  0
 27 26  2  0  0  0  0
 28 29  1  0  0  0  0
 29 31  1  0  0  0  0
 31 30  1  0  0  0  0
M  END
>  <MODEL>
1

>  <REMARK>
 VINA RESULT:      -5.7      0.000      0.000
  Name = 
  20 active torsions:
  status: ('A' for Active; 'I' for Inactive)
    1  A    between atoms: C_2  and  C_7
    2  A    between atoms: C_2  and  C_19
    3  A    between atoms: N_3  and  C_8
    4  A    between atoms: C_5  and  C_13
    5  A    between atoms: C_5  and  C_31
    6  A    between atoms: C_6  and  C_8
    7  A    between atoms: C_6  and  C_28
    8  A    between atoms: C_7  and  C_23
    9  A    between atoms: C_10  and  C_16
   10  A    between atoms: C_11  and  C_14
   11  A    between atoms: C_11  and  O_29
   12  A    between atoms: C_12  and  C_22
   13  A    between atoms: C_12  and  C_27
   14  A    between atoms: C_13  and  O_29
   15  A    between atoms: C_14  and  C_17
   16  A    between atoms: C_15  and  C_19
   17  A    between atoms: C_16  and  O_20
   18  A    between atoms: C_16  and  C_27
   19  A    between atoms: C_22  and  C_23
   20  A    between atoms: C_24  and  C_27
                            x       y       z     vdW  Elec       q    Type
                         _______ _______ _______ _____ _____    ______ ____

>  <TORSDO>
F 20

$$$$
=
 OpenBabel11042420273D

 31 31  0  0  1  0  0  0  0  0999 V2000
  161.2610  206.1260  147.2570 C   0  0  1  0  0  3  0  0  0  0  0  0
  160.3820  206.5970  146.1370 C   0  0  0  0  0  3  0  0  0  0  0  0
  160.2780  205.8940  145.0110 C   0  0  0  0  0  2  0  0  0  0  0  0
  161.9540  204.7950  146.9280 C   0  0  2  0  0  3  0  0  0  0  0  0
  161.8620  203.7870  148.0720 C   0  0  2  0  0  3  0  0  0  0  0  0
  160.9940  202.6540  147.6820 C   0  0  2  0  0  3  0  0  0  0  0  0
  160.5280  203.6940  148.5070 O   0  0  0  0  0  0  0  0  0  0  0  0
  161.3190  201.4410  148.5340 C   0  0  2  0  0  3  0  0  0  0  0  0
  161.3880  200.2100  147.6510 C   0  0  0  0  0  1  0  0  0  0  0  0
  160.2480  201.2570  149.5960 C   0  0  0  0  0  2  0  0  0  0  0  0
  160.8310  200.8560  150.7970 O   0  0  0  0  0  0  0  0  0  0  0  0
  161.6570  201.9200  151.1600 C   0  0  0  0  0  2  0  0  0  0  0  0
  160.8420  202.9660  151.8910 C   0  0  0  0  0  2  0  0  0  0  0  0
  161.2380  205.1310  153.0160 C   0  0  0  0  0  1  0  0  0  0  0  0
  161.5280  204.3100  151.7780 C   0  0  0  0  0  2  0  0  0  0  0  0
  163.4960  204.3100  145.4140 C   0  0  0  0  0  1  0  0  0  0  0  0
  163.2930  205.0210  146.5980 O   0  0  0  0  0  0  0  0  0  0  0  0
  162.2700  207.2060  147.6460 C   0  0  0  0  0  2  0  0  0  0  0  0
  161.6600  208.2230  148.6030 C   0  0  0  0  0  2  0  0  0  0  0  0
  161.2610  207.5760  149.9230 C   0  0  0  0  0  2  0  0  0  0  0  0
  162.1870  207.9900  151.0560 C   0  0  0  0  0  2  0  0  0  0  0  0
  161.7940  209.3580  151.5910 C   0  0  0  0  0  2  0  0  0  0  0  0
  161.0900  208.3860  153.6470 O   0  0  0  0  0  1  0  0  0  0  0  0
  160.6780  209.2290  152.6150 C   0  0  1  0  0  3  0  0  0  0  0  0
  159.0390  211.1480  152.8310 N   0  0  0  0  0  2  0  0  0  0  0  0
  160.3000  210.5620  153.1720 C   0  0  0  0  0  0  0  0  0  0  0  0
  161.0870  211.1410  154.0190 N   0  0  0  0  0  2  0  0  0  0  0  0
  158.6130  212.4450  153.3370 C   0  0  0  0  0  2  0  0  0  0  0  0
  157.2010  212.3670  153.8980 C   0  0  0  0  0  2  0  0  0  0  0  0
  158.1500  211.9290  156.0470 O   0  0  0  0  0  1  0  0  0  0  0  0
  157.1470  211.5260  155.1630 C   0  0  0  0  0  2  0  0  0  0  0  0
  1  2  1  6  0  0  0
  1 18  1  0  0  0  0
  3  2  2  0  0  0  0
  4 17  1  1  0  0  0
  4  1  1  0  0  0  0
  5  4  1  6  0  0  0
  5  7  1  0  0  0  0
  6  5  1  0  0  0  0
  6  7  1  0  0  0  0
  6  8  1  1  0  0  0
  8  9  1  6  0  0  0
  8 10  1  0  0  0  0
 10 11  1  0  0  0  0
 11 12  1  0  0  0  0
 12 13  1  0  0  0  0
 15 13  1  0  0  0  0
 15 14  1  0  0  0  0
 16 17  1  0  0  0  0
 18 19  1  0  0  0  0
 19 20  1  0  0  0  0
 20 21  1  0  0  0  0
 21 22  1  0  0  0  0
 22 24  1  0  0  0  0
 24 26  1  0  0  0  0
 24 23  1  1  0  0  0
 25 26  1  0  0  0  0
 25 28  1  0  0  0  0
 26 27  2  0  0  0  0
 28 29  1  0  0  0  0
 29 31  1  0  0  0  0
 31 30  1  0  0  0  0
M  END
>  <MODEL>
2

>  <REMARK>
 VINA RESULT:      -5.7      3.010      9.277
  Name = 
  20 active torsions:
  status: ('A' for Active; 'I' for Inactive)
    1  A    between atoms: C_2  and  C_7
    2  A    between atoms: C_2  and  C_19
    3  A    between atoms: N_3  and  C_8
    4  A    between atoms: C_5  and  C_13
    5  A    between atoms: C_5  and  C_31
    6  A    between atoms: C_6  and  C_8
    7  A    between atoms: C_6  and  C_28
    8  A    between atoms: C_7  and  C_23
    9  A    between atoms: C_10  and  C_16
   10  A    between atoms: C_11  and  C_14
   11  A    between atoms: C_11  and  O_29
   12  A    between atoms: C_12  and  C_22
   13  A    between atoms: C_12  and  C_27
   14  A    between atoms: C_13  and  O_29
   15  A    between atoms: C_14  and  C_17
   16  A    between atoms: C_15  and  C_19
   17  A    between atoms: C_16  and  O_20
   18  A    between atoms: C_16  and  C_27
   19  A    between atoms: C_22  and  C_23
   20  A    between atoms: C_24  and  C_27
                            x       y       z     vdW  Elec       q    Type
                         _______ _______ _______ _____ _____    ______ ____

>  <TORSDO>
F 20

$$$$
=
 OpenBabel11042420273D

 31 31  0  0  1  0  0  0  0  0999 V2000
  161.5790  206.4900  151.1880 C   0  0  1  0  0  3  0  0  0  0  0  0
  162.0510  206.2850  152.5970 C   0  0  0  0  0  3  0  0  0  0  0  0
  161.2130  205.8610  153.5410 C   0  0  0  0  0  2  0  0  0  0  0  0
  162.2410  207.7100  150.5300 C   0  0  2  0  0  3  0  0  0  0  0  0
  162.3170  208.9140  151.4670 C   0  0  2  0  0  3  0  0  0  0  0  0
  160.9570  209.4140  151.7640 C   0  0  2  0  0  3  0  0  0  0  0  0
  161.7870  210.0450  150.8190 O   0  0  0  0  0  0  0  0  0  0  0  0
  160.9710  210.2050  153.0580 C   0  0  2  0  0  3  0  0  0  0  0  0
  160.3220  209.3860  154.1570 C   0  0  0  0  0  1  0  0  0  0  0  0
  160.2150  211.5100  152.8700 C   0  0  0  0  0  2  0  0  0  0  0  0
  158.8420  211.2680  152.8570 O   0  0  0  0  0  0  0  0  0  0  0  0
  158.2800  212.3960  153.4540 C   0  0  0  0  0  2  0  0  0  0  0  0
  157.5360  211.9860  154.7080 C   0  0  0  0  0  2  0  0  0  0  0  0
  159.0570  213.4950  155.9410 C   0  0  0  0  0  1  0  0  0  0  0  0
  158.4570  212.1070  155.9030 C   0  0  0  0  0  2  0  0  0  0  0  0
  162.5100  208.0000  148.3500 C   0  0  0  0  0  1  0  0  0  0  0  0
  161.5520  208.0580  149.3640 O   0  0  0  0  0  0  0  0  0  0  0  0
  161.7790  205.2240  150.3580 C   0  0  0  0  0  2  0  0  0  0  0  0
  160.5010  204.3950  150.2850 C   0  0  0  0  0  2  0  0  0  0  0  0
  160.5820  203.1660  151.1810 C   0  0  0  0  0  2  0  0  0  0  0  0
  160.8930  201.9090  150.3840 C   0  0  0  0  0  2  0  0  0  0  0  0
  160.3090  202.0090  148.9830 C   0  0  0  0  0  2  0  0  0  0  0  0
  161.4090  200.1890  147.9120 O   0  0  0  0  0  1  0  0  0  0  0  0
  161.3360  201.5810  147.9470 C   0  0  1  0  0  3  0  0  0  0  0  0
  161.4510  203.3910  146.1770 N   0  0  0  0  0  2  0  0  0  0  0  0
  160.9840  202.1020  146.5920 C   0  0  0  0  0  0  0  0  0  0  0  0
  160.3210  201.3490  145.7760 N   0  0  0  0  0  2  0  0  0  0  0  0
  161.1400  203.9560  144.8730 C   0  0  0  0  0  2  0  0  0  0  0  0
  161.4600  205.4430  144.8400 C   0  0  0  0  0  2  0  0  0  0  0  0
  160.2350  206.2840  146.7120 O   0  0  0  0  0  1  0  0  0  0  0  0
  160.2830  206.2790  145.3170 C   0  0  0  0  0  2  0  0  0  0  0  0
  1 18  1  6  0  0  0
  1  2  1  0  0  0  0
  2  3  2  0  0  0  0
  4 17  1  6  0  0  0
  4  1  1  0  0  0  0
  5  4  1  6  0  0  0
  5  6  1  0  0  0  0
  6  8  1  1  0  0  0
  7  5  1  0  0  0  0
  7  6  1  0  0  0  0
  8  9  1  1  0  0  0
 10  8  1  0  0  0  0
 11 10  1  0  0  0  0
 11 12  1  0  0  0  0
 12 13  1  0  0  0  0
 13 15  1  0  0  0  0
 15 14  1  0  0  0  0
 16 17  1  0  0  0  0
 19 18  1  0  0  0  0
 19 20  1  0  0  0  0
 21 20  1  0  0  0  0
 22 21  1  0  0  0  0
 24 23  1  6  0  0  0
 24 22  1  0  0  0  0
 25 26  1  0  0  0  0
 26 24  1  0  0  0  0
 27 26  2  0  0  0  0
 28 25  1  0  0  0  0
 29 28  1  0  0  0  0
 29 31  1  0  0  0  0
 31 30  1  0  0  0  0
M  END
>  <MODEL>
3

>  <REMARK>
 VINA RESULT:      -5.6      1.900      3.864
  Name = 
  20 active torsions:
  status: ('A' for Active; 'I' for Inactive)
    1  A    between atoms: C_2  and  C_7
    2  A    between atoms: C_2  and  C_19
    3  A    between atoms: N_3  and  C_8
    4  A    between atoms: C_5  and  C_13
    5  A    between atoms: C_5  and  C_31
    6  A    between atoms: C_6  and  C_8
    7  A    between atoms: C_6  and  C_28
    8  A    between atoms: C_7  and  C_23
    9  A    between atoms: C_10  and  C_16
   10  A    between atoms: C_11  and  C_14
   11  A    between atoms: C_11  and  O_29
   12  A    between atoms: C_12  and  C_22
   13  A    between atoms: C_12  and  C_27
   14  A    between atoms: C_13  and  O_29
   15  A    between atoms: C_14  and  C_17
   16  A    between atoms: C_15  and  C_19
   17  A    between atoms: C_16  and  O_20
   18  A    between atoms: C_16  and  C_27
   19  A    between atoms: C_22  and  C_23
   20  A    between atoms: C_24  and  C_27
                            x       y       z     vdW  Elec       q    Type
                         _______ _______ _______ _____ _____    ______ ____

>  <TORSDO>
F 20

$$$$
=
 OpenBabel11042420273D

 31 31  0  0  1  0  0  0  0  0999 V2000
  161.8710  207.1880  151.5790 C   0  0  1  0  0  3  0  0  0  0  0  0
  161.4010  207.3240  150.1620 C   0  0  0  0  0  3  0  0  0  0  0  0
  161.8620  208.2990  149.3820 C   0  0  0  0  0  2  0  0  0  0  0  0
  160.9080  207.8560  152.5730 C   0  0  2  0  0  3  0  0  0  0  0  0
  161.4200  209.2060  153.0700 C   0  0  2  0  0  3  0  0  0  0  0  0
  160.4830  210.2820  152.6780 C   0  0  2  0  0  3  0  0  0  0  0  0
  161.6750  210.0440  151.9690 O   0  0  0  0  0  0  0  0  0  0  0  0
  160.6680  211.4810  153.5880 C   0  0  2  0  0  3  0  0  0  0  0  0
  161.1660  211.0140  154.9420 C   0  0  0  0  0  1  0  0  0  0  0  0
  159.3460  212.2130  153.7470 C   0  0  0  0  0  2  0  0  0  0  0  0
  158.2990  211.4100  153.2970 O   0  0  0  0  0  0  0  0  0  0  0  0
  157.3210  211.5210  154.2850 C   0  0  0  0  0  2  0  0  0  0  0  0
  157.2280  212.9600  154.7440 C   0  0  0  0  0  2  0  0  0  0  0  0
  155.7010  211.7580  156.2720 C   0  0  0  0  0  1  0  0  0  0  0  0
  156.0640  213.1110  155.7000 C   0  0  0  0  0  2  0  0  0  0  0  0
  161.2770  207.6420  154.7460 C   0  0  0  0  0  1  0  0  0  0  0  0
  160.6750  207.0070  153.6580 O   0  0  0  0  0  0  0  0  0  0  0  0
  162.1180  205.7230  151.9320 C   0  0  0  0  0  2  0  0  0  0  0  0
  161.3110  204.7890  151.0380 C   0  0  0  0  0  2  0  0  0  0  0  0
  160.8950  203.5260  151.7830 C   0  0  0  0  0  2  0  0  0  0  0  0
  160.9940  202.2930  150.8990 C   0  0  0  0  0  2  0  0  0  0  0  0
  160.3680  202.5620  149.5390 C   0  0  0  0  0  2  0  0  0  0  0  0
  160.6900  200.8710  147.8950 O   0  0  0  0  0  1  0  0  0  0  0  0
  161.2570  202.0270  148.4290 C   0  0  1  0  0  3  0  0  0  0  0  0
  161.9810  204.3320  147.6630 N   0  0  0  0  0  2  0  0  0  0  0  0
  161.4420  203.0430  147.3490 C   0  0  0  0  0  0  0  0  0  0  0  0
  161.1800  202.7200  146.1240 N   0  0  0  0  0  2  0  0  0  0  0  0
  162.1810  205.3660  146.6580 C   0  0  0  0  0  2  0  0  0  0  0  0
  160.9460  206.2460  146.5380 C   0  0  0  0  0  2  0  0  0  0  0  0
  161.1480  205.7170  144.2170 O   0  0  0  0  0  1  0  0  0  0  0  0
  160.2250  206.0220  145.2190 C   0  0  0  0  0  2  0  0  0  0  0  0
  1  2  1  6  0  0  0
  1 18  1  0  0  0  0
  1  4  1  0  0  0  0
  3  2  2  0  0  0  0
  4 17  1  1  0  0  0
  5  4  1  6  0  0  0
  6  5  1  0  0  0  0
  6  8  1  1  0  0  0
  7  6  1  0  0  0  0
  7  5  1  0  0  0  0
  8 10  1  0  0  0  0
  8  9  1  1  0  0  0
 11 10  1  0  0  0  0
 11 12  1  0  0  0  0
 12 13  1  0  0  0  0
 13 15  1  0  0  0  0
 15 14  1  0  0  0  0
 17 16  1  0  0  0  0
 19 20  1  0  0  0  0
 19 18  1  0  0  0  0
 21 20  1  0  0  0  0
 22 21  1  0  0  0  0
 24 23  1  6  0  0  0
 24 22  1  0  0  0  0
 26 25  1  0  0  0  0
 26 24  1  0  0  0  0
 27 26  2  0  0  0  0
 28 25  1  0  0  0  0
 29 28  1  0  0  0  0
 30 31  1  0  0  0  0
 31 29  1  0  0  0  0
M  END
>  <MODEL>
4

>  <REMARK>
 VINA RESULT:      -5.5      1.445      3.375
  Name = 
  20 active torsions:
  status: ('A' for Active; 'I' for Inactive)
    1  A    between atoms: C_2  and  C_7
    2  A    between atoms: C_2  and  C_19
    3  A    between atoms: N_3  and  C_8
    4  A    between atoms: C_5  and  C_13
    5  A    between atoms: C_5  and  C_31
    6  A    between atoms: C_6  and  C_8
    7  A    between atoms: C_6  and  C_28
    8  A    between atoms: C_7  and  C_23
    9  A    between atoms: C_10  and  C_16
   10  A    between atoms: C_11  and  C_14
   11  A    between atoms: C_11  and  O_29
   12  A    between atoms: C_12  and  C_22
   13  A    between atoms: C_12  and  C_27
   14  A    between atoms: C_13  and  O_29
   15  A    between atoms: C_14  and  C_17
   16  A    between atoms: C_15  and  C_19
   17  A    between atoms: C_16  and  O_20
   18  A    between atoms: C_16  and  C_27
   19  A    between atoms: C_22  and  C_23
   20  A    between atoms: C_24  and  C_27
                            x       y       z     vdW  Elec       q    Type
                         _______ _______ _______ _____ _____    ______ ____

>  <TORSDO>
F 20

$$$$
=
 OpenBabel11042420273D

 31 31  0  0  1  0  0  0  0  0999 V2000
  161.6930  207.3030  151.9760 C   0  0  1  0  0  3  0  0  0  0  0  0
  162.3280  208.1280  150.8970 C   0  0  0  0  0  3  0  0  0  0  0  0
  161.9110  208.0390  149.6360 C   0  0  0  0  0  2  0  0  0  0  0  0
  160.6820  208.1120  152.8020 C   0  0  2  0  0  3  0  0  0  0  0  0
  161.1960  209.5060  153.1580 C   0  0  2  0  0  3  0  0  0  0  0  0
  160.0610  210.4030  153.4640 C   0  0  2  0  0  3  0  0  0  0  0  0
  160.7150  210.4350  152.2180 O   0  0  0  0  0  0  0  0  0  0  0  0
  160.5380  211.5650  154.3150 C   0  0  2  0  0  3  0  0  0  0  0  0
  160.6080  211.1290  155.7670 C   0  0  0  0  0  1  0  0  0  0  0  0
  159.5800  212.7350  154.1710 C   0  0  0  0  0  2  0  0  0  0  0  0
  158.4230  212.3260  153.5080 O   0  0  0  0  0  0  0  0  0  0  0  0
  158.0590  213.4210  152.7270 C   0  0  0  0  0  2  0  0  0  0  0  0
  158.3690  213.1310  151.2740 C   0  0  0  0  0  2  0  0  0  0  0  0
  160.1540  213.4730  149.5980 C   0  0  0  0  0  1  0  0  0  0  0  0
  159.4430  214.0810  150.7870 C   0  0  0  0  0  2  0  0  0  0  0  0
  161.4280  207.6240  154.8300 C   0  0  0  0  0  1  0  0  0  0  0  0
  160.3500  207.4150  153.9680 O   0  0  0  0  0  0  0  0  0  0  0  0
  161.0630  206.0390  151.3940 C   0  0  0  0  0  2  0  0  0  0  0  0
  161.8330  204.7900  151.8050 C   0  0  0  0  0  2  0  0  0  0  0  0
  160.8920  203.6710  152.2330 C   0  0  0  0  0  2  0  0  0  0  0  0
  160.9300  202.5020  151.2620 C   0  0  0  0  0  2  0  0  0  0  0  0
  160.8280  202.9970  149.8280 C   0  0  0  0  0  2  0  0  0  0  0  0
  159.2830  201.4260  148.9260 O   0  0  0  0  0  1  0  0  0  0  0  0
  160.6160  201.8310  148.8750 C   0  0  1  0  0  3  0  0  0  0  0  0
  161.5740  203.4790  147.2060 N   0  0  0  0  0  2  0  0  0  0  0  0
  160.9770  202.2060  147.4750 C   0  0  0  0  0  0  0  0  0  0  0  0
  160.8130  201.3420  146.5260 N   0  0  0  0  0  2  0  0  0  0  0  0
  161.9440  203.9050  145.8640 C   0  0  0  0  0  2  0  0  0  0  0  0
  162.1810  205.4080  145.8230 C   0  0  0  0  0  2  0  0  0  0  0  0
  160.0060  206.2430  145.2920 O   0  0  0  0  0  1  0  0  0  0  0  0
  160.9630  206.1790  146.3060 C   0  0  0  0  0  2  0  0  0  0  0  0
  1  2  1  6  0  0  0
  1  4  1  0  0  0  0
  3  2  2  0  0  0  0
  4 17  1  1  0  0  0
  5  4  1  6  0  0  0
  5  6  1  0  0  0  0
  6  8  1  1  0  0  0
  7  5  1  0  0  0  0
  7  6  1  0  0  0  0
  8  9  1  1  0  0  0
 10  8  1  0  0  0  0
 11 10  1  0  0  0  0
 12 11  1  0  0  0  0
 13 12  1  0  0  0  0
 14 15  1  0  0  0  0
 15 13  1  0  0  0  0
 17 16  1  0  0  0  0
 18 19  1  0  0  0  0
 18  1  1  0  0  0  0
 19 20  1  0  0  0  0
 21 20  1  0  0  0  0
 22 21  1  0  0  0  0
 24 23  1  6  0  0  0
 24 22  1  0  0  0  0
 25 26  1  0  0  0  0
 26 24  1  0  0  0  0
 27 26  2  0  0  0  0
 28 25  1  0  0  0  0
 29 28  1  0  0  0  0
 29 31  1  0  0  0  0
 30 31  1  0  0  0  0
M  END
>  <MODEL>
5

>  <REMARK>
 VINA RESULT:      -5.4      1.796      3.841
  Name = 
  20 active torsions:
  status: ('A' for Active; 'I' for Inactive)
    1  A    between atoms: C_2  and  C_7
    2  A    between atoms: C_2  and  C_19
    3  A    between atoms: N_3  and  C_8
    4  A    between atoms: C_5  and  C_13
    5  A    between atoms: C_5  and  C_31
    6  A    between atoms: C_6  and  C_8
    7  A    between atoms: C_6  and  C_28
    8  A    between atoms: C_7  and  C_23
    9  A    between atoms: C_10  and  C_16
   10  A    between atoms: C_11  and  C_14
   11  A    between atoms: C_11  and  O_29
   12  A    between atoms: C_12  and  C_22
   13  A    between atoms: C_12  and  C_27
   14  A    between atoms: C_13  and  O_29
   15  A    between atoms: C_14  and  C_17
   16  A    between atoms: C_15  and  C_19
   17  A    between atoms: C_16  and  O_20
   18  A    between atoms: C_16  and  C_27
   19  A    between atoms: C_22  and  C_23
   20  A    between atoms: C_24  and  C_27
                            x       y       z     vdW  Elec       q    Type
                         _______ _______ _______ _____ _____    ______ ____

>  <TORSDO>
F 20

$$$$
=
 OpenBabel11042420273D

 31 31  0  0  1  0  0  0  0  0999 V2000
  161.1570  205.9680  147.4780 C   0  0  1  0  0  3  0  0  0  0  0  0
  160.5990  206.7620  146.3340 C   0  0  0  0  0  3  0  0  0  0  0  0
  160.0540  206.1520  145.2840 C   0  0  0  0  0  2  0  0  0  0  0  0
  161.9130  204.7190  146.9990 C   0  0  2  0  0  3  0  0  0  0  0  0
  161.9680  203.6230  148.0620 C   0  0  2  0  0  3  0  0  0  0  0  0
  161.0240  202.5360  147.7200 C   0  0  2  0  0  3  0  0  0  0  0  0
  160.7110  203.5120  148.6840 O   0  0  0  0  0  0  0  0  0  0  0  0
  161.4430  201.2550  148.4160 C   0  0  2  0  0  3  0  0  0  0  0  0
  161.2490  200.0820  147.4730 C   0  0  0  0  0  1  0  0  0  0  0  0
  160.6060  201.0540  149.6690 C   0  0  0  0  0  2  0  0  0  0  0  0
  161.3810  201.2960  150.8030 O   0  0  0  0  0  0  0  0  0  0  0  0
  160.7560  202.3720  151.4330 C   0  0  0  0  0  2  0  0  0  0  0  0
  161.7830  203.4370  151.7510 C   0  0  0  0  0  2  0  0  0  0  0  0
  161.3890  205.4460  153.1370 C   0  0  0  0  0  1  0  0  0  0  0  0
  161.1070  204.7910  151.8030 C   0  0  0  0  0  2  0  0  0  0  0  0
  163.3830  204.4480  145.3650 C   0  0  0  0  0  1  0  0  0  0  0  0
  163.2090  205.0650  146.6060 O   0  0  0  0  0  0  0  0  0  0  0  0
  162.0290  206.8460  148.3740 C   0  0  0  0  0  2  0  0  0  0  0  0
  161.1840  207.7140  149.2990 C   0  0  0  0  0  2  0  0  0  0  0  0
  162.0550  208.5390  150.2380 C   0  0  0  0  0  2  0  0  0  0  0  0
  161.3600  208.8010  151.5650 C   0  0  0  0  0  2  0  0  0  0  0  0
  161.8920  210.0750  152.2030 C   0  0  0  0  0  2  0  0  0  0  0  0
  159.5470  210.4220  152.4210 O   0  0  0  0  0  1  0  0  0  0  0  0
  160.7830  210.8040  152.9430 C   0  0  1  0  0  3  0  0  0  0  0  0
  161.9830  209.8890  154.9780 N   0  0  0  0  0  2  0  0  0  0  0  0
  160.8260  210.5080  154.4070 C   0  0  0  0  0  0  0  0  0  0  0  0
  159.8420  210.8830  155.1570 N   0  0  0  0  0  2  0  0  0  0  0  0
  162.0850  209.5710  156.3950 C   0  0  0  0  0  2  0  0  0  0  0  0
  161.8950  208.0800  156.6270 C   0  0  0  0  0  2  0  0  0  0  0  0
  159.7400  207.3580  155.8900 O   0  0  0  0  0  1  0  0  0  0  0  0
  160.4620  207.7520  157.0170 C   0  0  0  0  0  2  0  0  0  0  0  0
  1  2  1  6  0  0  0
  1 18  1  0  0  0  0
  3  2  2  0  0  0  0
  4 17  1  1  0  0  0
  4  1  1  0  0  0  0
  5  4  1  6  0  0  0
  5  7  1  0  0  0  0
  6  5  1  0  0  0  0
  6  8  1  1  0  0  0
  6  7  1  0  0  0  0
  8  9  1  6  0  0  0
  8 10  1  0  0  0  0
 10 11  1  0  0  0  0
 11 12  1  0  0  0  0
 12 13  1  0  0  0  0
 13 15  1  0  0  0  0
 15 14  1  0  0  0  0
 16 17  1  0  0  0  0
 18 19  1  0  0  0  0
 19 20  1  0  0  0  0
 20 21  1  0  0  0  0
 21 22  1  0  0  0  0
 22 24  1  0  0  0  0
 24 23  1  6  0  0  0
 24 26  1  0  0  0  0
 25 28  1  0  0  0  0
 26 25  1  0  0  0  0
 26 27  2  0  0  0  0
 28 29  1  0  0  0  0
 29 31  1  0  0  0  0
 30 31  1  0  0  0  0
M  END
>  <MODEL>
6

>  <REMARK>
 VINA RESULT:      -5.4      3.557      9.044
  Name = 
  20 active torsions:
  status: ('A' for Active; 'I' for Inactive)
    1  A    between atoms: C_2  and  C_7
    2  A    between atoms: C_2  and  C_19
    3  A    between atoms: N_3  and  C_8
    4  A    between atoms: C_5  and  C_13
    5  A    between atoms: C_5  and  C_31
    6  A    between atoms: C_6  and  C_8
    7  A    between atoms: C_6  and  C_28
    8  A    between atoms: C_7  and  C_23
    9  A    between atoms: C_10  and  C_16
   10  A    between atoms: C_11  and  C_14
   11  A    between atoms: C_11  and  O_29
   12  A    between atoms: C_12  and  C_22
   13  A    between atoms: C_12  and  C_27
   14  A    between atoms: C_13  and  O_29
   15  A    between atoms: C_14  and  C_17
   16  A    between atoms: C_15  and  C_19
   17  A    between atoms: C_16  and  O_20
   18  A    between atoms: C_16  and  C_27
   19  A    between atoms: C_22  and  C_23
   20  A    between atoms: C_24  and  C_27
                            x       y       z     vdW  Elec       q    Type
                         _______ _______ _______ _____ _____    ______ ____

>  <TORSDO>
F 20

$$$$
=
 OpenBabel11042420273D

 31 31  0  0  1  0  0  0  0  0999 V2000
  161.0970  206.6930  150.6240 C   0  0  1  0  0  3  0  0  0  0  0  0
  161.0870  207.3520  149.2770 C   0  0  0  0  0  3  0  0  0  0  0  0
  162.1160  208.0930  148.8730 C   0  0  0  0  0  2  0  0  0  0  0  0
  161.6600  205.2650  150.5650 C   0  0  2  0  0  3  0  0  0  0  0  0
  160.6830  204.2750  149.9330 C   0  0  2  0  0  3  0  0  0  0  0  0
  161.3990  203.3880  148.9890 C   0  0  2  0  0  3  0  0  0  0  0  0
  160.6390  204.4860  148.5430 O   0  0  0  0  0  0  0  0  0  0  0  0
  160.6070  202.1100  148.7850 C   0  0  2  0  0  3  0  0  0  0  0  0
  160.9230  201.1380  149.9060 C   0  0  0  0  0  1  0  0  0  0  0  0
  160.9680  201.4910  147.4450 C   0  0  0  0  0  2  0  0  0  0  0  0
  160.1060  201.9600  146.4550 O   0  0  0  0  0  0  0  0  0  0  0  0
  160.9410  202.2870  145.3870 C   0  0  0  0  0  2  0  0  0  0  0  0
  160.9710  203.7910  145.2110 C   0  0  0  0  0  2  0  0  0  0  0  0
  162.2980  205.7830  145.8280 C   0  0  0  0  0  1  0  0  0  0  0  0
  162.3640  204.3060  145.5070 C   0  0  0  0  0  2  0  0  0  0  0  0
  160.9720  203.9850  152.2360 C   0  0  0  0  0  1  0  0  0  0  0  0
  162.0100  204.8350  151.8480 O   0  0  0  0  0  0  0  0  0  0  0  0
  161.8440  207.5520  151.6430 C   0  0  0  0  0  2  0  0  0  0  0  0
  160.8940  208.1540  152.6710 C   0  0  0  0  0  2  0  0  0  0  0  0
  160.8060  207.2880  153.9220 C   0  0  0  0  0  2  0  0  0  0  0  0
  161.1950  208.0630  155.1710 C   0  0  0  0  0  2  0  0  0  0  0  0
  160.9740  209.5530  154.9630 C   0  0  0  0  0  2  0  0  0  0  0  0
  162.2300  210.7320  156.6070 O   0  0  0  0  0  1  0  0  0  0  0  0
  160.9480  210.2790  156.2980 C   0  0  1  0  0  3  0  0  0  0  0  0
  158.6100  211.2100  156.0050 N   0  0  0  0  0  2  0  0  0  0  0  0
  160.0000  211.4330  156.2670 C   0  0  0  0  0  0  0  0  0  0  0  0
  160.4340  212.6170  156.5510 N   0  0  0  0  0  2  0  0  0  0  0  0
  157.6370  212.2920  155.9560 C   0  0  0  0  0  2  0  0  0  0  0  0
  157.3170  212.6640  154.5160 C   0  0  0  0  0  2  0  0  0  0  0  0
  155.2970  213.4740  155.5030 O   0  0  0  0  0  1  0  0  0  0  0  0
  155.8350  212.9480  154.3270 C   0  0  0  0  0  2  0  0  0  0  0  0
  1  2  1  6  0  0  0
  1 18  1  0  0  0  0
  3  2  2  0  0  0  0
  4  1  1  0  0  0  0
  4 17  1  1  0  0  0
  5  4  1  1  0  0  0
  6  8  1  6  0  0  0
  6  5  1  0  0  0  0
  7  6  1  0  0  0  0
  7  5  1  0  0  0  0
  8  9  1  1  0  0  0
 10  8  1  0  0  0  0
 11 10  1  0  0  0  0
 12 11  1  0  0  0  0
 13 12  1  0  0  0  0
 13 15  1  0  0  0  0
 15 14  1  0  0  0  0
 17 16  1  0  0  0  0
 18 19  1  0  0  0  0
 19 20  1  0  0  0  0
 20 21  1  0  0  0  0
 22 21  1  0  0  0  0
 22 24  1  0  0  0  0
 24 23  1  6  0  0  0
 25 26  1  0  0  0  0
 26 24  1  0  0  0  0
 26 27  2  0  0  0  0
 28 25  1  0  0  0  0
 29 28  1  0  0  0  0
 31 29  1  0  0  0  0
 31 30  1  0  0  0  0
M  END
>  <MODEL>
7

>  <REMARK>
 VINA RESULT:      -5.4      3.796     10.251
  Name = 
  20 active torsions:
  status: ('A' for Active; 'I' for Inactive)
    1  A    between atoms: C_2  and  C_7
    2  A    between atoms: C_2  and  C_19
    3  A    between atoms: N_3  and  C_8
    4  A    between atoms: C_5  and  C_13
    5  A    between atoms: C_5  and  C_31
    6  A    between atoms: C_6  and  C_8
    7  A    between atoms: C_6  and  C_28
    8  A    between atoms: C_7  and  C_23
    9  A    between atoms: C_10  and  C_16
   10  A    between atoms: C_11  and  C_14
   11  A    between atoms: C_11  and  O_29
   12  A    between atoms: C_12  and  C_22
   13  A    between atoms: C_12  and  C_27
   14  A    between atoms: C_13  and  O_29
   15  A    between atoms: C_14  and  C_17
   16  A    between atoms: C_15  and  C_19
   17  A    between atoms: C_16  and  O_20
   18  A    between atoms: C_16  and  C_27
   19  A    between atoms: C_22  and  C_23
   20  A    between atoms: C_24  and  C_27
                            x       y       z     vdW  Elec       q    Type
                         _______ _______ _______ _____ _____    ______ ____

>  <TORSDO>
F 20

$$$$
=
 OpenBabel11042420273D

 31 31  0  0  1  0  0  0  0  0999 V2000
  160.6640  208.6310  153.9180 C   0  0  1  0  0  3  0  0  0  0  0  0
  160.8720  207.6450  155.0290 C   0  0  0  0  0  3  0  0  0  0  0  0
  159.8600  207.2790  155.8130 C   0  0  0  0  0  2  0  0  0  0  0  0
  160.8240  210.0820  154.3960 C   0  0  2  0  0  3  0  0  0  0  0  0
  160.5270  211.0980  153.2950 C   0  0  2  0  0  3  0  0  0  0  0  0
  159.2200  211.7460  153.5410 C   0  0  2  0  0  3  0  0  0  0  0  0
  159.3670  210.7100  152.6000 O   0  0  0  0  0  0  0  0  0  0  0  0
  159.1640  213.0790  152.8180 C   0  0  2  0  0  3  0  0  0  0  0  0
  158.4980  214.1090  153.7120 C   0  0  0  0  0  1  0  0  0  0  0  0
  158.3780  212.9300  151.5260 C   0  0  0  0  0  2  0  0  0  0  0  0
  158.7960  213.8850  150.6000 O   0  0  0  0  0  0  0  0  0  0  0  0
  160.0740  213.4740  150.2230 C   0  0  0  0  0  2  0  0  0  0  0  0
  160.1420  213.3560  148.7150 C   0  0  0  0  0  2  0  0  0  0  0  0
  162.2870  212.1380  148.5540 C   0  0  0  0  0  1  0  0  0  0  0  0
  161.5850  213.4470  148.2670 C   0  0  0  0  0  2  0  0  0  0  0  0
  161.9310  210.9170  156.1230 C   0  0  0  0  0  1  0  0  0  0  0  0
  162.1150  210.2830  154.8930 O   0  0  0  0  0  0  0  0  0  0  0  0
  161.5840  208.3200  152.7380 C   0  0  0  0  0  2  0  0  0  0  0  0
  161.2000  207.0110  152.0580 C   0  0  0  0  0  2  0  0  0  0  0  0
  161.6290  206.9960  150.5970 C   0  0  0  0  0  2  0  0  0  0  0  0
  160.8380  205.9790  149.7890 C   0  0  0  0  0  2  0  0  0  0  0  0
  160.4150  204.8130  150.6700 C   0  0  0  0  0  2  0  0  0  0  0  0
  161.1780  202.6990  151.4560 O   0  0  0  0  0  1  0  0  0  0  0  0
  161.2800  203.5940  150.3920 C   0  0  1  0  0  3  0  0  0  0  0  0
  161.4500  203.3240  147.8780 N   0  0  0  0  0  2  0  0  0  0  0  0
  160.8710  202.9190  149.1230 C   0  0  0  0  0  0  0  0  0  0  0  0
  160.0480  201.9230  149.1740 N   0  0  0  0  0  2  0  0  0  0  0  0
  161.0900  202.7100  146.6090 C   0  0  0  0  0  2  0  0  0  0  0  0
  161.4250  203.6350  145.4490 C   0  0  0  0  0  2  0  0  0  0  0  0
  162.5540  205.7330  145.6430 O   0  0  0  0  0  1  0  0  0  0  0  0
  161.3290  205.0970  145.8540 C   0  0  0  0  0  2  0  0  0  0  0  0
  1 18  1  6  0  0  0
  1  4  1  0  0  0  0
  1  2  1  0  0  0  0
  2  3  2  0  0  0  0
  4 17  1  6  0  0  0
  5  6  1  0  0  0  0
  5  4  1  1  0  0  0
  6  8  1  6  0  0  0
  7  5  1  0  0  0  0
  7  6  1  0  0  0  0
  8  9  1  1  0  0  0
 10  8  1  0  0  0  0
 11 10  1  0  0  0  0
 12 11  1  0  0  0  0
 13 12  1  0  0  0  0
 15 14  1  0  0  0  0
 15 13  1  0  0  0  0
 17 16  1  0  0  0  0
 19 18  1  0  0  0  0
 20 19  1  0  0  0  0
 21 20  1  0  0  0  0
 21 22  1  0  0  0  0
 24 22  1  0  0  0  0
 24 23  1  1  0  0  0
 25 26  1  0  0  0  0
 26 27  2  0  0  0  0
 26 24  1  0  0  0  0
 28 25  1  0  0  0  0
 29 31  1  0  0  0  0
 29 28  1  0  0  0  0
 30 31  1  0  0  0  0
M  END
>  <MODEL>
8

>  <REMARK>
 VINA RESULT:      -5.3      2.222      4.541
  Name = 
  20 active torsions:
  status: ('A' for Active; 'I' for Inactive)
    1  A    between atoms: C_2  and  C_7
    2  A    between atoms: C_2  and  C_19
    3  A    between atoms: N_3  and  C_8
    4  A    between atoms: C_5  and  C_13
    5  A    between atoms: C_5  and  C_31
    6  A    between atoms: C_6  and  C_8
    7  A    between atoms: C_6  and  C_28
    8  A    between atoms: C_7  and  C_23
    9  A    between atoms: C_10  and  C_16
   10  A    between atoms: C_11  and  C_14
   11  A    between atoms: C_11  and  O_29
   12  A    between atoms: C_12  and  C_22
   13  A    between atoms: C_12  and  C_27
   14  A    between atoms: C_13  and  O_29
   15  A    between atoms: C_14  and  C_17
   16  A    between atoms: C_15  and  C_19
   17  A    between atoms: C_16  and  O_20
   18  A    between atoms: C_16  and  C_27
   19  A    between atoms: C_22  and  C_23
   20  A    between atoms: C_24  and  C_27
                            x       y       z     vdW  Elec       q    Type
                         _______ _______ _______ _____ _____    ______ ____

>  <TORSDO>
F 20

$$$$
=
 OpenBabel11042420273D

 31 31  0  0  1  0  0  0  0  0999 V2000
  160.9420  205.8520  146.9180 C   0  0  1  0  0  3  0  0  0  0  0  0
  160.4020  206.2170  145.5670 C   0  0  0  0  0  3  0  0  0  0  0  0
  160.4680  205.3580  144.5520 C   0  0  0  0  0  2  0  0  0  0  0  0
  161.9150  204.6650  146.8490 C   0  0  2  0  0  3  0  0  0  0  0  0
  161.8620  203.7890  148.0980 C   0  0  2  0  0  3  0  0  0  0  0  0
  161.0030  202.6090  147.8560 C   0  0  2  0  0  3  0  0  0  0  0  0
  160.5390  203.7290  148.5710 O   0  0  0  0  0  0  0  0  0  0  0  0
  161.3620  201.5020  148.8290 C   0  0  2  0  0  3  0  0  0  0  0  0
  161.5760  200.2100  148.0640 C   0  0  0  0  0  1  0  0  0  0  0  0
  160.2440  201.3260  149.8420 C   0  0  0  0  0  2  0  0  0  0  0  0
  160.1520  202.4570  150.6520 O   0  0  0  0  0  0  0  0  0  0  0  0
  161.1970  202.3210  151.5660 C   0  0  0  0  0  2  0  0  0  0  0  0
  161.9700  203.6200  151.6470 C   0  0  0  0  0  2  0  0  0  0  0  0
  161.2130  205.4180  153.1650 C   0  0  0  0  0  1  0  0  0  0  0  0
  161.0040  204.7740  151.8120 C   0  0  0  0  0  2  0  0  0  0  0  0
  163.7340  204.3160  145.6330 C   0  0  0  0  0  1  0  0  0  0  0  0
  163.2190  205.1270  146.6460 O   0  0  0  0  0  0  0  0  0  0  0  0
  161.5780  207.0650  147.5940 C   0  0  0  0  0  2  0  0  0  0  0  0
  161.2120  207.1370  149.0720 C   0  0  0  0  0  2  0  0  0  0  0  0
  161.7520  208.4060  149.7190 C   0  0  0  0  0  2  0  0  0  0  0  0
  161.3620  208.5000  151.1850 C   0  0  0  0  0  2  0  0  0  0  0  0
  161.8990  209.7840  151.7980 C   0  0  0  0  0  2  0  0  0  0  0  0
  162.0090  210.1930  154.1410 O   0  0  0  0  0  1  0  0  0  0  0  0
  161.1290  210.1350  153.0600 C   0  0  1  0  0  3  0  0  0  0  0  0
  160.0440  211.9110  151.6160 N   0  0  0  0  0  2  0  0  0  0  0  0
  160.4220  211.4430  152.9150 C   0  0  0  0  0  0  0  0  0  0  0  0
  160.0930  212.1060  153.9760 N   0  0  0  0  0  2  0  0  0  0  0  0
  159.3580  213.1780  151.4080 C   0  0  0  0  0  2  0  0  0  0  0  0
  160.1120  214.0410  150.4070 C   0  0  0  0  0  2  0  0  0  0  0  0
  160.1660  213.3170  148.1300 O   0  0  0  0  0  1  0  0  0  0  0  0
  160.8170  213.1950  149.3590 C   0  0  0  0  0  2  0  0  0  0  0  0
  1  2  1  6  0  0  0
  1 18  1  0  0  0  0
  3  2  2  0  0  0  0
  4 17  1  1  0  0  0
  4  1  1  0  0  0  0
  5  4  1  6  0  0  0
  5  7  1  0  0  0  0
  6  5  1  0  0  0  0
  6  7  1  0  0  0  0
  6  8  1  1  0  0  0
  8  9  1  6  0  0  0
  8 10  1  0  0  0  0
 10 11  1  0  0  0  0
 11 12  1  0  0  0  0
 12 13  1  0  0  0  0
 13 15  1  0  0  0  0
 15 14  1  0  0  0  0
 16 17  1  0  0  0  0
 18 19  1  0  0  0  0
 19 20  1  0  0  0  0
 20 21  1  0  0  0  0
 21 22  1  0  0  0  0
 22 24  1  0  0  0  0
 24 23  1  1  0  0  0
 25 26  1  0  0  0  0
 26 24  1  0  0  0  0
 26 27  2  0  0  0  0
 28 25  1  0  0  0  0
 29 28  1  0  0  0  0
 30 31  1  0  0  0  0
 31 29  1  0  0  0  0
M  END
>  <MODEL>
9

>  <REMARK>
 VINA RESULT:      -5.1      3.484      9.279
  Name = 
  20 active torsions:
  status: ('A' for Active; 'I' for Inactive)
    1  A    between atoms: C_2  and  C_7
    2  A    between atoms: C_2  and  C_19
    3  A    between atoms: N_3  and  C_8
    4  A    between atoms: C_5  and  C_13
    5  A    between atoms: C_5  and  C_31
    6  A    between atoms: C_6  and  C_8
    7  A    between atoms: C_6  and  C_28
    8  A    between atoms: C_7  and  C_23
    9  A    between atoms: C_10  and  C_16
   10  A    between atoms: C_11  and  C_14
   11  A    between atoms: C_11  and  O_29
   12  A    between atoms: C_12  and  C_22
   13  A    between atoms: C_12  and  C_27
   14  A    between atoms: C_13  and  O_29
   15  A    between atoms: C_14  and  C_17
   16  A    between atoms: C_15  and  C_19
   17  A    between atoms: C_16  and  O_20
   18  A    between atoms: C_16  and  C_27
   19  A    between atoms: C_22  and  C_23
   20  A    between atoms: C_24  and  C_27
                            x       y       z     vdW  Elec       q    Type
                         _______ _______ _______ _____ _____    ______ ____

>  <TORSDO>
F 20

$$$$
