=
 OpenBabel11052411063D

 34 35  0  0  1  0  0  0  0  0999 V2000
  161.1580  206.0550  153.0790 C   0  0  0  0  0  0  0  0  0  0  0  0
  160.7530  206.5150  154.3280 C   0  0  0  0  0  3  0  0  0  0  0  0
  161.0940  204.6930  152.8060 O   0  0  0  0  0  1  0  0  0  0  0  0
  161.6210  206.9560  152.1090 C   0  0  0  0  0  0  0  0  0  0  0  0
  160.7990  207.8740  154.6210 C   0  0  0  0  0  3  0  0  0  0  0  0
  161.6960  208.3380  152.4030 C   0  0  0  0  0  0  0  0  0  0  0  0
  161.2630  208.8000  153.6760 C   0  0  0  0  0  0  0  0  0  0  0  0
  162.1500  210.6520  155.1380 C   0  0  0  0  0  1  0  0  0  0  0  0
  161.2010  210.2710  154.0110 C   0  0  2  0  0  3  0  0  0  0  0  0
  159.4690  210.8920  155.7010 C   0  0  0  0  0  3  0  0  0  0  0  0
  159.5450  212.1240  153.5460 C   0  0  0  0  0  3  0  0  0  0  0  0
  159.7850  210.8180  154.2410 C   0  0  1  0  0  3  0  0  0  0  0  0
  157.0870  211.5640  155.3570 C   0  0  0  0  0  0  0  0  0  0  0  0
  157.1440  212.2690  154.2170 C   0  0  0  0  0  3  0  0  0  0  0  0
  158.3600  212.7300  153.5170 C   0  0  0  0  0  3  0  0  0  0  0  0
  158.2600  211.1880  156.1730 C   0  0  0  0  0  3  0  0  0  0  0  0
  155.7400  211.2590  155.9100 C   0  0  0  0  0  2  0  0  0  0  0  0
  155.1950  210.1600  155.2470 O   0  0  0  0  0  1  0  0  0  0  0  0
  161.5250  210.3640  150.9360 C   0  0  0  0  0  1  0  0  0  0  0  0
  162.1850  209.1960  151.4030 O   0  0  0  0  0  0  0  0  0  0  0  0
  162.0500  206.4160  150.7720 C   0  0  2  0  0  3  0  0  0  0  0  0
  162.7980  207.3680  150.0760 O   0  0  0  0  0  1  0  0  0  0  0  0
  160.8470  205.9650  149.9520 C   0  0  0  0  0  2  0  0  0  0  0  0
  161.0400  206.6140  147.0700 C   0  0  0  0  0  1  0  0  0  0  0  0
  161.2430  204.9440  148.9890 N   0  0  0  0  0  0  0  0  0  0  0  0
  161.3380  205.2470  147.5860 C   0  0  0  0  0  0  0  0  0  0  0  0
  161.6700  204.3510  146.7650 O   0  0  0  0  0  0  0  0  0  0  0  0
  161.4370  203.5840  149.4730 C   0  0  0  0  0  2  0  0  0  0  0  0
  160.0950  202.9180  149.7140 C   0  0  0  0  0  2  0  0  0  0  0  0
  160.1790  201.4590  149.3240 C   0  0  0  0  0  2  0  0  0  0  0  0
  161.4450  201.2240  148.5250 C   0  0  0  0  0  2  0  0  0  0  0  0
  161.0980  200.7970  147.1420 C   0  0  0  0  0  0  0  0  0  0  0  0
  161.5110  199.5580  146.6710 O   0  0  0  0  0  1  0  0  0  0  0  0
  160.4110  201.5520  146.4060 O   0  0  0  0  0  0  0  0  0  0  0  0
  1  2  1  0  0  0  0
  2  5  2  0  0  0  0
  3  1  1  0  0  0  0
  4  6  1  0  0  0  0
  4  1  2  0  0  0  0
  6  7  2  0  0  0  0
  7  9  1  0  0  0  0
  7  5  1  0  0  0  0
  9  8  1  1  0  0  0
 10 16  2  0  0  0  0
 11 12  1  0  0  0  0
 12  9  1  1  0  0  0
 12 10  1  0  0  0  0
 13 17  1  0  0  0  0
 13 16  1  0  0  0  0
 14 13  2  0  0  0  0
 15 11  2  0  0  0  0
 15 14  1  0  0  0  0
 18 17  1  0  0  0  0
 19 20  1  0  0  0  0
 20  6  1  0  0  0  0
 21 22  1  6  0  0  0
 21  4  1  0  0  0  0
 23 21  1  0  0  0  0
 24 26  1  0  0  0  0
 25 28  1  0  0  0  0
 25 23  1  0  0  0  0
 26 25  1  0  0  0  0
 27 26  2  0  0  0  0
 28 29  1  0  0  0  0
 30 29  1  0  0  0  0
 31 30  1  0  0  0  0
 32 31  1  0  0  0  0
 33 32  1  0  0  0  0
 34 32  2  0  0  0  0
M  END
>  <MODEL>
1

>  <REMARK>
 VINA RESULT:      -7.4      0.000      0.000
  Name = 
  12 active torsions:
  status: ('A' for Active; 'I' for Inactive)
    1  A    between atoms: C_2  and  C_5
    2  A    between atoms: C_2  and  C_10
    3  A    between atoms: C_6  and  C_7
    4  A    between atoms: C_6  and  N_19
    5  A    between atoms: C_7  and  C_21
    6  A    between atoms: C_9  and  C_17
    7  A    between atoms: C_10  and  C_27
    8  A    between atoms: C_15  and  C_32
    9  A    between atoms: N_19  and  C_23
   10  A    between atoms: C_23  and  C_27
   11  A    between atoms: O_25  and  C_30
   12  A    between atoms: C_31  and  C_32
                            x       y       z     vdW  Elec       q    Type
                         _______ _______ _______ _____ _____    ______ ____

>  <TORSDO>
F 12

$$$$
=
 OpenBabel11052411063D

 34 35  0  0  1  0  0  0  0  0999 V2000
  161.1630  206.1390  153.3860 C   0  0  0  0  0  0  0  0  0  0  0  0
  160.7400  206.6060  154.6270 C   0  0  0  0  0  3  0  0  0  0  0  0
  161.1330  204.7730  153.1310 O   0  0  0  0  0  1  0  0  0  0  0  0
  161.6120  207.0390  152.4070 C   0  0  0  0  0  0  0  0  0  0  0  0
  160.7520  207.9700  154.9020 C   0  0  0  0  0  3  0  0  0  0  0  0
  161.6510  208.4260  152.6840 C   0  0  0  0  0  0  0  0  0  0  0  0
  161.2000  208.8940  153.9480 C   0  0  0  0  0  0  0  0  0  0  0  0
  162.0120  210.7800  155.4110 C   0  0  0  0  0  1  0  0  0  0  0  0
  161.1010  210.3670  154.2640 C   0  0  2  0  0  3  0  0  0  0  0  0
  159.3620  211.1120  155.8950 C   0  0  0  0  0  3  0  0  0  0  0  0
  159.3800  212.1040  153.6190 C   0  0  0  0  0  3  0  0  0  0  0  0
  159.6690  210.8890  154.4480 C   0  0  1  0  0  3  0  0  0  0  0  0
  156.9560  211.6650  155.5060 C   0  0  0  0  0  0  0  0  0  0  0  0
  156.9810  212.2420  154.2960 C   0  0  0  0  0  3  0  0  0  0  0  0
  158.1750  212.6640  153.5370 C   0  0  0  0  0  3  0  0  0  0  0  0
  158.1470  211.4180  156.3450 C   0  0  0  0  0  3  0  0  0  0  0  0
  155.6240  211.3770  156.1040 C   0  0  0  0  0  2  0  0  0  0  0  0
  155.0910  210.2210  155.5360 O   0  0  0  0  0  1  0  0  0  0  0  0
  161.3630  210.2980  151.0420 C   0  0  0  0  0  1  0  0  0  0  0  0
  162.1270  209.2820  151.6750 O   0  0  0  0  0  0  0  0  0  0  0  0
  162.0610  206.4920  151.0810 C   0  0  2  0  0  3  0  0  0  0  0  0
  163.0100  207.3350  150.4990 O   0  0  0  0  0  1  0  0  0  0  0  0
  160.8770  206.2800  150.1450 C   0  0  0  0  0  2  0  0  0  0  0  0
  160.4970  203.3820  150.6140 C   0  0  0  0  0  1  0  0  0  0  0  0
  161.2160  205.3120  149.1080 N   0  0  0  0  0  0  0  0  0  0  0  0
  161.0380  203.9010  149.3250 C   0  0  0  0  0  0  0  0  0  0  0  0
  161.3460  203.0780  148.4230 O   0  0  0  0  0  0  0  0  0  0  0  0
  161.8370  205.8070  147.8870 C   0  0  0  0  0  2  0  0  0  0  0  0
  160.7730  206.1480  146.8600 C   0  0  0  0  0  2  0  0  0  0  0  0
  161.3320  205.9460  145.4690 C   0  0  0  0  0  2  0  0  0  0  0  0
  161.9320  204.5590  145.3630 C   0  0  0  0  0  2  0  0  0  0  0  0
  160.8740  203.5780  145.0020 C   0  0  0  0  0  0  0  0  0  0  0  0
  160.9230  202.2840  145.5050 O   0  0  0  0  0  1  0  0  0  0  0  0
  159.9220  203.9260  144.2560 O   0  0  0  0  0  0  0  0  0  0  0  0
  1  2  1  0  0  0  0
  2  5  2  0  0  0  0
  3  1  1  0  0  0  0
  4  6  1  0  0  0  0
  4  1  2  0  0  0  0
  6  7  2  0  0  0  0
  7  9  1  0  0  0  0
  7  5  1  0  0  0  0
  9  8  1  1  0  0  0
 10 16  2  0  0  0  0
 11 12  1  0  0  0  0
 12  9  1  1  0  0  0
 12 10  1  0  0  0  0
 13 17  1  0  0  0  0
 13 16  1  0  0  0  0
 14 13  2  0  0  0  0
 15 11  2  0  0  0  0
 15 14  1  0  0  0  0
 18 17  1  0  0  0  0
 19 20  1  0  0  0  0
 20  6  1  0  0  0  0
 21 22  1  6  0  0  0
 21  4  1  0  0  0  0
 23 21  1  0  0  0  0
 25 26  1  0  0  0  0
 25 23  1  0  0  0  0
 26 24  1  0  0  0  0
 27 26  2  0  0  0  0
 28 25  1  0  0  0  0
 29 28  1  0  0  0  0
 30 29  1  0  0  0  0
 31 30  1  0  0  0  0
 32 31  1  0  0  0  0
 32 33  1  0  0  0  0
 34 32  2  0  0  0  0
M  END
>  <MODEL>
2

>  <REMARK>
 VINA RESULT:      -7.2      1.159      2.109
  Name = 
  12 active torsions:
  status: ('A' for Active; 'I' for Inactive)
    1  A    between atoms: C_2  and  C_5
    2  A    between atoms: C_2  and  C_10
    3  A    between atoms: C_6  and  C_7
    4  A    between atoms: C_6  and  N_19
    5  A    between atoms: C_7  and  C_21
    6  A    between atoms: C_9  and  C_17
    7  A    between atoms: C_10  and  C_27
    8  A    between atoms: C_15  and  C_32
    9  A    between atoms: N_19  and  C_23
   10  A    between atoms: C_23  and  C_27
   11  A    between atoms: O_25  and  C_30
   12  A    between atoms: C_31  and  C_32
                            x       y       z     vdW  Elec       q    Type
                         _______ _______ _______ _____ _____    ______ ____

>  <TORSDO>
F 12

$$$$
=
 OpenBabel11052411063D

 34 35  0  0  1  0  0  0  0  0999 V2000
  161.8700  208.8460  149.3550 C   0  0  0  0  0  0  0  0  0  0  0  0
  161.9350  207.7830  148.4580 C   0  0  0  0  0  3  0  0  0  0  0  0
  162.1870  210.1250  148.9120 O   0  0  0  0  0  1  0  0  0  0  0  0
  161.4870  208.6250  150.6870 C   0  0  0  0  0  0  0  0  0  0  0  0
  161.6140  206.4960  148.8750 C   0  0  0  0  0  3  0  0  0  0  0  0
  161.1810  207.3160  151.1280 C   0  0  0  0  0  0  0  0  0  0  0  0
  161.2330  206.2410  150.2000 C   0  0  0  0  0  0  0  0  0  0  0  0
  161.6040  204.2780  151.7370 C   0  0  0  0  0  1  0  0  0  0  0  0
  160.8030  204.8430  150.5740 C   0  0  2  0  0  3  0  0  0  0  0  0
  161.7460  204.1850  148.3570 C   0  0  0  0  0  3  0  0  0  0  0  0
  160.7940  202.4270  149.8300 C   0  0  0  0  0  3  0  0  0  0  0  0
  160.7220  203.8600  149.3970 C   0  0  1  0  0  3  0  0  0  0  0  0
  160.9270  202.4750  146.7290 C   0  0  0  0  0  0  0  0  0  0  0  0
  160.4570  201.5090  147.5320 C   0  0  0  0  0  3  0  0  0  0  0  0
  160.6370  201.4030  148.9940 C   0  0  0  0  0  3  0  0  0  0  0  0
  161.7960  203.5860  147.1690 C   0  0  0  0  0  3  0  0  0  0  0  0
  160.6670  202.3430  145.2700 C   0  0  0  0  0  2  0  0  0  0  0  0
  159.6870  201.3760  145.0500 O   0  0  0  0  0  1  0  0  0  0  0  0
  161.7000  206.7200  153.5080 C   0  0  0  0  0  1  0  0  0  0  0  0
  160.8210  207.1470  152.4770 O   0  0  0  0  0  0  0  0  0  0  0  0
  161.4310  209.8010  151.6220 C   0  0  2  0  0  3  0  0  0  0  0  0
  162.5620  209.8290  152.4420 O   0  0  0  0  0  1  0  0  0  0  0  0
  160.1570  209.7770  152.4580 C   0  0  0  0  0  2  0  0  0  0  0  0
  160.1270  209.5370  155.4080 C   0  0  0  0  0  1  0  0  0  0  0  0
  160.0750  210.9670  153.2960 N   0  0  0  0  0  0  0  0  0  0  0  0
  160.0580  210.8640  154.7310 C   0  0  0  0  0  0  0  0  0  0  0  0
  159.9750  211.9010  155.4400 O   0  0  0  0  0  0  0  0  0  0  0  0
  159.9070  212.2560  152.6390 C   0  0  0  0  0  2  0  0  0  0  0  0
  158.4880  212.3970  152.1170 C   0  0  0  0  0  2  0  0  0  0  0  0
  158.4660  213.3950  150.9810 C   0  0  0  0  0  2  0  0  0  0  0  0
  159.8590  213.9530  150.7730 C   0  0  0  0  0  2  0  0  0  0  0  0
  160.2260  213.8720  149.3330 C   0  0  0  0  0  0  0  0  0  0  0  0
  161.4640  213.3680  148.9580 O   0  0  0  0  0  1  0  0  0  0  0  0
  159.4050  214.2430  148.4540 O   0  0  0  0  0  0  0  0  0  0  0  0
  1  4  1  0  0  0  0
  2  5  1  0  0  0  0
  2  1  2  0  0  0  0
  3  1  1  0  0  0  0
  4  6  2  0  0  0  0
  4 21  1  0  0  0  0
  5  7  2  0  0  0  0
  6 20  1  0  0  0  0
  7  9  1  0  0  0  0
  7  6  1  0  0  0  0
  9  8  1  1  0  0  0
 10 12  1  0  0  0  0
 12 11  1  0  0  0  0
 12  9  1  1  0  0  0
 13 16  1  0  0  0  0
 13 14  2  0  0  0  0
 14 15  1  0  0  0  0
 15 11  2  0  0  0  0
 16 10  2  0  0  0  0
 17 13  1  0  0  0  0
 18 17  1  0  0  0  0
 20 19  1  0  0  0  0
 21 22  1  1  0  0  0
 21 23  1  0  0  0  0
 23 25  1  0  0  0  0
 25 26  1  0  0  0  0
 26 24  1  0  0  0  0
 26 27  2  0  0  0  0
 28 25  1  0  0  0  0
 29 28  1  0  0  0  0
 30 29  1  0  0  0  0
 31 30  1  0  0  0  0
 32 31  1  0  0  0  0
 33 32  1  0  0  0  0
 34 32  2  0  0  0  0
M  END
>  <MODEL>
3

>  <REMARK>
 VINA RESULT:      -7.2      2.712      9.524
  Name = 
  12 active torsions:
  status: ('A' for Active; 'I' for Inactive)
    1  A    between atoms: C_2  and  C_5
    2  A    between atoms: C_2  and  C_10
    3  A    between atoms: C_6  and  C_7
    4  A    between atoms: C_6  and  N_19
    5  A    between atoms: C_7  and  C_21
    6  A    between atoms: C_9  and  C_17
    7  A    between atoms: C_10  and  C_27
    8  A    between atoms: C_15  and  C_32
    9  A    between atoms: N_19  and  C_23
   10  A    between atoms: C_23  and  C_27
   11  A    between atoms: O_25  and  C_30
   12  A    between atoms: C_31  and  C_32
                            x       y       z     vdW  Elec       q    Type
                         _______ _______ _______ _____ _____    ______ ____

>  <TORSDO>
F 12

$$$$
=
 OpenBabel11052411063D

 34 35  0  0  1  0  0  0  0  0999 V2000
  161.8510  208.8200  149.2750 C   0  0  0  0  0  0  0  0  0  0  0  0
  161.8700  207.7640  148.3680 C   0  0  0  0  0  3  0  0  0  0  0  0
  162.1510  210.1020  148.8270 O   0  0  0  0  0  1  0  0  0  0  0  0
  161.5310  208.5900  150.6210 C   0  0  0  0  0  0  0  0  0  0  0  0
  161.5640  206.4750  148.7900 C   0  0  0  0  0  3  0  0  0  0  0  0
  161.2420  207.2790  151.0670 C   0  0  0  0  0  0  0  0  0  0  0  0
  161.2460  206.2100  150.1290 C   0  0  0  0  0  0  0  0  0  0  0  0
  161.6560  204.2500  151.6600 C   0  0  0  0  0  1  0  0  0  0  0  0
  160.8290  204.8110  150.5130 C   0  0  2  0  0  3  0  0  0  0  0  0
  161.7230  204.1620  148.2720 C   0  0  0  0  0  3  0  0  0  0  0  0
  160.8280  202.3950  149.7680 C   0  0  0  0  0  3  0  0  0  0  0  0
  160.7290  203.8270  149.3380 C   0  0  1  0  0  3  0  0  0  0  0  0
  160.8810  202.4430  146.6660 C   0  0  0  0  0  0  0  0  0  0  0  0
  160.4430  201.4720  147.4800 C   0  0  0  0  0  3  0  0  0  0  0  0
  160.6610  201.3680  148.9370 C   0  0  0  0  0  3  0  0  0  0  0  0
  161.7490  203.5640  147.0840 C   0  0  0  0  0  3  0  0  0  0  0  0
  160.5870  202.3080  145.2130 C   0  0  0  0  0  2  0  0  0  0  0  0
  159.8490  201.1460  144.9880 O   0  0  0  0  0  1  0  0  0  0  0  0
  161.8560  206.6120  153.4050 C   0  0  0  0  0  1  0  0  0  0  0  0
  160.9460  207.1000  152.4300 O   0  0  0  0  0  0  0  0  0  0  0  0
  161.5230  209.7590  151.5680 C   0  0  2  0  0  3  0  0  0  0  0  0
  162.7290  209.8290  152.2690 O   0  0  0  0  0  1  0  0  0  0  0  0
  160.3410  209.6800  152.5270 C   0  0  0  0  0  2  0  0  0  0  0  0
  160.8400  209.3770  155.4290 C   0  0  0  0  0  1  0  0  0  0  0  0
  160.3220  210.8430  153.4060 N   0  0  0  0  0  0  0  0  0  0  0  0
  160.5600  210.7090  154.8180 C   0  0  0  0  0  0  0  0  0  0  0  0
  160.5270  211.7220  155.5650 O   0  0  0  0  0  0  0  0  0  0  0  0
  159.9500  212.1290  152.8310 C   0  0  0  0  0  2  0  0  0  0  0  0
  158.4790  212.1290  152.4560 C   0  0  0  0  0  2  0  0  0  0  0  0
  157.6800  212.7960  153.5530 C   0  0  0  0  0  2  0  0  0  0  0  0
  157.0610  211.7370  154.4410 C   0  0  0  0  0  2  0  0  0  0  0  0
  156.9260  212.2560  155.8290 C   0  0  0  0  0  0  0  0  0  0  0  0
  156.0540  211.6450  156.7200 O   0  0  0  0  0  1  0  0  0  0  0  0
  157.6190  213.2390  156.2020 O   0  0  0  0  0  0  0  0  0  0  0  0
  1  4  1  0  0  0  0
  2  5  1  0  0  0  0
  2  1  2  0  0  0  0
  3  1  1  0  0  0  0
  4  6  2  0  0  0  0
  4 21  1  0  0  0  0
  5  7  2  0  0  0  0
  6 20  1  0  0  0  0
  7  9  1  0  0  0  0
  7  6  1  0  0  0  0
  9  8  1  1  0  0  0
 10 12  1  0  0  0  0
 12 11  1  0  0  0  0
 12  9  1  1  0  0  0
 13 16  1  0  0  0  0
 13 14  2  0  0  0  0
 14 15  1  0  0  0  0
 15 11  2  0  0  0  0
 16 10  2  0  0  0  0
 17 13  1  0  0  0  0
 18 17  1  0  0  0  0
 20 19  1  0  0  0  0
 21 22  1  1  0  0  0
 21 23  1  0  0  0  0
 23 25  1  0  0  0  0
 25 26  1  0  0  0  0
 26 24  1  0  0  0  0
 26 27  2  0  0  0  0
 28 25  1  0  0  0  0
 29 28  1  0  0  0  0
 29 30  1  0  0  0  0
 30 31  1  0  0  0  0
 31 32  1  0  0  0  0
 32 34  2  0  0  0  0
 32 33  1  0  0  0  0
M  END
>  <MODEL>
4

>  <REMARK>
 VINA RESULT:      -7.1      2.252      9.847
  Name = 
  12 active torsions:
  status: ('A' for Active; 'I' for Inactive)
    1  A    between atoms: C_2  and  C_5
    2  A    between atoms: C_2  and  C_10
    3  A    between atoms: C_6  and  C_7
    4  A    between atoms: C_6  and  N_19
    5  A    between atoms: C_7  and  C_21
    6  A    between atoms: C_9  and  C_17
    7  A    between atoms: C_10  and  C_27
    8  A    between atoms: C_15  and  C_32
    9  A    between atoms: N_19  and  C_23
   10  A    between atoms: C_23  and  C_27
   11  A    between atoms: O_25  and  C_30
   12  A    between atoms: C_31  and  C_32
                            x       y       z     vdW  Elec       q    Type
                         _______ _______ _______ _____ _____    ______ ____

>  <TORSDO>
F 12

$$$$
=
 OpenBabel11052411063D

 34 35  0  0  1  0  0  0  0  0999 V2000
  161.1580  205.2770  152.1540 C   0  0  0  0  0  0  0  0  0  0  0  0
  161.2070  206.0310  153.3230 C   0  0  0  0  0  3  0  0  0  0  0  0
  161.1160  203.8910  152.2440 O   0  0  0  0  0  1  0  0  0  0  0  0
  161.1480  205.9120  150.9030 C   0  0  0  0  0  0  0  0  0  0  0  0
  161.2400  207.4200  153.2590 C   0  0  0  0  0  3  0  0  0  0  0  0
  161.2060  207.3240  150.8240 C   0  0  0  0  0  0  0  0  0  0  0  0
  161.2380  208.0850  152.0250 C   0  0  0  0  0  0  0  0  0  0  0  0
  162.5580  210.2320  151.9740 C   0  0  0  0  0  1  0  0  0  0  0  0
  161.1770  209.5930  152.0140 C   0  0  2  0  0  3  0  0  0  0  0  0
  161.1180  210.8670  154.1620 C   0  0  0  0  0  3  0  0  0  0  0  0
  159.2420  211.1270  152.5570 C   0  0  0  0  0  3  0  0  0  0  0  0
  160.2890  210.2070  153.1060 C   0  0  1  0  0  3  0  0  0  0  0  0
  159.1760  211.3800  155.6500 C   0  0  0  0  0  0  0  0  0  0  0  0
  158.1790  211.5650  154.7730 C   0  0  0  0  0  3  0  0  0  0  0  0
  158.2950  211.6880  153.3060 C   0  0  0  0  0  3  0  0  0  0  0  0
  160.6110  211.3460  155.2960 C   0  0  0  0  0  3  0  0  0  0  0  0
  158.8250  211.3430  157.0950 C   0  0  0  0  0  2  0  0  0  0  0  0
  157.4730  211.6410  157.2590 O   0  0  0  0  0  1  0  0  0  0  0  0
  162.3800  208.2530  148.8130 C   0  0  0  0  0  1  0  0  0  0  0  0
  161.2130  207.9090  149.5460 O   0  0  0  0  0  0  0  0  0  0  0  0
  161.0960  205.0600  149.6650 C   0  0  2  0  0  3  0  0  0  0  0  0
  160.2250  205.6150  148.7250 O   0  0  0  0  0  1  0  0  0  0  0  0
  160.6920  203.6290  150.0010 C   0  0  0  0  0  2  0  0  0  0  0  0
  160.4880  200.7000  150.3720 C   0  0  0  0  0  1  0  0  0  0  0  0
  161.1230  202.7190  148.9470 N   0  0  0  0  0  0  0  0  0  0  0  0
  161.0310  201.2930  149.1160 C   0  0  0  0  0  0  0  0  0  0  0  0
  161.4190  200.5200  148.2010 O   0  0  0  0  0  0  0  0  0  0  0  0
  161.7460  203.2910  147.7610 C   0  0  0  0  0  2  0  0  0  0  0  0
  160.9440  202.9310  146.5230 C   0  0  0  0  0  2  0  0  0  0  0  0
  161.6910  203.3850  145.2890 C   0  0  0  0  0  2  0  0  0  0  0  0
  160.8890  204.4570  144.5800 C   0  0  0  0  0  2  0  0  0  0  0  0
  160.9760  205.7360  145.3360 C   0  0  0  0  0  0  0  0  0  0  0  0
  162.1930  206.1540  145.8590 O   0  0  0  0  0  1  0  0  0  0  0  0
  159.9500  206.4490  145.4850 O   0  0  0  0  0  0  0  0  0  0  0  0
  1  3  1  0  0  0  0
  1  2  1  0  0  0  0
  4  1  2  0  0  0  0
  5  2  2  0  0  0  0
  6  4  1  0  0  0  0
  6  7  2  0  0  0  0
  7  5  1  0  0  0  0
  9  8  1  1  0  0  0
  9  7  1  0  0  0  0
 10 16  2  0  0  0  0
 11 12  1  0  0  0  0
 11 15  2  0  0  0  0
 12  9  1  6  0  0  0
 12 10  1  0  0  0  0
 13 17  1  0  0  0  0
 14 13  2  0  0  0  0
 15 14  1  0  0  0  0
 16 13  1  0  0  0  0
 17 18  1  0  0  0  0
 19 20  1  0  0  0  0
 20  6  1  0  0  0  0
 21 22  1  6  0  0  0
 21 23  1  0  0  0  0
 21  4  1  0  0  0  0
 25 26  1  0  0  0  0
 25 23  1  0  0  0  0
 26 24  1  0  0  0  0
 27 26  2  0  0  0  0
 28 25  1  0  0  0  0
 29 28  1  0  0  0  0
 30 29  1  0  0  0  0
 31 30  1  0  0  0  0
 31 32  1  0  0  0  0
 32 34  2  0  0  0  0
 32 33  1  0  0  0  0
M  END
>  <MODEL>
5

>  <REMARK>
 VINA RESULT:      -7.1      1.772      3.248
  Name = 
  12 active torsions:
  status: ('A' for Active; 'I' for Inactive)
    1  A    between atoms: C_2  and  C_5
    2  A    between atoms: C_2  and  C_10
    3  A    between atoms: C_6  and  C_7
    4  A    between atoms: C_6  and  N_19
    5  A    between atoms: C_7  and  C_21
    6  A    between atoms: C_9  and  C_17
    7  A    between atoms: C_10  and  C_27
    8  A    between atoms: C_15  and  C_32
    9  A    between atoms: N_19  and  C_23
   10  A    between atoms: C_23  and  C_27
   11  A    between atoms: O_25  and  C_30
   12  A    between atoms: C_31  and  C_32
                            x       y       z     vdW  Elec       q    Type
                         _______ _______ _______ _____ _____    ______ ____

>  <TORSDO>
F 12

$$$$
=
 OpenBabel11052411063D

 34 35  0  0  1  0  0  0  0  0999 V2000
  160.9730  206.2370  153.8040 C   0  0  0  0  0  0  0  0  0  0  0  0
  160.6390  206.7550  155.0510 C   0  0  0  0  0  3  0  0  0  0  0  0
  161.0320  204.8580  153.6380 O   0  0  0  0  0  1  0  0  0  0  0  0
  161.2430  207.0980  152.7290 C   0  0  0  0  0  0  0  0  0  0  0  0
  160.5640  208.1310  155.2390 C   0  0  0  0  0  3  0  0  0  0  0  0
  161.1930  208.4990  152.9140 C   0  0  0  0  0  0  0  0  0  0  0  0
  160.8340  209.0190  154.1880 C   0  0  0  0  0  0  0  0  0  0  0  0
  161.6230  211.0570  155.4430 C   0  0  0  0  0  1  0  0  0  0  0  0
  160.6440  210.4980  154.4210 C   0  0  2  0  0  3  0  0  0  0  0  0
  159.0730  211.4720  156.1020 C   0  0  0  0  0  3  0  0  0  0  0  0
  158.6420  211.8560  153.6870 C   0  0  0  0  0  3  0  0  0  0  0  0
  159.1980  210.9200  154.7170 C   0  0  1  0  0  3  0  0  0  0  0  0
  156.5860  211.6930  156.0060 C   0  0  0  0  0  0  0  0  0  0  0  0
  156.3650  211.9480  154.7080 C   0  0  0  0  0  3  0  0  0  0  0  0
  157.3760  212.2690  153.6810 C   0  0  0  0  0  3  0  0  0  0  0  0
  157.9060  211.7720  156.6660 C   0  0  0  0  0  3  0  0  0  0  0  0
  155.4000  211.4490  156.8700 C   0  0  0  0  0  2  0  0  0  0  0  0
  154.6870  210.3500  156.3930 O   0  0  0  0  0  1  0  0  0  0  0  0
  162.6820  210.0750  151.6550 C   0  0  0  0  0  1  0  0  0  0  0  0
  161.4910  209.3170  151.8100 O   0  0  0  0  0  0  0  0  0  0  0  0
  161.6010  206.4960  151.3990 C   0  0  2  0  0  3  0  0  0  0  0  0
  162.9650  206.6480  151.1430 O   0  0  0  0  0  1  0  0  0  0  0  0
  160.7680  207.1070  150.2780 C   0  0  0  0  0  2  0  0  0  0  0  0
  162.3980  208.5230  148.2540 C   0  0  0  0  0  1  0  0  0  0  0  0
  161.0820  206.4700  149.0050 N   0  0  0  0  0  0  0  0  0  0  0  0
  161.8720  207.1480  148.0120 C   0  0  0  0  0  0  0  0  0  0  0  0
  162.1250  206.5890  146.9130 O   0  0  0  0  0  0  0  0  0  0  0  0
  160.4880  205.1700  148.7240 C   0  0  0  0  0  2  0  0  0  0  0  0
  161.5700  204.1110  148.6220 C   0  0  0  0  0  2  0  0  0  0  0  0
  161.0940  202.9890  147.7240 C   0  0  0  0  0  2  0  0  0  0  0  0
  161.3970  201.6570  148.3790 C   0  0  0  0  0  2  0  0  0  0  0  0
  160.5120  201.4610  149.5590 C   0  0  0  0  0  0  0  0  0  0  0  0
  159.1410  201.3280  149.3860 O   0  0  0  0  0  0  0  0  0  0  0  0
  161.0090  201.3960  150.7130 O   0  0  0  0  0  1  0  0  0  0  0  0
  1  2  1  0  0  0  0
  2  5  2  0  0  0  0
  3  1  1  0  0  0  0
  4  6  1  0  0  0  0
  4  1  2  0  0  0  0
  6  7  2  0  0  0  0
  7  9  1  0  0  0  0
  7  5  1  0  0  0  0
  9  8  1  1  0  0  0
 10 16  2  0  0  0  0
 11 12  1  0  0  0  0
 12  9  1  6  0  0  0
 12 10  1  0  0  0  0
 13 16  1  0  0  0  0
 13 17  1  0  0  0  0
 14 13  2  0  0  0  0
 15 11  2  0  0  0  0
 15 14  1  0  0  0  0
 18 17  1  0  0  0  0
 19 20  1  0  0  0  0
 20  6  1  0  0  0  0
 21 22  1  6  0  0  0
 21  4  1  0  0  0  0
 23 21  1  0  0  0  0
 25 23  1  0  0  0  0
 26 24  1  0  0  0  0
 26 25  1  0  0  0  0
 27 26  2  0  0  0  0
 28 25  1  0  0  0  0
 29 28  1  0  0  0  0
 30 31  1  0  0  0  0
 30 29  1  0  0  0  0
 31 32  1  0  0  0  0
 32 34  1  0  0  0  0
 33 32  2  0  0  0  0
M  END
>  <MODEL>
6

>  <REMARK>
 VINA RESULT:      -6.9      1.412      1.669
  Name = 
  12 active torsions:
  status: ('A' for Active; 'I' for Inactive)
    1  A    between atoms: C_2  and  C_5
    2  A    between atoms: C_2  and  C_10
    3  A    between atoms: C_6  and  C_7
    4  A    between atoms: C_6  and  N_19
    5  A    between atoms: C_7  and  C_21
    6  A    between atoms: C_9  and  C_17
    7  A    between atoms: C_10  and  C_27
    8  A    between atoms: C_15  and  C_32
    9  A    between atoms: N_19  and  C_23
   10  A    between atoms: C_23  and  C_27
   11  A    between atoms: O_25  and  C_30
   12  A    between atoms: C_31  and  C_32
                            x       y       z     vdW  Elec       q    Type
                         _______ _______ _______ _____ _____    ______ ____

>  <TORSDO>
F 12

$$$$
=
 OpenBabel11052411063D

 34 35  0  0  1  0  0  0  0  0999 V2000
  160.7710  207.9380  154.7690 C   0  0  0  0  0  0  0  0  0  0  0  0
  160.8110  206.5780  154.4740 C   0  0  0  0  0  3  0  0  0  0  0  0
  160.5850  208.3400  156.0860 O   0  0  0  0  0  1  0  0  0  0  0  0
  160.9200  208.8880  153.7460 C   0  0  0  0  0  0  0  0  0  0  0  0
  161.0050  206.1520  153.1650 C   0  0  0  0  0  3  0  0  0  0  0  0
  161.0940  208.4660  152.4070 C   0  0  0  0  0  0  0  0  0  0  0  0
  161.1510  207.0750  152.1200 C   0  0  0  0  0  0  0  0  0  0  0  0
  160.8310  207.4150  149.6430 C   0  0  0  0  0  1  0  0  0  0  0  0
  161.4550  206.5590  150.7340 C   0  0  2  0  0  3  0  0  0  0  0  0
  161.5020  204.6420  149.1330 C   0  0  0  0  0  3  0  0  0  0  0  0
  161.8370  204.1970  151.5530 C   0  0  0  0  0  3  0  0  0  0  0  0
  161.1690  205.0640  150.5290 C   0  0  1  0  0  3  0  0  0  0  0  0
  160.6040  202.3250  149.4060 C   0  0  0  0  0  0  0  0  0  0  0  0
  160.8320  202.0750  150.7030 C   0  0  0  0  0  3  0  0  0  0  0  0
  161.6440  202.8820  151.6350 C   0  0  0  0  0  3  0  0  0  0  0  0
  161.2100  203.4390  148.6450 C   0  0  0  0  0  3  0  0  0  0  0  0
  159.7950  201.3350  148.6450 C   0  0  0  0  0  2  0  0  0  0  0  0
  160.5700  200.7690  147.6340 O   0  0  0  0  0  1  0  0  0  0  0  0
  162.4080  210.1840  151.1390 C   0  0  0  0  0  1  0  0  0  0  0  0
  161.2200  209.4580  151.4190 O   0  0  0  0  0  0  0  0  0  0  0  0
  160.8700  210.3460  154.1080 C   0  0  2  0  0  3  0  0  0  0  0  0
  161.9590  210.6900  154.9120 O   0  0  0  0  0  1  0  0  0  0  0  0
  159.5560  210.6960  154.7970 C   0  0  0  0  0  2  0  0  0  0  0  0
  159.9400  213.0400  156.5630 C   0  0  0  0  0  1  0  0  0  0  0  0
  159.1000  212.0170  154.3820 N   0  0  0  0  0  0  0  0  0  0  0  0
  159.2790  213.1640  155.2320 C   0  0  0  0  0  0  0  0  0  0  0  0
  158.8690  214.2960  154.8640 O   0  0  0  0  0  0  0  0  0  0  0  0
  158.3650  212.1260  153.1290 C   0  0  0  0  0  2  0  0  0  0  0  0
  159.3180  212.4350  151.9880 C   0  0  0  0  0  2  0  0  0  0  0  0
  158.9330  213.7530  151.3540 C   0  0  0  0  0  2  0  0  0  0  0  0
  160.0810  214.2560  150.5020 C   0  0  0  0  0  2  0  0  0  0  0  0
  160.1900  213.4350  149.2660 C   0  0  0  0  0  0  0  0  0  0  0  0
  159.1200  213.3590  148.3840 O   0  0  0  0  0  0  0  0  0  0  0  0
  161.2600  212.8260  149.0090 O   0  0  0  0  0  1  0  0  0  0  0  0
  1  3  1  0  0  0  0
  2  1  1  0  0  0  0
  4 21  1  0  0  0  0
  4  1  2  0  0  0  0
  5  2  2  0  0  0  0
  6  4  1  0  0  0  0
  7  6  2  0  0  0  0
  7  5  1  0  0  0  0
  9  8  1  6  0  0  0
  9  7  1  0  0  0  0
 10 12  1  0  0  0  0
 11 15  2  0  0  0  0
 12  9  1  1  0  0  0
 12 11  1  0  0  0  0
 13 14  2  0  0  0  0
 14 15  1  0  0  0  0
 16 10  2  0  0  0  0
 16 13  1  0  0  0  0
 17 13  1  0  0  0  0
 18 17  1  0  0  0  0
 19 20  1  0  0  0  0
 20  6  1  0  0  0  0
 21 23  1  0  0  0  0
 21 22  1  1  0  0  0
 25 23  1  0  0  0  0
 25 26  1  0  0  0  0
 26 24  1  0  0  0  0
 27 26  2  0  0  0  0
 28 25  1  0  0  0  0
 29 28  1  0  0  0  0
 30 29  1  0  0  0  0
 31 30  1  0  0  0  0
 32 31  1  0  0  0  0
 33 32  2  0  0  0  0
 34 32  1  0  0  0  0
M  END
>  <MODEL>
7

>  <REMARK>
 VINA RESULT:      -6.7      2.873      9.099
  Name = 
  12 active torsions:
  status: ('A' for Active; 'I' for Inactive)
    1  A    between atoms: C_2  and  C_5
    2  A    between atoms: C_2  and  C_10
    3  A    between atoms: C_6  and  C_7
    4  A    between atoms: C_6  and  N_19
    5  A    between atoms: C_7  and  C_21
    6  A    between atoms: C_9  and  C_17
    7  A    between atoms: C_10  and  C_27
    8  A    between atoms: C_15  and  C_32
    9  A    between atoms: N_19  and  C_23
   10  A    between atoms: C_23  and  C_27
   11  A    between atoms: O_25  and  C_30
   12  A    between atoms: C_31  and  C_32
                            x       y       z     vdW  Elec       q    Type
                         _______ _______ _______ _____ _____    ______ ____

>  <TORSDO>
F 12

$$$$
=
 OpenBabel11052411063D

 34 35  0  0  1  0  0  0  0  0999 V2000
  161.8410  209.3520  149.9620 C   0  0  0  0  0  0  0  0  0  0  0  0
  161.5790  210.3230  150.9240 C   0  0  0  0  0  3  0  0  0  0  0  0
  162.0320  209.7410  148.6420 O   0  0  0  0  0  1  0  0  0  0  0  0
  161.9130  207.9980  150.3250 C   0  0  0  0  0  0  0  0  0  0  0  0
  161.3940  209.9590  152.2530 C   0  0  0  0  0  3  0  0  0  0  0  0
  161.7020  207.6130  151.6710 C   0  0  0  0  0  0  0  0  0  0  0  0
  161.4530  208.6150  152.6480 C   0  0  0  0  0  0  0  0  0  0  0  0
  160.3480  207.1650  154.3890 C   0  0  0  0  0  1  0  0  0  0  0  0
  161.3410  208.2850  154.1170 C   0  0  2  0  0  3  0  0  0  0  0  0
  159.6740  209.5890  155.4430 C   0  0  0  0  0  3  0  0  0  0  0  0
  162.0350  209.5250  156.2080 C   0  0  0  0  0  3  0  0  0  0  0  0
  161.1080  209.4970  155.0310 C   0  0  1  0  0  3  0  0  0  0  0  0
  159.9420  211.7810  156.6130 C   0  0  0  0  0  0  0  0  0  0  0  0
  161.2030  211.7190  157.0640 C   0  0  0  0  0  3  0  0  0  0  0  0
  162.0860  210.5350  157.0740 C   0  0  0  0  0  3  0  0  0  0  0  0
  159.1700  210.6250  156.1100 C   0  0  0  0  0  3  0  0  0  0  0  0
  159.2230  213.0760  156.7570 C   0  0  0  0  0  2  0  0  0  0  0  0
  158.1440  213.1170  155.8750 O   0  0  0  0  0  1  0  0  0  0  0  0
  162.9600  205.5280  152.2670 C   0  0  0  0  0  1  0  0  0  0  0  0
  161.7670  206.2430  151.9780 O   0  0  0  0  0  0  0  0  0  0  0  0
  162.1960  206.9810  149.2550 C   0  0  2  0  0  3  0  0  0  0  0  0
  162.9820  207.5400  148.2440 O   0  0  0  0  0  1  0  0  0  0  0  0
  160.9030  206.4100  148.6840 C   0  0  0  0  0  2  0  0  0  0  0  0
  160.4590  206.5760  145.7620 C   0  0  0  0  0  1  0  0  0  0  0  0
  161.1880  205.2660  147.8270 N   0  0  0  0  0  0  0  0  0  0  0  0
  160.9740  205.3330  146.4060 C   0  0  0  0  0  0  0  0  0  0  0  0
  161.2130  204.3320  145.6810 O   0  0  0  0  0  0  0  0  0  0  0  0
  161.5950  204.0190  148.4620 C   0  0  0  0  0  2  0  0  0  0  0  0
  160.7680  203.7740  149.7110 C   0  0  0  0  0  2  0  0  0  0  0  0
  160.8000  202.3020  150.0560 C   0  0  0  0  0  2  0  0  0  0  0  0
  159.9730  201.5300  149.0480 C   0  0  0  0  0  2  0  0  0  0  0  0
  160.8540  200.9990  147.9730 C   0  0  0  0  0  0  0  0  0  0  0  0
  160.6610  201.3950  146.6560 O   0  0  0  0  0  0  0  0  0  0  0  0
  161.7870  200.2050  148.2600 O   0  0  0  0  0  1  0  0  0  0  0  0
  1  4  2  0  0  0  0
  1  2  1  0  0  0  0
  2  5  2  0  0  0  0
  3  1  1  0  0  0  0
  4  6  1  0  0  0  0
  5  7  1  0  0  0  0
  6 20  1  0  0  0  0
  6  7  2  0  0  0  0
  7  9  1  0  0  0  0
  9  8  1  6  0  0  0
 10 16  2  0  0  0  0
 11 15  2  0  0  0  0
 12  9  1  1  0  0  0
 12 10  1  0  0  0  0
 12 11  1  0  0  0  0
 13 17  1  0  0  0  0
 13 14  2  0  0  0  0
 14 15  1  0  0  0  0
 16 13  1  0  0  0  0
 18 17  1  0  0  0  0
 20 19  1  0  0  0  0
 21 22  1  6  0  0  0
 21  4  1  0  0  0  0
 23 21  1  0  0  0  0
 24 26  1  0  0  0  0
 25 28  1  0  0  0  0
 25 23  1  0  0  0  0
 26 25  1  0  0  0  0
 27 26  2  0  0  0  0
 28 29  1  0  0  0  0
 29 30  1  0  0  0  0
 31 30  1  0  0  0  0
 32 34  1  0  0  0  0
 32 31  1  0  0  0  0
 33 32  2  0  0  0  0
M  END
>  <MODEL>
8

>  <REMARK>
 VINA RESULT:      -6.6      1.824      3.091
  Name = 
  12 active torsions:
  status: ('A' for Active; 'I' for Inactive)
    1  A    between atoms: C_2  and  C_5
    2  A    between atoms: C_2  and  C_10
    3  A    between atoms: C_6  and  C_7
    4  A    between atoms: C_6  and  N_19
    5  A    between atoms: C_7  and  C_21
    6  A    between atoms: C_9  and  C_17
    7  A    between atoms: C_10  and  C_27
    8  A    between atoms: C_15  and  C_32
    9  A    between atoms: N_19  and  C_23
   10  A    between atoms: C_23  and  C_27
   11  A    between atoms: O_25  and  C_30
   12  A    between atoms: C_31  and  C_32
                            x       y       z     vdW  Elec       q    Type
                         _______ _______ _______ _____ _____    ______ ____

>  <TORSDO>
F 12

$$$$
=
 OpenBabel11052411063D

 34 35  0  0  1  0  0  0  0  0999 V2000
  161.9450  208.8140  149.3840 C   0  0  0  0  0  0  0  0  0  0  0  0
  162.0630  207.7540  148.4900 C   0  0  0  0  0  3  0  0  0  0  0  0
  162.2500  210.1000  148.9520 O   0  0  0  0  0  1  0  0  0  0  0  0
  161.5210  208.5850  150.7010 C   0  0  0  0  0  0  0  0  0  0  0  0
  161.7550  206.4600  148.8950 C   0  0  0  0  0  3  0  0  0  0  0  0
  161.2270  207.2690  151.1320 C   0  0  0  0  0  0  0  0  0  0  0  0
  161.3340  206.1960  150.2060 C   0  0  0  0  0  0  0  0  0  0  0  0
  161.7730  204.1960  151.6770 C   0  0  0  0  0  1  0  0  0  0  0  0
  160.9200  204.7890  150.5650 C   0  0  2  0  0  3  0  0  0  0  0  0
  161.7210  204.2220  148.2680 C   0  0  0  0  0  3  0  0  0  0  0  0
  160.9350  202.3940  149.7550 C   0  0  0  0  0  3  0  0  0  0  0  0
  160.7860  203.8350  149.3700 C   0  0  1  0  0  3  0  0  0  0  0  0
  160.8410  202.5280  146.6550 C   0  0  0  0  0  0  0  0  0  0  0  0
  160.4620  201.5260  147.4620 C   0  0  0  0  0  3  0  0  0  0  0  0
  160.7510  201.3870  148.9040 C   0  0  0  0  0  3  0  0  0  0  0  0
  161.7040  203.6560  147.0630 C   0  0  0  0  0  3  0  0  0  0  0  0
  160.4810  202.4250  145.2150 C   0  0  0  0  0  2  0  0  0  0  0  0
  159.9750  201.1550  144.9450 O   0  0  0  0  0  1  0  0  0  0  0  0
  161.6670  206.6440  153.5200 C   0  0  0  0  0  1  0  0  0  0  0  0
  160.8240  207.0920  152.4670 O   0  0  0  0  0  0  0  0  0  0  0  0
  161.4080  209.7580  151.6340 C   0  0  2  0  0  3  0  0  0  0  0  0
  162.5150  209.8160  152.4850 O   0  0  0  0  0  1  0  0  0  0  0  0
  160.1120  209.7010  152.4340 C   0  0  0  0  0  2  0  0  0  0  0  0
  160.0510  212.2800  150.9840 C   0  0  0  0  0  1  0  0  0  0  0  0
  159.9040  210.9490  153.1570 N   0  0  0  0  0  0  0  0  0  0  0  0
  159.8750  212.2100  152.4640 C   0  0  0  0  0  0  0  0  0  0  0  0
  159.7070  213.2810  153.1040 O   0  0  0  0  0  0  0  0  0  0  0  0
  159.8320  210.8960  154.6110 C   0  0  0  0  0  2  0  0  0  0  0  0
  161.2110  211.1020  155.2110 C   0  0  0  0  0  2  0  0  0  0  0  0
  161.2220  210.5890  156.6340 C   0  0  0  0  0  2  0  0  0  0  0  0
  160.0640  209.6330  156.8350 C   0  0  0  0  0  2  0  0  0  0  0  0
  160.5440  208.2290  156.7240 C   0  0  0  0  0  0  0  0  0  0  0  0
  161.8890  207.9360  156.9030 O   0  0  0  0  0  1  0  0  0  0  0  0
  159.7250  207.3030  156.4870 O   0  0  0  0  0  0  0  0  0  0  0  0
  1  4  1  0  0  0  0
  2  5  1  0  0  0  0
  2  1  2  0  0  0  0
  3  1  1  0  0  0  0
  4  6  2  0  0  0  0
  4 21  1  0  0  0  0
  5  7  2  0  0  0  0
  6 20  1  0  0  0  0
  7  9  1  0  0  0  0
  7  6  1  0  0  0  0
  9  8  1  1  0  0  0
 10 12  1  0  0  0  0
 12 11  1  0  0  0  0
 12  9  1  1  0  0  0
 13 16  1  0  0  0  0
 13 14  2  0  0  0  0
 14 15  1  0  0  0  0
 15 11  2  0  0  0  0
 16 10  2  0  0  0  0
 17 13  1  0  0  0  0
 18 17  1  0  0  0  0
 20 19  1  0  0  0  0
 21 23  1  0  0  0  0
 21 22  1  1  0  0  0
 23 25  1  0  0  0  0
 24 26  1  0  0  0  0
 25 28  1  0  0  0  0
 26 27  2  0  0  0  0
 26 25  1  0  0  0  0
 28 29  1  0  0  0  0
 29 30  1  0  0  0  0
 30 31  1  0  0  0  0
 32 31  1  0  0  0  0
 32 33  1  0  0  0  0
 34 32  2  0  0  0  0
M  END
>  <MODEL>
9

>  <REMARK>
 VINA RESULT:      -6.6      2.506      9.268
  Name = 
  12 active torsions:
  status: ('A' for Active; 'I' for Inactive)
    1  A    between atoms: C_2  and  C_5
    2  A    between atoms: C_2  and  C_10
    3  A    between atoms: C_6  and  C_7
    4  A    between atoms: C_6  and  N_19
    5  A    between atoms: C_7  and  C_21
    6  A    between atoms: C_9  and  C_17
    7  A    between atoms: C_10  and  C_27
    8  A    between atoms: C_15  and  C_32
    9  A    between atoms: N_19  and  C_23
   10  A    between atoms: C_23  and  C_27
   11  A    between atoms: O_25  and  C_30
   12  A    between atoms: C_31  and  C_32
                            x       y       z     vdW  Elec       q    Type
                         _______ _______ _______ _____ _____    ______ ____

>  <TORSDO>
F 12

$$$$
