=
 OpenBabel11052412093D

 50 55  0  0  1  0  0  0  0  0999 V2000
  161.8990  210.0730  149.8120 C   0  0  0  0  0  0  0  0  0  0  0  0
  162.3190  208.8110  149.7170 C   0  0  0  0  0  3  0  0  0  0  0  0
  161.6560  210.8300  148.6180 N   0  0  0  0  0  2  0  0  0  0  0  0
  163.6100  212.1240  148.6200 O   0  0  0  0  0  0  0  0  0  0  0  0
  162.4840  211.8830  148.1110 C   0  0  0  0  0  0  0  0  0  0  0  0
  162.0270  212.6770  147.0150 N   0  0  0  0  0  2  0  0  0  0  0  0
  160.8310  212.4410  146.4200 O   0  0  0  0  0  0  0  0  0  0  0  0
  160.3770  213.6970  145.9840 C   0  0  1  0  0  0  0  0  0  0  0  0
  161.4260  214.4530  145.3050 N   0  0  0  0  0  2  0  0  0  0  0  0
  160.3660  213.7860  144.5420 C   0  0  2  0  0  0  0  0  0  0  0  0
  157.8180  213.5020  145.2840 O   0  0  0  0  0  0  0  0  0  0  0  0
  159.0300  213.6360  145.2770 C   0  0  0  0  0  0  0  0  0  0  0  0
  160.7040  211.5020  141.7420 C   0  0  0  0  0  2  0  0  0  0  0  0
  159.9030  212.1520  142.8490 C   0  0  0  0  0  2  0  0  0  0  0  0
  162.0900  212.8130  143.2090 C   0  0  0  0  0  2  0  0  0  0  0  0
  162.1230  211.9670  141.9530 C   0  0  2  0  0  3  0  0  0  0  0  0
  160.8360  212.5370  143.9070 N   0  0  1  0  0  0  0  0  0  0  0  0
  162.5550  212.7870  140.8170 C   0  0  0  0  0  0  0  0  0  0  0  0
  162.8990  213.4330  139.9190 N   0  0  0  0  0  0  0  0  0  0  0  0
  162.5870  208.1640  148.4000 C   0  0  0  0  0  2  0  0  0  0  0  0
  161.4650  207.4440  147.9910 O   0  0  0  0  0  0  0  0  0  0  0  0
  161.8760  206.7730  146.8370 C   0  0  0  0  0  2  0  0  0  0  0  0
  161.1570  204.4480  146.1630 C   0  0  1  0  0  3  0  0  0  0  0  0
  160.7440  205.9030  146.3010 C   0  0  2  0  0  3  0  0  0  0  0  0
  160.4760  206.2740  144.8730 C   0  0  0  0  0  2  0  0  0  0  0  0
  161.1790  205.2020  144.0590 C   0  0  0  0  0  2  0  0  0  0  0  0
  161.8070  204.2950  144.9310 O   0  0  0  0  0  0  0  0  0  0  0  0
  162.0200  203.9980  147.2530 N   0  0  0  0  0  2  0  0  0  0  0  0
  160.5980  202.0250  150.1550 C   0  0  1  0  0  3  0  0  0  0  0  0
  160.3620  202.8720  152.4930 C   0  0  0  0  0  1  0  0  0  0  0  0
  160.7650  204.3710  150.6840 O   0  0  0  0  0  0  0  0  0  0  0  0
  161.1710  203.7320  148.4060 C   0  0  2  0  0  3  0  0  0  0  0  0
  161.6070  204.6070  149.5810 C   0  0  0  0  0  2  0  0  0  0  0  0
  161.0630  203.0810  151.1640 C   0  0  2  0  0  3  0  0  0  0  0  0
  161.2920  202.2640  148.8130 C   0  0  0  0  0  2  0  0  0  0  0  0
  160.9110  200.7570  150.6090 F   0  0  0  0  0  0  0  0  0  0  0  0
  161.6420  210.6520  151.0950 N   0  0  0  0  0  2  0  0  0  0  0  0
  161.8670  209.9670  152.3600 C   0  0  0  0  0  2  0  0  0  0  0  0
  160.4330  210.1590  154.2900 N   0  0  0  0  0  0  0  0  0  0  0  0
  161.2360  210.7420  153.4620 C   0  0  0  0  0  3  0  0  0  0  0  0
  159.8760  210.8670  155.3310 O   0  0  0  0  0  0  0  0  0  0  0  0
  158.4740  210.8460  155.5530 C   0  0  0  0  0  2  0  0  0  0  0  0
  157.8260  212.0910  154.9640 C   0  0  2  0  0  3  0  0  0  0  0  0
  156.4550  212.2680  155.5360 C   0  0  0  0  0  0  0  0  0  0  0  0
  155.5320  213.0930  154.9010 O   0  0  0  0  0  0  0  0  0  0  0  0
  156.1210  211.6340  156.5740 O   0  0  0  0  0  1  0  0  0  0  0  0
  157.7610  211.9800  153.5730 O   0  0  0  0  0  0  0  0  0  0  0  0
  157.5460  213.8970  152.1860 C   0  0  0  0  0  2  0  0  0  0  0  0
  158.4550  213.0910  153.0900 C   0  0  0  0  0  3  0  0  0  0  0  0
  158.5880  212.9840  151.5840 C   0  0  0  0  0  2  0  0  0  0  0  0
  1 37  1  0  0  0  0
  2  1  2  0  0  0  0
  3  1  1  0  0  0  0
  5  3  1  0  0  0  0
  5  4  2  0  0  0  0
  6  5  1  0  0  0  0
  7  6  1  0  0  0  0
  8  7  1  1  0  0  0
  9  8  1  0  0  0  0
 10 12  1  6  0  0  0
 10  9  1  0  0  0  0
 10  8  1  0  0  0  0
 12 11  2  0  0  0  0
 12  8  1  0  0  0  0
 13 16  1  0  0  0  0
 13 14  1  0  0  0  0
 15 17  1  0  0  0  0
 16 18  1  6  0  0  0
 16 15  1  0  0  0  0
 17 14  1  6  0  0  0
 17 10  1  0  0  0  0
 19 18  3  0  0  0  0
 20  2  1  0  0  0  0
 21 20  1  0  0  0  0
 22 21  1  0  0  0  0
 23 24  1  0  0  0  0
 23 28  1  1  0  0  0
 24 22  1  6  0  0  0
 25 24  1  0  0  0  0
 26 25  1  0  0  0  0
 26 27  1  0  0  0  0
 27 23  1  0  0  0  0
 29 36  1  1  0  0  0
 29 34  1  0  0  0  0
 31 34  1  0  0  0  0
 32 28  1  6  0  0  0
 32 35  1  0  0  0  0
 32 33  1  0  0  0  0
 33 31  1  0  0  0  0
 34 30  1  1  0  0  0
 35 29  1  0  0  0  0
 37 38  1  0  0  0  0
 38 40  1  0  0  0  0
 39 41  1  0  0  0  0
 40 39  2  0  0  0  0
 41 42  1  0  0  0  0
 43 44  1  0  0  0  0
 43 42  1  1  0  0  0
 44 46  1  0  0  0  0
 45 44  2  0  0  0  0
 47 43  1  0  0  0  0
 48 49  1  0  0  0  0
 49 47  1  0  0  0  0
 50 48  1  0  0  0  0
 50 49  1  0  0  0  0
M  END
>  <MODEL>
1

>  <REMARK>
 VINA RESULT:      -6.3      0.000      0.000
  Name = 
  20 active torsions:
  status: ('A' for Active; 'I' for Inactive)
    1  A    between atoms: N_1  and  O_28
    2  A    between atoms: C_2  and  O_25
    3  A    between atoms: C_6  and  N_48
    4  A    between atoms: C_7  and  C_10
    5  A    between atoms: C_7  and  O_44
    6  A    between atoms: C_8  and  C_41
    7  A    between atoms: N_11  and  C_40
    8  A    between atoms: C_13  and  C_39
    9  A    between atoms: C_14  and  N_45
   10  A    between atoms: C_19  and  C_23
   11  A    between atoms: C_23  and  C_26
   12  A    between atoms: C_23  and  O_27
   13  A    between atoms: C_24  and  O_27
   14  A    between atoms: O_25  and  N_49
   15  A    between atoms: C_26  and  O_28
   16  A    between atoms: N_30  and  C_39
   17  A    between atoms: N_30  and  C_40
   18  A    between atoms: C_31  and  N_48
   19  A    between atoms: C_32  and  C_43
   20  A    between atoms: C_32  and  O_44
                            x       y       z     vdW  Elec       q    Type
                         _______ _______ _______ _____ _____    ______ ____

>  <TORSDO>
F 20

$$$$
=
 OpenBabel11052412093D

 50 55  0  0  1  0  0  0  0  0999 V2000
  161.5200  209.2500  152.3330 C   0  0  0  0  0  0  0  0  0  0  0  0
  161.5570  207.9180  152.3610 C   0  0  0  0  0  3  0  0  0  0  0  0
  160.7250  209.9570  153.2950 N   0  0  0  0  0  2  0  0  0  0  0  0
  162.0760  209.6210  155.1800 O   0  0  0  0  0  0  0  0  0  0  0  0
  160.9930  210.0480  154.6990 C   0  0  0  0  0  0  0  0  0  0  0  0
  160.0200  210.6270  155.5690 N   0  0  0  0  0  2  0  0  0  0  0  0
  158.8490  211.1200  155.0930 O   0  0  0  0  0  0  0  0  0  0  0  0
  158.5930  212.2720  155.8560 C   0  0  1  0  0  0  0  0  0  0  0  0
  159.2230  213.4590  155.2850 N   0  0  0  0  0  2  0  0  0  0  0  0
  157.7840  213.2220  155.1270 C   0  0  2  0  0  0  0  0  0  0  0  0
  156.1590  212.0880  156.9160 O   0  0  0  0  0  0  0  0  0  0  0  0
  157.1300  212.4150  156.2540 C   0  0  0  0  0  0  0  0  0  0  0  0
  157.1090  213.6850  151.5920 C   0  0  0  0  0  2  0  0  0  0  0  0
  156.7230  213.7820  153.0520 C   0  0  0  0  0  2  0  0  0  0  0  0
  158.6820  212.5530  153.0200 C   0  0  0  0  0  2  0  0  0  0  0  0
  158.4080  212.9180  151.5750 C   0  0  2  0  0  3  0  0  0  0  0  0
  157.4430  212.7350  153.7740 N   0  0  1  0  0  0  0  0  0  0  0  0
  159.4860  213.7750  151.0700 C   0  0  0  0  0  0  0  0  0  0  0  0
  160.3350  214.4530  150.6680 N   0  0  0  0  0  0  0  0  0  0  0  0
  160.7570  207.1260  153.3400 C   0  0  0  0  0  2  0  0  0  0  0  0
  161.1160  205.7810  153.2630 O   0  0  0  0  0  0  0  0  0  0  0  0
  160.7060  205.3770  151.9910 C   0  0  0  0  0  2  0  0  0  0  0  0
  161.3410  203.9790  149.9860 C   0  0  1  0  0  3  0  0  0  0  0  0
  161.7160  204.4020  151.3950 C   0  0  2  0  0  3  0  0  0  0  0  0
  161.6290  203.0980  152.1320 C   0  0  0  0  0  2  0  0  0  0  0  0
  160.7990  202.2010  151.2290 C   0  0  0  0  0  2  0  0  0  0  0  0
  160.4290  202.9190  150.0780 O   0  0  0  0  0  0  0  0  0  0  0  0
  160.7740  205.0710  149.1990 N   0  0  0  0  0  2  0  0  0  0  0  0
  161.3980  203.9250  145.6440 C   0  0  1  0  0  3  0  0  0  0  0  0
  161.5550  205.4280  143.6540 C   0  0  0  0  0  1  0  0  0  0  0  0
  161.6940  206.3080  145.8660 O   0  0  0  0  0  0  0  0  0  0  0  0
  161.4110  205.0480  147.8890 C   0  0  2  0  0  3  0  0  0  0  0  0
  161.0520  206.3180  147.1180 C   0  0  0  0  0  2  0  0  0  0  0  0
  161.0680  205.3150  145.0870 C   0  0  2  0  0  3  0  0  0  0  0  0
  160.9250  203.8350  147.0960 C   0  0  0  0  0  2  0  0  0  0  0  0
  160.7640  202.9490  144.8990 F   0  0  0  0  0  0  0  0  0  0  0  0
  162.3120  209.9730  151.3850 N   0  0  0  0  0  2  0  0  0  0  0  0
  162.0900  209.9450  149.9460 C   0  0  0  0  0  2  0  0  0  0  0  0
  162.0670  211.5830  148.1750 N   0  0  0  0  0  0  0  0  0  0  0  0
  161.9530  211.3370  149.4390 C   0  0  0  0  0  3  0  0  0  0  0  0
  161.9060  212.8660  147.7020 O   0  0  0  0  0  0  0  0  0  0  0  0
  162.2240  213.1860  146.3550 C   0  0  0  0  0  2  0  0  0  0  0  0
  161.0820  213.9580  145.7110 C   0  0  2  0  0  3  0  0  0  0  0  0
  159.7850  213.2610  145.9770 C   0  0  0  0  0  0  0  0  0  0  0  0
  158.7780  213.9030  146.6930 O   0  0  0  0  0  1  0  0  0  0  0  0
  159.5870  212.1040  145.5150 O   0  0  0  0  0  0  0  0  0  0  0  0
  161.2990  214.0700  144.3360 O   0  0  0  0  0  0  0  0  0  0  0  0
  163.0600  213.8080  142.7640 C   0  0  0  0  0  2  0  0  0  0  0  0
  162.4930  213.3850  144.1020 C   0  0  0  0  0  3  0  0  0  0  0  0
  162.3290  212.4920  142.8890 C   0  0  0  0  0  2  0  0  0  0  0  0
  1  2  2  0  0  0  0
  1  3  1  0  0  0  0
  2 20  1  0  0  0  0
  3  5  1  0  0  0  0
  5  4  2  0  0  0  0
  5  6  1  0  0  0  0
  7  6  1  0  0  0  0
  8  7  1  6  0  0  0
  8 12  1  0  0  0  0
  9  8  1  0  0  0  0
 10  9  1  1  0  0  0
 10  8  1  0  0  0  0
 10 12  1  0  0  0  0
 12 11  2  0  0  0  0
 13 14  1  0  0  0  0
 14 17  1  0  0  0  0
 16 18  1  1  0  0  0
 16 13  1  0  0  0  0
 16 15  1  0  0  0  0
 17 15  1  6  0  0  0
 17 10  1  0  0  0  0
 19 18  3  0  0  0  0
 21 20  1  0  0  0  0
 22 21  1  0  0  0  0
 23 28  1  1  0  0  0
 23 27  1  0  0  0  0
 23 24  1  0  0  0  0
 24 22  1  1  0  0  0
 24 25  1  0  0  0  0
 26 25  1  0  0  0  0
 27 26  1  0  0  0  0
 29 36  1  6  0  0  0
 29 35  1  0  0  0  0
 31 33  1  0  0  0  0
 32 28  1  1  0  0  0
 33 32  1  0  0  0  0
 34 30  1  6  0  0  0
 34 29  1  0  0  0  0
 34 31  1  0  0  0  0
 35 32  1  0  0  0  0
 37  1  1  0  0  0  0
 38 37  1  0  0  0  0
 39 40  2  0  0  0  0
 40 38  1  0  0  0  0
 41 39  1  0  0  0  0
 42 41  1  0  0  0  0
 43 44  1  0  0  0  0
 43 42  1  1  0  0  0
 44 45  1  0  0  0  0
 46 44  2  0  0  0  0
 47 43  1  0  0  0  0
 48 50  1  0  0  0  0
 48 49  1  0  0  0  0
 49 47  1  0  0  0  0
 50 49  1  0  0  0  0
M  END
>  <MODEL>
2

>  <REMARK>
 VINA RESULT:      -5.9      2.221      8.099
  Name = 
  20 active torsions:
  status: ('A' for Active; 'I' for Inactive)
    1  A    between atoms: N_1  and  O_28
    2  A    between atoms: C_2  and  O_25
    3  A    between atoms: C_6  and  N_48
    4  A    between atoms: C_7  and  C_10
    5  A    between atoms: C_7  and  O_44
    6  A    between atoms: C_8  and  C_41
    7  A    between atoms: N_11  and  C_40
    8  A    between atoms: C_13  and  C_39
    9  A    between atoms: C_14  and  N_45
   10  A    between atoms: C_19  and  C_23
   11  A    between atoms: C_23  and  C_26
   12  A    between atoms: C_23  and  O_27
   13  A    between atoms: C_24  and  O_27
   14  A    between atoms: O_25  and  N_49
   15  A    between atoms: C_26  and  O_28
   16  A    between atoms: N_30  and  C_39
   17  A    between atoms: N_30  and  C_40
   18  A    between atoms: C_31  and  N_48
   19  A    between atoms: C_32  and  C_43
   20  A    between atoms: C_32  and  O_44
                            x       y       z     vdW  Elec       q    Type
                         _______ _______ _______ _____ _____    ______ ____

>  <TORSDO>
F 20

$$$$
=
 OpenBabel11052412093D

 50 55  0  0  1  0  0  0  0  0999 V2000
  161.6550  207.6190  149.8640 C   0  0  0  0  0  0  0  0  0  0  0  0
  161.8430  206.6280  148.9920 C   0  0  0  0  0  3  0  0  0  0  0  0
  161.8460  208.9780  149.4460 N   0  0  0  0  0  2  0  0  0  0  0  0
  162.4290  209.9010  151.5200 O   0  0  0  0  0  0  0  0  0  0  0  0
  162.1490  210.0830  150.3060 C   0  0  0  0  0  0  0  0  0  0  0  0
  162.1300  211.4120  149.7830 N   0  0  0  0  0  2  0  0  0  0  0  0
  161.8560  211.6550  148.4760 O   0  0  0  0  0  0  0  0  0  0  0  0
  162.1240  213.0210  148.2870 C   0  0  1  0  0  0  0  0  0  0  0  0
  162.6680  213.2940  146.9600 N   0  0  0  0  0  2  0  0  0  0  0  0
  161.2680  213.5940  147.2740 C   0  0  2  0  0  0  0  0  0  0  0  0
  160.3190  214.4530  149.6170 O   0  0  0  0  0  0  0  0  0  0  0  0
  160.9870  213.9240  148.7440 C   0  0  0  0  0  0  0  0  0  0  0  0
  158.1490  212.5860  145.7180 C   0  0  0  0  0  2  0  0  0  0  0  0
  158.9630  213.0420  146.9080 C   0  0  0  0  0  2  0  0  0  0  0  0
  160.5100  212.5790  145.2520 C   0  0  0  0  0  2  0  0  0  0  0  0
  159.1550  212.3230  144.6250 C   0  0  2  0  0  3  0  0  0  0  0  0
  160.3400  212.5950  146.7040 N   0  0  1  0  0  0  0  0  0  0  0  0
  158.9410  213.2570  143.5140 C   0  0  0  0  0  0  0  0  0  0  0  0
  158.7680  213.9950  142.6380 N   0  0  0  0  0  0  0  0  0  0  0  0
  162.2920  206.8840  147.5920 C   0  0  0  0  0  2  0  0  0  0  0  0
  161.1820  207.0100  146.7560 O   0  0  0  0  0  0  0  0  0  0  0  0
  160.6760  205.7140  146.6420 C   0  0  0  0  0  2  0  0  0  0  0  0
  161.4410  203.5910  145.5070 C   0  0  1  0  0  3  0  0  0  0  0  0
  161.1540  205.0730  145.3430 C   0  0  2  0  0  3  0  0  0  0  0  0
  162.5150  205.6060  145.0070 C   0  0  0  0  0  2  0  0  0  0  0  0
  163.4750  204.5170  145.4550 C   0  0  0  0  0  2  0  0  0  0  0  0
  162.7420  203.4530  146.0090 O   0  0  0  0  0  0  0  0  0  0  0  0
  160.4830  202.9230  146.3840 N   0  0  0  0  0  2  0  0  0  0  0  0
  161.0970  203.2860  150.1030 C   0  0  1  0  0  3  0  0  0  0  0  0
  161.3870  201.3910  151.7060 C   0  0  0  0  0  1  0  0  0  0  0  0
  161.5430  201.0380  149.3530 O   0  0  0  0  0  0  0  0  0  0  0  0
  161.1420  202.6960  147.6640 C   0  0  2  0  0  3  0  0  0  0  0  0
  160.8800  201.2650  148.1330 C   0  0  0  0  0  2  0  0  0  0  0  0
  160.8680  201.7880  150.3360 C   0  0  2  0  0  3  0  0  0  0  0  0
  160.5930  203.6660  148.7100 C   0  0  0  0  0  2  0  0  0  0  0  0
  160.4150  204.0270  151.0500 F   0  0  0  0  0  0  0  0  0  0  0  0
  161.2120  207.3320  151.1940 N   0  0  0  0  0  2  0  0  0  0  0  0
  161.9430  206.4960  152.1360 C   0  0  0  0  0  2  0  0  0  0  0  0
  161.0730  207.6580  154.0630 N   0  0  0  0  0  0  0  0  0  0  0  0
  161.2660  206.5310  153.4600 C   0  0  0  0  0  3  0  0  0  0  0  0
  160.4150  207.6930  155.2710 O   0  0  0  0  0  0  0  0  0  0  0  0
  159.9700  208.9270  155.8180 C   0  0  0  0  0  2  0  0  0  0  0  0
  160.6930  210.0900  155.1560 C   0  0  2  0  0  3  0  0  0  0  0  0
  161.6200  210.7360  156.1360 C   0  0  0  0  0  0  0  0  0  0  0  0
  162.9690  210.3940  156.1560 O   0  0  0  0  0  0  0  0  0  0  0  0
  161.1860  211.6240  156.9200 O   0  0  0  0  0  1  0  0  0  0  0  0
  159.7650  211.0190  154.6810 O   0  0  0  0  0  0  0  0  0  0  0  0
  159.8420  212.2030  152.6230 C   0  0  0  0  0  2  0  0  0  0  0  0
  159.7590  210.8490  153.2950 C   0  0  0  0  0  3  0  0  0  0  0  0
  158.5140  211.4890  152.7160 C   0  0  0  0  0  2  0  0  0  0  0  0
  1 37  1  0  0  0  0
  2  1  2  0  0  0  0
  3  1  1  0  0  0  0
  3  5  1  0  0  0  0
  5  4  2  0  0  0  0
  6  5  1  0  0  0  0
  7  6  1  0  0  0  0
  8  7  1  1  0  0  0
  8 12  1  0  0  0  0
  9  8  1  0  0  0  0
 10  9  1  6  0  0  0
 10  8  1  0  0  0  0
 10 12  1  0  0  0  0
 12 11  2  0  0  0  0
 13 14  1  0  0  0  0
 16 18  1  6  0  0  0
 16 15  1  0  0  0  0
 16 13  1  0  0  0  0
 17 15  1  6  0  0  0
 17 14  1  0  0  0  0
 17 10  1  0  0  0  0
 19 18  3  0  0  0  0
 20  2  1  0  0  0  0
 21 20  1  0  0  0  0
 22 21  1  0  0  0  0
 23 27  1  0  0  0  0
 23 28  1  1  0  0  0
 24 23  1  0  0  0  0
 24 22  1  1  0  0  0
 25 24  1  0  0  0  0
 25 26  1  0  0  0  0
 26 27  1  0  0  0  0
 29 34  1  0  0  0  0
 29 36  1  1  0  0  0
 31 34  1  0  0  0  0
 32 28  1  6  0  0  0
 32 33  1  0  0  0  0
 32 35  1  0  0  0  0
 33 31  1  0  0  0  0
 34 30  1  1  0  0  0
 35 29  1  0  0  0  0
 37 38  1  0  0  0  0
 38 40  1  0  0  0  0
 39 41  1  0  0  0  0
 40 39  2  0  0  0  0
 41 42  1  0  0  0  0
 43 42  1  1  0  0  0
 43 44  1  0  0  0  0
 44 45  2  0  0  0  0
 44 46  1  0  0  0  0
 47 43  1  0  0  0  0
 48 50  1  0  0  0  0
 48 49  1  0  0  0  0
 49 47  1  0  0  0  0
 50 49  1  0  0  0  0
M  END
>  <MODEL>
3

>  <REMARK>
 VINA RESULT:      -5.8      2.405      3.276
  Name = 
  20 active torsions:
  status: ('A' for Active; 'I' for Inactive)
    1  A    between atoms: N_1  and  O_28
    2  A    between atoms: C_2  and  O_25
    3  A    between atoms: C_6  and  N_48
    4  A    between atoms: C_7  and  C_10
    5  A    between atoms: C_7  and  O_44
    6  A    between atoms: C_8  and  C_41
    7  A    between atoms: N_11  and  C_40
    8  A    between atoms: C_13  and  C_39
    9  A    between atoms: C_14  and  N_45
   10  A    between atoms: C_19  and  C_23
   11  A    between atoms: C_23  and  C_26
   12  A    between atoms: C_23  and  O_27
   13  A    between atoms: C_24  and  O_27
   14  A    between atoms: O_25  and  N_49
   15  A    between atoms: C_26  and  O_28
   16  A    between atoms: N_30  and  C_39
   17  A    between atoms: N_30  and  C_40
   18  A    between atoms: C_31  and  N_48
   19  A    between atoms: C_32  and  C_43
   20  A    between atoms: C_32  and  O_44
                            x       y       z     vdW  Elec       q    Type
                         _______ _______ _______ _____ _____    ______ ____

>  <TORSDO>
F 20

$$$$
=
 OpenBabel11052412093D

 50 55  0  0  1  0  0  0  0  0999 V2000
  161.9580  209.3610  149.5990 C   0  0  0  0  0  0  0  0  0  0  0  0
  162.0160  208.0560  149.3350 C   0  0  0  0  0  3  0  0  0  0  0  0
  161.6280  210.2830  148.5500 N   0  0  0  0  0  2  0  0  0  0  0  0
  163.3020  211.8750  148.9440 O   0  0  0  0  0  0  0  0  0  0  0  0
  162.2640  211.5440  148.3130 C   0  0  0  0  0  0  0  0  0  0  0  0
  161.7130  212.4440  147.3500 N   0  0  0  0  0  2  0  0  0  0  0  0
  160.6090  212.1220  146.6300 O   0  0  0  0  0  0  0  0  0  0  0  0
  160.0230  213.3490  146.2770 C   0  0  1  0  0  0  0  0  0  0  0  0
  160.9890  214.2650  145.6770 N   0  0  0  0  0  2  0  0  0  0  0  0
  160.0220  213.5440  144.8450 C   0  0  2  0  0  0  0  0  0  0  0  0
  157.5110  212.9250  145.5100 O   0  0  0  0  0  0  0  0  0  0  0  0
  158.7010  213.1930  145.5390 C   0  0  0  0  0  0  0  0  0  0  0  0
  160.7420  211.5900  141.8730 C   0  0  0  0  0  2  0  0  0  0  0  0
  159.8150  212.0610  142.9720 C   0  0  0  0  0  2  0  0  0  0  0  0
  161.9090  212.8460  143.5630 C   0  0  0  0  0  2  0  0  0  0  0  0
  162.1000  212.1370  142.2380 C   0  0  2  0  0  3  0  0  0  0  0  0
  160.6370  212.4050  144.1320 N   0  0  1  0  0  0  0  0  0  0  0  0
  162.5390  213.0990  141.2220 C   0  0  0  0  0  0  0  0  0  0  0  0
  162.8890  213.8600  140.4210 N   0  0  0  0  0  0  0  0  0  0  0  0
  161.7880  207.5170  147.9620 C   0  0  0  0  0  2  0  0  0  0  0  0
  162.7740  206.5810  147.6540 O   0  0  0  0  0  0  0  0  0  0  0  0
  162.4930  206.1900  146.3430 C   0  0  0  0  0  2  0  0  0  0  0  0
  160.8290  204.2930  146.2370 C   0  0  1  0  0  3  0  0  0  0  0  0
  161.0250  205.7990  146.2120 C   0  0  2  0  0  3  0  0  0  0  0  0
  160.5510  206.1380  144.8300 C   0  0  0  0  0  2  0  0  0  0  0  0
  160.5780  204.8180  144.0790 C   0  0  0  0  0  2  0  0  0  0  0  0
  161.0360  203.8050  144.9400 O   0  0  0  0  0  0  0  0  0  0  0  0
  161.7200  203.6220  147.1810 N   0  0  0  0  0  2  0  0  0  0  0  0
  160.6590  201.7720  150.3100 C   0  0  1  0  0  3  0  0  0  0  0  0
  160.4560  202.7870  152.5840 C   0  0  0  0  0  1  0  0  0  0  0  0
  160.6090  204.1600  150.6400 O   0  0  0  0  0  0  0  0  0  0  0  0
  160.9630  203.3720  148.4010 C   0  0  2  0  0  3  0  0  0  0  0  0
  161.3640  204.3830  149.4750 C   0  0  0  0  0  2  0  0  0  0  0  0
  161.0630  202.9510  151.2030 C   0  0  2  0  0  3  0  0  0  0  0  0
  161.2560  201.9630  148.9150 C   0  0  0  0  0  2  0  0  0  0  0  0
  161.1250  200.5850  150.8440 F   0  0  0  0  0  0  0  0  0  0  0  0
  162.1720  209.8370  150.9320 N   0  0  0  0  0  2  0  0  0  0  0  0
  161.2080  210.6320  151.6790 C   0  0  0  0  0  2  0  0  0  0  0  0
  161.1230  211.4450  153.9490 N   0  0  0  0  0  0  0  0  0  0  0  0
  161.4880  210.5100  153.1350 C   0  0  0  0  0  3  0  0  0  0  0  0
  161.3510  211.3170  155.3000 O   0  0  0  0  0  0  0  0  0  0  0  0
  161.4760  210.0330  155.8950 C   0  0  0  0  0  2  0  0  0  0  0  0
  160.1270  209.5590  156.4170 C   0  0  2  0  0  3  0  0  0  0  0  0
  160.1410  208.0720  156.5790 C   0  0  0  0  0  0  0  0  0  0  0  0
  159.1830  207.2880  155.9420 O   0  0  0  0  0  0  0  0  0  0  0  0
  161.0500  207.5220  157.2590 O   0  0  0  0  0  1  0  0  0  0  0  0
  159.1140  209.9420  155.5360 O   0  0  0  0  0  0  0  0  0  0  0  0
  156.9370  210.8920  155.5450 C   0  0  0  0  0  2  0  0  0  0  0  0
  158.2290  210.6960  156.3090 C   0  0  0  0  0  3  0  0  0  0  0  0
  157.9490  212.0120  155.6120 C   0  0  0  0  0  2  0  0  0  0  0  0
  1 37  1  0  0  0  0
  2  1  2  0  0  0  0
  3  1  1  0  0  0  0
  5  3  1  0  0  0  0
  5  4  2  0  0  0  0
  6  5  1  0  0  0  0
  7  6  1  0  0  0  0
  8  7  1  1  0  0  0
  9  8  1  0  0  0  0
 10 12  1  6  0  0  0
 10  9  1  0  0  0  0
 10  8  1  0  0  0  0
 11 12  2  0  0  0  0
 12  8  1  0  0  0  0
 13 16  1  0  0  0  0
 13 14  1  0  0  0  0
 15 17  1  0  0  0  0
 16 18  1  6  0  0  0
 16 15  1  0  0  0  0
 17 14  1  6  0  0  0
 17 10  1  0  0  0  0
 19 18  3  0  0  0  0
 20  2  1  0  0  0  0
 21 20  1  0  0  0  0
 22 21  1  0  0  0  0
 23 28  1  1  0  0  0
 24 23  1  0  0  0  0
 24 22  1  6  0  0  0
 25 24  1  0  0  0  0
 26 25  1  0  0  0  0
 26 27  1  0  0  0  0
 27 23  1  0  0  0  0
 29 36  1  1  0  0  0
 29 34  1  0  0  0  0
 31 34  1  0  0  0  0
 32 28  1  6  0  0  0
 32 35  1  0  0  0  0
 32 33  1  0  0  0  0
 33 31  1  0  0  0  0
 34 30  1  1  0  0  0
 35 29  1  0  0  0  0
 37 38  1  0  0  0  0
 38 40  1  0  0  0  0
 39 41  1  0  0  0  0
 40 39  2  0  0  0  0
 41 42  1  0  0  0  0
 43 42  1  6  0  0  0
 43 44  1  0  0  0  0
 44 46  1  0  0  0  0
 45 44  2  0  0  0  0
 47 49  1  0  0  0  0
 47 43  1  0  0  0  0
 48 50  1  0  0  0  0
 48 49  1  0  0  0  0
 50 49  1  0  0  0  0
M  END
>  <MODEL>
4

>  <REMARK>
 VINA RESULT:      -5.8      1.437      2.145
  Name = 
  20 active torsions:
  status: ('A' for Active; 'I' for Inactive)
    1  A    between atoms: N_1  and  O_28
    2  A    between atoms: C_2  and  O_25
    3  A    between atoms: C_6  and  N_48
    4  A    between atoms: C_7  and  C_10
    5  A    between atoms: C_7  and  O_44
    6  A    between atoms: C_8  and  C_41
    7  A    between atoms: N_11  and  C_40
    8  A    between atoms: C_13  and  C_39
    9  A    between atoms: C_14  and  N_45
   10  A    between atoms: C_19  and  C_23
   11  A    between atoms: C_23  and  C_26
   12  A    between atoms: C_23  and  O_27
   13  A    between atoms: C_24  and  O_27
   14  A    between atoms: O_25  and  N_49
   15  A    between atoms: C_26  and  O_28
   16  A    between atoms: N_30  and  C_39
   17  A    between atoms: N_30  and  C_40
   18  A    between atoms: C_31  and  N_48
   19  A    between atoms: C_32  and  C_43
   20  A    between atoms: C_32  and  O_44
                            x       y       z     vdW  Elec       q    Type
                         _______ _______ _______ _____ _____    ______ ____

>  <TORSDO>
F 20

$$$$
=
 OpenBabel11052412093D

 50 55  0  0  1  0  0  0  0  0999 V2000
  161.2010  208.0410  150.4770 C   0  0  0  0  0  0  0  0  0  0  0  0
  161.7250  209.2660  150.4290 C   0  0  0  0  0  3  0  0  0  0  0  0
  161.0420  207.2910  149.2640 N   0  0  0  0  0  2  0  0  0  0  0  0
  161.1500  205.1330  150.1740 O   0  0  0  0  0  0  0  0  0  0  0  0
  161.1020  205.8640  149.1490 C   0  0  0  0  0  0  0  0  0  0  0  0
  161.1120  205.2580  147.8560 N   0  0  0  0  0  2  0  0  0  0  0  0
  161.0390  206.0040  146.7240 O   0  0  0  0  0  0  0  0  0  0  0  0
  162.1960  205.6860  145.9940 C   0  0  1  0  0  0  0  0  0  0  0  0
  163.0270  204.7040  146.6840 N   0  0  0  0  0  2  0  0  0  0  0  0
  162.1830  204.3100  145.5530 C   0  0  2  0  0  0  0  0  0  0  0  0
  161.6360  205.7830  143.3940 O   0  0  0  0  0  0  0  0  0  0  0  0
  161.9200  205.4120  144.5220 C   0  0  0  0  0  0  0  0  0  0  0  0
  159.6100  201.7750  145.2030 C   0  0  0  0  0  2  0  0  0  0  0  0
  160.2590  203.0850  144.8130 C   0  0  0  0  0  2  0  0  0  0  0  0
  161.3560  202.4080  146.7330 C   0  0  0  0  0  2  0  0  0  0  0  0
  160.3530  201.3140  146.4310 C   0  0  2  0  0  3  0  0  0  0  0  0
  160.9610  203.6010  145.9870 N   0  0  1  0  0  0  0  0  0  0  0  0
  161.0600  200.0610  146.1460 C   0  0  0  0  0  0  0  0  0  0  0  0
  161.6160  199.0700  145.9210 N   0  0  0  0  0  0  0  0  0  0  0  0
  162.1180  209.9070  149.1400 C   0  0  0  0  0  2  0  0  0  0  0  0
  162.2960  211.2770  149.3310 O   0  0  0  0  0  0  0  0  0  0  0  0
  162.3270  211.8120  148.0420 C   0  0  0  0  0  2  0  0  0  0  0  0
  160.9220  213.1650  146.4370 C   0  0  1  0  0  3  0  0  0  0  0  0
  160.9170  212.1680  147.5830 C   0  0  2  0  0  3  0  0  0  0  0  0
  160.2360  212.9570  148.6620 C   0  0  0  0  0  2  0  0  0  0  0  0
  160.3420  214.4020  148.2060 C   0  0  0  0  0  2  0  0  0  0  0  0
  161.0280  214.4520  146.9800 O   0  0  0  0  0  0  0  0  0  0  0  0
  162.0010  212.9240  145.4820 N   0  0  0  0  0  2  0  0  0  0  0  0
  161.7870  212.4610  141.7300 C   0  0  1  0  0  3  0  0  0  0  0  0
  159.7720  211.6530  140.4920 C   0  0  0  0  0  1  0  0  0  0  0  0
  159.6030  212.3980  142.7500 O   0  0  0  0  0  0  0  0  0  0  0  0
  161.4430  213.0600  144.1430 C   0  0  2  0  0  3  0  0  0  0  0  0
  160.1570  212.2400  144.0340 C   0  0  0  0  0  2  0  0  0  0  0  0
  160.4480  211.7220  141.8490 C   0  0  2  0  0  3  0  0  0  0  0  0
  162.4440  212.5470  143.1090 C   0  0  0  0  0  2  0  0  0  0  0  0
  162.6300  211.7880  140.8660 F   0  0  0  0  0  0  0  0  0  0  0  0
  160.8490  207.4570  151.7350 N   0  0  0  0  0  2  0  0  0  0  0  0
  161.7110  207.4650  152.9080 C   0  0  0  0  0  2  0  0  0  0  0  0
  160.7210  209.2370  154.2110 N   0  0  0  0  0  0  0  0  0  0  0  0
  160.9480  207.9720  154.0800 C   0  0  0  0  0  3  0  0  0  0  0  0
  159.9850  209.7030  155.2770 O   0  0  0  0  0  0  0  0  0  0  0  0
  159.4510  211.0190  155.2690 C   0  0  0  0  0  2  0  0  0  0  0  0
  158.7370  211.2910  153.9530 C   0  0  2  0  0  3  0  0  0  0  0  0
  159.4120  212.4150  153.2330 C   0  0  0  0  0  0  0  0  0  0  0  0
  159.1950  213.7320  153.6280 O   0  0  0  0  0  1  0  0  0  0  0  0
  160.2140  212.1670  152.2910 O   0  0  0  0  0  0  0  0  0  0  0  0
  157.3970  211.6040  154.1940 O   0  0  0  0  0  0  0  0  0  0  0  0
  155.8950  211.2110  155.9910 C   0  0  0  0  0  2  0  0  0  0  0  0
  157.2830  211.6560  155.5850 C   0  0  0  0  0  3  0  0  0  0  0  0
  156.2350  212.6830  155.9640 C   0  0  0  0  0  2  0  0  0  0  0  0
  1 37  1  0  0  0  0
  2  1  2  0  0  0  0
  3  1  1  0  0  0  0
  5  3  1  0  0  0  0
  5  4  2  0  0  0  0
  6  5  1  0  0  0  0
  7  6  1  0  0  0  0
  8  9  1  0  0  0  0
  8  7  1  1  0  0  0
 10 12  1  6  0  0  0
 10 17  1  0  0  0  0
 10  8  1  0  0  0  0
 10  9  1  0  0  0  0
 11 12  2  0  0  0  0
 12  8  1  0  0  0  0
 13 16  1  0  0  0  0
 14 13  1  0  0  0  0
 16 18  1  6  0  0  0
 16 15  1  0  0  0  0
 17 14  1  6  0  0  0
 17 15  1  0  0  0  0
 19 18  3  0  0  0  0
 20 21  1  0  0  0  0
 20  2  1  0  0  0  0
 22 21  1  0  0  0  0
 23 28  1  6  0  0  0
 23 27  1  0  0  0  0
 23 24  1  0  0  0  0
 24 22  1  1  0  0  0
 24 25  1  0  0  0  0
 26 25  1  0  0  0  0
 27 26  1  0  0  0  0
 29 36  1  6  0  0  0
 29 34  1  0  0  0  0
 29 35  1  0  0  0  0
 31 33  1  0  0  0  0
 32 28  1  1  0  0  0
 33 32  1  0  0  0  0
 34 30  1  6  0  0  0
 34 31  1  0  0  0  0
 35 32  1  0  0  0  0
 37 38  1  0  0  0  0
 38 40  1  0  0  0  0
 39 41  1  0  0  0  0
 40 39  2  0  0  0  0
 42 41  1  0  0  0  0
 43 47  1  0  0  0  0
 43 42  1  1  0  0  0
 44 45  1  0  0  0  0
 44 43  1  0  0  0  0
 46 44  2  0  0  0  0
 47 49  1  0  0  0  0
 49 50  1  0  0  0  0
 49 48  1  0  0  0  0
 50 48  1  0  0  0  0
M  END
>  <MODEL>
5

>  <REMARK>
 VINA RESULT:      -5.7      2.959      8.396
  Name = 
  20 active torsions:
  status: ('A' for Active; 'I' for Inactive)
    1  A    between atoms: N_1  and  O_28
    2  A    between atoms: C_2  and  O_25
    3  A    between atoms: C_6  and  N_48
    4  A    between atoms: C_7  and  C_10
    5  A    between atoms: C_7  and  O_44
    6  A    between atoms: C_8  and  C_41
    7  A    between atoms: N_11  and  C_40
    8  A    between atoms: C_13  and  C_39
    9  A    between atoms: C_14  and  N_45
   10  A    between atoms: C_19  and  C_23
   11  A    between atoms: C_23  and  C_26
   12  A    between atoms: C_23  and  O_27
   13  A    between atoms: C_24  and  O_27
   14  A    between atoms: O_25  and  N_49
   15  A    between atoms: C_26  and  O_28
   16  A    between atoms: N_30  and  C_39
   17  A    between atoms: N_30  and  C_40
   18  A    between atoms: C_31  and  N_48
   19  A    between atoms: C_32  and  C_43
   20  A    between atoms: C_32  and  O_44
                            x       y       z     vdW  Elec       q    Type
                         _______ _______ _______ _____ _____    ______ ____

>  <TORSDO>
F 20

$$$$
=
 OpenBabel11052412093D

 50 55  0  0  1  0  0  0  0  0999 V2000
  161.4190  212.9410  148.6450 C   0  0  0  0  0  0  0  0  0  0  0  0
  162.1050  211.8100  148.4780 C   0  0  0  0  0  3  0  0  0  0  0  0
  160.6030  213.1090  149.8130 N   0  0  0  0  0  2  0  0  0  0  0  0
  158.6850  213.9700  148.7770 O   0  0  0  0  0  0  0  0  0  0  0  0
  159.2950  213.6920  149.8430 C   0  0  0  0  0  0  0  0  0  0  0  0
  158.6720  213.9670  151.0990 N   0  0  0  0  0  2  0  0  0  0  0  0
  159.2810  213.6650  152.2730 O   0  0  0  0  0  0  0  0  0  0  0  0
  158.2710  213.1310  153.0900 C   0  0  1  0  0  0  0  0  0  0  0  0
  157.9030  211.7750  152.6910 N   0  0  0  0  0  2  0  0  0  0  0  0
  158.7520  212.0090  153.8640 C   0  0  2  0  0  0  0  0  0  0  0  0
  158.5740  214.0590  155.5650 O   0  0  0  0  0  0  0  0  0  0  0  0
  158.5240  213.3470  154.5760 C   0  0  0  0  0  0  0  0  0  0  0  0
  161.9000  210.3290  154.5240 C   0  0  0  0  0  2  0  0  0  0  0  0
  160.8440  211.3650  154.8420 C   0  0  0  0  0  2  0  0  0  0  0  0
  160.2540  210.5070  152.7770 C   0  0  0  0  0  2  0  0  0  0  0  0
  161.4910  209.7410  153.1960 C   0  0  2  0  0  3  0  0  0  0  0  0
  160.1740  211.7180  153.5910 N   0  0  1  0  0  0  0  0  0  0  0  0
  161.1620  208.3210  153.3600 C   0  0  0  0  0  0  0  0  0  0  0  0
  160.9020  207.2000  153.4930 N   0  0  0  0  0  0  0  0  0  0  0  0
  162.0190  210.6830  149.4520 C   0  0  0  0  0  2  0  0  0  0  0  0
  162.5320  209.5220  148.8760 O   0  0  0  0  0  0  0  0  0  0  0  0
  161.9430  208.4800  149.5950 C   0  0  0  0  0  2  0  0  0  0  0  0
  161.1400  206.1660  148.9790 C   0  0  1  0  0  3  0  0  0  0  0  0
  161.0430  207.6520  148.6830 C   0  0  2  0  0  3  0  0  0  0  0  0
  161.5780  207.7130  147.2830 C   0  0  0  0  0  2  0  0  0  0  0  0
  162.3280  206.4040  147.1010 C   0  0  0  0  0  2  0  0  0  0  0  0
  162.2460  205.6550  148.2880 O   0  0  0  0  0  0  0  0  0  0  0  0
  161.2550  205.8800  150.4070 N   0  0  0  0  0  2  0  0  0  0  0  0
  160.1290  202.3770  149.5080 C   0  0  1  0  0  3  0  0  0  0  0  0
  160.8640  200.2880  150.6650 C   0  0  0  0  0  1  0  0  0  0  0  0
  161.2220  202.4260  151.6570 O   0  0  0  0  0  0  0  0  0  0  0  0
  160.7280  204.5400  150.6320 C   0  0  2  0  0  3  0  0  0  0  0  0
  161.7460  203.7090  151.4120 C   0  0  0  0  0  2  0  0  0  0  0  0
  161.1890  201.7510  150.4220 C   0  0  2  0  0  3  0  0  0  0  0  0
  160.4550  203.8560  149.2940 C   0  0  0  0  0  2  0  0  0  0  0  0
  160.1100  201.7340  148.2850 F   0  0  0  0  0  0  0  0  0  0  0  0
  161.5380  214.0030  147.6930 N   0  0  0  0  0  2  0  0  0  0  0  0
  162.7290  214.2520  146.8930 C   0  0  0  0  0  2  0  0  0  0  0  0
  162.6070  213.3170  144.6730 N   0  0  0  0  0  0  0  0  0  0  0  0
  162.3550  214.3150  145.4540 C   0  0  0  0  0  3  0  0  0  0  0  0
  162.2300  213.3610  143.3490 O   0  0  0  0  0  0  0  0  0  0  0  0
  162.3280  212.2060  142.5290 C   0  0  0  0  0  2  0  0  0  0  0  0
  161.0600  212.0320  141.7060 C   0  0  2  0  0  3  0  0  0  0  0  0
  159.8670  212.4020  142.5280 C   0  0  0  0  0  0  0  0  0  0  0  0
  158.9360  213.3160  142.0420 O   0  0  0  0  0  0  0  0  0  0  0  0
  159.6800  211.8510  143.6480 O   0  0  0  0  0  1  0  0  0  0  0  0
  160.9560  210.7110  141.2650 O   0  0  0  0  0  0  0  0  0  0  0  0
  160.0510  210.9800  139.0860 C   0  0  0  0  0  2  0  0  0  0  0  0
  161.2990  210.7530  139.9120 C   0  0  0  0  0  3  0  0  0  0  0  0
  160.6420  209.5930  139.1920 C   0  0  0  0  0  2  0  0  0  0  0  0
  1  3  1  0  0  0  0
  2  1  2  0  0  0  0
  2 20  1  0  0  0  0
  3  5  1  0  0  0  0
  4  5  2  0  0  0  0
  5  6  1  0  0  0  0
  6  7  1  0  0  0  0
  8  7  1  6  0  0  0
  8 10  1  0  0  0  0
  8 12  1  0  0  0  0
  9  8  1  0  0  0  0
 10  9  1  1  0  0  0
 10 12  1  0  0  0  0
 12 11  2  0  0  0  0
 13 14  1  0  0  0  0
 15 16  1  0  0  0  0
 16 18  1  1  0  0  0
 16 13  1  0  0  0  0
 17 15  1  6  0  0  0
 17 10  1  0  0  0  0
 17 14  1  0  0  0  0
 18 19  3  0  0  0  0
 21 20  1  0  0  0  0
 21 22  1  0  0  0  0
 23 28  1  1  0  0  0
 24 23  1  0  0  0  0
 24 22  1  1  0  0  0
 25 24  1  0  0  0  0
 26 25  1  0  0  0  0
 26 27  1  0  0  0  0
 27 23  1  0  0  0  0
 29 36  1  6  0  0  0
 29 34  1  0  0  0  0
 32 28  1  6  0  0  0
 32 33  1  0  0  0  0
 33 31  1  0  0  0  0
 34 30  1  1  0  0  0
 34 31  1  0  0  0  0
 35 29  1  0  0  0  0
 35 32  1  0  0  0  0
 37  1  1  0  0  0  0
 38 37  1  0  0  0  0
 39 40  2  0  0  0  0
 40 38  1  0  0  0  0
 41 39  1  0  0  0  0
 42 41  1  0  0  0  0
 43 44  1  0  0  0  0
 43 42  1  1  0  0  0
 44 46  1  0  0  0  0
 45 44  2  0  0  0  0
 47 43  1  0  0  0  0
 48 50  1  0  0  0  0
 48 49  1  0  0  0  0
 49 47  1  0  0  0  0
 50 49  1  0  0  0  0
M  END
>  <MODEL>
6

>  <REMARK>
 VINA RESULT:      -5.2      2.268      8.672
  Name = 
  20 active torsions:
  status: ('A' for Active; 'I' for Inactive)
    1  A    between atoms: N_1  and  O_28
    2  A    between atoms: C_2  and  O_25
    3  A    between atoms: C_6  and  N_48
    4  A    between atoms: C_7  and  C_10
    5  A    between atoms: C_7  and  O_44
    6  A    between atoms: C_8  and  C_41
    7  A    between atoms: N_11  and  C_40
    8  A    between atoms: C_13  and  C_39
    9  A    between atoms: C_14  and  N_45
   10  A    between atoms: C_19  and  C_23
   11  A    between atoms: C_23  and  C_26
   12  A    between atoms: C_23  and  O_27
   13  A    between atoms: C_24  and  O_27
   14  A    between atoms: O_25  and  N_49
   15  A    between atoms: C_26  and  O_28
   16  A    between atoms: N_30  and  C_39
   17  A    between atoms: N_30  and  C_40
   18  A    between atoms: C_31  and  N_48
   19  A    between atoms: C_32  and  C_43
   20  A    between atoms: C_32  and  O_44
                            x       y       z     vdW  Elec       q    Type
                         _______ _______ _______ _____ _____    ______ ____

>  <TORSDO>
F 20

$$$$
=
 OpenBabel11052412093D

 50 55  0  0  1  0  0  0  0  0999 V2000
  160.2590  213.0960  149.6910 C   0  0  0  0  0  0  0  0  0  0  0  0
  161.2040  212.1880  149.4440 C   0  0  0  0  0  3  0  0  0  0  0  0
  159.7330  213.2260  151.0190 N   0  0  0  0  0  2  0  0  0  0  0  0
  157.4490  213.2100  150.4920 O   0  0  0  0  0  0  0  0  0  0  0  0
  158.3480  213.3580  151.3610 C   0  0  0  0  0  0  0  0  0  0  0  0
  157.9770  213.6670  152.7060 N   0  0  0  0  0  2  0  0  0  0  0  0
  158.9100  213.8140  153.6810 O   0  0  0  0  0  0  0  0  0  0  0  0
  158.2260  213.5840  154.8870 C   0  0  1  0  0  0  0  0  0  0  0  0
  157.4230  212.3660  154.8380 N   0  0  0  0  0  2  0  0  0  0  0  0
  158.7050  212.3920  155.5490 C   0  0  2  0  0  0  0  0  0  0  0  0
  159.7200  214.4510  156.9110 O   0  0  0  0  0  0  0  0  0  0  0  0
  159.1060  213.7570  156.1170 C   0  0  0  0  0  0  0  0  0  0  0  0
  161.6760  210.3290  155.2590 C   0  0  0  0  0  2  0  0  0  0  0  0
  160.9730  211.6180  155.6240 C   0  0  0  0  0  2  0  0  0  0  0  0
  159.3840  210.3470  154.5240 C   0  0  0  0  0  2  0  0  0  0  0  0
  160.6280  209.4840  154.5780 C   0  0  2  0  0  3  0  0  0  0  0  0
  159.7820  211.7290  154.7840 N   0  0  1  0  0  0  0  0  0  0  0  0
  160.3610  208.2830  155.3760 C   0  0  0  0  0  0  0  0  0  0  0  0
  160.1530  207.3310  156.0030 N   0  0  0  0  0  0  0  0  0  0  0  0
  161.7080  211.2640  150.5010 C   0  0  0  0  0  2  0  0  0  0  0  0
  162.6650  210.4060  149.9610 O   0  0  0  0  0  0  0  0  0  0  0  0
  161.9390  209.3000  149.5160 C   0  0  0  0  0  2  0  0  0  0  0  0
  161.6270  206.8110  149.8120 C   0  0  1  0  0  3  0  0  0  0  0  0
  162.4710  208.0250  150.1610 C   0  0  2  0  0  3  0  0  0  0  0  0
  162.2740  208.1090  151.6450 C   0  0  0  0  0  2  0  0  0  0  0  0
  161.0320  207.2770  151.9160 C   0  0  0  0  0  2  0  0  0  0  0  0
  160.5440  206.7640  150.7010 O   0  0  0  0  0  0  0  0  0  0  0  0
  161.1510  206.8310  148.4310 N   0  0  0  0  0  2  0  0  0  0  0  0
  161.2310  203.5260  146.5840 C   0  0  1  0  0  3  0  0  0  0  0  0
  161.2490  201.2730  147.6650 C   0  0  0  0  0  1  0  0  0  0  0  0
  160.6650  203.2220  148.9080 O   0  0  0  0  0  0  0  0  0  0  0  0
  160.7400  205.4760  148.0860 C   0  0  2  0  0  3  0  0  0  0  0  0
  161.0910  204.5240  149.2300 C   0  0  0  0  0  2  0  0  0  0  0  0
  161.5050  202.7540  147.8800 C   0  0  2  0  0  3  0  0  0  0  0  0
  161.4670  205.0180  146.8230 C   0  0  0  0  0  2  0  0  0  0  0  0
  162.0710  203.0880  145.5780 F   0  0  0  0  0  0  0  0  0  0  0  0
  159.8120  213.9710  148.6510 N   0  0  0  0  0  2  0  0  0  0  0  0
  159.1410  213.5230  147.4390 C   0  0  0  0  0  2  0  0  0  0  0  0
  159.9140  212.9220  145.2350 N   0  0  0  0  0  0  0  0  0  0  0  0
  160.1410  212.9370  146.5070 C   0  0  0  0  0  3  0  0  0  0  0  0
  160.8550  212.4110  144.3690 O   0  0  0  0  0  0  0  0  0  0  0  0
  160.6840  212.5280  142.9640 C   0  0  0  0  0  2  0  0  0  0  0  0
  161.9910  212.2230  142.2460 C   0  0  2  0  0  3  0  0  0  0  0  0
  162.7120  213.4970  141.9420 C   0  0  0  0  0  0  0  0  0  0  0  0
  163.3410  214.2070  142.9610 O   0  0  0  0  0  1  0  0  0  0  0  0
  162.7880  213.9090  140.7510 O   0  0  0  0  0  0  0  0  0  0  0  0
  161.7330  211.5180  141.0680 O   0  0  0  0  0  0  0  0  0  0  0  0
  159.9260  210.7370  139.7390 C   0  0  0  0  0  2  0  0  0  0  0  0
  160.3620  211.6680  140.8500 C   0  0  0  0  0  3  0  0  0  0  0  0
  160.1320  212.2060  139.4520 C   0  0  0  0  0  2  0  0  0  0  0  0
  1  3  1  0  0  0  0
  2  1  2  0  0  0  0
  2 20  1  0  0  0  0
  3  5  1  0  0  0  0
  4  5  2  0  0  0  0
  5  6  1  0  0  0  0
  6  7  1  0  0  0  0
  8  7  1  6  0  0  0
  8 10  1  0  0  0  0
  8 12  1  0  0  0  0
  9  8  1  0  0  0  0
 10  9  1  1  0  0  0
 10 12  1  0  0  0  0
 12 11  2  0  0  0  0
 13 14  1  0  0  0  0
 15 16  1  0  0  0  0
 16 13  1  0  0  0  0
 16 18  1  1  0  0  0
 17 15  1  1  0  0  0
 17 10  1  0  0  0  0
 17 14  1  0  0  0  0
 18 19  3  0  0  0  0
 21 20  1  0  0  0  0
 22 21  1  0  0  0  0
 23 28  1  6  0  0  0
 23 24  1  0  0  0  0
 23 27  1  0  0  0  0
 24 22  1  6  0  0  0
 24 25  1  0  0  0  0
 25 26  1  0  0  0  0
 27 26  1  0  0  0  0
 29 36  1  6  0  0  0
 29 35  1  0  0  0  0
 29 34  1  0  0  0  0
 31 33  1  0  0  0  0
 32 28  1  1  0  0  0
 32 33  1  0  0  0  0
 34 30  1  6  0  0  0
 34 31  1  0  0  0  0
 35 32  1  0  0  0  0
 37  1  1  0  0  0  0
 38 37  1  0  0  0  0
 39 40  2  0  0  0  0
 40 38  1  0  0  0  0
 41 39  1  0  0  0  0
 42 41  1  0  0  0  0
 43 42  1  6  0  0  0
 44 43  1  0  0  0  0
 44 45  1  0  0  0  0
 46 44  2  0  0  0  0
 47 43  1  0  0  0  0
 48 49  1  0  0  0  0
 49 47  1  0  0  0  0
 50 48  1  0  0  0  0
 50 49  1  0  0  0  0
M  END
>  <MODEL>
7

>  <REMARK>
 VINA RESULT:      -5.1      2.636      9.522
  Name = 
  20 active torsions:
  status: ('A' for Active; 'I' for Inactive)
    1  A    between atoms: N_1  and  O_28
    2  A    between atoms: C_2  and  O_25
    3  A    between atoms: C_6  and  N_48
    4  A    between atoms: C_7  and  C_10
    5  A    between atoms: C_7  and  O_44
    6  A    between atoms: C_8  and  C_41
    7  A    between atoms: N_11  and  C_40
    8  A    between atoms: C_13  and  C_39
    9  A    between atoms: C_14  and  N_45
   10  A    between atoms: C_19  and  C_23
   11  A    between atoms: C_23  and  C_26
   12  A    between atoms: C_23  and  O_27
   13  A    between atoms: C_24  and  O_27
   14  A    between atoms: O_25  and  N_49
   15  A    between atoms: C_26  and  O_28
   16  A    between atoms: N_30  and  C_39
   17  A    between atoms: N_30  and  C_40
   18  A    between atoms: C_31  and  N_48
   19  A    between atoms: C_32  and  C_43
   20  A    between atoms: C_32  and  O_44
                            x       y       z     vdW  Elec       q    Type
                         _______ _______ _______ _____ _____    ______ ____

>  <TORSDO>
F 20

$$$$
=
 OpenBabel11052412093D

 50 55  0  0  1  0  0  0  0  0999 V2000
  160.9650  206.5900  147.9720 C   0  0  0  0  0  0  0  0  0  0  0  0
  161.2110  205.7940  149.0120 C   0  0  0  0  0  3  0  0  0  0  0  0
  161.1860  208.0020  148.0920 N   0  0  0  0  0  2  0  0  0  0  0  0
  163.5210  207.9730  148.3050 O   0  0  0  0  0  0  0  0  0  0  0  0
  162.4490  208.6340  148.3330 C   0  0  0  0  0  0  0  0  0  0  0  0
  162.4970  210.0330  148.6160 N   0  0  0  0  0  2  0  0  0  0  0  0
  161.3720  210.7910  148.6360 O   0  0  0  0  0  0  0  0  0  0  0  0
  161.8190  212.1210  148.6920 C   0  0  1  0  0  0  0  0  0  0  0  0
  162.3640  212.5710  147.4140 N   0  0  0  0  0  2  0  0  0  0  0  0
  161.0260  212.9840  147.8470 C   0  0  2  0  0  0  0  0  0  0  0  0
  160.2570  213.4940  150.3520 O   0  0  0  0  0  0  0  0  0  0  0  0
  160.8270  213.0600  149.3650 C   0  0  0  0  0  0  0  0  0  0  0  0
  157.9230  212.7630  145.9780 C   0  0  0  0  0  2  0  0  0  0  0  0
  158.7020  212.9820  147.2570 C   0  0  0  0  0  2  0  0  0  0  0  0
  160.2570  212.2350  145.7160 C   0  0  0  0  0  2  0  0  0  0  0  0
  158.9450  212.3150  144.9630 C   0  0  2  0  0  3  0  0  0  0  0  0
  159.9580  212.2410  147.1470 N   0  0  1  0  0  0  0  0  0  0  0  0
  159.0510  213.3100  143.8900 C   0  0  0  0  0  0  0  0  0  0  0  0
  159.1340  214.0920  143.0400 N   0  0  0  0  0  0  0  0  0  0  0  0
  161.6740  206.3310  150.3260 C   0  0  0  0  0  2  0  0  0  0  0  0
  160.6880  207.1500  150.8730 O   0  0  0  0  0  0  0  0  0  0  0  0
  161.3340  207.8470  151.8960 C   0  0  0  0  0  2  0  0  0  0  0  0
  160.6770  209.2980  153.8570 C   0  0  1  0  0  3  0  0  0  0  0  0
  160.4030  208.0140  153.0920 C   0  0  2  0  0  3  0  0  0  0  0  0
  160.7380  206.9760  154.1210 C   0  0  0  0  0  2  0  0  0  0  0  0
  161.5770  207.7130  155.1510 C   0  0  0  0  0  2  0  0  0  0  0  0
  161.7250  209.0530  154.7550 O   0  0  0  0  0  0  0  0  0  0  0  0
  161.0090  210.4180  152.9810 N   0  0  0  0  0  2  0  0  0  0  0  0
  157.8720  212.3490  153.8600 C   0  0  1  0  0  3  0  0  0  0  0  0
  157.5370  213.6750  155.9510 C   0  0  0  0  0  1  0  0  0  0  0  0
  159.7140  212.9660  155.2880 O   0  0  0  0  0  0  0  0  0  0  0  0
  160.2110  211.5610  153.4060 C   0  0  2  0  0  3  0  0  0  0  0  0
  160.4610  211.8420  154.8880 C   0  0  0  0  0  2  0  0  0  0  0  0
  158.3590  212.5810  155.2950 C   0  0  2  0  0  3  0  0  0  0  0  0
  158.7260  211.2630  153.2040 C   0  0  0  0  0  2  0  0  0  0  0  0
  156.5490  211.9460  153.8630 F   0  0  0  0  0  0  0  0  0  0  0  0
  160.5340  206.0330  146.7260 N   0  0  0  0  0  2  0  0  0  0  0  0
  161.4240  205.4020  145.7620 C   0  0  0  0  0  2  0  0  0  0  0  0
  161.8890  205.8370  143.4360 N   0  0  0  0  0  0  0  0  0  0  0  0
  161.0130  205.7820  144.3840 C   0  0  0  0  0  3  0  0  0  0  0  0
  161.5040  206.1540  142.1530 O   0  0  0  0  0  0  0  0  0  0  0  0
  162.4700  206.4950  141.1700 C   0  0  0  0  0  2  0  0  0  0  0  0
  161.9090  207.5400  140.2170 C   0  0  2  0  0  3  0  0  0  0  0  0
  161.9480  207.0210  138.8150 C   0  0  0  0  0  0  0  0  0  0  0  0
  161.2160  207.6520  137.8120 O   0  0  0  0  0  0  0  0  0  0  0  0
  162.6800  206.0330  138.5300 O   0  0  0  0  0  1  0  0  0  0  0  0
  162.6470  208.7210  140.3180 O   0  0  0  0  0  0  0  0  0  0  0  0
  162.2860  210.8200  139.2660 C   0  0  0  0  0  2  0  0  0  0  0  0
  161.7120  209.7470  140.1650 C   0  0  0  0  0  3  0  0  0  0  0  0
  162.2650  211.0240  140.7630 C   0  0  0  0  0  2  0  0  0  0  0  0
  1  3  1  0  0  0  0
  1  2  2  0  0  0  0
  2 20  1  0  0  0  0
  3  5  1  0  0  0  0
  4  5  2  0  0  0  0
  5  6  1  0  0  0  0
  6  7  1  0  0  0  0
  8  7  1  6  0  0  0
  8 12  1  0  0  0  0
  9  8  1  0  0  0  0
 10  9  1  6  0  0  0
 10  8  1  0  0  0  0
 10 12  1  0  0  0  0
 12 11  2  0  0  0  0
 13 14  1  0  0  0  0
 16 18  1  6  0  0  0
 16 15  1  0  0  0  0
 16 13  1  0  0  0  0
 17 15  1  6  0  0  0
 17 14  1  0  0  0  0
 17 10  1  0  0  0  0
 19 18  3  0  0  0  0
 20 21  1  0  0  0  0
 21 22  1  0  0  0  0
 23 28  1  6  0  0  0
 23 27  1  0  0  0  0
 24 22  1  6  0  0  0
 24 23  1  0  0  0  0
 24 25  1  0  0  0  0
 25 26  1  0  0  0  0
 27 26  1  0  0  0  0
 29 36  1  1  0  0  0
 29 34  1  0  0  0  0
 31 34  1  0  0  0  0
 32 28  1  1  0  0  0
 32 33  1  0  0  0  0
 33 31  1  0  0  0  0
 34 30  1  6  0  0  0
 35 32  1  0  0  0  0
 35 29  1  0  0  0  0
 37  1  1  0  0  0  0
 38 37  1  0  0  0  0
 39 40  2  0  0  0  0
 40 38  1  0  0  0  0
 41 39  1  0  0  0  0
 42 41  1  0  0  0  0
 43 47  1  0  0  0  0
 43 42  1  1  0  0  0
 44 43  1  0  0  0  0
 45 44  2  0  0  0  0
 46 44  1  0  0  0  0
 48 49  1  0  0  0  0
 48 50  1  0  0  0  0
 49 47  1  0  0  0  0
 49 50  1  0  0  0  0
M  END
>  <MODEL>
8

>  <REMARK>
 VINA RESULT:      -5.0      3.381      9.660
  Name = 
  20 active torsions:
  status: ('A' for Active; 'I' for Inactive)
    1  A    between atoms: N_1  and  O_28
    2  A    between atoms: C_2  and  O_25
    3  A    between atoms: C_6  and  N_48
    4  A    between atoms: C_7  and  C_10
    5  A    between atoms: C_7  and  O_44
    6  A    between atoms: C_8  and  C_41
    7  A    between atoms: N_11  and  C_40
    8  A    between atoms: C_13  and  C_39
    9  A    between atoms: C_14  and  N_45
   10  A    between atoms: C_19  and  C_23
   11  A    between atoms: C_23  and  C_26
   12  A    between atoms: C_23  and  O_27
   13  A    between atoms: C_24  and  O_27
   14  A    between atoms: O_25  and  N_49
   15  A    between atoms: C_26  and  O_28
   16  A    between atoms: N_30  and  C_39
   17  A    between atoms: N_30  and  C_40
   18  A    between atoms: C_31  and  N_48
   19  A    between atoms: C_32  and  C_43
   20  A    between atoms: C_32  and  O_44
                            x       y       z     vdW  Elec       q    Type
                         _______ _______ _______ _____ _____    ______ ____

>  <TORSDO>
F 20

$$$$
=
 OpenBabel11052412093D

 50 55  0  0  1  0  0  0  0  0999 V2000
  160.4650  212.8270  147.3180 C   0  0  0  0  0  0  0  0  0  0  0  0
  160.7410  213.2240  146.0750 C   0  0  0  0  0  3  0  0  0  0  0  0
  160.7080  211.4660  147.6980 N   0  0  0  0  0  2  0  0  0  0  0  0
  162.6030  211.8110  149.0350 O   0  0  0  0  0  0  0  0  0  0  0  0
  161.8150  211.0000  148.4790 C   0  0  0  0  0  0  0  0  0  0  0  0
  162.0360  209.5970  148.6270 N   0  0  0  0  0  2  0  0  0  0  0  0
  161.2030  208.6850  148.0640 O   0  0  0  0  0  0  0  0  0  0  0  0
  161.0120  207.6990  149.0460 C   0  0  1  0  0  0  0  0  0  0  0  0
  160.0750  206.6670  148.6110 N   0  0  0  0  0  2  0  0  0  0  0  0
  161.5200  206.4170  148.6160 C   0  0  2  0  0  0  0  0  0  0  0  0
  163.2850  207.3550  150.3860 O   0  0  0  0  0  0  0  0  0  0  0  0
  162.3130  207.2060  149.6620 C   0  0  0  0  0  0  0  0  0  0  0  0
  162.9920  204.9320  145.6500 C   0  0  0  0  0  2  0  0  0  0  0  0
  163.0570  205.3840  147.0920 C   0  0  0  0  0  2  0  0  0  0  0  0
  161.0480  206.2000  146.2870 C   0  0  0  0  0  2  0  0  0  0  0  0
  161.6630  205.4290  145.1370 C   0  0  2  0  0  3  0  0  0  0  0  0
  162.1030  206.4800  147.2590 N   0  0  1  0  0  0  0  0  0  0  0  0
  160.8050  204.2920  144.7900 C   0  0  0  0  0  0  0  0  0  0  0  0
  160.1280  203.3940  144.5120 N   0  0  0  0  0  0  0  0  0  0  0  0
  161.2610  212.2800  145.0430 C   0  0  0  0  0  2  0  0  0  0  0  0
  162.3190  212.8720  144.3540 O   0  0  0  0  0  0  0  0  0  0  0  0
  162.1270  212.4980  143.0220 C   0  0  0  0  0  2  0  0  0  0  0  0
  161.4810  213.3640  140.7390 C   0  0  1  0  0  3  0  0  0  0  0  0
  161.8720  213.7310  142.1600 C   0  0  2  0  0  3  0  0  0  0  0  0
  163.1710  214.4470  141.9370 C   0  0  0  0  0  2  0  0  0  0  0  0
  163.6060  214.0290  140.5420 C   0  0  0  0  0  2  0  0  0  0  0  0
  162.6550  213.1420  140.0070 O   0  0  0  0  0  0  0  0  0  0  0  0
  160.6120  212.1910  140.6760 N   0  0  0  0  0  2  0  0  0  0  0  0
  161.9510  208.8210  139.5860 C   0  0  1  0  0  3  0  0  0  0  0  0
  161.4220  207.6940  137.4190 C   0  0  0  0  0  1  0  0  0  0  0  0
  160.9520  210.0090  137.7410 O   0  0  0  0  0  0  0  0  0  0  0  0
  161.2450  211.2210  139.7930 C   0  0  2  0  0  3  0  0  0  0  0  0
  160.3250  210.9220  138.6090 C   0  0  0  0  0  2  0  0  0  0  0  0
  160.9810  208.7650  138.4000 C   0  0  2  0  0  3  0  0  0  0  0  0
  161.5090  209.9210  140.5520 C   0  0  0  0  0  2  0  0  0  0  0  0
  161.9640  207.6100  140.2520 F   0  0  0  0  0  0  0  0  0  0  0  0
  159.9790  213.7670  148.2820 N   0  0  0  0  0  2  0  0  0  0  0  0
  160.8070  214.3900  149.3040 C   0  0  0  0  0  2  0  0  0  0  0  0
  159.8550  213.2080  151.1790 N   0  0  0  0  0  0  0  0  0  0  0  0
  160.1010  214.3430  150.6120 C   0  0  0  0  0  3  0  0  0  0  0  0
  159.2320  213.1660  152.4050 O   0  0  0  0  0  0  0  0  0  0  0  0
  158.5860  211.9810  152.8500 C   0  0  0  0  0  2  0  0  0  0  0  0
  159.1920  211.5100  154.1630 C   0  0  2  0  0  3  0  0  0  0  0  0
  160.2910  210.5310  153.8930 C   0  0  0  0  0  0  0  0  0  0  0  0
  160.6020  210.1700  152.5850 O   0  0  0  0  0  0  0  0  0  0  0  0
  160.9660  210.0630  154.8510 O   0  0  0  0  0  1  0  0  0  0  0  0
  158.2060  210.9240  154.9590 O   0  0  0  0  0  0  0  0  0  0  0  0
  156.9350  211.8480  156.7410 C   0  0  0  0  0  2  0  0  0  0  0  0
  157.3390  211.9680  155.2870 C   0  0  0  0  0  3  0  0  0  0  0  0
  155.9840  211.3990  155.6560 C   0  0  0  0  0  2  0  0  0  0  0  0
  1  3  1  0  0  0  0
  1 37  1  0  0  0  0
  2  1  2  0  0  0  0
  3  5  1  0  0  0  0
  5  6  1  0  0  0  0
  5  4  2  0  0  0  0
  7  6  1  0  0  0  0
  8  7  1  6  0  0  0
  8 12  1  0  0  0  0
  9  8  1  0  0  0  0
 10  9  1  1  0  0  0
 10  8  1  0  0  0  0
 10 12  1  0  0  0  0
 12 11  2  0  0  0  0
 13 14  1  0  0  0  0
 14 17  1  0  0  0  0
 16 18  1  1  0  0  0
 16 13  1  0  0  0  0
 16 15  1  0  0  0  0
 17 15  1  6  0  0  0
 17 10  1  0  0  0  0
 19 18  3  0  0  0  0
 20  2  1  0  0  0  0
 21 20  1  0  0  0  0
 22 21  1  0  0  0  0
 23 28  1  1  0  0  0
 23 24  1  0  0  0  0
 24 22  1  1  0  0  0
 25 24  1  0  0  0  0
 26 25  1  0  0  0  0
 27 26  1  0  0  0  0
 27 23  1  0  0  0  0
 29 36  1  1  0  0  0
 29 35  1  0  0  0  0
 31 34  1  0  0  0  0
 31 33  1  0  0  0  0
 32 35  1  0  0  0  0
 32 28  1  1  0  0  0
 33 32  1  0  0  0  0
 34 30  1  6  0  0  0
 34 29  1  0  0  0  0
 37 38  1  0  0  0  0
 38 40  1  0  0  0  0
 39 41  1  0  0  0  0
 40 39  2  0  0  0  0
 41 42  1  0  0  0  0
 43 42  1  6  0  0  0
 43 47  1  0  0  0  0
 44 43  1  0  0  0  0
 44 46  1  0  0  0  0
 45 44  2  0  0  0  0
 47 49  1  0  0  0  0
 49 50  1  0  0  0  0
 49 48  1  0  0  0  0
 50 48  1  0  0  0  0
M  END
>  <MODEL>
9

>  <REMARK>
 VINA RESULT:      -4.9      3.229      8.135
  Name = 
  20 active torsions:
  status: ('A' for Active; 'I' for Inactive)
    1  A    between atoms: N_1  and  O_28
    2  A    between atoms: C_2  and  O_25
    3  A    between atoms: C_6  and  N_48
    4  A    between atoms: C_7  and  C_10
    5  A    between atoms: C_7  and  O_44
    6  A    between atoms: C_8  and  C_41
    7  A    between atoms: N_11  and  C_40
    8  A    between atoms: C_13  and  C_39
    9  A    between atoms: C_14  and  N_45
   10  A    between atoms: C_19  and  C_23
   11  A    between atoms: C_23  and  C_26
   12  A    between atoms: C_23  and  O_27
   13  A    between atoms: C_24  and  O_27
   14  A    between atoms: O_25  and  N_49
   15  A    between atoms: C_26  and  O_28
   16  A    between atoms: N_30  and  C_39
   17  A    between atoms: N_30  and  C_40
   18  A    between atoms: C_31  and  N_48
   19  A    between atoms: C_32  and  C_43
   20  A    between atoms: C_32  and  O_44
                            x       y       z     vdW  Elec       q    Type
                         _______ _______ _______ _____ _____    ______ ____

>  <TORSDO>
F 20

$$$$
