=
 OpenBabel11052409553D

 29 33  0  0  1  0  0  0  0  0999 V2000
  161.4310  210.0110  152.9790 C   0  0  1  0  0  0  0  0  0  0  0  0
  160.8290  211.0760  152.2950 C   0  0  0  0  0  0  0  0  0  0  0  0
  160.6730  208.8550  154.8330 C   0  0  0  0  0  0  0  0  0  0  0  0
  161.6630  211.4670  149.7260 C   0  0  0  0  0  0  0  0  0  0  0  0
  161.8410  210.2330  151.6570 C   0  0  0  0  0  0  0  0  0  0  0  0
  162.2680  210.4740  154.1610 C   0  0  0  0  0  2  0  0  0  0  0  0
  160.1810  212.1290  151.7290 C   0  0  0  0  0  3  0  0  0  0  0  0
  160.0170  208.1150  155.6180 O   0  0  0  0  0  0  0  0  0  0  0  0
  161.6950  209.7390  155.2760 N   0  0  0  0  0  0  0  0  0  0  0  0
  162.3130  210.3560  150.3870 C   0  0  0  0  0  3  0  0  0  0  0  0
  160.6520  212.3020  150.3800 C   0  0  0  0  0  3  0  0  0  0  0  0
  160.4490  208.9020  153.3620 C   0  0  2  0  0  3  0  0  0  0  0  0
  160.7970  207.5890  152.7140 C   0  0  0  0  0  0  0  0  0  0  0  0
  161.0600  206.1840  150.7510 C   0  0  0  0  0  3  0  0  0  0  0  0
  161.4200  205.2580  152.9580 C   0  0  0  0  0  3  0  0  0  0  0  0
  161.1170  206.4980  153.5270 C   0  0  0  0  0  3  0  0  0  0  0  0
  161.4100  205.0990  151.5650 C   0  0  0  0  0  0  0  0  0  0  0  0
  160.7590  207.4220  151.3210 C   0  0  0  0  0  3  0  0  0  0  0  0
  160.4140  203.0960  150.6010 N   0  0  0  0  0  2  0  0  0  0  0  0
  161.1560  202.6900  151.8030 C   0  0  0  0  0  2  0  0  0  0  0  0
  161.6830  203.7600  150.9550 C   0  0  2  0  0  3  0  0  0  0  0  0
  162.1900  209.8150  156.6400 C   0  0  0  0  0  2  0  0  0  0  0  0
  162.1120  211.1310  157.0940 O   0  0  0  0  0  0  0  0  0  0  0  0
  160.7450  211.3650  157.2600 C   0  0  0  0  0  2  0  0  0  0  0  0
  159.1250  212.3070  155.6120 C   0  0  0  0  0  1  0  0  0  0  0  0
  160.3330  212.6030  156.4820 C   0  0  0  0  0  2  0  0  0  0  0  0
  161.9950  211.7830  148.4040 O   0  0  0  0  0  0  0  0  0  0  0  0
  160.4200  212.3750  146.7020 C   0  0  0  0  0  1  0  0  0  0  0  0
  161.4300  212.8870  147.7080 C   0  0  0  0  0  2  0  0  0  0  0  0
  1 12  1  0  0  0  0
  1  6  1  1  0  0  0
  2  1  1  0  0  0  0
  3  9  1  0  0  0  0
  3  8  2  0  0  0  0
  4 11  1  0  0  0  0
  4 10  2  0  0  0  0
  5  2  2  0  0  0  0
  5  1  1  0  0  0  0
  6  9  1  0  0  0  0
  7  2  1  0  0  0  0
  9 22  1  0  0  0  0
 10  5  1  0  0  0  0
 11  7  2  0  0  0  0
 12 13  1  6  0  0  0
 12  3  1  0  0  0  0
 13 16  1  0  0  0  0
 14 18  1  0  0  0  0
 14 17  2  0  0  0  0
 15 16  2  0  0  0  0
 17 15  1  0  0  0  0
 18 13  2  0  0  0  0
 19 21  1  0  0  0  0
 19 20  1  0  0  0  0
 21 17  1  1  0  0  0
 21 20  1  0  0  0  0
 22 23  1  0  0  0  0
 23 24  1  0  0  0  0
 25 26  1  0  0  0  0
 26 24  1  0  0  0  0
 27  4  1  0  0  0  0
 28 29  1  0  0  0  0
 29 27  1  0  0  0  0
M  END
>  <MODEL>
1

>  <REMARK>
 VINA RESULT:      -5.9      0.000      0.000
  Name = 
  8 active torsions:
  status: ('A' for Active; 'I' for Inactive)
    1  A    between atoms: C_3  and  C_28
    2  A    between atoms: O_7  and  C_15
    3  A    between atoms: O_7  and  C_26
    4  A    between atoms: C_9  and  O_24
    5  A    between atoms: C_15  and  N_19
    6  A    between atoms: C_18  and  O_24
    7  A    between atoms: C_21  and  C_23
    8  A    between atoms: C_26  and  C_29
                            x       y       z     vdW  Elec       q    Type
                         _______ _______ _______ _____ _____    ______ ____

>  <TORSDO>
F 8

$$$$
=
 OpenBabel11052409553D

 29 33  0  0  1  0  0  0  0  0999 V2000
  161.0470  208.1240  152.7490 C   0  0  1  0  0  0  0  0  0  0  0  0
  161.7510  206.9300  152.5440 C   0  0  0  0  0  0  0  0  0  0  0  0
  161.5670  209.9030  154.1310 C   0  0  0  0  0  0  0  0  0  0  0  0
  161.2080  205.6100  150.2170 C   0  0  0  0  0  0  0  0  0  0  0  0
  160.7870  207.4260  151.5610 C   0  0  0  0  0  0  0  0  0  0  0  0
  160.1030  208.0490  153.9390 C   0  0  0  0  0  2  0  0  0  0  0  0
  162.4880  205.7900  152.4470 C   0  0  0  0  0  3  0  0  0  0  0  0
  162.1110  210.9120  154.6580 O   0  0  0  0  0  0  0  0  0  0  0  0
  160.5310  209.1630  154.7670 N   0  0  0  0  0  0  0  0  0  0  0  0
  160.4580  206.8360  150.3810 C   0  0  0  0  0  3  0  0  0  0  0  0
  162.1690  205.1260  151.2120 C   0  0  0  0  0  3  0  0  0  0  0  0
  161.9470  209.3590  152.7990 C   0  0  2  0  0  3  0  0  0  0  0  0
  161.6300  210.3360  151.6990 C   0  0  0  0  0  0  0  0  0  0  0  0
  161.9860  211.2220  149.4660 C   0  0  0  0  0  3  0  0  0  0  0  0
  160.4000  212.2880  150.9510 C   0  0  0  0  0  3  0  0  0  0  0  0
  160.6980  211.3490  151.9430 C   0  0  0  0  0  3  0  0  0  0  0  0
  161.0300  212.2180  149.7010 C   0  0  0  0  0  0  0  0  0  0  0  0
  162.2820  210.2850  150.4570 C   0  0  0  0  0  3  0  0  0  0  0  0
  159.8930  212.6850  147.5980 N   0  0  0  0  0  2  0  0  0  0  0  0
  161.3340  212.8580  147.3720 C   0  0  0  0  0  2  0  0  0  0  0  0
  160.7510  213.2520  148.6550 C   0  0  2  0  0  3  0  0  0  0  0  0
  159.8960  209.5360  156.0190 C   0  0  0  0  0  2  0  0  0  0  0  0
  158.6970  210.2000  155.7570 O   0  0  0  0  0  0  0  0  0  0  0  0
  158.9360  211.5210  156.1420 C   0  0  0  0  0  2  0  0  0  0  0  0
  157.7470  211.7960  153.9650 C   0  0  0  0  0  1  0  0  0  0  0  0
  158.6660  212.4570  154.9760 C   0  0  0  0  0  2  0  0  0  0  0  0
  161.0300  204.8300  149.0700 O   0  0  0  0  0  0  0  0  0  0  0  0
  161.2630  202.8400  147.7600 C   0  0  0  0  0  1  0  0  0  0  0  0
  160.8860  203.4150  149.1100 C   0  0  0  0  0  2  0  0  0  0  0  0
  1 12  1  0  0  0  0
  1  6  1  1  0  0  0
  2  1  1  0  0  0  0
  3  8  2  0  0  0  0
  3  9  1  0  0  0  0
  4 10  2  0  0  0  0
  4 11  1  0  0  0  0
  5  2  2  0  0  0  0
  5  1  1  0  0  0  0
  6  9  1  0  0  0  0
  7  2  1  0  0  0  0
  9 22  1  0  0  0  0
 10  5  1  0  0  0  0
 11  7  2  0  0  0  0
 12 13  1  6  0  0  0
 12  3  1  0  0  0  0
 13 16  1  0  0  0  0
 14 17  2  0  0  0  0
 14 18  1  0  0  0  0
 15 16  2  0  0  0  0
 17 15  1  0  0  0  0
 18 13  2  0  0  0  0
 19 21  1  0  0  0  0
 20 19  1  0  0  0  0
 20 21  1  0  0  0  0
 21 17  1  1  0  0  0
 23 22  1  0  0  0  0
 23 24  1  0  0  0  0
 25 26  1  0  0  0  0
 26 24  1  0  0  0  0
 27 29  1  0  0  0  0
 27  4  1  0  0  0  0
 28 29  1  0  0  0  0
M  END
>  <MODEL>
2

>  <REMARK>
 VINA RESULT:      -5.6      2.425      5.830
  Name = 
  8 active torsions:
  status: ('A' for Active; 'I' for Inactive)
    1  A    between atoms: C_3  and  C_28
    2  A    between atoms: O_7  and  C_15
    3  A    between atoms: O_7  and  C_26
    4  A    between atoms: C_9  and  O_24
    5  A    between atoms: C_15  and  N_19
    6  A    between atoms: C_18  and  O_24
    7  A    between atoms: C_21  and  C_23
    8  A    between atoms: C_26  and  C_29
                            x       y       z     vdW  Elec       q    Type
                         _______ _______ _______ _____ _____    ______ ____

>  <TORSDO>
F 8

$$$$
=
 OpenBabel11052409553D

 29 33  0  0  1  0  0  0  0  0999 V2000
  161.2670  207.0950  153.3180 C   0  0  1  0  0  0  0  0  0  0  0  0
  160.4710  207.2700  154.4580 C   0  0  0  0  0  0  0  0  0  0  0  0
  160.7700  205.9930  151.3470 C   0  0  0  0  0  0  0  0  0  0  0  0
  161.1620  209.3470  156.0890 C   0  0  0  0  0  0  0  0  0  0  0  0
  161.6000  208.1560  154.1730 C   0  0  0  0  0  0  0  0  0  0  0  0
  162.0380  205.7840  153.3390 C   0  0  0  0  0  2  0  0  0  0  0  0
  159.6340  207.3470  155.5280 C   0  0  0  0  0  3  0  0  0  0  0  0
  160.2740  205.6550  150.2360 O   0  0  0  0  0  0  0  0  0  0  0  0
  161.6300  205.1450  152.0990 N   0  0  0  0  0  0  0  0  0  0  0  0
  162.0120  209.2100  154.9260 C   0  0  0  0  0  3  0  0  0  0  0  0
  160.0350  208.4490  156.3600 C   0  0  0  0  0  3  0  0  0  0  0  0
  160.5060  207.3000  152.0080 C   0  0  2  0  0  3  0  0  0  0  0  0
  161.0640  208.4420  151.2010 C   0  0  0  0  0  0  0  0  0  0  0  0
  161.5480  210.8020  150.8990 C   0  0  0  0  0  3  0  0  0  0  0  0
  162.0680  209.2260  149.1370 C   0  0  0  0  0  3  0  0  0  0  0  0
  161.5650  208.1830  149.9220 C   0  0  0  0  0  3  0  0  0  0  0  0
  162.0780  210.5390  149.6290 C   0  0  0  0  0  0  0  0  0  0  0  0
  161.0480  209.7610  151.6810 C   0  0  0  0  0  3  0  0  0  0  0  0
  161.6140  212.7880  148.8180 N   0  0  0  0  0  2  0  0  0  0  0  0
  161.6520  211.8940  147.6520 C   0  0  0  0  0  2  0  0  0  0  0  0
  162.5670  211.6630  148.7710 C   0  0  2  0  0  3  0  0  0  0  0  0
  162.1370  203.8630  151.6410 C   0  0  0  0  0  2  0  0  0  0  0  0
  161.1750  202.8750  151.8540 O   0  0  0  0  0  0  0  0  0  0  0  0
  161.3880  201.9520  150.8280 C   0  0  0  0  0  2  0  0  0  0  0  0
  160.9410  201.5900  148.3990 C   0  0  0  0  0  1  0  0  0  0  0  0
  160.4290  202.2220  149.6810 C   0  0  0  0  0  2  0  0  0  0  0  0
  161.4000  210.3690  157.0120 O   0  0  0  0  0  0  0  0  0  0  0  0
  160.3250  212.2570  156.0070 C   0  0  0  0  0  1  0  0  0  0  0  0
  160.4730  211.4190  157.2610 C   0  0  0  0  0  2  0  0  0  0  0  0
  1  6  1  1  0  0  0
  1  5  1  0  0  0  0
  1  2  1  0  0  0  0
  2  7  1  0  0  0  0
  3 12  1  0  0  0  0
  3  9  1  0  0  0  0
  4 11  1  0  0  0  0
  4 27  1  0  0  0  0
  5  2  2  0  0  0  0
  5 10  1  0  0  0  0
  7 11  2  0  0  0  0
  8  3  2  0  0  0  0
  9  6  1  0  0  0  0
 10  4  2  0  0  0  0
 12 13  1  6  0  0  0
 12  1  1  0  0  0  0
 13 18  1  0  0  0  0
 14 18  2  0  0  0  0
 15 17  2  0  0  0  0
 15 16  1  0  0  0  0
 16 13  2  0  0  0  0
 17 14  1  0  0  0  0
 20 21  1  0  0  0  0
 20 19  1  0  0  0  0
 21 19  1  0  0  0  0
 21 17  1  1  0  0  0
 22 23  1  0  0  0  0
 22  9  1  0  0  0  0
 24 23  1  0  0  0  0
 25 26  1  0  0  0  0
 26 24  1  0  0  0  0
 27 29  1  0  0  0  0
 28 29  1  0  0  0  0
M  END
>  <MODEL>
3

>  <REMARK>
 VINA RESULT:      -5.2      2.536      7.327
  Name = 
  8 active torsions:
  status: ('A' for Active; 'I' for Inactive)
    1  A    between atoms: C_3  and  C_28
    2  A    between atoms: O_7  and  C_15
    3  A    between atoms: O_7  and  C_26
    4  A    between atoms: C_9  and  O_24
    5  A    between atoms: C_15  and  N_19
    6  A    between atoms: C_18  and  O_24
    7  A    between atoms: C_21  and  C_23
    8  A    between atoms: C_26  and  C_29
                            x       y       z     vdW  Elec       q    Type
                         _______ _______ _______ _____ _____    ______ ____

>  <TORSDO>
F 8

$$$$
=
 OpenBabel11052409553D

 29 33  0  0  1  0  0  0  0  0999 V2000
  161.7140  210.9450  149.2950 C   0  0  1  0  0  0  0  0  0  0  0  0
  162.5480  211.6880  148.4480 C   0  0  0  0  0  0  0  0  0  0  0  0
  162.2040  209.9680  151.3330 C   0  0  0  0  0  0  0  0  0  0  0  0
  161.2840  213.3270  146.6680 C   0  0  0  0  0  0  0  0  0  0  0  0
  161.0900  211.7950  148.3710 C   0  0  0  0  0  0  0  0  0  0  0  0
  161.8210  209.4480  149.0530 C   0  0  0  0  0  2  0  0  0  0  0  0
  163.4480  212.3600  147.6810 C   0  0  0  0  0  3  0  0  0  0  0  0
  162.4970  209.7680  152.5440 O   0  0  0  0  0  0  0  0  0  0  0  0
  162.1760  208.9280  150.3630 N   0  0  0  0  0  0  0  0  0  0  0  0
  160.3810  212.5830  147.5190 C   0  0  0  0  0  3  0  0  0  0  0  0
  162.7420  213.2070  146.7580 C   0  0  0  0  0  3  0  0  0  0  0  0
  161.8710  211.3060  150.7720 C   0  0  2  0  0  3  0  0  0  0  0  0
  160.5950  211.8430  151.3630 C   0  0  0  0  0  0  0  0  0  0  0  0
  158.9910  213.6340  151.7010 C   0  0  0  0  0  3  0  0  0  0  0  0
  158.6710  211.5010  152.8000 C   0  0  0  0  0  3  0  0  0  0  0  0
  159.8480  211.0240  152.2150 C   0  0  0  0  0  3  0  0  0  0  0  0
  158.2270  212.8040  152.5320 C   0  0  0  0  0  0  0  0  0  0  0  0
  160.1650  213.1570  151.1180 C   0  0  0  0  0  3  0  0  0  0  0  0
  157.3340  213.8900  154.5210 N   0  0  0  0  0  2  0  0  0  0  0  0
  156.6950  212.5710  154.4100 C   0  0  0  0  0  2  0  0  0  0  0  0
  156.9950  213.3340  153.1970 C   0  0  2  0  0  3  0  0  0  0  0  0
  162.3530  207.5170  150.6560 C   0  0  0  0  0  2  0  0  0  0  0  0
  161.1890  207.0080  151.2310 O   0  0  0  0  0  0  0  0  0  0  0  0
  161.1680  205.6640  150.8500 C   0  0  0  0  0  2  0  0  0  0  0  0
  161.1260  204.1660  148.8540 C   0  0  0  0  0  1  0  0  0  0  0  0
  160.7860  205.5470  149.3840 C   0  0  0  0  0  2  0  0  0  0  0  0
  160.7730  214.2050  145.7070 O   0  0  0  0  0  0  0  0  0  0  0  0
  160.5010  212.7840  143.8010 C   0  0  0  0  0  1  0  0  0  0  0  0
  159.8440  213.8050  144.7080 C   0  0  0  0  0  2  0  0  0  0  0  0
  1  6  1  6  0  0  0
  1 12  1  0  0  0  0
  2  1  1  0  0  0  0
  3  8  2  0  0  0  0
  4 11  2  0  0  0  0
  4 10  1  0  0  0  0
  5  2  1  0  0  0  0
  5  1  1  0  0  0  0
  6  9  1  0  0  0  0
  7  2  2  0  0  0  0
  9 22  1  0  0  0  0
  9  3  1  0  0  0  0
 10  5  2  0  0  0  0
 11  7  1  0  0  0  0
 12  3  1  0  0  0  0
 12 13  1  1  0  0  0
 13 16  1  0  0  0  0
 14 17  2  0  0  0  0
 16 15  2  0  0  0  0
 17 15  1  0  0  0  0
 18 13  2  0  0  0  0
 18 14  1  0  0  0  0
 20 19  1  0  0  0  0
 21 17  1  6  0  0  0
 21 20  1  0  0  0  0
 21 19  1  0  0  0  0
 22 23  1  0  0  0  0
 24 23  1  0  0  0  0
 25 26  1  0  0  0  0
 26 24  1  0  0  0  0
 27  4  1  0  0  0  0
 28 29  1  0  0  0  0
 29 27  1  0  0  0  0
M  END
>  <MODEL>
4

>  <REMARK>
 VINA RESULT:      -5.1      3.034      6.646
  Name = 
  8 active torsions:
  status: ('A' for Active; 'I' for Inactive)
    1  A    between atoms: C_3  and  C_28
    2  A    between atoms: O_7  and  C_15
    3  A    between atoms: O_7  and  C_26
    4  A    between atoms: C_9  and  O_24
    5  A    between atoms: C_15  and  N_19
    6  A    between atoms: C_18  and  O_24
    7  A    between atoms: C_21  and  C_23
    8  A    between atoms: C_26  and  C_29
                            x       y       z     vdW  Elec       q    Type
                         _______ _______ _______ _____ _____    ______ ____

>  <TORSDO>
F 8

$$$$
=
 OpenBabel11052409553D

 29 33  0  0  1  0  0  0  0  0999 V2000
  161.2060  207.7440  152.1230 C   0  0  1  0  0  0  0  0  0  0  0  0
  161.7490  206.4530  152.0730 C   0  0  0  0  0  0  0  0  0  0  0  0
  161.9810  209.6080  153.2510 C   0  0  0  0  0  0  0  0  0  0  0  0
  160.9840  204.9190  149.9480 C   0  0  0  0  0  0  0  0  0  0  0  0
  160.8300  206.9360  151.0400 C   0  0  0  0  0  0  0  0  0  0  0  0
  160.2910  207.9480  153.3200 C   0  0  0  0  0  2  0  0  0  0  0  0
  162.3320  205.2250  152.1240 C   0  0  0  0  0  3  0  0  0  0  0  0
  162.6620  210.5990  153.6340 O   0  0  0  0  0  0  0  0  0  0  0  0
  160.8770  209.0970  153.9890 N   0  0  0  0  0  0  0  0  0  0  0  0
  160.4000  206.2430  149.9530 C   0  0  0  0  0  3  0  0  0  0  0  0
  161.9010  204.4510  150.9910 C   0  0  0  0  0  3  0  0  0  0  0  0
  162.2560  208.8490  152.0010 C   0  0  2  0  0  3  0  0  0  0  0  0
  162.0380  209.7060  150.7820 C   0  0  0  0  0  0  0  0  0  0  0  0
  162.1410  210.0670  148.3840 C   0  0  0  0  0  3  0  0  0  0  0  0
  161.3910  211.8460  149.8430 C   0  0  0  0  0  3  0  0  0  0  0  0
  161.5810  211.0160  150.9520 C   0  0  0  0  0  3  0  0  0  0  0  0
  161.6550  211.3700  148.5510 C   0  0  0  0  0  0  0  0  0  0  0  0
  162.3290  209.2390  149.4910 C   0  0  0  0  0  3  0  0  0  0  0  0
  160.5360  213.3450  147.6690 N   0  0  0  0  0  2  0  0  0  0  0  0
  160.1400  212.2010  146.8360 C   0  0  0  0  0  2  0  0  0  0  0  0
  161.5020  212.2720  147.3670 C   0  0  2  0  0  3  0  0  0  0  0  0
  160.3250  209.7100  155.1840 C   0  0  0  0  0  2  0  0  0  0  0  0
  160.3300  208.7860  156.2290 O   0  0  0  0  0  0  0  0  0  0  0  0
  161.5960  208.9150  156.8060 C   0  0  0  0  0  2  0  0  0  0  0  0
  163.3100  210.7020  157.1110 C   0  0  0  0  0  1  0  0  0  0  0  0
  161.8350  210.3590  157.2130 C   0  0  0  0  0  2  0  0  0  0  0  0
  160.6800  204.0250  148.9170 O   0  0  0  0  0  0  0  0  0  0  0  0
  161.9620  205.0340  147.1650 C   0  0  0  0  0  1  0  0  0  0  0  0
  161.5780  203.7390  147.8510 C   0  0  0  0  0  2  0  0  0  0  0  0
  1  6  1  1  0  0  0
  2  1  1  0  0  0  0
  2  7  1  0  0  0  0
  3  8  2  0  0  0  0
  3  9  1  0  0  0  0
  4 10  2  0  0  0  0
  4 11  1  0  0  0  0
  5  2  2  0  0  0  0
  5  1  1  0  0  0  0
  6  9  1  0  0  0  0
  9 22  1  0  0  0  0
 10  5  1  0  0  0  0
 11  7  2  0  0  0  0
 12 13  1  6  0  0  0
 12  1  1  0  0  0  0
 12  3  1  0  0  0  0
 13 16  1  0  0  0  0
 14 17  2  0  0  0  0
 14 18  1  0  0  0  0
 15 16  2  0  0  0  0
 17 15  1  0  0  0  0
 18 13  2  0  0  0  0
 20 21  1  0  0  0  0
 20 19  1  0  0  0  0
 21 19  1  0  0  0  0
 21 17  1  1  0  0  0
 22 23  1  0  0  0  0
 23 24  1  0  0  0  0
 24 26  1  0  0  0  0
 25 26  1  0  0  0  0
 27  4  1  0  0  0  0
 28 29  1  0  0  0  0
 29 27  1  0  0  0  0
M  END
>  <MODEL>
5

>  <REMARK>
 VINA RESULT:      -5.0      2.640      5.874
  Name = 
  8 active torsions:
  status: ('A' for Active; 'I' for Inactive)
    1  A    between atoms: C_3  and  C_28
    2  A    between atoms: O_7  and  C_15
    3  A    between atoms: O_7  and  C_26
    4  A    between atoms: C_9  and  O_24
    5  A    between atoms: C_15  and  N_19
    6  A    between atoms: C_18  and  O_24
    7  A    between atoms: C_21  and  C_23
    8  A    between atoms: C_26  and  C_29
                            x       y       z     vdW  Elec       q    Type
                         _______ _______ _______ _____ _____    ______ ____

>  <TORSDO>
F 8

$$$$
=
 OpenBabel11052409553D

 29 33  0  0  1  0  0  0  0  0999 V2000
  161.7170  208.3580  150.5980 C   0  0  1  0  0  0  0  0  0  0  0  0
  161.0210  207.2580  150.0780 C   0  0  0  0  0  0  0  0  0  0  0  0
  161.1390  210.5960  150.5660 C   0  0  0  0  0  0  0  0  0  0  0  0
  161.6660  204.8270  151.1400 C   0  0  0  0  0  0  0  0  0  0  0  0
  162.0290  207.0970  151.1270 C   0  0  0  0  0  0  0  0  0  0  0  0
  162.6070  209.0290  149.5640 C   0  0  0  0  0  2  0  0  0  0  0  0
  160.2880  206.2670  149.5030 C   0  0  0  0  0  3  0  0  0  0  0  0
  160.5730  211.7070  150.7640 O   0  0  0  0  0  0  0  0  0  0  0  0
  162.1440  210.4060  149.5780 N   0  0  0  0  0  0  0  0  0  0  0  0
  162.4090  205.9290  151.7110 C   0  0  0  0  0  3  0  0  0  0  0  0
  160.6610  205.0060  150.0880 C   0  0  0  0  0  3  0  0  0  0  0  0
  160.8170  209.3570  151.3260 C   0  0  2  0  0  3  0  0  0  0  0  0
  161.1840  209.4960  152.7790 C   0  0  0  0  0  0  0  0  0  0  0  0
  160.7940  209.0290  155.1300 C   0  0  0  0  0  3  0  0  0  0  0  0
  162.6070  210.4920  154.4710 C   0  0  0  0  0  3  0  0  0  0  0  0
  162.2560  210.3210  153.1290 C   0  0  0  0  0  3  0  0  0  0  0  0
  161.8880  209.8320  155.4780 C   0  0  0  0  0  0  0  0  0  0  0  0
  160.4460  208.8590  153.7890 C   0  0  0  0  0  3  0  0  0  0  0  0
  162.1650  211.4920  157.2390 N   0  0  0  0  0  2  0  0  0  0  0  0
  163.4620  210.8310  157.0430 C   0  0  0  0  0  2  0  0  0  0  0  0
  162.2280  210.0540  156.9190 C   0  0  2  0  0  3  0  0  0  0  0  0
  162.7240  211.4670  148.7720 C   0  0  0  0  0  2  0  0  0  0  0  0
  161.8050  211.8780  147.8070 O   0  0  0  0  0  0  0  0  0  0  0  0
  161.9270  213.2690  147.7770 C   0  0  0  0  0  2  0  0  0  0  0  0
  160.7870  213.6290  145.5860 C   0  0  0  0  0  1  0  0  0  0  0  0
  162.0970  213.7430  146.3440 C   0  0  0  0  0  2  0  0  0  0  0  0
  161.8940  203.5230  151.5900 O   0  0  0  0  0  0  0  0  0  0  0  0
  161.1640  201.6680  150.2660 C   0  0  0  0  0  1  0  0  0  0  0  0
  160.9140  202.4950  151.5110 C   0  0  0  0  0  2  0  0  0  0  0  0
  1  6  1  6  0  0  0
  1  5  1  0  0  0  0
  1 12  1  0  0  0  0
  2  1  1  0  0  0  0
  2  5  1  0  0  0  0
  3  8  2  0  0  0  0
  3 12  1  0  0  0  0
  4 27  1  0  0  0  0
  4 10  1  0  0  0  0
  5 10  2  0  0  0  0
  6  9  1  0  0  0  0
  7  2  2  0  0  0  0
  7 11  1  0  0  0  0
  9  3  1  0  0  0  0
 11  4  2  0  0  0  0
 12 13  1  1  0  0  0
 13 16  2  0  0  0  0
 13 18  1  0  0  0  0
 14 17  1  0  0  0  0
 15 17  2  0  0  0  0
 16 15  1  0  0  0  0
 18 14  2  0  0  0  0
 20 19  1  0  0  0  0
 21 17  1  6  0  0  0
 21 20  1  0  0  0  0
 21 19  1  0  0  0  0
 22  9  1  0  0  0  0
 23 22  1  0  0  0  0
 24 23  1  0  0  0  0
 25 26  1  0  0  0  0
 26 24  1  0  0  0  0
 28 29  1  0  0  0  0
 29 27  1  0  0  0  0
M  END
>  <MODEL>
6

>  <REMARK>
 VINA RESULT:      -4.9      2.683      7.245
  Name = 
  8 active torsions:
  status: ('A' for Active; 'I' for Inactive)
    1  A    between atoms: C_3  and  C_28
    2  A    between atoms: O_7  and  C_15
    3  A    between atoms: O_7  and  C_26
    4  A    between atoms: C_9  and  O_24
    5  A    between atoms: C_15  and  N_19
    6  A    between atoms: C_18  and  O_24
    7  A    between atoms: C_21  and  C_23
    8  A    between atoms: C_26  and  C_29
                            x       y       z     vdW  Elec       q    Type
                         _______ _______ _______ _____ _____    ______ ____

>  <TORSDO>
F 8

$$$$
=
 OpenBabel11052409553D

 29 33  0  0  1  0  0  0  0  0999 V2000
  161.3790  205.7970  149.0350 C   0  0  1  0  0  0  0  0  0  0  0  0
  161.9050  205.0400  147.9790 C   0  0  0  0  0  0  0  0  0  0  0  0
  162.1680  206.0300  151.1960 C   0  0  0  0  0  0  0  0  0  0  0  0
  161.1390  205.7980  145.4710 C   0  0  0  0  0  0  0  0  0  0  0  0
  161.0020  206.1660  147.7360 C   0  0  0  0  0  0  0  0  0  0  0  0
  160.4560  204.9870  149.9320 C   0  0  0  0  0  2  0  0  0  0  0  0
  162.4720  204.2420  147.0350 C   0  0  0  0  0  3  0  0  0  0  0  0
  162.8580  206.3210  152.2110 O   0  0  0  0  0  0  0  0  0  0  0  0
  161.0510  205.1500  151.2470 N   0  0  0  0  0  0  0  0  0  0  0  0
  160.5710  206.6110  146.5250 C   0  0  0  0  0  3  0  0  0  0  0  0
  162.0410  204.6720  145.7320 C   0  0  0  0  0  3  0  0  0  0  0  0
  162.4440  206.5530  149.8300 C   0  0  2  0  0  3  0  0  0  0  0  0
  162.2470  208.0440  149.7660 C   0  0  0  0  0  0  0  0  0  0  0  0
  161.6950  210.1670  150.8060 C   0  0  0  0  0  3  0  0  0  0  0  0
  162.1690  210.0690  148.4340 C   0  0  0  0  0  3  0  0  0  0  0  0
  162.3700  208.6890  148.5320 C   0  0  0  0  0  3  0  0  0  0  0  0
  161.8470  210.8180  149.5750 C   0  0  0  0  0  0  0  0  0  0  0  0
  161.8970  208.7900  150.9020 C   0  0  0  0  0  3  0  0  0  0  0  0
  160.7680  212.5650  148.2640 N   0  0  0  0  0  2  0  0  0  0  0  0
  162.2130  212.8360  148.2630 C   0  0  0  0  0  2  0  0  0  0  0  0
  161.5810  212.2870  149.4640 C   0  0  2  0  0  3  0  0  0  0  0  0
  160.4970  204.5850  152.4660 C   0  0  0  0  0  2  0  0  0  0  0  0
  160.3250  203.2100  152.3090 O   0  0  0  0  0  0  0  0  0  0  0  0
  161.4750  202.7870  151.6370 C   0  0  0  0  0  2  0  0  0  0  0  0
  160.8290  201.7110  149.4800 C   0  0  0  0  0  1  0  0  0  0  0  0
  161.2070  201.4700  150.9300 C   0  0  0  0  0  2  0  0  0  0  0  0
  160.8320  206.0730  144.1350 O   0  0  0  0  0  0  0  0  0  0  0  0
  161.5960  206.4380  141.8960 C   0  0  0  0  0  1  0  0  0  0  0  0
  161.5010  205.4530  143.0430 C   0  0  0  0  0  2  0  0  0  0  0  0
  1 12  1  0  0  0  0
  1  6  1  1  0  0  0
  2  1  1  0  0  0  0
  3  9  1  0  0  0  0
  3  8  2  0  0  0  0
  4 11  2  0  0  0  0
  4 10  1  0  0  0  0
  5  2  1  0  0  0  0
  5  1  1  0  0  0  0
  6  9  1  0  0  0  0
  7  2  2  0  0  0  0
  9 22  1  0  0  0  0
 10  5  2  0  0  0  0
 11  7  1  0  0  0  0
 12 13  1  1  0  0  0
 12  3  1  0  0  0  0
 13 18  1  0  0  0  0
 14 18  2  0  0  0  0
 15 16  1  0  0  0  0
 15 17  2  0  0  0  0
 16 13  2  0  0  0  0
 17 14  1  0  0  0  0
 19 21  1  0  0  0  0
 20 19  1  0  0  0  0
 20 21  1  0  0  0  0
 21 17  1  6  0  0  0
 23 22  1  0  0  0  0
 24 23  1  0  0  0  0
 25 26  1  0  0  0  0
 26 24  1  0  0  0  0
 27  4  1  0  0  0  0
 28 29  1  0  0  0  0
 29 27  1  0  0  0  0
M  END
>  <MODEL>
7

>  <REMARK>
 VINA RESULT:      -4.7      3.911      7.662
  Name = 
  8 active torsions:
  status: ('A' for Active; 'I' for Inactive)
    1  A    between atoms: C_3  and  C_28
    2  A    between atoms: O_7  and  C_15
    3  A    between atoms: O_7  and  C_26
    4  A    between atoms: C_9  and  O_24
    5  A    between atoms: C_15  and  N_19
    6  A    between atoms: C_18  and  O_24
    7  A    between atoms: C_21  and  C_23
    8  A    between atoms: C_26  and  C_29
                            x       y       z     vdW  Elec       q    Type
                         _______ _______ _______ _____ _____    ______ ____

>  <TORSDO>
F 8

$$$$
=
 OpenBabel11052409553D

 29 33  0  0  1  0  0  0  0  0999 V2000
  161.3200  205.8530  150.0460 C   0  0  1  0  0  0  0  0  0  0  0  0
  162.1470  206.4470  149.0820 C   0  0  0  0  0  0  0  0  0  0  0  0
  161.6670  203.9270  151.2770 C   0  0  0  0  0  0  0  0  0  0  0  0
  161.7080  209.0990  148.6050 C   0  0  0  0  0  0  0  0  0  0  0  0
  161.1160  207.2160  149.7820 C   0  0  0  0  0  0  0  0  0  0  0  0
  160.4120  204.7840  149.4580 C   0  0  0  0  0  2  0  0  0  0  0  0
  163.0010  206.9190  148.1350 C   0  0  0  0  0  3  0  0  0  0  0  0
  162.1080  203.0700  152.0920 O   0  0  0  0  0  0  0  0  0  0  0  0
  160.7310  203.6110  150.2540 N   0  0  0  0  0  0  0  0  0  0  0  0
  160.8320  208.5340  149.6080 C   0  0  0  0  0  3  0  0  0  0  0  0
  162.7350  208.3140  147.9130 C   0  0  0  0  0  3  0  0  0  0  0  0
  162.0810  205.3570  151.2760 C   0  0  2  0  0  3  0  0  0  0  0  0
  161.6390  206.0540  152.5350 C   0  0  0  0  0  0  0  0  0  0  0  0
  160.4580  206.0770  154.6560 C   0  0  0  0  0  3  0  0  0  0  0  0
  161.5410  208.0870  153.8540 C   0  0  0  0  0  3  0  0  0  0  0  0
  161.9580  207.4040  152.7070 C   0  0  0  0  0  3  0  0  0  0  0  0
  160.8030  207.4220  154.8430 C   0  0  0  0  0  0  0  0  0  0  0  0
  160.8760  205.3960  153.5120 C   0  0  0  0  0  3  0  0  0  0  0  0
  159.4530  209.2890  155.6320 N   0  0  0  0  0  2  0  0  0  0  0  0
  160.8380  209.5290  156.0600 C   0  0  0  0  0  2  0  0  0  0  0  0
  160.3120  208.1630  156.0470 C   0  0  2  0  0  3  0  0  0  0  0  0
  160.0810  202.3210  150.0950 C   0  0  0  0  0  2  0  0  0  0  0  0
  159.8500  202.0760  148.7420 O   0  0  0  0  0  0  0  0  0  0  0  0
  161.0990  201.7150  148.2320 C   0  0  0  0  0  2  0  0  0  0  0  0
  161.5800  203.3840  146.4400 C   0  0  0  0  0  1  0  0  0  0  0  0
  161.1390  201.9610  146.7340 C   0  0  0  0  0  2  0  0  0  0  0  0
  161.5950  210.4490  148.2600 O   0  0  0  0  0  0  0  0  0  0  0  0
  161.2300  212.6980  148.9920 C   0  0  0  0  0  1  0  0  0  0  0  0
  162.1520  211.4980  149.0440 C   0  0  0  0  0  2  0  0  0  0  0  0
  1  6  1  6  0  0  0
  1 12  1  0  0  0  0
  2  5  1  0  0  0  0
  2  1  1  0  0  0  0
  3  8  2  0  0  0  0
  4 10  1  0  0  0  0
  5  1  1  0  0  0  0
  6  9  1  0  0  0  0
  7  2  2  0  0  0  0
  9  3  1  0  0  0  0
 10  5  2  0  0  0  0
 11  7  1  0  0  0  0
 11  4  2  0  0  0  0
 12  3  1  0  0  0  0
 12 13  1  1  0  0  0
 13 16  2  0  0  0  0
 13 18  1  0  0  0  0
 14 17  1  0  0  0  0
 15 17  2  0  0  0  0
 16 15  1  0  0  0  0
 18 14  2  0  0  0  0
 19 21  1  0  0  0  0
 19 20  1  0  0  0  0
 21 17  1  6  0  0  0
 21 20  1  0  0  0  0
 22  9  1  0  0  0  0
 23 22  1  0  0  0  0
 24 23  1  0  0  0  0
 25 26  1  0  0  0  0
 26 24  1  0  0  0  0
 27  4  1  0  0  0  0
 27 29  1  0  0  0  0
 28 29  1  0  0  0  0
M  END
>  <MODEL>
8

>  <REMARK>
 VINA RESULT:      -4.3      2.934      7.045
  Name = 
  8 active torsions:
  status: ('A' for Active; 'I' for Inactive)
    1  A    between atoms: C_3  and  C_28
    2  A    between atoms: O_7  and  C_15
    3  A    between atoms: O_7  and  C_26
    4  A    between atoms: C_9  and  O_24
    5  A    between atoms: C_15  and  N_19
    6  A    between atoms: C_18  and  O_24
    7  A    between atoms: C_21  and  C_23
    8  A    between atoms: C_26  and  C_29
                            x       y       z     vdW  Elec       q    Type
                         _______ _______ _______ _____ _____    ______ ____

>  <TORSDO>
F 8

$$$$
=
 OpenBabel11052409553D

 29 33  0  0  1  0  0  0  0  0999 V2000
  161.2410  206.0230  150.8810 C   0  0  1  0  0  0  0  0  0  0  0  0
  161.8670  205.0020  151.6090 C   0  0  0  0  0  0  0  0  0  0  0  0
  162.0070  208.1520  150.4030 C   0  0  0  0  0  0  0  0  0  0  0  0
  160.9670  202.4700  151.1260 C   0  0  0  0  0  0  0  0  0  0  0  0
  160.7980  204.7130  150.6520 C   0  0  0  0  0  0  0  0  0  0  0  0
  160.4640  206.9820  151.7700 C   0  0  0  0  0  2  0  0  0  0  0  0
  162.5410  204.0940  152.3640 C   0  0  0  0  0  3  0  0  0  0  0  0
  162.6540  209.1360  149.9500 O   0  0  0  0  0  0  0  0  0  0  0  0
  161.0400  208.2750  151.4400 N   0  0  0  0  0  0  0  0  0  0  0  0
  160.2910  203.4870  150.3500 C   0  0  0  0  0  3  0  0  0  0  0  0
  162.0350  202.7770  152.0820 C   0  0  0  0  0  3  0  0  0  0  0  0
  162.1840  206.7540  149.9250 C   0  0  2  0  0  3  0  0  0  0  0  0
  161.7580  206.6100  148.4880 C   0  0  0  0  0  0  0  0  0  0  0  0
  160.0520  206.6120  146.7610 C   0  0  0  0  0  3  0  0  0  0  0  0
  162.3450  206.0850  146.1950 C   0  0  0  0  0  3  0  0  0  0  0  0
  162.7130  206.2510  147.5330 C   0  0  0  0  0  3  0  0  0  0  0  0
  161.0150  206.2820  145.7980 C   0  0  0  0  0  0  0  0  0  0  0  0
  160.4210  206.7780  148.0960 C   0  0  0  0  0  3  0  0  0  0  0  0
  160.4420  204.6110  144.1220 N   0  0  0  0  0  2  0  0  0  0  0  0
  161.6460  205.3140  143.6560 C   0  0  0  0  0  2  0  0  0  0  0  0
  160.6080  206.0550  144.3760 C   0  0  2  0  0  3  0  0  0  0  0  0
  160.5930  209.5330  152.0110 C   0  0  0  0  0  2  0  0  0  0  0  0
  161.3440  209.8240  153.1500 O   0  0  0  0  0  0  0  0  0  0  0  0
  160.4920  209.5290  154.2170 C   0  0  0  0  0  2  0  0  0  0  0  0
  160.3110  207.3510  155.4230 C   0  0  0  0  0  1  0  0  0  0  0  0
  161.1780  208.5730  155.1780 C   0  0  0  0  0  2  0  0  0  0  0  0
  160.6080  201.1270  150.9800 O   0  0  0  0  0  0  0  0  0  0  0  0
  161.3290  200.7490  148.7300 C   0  0  0  0  0  1  0  0  0  0  0  0
  160.2120  200.5620  149.7360 C   0  0  0  0  0  2  0  0  0  0  0  0
  1  2  1  0  0  0  0
  1  6  1  1  0  0  0
  2  7  1  0  0  0  0
  3  9  1  0  0  0  0
  4 11  1  0  0  0  0
  5  1  1  0  0  0  0
  5  2  2  0  0  0  0
  8  3  2  0  0  0  0
  9  6  1  0  0  0  0
  9 22  1  0  0  0  0
 10  5  1  0  0  0  0
 10  4  2  0  0  0  0
 11  7  2  0  0  0  0
 12 13  1  6  0  0  0
 12  3  1  0  0  0  0
 12  1  1  0  0  0  0
 14 18  2  0  0  0  0
 15 16  1  0  0  0  0
 16 13  2  0  0  0  0
 17 15  2  0  0  0  0
 17 14  1  0  0  0  0
 18 13  1  0  0  0  0
 19 21  1  0  0  0  0
 20 19  1  0  0  0  0
 20 21  1  0  0  0  0
 21 17  1  1  0  0  0
 22 23  1  0  0  0  0
 23 24  1  0  0  0  0
 24 26  1  0  0  0  0
 26 25  1  0  0  0  0
 27  4  1  0  0  0  0
 28 29  1  0  0  0  0
 29 27  1  0  0  0  0
M  END
>  <MODEL>
9

>  <REMARK>
 VINA RESULT:      -4.3      3.614      6.865
  Name = 
  8 active torsions:
  status: ('A' for Active; 'I' for Inactive)
    1  A    between atoms: C_3  and  C_28
    2  A    between atoms: O_7  and  C_15
    3  A    between atoms: O_7  and  C_26
    4  A    between atoms: C_9  and  O_24
    5  A    between atoms: C_15  and  N_19
    6  A    between atoms: C_18  and  O_24
    7  A    between atoms: C_21  and  C_23
    8  A    between atoms: C_26  and  C_29
                            x       y       z     vdW  Elec       q    Type
                         _______ _______ _______ _____ _____    ______ ____

>  <TORSDO>
F 8

$$$$
