=
 OpenBabel11052412023D

 40 44  0  0  1  0  0  0  0  0999 V2000
  161.0330  209.6720  154.9620 C   0  0  1  0  0  3  0  0  0  0  0  0
  160.3070  206.6220  153.0890 O   0  0  0  0  0  1  0  0  0  0  0  0
  161.3150  207.4860  153.5190 C   0  0  1  0  0  3  0  0  0  0  0  0
  161.6270  208.5000  152.4150 C   0  0  1  0  0  3  0  0  0  0  0  0
  161.5750  210.3880  153.7120 C   0  0  1  0  0  3  0  0  0  0  0  0
  162.4010  209.5640  152.9120 O   0  0  0  0  0  0  0  0  0  0  0  0
  160.8740  208.1790  154.7810 C   0  0  0  0  0  0  0  0  0  0  0  0
  160.4010  207.5180  155.6930 O   0  0  0  0  0  0  0  0  0  0  0  0
  160.5240  211.1210  152.9280 C   0  0  0  0  0  0  0  0  0  0  0  0
  160.2990  213.3390  150.0370 C   0  0  0  0  0  3  0  0  0  0  0  0
  159.9330  212.5780  151.1480 C   0  0  0  0  0  0  0  0  0  0  0  0
  158.5840  212.5550  151.5520 C   0  0  0  0  0  0  0  0  0  0  0  0
  159.3260  214.0670  149.3480 C   0  0  0  0  0  3  0  0  0  0  0  0
  157.9970  214.0220  149.7820 C   0  0  0  0  0  3  0  0  0  0  0  0
  160.8630  211.8680  151.8380 N   0  0  0  0  0  0  0  0  0  0  0  0
  157.6540  213.2730  150.8670 N   0  0  0  0  0  0  0  0  0  0  0  0
  158.2180  211.7960  152.6660 C   0  0  0  0  0  3  0  0  0  0  0  0
  159.1930  211.0780  153.3600 C   0  0  0  0  0  3  0  0  0  0  0  0
  161.8430  209.9840  156.1400 N   0  0  0  0  0  2  0  0  0  0  0  0
  160.9920  210.3650  157.1920 N   0  0  0  0  0  2  0  0  0  0  0  0
  161.4920  213.1210  157.0650 F   0  0  0  0  0  0  0  0  0  0  0  0
  157.5640  211.8040  156.5750 C   0  0  0  0  0  3  0  0  0  0  0  0
  157.8140  213.1160  156.5030 C   0  0  0  0  0  0  0  0  0  0  0  0
  160.1990  212.6700  157.2610 C   0  0  2  0  0  3  0  0  0  0  0  0
  160.0190  211.2900  156.6350 C   0  0  2  0  0  3  0  0  0  0  0  0
  158.6110  210.7920  156.9500 C   0  0  0  0  0  2  0  0  0  0  0  0
  159.2200  213.6590  156.6270 C   0  0  0  0  0  2  0  0  0  0  0  0
  155.6330  213.5880  155.3120 C   0  0  0  0  0  1  0  0  0  0  0  0
  156.7370  213.9920  156.1660 N   0  0  0  0  0  2  0  0  0  0  0  0
  162.3590  207.8510  151.2470 C   0  0  0  0  0  2  0  0  0  0  0  0
  161.9220  208.8990  149.0990 C   0  0  0  0  0  0  0  0  0  0  0  0
  162.2390  209.7650  148.2720 O   0  0  0  0  0  0  0  0  0  0  0  0
  161.5880  207.9880  149.9740 C   0  0  0  0  0  0  0  0  0  0  0  0
  160.5670  206.9580  149.6220 C   0  0  0  0  0  2  0  0  0  0  0  0
  161.6590  203.7650  147.8990 C   0  0  0  0  0  3  0  0  0  0  0  0
  161.4400  206.4920  147.3150 C   0  0  0  0  0  3  0  0  0  0  0  0
  161.9050  205.6040  146.3410 C   0  0  0  0  0  3  0  0  0  0  0  0
  161.1940  204.6520  148.8740 C   0  0  0  0  0  3  0  0  0  0  0  0
  162.0160  204.2420  146.6330 C   0  0  0  0  0  3  0  0  0  0  0  0
  161.0860  206.0180  148.5850 C   0  0  0  0  0  0  0  0  0  0  0  0
  1 19  1  1  0  0  0
  3  2  1  6  0  0  0
  3  7  1  0  0  0  0
  4 30  1  6  0  0  0
  4  6  1  0  0  0  0
  4  3  1  0  0  0  0
  5  9  1  6  0  0  0
  5  1  1  0  0  0  0
  6  5  1  0  0  0  0
  7  1  1  0  0  0  0
  7  8  2  0  0  0  0
  9 18  1  0  0  0  0
 10 11  1  0  0  0  0
 11 12  2  0  0  0  0
 11 15  1  0  0  0  0
 12 17  1  0  0  0  0
 13 14  1  0  0  0  0
 13 10  2  0  0  0  0
 14 16  2  0  0  0  0
 15  9  2  0  0  0  0
 16 12  1  0  0  0  0
 17 18  2  0  0  0  0
 19 20  1  0  0  0  0
 22 26  1  0  0  0  0
 23 22  2  0  0  0  0
 23 27  1  0  0  0  0
 24 21  1  6  0  0  0
 25 26  1  0  0  0  0
 25 20  1  1  0  0  0
 25 24  1  0  0  0  0
 27 24  1  0  0  0  0
 28 29  1  0  0  0  0
 29 23  1  0  0  0  0
 31 33  2  0  0  0  0
 32 31  2  0  0  0  0
 33 30  1  0  0  0  0
 34 33  1  0  0  0  0
 35 38  1  0  0  0  0
 36 40  1  0  0  0  0
 37 39  1  0  0  0  0
 37 36  2  0  0  0  0
 39 35  2  0  0  0  0
 40 38  2  0  0  0  0
 40 34  1  0  0  0  0
M  END
>  <MODEL>
1

>  <REMARK>
 VINA RESULT:      -6.8      0.000      0.000
  Name = 
  9 active torsions:
  status: ('A' for Active; 'I' for Inactive)
    1  A    between atoms: C_1  and  N_16
    2  A    between atoms: N_4  and  N_16
    3  A    between atoms: N_4  and  C_26
    4  A    between atoms: C_5  and  C_15
    5  A    between atoms: C_14  and  C_34
    6  A    between atoms: C_17  and  N_30
    7  A    between atoms: C_31  and  C_38
    8  A    between atoms: C_31  and  C_39
    9  A    between atoms: C_34  and  C_38
                            x       y       z     vdW  Elec       q    Type
                         _______ _______ _______ _____ _____    ______ ____

>  <TORSDO>
F 9

$$$$
=
 OpenBabel11052412023D

 40 44  0  0  1  0  0  0  0  0999 V2000
  161.0820  212.8740  147.3600 C   0  0  1  0  0  3  0  0  0  0  0  0
  157.7820  213.2150  148.8880 O   0  0  0  0  0  1  0  0  0  0  0  0
  159.0420  213.7990  148.7470 C   0  0  1  0  0  3  0  0  0  0  0  0
  159.9280  213.3990  149.9300 C   0  0  1  0  0  3  0  0  0  0  0  0
  161.7770  212.7770  148.7290 C   0  0  1  0  0  3  0  0  0  0  0  0
  161.2780  213.7030  149.6750 O   0  0  0  0  0  0  0  0  0  0  0  0
  159.6520  213.3610  147.4420 C   0  0  0  0  0  0  0  0  0  0  0  0
  158.9870  213.4250  146.4190 O   0  0  0  0  0  0  0  0  0  0  0  0
  161.8810  211.3760  149.2610 C   0  0  0  0  0  0  0  0  0  0  0  0
  161.6790  207.9470  148.0260 C   0  0  0  0  0  3  0  0  0  0  0  0
  161.8050  209.0310  148.8960 C   0  0  0  0  0  0  0  0  0  0  0  0
  161.9700  208.7930  150.2750 C   0  0  0  0  0  0  0  0  0  0  0  0
  161.7170  206.6460  148.5350 C   0  0  0  0  0  3  0  0  0  0  0  0
  161.8790  206.4500  149.9110 C   0  0  0  0  0  3  0  0  0  0  0  0
  161.7640  210.3050  148.4250 N   0  0  0  0  0  0  0  0  0  0  0  0
  162.0010  207.5170  150.7470 N   0  0  0  0  0  0  0  0  0  0  0  0
  162.0920  209.8780  151.1450 C   0  0  0  0  0  3  0  0  0  0  0  0
  162.0430  211.1770  150.6370 C   0  0  0  0  0  3  0  0  0  0  0  0
  161.8680  213.6810  146.4250 N   0  0  0  0  0  2  0  0  0  0  0  0
  162.4090  212.8390  145.4380 N   0  0  0  0  0  2  0  0  0  0  0  0
  160.2480  211.9870  143.8690 F   0  0  0  0  0  0  0  0  0  0  0  0
  163.1990  214.3190  142.0630 C   0  0  0  0  0  3  0  0  0  0  0  0
  162.1570  213.9190  141.3250 C   0  0  0  0  0  0  0  0  0  0  0  0
  161.4000  212.4470  143.2540 C   0  0  2  0  0  3  0  0  0  0  0  0
  162.1150  213.4500  144.1530 C   0  0  2  0  0  3  0  0  0  0  0  0
  163.4210  213.8630  143.4780 C   0  0  0  0  0  2  0  0  0  0  0  0
  161.0300  213.1090  141.9260 C   0  0  0  0  0  2  0  0  0  0  0  0
  162.0560  213.4990  138.8320 C   0  0  0  0  0  1  0  0  0  0  0  0
  162.0600  214.3910  139.9810 N   0  0  0  0  0  2  0  0  0  0  0  0
  159.4930  214.0900  151.2160 C   0  0  0  0  0  2  0  0  0  0  0  0
  157.3410  213.7600  152.2940 C   0  0  0  0  0  0  0  0  0  0  0  0
  156.2370  214.2320  152.5960 O   0  0  0  0  0  0  0  0  0  0  0  0
  158.5070  213.2640  151.9760 C   0  0  0  0  0  0  0  0  0  0  0  0
  158.7840  211.8140  152.1970 C   0  0  0  0  0  2  0  0  0  0  0  0
  160.8360  211.4210  155.3580 C   0  0  0  0  0  3  0  0  0  0  0  0
  158.1630  211.2290  154.5580 C   0  0  0  0  0  3  0  0  0  0  0  0
  158.5100  211.0030  155.8930 C   0  0  0  0  0  3  0  0  0  0  0  0
  160.4900  211.6470  154.0230 C   0  0  0  0  0  3  0  0  0  0  0  0
  159.8470  211.0970  156.2930 C   0  0  0  0  0  3  0  0  0  0  0  0
  159.1520  211.5480  153.6200 C   0  0  0  0  0  0  0  0  0  0  0  0
  1 19  1  6  0  0  0
  1  7  1  0  0  0  0
  1  5  1  0  0  0  0
  3  2  1  1  0  0  0
  3  4  1  0  0  0  0
  4 30  1  1  0  0  0
  5  9  1  1  0  0  0
  5  6  1  0  0  0  0
  6  4  1  0  0  0  0
  7  3  1  0  0  0  0
  8  7  2  0  0  0  0
  9 18  1  0  0  0  0
 10 13  2  0  0  0  0
 10 11  1  0  0  0  0
 11 12  2  0  0  0  0
 12 16  1  0  0  0  0
 12 17  1  0  0  0  0
 13 14  1  0  0  0  0
 14 16  2  0  0  0  0
 15 11  1  0  0  0  0
 15  9  2  0  0  0  0
 18 17  2  0  0  0  0
 20 19  1  0  0  0  0
 22 26  1  0  0  0  0
 23 27  1  0  0  0  0
 23 22  2  0  0  0  0
 24 21  1  1  0  0  0
 24 25  1  0  0  0  0
 25 20  1  1  0  0  0
 26 25  1  0  0  0  0
 27 24  1  0  0  0  0
 28 29  1  0  0  0  0
 29 23  1  0  0  0  0
 30 33  1  0  0  0  0
 31 32  2  0  0  0  0
 33 34  1  0  0  0  0
 33 31  2  0  0  0  0
 34 40  1  0  0  0  0
 35 39  1  0  0  0  0
 36 37  1  0  0  0  0
 37 39  2  0  0  0  0
 38 35  2  0  0  0  0
 40 38  1  0  0  0  0
 40 36  2  0  0  0  0
M  END
>  <MODEL>
2

>  <REMARK>
 VINA RESULT:      -6.2      5.175     10.039
  Name = 
  9 active torsions:
  status: ('A' for Active; 'I' for Inactive)
    1  A    between atoms: C_1  and  N_16
    2  A    between atoms: N_4  and  N_16
    3  A    between atoms: N_4  and  C_26
    4  A    between atoms: C_5  and  C_15
    5  A    between atoms: C_14  and  C_34
    6  A    between atoms: C_17  and  N_30
    7  A    between atoms: C_31  and  C_38
    8  A    between atoms: C_31  and  C_39
    9  A    between atoms: C_34  and  C_38
                            x       y       z     vdW  Elec       q    Type
                         _______ _______ _______ _____ _____    ______ ____

>  <TORSDO>
F 9

$$$$
=
 OpenBabel11052412023D

 40 44  0  0  1  0  0  0  0  0999 V2000
  161.7160  208.6890  150.4090 C   0  0  1  0  0  3  0  0  0  0  0  0
  160.8730  210.4580  147.3270 O   0  0  0  0  0  1  0  0  0  0  0  0
  161.8920  210.1700  148.2380 C   0  0  1  0  0  3  0  0  0  0  0  0
  161.9950  211.3010  149.2650 C   0  0  1  0  0  3  0  0  0  0  0  0
  162.0400  209.9990  151.1490 C   0  0  1  0  0  3  0  0  0  0  0  0
  162.7820  210.9130  150.3650 O   0  0  0  0  0  0  0  0  0  0  0  0
  161.6030  208.8540  148.9100 C   0  0  0  0  0  0  0  0  0  0  0  0
  161.2950  207.8880  148.2280 O   0  0  0  0  0  0  0  0  0  0  0  0
  160.8550  210.6200  151.8320 C   0  0  0  0  0  0  0  0  0  0  0  0
  159.1920  213.8630  152.0370 C   0  0  0  0  0  3  0  0  0  0  0  0
  159.5000  212.5220  152.2650 C   0  0  0  0  0  0  0  0  0  0  0  0
  158.7240  211.7830  153.1800 C   0  0  0  0  0  0  0  0  0  0  0  0
  158.1240  214.4530  152.7200 C   0  0  0  0  0  3  0  0  0  0  0  0
  157.3810  213.6870  153.6240 C   0  0  0  0  0  3  0  0  0  0  0  0
  160.5370  211.9300  151.6180 N   0  0  0  0  0  0  0  0  0  0  0  0
  157.6910  212.3790  153.8360 N   0  0  0  0  0  0  0  0  0  0  0  0
  159.0350  210.4420  153.4120 C   0  0  0  0  0  3  0  0  0  0  0  0
  160.1080  209.8570  152.7370 C   0  0  0  0  0  3  0  0  0  0  0  0
  162.6700  207.6360  150.7600 N   0  0  0  0  0  2  0  0  0  0  0  0
  162.2050  206.9590  151.9010 N   0  0  0  0  0  2  0  0  0  0  0  0
  161.1790  205.0440  153.6740 F   0  0  0  0  0  0  0  0  0  0  0  0
  161.2410  204.1320  149.6030 C   0  0  0  0  0  3  0  0  0  0  0  0
  160.7410  203.2300  150.4550 C   0  0  0  0  0  0  0  0  0  0  0  0
  161.5430  204.6650  152.3930 C   0  0  2  0  0  3  0  0  0  0  0  0
  161.4030  205.8410  151.4330 C   0  0  2  0  0  3  0  0  0  0  0  0
  161.8970  205.4060  150.0550 C   0  0  0  0  0  2  0  0  0  0  0  0
  160.6470  203.5120  151.9380 C   0  0  0  0  0  2  0  0  0  0  0  0
  160.6140  201.4420  148.6690 C   0  0  0  0  0  1  0  0  0  0  0  0
  160.1660  202.0380  149.9170 N   0  0  0  0  0  2  0  0  0  0  0  0
  162.5830  212.5650  148.6500 C   0  0  0  0  0  2  0  0  0  0  0  0
  160.3130  213.3930  148.3910 C   0  0  0  0  0  0  0  0  0  0  0  0
  159.1520  213.4170  148.8200 O   0  0  0  0  0  0  0  0  0  0  0  0
  161.5400  213.3650  147.9400 C   0  0  0  0  0  0  0  0  0  0  0  0
  161.9460  214.2810  146.8340 C   0  0  0  0  0  2  0  0  0  0  0  0
  160.4550  212.5080  143.8370 C   0  0  0  0  0  3  0  0  0  0  0  0
  162.9380  213.4910  144.6670 C   0  0  0  0  0  3  0  0  0  0  0  0
  162.8120  212.8810  143.4160 C   0  0  0  0  0  3  0  0  0  0  0  0
  160.5800  213.1180  145.0880 C   0  0  0  0  0  3  0  0  0  0  0  0
  161.5710  212.3880  143.0020 C   0  0  0  0  0  3  0  0  0  0  0  0
  161.8230  213.6090  145.5070 C   0  0  0  0  0  0  0  0  0  0  0  0
  1 19  1  6  0  0  0
  1  5  1  0  0  0  0
  3  2  1  6  0  0  0
  3  7  1  0  0  0  0
  3  4  1  0  0  0  0
  4 30  1  6  0  0  0
  4  6  1  0  0  0  0
  5  9  1  6  0  0  0
  6  5  1  0  0  0  0
  7  1  1  0  0  0  0
  8  7  2  0  0  0  0
  9 18  1  0  0  0  0
 10 11  2  0  0  0  0
 10 13  1  0  0  0  0
 11 12  1  0  0  0  0
 12 17  1  0  0  0  0
 12 16  2  0  0  0  0
 13 14  2  0  0  0  0
 14 16  1  0  0  0  0
 15  9  2  0  0  0  0
 15 11  1  0  0  0  0
 18 17  2  0  0  0  0
 19 20  1  0  0  0  0
 22 26  1  0  0  0  0
 22 23  2  0  0  0  0
 23 27  1  0  0  0  0
 24 21  1  1  0  0  0
 25 20  1  1  0  0  0
 25 24  1  0  0  0  0
 26 25  1  0  0  0  0
 27 24  1  0  0  0  0
 28 29  1  0  0  0  0
 29 23  1  0  0  0  0
 31 32  2  0  0  0  0
 33 31  2  0  0  0  0
 33 30  1  0  0  0  0
 34 33  1  0  0  0  0
 35 38  1  0  0  0  0
 36 40  1  0  0  0  0
 37 36  2  0  0  0  0
 38 40  2  0  0  0  0
 39 37  1  0  0  0  0
 39 35  2  0  0  0  0
 40 34  1  0  0  0  0
M  END
>  <MODEL>
3

>  <REMARK>
 VINA RESULT:      -6.0      3.810      7.241
  Name = 
  9 active torsions:
  status: ('A' for Active; 'I' for Inactive)
    1  A    between atoms: C_1  and  N_16
    2  A    between atoms: N_4  and  N_16
    3  A    between atoms: N_4  and  C_26
    4  A    between atoms: C_5  and  C_15
    5  A    between atoms: C_14  and  C_34
    6  A    between atoms: C_17  and  N_30
    7  A    between atoms: C_31  and  C_38
    8  A    between atoms: C_31  and  C_39
    9  A    between atoms: C_34  and  C_38
                            x       y       z     vdW  Elec       q    Type
                         _______ _______ _______ _____ _____    ______ ____

>  <TORSDO>
F 9

$$$$
=
 OpenBabel11052412023D

 40 44  0  0  1  0  0  0  0  0999 V2000
  161.4040  210.9670  149.9950 C   0  0  1  0  0  3  0  0  0  0  0  0
  159.5430  211.1500  153.1320 O   0  0  0  0  0  1  0  0  0  0  0  0
  160.7820  211.3620  152.5240 C   0  0  1  0  0  3  0  0  0  0  0  0
  161.6680  210.1280  152.7230 C   0  0  1  0  0  3  0  0  0  0  0  0
  162.3660  209.9030  150.5520 C   0  0  1  0  0  3  0  0  0  0  0  0
  162.7900  210.1720  151.8750 O   0  0  0  0  0  0  0  0  0  0  0  0
  160.5770  211.6510  151.0610 C   0  0  0  0  0  0  0  0  0  0  0  0
  159.7410  212.4750  150.7250 O   0  0  0  0  0  0  0  0  0  0  0  0
  161.8930  208.4910  150.3520 C   0  0  0  0  0  0  0  0  0  0  0  0
  161.9410  205.2990  152.1220 C   0  0  0  0  0  3  0  0  0  0  0  0
  161.7210  206.2540  151.1280 C   0  0  0  0  0  0  0  0  0  0  0  0
  161.1050  205.8630  149.9230 C   0  0  0  0  0  0  0  0  0  0  0  0
  161.5520  203.9740  151.9060 C   0  0  0  0  0  3  0  0  0  0  0  0
  160.9470  203.6250  150.6940 C   0  0  0  0  0  3  0  0  0  0  0  0
  162.0970  207.5460  151.3140 N   0  0  0  0  0  0  0  0  0  0  0  0
  160.7370  204.5670  149.7340 N   0  0  0  0  0  0  0  0  0  0  0  0
  160.8880  206.8180  148.9270 C   0  0  0  0  0  3  0  0  0  0  0  0
  161.2860  208.1380  149.1400 C   0  0  0  0  0  3  0  0  0  0  0  0
  162.1180  211.9410  149.1670 N   0  0  0  0  0  2  0  0  0  0  0  0
  161.3380  213.1040  149.0540 N   0  0  0  0  0  2  0  0  0  0  0  0
  159.0450  212.6280  147.5130 F   0  0  0  0  0  0  0  0  0  0  0  0
  162.6360  213.3820  145.5270 C   0  0  0  0  0  3  0  0  0  0  0  0
  161.5340  213.1670  144.7990 C   0  0  0  0  0  0  0  0  0  0  0  0
  160.2950  212.5320  146.9260 C   0  0  2  0  0  3  0  0  0  0  0  0
  161.2870  213.4440  147.6420 C   0  0  2  0  0  3  0  0  0  0  0  0
  162.6680  213.2410  147.0230 C   0  0  0  0  0  2  0  0  0  0  0  0
  160.1910  212.9320  145.4540 C   0  0  0  0  0  2  0  0  0  0  0  0
  161.9970  212.2010  142.5080 C   0  0  0  0  0  1  0  0  0  0  0  0
  161.6240  213.3020  143.3810 N   0  0  0  0  0  2  0  0  0  0  0  0
  162.1360  210.0000  154.1660 C   0  0  0  0  0  2  0  0  0  0  0  0
  160.7110  208.0800  154.5990 C   0  0  0  0  0  0  0  0  0  0  0  0
  160.2960  206.9770  154.2190 O   0  0  0  0  0  0  0  0  0  0  0  0
  161.1500  209.2450  154.9970 C   0  0  0  0  0  0  0  0  0  0  0  0
  160.8190  209.7350  156.3670 C   0  0  0  0  0  2  0  0  0  0  0  0
  159.6880  213.3500  156.2690 C   0  0  0  0  0  3  0  0  0  0  0  0
  158.5510  210.7960  156.1910 C   0  0  0  0  0  3  0  0  0  0  0  0
  157.7330  211.9270  156.1150 C   0  0  0  0  0  3  0  0  0  0  0  0
  160.5070  212.2200  156.3450 C   0  0  0  0  0  3  0  0  0  0  0  0
  158.3010  213.2040  156.1560 C   0  0  0  0  0  3  0  0  0  0  0  0
  159.9390  210.9400  156.3100 C   0  0  0  0  0  0  0  0  0  0  0  0
  1 19  1  1  0  0  0
  1  5  1  0  0  0  0
  1  7  1  0  0  0  0
  3  4  1  0  0  0  0
  3  2  1  6  0  0  0
  4 30  1  1  0  0  0
  5  9  1  1  0  0  0
  5  6  1  0  0  0  0
  6  4  1  0  0  0  0
  7  3  1  0  0  0  0
  8  7  2  0  0  0  0
  9 15  1  0  0  0  0
 11 15  2  0  0  0  0
 11 10  1  0  0  0  0
 12 11  1  0  0  0  0
 13 10  2  0  0  0  0
 14 13  1  0  0  0  0
 16 12  1  0  0  0  0
 16 14  2  0  0  0  0
 17 18  1  0  0  0  0
 17 12  2  0  0  0  0
 18  9  2  0  0  0  0
 20 19  1  0  0  0  0
 22 26  1  0  0  0  0
 23 27  1  0  0  0  0
 23 22  2  0  0  0  0
 24 21  1  1  0  0  0
 24 25  1  0  0  0  0
 25 20  1  1  0  0  0
 26 25  1  0  0  0  0
 27 24  1  0  0  0  0
 28 29  1  0  0  0  0
 29 23  1  0  0  0  0
 30 33  1  0  0  0  0
 31 33  2  0  0  0  0
 32 31  2  0  0  0  0
 33 34  1  0  0  0  0
 35 38  1  0  0  0  0
 36 40  1  0  0  0  0
 37 39  1  0  0  0  0
 37 36  2  0  0  0  0
 39 35  2  0  0  0  0
 40 38  2  0  0  0  0
 40 34  1  0  0  0  0
M  END
>  <MODEL>
4

>  <REMARK>
 VINA RESULT:      -5.9      3.530      8.796
  Name = 
  9 active torsions:
  status: ('A' for Active; 'I' for Inactive)
    1  A    between atoms: C_1  and  N_16
    2  A    between atoms: N_4  and  N_16
    3  A    between atoms: N_4  and  C_26
    4  A    between atoms: C_5  and  C_15
    5  A    between atoms: C_14  and  C_34
    6  A    between atoms: C_17  and  N_30
    7  A    between atoms: C_31  and  C_38
    8  A    between atoms: C_31  and  C_39
    9  A    between atoms: C_34  and  C_38
                            x       y       z     vdW  Elec       q    Type
                         _______ _______ _______ _____ _____    ______ ____

>  <TORSDO>
F 9

$$$$
=
 OpenBabel11052412023D

 40 44  0  0  1  0  0  0  0  0999 V2000
  160.8180  211.1100  150.8370 C   0  0  1  0  0  3  0  0  0  0  0  0
  159.1520  210.9470  154.0830 O   0  0  0  0  0  1  0  0  0  0  0  0
  160.2980  211.3700  153.4060 C   0  0  1  0  0  3  0  0  0  0  0  0
  161.3880  210.3010  153.5260 C   0  0  1  0  0  3  0  0  0  0  0  0
  161.9770  210.2170  151.3140 C   0  0  1  0  0  3  0  0  0  0  0  0
  162.4310  210.5410  152.6140 O   0  0  0  0  0  0  0  0  0  0  0  0
  159.9570  211.6350  151.9630 C   0  0  0  0  0  0  0  0  0  0  0  0
  158.9750  212.3110  151.6950 O   0  0  0  0  0  0  0  0  0  0  0  0
  161.7340  208.7480  151.1140 C   0  0  0  0  0  0  0  0  0  0  0  0
  161.4040  206.3670  148.3670 C   0  0  0  0  0  3  0  0  0  0  0  0
  161.4350  206.8960  149.6570 C   0  0  0  0  0  0  0  0  0  0  0  0
  161.1820  206.0510  150.7550 C   0  0  0  0  0  0  0  0  0  0  0  0
  161.1190  205.0110  148.1830 C   0  0  0  0  0  3  0  0  0  0  0  0
  160.8680  204.2050  149.2980 C   0  0  0  0  0  3  0  0  0  0  0  0
  161.7030  208.2130  149.8590 N   0  0  0  0  0  0  0  0  0  0  0  0
  160.9040  204.7350  150.5520 N   0  0  0  0  0  0  0  0  0  0  0  0
  161.2090  206.5820  152.0460 C   0  0  0  0  0  3  0  0  0  0  0  0
  161.4840  207.9380  152.2270 C   0  0  0  0  0  3  0  0  0  0  0  0
  161.3070  212.1980  149.9870 N   0  0  0  0  0  2  0  0  0  0  0  0
  162.3400  211.7100  149.1690 N   0  0  0  0  0  2  0  0  0  0  0  0
  163.5310  214.0950  148.3000 F   0  0  0  0  0  0  0  0  0  0  0  0
  160.3100  212.5880  146.1180 C   0  0  0  0  0  2  0  0  0  0  0  0
  160.8930  213.7180  145.7020 C   0  0  0  0  0  0  0  0  0  0  0  0
  162.2730  213.7510  147.8370 C   0  0  2  0  0  3  0  0  0  0  0  0
  162.1060  212.2340  147.8340 C   0  0  2  0  0  3  0  0  0  0  0  0
  160.6790  211.9030  147.4040 C   0  0  0  0  0  2  0  0  0  0  0  0
  162.0920  214.2960  146.4200 C   0  0  0  0  0  2  0  0  0  0  0  0
  159.4230  213.6880  143.6440 C   0  0  0  0  0  1  0  0  0  0  0  0
  160.4440  214.3000  144.4780 N   0  0  0  0  0  0  0  0  0  0  0  0
  161.9600  210.2390  154.9360 C   0  0  0  0  0  2  0  0  0  0  0  0
  160.5410  208.3730  155.5790 C   0  0  0  0  0  0  0  0  0  0  0  0
  160.0840  207.2590  155.2940 O   0  0  0  0  0  0  0  0  0  0  0  0
  161.0250  209.5510  155.8770 C   0  0  0  0  0  0  0  0  0  0  0  0
  160.8010  210.1240  157.2370 C   0  0  0  0  0  2  0  0  0  0  0  0
  157.9140  212.5770  157.2040 C   0  0  0  0  0  3  0  0  0  0  0  0
  160.7050  212.6240  157.0300 C   0  0  0  0  0  3  0  0  0  0  0  0
  159.9830  213.8190  156.9830 C   0  0  0  0  0  3  0  0  0  0  0  0
  158.6360  211.3810  157.2520 C   0  0  0  0  0  3  0  0  0  0  0  0
  158.5870  213.7960  157.0680 C   0  0  0  0  0  3  0  0  0  0  0  0
  160.0330  211.4020  157.1620 C   0  0  0  0  0  0  0  0  0  0  0  0
  1 19  1  1  0  0  0
  1  5  1  0  0  0  0
  1  7  1  0  0  0  0
  3  4  1  0  0  0  0
  3  2  1  1  0  0  0
  4 30  1  1  0  0  0
  5  9  1  1  0  0  0
  5  6  1  0  0  0  0
  6  4  1  0  0  0  0
  7  3  1  0  0  0  0
  8  7  2  0  0  0  0
  9 18  1  0  0  0  0
 10 11  1  0  0  0  0
 11 15  1  0  0  0  0
 11 12  2  0  0  0  0
 12 17  1  0  0  0  0
 13 10  2  0  0  0  0
 13 14  1  0  0  0  0
 14 16  2  0  0  0  0
 15  9  2  0  0  0  0
 16 12  1  0  0  0  0
 17 18  2  0  0  0  0
 20 19  1  0  0  0  0
 22 26  1  0  0  0  0
 23 22  1  0  0  0  0
 23 27  1  0  0  0  0
 24 21  1  6  0  0  0
 25 24  1  0  0  0  0
 25 20  1  1  0  0  0
 26 25  1  0  0  0  0
 27 24  1  0  0  0  0
 28 29  1  0  0  0  0
 29 23  2  0  0  0  0
 30 33  1  0  0  0  0
 31 33  2  0  0  0  0
 32 31  2  0  0  0  0
 33 34  1  0  0  0  0
 35 38  1  0  0  0  0
 36 40  1  0  0  0  0
 37 36  2  0  0  0  0
 37 39  1  0  0  0  0
 39 35  2  0  0  0  0
 40 34  1  0  0  0  0
 40 38  2  0  0  0  0
M  END
>  <MODEL>
5

>  <REMARK>
 VINA RESULT:      -5.8      3.097      8.532
  Name = 
  9 active torsions:
  status: ('A' for Active; 'I' for Inactive)
    1  A    between atoms: C_1  and  N_16
    2  A    between atoms: N_4  and  N_16
    3  A    between atoms: N_4  and  C_26
    4  A    between atoms: C_5  and  C_15
    5  A    between atoms: C_14  and  C_34
    6  A    between atoms: C_17  and  N_30
    7  A    between atoms: C_31  and  C_38
    8  A    between atoms: C_31  and  C_39
    9  A    between atoms: C_34  and  C_38
                            x       y       z     vdW  Elec       q    Type
                         _______ _______ _______ _____ _____    ______ ____

>  <TORSDO>
F 9

$$$$
=
 OpenBabel11052412023D

 40 44  0  0  1  0  0  0  0  0999 V2000
  161.8540  209.1500  150.1690 C   0  0  1  0  0  3  0  0  0  0  0  0
  160.0820  207.0650  152.5870 O   0  0  0  0  0  1  0  0  0  0  0  0
  161.3330  207.5320  152.1810 C   0  0  1  0  0  3  0  0  0  0  0  0
  161.9880  206.5020  151.2560 C   0  0  1  0  0  3  0  0  0  0  0  0
  162.6170  207.9450  149.5910 C   0  0  1  0  0  3  0  0  0  0  0  0
  163.0930  207.0580  150.5850 O   0  0  0  0  0  0  0  0  0  0  0  0
  161.1700  208.8570  151.4850 C   0  0  0  0  0  0  0  0  0  0  0  0
  160.4900  209.7270  152.0080 O   0  0  0  0  0  0  0  0  0  0  0  0
  161.9000  207.2540  148.4670 C   0  0  0  0  0  0  0  0  0  0  0  0
  162.6800  205.6670  145.2730 C   0  0  0  0  0  3  0  0  0  0  0  0
  161.9550  206.1700  146.3540 C   0  0  0  0  0  0  0  0  0  0  0  0
  160.5500  206.0710  146.3470 C   0  0  0  0  0  0  0  0  0  0  0  0
  162.0020  205.0780  144.2020 C   0  0  0  0  0  3  0  0  0  0  0  0
  160.6060  205.0030  144.2300 C   0  0  0  0  0  3  0  0  0  0  0  0
  162.5920  206.7530  147.4030 N   0  0  0  0  0  0  0  0  0  0  0  0
  159.9120  205.4960  145.2920 N   0  0  0  0  0  0  0  0  0  0  0  0
  159.8250  206.5780  147.4270 C   0  0  0  0  0  3  0  0  0  0  0  0
  160.5020  207.1760  148.4920 C   0  0  0  0  0  3  0  0  0  0  0  0
  162.7220  210.3250  150.2680 N   0  0  0  0  0  2  0  0  0  0  0  0
  161.9590  211.4800  150.0230 N   0  0  0  0  0  2  0  0  0  0  0  0
  164.1690  212.5150  148.6440 F   0  0  0  0  0  0  0  0  0  0  0  0
  160.4760  212.4700  146.7020 C   0  0  0  0  0  3  0  0  0  0  0  0
  161.5400  212.9490  146.0470 C   0  0  0  0  0  0  0  0  0  0  0  0
  162.8910  212.7960  148.1940 C   0  0  2  0  0  3  0  0  0  0  0  0
  161.9340  211.6720  148.5820 C   0  0  2  0  0  3  0  0  0  0  0  0
  160.5240  212.0630  148.1490 C   0  0  0  0  0  2  0  0  0  0  0  0
  162.9160  212.9540  146.6740 C   0  0  0  0  0  2  0  0  0  0  0  0
  162.3140  212.9530  143.6390 C   0  0  0  0  0  1  0  0  0  0  0  0
  161.3750  213.3330  144.6810 N   0  0  0  0  0  2  0  0  0  0  0  0
  162.4380  205.2650  152.0220 C   0  0  0  0  0  2  0  0  0  0  0  0
  162.1380  202.8550  151.9530 C   0  0  0  0  0  0  0  0  0  0  0  0
  162.4750  201.7440  152.3860 O   0  0  0  0  0  0  0  0  0  0  0  0
  161.7850  204.0280  151.4980 C   0  0  0  0  0  0  0  0  0  0  0  0
  160.5990  204.1500  150.5990 C   0  0  0  0  0  2  0  0  0  0  0  0
  161.4460  202.5780  147.2580 C   0  0  0  0  0  3  0  0  0  0  0  0
  160.0820  201.9040  149.6040 C   0  0  0  0  0  3  0  0  0  0  0  0
  160.1720  200.9800  148.5600 C   0  0  0  0  0  3  0  0  0  0  0  0
  161.3570  203.5020  148.3030 C   0  0  0  0  0  3  0  0  0  0  0  0
  160.8520  201.3180  147.3860 C   0  0  0  0  0  3  0  0  0  0  0  0
  160.6720  203.1680  149.4770 C   0  0  0  0  0  0  0  0  0  0  0  0
  1 19  1  1  0  0  0
  1  7  1  0  0  0  0
  3  2  1  6  0  0  0
  4 30  1  1  0  0  0
  4  3  1  0  0  0  0
  5  9  1  6  0  0  0
  5  1  1  0  0  0  0
  5  6  1  0  0  0  0
  6  4  1  0  0  0  0
  7  8  2  0  0  0  0
  7  3  1  0  0  0  0
  9 18  1  0  0  0  0
 10 11  1  0  0  0  0
 11 15  1  0  0  0  0
 12 11  2  0  0  0  0
 12 17  1  0  0  0  0
 13 14  1  0  0  0  0
 13 10  2  0  0  0  0
 14 16  2  0  0  0  0
 15  9  2  0  0  0  0
 16 12  1  0  0  0  0
 17 18  2  0  0  0  0
 20 19  1  0  0  0  0
 22 26  1  0  0  0  0
 23 27  1  0  0  0  0
 23 22  2  0  0  0  0
 24 25  1  0  0  0  0
 24 21  1  6  0  0  0
 25 20  1  1  0  0  0
 26 25  1  0  0  0  0
 27 24  1  0  0  0  0
 28 29  1  0  0  0  0
 29 23  1  0  0  0  0
 31 32  2  0  0  0  0
 33 31  2  0  0  0  0
 33 30  1  0  0  0  0
 34 33  1  0  0  0  0
 35 39  2  0  0  0  0
 35 38  1  0  0  0  0
 37 36  2  0  0  0  0
 38 40  2  0  0  0  0
 39 37  1  0  0  0  0
 40 36  1  0  0  0  0
 40 34  1  0  0  0  0
M  END
>  <MODEL>
6

>  <REMARK>
 VINA RESULT:      -5.7      4.390      7.360
  Name = 
  9 active torsions:
  status: ('A' for Active; 'I' for Inactive)
    1  A    between atoms: C_1  and  N_16
    2  A    between atoms: N_4  and  N_16
    3  A    between atoms: N_4  and  C_26
    4  A    between atoms: C_5  and  C_15
    5  A    between atoms: C_14  and  C_34
    6  A    between atoms: C_17  and  N_30
    7  A    between atoms: C_31  and  C_38
    8  A    between atoms: C_31  and  C_39
    9  A    between atoms: C_34  and  C_38
                            x       y       z     vdW  Elec       q    Type
                         _______ _______ _______ _____ _____    ______ ____

>  <TORSDO>
F 9

$$$$
=
 OpenBabel11052412023D

 40 44  0  0  1  0  0  0  0  0999 V2000
  161.7070  208.8290  150.9170 C   0  0  1  0  0  3  0  0  0  0  0  0
  160.0810  206.3560  153.0560 O   0  0  0  0  0  1  0  0  0  0  0  0
  161.2990  206.9440  152.7120 C   0  0  1  0  0  3  0  0  0  0  0  0
  162.0080  206.0790  151.6660 C   0  0  1  0  0  3  0  0  0  0  0  0
  162.5370  207.7540  150.1940 C   0  0  1  0  0  3  0  0  0  0  0  0
  163.0720  206.7800  151.0700 O   0  0  0  0  0  0  0  0  0  0  0  0
  161.0520  208.3340  152.1870 C   0  0  0  0  0  0  0  0  0  0  0  0
  160.3250  209.0900  152.8140 O   0  0  0  0  0  0  0  0  0  0  0  0
  161.8540  207.1660  148.9920 C   0  0  0  0  0  0  0  0  0  0  0  0
  162.7260  205.8940  145.6830 C   0  0  0  0  0  3  0  0  0  0  0  0
  161.9710  206.2870  146.7890 C   0  0  0  0  0  0  0  0  0  0  0  0
  160.5670  206.1770  146.7380 C   0  0  0  0  0  0  0  0  0  0  0  0
  162.0810  205.4030  144.5450 C   0  0  0  0  0  3  0  0  0  0  0  0
  160.6850  205.3140  144.5310 C   0  0  0  0  0  3  0  0  0  0  0  0
  162.5760  206.7740  147.9040 N   0  0  0  0  0  0  0  0  0  0  0  0
  159.9610  205.6990  145.6180 N   0  0  0  0  0  0  0  0  0  0  0  0
  159.8120  206.5740  147.8430 C   0  0  0  0  0  3  0  0  0  0  0  0
  160.4570  207.0740  148.9750 C   0  0  0  0  0  3  0  0  0  0  0  0
  162.5040  210.0320  151.1630 N   0  0  0  0  0  2  0  0  0  0  0  0
  162.6620  210.7310  149.9530 N   0  0  0  0  0  2  0  0  0  0  0  0
  162.1270  211.9410  147.4810 F   0  0  0  0  0  0  0  0  0  0  0  0
  159.7680  213.0090  150.7520 C   0  0  0  0  0  3  0  0  0  0  0  0
  159.5110  213.5710  149.5660 C   0  0  0  0  0  0  0  0  0  0  0  0
  161.6250  212.5050  148.6410 C   0  0  2  0  0  3  0  0  0  0  0  0
  161.4130  211.4310  149.7030 C   0  0  2  0  0  3  0  0  0  0  0  0
  160.9460  212.1060  150.9910 C   0  0  0  0  0  2  0  0  0  0  0  0
  160.2980  213.1970  148.3290 C   0  0  0  0  0  2  0  0  0  0  0  0
  157.0140  213.9440  149.4010 C   0  0  0  0  0  1  0  0  0  0  0  0
  158.3810  214.4370  149.4590 N   0  0  0  0  0  2  0  0  0  0  0  0
  162.5370  204.7860  152.2720 C   0  0  0  0  0  2  0  0  0  0  0  0
  162.3350  202.3870  151.9370 C   0  0  0  0  0  0  0  0  0  0  0  0
  162.7380  201.2520  152.2230 O   0  0  0  0  0  0  0  0  0  0  0  0
  161.9110  203.5870  151.6360 C   0  0  0  0  0  0  0  0  0  0  0  0
  160.6790  203.7550  150.8100 C   0  0  0  0  0  2  0  0  0  0  0  0
  160.1410  200.9900  148.2770 C   0  0  0  0  0  3  0  0  0  0  0  0
  161.4910  203.4320  148.4570 C   0  0  0  0  0  3  0  0  0  0  0  0
  161.5470  202.6890  147.2750 C   0  0  0  0  0  3  0  0  0  0  0  0
  160.0840  201.7330  149.4600 C   0  0  0  0  0  3  0  0  0  0  0  0
  160.8740  201.4670  147.1850 C   0  0  0  0  0  3  0  0  0  0  0  0
  160.7620  202.9540  149.5530 C   0  0  0  0  0  0  0  0  0  0  0  0
  1 19  1  1  0  0  0
  1  7  1  0  0  0  0
  3  2  1  6  0  0  0
  4 30  1  1  0  0  0
  4  3  1  0  0  0  0
  5  9  1  6  0  0  0
  5  1  1  0  0  0  0
  5  6  1  0  0  0  0
  6  4  1  0  0  0  0
  7  3  1  0  0  0  0
  7  8  2  0  0  0  0
 10 11  1  0  0  0  0
 11 15  1  0  0  0  0
 12 11  2  0  0  0  0
 12 17  1  0  0  0  0
 13 10  2  0  0  0  0
 14 13  1  0  0  0  0
 14 16  2  0  0  0  0
 15  9  2  0  0  0  0
 16 12  1  0  0  0  0
 17 18  2  0  0  0  0
 18  9  1  0  0  0  0
 20 19  1  0  0  0  0
 22 26  1  0  0  0  0
 23 22  2  0  0  0  0
 24 21  1  6  0  0  0
 24 25  1  0  0  0  0
 25 20  1  1  0  0  0
 25 26  1  0  0  0  0
 27 24  1  0  0  0  0
 27 23  1  0  0  0  0
 28 29  1  0  0  0  0
 29 23  1  0  0  0  0
 31 32  2  0  0  0  0
 33 31  2  0  0  0  0
 33 30  1  0  0  0  0
 34 33  1  0  0  0  0
 35 38  1  0  0  0  0
 36 40  1  0  0  0  0
 37 36  2  0  0  0  0
 38 40  2  0  0  0  0
 39 37  1  0  0  0  0
 39 35  2  0  0  0  0
 40 34  1  0  0  0  0
M  END
>  <MODEL>
7

>  <REMARK>
 VINA RESULT:      -5.6      3.757      6.309
  Name = 
  9 active torsions:
  status: ('A' for Active; 'I' for Inactive)
    1  A    between atoms: C_1  and  N_16
    2  A    between atoms: N_4  and  N_16
    3  A    between atoms: N_4  and  C_26
    4  A    between atoms: C_5  and  C_15
    5  A    between atoms: C_14  and  C_34
    6  A    between atoms: C_17  and  N_30
    7  A    between atoms: C_31  and  C_38
    8  A    between atoms: C_31  and  C_39
    9  A    between atoms: C_34  and  C_38
                            x       y       z     vdW  Elec       q    Type
                         _______ _______ _______ _____ _____    ______ ____

>  <TORSDO>
F 9

$$$$
=
 OpenBabel11052412023D

 40 44  0  0  1  0  0  0  0  0999 V2000
  161.4140  207.5430  152.0490 C   0  0  1  0  0  3  0  0  0  0  0  0
  160.0890  206.2550  148.8990 O   0  0  0  0  0  1  0  0  0  0  0  0
  161.2370  206.4080  149.6790 C   0  0  1  0  0  3  0  0  0  0  0  0
  161.9870  207.6700  149.2440 C   0  0  1  0  0  3  0  0  0  0  0  0
  162.3130  208.5630  151.3290 C   0  0  1  0  0  3  0  0  0  0  0  0
  162.9630  208.0270  150.1920 O   0  0  0  0  0  0  0  0  0  0  0  0
  160.8480  206.4830  151.1310 C   0  0  0  0  0  0  0  0  0  0  0  0
  160.0760  205.6530  151.5880 O   0  0  0  0  0  0  0  0  0  0  0  0
  161.6480  209.8840  151.0700 C   0  0  0  0  0  0  0  0  0  0  0  0
  161.7390  212.5700  148.6000 C   0  0  0  0  0  3  0  0  0  0  0  0
  161.4050  211.8350  149.7370 C   0  0  0  0  0  0  0  0  0  0  0  0
  160.4850  212.3730  150.6590 C   0  0  0  0  0  0  0  0  0  0  0  0
  161.1610  213.8260  148.3950 C   0  0  0  0  0  3  0  0  0  0  0  0
  160.2550  214.3280  149.3350 C   0  0  0  0  0  3  0  0  0  0  0  0
  161.9600  210.6150  149.9610 N   0  0  0  0  0  0  0  0  0  0  0  0
  159.9370  213.5980  150.4400 N   0  0  0  0  0  0  0  0  0  0  0  0
  160.1540  211.6380  151.8000 C   0  0  0  0  0  3  0  0  0  0  0  0
  160.7400  210.3890  152.0090 C   0  0  0  0  0  3  0  0  0  0  0  0
  162.1060  206.9450  153.1920 N   0  0  0  0  0  2  0  0  0  0  0  0
  161.2080  206.8470  154.2700 N   0  0  0  0  0  2  0  0  0  0  0  0
  162.7070  207.5580  156.5290 F   0  0  0  0  0  0  0  0  0  0  0  0
  159.4650  209.9640  155.4740 C   0  0  0  0  0  3  0  0  0  0  0  0
  160.1940  210.3030  156.5430 C   0  0  0  0  0  0  0  0  0  0  0  0
  161.4460  208.1000  156.3470 C   0  0  2  0  0  3  0  0  0  0  0  0
  161.1100  208.1710  154.8610 C   0  0  2  0  0  3  0  0  0  0  0  0
  159.6810  208.6870  154.7100 C   0  0  0  0  0  2  0  0  0  0  0  0
  161.4090  209.5020  156.9560 C   0  0  0  0  0  2  0  0  0  0  0  0
  160.0790  212.8300  156.6010 C   0  0  0  0  0  1  0  0  0  0  0  0
  159.8840  211.5260  157.2130 N   0  0  0  0  0  2  0  0  0  0  0  0
  162.6510  207.4890  147.8850 C   0  0  0  0  0  2  0  0  0  0  0  0
  161.0760  206.3840  146.4000 C   0  0  0  0  0  0  0  0  0  0  0  0
  160.0830  206.4810  145.6680 O   0  0  0  0  0  0  0  0  0  0  0  0
  162.1240  206.2840  147.1750 C   0  0  0  0  0  0  0  0  0  0  0  0
  162.9120  205.0170  147.2000 C   0  0  0  0  0  2  0  0  0  0  0  0
  160.8290  202.2610  145.6440 C   0  0  0  0  0  3  0  0  0  0  0  0
  161.5820  203.1330  148.1920 C   0  0  0  0  0  3  0  0  0  0  0  0
  160.7670  202.0070  148.0530 C   0  0  0  0  0  3  0  0  0  0  0  0
  161.6460  203.3870  145.7830 C   0  0  0  0  0  3  0  0  0  0  0  0
  160.3890  201.5720  146.7790 C   0  0  0  0  0  3  0  0  0  0  0  0
  162.0210  203.8270  147.0580 C   0  0  0  0  0  0  0  0  0  0  0  0
  1 19  1  1  0  0  0
  3  2  1  6  0  0  0
  3  7  1  0  0  0  0
  4 30  1  6  0  0  0
  4  3  1  0  0  0  0
  4  6  1  0  0  0  0
  5  9  1  6  0  0  0
  5  1  1  0  0  0  0
  6  5  1  0  0  0  0
  7  8  2  0  0  0  0
  7  1  1  0  0  0  0
  9 18  1  0  0  0  0
 10 11  1  0  0  0  0
 11 15  1  0  0  0  0
 11 12  2  0  0  0  0
 12 17  1  0  0  0  0
 13 10  2  0  0  0  0
 13 14  1  0  0  0  0
 14 16  2  0  0  0  0
 15  9  2  0  0  0  0
 16 12  1  0  0  0  0
 17 18  2  0  0  0  0
 19 20  1  0  0  0  0
 22 23  2  0  0  0  0
 23 27  1  0  0  0  0
 23 29  1  0  0  0  0
 24 21  1  6  0  0  0
 24 27  1  0  0  0  0
 25 20  1  1  0  0  0
 25 24  1  0  0  0  0
 26 25  1  0  0  0  0
 26 22  1  0  0  0  0
 28 29  1  0  0  0  0
 31 33  2  0  0  0  0
 32 31  2  0  0  0  0
 33 34  1  0  0  0  0
 33 30  1  0  0  0  0
 35 38  2  0  0  0  0
 35 39  1  0  0  0  0
 37 36  1  0  0  0  0
 38 40  1  0  0  0  0
 39 37  2  0  0  0  0
 40 34  1  0  0  0  0
 40 36  2  0  0  0  0
M  END
>  <MODEL>
8

>  <REMARK>
 VINA RESULT:      -5.1      2.202      3.564
  Name = 
  9 active torsions:
  status: ('A' for Active; 'I' for Inactive)
    1  A    between atoms: C_1  and  N_16
    2  A    between atoms: N_4  and  N_16
    3  A    between atoms: N_4  and  C_26
    4  A    between atoms: C_5  and  C_15
    5  A    between atoms: C_14  and  C_34
    6  A    between atoms: C_17  and  N_30
    7  A    between atoms: C_31  and  C_38
    8  A    between atoms: C_31  and  C_39
    9  A    between atoms: C_34  and  C_38
                            x       y       z     vdW  Elec       q    Type
                         _______ _______ _______ _____ _____    ______ ____

>  <TORSDO>
F 9

$$$$
=
 OpenBabel11052412023D

 40 44  0  0  1  0  0  0  0  0999 V2000
  160.8500  213.9040  146.4860 C   0  0  1  0  0  3  0  0  0  0  0  0
  163.3650  212.5500  148.7620 O   0  0  0  0  0  1  0  0  0  0  0  0
  162.6140  212.3040  147.6110 C   0  0  1  0  0  3  0  0  0  0  0  0
  161.3570  211.5110  147.9790 C   0  0  1  0  0  3  0  0  0  0  0  0
  159.8420  212.7950  146.8360 C   0  0  1  0  0  3  0  0  0  0  0  0
  160.4320  211.5120  146.9180 O   0  0  0  0  0  0  0  0  0  0  0  0
  162.2570  213.6130  146.9580 C   0  0  0  0  0  0  0  0  0  0  0  0
  163.1280  214.4510  146.7810 O   0  0  0  0  0  0  0  0  0  0  0  0
  158.9590  213.1240  148.0050 C   0  0  0  0  0  0  0  0  0  0  0  0
  159.2830  214.2040  151.4770 C   0  0  0  0  0  3  0  0  0  0  0  0
  158.7150  213.7880  150.2720 C   0  0  0  0  0  0  0  0  0  0  0  0
  157.3180  213.6270  150.1880 C   0  0  0  0  0  0  0  0  0  0  0  0
  158.4600  214.4510  152.5790 C   0  0  0  0  0  3  0  0  0  0  0  0
  157.0780  214.2760  152.4570 C   0  0  0  0  0  3  0  0  0  0  0  0
  159.4960  213.5350  149.1890 N   0  0  0  0  0  0  0  0  0  0  0  0
  156.5370  213.8710  151.2750 N   0  0  0  0  0  0  0  0  0  0  0  0
  156.7510  213.2070  148.9840 C   0  0  0  0  0  3  0  0  0  0  0  0
  157.5740  212.9500  147.8860 C   0  0  0  0  0  3  0  0  0  0  0  0
  160.8200  214.2110  145.0550 N   0  0  0  0  0  2  0  0  0  0  0  0
  161.0310  213.0260  144.3290 N   0  0  0  0  0  2  0  0  0  0  0  0
  160.2450  211.5100  142.1050 F   0  0  0  0  0  0  0  0  0  0  0  0
  163.2850  214.3240  141.6010 C   0  0  0  0  0  3  0  0  0  0  0  0
  162.8940  213.6060  140.5430 C   0  0  0  0  0  0  0  0  0  0  0  0
  161.4540  212.1840  142.0810 C   0  0  2  0  0  3  0  0  0  0  0  0
  161.3920  213.4170  142.9760 C   0  0  2  0  0  3  0  0  0  0  0  0
  162.7680  214.0770  142.9920 C   0  0  0  0  0  2  0  0  0  0  0  0
  161.7680  212.6010  140.6430 C   0  0  0  0  0  2  0  0  0  0  0  0
  164.8240  214.4190  139.1230 C   0  0  0  0  0  1  0  0  0  0  0  0
  163.4720  213.9060  139.2710 N   0  0  0  0  0  2  0  0  0  0  0  0
  161.6900  210.0730  148.3530 C   0  0  0  0  0  2  0  0  0  0  0  0
  161.2670  210.6710  150.6700 C   0  0  0  0  0  0  0  0  0  0  0  0
  160.6400  211.3750  151.4720 O   0  0  0  0  0  0  0  0  0  0  0  0
  161.9280  209.9290  149.8210 C   0  0  0  0  0  0  0  0  0  0  0  0
  162.7770  208.8070  150.3180 C   0  0  0  0  0  2  0  0  0  0  0  0
  160.7940  205.8240  149.0840 C   0  0  0  0  0  3  0  0  0  0  0  0
  161.8860  206.7680  151.4800 C   0  0  0  0  0  3  0  0  0  0  0  0
  161.1990  205.5500  151.4570 C   0  0  0  0  0  3  0  0  0  0  0  0
  161.4810  207.0410  149.1060 C   0  0  0  0  0  3  0  0  0  0  0  0
  160.6520  205.0790  150.2600 C   0  0  0  0  0  3  0  0  0  0  0  0
  162.0250  207.5170  150.3050 C   0  0  0  0  0  0  0  0  0  0  0  0
  1 19  1  6  0  0  0
  1  5  1  0  0  0  0
  1  7  1  0  0  0  0
  3  4  1  0  0  0  0
  3  2  1  1  0  0  0
  4 30  1  6  0  0  0
  5  6  1  0  0  0  0
  5  9  1  1  0  0  0
  6  4  1  0  0  0  0
  7  3  1  0  0  0  0
  8  7  2  0  0  0  0
  9 15  1  0  0  0  0
 10 13  2  0  0  0  0
 11 10  1  0  0  0  0
 12 11  1  0  0  0  0
 12 16  1  0  0  0  0
 14 13  1  0  0  0  0
 15 11  2  0  0  0  0
 16 14  2  0  0  0  0
 17 12  2  0  0  0  0
 18  9  2  0  0  0  0
 18 17  1  0  0  0  0
 20 19  1  0  0  0  0
 22 26  1  0  0  0  0
 23 27  1  0  0  0  0
 23 22  2  0  0  0  0
 24 21  1  6  0  0  0
 24 25  1  0  0  0  0
 25 26  1  0  0  0  0
 25 20  1  1  0  0  0
 27 24  1  0  0  0  0
 28 29  1  0  0  0  0
 29 23  1  0  0  0  0
 30 33  1  0  0  0  0
 31 32  2  0  0  0  0
 33 34  1  0  0  0  0
 33 31  2  0  0  0  0
 35 38  2  0  0  0  0
 35 39  1  0  0  0  0
 37 36  1  0  0  0  0
 38 40  1  0  0  0  0
 39 37  2  0  0  0  0
 40 34  1  0  0  0  0
 40 36  2  0  0  0  0
M  END
>  <MODEL>
9

>  <REMARK>
 VINA RESULT:      -5.0      5.468      9.354
  Name = 
  9 active torsions:
  status: ('A' for Active; 'I' for Inactive)
    1  A    between atoms: C_1  and  N_16
    2  A    between atoms: N_4  and  N_16
    3  A    between atoms: N_4  and  C_26
    4  A    between atoms: C_5  and  C_15
    5  A    between atoms: C_14  and  C_34
    6  A    between atoms: C_17  and  N_30
    7  A    between atoms: C_31  and  C_38
    8  A    between atoms: C_31  and  C_39
    9  A    between atoms: C_34  and  C_38
                            x       y       z     vdW  Elec       q    Type
                         _______ _______ _______ _____ _____    ______ ____

>  <TORSDO>
F 9

$$$$
