=
 OpenBabel11042421353D

 45 47  0  0  1  0  0  0  0  0999 V2000
  161.9990  208.1980  152.3410 C   0  0  0  0  0  3  0  0  0  0  0  0
  161.7820  208.7320  150.1360 N   0  0  0  0  0  0  0  0  0  0  0  0
  162.2040  209.6730  152.2180 C   0  0  1  0  0  3  0  0  0  0  0  0
  162.0170  209.8440  150.7470 C   0  0  0  0  0  0  0  0  0  0  0  0
  161.7590  207.7120  151.1270 C   0  0  0  0  0  0  0  0  0  0  0  0
  161.0210  203.6400  150.0730 C   0  0  0  0  0  3  0  0  0  0  0  0
  161.3720  204.5650  149.0860 C   0  0  0  0  0  0  0  0  0  0  0  0
  161.6070  205.8900  149.4640 C   0  0  0  0  0  3  0  0  0  0  0  0
  160.9150  204.0300  151.3700 N   0  0  0  0  0  0  0  0  0  0  0  0
  161.5000  206.2890  150.8010 C   0  0  0  0  0  0  0  0  0  0  0  0
  160.9950  205.6420  153.1390 N   0  0  0  0  0  1  0  0  0  0  0  0
  161.1430  205.3120  151.7610 C   0  0  0  0  0  0  0  0  0  0  0  0
  161.9930  205.0690  146.7020 N   0  0  0  0  0  2  0  0  0  0  0  0
  161.4910  204.1510  147.6770 C   0  0  0  0  0  0  0  0  0  0  0  0
  161.1470  202.9870  147.3290 O   0  0  0  0  0  0  0  0  0  0  0  0
  162.1210  204.7090  145.3000 C   0  0  0  0  0  2  0  0  0  0  0  0
  160.8460  205.0730  144.5690 C   0  0  0  0  0  1  0  0  0  0  0  0
  161.1650  210.4190  153.0000 C   0  0  0  0  0  0  0  0  0  0  0  0
  159.8690  210.5990  152.4340 N   0  0  0  0  0  2  0  0  0  0  0  0
  161.4340  210.8970  154.1370 O   0  0  0  0  0  0  0  0  0  0  0  0
  158.6360  212.8490  151.3820 O   0  0  0  0  0  0  0  0  0  0  0  0
  157.9320  212.5050  155.3920 O   0  0  0  0  0  0  0  0  0  0  0  0
  158.2870  212.4860  152.5390 C   0  0  0  0  0  0  0  0  0  0  0  0
  157.2990  213.2420  153.2620 N   0  0  0  0  0  0  0  0  0  0  0  0
  155.7700  213.3560  155.2500 N   0  0  0  0  0  0  0  0  0  0  0  0
  158.8760  211.3170  153.1140 N   0  0  0  0  0  2  0  0  0  0  0  0
  156.6450  214.3560  152.5860 C   0  0  0  0  0  1  0  0  0  0  0  0
  154.6990  213.6310  154.4600 O   0  0  0  0  0  1  0  0  0  0  0  0
  157.0340  213.0060  154.6600 C   0  0  0  0  0  0  0  0  0  0  0  0
  155.0760  212.1350  157.0970 C   0  0  0  0  0  1  0  0  0  0  0  0
  154.7060  214.4510  156.9900 C   0  0  0  0  0  1  0  0  0  0  0  0
  155.6490  213.3980  156.6520 N   0  0  0  0  0  0  0  0  0  0  0  0
  162.1560  211.1430  150.0260 C   0  0  0  0  0  2  0  0  0  0  0  0
  162.1140  210.9150  148.5240 C   0  0  0  0  0  2  0  0  0  0  0  0
  162.8020  212.0580  147.7950 C   0  0  0  0  0  2  0  0  0  0  0  0
  160.6560  212.1420  146.9770 N   0  0  0  0  0  2  0  0  0  0  0  0
  160.0240  212.5910  145.7400 C   0  0  2  0  0  3  0  0  0  0  0  0
  161.1110  213.2290  144.9070 C   0  0  0  0  0  2  0  0  0  0  0  0
  161.8200  212.9130  147.1480 N   0  0  0  0  0  0  0  0  0  0  0  0
  162.3120  213.2130  145.8120 C   0  0  0  0  0  2  0  0  0  0  0  0
  158.9130  213.6040  146.0420 C   0  0  1  0  0  3  0  0  0  0  0  0
  158.3670  214.2120  144.7580 C   0  0  0  0  0  1  0  0  0  0  0  0
  157.7930  212.9810  146.8170 C   0  0  0  0  0  0  0  0  0  0  0  0
  156.9170  212.1140  146.1790 O   0  0  0  0  0  0  0  0  0  0  0  0
  157.6360  213.2410  148.0400 O   0  0  0  0  0  1  0  0  0  0  0  0
  2  4  2  0  0  0  0
  2  5  1  0  0  0  0
  3  1  1  0  0  0  0
  3 18  1  1  0  0  0
  4  3  1  0  0  0  0
  5  1  2  0  0  0  0
  6  9  1  0  0  0  0
  7  8  1  0  0  0  0
  7  6  2  0  0  0  0
  8 10  2  0  0  0  0
  9 12  2  0  0  0  0
 10  5  1  0  0  0  0
 10 12  1  0  0  0  0
 12 11  1  0  0  0  0
 13 14  1  0  0  0  0
 14  7  1  0  0  0  0
 15 14  2  0  0  0  0
 16 13  1  0  0  0  0
 17 16  1  0  0  0  0
 18 20  2  0  0  0  0
 19 18  1  0  0  0  0
 19 26  1  0  0  0  0
 21 23  2  0  0  0  0
 23 26  1  0  0  0  0
 23 24  1  0  0  0  0
 24 29  1  0  0  0  0
 25 32  1  0  0  0  0
 27 24  1  0  0  0  0
 28 25  1  0  0  0  0
 29 25  1  0  0  0  0
 29 22  2  0  0  0  0
 32 31  1  0  0  0  0
 32 30  1  0  0  0  0
 33  4  1  0  0  0  0
 34 33  1  0  0  0  0
 35 34  1  0  0  0  0
 36 39  1  0  0  0  0
 37 41  1  1  0  0  0
 37 36  1  0  0  0  0
 38 37  1  0  0  0  0
 38 40  1  0  0  0  0
 39 35  1  0  0  0  0
 40 39  1  0  0  0  0
 41 42  1  6  0  0  0
 41 43  1  0  0  0  0
 43 45  1  0  0  0  0
 44 43  2  0  0  0  0
M  END
>  <MODEL>
1

>  <REMARK>
 VINA RESULT:      -7.9      0.000      0.000
  Name = 
  12 active torsions:
  status: ('A' for Active; 'I' for Inactive)
    1  A    between atoms: C_4  and  C_30
    2  A    between atoms: C_8  and  C_33
    3  A    between atoms: C_9  and  C_20
    4  A    between atoms: N_11  and  N_25
    5  A    between atoms: N_12  and  C_29
    6  A    between atoms: N_15  and  N_22
    7  A    between atoms: C_16  and  C_34
    8  A    between atoms: C_16  and  C_35
    9  A    between atoms: C_20  and  C_23
   10  A    between atoms: C_24  and  C_37
   11  A    between atoms: C_34  and  C_38
   12  A    between atoms: C_38  and  N_43
                            x       y       z     vdW  Elec       q    Type
                         _______ _______ _______ _____ _____    ______ ____

>  <TORSDO>
F 12

$$$$
=
 OpenBabel11042421353D

 45 47  0  0  1  0  0  0  0  0999 V2000
  161.9190  210.2700  152.3710 C   0  0  0  0  0  3  0  0  0  0  0  0
  160.9200  208.2390  152.6380 N   0  0  0  0  0  0  0  0  0  0  0  0
  162.3960  209.3910  151.2620 C   0  0  1  0  0  3  0  0  0  0  0  0
  161.6480  208.1370  151.5770 C   0  0  0  0  0  0  0  0  0  0  0  0
  161.0790  209.5670  153.1230 C   0  0  0  0  0  0  0  0  0  0  0  0
  159.0160  211.0900  156.5390 C   0  0  0  0  0  3  0  0  0  0  0  0
  158.8310  211.6850  155.2880 C   0  0  0  0  0  0  0  0  0  0  0  0
  159.5210  211.1630  154.1900 C   0  0  0  0  0  3  0  0  0  0  0  0
  159.8490  210.0260  156.6740 N   0  0  0  0  0  0  0  0  0  0  0  0
  160.3760  210.0640  154.3320 C   0  0  0  0  0  0  0  0  0  0  0  0
  161.3930  208.3920  155.8510 N   0  0  0  0  0  1  0  0  0  0  0  0
  160.5270  209.4990  155.6200 C   0  0  0  0  0  0  0  0  0  0  0  0
  156.5340  212.6290  154.8920 N   0  0  0  0  0  2  0  0  0  0  0  0
  157.9280  212.8390  155.1300 C   0  0  0  0  0  0  0  0  0  0  0  0
  158.3870  214.0130  155.2030 O   0  0  0  0  0  0  0  0  0  0  0  0
  155.6070  213.7360  154.7230 C   0  0  0  0  0  2  0  0  0  0  0  0
  155.0140  213.6860  153.3300 C   0  0  0  0  0  1  0  0  0  0  0  0
  161.9970  209.9540  149.9310 C   0  0  0  0  0  0  0  0  0  0  0  0
  161.7880  211.3580  149.8070 N   0  0  0  0  0  2  0  0  0  0  0  0
  161.8300  209.1960  148.9350 O   0  0  0  0  0  0  0  0  0  0  0  0
  163.5740  212.2340  147.8740 O   0  0  0  0  0  0  0  0  0  0  0  0
  159.8090  213.6630  147.1790 O   0  0  0  0  0  0  0  0  0  0  0  0
  162.3430  212.3840  147.6360 C   0  0  0  0  0  0  0  0  0  0  0  0
  161.9200  213.0040  146.4090 N   0  0  0  0  0  0  0  0  0  0  0  0
  160.0140  213.5360  144.8630 N   0  0  0  0  0  0  0  0  0  0  0  0
  161.3840  211.9250  148.5920 N   0  0  0  0  0  2  0  0  0  0  0  0
  162.9320  213.3470  145.4180 C   0  0  0  0  0  1  0  0  0  0  0  0
  160.6750  213.0070  143.8010 O   0  0  0  0  0  1  0  0  0  0  0  0
  160.5500  213.4020  146.1910 C   0  0  0  0  0  0  0  0  0  0  0  0
  157.7150  213.3250  145.1000 C   0  0  0  0  0  1  0  0  0  0  0  0
  158.6250  214.4530  143.2530 C   0  0  0  0  0  1  0  0  0  0  0  0
  158.7920  214.2100  144.6770 N   0  0  0  0  0  0  0  0  0  0  0  0
  161.7720  206.8660  150.8060 C   0  0  0  0  0  2  0  0  0  0  0  0
  162.1260  205.7210  151.7410 C   0  0  0  0  0  2  0  0  0  0  0  0
  161.0660  204.6320  151.6680 C   0  0  0  0  0  2  0  0  0  0  0  0
  160.6730  203.7400  149.5870 N   0  0  0  0  0  2  0  0  0  0  0  0
  160.4490  202.4020  149.0480 C   0  0  2  0  0  3  0  0  0  0  0  0
  160.6450  201.4360  150.1930 C   0  0  0  0  0  2  0  0  0  0  0  0
  161.4700  203.5920  150.7360 N   0  0  0  0  0  0  0  0  0  0  0  0
  161.1070  202.3110  151.3250 C   0  0  0  0  0  2  0  0  0  0  0  0
  161.4430  202.1060  147.9180 C   0  0  1  0  0  3  0  0  0  0  0  0
  161.2730  200.6850  147.4000 C   0  0  0  0  0  1  0  0  0  0  0  0
  161.2960  203.0740  146.7850 C   0  0  0  0  0  0  0  0  0  0  0  0
  161.4560  204.4330  147.0190 O   0  0  0  0  0  1  0  0  0  0  0  0
  161.0240  202.6670  145.6240 O   0  0  0  0  0  0  0  0  0  0  0  0
  1  5  2  0  0  0  0
  2  5  1  0  0  0  0
  3 18  1  6  0  0  0
  3  4  1  0  0  0  0
  3  1  1  0  0  0  0
  4  2  2  0  0  0  0
  5 10  1  0  0  0  0
  6  9  1  0  0  0  0
  7  6  2  0  0  0  0
  8 10  2  0  0  0  0
  8  7  1  0  0  0  0
 10 12  1  0  0  0  0
 12 11  1  0  0  0  0
 12  9  2  0  0  0  0
 13 14  1  0  0  0  0
 14 15  2  0  0  0  0
 14  7  1  0  0  0  0
 16 13  1  0  0  0  0
 17 16  1  0  0  0  0
 19 18  1  0  0  0  0
 20 18  2  0  0  0  0
 23 21  2  0  0  0  0
 23 26  1  0  0  0  0
 24 23  1  0  0  0  0
 25 29  1  0  0  0  0
 26 19  1  0  0  0  0
 27 24  1  0  0  0  0
 28 25  1  0  0  0  0
 29 24  1  0  0  0  0
 29 22  2  0  0  0  0
 31 32  1  0  0  0  0
 32 25  1  0  0  0  0
 32 30  1  0  0  0  0
 33  4  1  0  0  0  0
 33 34  1  0  0  0  0
 35 34  1  0  0  0  0
 36 39  1  0  0  0  0
 37 41  1  6  0  0  0
 37 36  1  0  0  0  0
 37 38  1  0  0  0  0
 38 40  1  0  0  0  0
 39 40  1  0  0  0  0
 39 35  1  0  0  0  0
 41 42  1  6  0  0  0
 43 44  1  0  0  0  0
 43 41  1  0  0  0  0
 45 43  2  0  0  0  0
M  END
>  <MODEL>
2

>  <REMARK>
 VINA RESULT:      -7.5      2.369      9.384
  Name = 
  12 active torsions:
  status: ('A' for Active; 'I' for Inactive)
    1  A    between atoms: C_4  and  C_30
    2  A    between atoms: C_8  and  C_33
    3  A    between atoms: C_9  and  C_20
    4  A    between atoms: N_11  and  N_25
    5  A    between atoms: N_12  and  C_29
    6  A    between atoms: N_15  and  N_22
    7  A    between atoms: C_16  and  C_34
    8  A    between atoms: C_16  and  C_35
    9  A    between atoms: C_20  and  C_23
   10  A    between atoms: C_24  and  C_37
   11  A    between atoms: C_34  and  C_38
   12  A    between atoms: C_38  and  N_43
                            x       y       z     vdW  Elec       q    Type
                         _______ _______ _______ _____ _____    ______ ____

>  <TORSDO>
F 12

$$$$
=
 OpenBabel11042421353D

 45 47  0  0  1  0  0  0  0  0999 V2000
  161.7280  206.4220  152.2430 C   0  0  0  0  0  3  0  0  0  0  0  0
  161.8310  207.3010  150.1420 N   0  0  0  0  0  0  0  0  0  0  0  0
  162.0550  207.8730  152.3830 C   0  0  1  0  0  3  0  0  0  0  0  0
  162.0680  208.2820  150.9470 C   0  0  0  0  0  0  0  0  0  0  0  0
  161.6080  206.1500  150.9470 C   0  0  0  0  0  0  0  0  0  0  0  0
  160.6920  202.3740  149.1740 C   0  0  0  0  0  3  0  0  0  0  0  0
  161.0530  203.4560  148.3660 C   0  0  0  0  0  0  0  0  0  0  0  0
  161.3460  204.6780  148.9780 C   0  0  0  0  0  3  0  0  0  0  0  0
  160.6330  202.5160  150.5240 N   0  0  0  0  0  0  0  0  0  0  0  0
  161.2880  204.8220  150.3690 C   0  0  0  0  0  0  0  0  0  0  0  0
  160.8160  203.7630  152.5590 N   0  0  0  0  0  1  0  0  0  0  0  0
  160.9180  203.6940  151.1400 C   0  0  0  0  0  0  0  0  0  0  0  0
  160.8700  204.4390  146.0600 N   0  0  0  0  0  2  0  0  0  0  0  0
  161.1210  203.3110  146.9020 C   0  0  0  0  0  0  0  0  0  0  0  0
  161.3990  202.1910  146.3910 O   0  0  0  0  0  0  0  0  0  0  0  0
  160.9180  204.3430  144.6100 C   0  0  0  0  0  2  0  0  0  0  0  0
  159.6690  203.6470  144.1100 C   0  0  0  0  0  1  0  0  0  0  0  0
  160.9840  208.5850  153.1520 C   0  0  0  0  0  0  0  0  0  0  0  0
  161.0070  210.0090  153.2170 N   0  0  0  0  0  2  0  0  0  0  0  0
  160.0800  207.9370  153.7500 O   0  0  0  0  0  0  0  0  0  0  0  0
  161.5290  211.1660  155.6830 O   0  0  0  0  0  0  0  0  0  0  0  0
  157.5130  210.9400  154.9650 O   0  0  0  0  0  0  0  0  0  0  0  0
  160.3560  211.2740  155.2290 C   0  0  0  0  0  0  0  0  0  0  0  0
  159.3500  211.9610  155.9950 N   0  0  0  0  0  0  0  0  0  0  0  0
  157.0430  212.9510  156.0390 N   0  0  0  0  0  0  0  0  0  0  0  0
  160.0450  210.7160  153.9500 N   0  0  0  0  0  2  0  0  0  0  0  0
  159.7470  212.6130  157.2380 C   0  0  0  0  0  1  0  0  0  0  0  0
  157.5170  214.1360  156.5070 O   0  0  0  0  0  1  0  0  0  0  0  0
  157.9550  211.9160  155.6320 C   0  0  0  0  0  0  0  0  0  0  0  0
  155.0210  213.9890  155.5690 C   0  0  0  0  0  1  0  0  0  0  0  0
  155.1620  212.3580  157.2510 C   0  0  0  0  0  1  0  0  0  0  0  0
  155.6560  212.7310  155.9370 N   0  0  0  0  0  0  0  0  0  0  0  0
  162.3930  209.6560  150.4650 C   0  0  0  0  0  2  0  0  0  0  0  0
  161.9680  209.8150  149.0150 C   0  0  0  0  0  2  0  0  0  0  0  0
  162.5330  211.1030  148.4360 C   0  0  0  0  0  2  0  0  0  0  0  0
  160.7570  211.8530  147.1850 N   0  0  0  0  0  2  0  0  0  0  0  0
  160.3220  213.1400  146.6510 C   0  0  2  0  0  3  0  0  0  0  0  0
  161.2780  214.1770  147.1930 C   0  0  0  0  0  2  0  0  0  0  0  0
  161.4970  212.1190  148.3510 N   0  0  0  0  0  0  0  0  0  0  0  0
  162.1540  213.3990  148.1360 C   0  0  0  0  0  2  0  0  0  0  0  0
  158.8870  213.4470  147.0950 C   0  0  1  0  0  3  0  0  0  0  0  0
  158.8730  214.4510  148.2390 C   0  0  0  0  0  1  0  0  0  0  0  0
  158.0570  213.9670  145.9630 C   0  0  0  0  0  0  0  0  0  0  0  0
  156.7310  214.3130  146.1870 O   0  0  0  0  0  1  0  0  0  0  0  0
  158.5480  214.0880  144.8080 O   0  0  0  0  0  0  0  0  0  0  0  0
  1  3  1  0  0  0  0
  2  4  2  0  0  0  0
  2  5  1  0  0  0  0
  3 18  1  1  0  0  0
  4  3  1  0  0  0  0
  5  1  2  0  0  0  0
  6  9  1  0  0  0  0
  7  8  1  0  0  0  0
  7  6  2  0  0  0  0
  8 10  2  0  0  0  0
  9 12  2  0  0  0  0
 10  5  1  0  0  0  0
 10 12  1  0  0  0  0
 12 11  1  0  0  0  0
 13 14  1  0  0  0  0
 14  7  1  0  0  0  0
 15 14  2  0  0  0  0
 16 13  1  0  0  0  0
 17 16  1  0  0  0  0
 18 19  1  0  0  0  0
 18 20  2  0  0  0  0
 19 26  1  0  0  0  0
 22 29  2  0  0  0  0
 23 21  2  0  0  0  0
 23 24  1  0  0  0  0
 24 27  1  0  0  0  0
 25 28  1  0  0  0  0
 26 23  1  0  0  0  0
 29 24  1  0  0  0  0
 29 25  1  0  0  0  0
 30 32  1  0  0  0  0
 32 25  1  0  0  0  0
 32 31  1  0  0  0  0
 33  4  1  0  0  0  0
 34 33  1  0  0  0  0
 35 34  1  0  0  0  0
 36 39  1  0  0  0  0
 37 41  1  1  0  0  0
 37 36  1  0  0  0  0
 37 38  1  0  0  0  0
 38 40  1  0  0  0  0
 39 35  1  0  0  0  0
 40 39  1  0  0  0  0
 41 42  1  1  0  0  0
 43 44  1  0  0  0  0
 43 41  1  0  0  0  0
 45 43  2  0  0  0  0
M  END
>  <MODEL>
3

>  <REMARK>
 VINA RESULT:      -6.5      1.720      2.293
  Name = 
  12 active torsions:
  status: ('A' for Active; 'I' for Inactive)
    1  A    between atoms: C_4  and  C_30
    2  A    between atoms: C_8  and  C_33
    3  A    between atoms: C_9  and  C_20
    4  A    between atoms: N_11  and  N_25
    5  A    between atoms: N_12  and  C_29
    6  A    between atoms: N_15  and  N_22
    7  A    between atoms: C_16  and  C_34
    8  A    between atoms: C_16  and  C_35
    9  A    between atoms: C_20  and  C_23
   10  A    between atoms: C_24  and  C_37
   11  A    between atoms: C_34  and  C_38
   12  A    between atoms: C_38  and  N_43
                            x       y       z     vdW  Elec       q    Type
                         _______ _______ _______ _____ _____    ______ ____

>  <TORSDO>
F 12

$$$$
=
 OpenBabel11042421353D

 45 47  0  0  1  0  0  0  0  0999 V2000
  161.2320  211.7960  151.6540 C   0  0  0  0  0  3  0  0  0  0  0  0
  159.9990  209.9440  152.1510 N   0  0  0  0  0  0  0  0  0  0  0  0
  161.9070  210.6270  151.0140 C   0  0  1  0  0  3  0  0  0  0  0  0
  160.9790  209.5300  151.4200 C   0  0  0  0  0  0  0  0  0  0  0  0
  160.1490  211.3520  152.2850 C   0  0  0  0  0  0  0  0  0  0  0  0
  157.3670  213.6600  154.5590 C   0  0  0  0  0  3  0  0  0  0  0  0
  157.6590  212.3460  154.9380 C   0  0  0  0  0  0  0  0  0  0  0  0
  158.5750  211.6180  154.1720 C   0  0  0  0  0  3  0  0  0  0  0  0
  157.9660  214.2080  153.4700 N   0  0  0  0  0  0  0  0  0  0  0  0
  159.1930  212.1870  153.0520 C   0  0  0  0  0  0  0  0  0  0  0  0
  159.4320  214.1630  151.5780 N   0  0  0  0  0  1  0  0  0  0  0  0
  158.8610  213.5200  152.7140 C   0  0  0  0  0  0  0  0  0  0  0  0
  155.6110  211.4820  156.1110 N   0  0  0  0  0  2  0  0  0  0  0  0
  157.0160  211.7430  156.1180 C   0  0  0  0  0  0  0  0  0  0  0  0
  157.7060  211.4590  157.1370 O   0  0  0  0  0  0  0  0  0  0  0  0
  154.9310  210.8950  157.2540 C   0  0  0  0  0  2  0  0  0  0  0  0
  153.8470  209.9570  156.7670 C   0  0  0  0  0  1  0  0  0  0  0  0
  161.9520  210.7920  149.5250 C   0  0  0  0  0  0  0  0  0  0  0  0
  161.4440  211.9910  148.9450 N   0  0  0  0  0  2  0  0  0  0  0  0
  162.4160  209.8760  148.7890 O   0  0  0  0  0  0  0  0  0  0  0  0
  162.9650  213.9230  147.6630 O   0  0  0  0  0  0  0  0  0  0  0  0
  160.0780  212.4230  145.1920 O   0  0  0  0  0  0  0  0  0  0  0  0
  162.2200  213.2020  146.9430 C   0  0  0  0  0  0  0  0  0  0  0  0
  162.1740  213.4130  145.5210 N   0  0  0  0  0  0  0  0  0  0  0  0
  161.4080  212.5600  143.2870 N   0  0  0  0  0  0  0  0  0  0  0  0
  161.4360  212.1750  147.5550 N   0  0  0  0  0  2  0  0  0  0  0  0
  163.0790  214.3930  144.9330 C   0  0  0  0  0  1  0  0  0  0  0  0
  162.6610  212.6670  142.7720 O   0  0  0  0  0  1  0  0  0  0  0  0
  161.1800  212.7770  144.6900 C   0  0  0  0  0  0  0  0  0  0  0  0
  160.7090  211.0760  141.6450 C   0  0  0  0  0  1  0  0  0  0  0  0
  160.0890  213.3380  141.5500 C   0  0  0  0  0  1  0  0  0  0  0  0
  160.3240  212.2240  142.4540 N   0  0  0  0  0  0  0  0  0  0  0  0
  161.1840  208.0890  151.0920 C   0  0  0  0  0  2  0  0  0  0  0  0
  161.0840  207.2470  152.3530 C   0  0  0  0  0  2  0  0  0  0  0  0
  162.2770  206.3090  152.4590 C   0  0  0  0  0  2  0  0  0  0  0  0
  161.5950  205.7180  150.3450 N   0  0  0  0  0  2  0  0  0  0  0  0
  160.7380  204.6840  149.7730 C   0  0  2  0  0  3  0  0  0  0  0  0
  160.3370  203.7760  150.9120 C   0  0  0  0  0  2  0  0  0  0  0  0
  162.1320  205.1950  151.5360 N   0  0  0  0  0  0  0  0  0  0  0  0
  161.1230  204.3010  152.0830 C   0  0  0  0  0  2  0  0  0  0  0  0
  161.4950  203.8940  148.6980 C   0  0  1  0  0  3  0  0  0  0  0  0
  160.9740  202.4680  148.6000 C   0  0  0  0  0  1  0  0  0  0  0  0
  161.4000  204.5550  147.3570 C   0  0  0  0  0  0  0  0  0  0  0  0
  162.0230  203.9750  146.2610 O   0  0  0  0  0  0  0  0  0  0  0  0
  160.7640  205.6350  147.2170 O   0  0  0  0  0  1  0  0  0  0  0  0
  1  5  2  0  0  0  0
  2  5  1  0  0  0  0
  3 18  1  6  0  0  0
  3  4  1  0  0  0  0
  3  1  1  0  0  0  0
  4  2  2  0  0  0  0
  5 10  1  0  0  0  0
  6  7  1  0  0  0  0
  7 14  1  0  0  0  0
  8  7  2  0  0  0  0
  9  6  2  0  0  0  0
 10  8  1  0  0  0  0
 11 12  1  0  0  0  0
 12 10  2  0  0  0  0
 12  9  1  0  0  0  0
 13 14  1  0  0  0  0
 13 16  1  0  0  0  0
 14 15  2  0  0  0  0
 17 16  1  0  0  0  0
 19 18  1  0  0  0  0
 20 18  2  0  0  0  0
 23 26  1  0  0  0  0
 23 21  2  0  0  0  0
 24 23  1  0  0  0  0
 25 29  1  0  0  0  0
 26 19  1  0  0  0  0
 27 24  1  0  0  0  0
 28 25  1  0  0  0  0
 29 22  2  0  0  0  0
 29 24  1  0  0  0  0
 30 32  1  0  0  0  0
 31 32  1  0  0  0  0
 32 25  1  0  0  0  0
 33  4  1  0  0  0  0
 33 34  1  0  0  0  0
 34 35  1  0  0  0  0
 36 39  1  0  0  0  0
 37 41  1  6  0  0  0
 37 36  1  0  0  0  0
 37 38  1  0  0  0  0
 38 40  1  0  0  0  0
 39 40  1  0  0  0  0
 39 35  1  0  0  0  0
 41 42  1  6  0  0  0
 43 41  1  0  0  0  0
 44 43  2  0  0  0  0
 45 43  1  0  0  0  0
M  END
>  <MODEL>
4

>  <REMARK>
 VINA RESULT:      -6.1      2.432      9.903
  Name = 
  12 active torsions:
  status: ('A' for Active; 'I' for Inactive)
    1  A    between atoms: C_4  and  C_30
    2  A    between atoms: C_8  and  C_33
    3  A    between atoms: C_9  and  C_20
    4  A    between atoms: N_11  and  N_25
    5  A    between atoms: N_12  and  C_29
    6  A    between atoms: N_15  and  N_22
    7  A    between atoms: C_16  and  C_34
    8  A    between atoms: C_16  and  C_35
    9  A    between atoms: C_20  and  C_23
   10  A    between atoms: C_24  and  C_37
   11  A    between atoms: C_34  and  C_38
   12  A    between atoms: C_38  and  N_43
                            x       y       z     vdW  Elec       q    Type
                         _______ _______ _______ _____ _____    ______ ____

>  <TORSDO>
F 12

$$$$
=
 OpenBabel11042421353D

 45 47  0  0  1  0  0  0  0  0999 V2000
  160.5210  207.3200  149.9650 C   0  0  0  0  0  3  0  0  0  0  0  0
  162.2320  207.2390  151.4680 N   0  0  0  0  0  0  0  0  0  0  0  0
  160.9160  208.7290  150.2650 C   0  0  1  0  0  3  0  0  0  0  0  0
  162.0310  208.4910  151.2300 C   0  0  0  0  0  0  0  0  0  0  0  0
  161.3030  206.5120  150.6740 C   0  0  0  0  0  0  0  0  0  0  0  0
  161.1180  202.2470  150.5470 C   0  0  0  0  0  3  0  0  0  0  0  0
  161.1450  202.9810  149.3570 C   0  0  0  0  0  0  0  0  0  0  0  0
  161.2060  204.3750  149.4340 C   0  0  0  0  0  3  0  0  0  0  0  0
  161.1530  202.8840  151.7460 N   0  0  0  0  0  0  0  0  0  0  0  0
  161.2440  205.0290  150.6710 C   0  0  0  0  0  0  0  0  0  0  0  0
  161.2320  204.8290  153.1400 N   0  0  0  0  0  1  0  0  0  0  0  0
  161.2160  204.2390  151.8430 C   0  0  0  0  0  0  0  0  0  0  0  0
  160.9730  203.0620  146.8510 N   0  0  0  0  0  2  0  0  0  0  0  0
  161.1100  202.2990  148.0520 C   0  0  0  0  0  0  0  0  0  0  0  0
  161.1980  201.0410  147.9940 O   0  0  0  0  0  0  0  0  0  0  0  0
  160.9260  202.4330  145.5410 C   0  0  0  0  0  2  0  0  0  0  0  0
  160.1870  203.3370  144.5760 C   0  0  0  0  0  1  0  0  0  0  0  0
  161.3960  209.4190  149.0240 C   0  0  0  0  0  0  0  0  0  0  0  0
  160.8350  210.6800  148.6710 N   0  0  0  0  0  2  0  0  0  0  0  0
  162.2730  208.8860  148.2880 O   0  0  0  0  0  0  0  0  0  0  0  0
  162.3200  213.0220  148.6910 O   0  0  0  0  0  0  0  0  0  0  0  0
  160.6570  212.3470  145.0210 O   0  0  0  0  0  0  0  0  0  0  0  0
  161.9750  212.5650  147.5660 C   0  0  0  0  0  0  0  0  0  0  0  0
  162.3390  213.2670  146.3640 N   0  0  0  0  0  0  0  0  0  0  0  0
  162.4710  213.2260  143.8570 N   0  0  0  0  0  0  0  0  0  0  0  0
  161.2290  211.3470  147.5030 N   0  0  0  0  0  2  0  0  0  0  0  0
  163.1980  214.4390  146.4760 C   0  0  0  0  0  1  0  0  0  0  0  0
  163.7830  213.5770  143.8800 O   0  0  0  0  0  1  0  0  0  0  0  0
  161.7820  212.9160  145.0800 C   0  0  0  0  0  0  0  0  0  0  0  0
  162.3440  212.0590  141.8550 C   0  0  0  0  0  1  0  0  0  0  0  0
  162.0190  214.3840  141.9030 C   0  0  0  0  0  1  0  0  0  0  0  0
  161.7770  213.1510  142.6340 N   0  0  0  0  0  0  0  0  0  0  0  0
  162.7950  209.5730  151.9160 C   0  0  0  0  0  2  0  0  0  0  0  0
  161.8830  210.3380  152.8600 C   0  0  0  0  0  2  0  0  0  0  0  0
  161.3340  209.4110  153.9340 C   0  0  0  0  0  2  0  0  0  0  0  0
  160.2830  211.4250  154.2820 N   0  0  0  0  0  2  0  0  0  0  0  0
  160.1240  212.3420  155.4070 C   0  0  2  0  0  3  0  0  0  0  0  0
  160.7460  211.6660  156.6060 C   0  0  0  0  0  2  0  0  0  0  0  0
  160.4380  210.1360  154.8220 N   0  0  0  0  0  0  0  0  0  0  0  0
  161.1230  210.3030  156.0940 C   0  0  0  0  0  2  0  0  0  0  0  0
  158.6380  212.6270  155.6610 C   0  0  1  0  0  3  0  0  0  0  0  0
  158.4460  213.9990  156.2900 C   0  0  0  0  0  1  0  0  0  0  0  0
  157.8350  212.5370  154.4010 C   0  0  0  0  0  0  0  0  0  0  0  0
  157.9290  213.5480  153.4540 O   0  0  0  0  0  0  0  0  0  0  0  0
  157.0710  211.5560  154.1940 O   0  0  0  0  0  1  0  0  0  0  0  0
  1  3  1  0  0  0  0
  1  5  2  0  0  0  0
  3 18  1  6  0  0  0
  3  4  1  0  0  0  0
  4  2  2  0  0  0  0
  4 33  1  0  0  0  0
  5  2  1  0  0  0  0
  6  9  1  0  0  0  0
  7  8  1  0  0  0  0
  7  6  2  0  0  0  0
  8 10  2  0  0  0  0
  9 12  2  0  0  0  0
 10  5  1  0  0  0  0
 10 12  1  0  0  0  0
 12 11  1  0  0  0  0
 13 14  1  0  0  0  0
 14  7  1  0  0  0  0
 15 14  2  0  0  0  0
 16 13  1  0  0  0  0
 17 16  1  0  0  0  0
 19 18  1  0  0  0  0
 20 18  2  0  0  0  0
 22 29  2  0  0  0  0
 23 21  2  0  0  0  0
 24 27  1  0  0  0  0
 24 23  1  0  0  0  0
 25 28  1  0  0  0  0
 25 29  1  0  0  0  0
 26 23  1  0  0  0  0
 26 19  1  0  0  0  0
 29 24  1  0  0  0  0
 30 32  1  0  0  0  0
 31 32  1  0  0  0  0
 32 25  1  0  0  0  0
 33 34  1  0  0  0  0
 34 35  1  0  0  0  0
 35 39  1  0  0  0  0
 36 39  1  0  0  0  0
 36 37  1  0  0  0  0
 37 41  1  1  0  0  0
 37 38  1  0  0  0  0
 39 40  1  0  0  0  0
 40 38  1  0  0  0  0
 41 42  1  6  0  0  0
 43 41  1  0  0  0  0
 44 43  2  0  0  0  0
 45 43  1  0  0  0  0
M  END
>  <MODEL>
5

>  <REMARK>
 VINA RESULT:      -5.3      2.601      7.750
  Name = 
  12 active torsions:
  status: ('A' for Active; 'I' for Inactive)
    1  A    between atoms: C_4  and  C_30
    2  A    between atoms: C_8  and  C_33
    3  A    between atoms: C_9  and  C_20
    4  A    between atoms: N_11  and  N_25
    5  A    between atoms: N_12  and  C_29
    6  A    between atoms: N_15  and  N_22
    7  A    between atoms: C_16  and  C_34
    8  A    between atoms: C_16  and  C_35
    9  A    between atoms: C_20  and  C_23
   10  A    between atoms: C_24  and  C_37
   11  A    between atoms: C_34  and  C_38
   12  A    between atoms: C_38  and  N_43
                            x       y       z     vdW  Elec       q    Type
                         _______ _______ _______ _____ _____    ______ ____

>  <TORSDO>
F 12

$$$$
