=
 OpenBabel11042421163D

 53 59  0  0  1  0  0  0  0  0999 V2000
  161.8640  210.3010  154.1650 C   0  0  1  0  0  3  0  0  0  0  0  0
  160.3970  213.2000  150.2950 C   0  0  0  0  0  2  0  0  0  0  0  0
  160.6930  209.5330  153.5500 C   0  0  1  0  0  3  0  0  0  0  0  0
  159.7280  211.8510  153.6490 C   0  0  2  0  0  3  0  0  0  0  0  0
  160.1090  212.0190  151.2020 C   0  0  2  0  0  3  0  0  0  0  0  0
  162.0050  211.6900  147.7760 C   0  0  0  0  0  2  0  0  0  0  0  0
  159.1850  212.4410  152.3480 C   0  0  0  0  0  2  0  0  0  0  0  0
  162.3090  210.6330  150.9940 C   0  0  0  0  0  2  0  0  0  0  0  0
  160.2590  212.8040  148.9610 O   0  0  0  0  0  0  0  0  0  0  0  0
  160.1590  212.8980  154.4650 O   0  0  0  0  0  1  0  0  0  0  0  0
  161.5160  213.0000  148.3830 C   0  0  2  0  0  3  0  0  0  0  0  0
  161.7470  210.3470  149.7450 O   0  0  0  0  0  0  0  0  0  0  0  0
  161.3860  211.5110  151.8520 C   0  0  2  0  0  3  0  0  0  0  0  0
  160.9120  211.0110  153.2100 C   0  0  1  0  0  0  0  0  0  0  0  0
  162.6830  210.8200  148.8240 C   0  0  0  0  0  2  0  0  0  0  0  0
  161.2120  208.5370  152.5740 C   0  0  0  0  0  3  0  0  0  0  0  0
  161.1390  207.2410  152.8390 C   0  0  0  0  0  3  0  0  0  0  0  0
  161.6350  206.2740  151.8690 C   0  0  0  0  0  3  0  0  0  0  0  0
  160.8610  205.8780  150.8710 C   0  0  0  0  0  3  0  0  0  0  0  0
  161.3750  204.8990  149.8790 C   0  0  0  0  0  2  0  0  0  0  0  0
  160.5820  205.0180  148.5920 C   0  0  0  0  0  2  0  0  0  0  0  0
  161.4610  207.1630  147.5360 C   0  0  0  0  0  2  0  0  0  0  0  0
  162.5370  206.3690  147.9950 O   0  0  0  0  0  0  0  0  0  0  0  0
  161.4080  205.6930  147.5100 C   0  0  1  0  0  0  0  0  0  0  0  0
  163.3170  204.9750  145.4980 O   0  0  0  0  0  1  0  0  0  0  0  0
  161.6750  204.8970  145.8940 P   0  0  0  0  0  0  0  0  0  0  0  0
  161.2420  203.4490  145.9490 O   0  0  0  0  0  1  0  0  0  0  0  0
  160.7750  205.7020  144.7090 O   0  0  0  0  0  0  0  0  0  0  0  0
  161.5690  210.5980  155.6290 C   0  0  0  0  0  2  0  0  0  0  0  0
  159.2280  210.8280  156.5650 C   0  0  0  0  0  0  0  0  0  0  0  0
  159.3410  209.7320  157.1820 O   0  0  0  0  0  0  0  0  0  0  0  0
  160.3050  211.3060  155.7540 N   0  0  0  0  0  2  0  0  0  0  0  0
  157.9830  211.6080  156.6760 C   0  0  0  0  0  0  0  0  0  0  0  0
  154.1320  214.0240  157.0050 Cl  0  0  0  0  0  0  0  0  0  0  0  0
  155.5660  211.6990  156.9310 C   0  0  0  0  0  3  0  0  0  0  0  0
  155.6110  213.0950  156.8780 C   0  0  0  0  0  0  0  0  0  0  0  0
  156.7490  210.9580  156.8330 C   0  0  0  0  0  3  0  0  0  0  0  0
  156.8350  213.7500  156.7190 C   0  0  0  0  0  3  0  0  0  0  0  0
  158.0170  213.0100  156.6160 C   0  0  0  0  0  3  0  0  0  0  0  0
  161.4010  214.0570  147.2980 C   0  0  0  0  0  2  0  0  0  0  0  0
  162.0550  213.6300  146.1400 O   0  0  0  0  0  0  0  0  0  0  0  0
  163.0570  212.8020  143.7610 C   0  0  0  0  0  1  0  0  0  0  0  0
  161.4980  214.4420  142.6760 C   0  0  0  0  0  1  0  0  0  0  0  0
  160.2620  211.4530  142.8730 O   0  0  0  0  0  0  0  0  0  0  0  0
  161.6530  213.3970  143.7670 C   0  0  0  0  0  0  0  0  0  0  0  0
  160.5880  212.3210  143.6670 C   0  0  0  0  0  0  0  0  0  0  0  0
  161.1620  213.9090  145.1000 C   0  0  1  0  0  3  0  0  0  0  0  0
  160.1220  212.8270  145.0300 C   0  0  1  0  0  3  0  0  0  0  0  0
  158.6930  213.4040  145.0410 C   0  0  0  0  0  0  0  0  0  0  0  0
  158.4740  214.4370  146.1270 C   0  0  0  0  0  2  0  0  0  0  0  0
  157.6160  212.5210  145.6480 C   0  0  0  0  0  2  0  0  0  0  0  0
  157.3870  213.5630  146.7300 C   0  0  0  0  0  2  0  0  0  0  0  0
  158.3140  213.8920  143.8040 F   0  0  0  0  0  0  0  0  0  0  0  0
  1 29  1  1  0  0  0
  3 16  1  6  0  0  0
  3  1  1  0  0  0  0
  4 10  1  1  0  0  0
  5  2  1  6  0  0  0
  5 13  1  0  0  0  0
  5  7  1  0  0  0  0
  6 11  1  0  0  0  0
  6 15  1  0  0  0  0
  7  4  1  0  0  0  0
  9  2  1  0  0  0  0
 11 40  1  6  0  0  0
 11  9  1  0  0  0  0
 12  8  1  0  0  0  0
 13  8  1  6  0  0  0
 13 14  1  0  0  0  0
 14  3  1  0  0  0  0
 14  4  1  0  0  0  0
 14  1  1  0  0  0  0
 15 12  1  0  0  0  0
 16 17  2  0  0  0  0
 18 17  1  0  0  0  0
 19 18  2  0  0  0  0
 20 19  1  0  0  0  0
 21 20  1  0  0  0  0
 22 23  1  0  0  0  0
 24 22  1  0  0  0  0
 24 23  1  0  0  0  0
 24 21  1  0  0  0  0
 25 26  1  0  0  0  0
 26 27  1  0  0  0  0
 26 24  1  0  0  0  0
 28 26  2  0  0  0  0
 29 32  1  0  0  0  0
 30 33  1  0  0  0  0
 30 31  2  0  0  0  0
 32 30  1  0  0  0  0
 33 37  1  0  0  0  0
 36 35  1  0  0  0  0
 36 34  1  0  0  0  0
 37 35  2  0  0  0  0
 38 36  2  0  0  0  0
 39 33  2  0  0  0  0
 39 38  1  0  0  0  0
 41 40  1  0  0  0  0
 42 45  1  0  0  0  0
 43 45  1  0  0  0  0
 44 46  2  0  0  0  0
 45 47  1  0  0  0  0
 46 45  1  0  0  0  0
 46 48  1  0  0  0  0
 47 41  1  0  0  0  0
 48 49  1  0  0  0  0
 48 47  1  0  0  0  0
 49 51  1  0  0  0  0
 49 50  1  0  0  0  0
 50 52  1  0  0  0  0
 51 52  1  0  0  0  0
 53 49  1  0  0  0  0
M  END
>  <MODEL>
1

>  <REMARK>
 VINA RESULT:      -6.2      0.000      0.000
  Name = 
  13 active torsions:
  status: ('A' for Active; 'I' for Inactive)
    1  A    between atoms: C_3  and  C_17
    2  A    between atoms: C_4  and  C_10
    3  A    between atoms: C_5  and  C_26
    4  A    between atoms: C_6  and  C_53
    5  A    between atoms: P_8  and  C_48
    6  A    between atoms: C_14  and  C_33
    7  A    between atoms: C_18  and  C_50
    8  A    between atoms: C_26  and  N_43
    9  A    between atoms: C_30  and  C_37
   10  A    between atoms: C_30  and  O_52
   11  A    between atoms: C_47  and  C_48
   12  A    between atoms: C_47  and  C_50
   13  A    between atoms: C_49  and  O_52
                            x       y       z     vdW  Elec       q    Type
                         _______ _______ _______ _____ _____    ______ ____

>  <TORSDO>
F 13

$$$$
=
 OpenBabel11042421163D

 53 59  0  0  1  0  0  0  0  0999 V2000
  161.8340  213.5350  149.4100 C   0  0  1  0  0  3  0  0  0  0  0  0
  161.8330  208.5360  150.1500 C   0  0  0  0  0  2  0  0  0  0  0  0
  160.3980  213.1140  149.0920 C   0  0  1  0  0  3  0  0  0  0  0  0
  161.6860  211.3740  147.8160 C   0  0  2  0  0  3  0  0  0  0  0  0
  161.1150  209.7600  149.6140 C   0  0  2  0  0  3  0  0  0  0  0  0
  160.6110  208.3960  153.2640 C   0  0  0  0  0  2  0  0  0  0  0  0
  161.3660  209.9090  148.1100 C   0  0  0  0  0  2  0  0  0  0  0  0
  161.1540  211.3540  151.6780 C   0  0  0  0  0  2  0  0  0  0  0  0
  160.9670  207.8160  150.9770 O   0  0  0  0  0  0  0  0  0  0  0  0
  163.0140  211.4630  147.3970 O   0  0  0  0  0  1  0  0  0  0  0  0
  161.5720  207.8090  152.2360 C   0  0  2  0  0  3  0  0  0  0  0  0
  160.1770  210.4520  152.1110 O   0  0  0  0  0  0  0  0  0  0  0  0
  161.6480  211.0290  150.2610 C   0  0  2  0  0  3  0  0  0  0  0  0
  161.5150  212.0660  149.1540 C   0  0  1  0  0  0  0  0  0  0  0  0
  160.6960  209.9140  153.2900 C   0  0  0  0  0  2  0  0  0  0  0  0
  159.5560  213.2690  150.3100 C   0  0  0  0  0  3  0  0  0  0  0  0
  158.3500  213.8090  150.2220 C   0  0  0  0  0  3  0  0  0  0  0  0
  157.5280  213.9410  151.4180 C   0  0  0  0  0  3  0  0  0  0  0  0
  158.0910  213.9230  152.6150 C   0  0  0  0  0  3  0  0  0  0  0  0
  157.2500  214.0670  153.8330 C   0  0  0  0  0  2  0  0  0  0  0  0
  156.5870  212.7400  154.1490 C   0  0  0  0  0  2  0  0  0  0  0  0
  155.7410  212.3020  156.5110 C   0  0  0  0  0  2  0  0  0  0  0  0
  156.2660  211.1140  155.9540 O   0  0  0  0  0  0  0  0  0  0  0  0
  156.8790  212.3190  155.5800 C   0  0  1  0  0  0  0  0  0  0  0  0
  158.5420  213.9930  157.2030 O   0  0  0  0  0  1  0  0  0  0  0  0
  158.5290  212.5550  156.3130 P   0  0  0  0  0  0  0  0  0  0  0  0
  158.8620  211.3980  157.2280 O   0  0  0  0  0  1  0  0  0  0  0  0
  159.6880  212.6460  155.0850 O   0  0  0  0  0  0  0  0  0  0  0  0
  162.4430  214.2300  148.2000 C   0  0  0  0  0  2  0  0  0  0  0  0
  161.8380  214.2190  145.7410 C   0  0  0  0  0  0  0  0  0  0  0  0
  163.0530  214.1060  145.4180 O   0  0  0  0  0  0  0  0  0  0  0  0
  161.4700  214.3060  147.1210 N   0  0  0  0  0  2  0  0  0  0  0  0
  160.8020  214.2700  144.6950 C   0  0  0  0  0  0  0  0  0  0  0  0
  157.5930  214.4420  141.4620 Cl  0  0  0  0  0  0  0  0  0  0  0  0
  160.1770  214.3980  142.3480 C   0  0  0  0  0  3  0  0  0  0  0  0
  158.8260  214.3770  142.7040 C   0  0  0  0  0  0  0  0  0  0  0  0
  161.1620  214.3430  143.3410 C   0  0  0  0  0  3  0  0  0  0  0  0
  158.4580  214.3080  144.0510 C   0  0  0  0  0  3  0  0  0  0  0  0
  159.4420  214.2580  145.0430 C   0  0  0  0  0  3  0  0  0  0  0  0
  161.9150  206.3780  152.6120 C   0  0  0  0  0  2  0  0  0  0  0  0
  160.9360  205.5070  152.1290 O   0  0  0  0  0  0  0  0  0  0  0  0
  160.5140  202.8640  152.5590 C   0  0  0  0  0  1  0  0  0  0  0  0
  162.5950  202.4420  151.2190 C   0  0  0  0  0  1  0  0  0  0  0  0
  159.8870  202.2940  149.4450 O   0  0  0  0  0  0  0  0  0  0  0  0
  161.3180  203.2580  151.3250 C   0  0  0  0  0  0  0  0  0  0  0  0
  160.4850  203.1620  150.0600 C   0  0  0  0  0  0  0  0  0  0  0  0
  161.5880  204.7350  151.1610 C   0  0  1  0  0  3  0  0  0  0  0  0
  160.7390  204.6610  149.9250 C   0  0  1  0  0  3  0  0  0  0  0  0
  161.5280  205.0620  148.6630 C   0  0  0  0  0  0  0  0  0  0  0  0
  160.7780  206.0310  147.7710 C   0  0  0  0  0  2  0  0  0  0  0  0
  161.5650  204.0400  147.5400 C   0  0  0  0  0  2  0  0  0  0  0  0
  160.8240  205.0160  146.6410 C   0  0  0  0  0  2  0  0  0  0  0  0
  162.7920  205.5370  148.9620 F   0  0  0  0  0  0  0  0  0  0  0  0
  1 29  1  6  0  0  0
  2  9  1  0  0  0  0
  3 14  1  0  0  0  0
  3  1  1  0  0  0  0
  3 16  1  1  0  0  0
  4 10  1  1  0  0  0
  4  7  1  0  0  0  0
  4 14  1  0  0  0  0
  5  7  1  6  0  0  0
  5  2  1  0  0  0  0
  5 13  1  0  0  0  0
  6 15  1  0  0  0  0
  8 12  1  0  0  0  0
  9 11  1  0  0  0  0
 11 40  1  1  0  0  0
 11  6  1  0  0  0  0
 12 15  1  0  0  0  0
 13  8  1  1  0  0  0
 14  1  1  0  0  0  0
 14 13  1  0  0  0  0
 17 16  2  0  0  0  0
 17 18  1  0  0  0  0
 18 19  2  0  0  0  0
 19 20  1  0  0  0  0
 20 21  1  0  0  0  0
 21 24  1  0  0  0  0
 23 22  1  0  0  0  0
 24 23  1  0  0  0  0
 24 26  1  0  0  0  0
 24 22  1  0  0  0  0
 26 25  1  0  0  0  0
 26 27  1  0  0  0  0
 28 26  2  0  0  0  0
 30 32  1  0  0  0  0
 31 30  2  0  0  0  0
 32 29  1  0  0  0  0
 33 39  1  0  0  0  0
 33 30  1  0  0  0  0
 34 36  1  0  0  0  0
 35 36  2  0  0  0  0
 35 37  1  0  0  0  0
 36 38  1  0  0  0  0
 37 33  2  0  0  0  0
 38 39  2  0  0  0  0
 41 40  1  0  0  0  0
 43 45  1  0  0  0  0
 44 46  2  0  0  0  0
 45 42  1  0  0  0  0
 46 45  1  0  0  0  0
 47 45  1  0  0  0  0
 47 41  1  0  0  0  0
 48 46  1  0  0  0  0
 48 47  1  0  0  0  0
 49 53  1  0  0  0  0
 49 48  1  0  0  0  0
 50 49  1  0  0  0  0
 51 49  1  0  0  0  0
 52 51  1  0  0  0  0
 52 50  1  0  0  0  0
M  END
>  <MODEL>
2

>  <REMARK>
 VINA RESULT:      -5.8      4.048     10.226
  Name = 
  13 active torsions:
  status: ('A' for Active; 'I' for Inactive)
    1  A    between atoms: C_3  and  C_17
    2  A    between atoms: C_4  and  C_10
    3  A    between atoms: C_5  and  C_26
    4  A    between atoms: C_6  and  C_53
    5  A    between atoms: P_8  and  C_48
    6  A    between atoms: C_14  and  C_33
    7  A    between atoms: C_18  and  C_50
    8  A    between atoms: C_26  and  N_43
    9  A    between atoms: C_30  and  C_37
   10  A    between atoms: C_30  and  O_52
   11  A    between atoms: C_47  and  C_48
   12  A    between atoms: C_47  and  C_50
   13  A    between atoms: C_49  and  O_52
                            x       y       z     vdW  Elec       q    Type
                         _______ _______ _______ _____ _____    ______ ____

>  <TORSDO>
F 13

$$$$
=
 OpenBabel11042421163D

 53 59  0  0  1  0  0  0  0  0999 V2000
  160.1950  209.6750  153.5630 C   0  0  1  0  0  3  0  0  0  0  0  0
  161.5510  205.5000  151.0600 C   0  0  0  0  0  2  0  0  0  0  0  0
  161.7020  209.8410  153.3550 C   0  0  1  0  0  3  0  0  0  0  0  0
  161.6030  207.4650  154.1680 C   0  0  2  0  0  3  0  0  0  0  0  0
  161.9750  206.7400  151.8230 C   0  0  2  0  0  3  0  0  0  0  0  0
  161.5380  206.6570  147.9190 C   0  0  0  0  0  2  0  0  0  0  0  0
  162.2520  206.3960  153.2900 C   0  0  0  0  0  2  0  0  0  0  0  0
  160.6770  208.6180  150.5610 C   0  0  0  0  0  2  0  0  0  0  0  0
  162.2440  205.4420  149.8480 O   0  0  0  0  0  0  0  0  0  0  0  0
  160.5650  206.8750  154.8910 O   0  0  0  0  0  1  0  0  0  0  0  0
  161.2610  205.4870  148.8550 C   0  0  2  0  0  3  0  0  0  0  0  0
  161.6670  208.3530  149.6090 O   0  0  0  0  0  0  0  0  0  0  0  0
  160.8630  207.7770  151.8330 C   0  0  2  0  0  3  0  0  0  0  0  0
  161.0430  208.4680  153.1780 C   0  0  1  0  0  0  0  0  0  0  0  0
  160.9620  207.9510  148.4730 C   0  0  0  0  0  2  0  0  0  0  0  0
  161.9460  210.6310  152.1180 C   0  0  0  0  0  3  0  0  0  0  0  0
  161.0230  211.4670  151.6670 C   0  0  0  0  0  3  0  0  0  0  0  0
  161.2800  212.2480  150.4640 C   0  0  0  0  0  3  0  0  0  0  0  0
  162.0110  211.7380  149.4860 C   0  0  0  0  0  3  0  0  0  0  0  0
  162.2630  212.5340  148.2560 C   0  0  0  0  0  2  0  0  0  0  0  0
  161.3450  212.0580  147.1470 C   0  0  0  0  0  2  0  0  0  0  0  0
  159.3850  213.6600  147.4250 C   0  0  0  0  0  2  0  0  0  0  0  0
  160.5990  214.3810  147.3650 O   0  0  0  0  0  0  0  0  0  0  0  0
  160.5160  213.2080  146.6010 C   0  0  1  0  0  0  0  0  0  0  0  0
  160.1270  212.0450  144.0120 O   0  0  0  0  0  0  0  0  0  0  0  0
  160.3920  213.5120  144.8100 P   0  0  0  0  0  0  0  0  0  0  0  0
  159.2450  214.4530  144.5200 O   0  0  0  0  0  1  0  0  0  0  0  0
  161.8320  214.2010  144.2500 O   0  0  0  0  0  1  0  0  0  0  0  0
  159.8750  209.7270  155.0500 C   0  0  0  0  0  2  0  0  0  0  0  0
  158.4700  211.3470  156.3970 C   0  0  0  0  0  0  0  0  0  0  0  0
  159.3840  211.4590  157.2610 O   0  0  0  0  0  0  0  0  0  0  0  0
  158.6490  210.4770  155.2750 N   0  0  0  0  0  2  0  0  0  0  0  0
  157.2160  212.1050  156.5510 C   0  0  0  0  0  0  0  0  0  0  0  0
  153.3360  214.4530  157.0150 Cl  0  0  0  0  0  0  0  0  0  0  0  0
  154.8070  212.1530  156.8830 C   0  0  0  0  0  3  0  0  0  0  0  0
  154.8260  213.5500  156.8360 C   0  0  0  0  0  0  0  0  0  0  0  0
  155.9990  211.4330  156.7430 C   0  0  0  0  0  3  0  0  0  0  0  0
  156.0340  214.2270  156.6420 C   0  0  0  0  0  3  0  0  0  0  0  0
  157.2240  213.5070  156.4980 C   0  0  0  0  0  3  0  0  0  0  0  0
  161.2900  204.1850  148.0730 C   0  0  0  0  0  2  0  0  0  0  0  0
  162.2250  203.3100  148.6310 O   0  0  0  0  0  0  0  0  0  0  0  0
  161.0020  202.1840  150.7720 C   0  0  0  0  0  1  0  0  0  0  0  0
  161.4320  199.9600  149.6890 C   0  0  0  0  0  1  0  0  0  0  0  0
  158.5010  201.1620  149.0060 O   0  0  0  0  0  0  0  0  0  0  0  0
  161.0000  201.3990  149.4640 C   0  0  0  0  0  0  0  0  0  0  0  0
  159.6550  201.4770  148.7660 C   0  0  0  0  0  0  0  0  0  0  0  0
  161.7510  202.0310  148.3170 C   0  0  1  0  0  3  0  0  0  0  0  0
  160.4220  202.1460  147.6280 C   0  0  1  0  0  3  0  0  0  0  0  0
  160.3970  201.3650  146.2990 C   0  0  0  0  0  0  0  0  0  0  0  0
  160.7480  202.2190  145.0980 C   0  0  0  0  0  2  0  0  0  0  0  0
  159.0250  201.0810  145.7110 C   0  0  0  0  0  2  0  0  0  0  0  0
  159.3810  201.9280  144.5000 C   0  0  0  0  0  2  0  0  0  0  0  0
  161.1770  200.2240  146.3450 F   0  0  0  0  0  0  0  0  0  0  0  0
  1 29  1  1  0  0  0
  3 16  1  6  0  0  0
  3  1  1  0  0  0  0
  4 10  1  6  0  0  0
  5  2  1  6  0  0  0
  5 13  1  0  0  0  0
  5  7  1  0  0  0  0
  6 15  1  0  0  0  0
  6 11  1  0  0  0  0
  7  4  1  0  0  0  0
  9  2  1  0  0  0  0
 11 40  1  6  0  0  0
 11  9  1  0  0  0  0
 12  8  1  0  0  0  0
 13  8  1  6  0  0  0
 13 14  1  0  0  0  0
 14  3  1  0  0  0  0
 14  1  1  0  0  0  0
 14  4  1  0  0  0  0
 15 12  1  0  0  0  0
 17 16  2  0  0  0  0
 18 17  1  0  0  0  0
 19 18  2  0  0  0  0
 20 19  1  0  0  0  0
 21 20  1  0  0  0  0
 23 22  1  0  0  0  0
 24 21  1  0  0  0  0
 24 23  1  0  0  0  0
 24 22  1  0  0  0  0
 25 26  2  0  0  0  0
 26 24  1  0  0  0  0
 27 26  1  0  0  0  0
 28 26  1  0  0  0  0
 29 32  1  0  0  0  0
 30 33  1  0  0  0  0
 30 31  2  0  0  0  0
 32 30  1  0  0  0  0
 33 37  1  0  0  0  0
 36 35  1  0  0  0  0
 36 34  1  0  0  0  0
 37 35  2  0  0  0  0
 38 36  2  0  0  0  0
 39 33  2  0  0  0  0
 39 38  1  0  0  0  0
 40 41  1  0  0  0  0
 45 43  1  0  0  0  0
 45 42  1  0  0  0  0
 46 44  2  0  0  0  0
 46 45  1  0  0  0  0
 47 41  1  0  0  0  0
 47 45  1  0  0  0  0
 48 47  1  0  0  0  0
 48 46  1  0  0  0  0
 49 53  1  0  0  0  0
 49 48  1  0  0  0  0
 50 49  1  0  0  0  0
 51 49  1  0  0  0  0
 52 50  1  0  0  0  0
 52 51  1  0  0  0  0
M  END
>  <MODEL>
3

>  <REMARK>
 VINA RESULT:      -4.6      3.265      7.882
  Name = 
  13 active torsions:
  status: ('A' for Active; 'I' for Inactive)
    1  A    between atoms: C_3  and  C_17
    2  A    between atoms: C_4  and  C_10
    3  A    between atoms: C_5  and  C_26
    4  A    between atoms: C_6  and  C_53
    5  A    between atoms: P_8  and  C_48
    6  A    between atoms: C_14  and  C_33
    7  A    between atoms: C_18  and  C_50
    8  A    between atoms: C_26  and  N_43
    9  A    between atoms: C_30  and  C_37
   10  A    between atoms: C_30  and  O_52
   11  A    between atoms: C_47  and  C_48
   12  A    between atoms: C_47  and  C_50
   13  A    between atoms: C_49  and  O_52
                            x       y       z     vdW  Elec       q    Type
                         _______ _______ _______ _____ _____    ______ ____

>  <TORSDO>
F 13

$$$$
