=
 OpenBabel11042420153D

 25 29  0  0  1  0  0  0  0  0999 V2000
  161.0320  205.5890  151.6350 C   0  0  0  0  0  0  0  0  0  0  0  0
  160.5110  203.9960  151.6640 S   0  0  0  0  0  0  0  0  0  0  0  0
  161.3500  207.6530  154.4700 O   0  0  0  0  0  0  0  0  0  0  0  0
  161.2010  206.5020  152.6610 C   0  0  0  0  0  0  0  0  0  0  0  0
  160.6780  203.7660  149.9880 C   0  0  0  0  0  0  0  0  0  0  0  0
  161.8510  207.2180  150.0750 N   0  0  0  0  0  0  0  0  0  0  0  0
  161.3540  205.9670  150.3370 C   0  0  0  0  0  0  0  0  0  0  0  0
  161.1640  204.9460  149.3920 C   0  0  0  0  0  0  0  0  0  0  0  0
  161.7700  208.4540  153.5220 N   0  0  0  0  0  0  0  0  0  0  0  0
  161.6810  207.7450  152.3890 C   0  0  0  0  0  0  0  0  0  0  0  0
  162.0210  208.1320  151.0860 C   0  0  0  0  0  3  0  0  0  0  0  0
  160.9910  206.4570  154.0180 C   0  0  0  0  0  3  0  0  0  0  0  0
  164.0990  203.9960  145.5510 N   0  0  0  0  0  1  0  0  0  0  0  0
  160.1430  206.6440  144.8400 N   0  0  0  0  0  1  0  0  0  0  0  0
  162.9290  204.6090  146.0800 C   0  0  0  0  0  0  0  0  0  0  0  0
  162.6280  204.4780  147.4360 C   0  0  0  0  0  3  0  0  0  0  0  0
  161.4760  205.0850  147.9530 C   0  0  0  0  0  0  0  0  0  0  0  0
  160.9790  205.9180  145.7340 C   0  0  0  0  0  0  0  0  0  0  0  0
  162.1070  205.3210  145.2650 N   0  0  0  0  0  0  0  0  0  0  0  0
  159.4880  206.3720  147.5420 F   0  0  0  0  0  0  0  0  0  0  0  0
  160.6390  205.8110  147.0880 C   0  0  0  0  0  0  0  0  0  0  0  0
  161.5590  200.5990  148.1730 C   0  0  0  0  0  1  0  0  0  0  0  0
  160.4740  201.3170  150.2690 C   0  0  0  0  0  2  0  0  0  0  0  0
  160.4010  202.4710  149.2850 C   0  0  2  0  0  3  0  0  0  0  0  0
  161.6280  201.5760  149.3260 C   0  0  2  0  0  3  0  0  0  0  0  0
  1  2  1  0  0  0  0
  1  4  1  0  0  0  0
  4 12  2  0  0  0  0
  5  2  1  0  0  0  0
  6  7  1  0  0  0  0
  6 11  2  0  0  0  0
  7  1  2  0  0  0  0
  8  5  2  0  0  0  0
  8  7  1  0  0  0  0
  9  3  1  0  0  0  0
 10  4  1  0  0  0  0
 10  9  2  0  0  0  0
 11 10  1  0  0  0  0
 12  3  1  0  0  0  0
 13 15  1  0  0  0  0
 14 18  1  0  0  0  0
 15 16  1  0  0  0  0
 16 17  2  0  0  0  0
 17  8  1  0  0  0  0
 18 21  2  0  0  0  0
 19 18  1  0  0  0  0
 19 15  2  0  0  0  0
 21 20  1  0  0  0  0
 21 17  1  0  0  0  0
 24 25  1  0  0  0  0
 24  5  1  1  0  0  0
 24 23  1  0  0  0  0
 25 22  1  6  0  0  0
 25 23  1  0  0  0  0
M  END
>  <MODEL>
1

>  <REMARK>
 VINA RESULT:      -7.7      0.000      0.000
  Name = 
  2 active torsions:
  status: ('A' for Active; 'I' for Inactive)
    1  A    between atoms: C_11  and  C_12
    2  A    between atoms: C_13  and  C_17
                            x       y       z     vdW  Elec       q    Type
                         _______ _______ _______ _____ _____    ______ ____

>  <TORSDO>
F 2

$$$$
=
 OpenBabel11042420153D

 25 29  0  0  1  0  0  0  0  0999 V2000
  161.1330  205.3770  151.9170 C   0  0  0  0  0  0  0  0  0  0  0  0
  161.2820  205.5470  153.5780 S   0  0  0  0  0  0  0  0  0  0  0  0
  160.9550  202.2990  150.2170 O   0  0  0  0  0  0  0  0  0  0  0  0
  161.0530  204.2430  151.1290 C   0  0  0  0  0  0  0  0  0  0  0  0
  161.2620  207.2460  153.5450 C   0  0  0  0  0  0  0  0  0  0  0  0
  160.8800  206.7350  149.9550 N   0  0  0  0  0  0  0  0  0  0  0  0
  161.0540  206.6260  151.3110 C   0  0  0  0  0  0  0  0  0  0  0  0
  161.1210  207.6950  152.2170 C   0  0  0  0  0  0  0  0  0  0  0  0
  160.8340  203.1470  149.2250 N   0  0  0  0  0  0  0  0  0  0  0  0
  160.8940  204.3620  149.7830 C   0  0  0  0  0  0  0  0  0  0  0  0
  160.8000  205.6150  149.1640 C   0  0  0  0  0  3  0  0  0  0  0  0
  161.0900  202.8950  151.3960 C   0  0  0  0  0  3  0  0  0  0  0  0
  159.1890  212.1760  152.8960 N   0  0  0  0  0  1  0  0  0  0  0  0
  162.3630  211.5410  149.3340 N   0  0  0  0  0  1  0  0  0  0  0  0
  160.0550  211.3090  152.1740 C   0  0  0  0  0  0  0  0  0  0  0  0
  160.1620  209.9670  152.5410 C   0  0  0  0  0  3  0  0  0  0  0  0
  161.0150  209.1180  151.8260 C   0  0  0  0  0  0  0  0  0  0  0  0
  161.6180  210.9910  150.4150 C   0  0  0  0  0  0  0  0  0  0  0  0
  160.7780  211.7880  151.1270 N   0  0  0  0  0  0  0  0  0  0  0  0
  162.6300  208.8580  150.0650 F   0  0  0  0  0  0  0  0  0  0  0  0
  161.7560  209.6390  150.7510 C   0  0  0  0  0  0  0  0  0  0  0  0
  159.8770  209.4190  156.2770 C   0  0  0  0  0  1  0  0  0  0  0  0
  161.0730  207.2780  156.0110 C   0  0  0  0  0  2  0  0  0  0  0  0
  161.3250  208.1120  154.7680 C   0  0  2  0  0  3  0  0  0  0  0  0
  159.9710  208.1520  155.4560 C   0  0  2  0  0  3  0  0  0  0  0  0
  1  2  1  0  0  0  0
  3 12  1  0  0  0  0
  4 12  2  0  0  0  0
  4  1  1  0  0  0  0
  5  2  1  0  0  0  0
  6  7  1  0  0  0  0
  7  1  2  0  0  0  0
  7  8  1  0  0  0  0
  8  5  2  0  0  0  0
  9 10  2  0  0  0  0
  9  3  1  0  0  0  0
 10  4  1  0  0  0  0
 11 10  1  0  0  0  0
 11  6  2  0  0  0  0
 14 18  1  0  0  0  0
 15 16  1  0  0  0  0
 15 13  1  0  0  0  0
 17  8  1  0  0  0  0
 17 16  2  0  0  0  0
 18 21  2  0  0  0  0
 18 19  1  0  0  0  0
 19 15  2  0  0  0  0
 20 21  1  0  0  0  0
 21 17  1  0  0  0  0
 24  5  1  6  0  0  0
 24 25  1  0  0  0  0
 24 23  1  0  0  0  0
 25 23  1  0  0  0  0
 25 22  1  1  0  0  0
M  END
>  <MODEL>
2

>  <REMARK>
 VINA RESULT:      -6.4      3.139      6.691
  Name = 
  2 active torsions:
  status: ('A' for Active; 'I' for Inactive)
    1  A    between atoms: C_11  and  C_12
    2  A    between atoms: C_13  and  C_17
                            x       y       z     vdW  Elec       q    Type
                         _______ _______ _______ _____ _____    ______ ____

>  <TORSDO>
F 2

$$$$
=
 OpenBabel11042420153D

 25 29  0  0  1  0  0  0  0  0999 V2000
  161.4670  207.3150  150.1260 C   0  0  0  0  0  0  0  0  0  0  0  0
  161.9580  208.5330  149.0850 S   0  0  0  0  0  0  0  0  0  0  0  0
  161.1760  203.9170  149.2530 O   0  0  0  0  0  0  0  0  0  0  0  0
  161.3110  205.9570  149.9170 C   0  0  0  0  0  0  0  0  0  0  0  0
  161.8530  209.7640  150.2530 C   0  0  0  0  0  0  0  0  0  0  0  0
  160.8570  207.0110  152.4270 N   0  0  0  0  0  0  0  0  0  0  0  0
  161.2260  207.8340  151.3940 C   0  0  0  0  0  0  0  0  0  0  0  0
  161.4430  209.2170  151.4840 C   0  0  0  0  0  0  0  0  0  0  0  0
  160.8510  203.8840  150.5220 N   0  0  0  0  0  0  0  0  0  0  0  0
  160.9320  205.1510  150.9460 C   0  0  0  0  0  0  0  0  0  0  0  0
  160.6990  205.6620  152.2290 C   0  0  0  0  0  3  0  0  0  0  0  0
  161.4670  205.1390  148.8230 C   0  0  0  0  0  3  0  0  0  0  0  0
  163.2630  210.7330  155.8040 N   0  0  0  0  0  1  0  0  0  0  0  0
  158.8760  212.2180  154.4930 N   0  0  0  0  0  1  0  0  0  0  0  0
  162.2070  210.7280  154.8510 C   0  0  0  0  0  0  0  0  0  0  0  0
  162.3400  209.9990  153.6690 C   0  0  0  0  0  3  0  0  0  0  0  0
  161.2980  209.9960  152.7340 C   0  0  0  0  0  0  0  0  0  0  0  0
  160.0420  211.4550  154.2020 C   0  0  0  0  0  0  0  0  0  0  0  0
  161.0710  211.4340  155.0910 N   0  0  0  0  0  0  0  0  0  0  0  0
  159.1230  210.7990  152.1000 F   0  0  0  0  0  0  0  0  0  0  0  0
  160.1350  210.7380  153.0040 C   0  0  0  0  0  0  0  0  0  0  0  0
  162.8670  212.7220  148.1730 C   0  0  0  0  0  1  0  0  0  0  0  0
  160.9750  211.9730  149.5680 C   0  0  0  0  0  2  0  0  0  0  0  0
  162.2090  211.1980  149.9980 C   0  0  2  0  0  3  0  0  0  0  0  0
  161.9910  211.5420  148.5340 C   0  0  2  0  0  3  0  0  0  0  0  0
  1  7  2  0  0  0  0
  2  1  1  0  0  0  0
  2  5  1  0  0  0  0
  3  9  1  0  0  0  0
  4  1  1  0  0  0  0
  4 10  1  0  0  0  0
  5  8  2  0  0  0  0
  7  8  1  0  0  0  0
  7  6  1  0  0  0  0
  8 17  1  0  0  0  0
  9 10  2  0  0  0  0
 10 11  1  0  0  0  0
 11  6  2  0  0  0  0
 12  3  1  0  0  0  0
 12  4  2  0  0  0  0
 15 19  1  0  0  0  0
 15 13  1  0  0  0  0
 16 15  2  0  0  0  0
 17 21  2  0  0  0  0
 17 16  1  0  0  0  0
 18 14  1  0  0  0  0
 18 19  2  0  0  0  0
 20 21  1  0  0  0  0
 21 18  1  0  0  0  0
 23 24  1  0  0  0  0
 24  5  1  6  0  0  0
 25 22  1  1  0  0  0
 25 23  1  0  0  0  0
 25 24  1  0  0  0  0
M  END
>  <MODEL>
3

>  <REMARK>
 VINA RESULT:      -6.2      3.614      7.805
  Name = 
  2 active torsions:
  status: ('A' for Active; 'I' for Inactive)
    1  A    between atoms: C_11  and  C_12
    2  A    between atoms: C_13  and  C_17
                            x       y       z     vdW  Elec       q    Type
                         _______ _______ _______ _____ _____    ______ ____

>  <TORSDO>
F 2

$$$$
=
 OpenBabel11042420153D

 25 29  0  0  1  0  0  0  0  0999 V2000
  161.0070  205.4780  151.4420 C   0  0  0  0  0  0  0  0  0  0  0  0
  160.5260  203.8730  151.4640 S   0  0  0  0  0  0  0  0  0  0  0  0
  161.3610  207.5110  154.2950 O   0  0  0  0  0  0  0  0  0  0  0  0
  161.1850  206.3810  152.4750 C   0  0  0  0  0  0  0  0  0  0  0  0
  160.6480  203.6700  149.7810 C   0  0  0  0  0  0  0  0  0  0  0  0
  161.7390  207.1480  149.8820 N   0  0  0  0  0  0  0  0  0  0  0  0
  161.2810  205.8810  150.1400 C   0  0  0  0  0  0  0  0  0  0  0  0
  161.0860  204.8690  149.1870 C   0  0  0  0  0  0  0  0  0  0  0  0
  161.7330  208.3340  153.3460 N   0  0  0  0  0  0  0  0  0  0  0  0
  161.6270  207.6390  152.2070 C   0  0  0  0  0  0  0  0  0  0  0  0
  161.9180  208.0510  150.9000 C   0  0  0  0  0  3  0  0  0  0  0  0
  161.0180  206.3130  153.8380 C   0  0  0  0  0  3  0  0  0  0  0  0
  159.8730  206.7950  144.8180 N   0  0  0  0  0  1  0  0  0  0  0  0
  163.7630  203.9750  145.1030 N   0  0  0  0  0  1  0  0  0  0  0  0
  160.7400  205.9880  145.6060 C   0  0  0  0  0  0  0  0  0  0  0  0
  160.4970  205.8320  146.9700 C   0  0  0  0  0  3  0  0  0  0  0  0
  161.3520  205.0350  147.7410 C   0  0  0  0  0  0  0  0  0  0  0  0
  162.6560  204.5930  145.7500 C   0  0  0  0  0  0  0  0  0  0  0  0
  161.8040  205.3700  145.0280 N   0  0  0  0  0  0  0  0  0  0  0  0
  163.3280  203.6700  147.8450 F   0  0  0  0  0  0  0  0  0  0  0  0
  162.4480  204.4110  147.1220 C   0  0  0  0  0  0  0  0  0  0  0  0
  161.5540  200.4490  148.0740 C   0  0  0  0  0  1  0  0  0  0  0  0
  160.3250  201.2340  150.0650 C   0  0  0  0  0  2  0  0  0  0  0  0
  160.3800  202.3780  149.0680 C   0  0  2  0  0  3  0  0  0  0  0  0
  161.5630  201.4370  149.2210 C   0  0  2  0  0  3  0  0  0  0  0  0
  1  2  1  0  0  0  0
  1  4  1  0  0  0  0
  4 12  2  0  0  0  0
  5  2  1  0  0  0  0
  6  7  1  0  0  0  0
  6 11  2  0  0  0  0
  7  1  2  0  0  0  0
  8  5  2  0  0  0  0
  8  7  1  0  0  0  0
  9  3  1  0  0  0  0
 10  4  1  0  0  0  0
 10  9  2  0  0  0  0
 11 10  1  0  0  0  0
 12  3  1  0  0  0  0
 13 15  1  0  0  0  0
 14 18  1  0  0  0  0
 15 16  1  0  0  0  0
 16 17  2  0  0  0  0
 17  8  1  0  0  0  0
 18 21  2  0  0  0  0
 19 15  2  0  0  0  0
 19 18  1  0  0  0  0
 21 17  1  0  0  0  0
 21 20  1  0  0  0  0
 24 25  1  0  0  0  0
 24  5  1  1  0  0  0
 24 23  1  0  0  0  0
 25 22  1  6  0  0  0
 25 23  1  0  0  0  0
M  END
>  <MODEL>
4

>  <REMARK>
 VINA RESULT:      -6.1      0.980      1.929
  Name = 
  2 active torsions:
  status: ('A' for Active; 'I' for Inactive)
    1  A    between atoms: C_11  and  C_12
    2  A    between atoms: C_13  and  C_17
                            x       y       z     vdW  Elec       q    Type
                         _______ _______ _______ _____ _____    ______ ____

>  <TORSDO>
F 2

$$$$
=
 OpenBabel11042420153D

 25 29  0  0  1  0  0  0  0  0999 V2000
  161.3300  207.0920  150.6340 C   0  0  0  0  0  0  0  0  0  0  0  0
  160.8570  205.8150  151.6100 S   0  0  0  0  0  0  0  0  0  0  0  0
  162.1030  210.3280  151.7870 O   0  0  0  0  0  0  0  0  0  0  0  0
  161.6600  208.3980  150.9520 C   0  0  0  0  0  0  0  0  0  0  0  0
  160.7290  204.7040  150.3320 C   0  0  0  0  0  0  0  0  0  0  0  0
  161.8250  207.5480  148.3300 N   0  0  0  0  0  0  0  0  0  0  0  0
  161.4090  206.6810  149.3080 C   0  0  0  0  0  0  0  0  0  0  0  0
  161.0760  205.3310  149.1190 C   0  0  0  0  0  0  0  0  0  0  0  0
  162.3310  210.4520  150.5030 N   0  0  0  0  0  0  0  0  0  0  0  0
  162.0580  209.2540  149.9730 C   0  0  0  0  0  0  0  0  0  0  0  0
  162.1530  208.8460  148.6360 C   0  0  0  0  0  3  0  0  0  0  0  0
  161.6950  209.1110  152.1260 C   0  0  0  0  0  3  0  0  0  0  0  0
  161.2310  201.1700  146.4850 N   0  0  0  0  0  1  0  0  0  0  0  0
  161.2060  205.3820  144.1570 N   0  0  0  0  0  1  0  0  0  0  0  0
  161.2020  202.5920  146.5350 C   0  0  0  0  0  0  0  0  0  0  0  0
  161.1510  203.2450  147.7660 C   0  0  0  0  0  3  0  0  0  0  0  0
  161.1250  204.6440  147.8100 C   0  0  0  0  0  0  0  0  0  0  0  0
  161.1940  204.6720  145.3900 C   0  0  0  0  0  0  0  0  0  0  0  0
  161.2230  203.3120  145.3820 N   0  0  0  0  0  0  0  0  0  0  0  0
  161.0680  206.7220  146.6040 F   0  0  0  0  0  0  0  0  0  0  0  0
  161.1420  205.3660  146.6040 C   0  0  0  0  0  0  0  0  0  0  0  0
  161.3510  201.0030  150.4850 C   0  0  0  0  0  1  0  0  0  0  0  0
  160.5770  202.8350  151.9450 C   0  0  0  0  0  2  0  0  0  0  0  0
  160.3580  203.2610  150.5050 C   0  0  2  0  0  3  0  0  0  0  0  0
  161.5810  202.4440  150.8850 C   0  0  2  0  0  3  0  0  0  0  0  0
  1  4  1  0  0  0  0
  1  2  1  0  0  0  0
  3 12  1  0  0  0  0
  4 12  2  0  0  0  0
  5  2  1  0  0  0  0
  6 11  2  0  0  0  0
  6  7  1  0  0  0  0
  7  1  2  0  0  0  0
  8  7  1  0  0  0  0
  8  5  2  0  0  0  0
  9  3  1  0  0  0  0
 10  9  2  0  0  0  0
 10  4  1  0  0  0  0
 11 10  1  0  0  0  0
 13 15  1  0  0  0  0
 14 18  1  0  0  0  0
 15 16  1  0  0  0  0
 16 17  2  0  0  0  0
 17  8  1  0  0  0  0
 18 21  2  0  0  0  0
 19 18  1  0  0  0  0
 19 15  2  0  0  0  0
 20 21  1  0  0  0  0
 21 17  1  0  0  0  0
 24  5  1  1  0  0  0
 24 25  1  0  0  0  0
 24 23  1  0  0  0  0
 25 22  1  6  0  0  0
 25 23  1  0  0  0  0
M  END
>  <MODEL>
5

>  <REMARK>
 VINA RESULT:      -6.0      1.969      2.299
  Name = 
  2 active torsions:
  status: ('A' for Active; 'I' for Inactive)
    1  A    between atoms: C_11  and  C_12
    2  A    between atoms: C_13  and  C_17
                            x       y       z     vdW  Elec       q    Type
                         _______ _______ _______ _____ _____    ______ ____

>  <TORSDO>
F 2

$$$$
=
 OpenBabel11042420153D

 25 29  0  0  1  0  0  0  0  0999 V2000
  161.1470  205.8750  152.0940 C   0  0  0  0  0  0  0  0  0  0  0  0
  161.2880  206.2050  153.7310 S   0  0  0  0  0  0  0  0  0  0  0  0
  160.9320  202.6480  150.7020 O   0  0  0  0  0  0  0  0  0  0  0  0
  161.0540  204.6700  151.4200 C   0  0  0  0  0  0  0  0  0  0  0  0
  161.2950  207.8920  153.5320 C   0  0  0  0  0  0  0  0  0  0  0  0
  160.9280  207.0380  150.0060 N   0  0  0  0  0  0  0  0  0  0  0  0
  161.0920  207.0590  151.3680 C   0  0  0  0  0  0  0  0  0  0  0  0
  161.1700  208.2110  152.1660 C   0  0  0  0  0  0  0  0  0  0  0  0
  160.8310  203.3960  149.6320 N   0  0  0  0  0  0  0  0  0  0  0  0
  160.9060  204.6590  150.0680 C   0  0  0  0  0  0  0  0  0  0  0  0
  160.8370  205.8470  149.3290 C   0  0  0  0  0  3  0  0  0  0  0  0
  161.0690  203.3550  151.8180 C   0  0  0  0  0  3  0  0  0  0  0  0
  162.7060  211.6690  149.0110 N   0  0  0  0  0  1  0  0  0  0  0  0
  159.2360  212.7830  152.1540 N   0  0  0  0  0  1  0  0  0  0  0  0
  161.8570  211.2740  150.0810 C   0  0  0  0  0  0  0  0  0  0  0  0
  161.9260  209.9740  150.5820 C   0  0  0  0  0  3  0  0  0  0  0  0
  161.0890  209.5900  151.6360 C   0  0  0  0  0  0  0  0  0  0  0  0
  160.1480  211.8210  151.6360 C   0  0  0  0  0  0  0  0  0  0  0  0
  160.9780  212.1630  150.6140 N   0  0  0  0  0  0  0  0  0  0  0  0
  159.3230  210.1770  153.1570 F   0  0  0  0  0  0  0  0  0  0  0  0
  160.1850  210.5260  152.1670 C   0  0  0  0  0  0  0  0  0  0  0  0
  159.9430  209.9420  156.3740 C   0  0  0  0  0  1  0  0  0  0  0  0
  161.5800  208.1400  155.9770 C   0  0  0  0  0  2  0  0  0  0  0  0
  161.3640  208.8730  154.6650 C   0  0  2  0  0  3  0  0  0  0  0  0
  160.2040  208.6560  155.6220 C   0  0  2  0  0  3  0  0  0  0  0  0
  1  2  1  0  0  0  0
  3 12  1  0  0  0  0
  4 12  2  0  0  0  0
  4  1  1  0  0  0  0
  5  2  1  0  0  0  0
  6  7  1  0  0  0  0
  7  1  2  0  0  0  0
  7  8  1  0  0  0  0
  8  5  2  0  0  0  0
  9 10  2  0  0  0  0
  9  3  1  0  0  0  0
 10  4  1  0  0  0  0
 11  6  2  0  0  0  0
 11 10  1  0  0  0  0
 13 15  1  0  0  0  0
 15 16  2  0  0  0  0
 15 19  1  0  0  0  0
 16 17  1  0  0  0  0
 17  8  1  0  0  0  0
 17 21  2  0  0  0  0
 18 14  1  0  0  0  0
 18 21  1  0  0  0  0
 19 18  2  0  0  0  0
 21 20  1  0  0  0  0
 24  5  1  6  0  0  0
 24 25  1  0  0  0  0
 24 23  1  0  0  0  0
 25 23  1  0  0  0  0
 25 22  1  1  0  0  0
M  END
>  <MODEL>
6

>  <REMARK>
 VINA RESULT:      -5.8      3.395      6.722
  Name = 
  2 active torsions:
  status: ('A' for Active; 'I' for Inactive)
    1  A    between atoms: C_11  and  C_12
    2  A    between atoms: C_13  and  C_17
                            x       y       z     vdW  Elec       q    Type
                         _______ _______ _______ _____ _____    ______ ____

>  <TORSDO>
F 2

$$$$
=
 OpenBabel11042420153D

 25 29  0  0  1  0  0  0  0  0999 V2000
  161.6000  206.6490  149.0300 C   0  0  0  0  0  0  0  0  0  0  0  0
  162.2220  208.0400  148.3330 S   0  0  0  0  0  0  0  0  0  0  0  0
  161.4660  203.4980  147.4640 O   0  0  0  0  0  0  0  0  0  0  0  0
  161.4870  205.3620  148.5340 C   0  0  0  0  0  0  0  0  0  0  0  0
  161.9420  209.0150  149.6960 C   0  0  0  0  0  0  0  0  0  0  0  0
  160.6720  205.9050  151.1150 N   0  0  0  0  0  0  0  0  0  0  0  0
  161.1760  206.9090  150.3290 C   0  0  0  0  0  0  0  0  0  0  0  0
  161.3660  208.2430  150.7240 C   0  0  0  0  0  0  0  0  0  0  0  0
  160.9650  203.2200  148.6410 N   0  0  0  0  0  0  0  0  0  0  0  0
  160.9740  204.3760  149.3170 C   0  0  0  0  0  0  0  0  0  0  0  0
  160.5560  204.6250  150.6300 C   0  0  0  0  0  3  0  0  0  0  0  0
  161.8040  204.7760  147.3320 C   0  0  0  0  0  3  0  0  0  0  0  0
  159.1750  211.5950  153.5920 N   0  0  0  0  0  1  0  0  0  0  0  0
  161.5860  207.9890  155.6770 N   0  0  0  0  0  1  0  0  0  0  0  0
  159.9580  210.4150  153.4620 C   0  0  0  0  0  0  0  0  0  0  0  0
  160.2660  209.9210  152.1940 C   0  0  0  0  0  3  0  0  0  0  0  0
  161.0380  208.7590  152.0700 C   0  0  0  0  0  0  0  0  0  0  0  0
  161.1520  208.6370  154.4860 C   0  0  0  0  0  0  0  0  0  0  0  0
  160.4030  209.7690  154.5710 N   0  0  0  0  0  0  0  0  0  0  0  0
  162.1920  206.9510  153.1550 F   0  0  0  0  0  0  0  0  0  0  0  0
  161.4830  208.1070  153.2330 C   0  0  0  0  0  0  0  0  0  0  0  0
  163.0940  212.3410  148.3850 C   0  0  0  0  0  1  0  0  0  0  0  0
  161.1160  211.3350  149.4640 C   0  0  0  0  0  2  0  0  0  0  0  0
  162.3180  210.4640  149.7860 C   0  0  2  0  0  3  0  0  0  0  0  0
  162.1930  211.1250  148.4230 C   0  0  2  0  0  3  0  0  0  0  0  0
  1  7  2  0  0  0  0
  2  1  1  0  0  0  0
  2  5  1  0  0  0  0
  3  9  1  0  0  0  0
  4  1  1  0  0  0  0
  4 10  1  0  0  0  0
  5  8  2  0  0  0  0
  7  8  1  0  0  0  0
  7  6  1  0  0  0  0
  8 17  1  0  0  0  0
  9 10  2  0  0  0  0
 10 11  1  0  0  0  0
 11  6  2  0  0  0  0
 12  3  1  0  0  0  0
 12  4  2  0  0  0  0
 15 13  1  0  0  0  0
 15 19  1  0  0  0  0
 16 15  2  0  0  0  0
 17 16  1  0  0  0  0
 17 21  2  0  0  0  0
 18 19  2  0  0  0  0
 18 14  1  0  0  0  0
 20 21  1  0  0  0  0
 21 18  1  0  0  0  0
 23 24  1  0  0  0  0
 24  5  1  6  0  0  0
 25 22  1  1  0  0  0
 25 23  1  0  0  0  0
 25 24  1  0  0  0  0
M  END
>  <MODEL>
7

>  <REMARK>
 VINA RESULT:      -5.7      3.353      7.584
  Name = 
  2 active torsions:
  status: ('A' for Active; 'I' for Inactive)
    1  A    between atoms: C_11  and  C_12
    2  A    between atoms: C_13  and  C_17
                            x       y       z     vdW  Elec       q    Type
                         _______ _______ _______ _____ _____    ______ ____

>  <TORSDO>
F 2

$$$$
=
 OpenBabel11042420153D

 25 29  0  0  1  0  0  0  0  0999 V2000
  161.4370  204.8470  149.0000 C   0  0  0  0  0  0  0  0  0  0  0  0
  161.5950  204.3500  150.5920 S   0  0  0  0  0  0  0  0  0  0  0  0
  161.0290  202.6880  146.2480 O   0  0  0  0  0  0  0  0  0  0  0  0
  161.2720  204.1150  147.8370 C   0  0  0  0  0  0  0  0  0  0  0  0
  161.7040  205.9260  151.2190 C   0  0  0  0  0  0  0  0  0  0  0  0
  161.2910  206.8730  147.7220 N   0  0  0  0  0  0  0  0  0  0  0  0
  161.4530  206.2350  148.9250 C   0  0  0  0  0  0  0  0  0  0  0  0
  161.6010  206.8620  150.1720 C   0  0  0  0  0  0  0  0  0  0  0  0
  160.9740  203.8600  145.6650 N   0  0  0  0  0  0  0  0  0  0  0  0
  161.1250  204.7570  146.6470 C   0  0  0  0  0  0  0  0  0  0  0  0
  161.1280  206.1550  146.5630 C   0  0  0  0  0  3  0  0  0  0  0  0
  161.2070  202.7700  147.5620 C   0  0  0  0  0  3  0  0  0  0  0  0
  160.5220  210.8110  152.9140 N   0  0  0  0  0  1  0  0  0  0  0  0
  162.6480  211.4690  148.6460 N   0  0  0  0  0  1  0  0  0  0  0  0
  161.0650  210.2550  151.7230 C   0  0  0  0  0  0  0  0  0  0  0  0
  161.0690  208.8720  151.5380 C   0  0  0  0  0  3  0  0  0  0  0  0
  161.6030  208.3290  150.3640 C   0  0  0  0  0  0  0  0  0  0  0  0
  162.1100  210.5750  149.6150 C   0  0  0  0  0  0  0  0  0  0  0  0
  161.5800  211.0700  150.7650 N   0  0  0  0  0  0  0  0  0  0  0  0
  162.7060  208.7030  148.2610 F   0  0  0  0  0  0  0  0  0  0  0  0
  162.1350  209.1940  149.3910 C   0  0  0  0  0  0  0  0  0  0  0  0
  160.5750  207.2560  154.5440 C   0  0  0  0  0  1  0  0  0  0  0  0
  161.2430  205.1180  153.5110 C   0  0  0  0  0  2  0  0  0  0  0  0
  161.8320  206.2440  152.6790 C   0  0  2  0  0  3  0  0  0  0  0  0
  160.4560  206.3930  153.3070 C   0  0  2  0  0  3  0  0  0  0  0  0
  1  2  1  0  0  0  0
  2  5  1  0  0  0  0
  3 12  1  0  0  0  0
  4  1  1  0  0  0  0
  6  7  1  0  0  0  0
  7  1  2  0  0  0  0
  7  8  1  0  0  0  0
  8 17  1  0  0  0  0
  8  5  2  0  0  0  0
  9  3  1  0  0  0  0
  9 10  2  0  0  0  0
 10  4  1  0  0  0  0
 11 10  1  0  0  0  0
 11  6  2  0  0  0  0
 12  4  2  0  0  0  0
 14 18  1  0  0  0  0
 15 13  1  0  0  0  0
 16 15  1  0  0  0  0
 17 16  2  0  0  0  0
 18 19  1  0  0  0  0
 19 15  2  0  0  0  0
 20 21  1  0  0  0  0
 21 18  2  0  0  0  0
 21 17  1  0  0  0  0
 24  5  1  6  0  0  0
 24 25  1  0  0  0  0
 24 23  1  0  0  0  0
 25 23  1  0  0  0  0
 25 22  1  1  0  0  0
M  END
>  <MODEL>
8

>  <REMARK>
 VINA RESULT:      -5.7      2.821      6.176
  Name = 
  2 active torsions:
  status: ('A' for Active; 'I' for Inactive)
    1  A    between atoms: C_11  and  C_12
    2  A    between atoms: C_13  and  C_17
                            x       y       z     vdW  Elec       q    Type
                         _______ _______ _______ _____ _____    ______ ____

>  <TORSDO>
F 2

$$$$
=
 OpenBabel11042420153D

 25 29  0  0  1  0  0  0  0  0999 V2000
  161.2640  206.9530  152.0870 C   0  0  0  0  0  0  0  0  0  0  0  0
  161.4610  207.5940  153.6220 S   0  0  0  0  0  0  0  0  0  0  0  0
  160.9400  203.5220  151.3630 O   0  0  0  0  0  0  0  0  0  0  0  0
  161.1260  205.6420  151.6660 C   0  0  0  0  0  0  0  0  0  0  0  0
  161.4970  209.2090  153.0940 C   0  0  0  0  0  0  0  0  0  0  0  0
  161.0060  207.6880  149.8160 N   0  0  0  0  0  0  0  0  0  0  0  0
  161.2100  207.9730  151.1430 C   0  0  0  0  0  0  0  0  0  0  0  0
  161.3370  209.2560  151.6960 C   0  0  0  0  0  0  0  0  0  0  0  0
  160.8220  204.0480  150.1690 N   0  0  0  0  0  0  0  0  0  0  0  0
  160.9360  205.3700  150.3470 C   0  0  0  0  0  0  0  0  0  0  0  0
  160.8690  206.3900  149.3900 C   0  0  0  0  0  3  0  0  0  0  0  0
  161.1260  204.4300  152.3140 C   0  0  0  0  0  3  0  0  0  0  0  0
  162.9720  212.0610  147.9910 N   0  0  0  0  0  1  0  0  0  0  0  0
  159.3760  213.7130  150.7300 N   0  0  0  0  0  1  0  0  0  0  0  0
  162.0840  211.8680  149.0850 C   0  0  0  0  0  0  0  0  0  0  0  0
  162.1430  210.6900  149.8300 C   0  0  0  0  0  3  0  0  0  0  0  0
  161.2680  210.5060  150.9070 C   0  0  0  0  0  0  0  0  0  0  0  0
  160.3130  212.6820  150.4410 C   0  0  0  0  0  0  0  0  0  0  0  0
  161.1800  212.8310  149.4040 N   0  0  0  0  0  0  0  0  0  0  0  0
  159.4400  211.3510  152.2190 F   0  0  0  0  0  0  0  0  0  0  0  0
  160.3380  211.5140  151.2130 C   0  0  0  0  0  0  0  0  0  0  0  0
  160.2490  211.9120  155.3840 C   0  0  0  0  0  1  0  0  0  0  0  0
  161.7110  209.9260  155.4520 C   0  0  0  0  0  2  0  0  0  0  0  0
  161.6200  210.3900  154.0090 C   0  0  2  0  0  3  0  0  0  0  0  0
  160.4080  210.4800  154.9210 C   0  0  2  0  0  3  0  0  0  0  0  0
  1  2  1  0  0  0  0
  3 12  1  0  0  0  0
  4  1  1  0  0  0  0
  4 12  2  0  0  0  0
  5  2  1  0  0  0  0
  6  7  1  0  0  0  0
  7  8  1  0  0  0  0
  7  1  2  0  0  0  0
  8  5  2  0  0  0  0
  9 10  2  0  0  0  0
  9  3  1  0  0  0  0
 10  4  1  0  0  0  0
 11  6  2  0  0  0  0
 11 10  1  0  0  0  0
 13 15  1  0  0  0  0
 15 19  2  0  0  0  0
 15 16  1  0  0  0  0
 16 17  2  0  0  0  0
 17 21  1  0  0  0  0
 17  8  1  0  0  0  0
 18 14  1  0  0  0  0
 18 21  2  0  0  0  0
 19 18  1  0  0  0  0
 21 20  1  0  0  0  0
 24  5  1  6  0  0  0
 24 25  1  0  0  0  0
 24 23  1  0  0  0  0
 25 22  1  1  0  0  0
 25 23  1  0  0  0  0
M  END
>  <MODEL>
9

>  <REMARK>
 VINA RESULT:      -5.3      3.763      6.924
  Name = 
  2 active torsions:
  status: ('A' for Active; 'I' for Inactive)
    1  A    between atoms: C_11  and  C_12
    2  A    between atoms: C_13  and  C_17
                            x       y       z     vdW  Elec       q    Type
                         _______ _______ _______ _____ _____    ______ ____

>  <TORSDO>
F 2

$$$$
