=
 OpenBabel11042420243D

 36 38  0  0  1  0  0  0  0  0999 V2000
  162.1660  209.5010  152.1030 O   0  0  0  0  0  0  0  0  0  0  0  0
  162.0300  209.7840  149.7540 C   0  0  0  0  0  0  0  0  0  0  0  0
  161.9920  208.9540  150.9810 C   0  0  0  0  0  0  0  0  0  0  0  0
  161.2560  207.0470  149.5070 C   0  0  1  0  0  3  0  0  0  0  0  0
  161.7960  207.4500  150.8970 C   0  0  2  0  0  3  0  0  0  0  0  0
  162.0640  207.7200  148.3990 C   0  0  0  0  0  2  0  0  0  0  0  0
  162.0230  209.2080  148.5500 C   0  0  0  0  0  3  0  0  0  0  0  0
  161.2660  205.6440  152.3500 C   0  0  0  0  0  2  0  0  0  0  0  0
  161.6630  206.7770  153.1680 C   0  0  1  0  0  3  0  0  0  0  0  0
  160.8710  207.0060  151.9440 N   0  0  1  0  0  0  0  0  0  0  0  0
  160.7500  206.8820  154.3700 C   0  0  0  0  0  2  0  0  0  0  0  0
  161.2580  207.9650  155.2990 C   0  0  0  0  0  2  0  0  0  0  0  0
  160.3430  209.0890  155.2770 N   0  0  0  0  0  2  0  0  0  0  0  0
  161.1540  210.2900  155.4040 C   0  0  0  0  0  2  0  0  0  0  0  0
  160.5790  211.4270  154.5650 C   0  0  2  0  0  3  0  0  0  0  0  0
  160.1270  212.4530  155.3970 O   0  0  0  0  0  1  0  0  0  0  0  0
  159.4400  210.9480  153.6740 C   0  0  0  0  0  2  0  0  0  0  0  0
  158.0960  212.7190  152.7850 O   0  0  0  0  0  1  0  0  0  0  0  0
  159.2030  211.9110  152.5210 C   0  0  0  0  0  2  0  0  0  0  0  0
  161.3120  205.5390  149.3150 C   0  0  0  0  0  2  0  0  0  0  0  0
  161.4430  205.2200  147.9000 N   0  0  0  0  0  2  0  0  0  0  0  0
  161.5010  203.8920  147.3630 C   0  0  0  0  0  0  0  0  0  0  0  0
  161.8250  203.7460  146.1560 O   0  0  0  0  0  0  0  0  0  0  0  0
  161.2160  202.7240  148.1470 N   0  0  0  0  0  2  0  0  0  0  0  0
  160.5430  202.7240  149.4370 C   0  0  0  0  0  2  0  0  0  0  0  0
  161.0200  201.6100  150.2380 N   0  0  0  0  0  1  0  0  0  0  0  0
  162.0480  211.2760  149.8430 C   0  0  0  0  0  2  0  0  0  0  0  0
  160.7040  212.5100  146.5180 C   0  0  0  0  0  0  0  0  0  0  0  0
  161.8570  213.0520  145.9390 C   0  0  0  0  0  3  0  0  0  0  0  0
  160.7680  211.9240  147.7880 C   0  0  0  0  0  3  0  0  0  0  0  0
  163.1330  212.4430  147.9060 C   0  0  0  0  0  3  0  0  0  0  0  0
  163.0700  213.0200  146.6340 C   0  0  0  0  0  3  0  0  0  0  0  0
  161.9820  211.8940  148.4850 C   0  0  0  0  0  0  0  0  0  0  0  0
  159.4180  212.5250  145.7700 C   0  0  0  0  0  2  0  0  0  0  0  0
  158.4220  213.2740  146.5180 N   0  0  0  0  0  2  0  0  0  0  0  0
  157.2110  212.4740  146.5220 C   0  0  0  0  0  1  0  0  0  0  0  0
  2 27  1  0  0  0  0
  2  3  1  0  0  0  0
  3  1  2  0  0  0  0
  4 20  1  6  0  0  0
  4  5  1  0  0  0  0
  5  3  1  6  0  0  0
  5 10  1  0  0  0  0
  6  7  1  0  0  0  0
  6  4  1  0  0  0  0
  7  2  2  0  0  0  0
  8  9  1  0  0  0  0
  9 11  1  1  0  0  0
 10  8  1  6  0  0  0
 10  9  1  0  0  0  0
 11 12  1  0  0  0  0
 13 12  1  0  0  0  0
 13 14  1  0  0  0  0
 15 16  1  1  0  0  0
 15 14  1  0  0  0  0
 17 15  1  0  0  0  0
 19 18  1  0  0  0  0
 19 17  1  0  0  0  0
 21 20  1  0  0  0  0
 22 21  1  0  0  0  0
 22 24  1  0  0  0  0
 23 22  2  0  0  0  0
 24 25  1  0  0  0  0
 25 26  1  0  0  0  0
 28 30  1  0  0  0  0
 29 28  2  0  0  0  0
 29 32  1  0  0  0  0
 30 33  2  0  0  0  0
 31 33  1  0  0  0  0
 32 31  2  0  0  0  0
 33 27  1  0  0  0  0
 34 35  1  0  0  0  0
 34 28  1  0  0  0  0
 35 36  1  0  0  0  0
M  END
>  <MODEL>
1

>  <REMARK>
 VINA RESULT:      -6.7      0.000      0.000
  Name = 
  15 active torsions:
  status: ('A' for Active; 'I' for Inactive)
    1  A    between atoms: N_1  and  C_24
    2  A    between atoms: N_1  and  C_29
    3  A    between atoms: C_3  and  C_20
    4  A    between atoms: C_4  and  C_24
    5  A    between atoms: C_4  and  C_27
    6  A    between atoms: N_5  and  C_7
    7  A    between atoms: C_6  and  C_32
    8  A    between atoms: C_7  and  C_23
    9  A    between atoms: N_10  and  C_32
   10  A    between atoms: C_14  and  C_27
   11  A    between atoms: C_16  and  C_29
   12  A    between atoms: C_16  and  C_33
   13  A    between atoms: C_20  and  C_35
   14  A    between atoms: N_22  and  C_31
   15  A    between atoms: C_25  and  N_34
                            x       y       z     vdW  Elec       q    Type
                         _______ _______ _______ _____ _____    ______ ____

>  <TORSDO>
F 15

$$$$
=
 OpenBabel11042420243D

 36 38  0  0  1  0  0  0  0  0999 V2000
  161.9040  207.8010  149.1640 O   0  0  0  0  0  0  0  0  0  0  0  0
  161.1340  205.8050  150.1820 C   0  0  0  0  0  0  0  0  0  0  0  0
  161.5840  207.2150  150.2330 C   0  0  0  0  0  0  0  0  0  0  0  0
  160.9450  207.1910  152.6710 C   0  0  1  0  0  3  0  0  0  0  0  0
  161.7100  207.9440  151.5600 C   0  0  2  0  0  3  0  0  0  0  0  0
  161.2860  205.7020  152.6450 C   0  0  0  0  0  2  0  0  0  0  0  0
  160.9560  205.1120  151.3090 C   0  0  0  0  0  3  0  0  0  0  0  0
  161.9750  210.1760  152.3350 C   0  0  0  0  0  2  0  0  0  0  0  0
  162.2920  210.1530  150.9190 C   0  0  1  0  0  3  0  0  0  0  0  0
  161.1940  209.3100  151.4320 N   0  0  1  0  0  0  0  0  0  0  0  0
  161.7000  211.3710  150.2440 C   0  0  0  0  0  2  0  0  0  0  0  0
  162.0940  211.3830  148.7820 C   0  0  0  0  0  2  0  0  0  0  0  0
  162.3150  212.7500  148.3510 N   0  0  0  0  0  2  0  0  0  0  0  0
  161.0410  213.2400  147.8480 C   0  0  0  0  0  2  0  0  0  0  0  0
  161.0500  213.3130  146.3250 C   0  0  2  0  0  3  0  0  0  0  0  0
  160.3080  212.2570  145.7910 O   0  0  0  0  0  1  0  0  0  0  0  0
  162.4670  213.2790  145.7680 C   0  0  0  0  0  2  0  0  0  0  0  0
  162.7140  212.6630  143.4670 O   0  0  0  0  0  1  0  0  0  0  0  0
  162.5000  213.7460  144.3210 C   0  0  0  0  0  2  0  0  0  0  0  0
  161.2840  207.7520  154.0430 C   0  0  0  0  0  2  0  0  0  0  0  0
  160.4690  207.1060  155.0630 N   0  0  0  0  0  2  0  0  0  0  0  0
  160.3950  207.5180  156.4340 C   0  0  0  0  0  0  0  0  0  0  0  0
  159.8250  206.7590  157.2600 O   0  0  0  0  0  0  0  0  0  0  0  0
  160.9520  208.7550  156.9040 N   0  0  0  0  0  2  0  0  0  0  0  0
  161.3610  209.8660  156.0590 C   0  0  0  0  0  2  0  0  0  0  0  0
  162.7510  210.1940  156.3190 N   0  0  0  0  0  1  0  0  0  0  0  0
  160.8430  205.1430  148.8740 C   0  0  0  0  0  2  0  0  0  0  0  0
  161.0780  201.4670  147.9700 C   0  0  0  0  0  0  0  0  0  0  0  0
  161.0200  200.8690  149.2340 C   0  0  0  0  0  3  0  0  0  0  0  0
  161.0130  202.8610  147.8520 C   0  0  0  0  0  3  0  0  0  0  0  0
  160.8540  203.0550  150.2630 C   0  0  0  0  0  3  0  0  0  0  0  0
  160.9110  201.6630  150.3800 C   0  0  0  0  0  3  0  0  0  0  0  0
  160.9050  203.6560  148.9990 C   0  0  0  0  0  0  0  0  0  0  0  0
  161.1730  200.6210  146.7500 C   0  0  0  0  0  2  0  0  0  0  0  0
  160.9890  201.4440  145.5650 N   0  0  0  0  0  2  0  0  0  0  0  0
  159.7480  201.0170  144.9470 C   0  0  0  0  0  1  0  0  0  0  0  0
  1  3  2  0  0  0  0
  2  3  1  0  0  0  0
  2  7  2  0  0  0  0
  4 20  1  1  0  0  0
  5  3  1  6  0  0  0
  5  4  1  0  0  0  0
  6  4  1  0  0  0  0
  7  6  1  0  0  0  0
  9 11  1  6  0  0  0
  9 10  1  0  0  0  0
  9  8  1  0  0  0  0
 10  5  1  0  0  0  0
 10  8  1  1  0  0  0
 12 11  1  0  0  0  0
 13 12  1  0  0  0  0
 14 13  1  0  0  0  0
 15 16  1  6  0  0  0
 15 14  1  0  0  0  0
 17 15  1  0  0  0  0
 18 19  1  0  0  0  0
 19 17  1  0  0  0  0
 20 21  1  0  0  0  0
 21 22  1  0  0  0  0
 22 24  1  0  0  0  0
 22 23  2  0  0  0  0
 25 26  1  0  0  0  0
 25 24  1  0  0  0  0
 27 33  1  0  0  0  0
 27  2  1  0  0  0  0
 28 29  1  0  0  0  0
 29 32  2  0  0  0  0
 30 28  2  0  0  0  0
 30 33  1  0  0  0  0
 31 32  1  0  0  0  0
 33 31  2  0  0  0  0
 34 28  1  0  0  0  0
 35 34  1  0  0  0  0
 36 35  1  0  0  0  0
M  END
>  <MODEL>
2

>  <REMARK>
 VINA RESULT:      -6.7      2.860      8.471
  Name = 
  15 active torsions:
  status: ('A' for Active; 'I' for Inactive)
    1  A    between atoms: N_1  and  C_24
    2  A    between atoms: N_1  and  C_29
    3  A    between atoms: C_3  and  C_20
    4  A    between atoms: C_4  and  C_24
    5  A    between atoms: C_4  and  C_27
    6  A    between atoms: N_5  and  C_7
    7  A    between atoms: C_6  and  C_32
    8  A    between atoms: C_7  and  C_23
    9  A    between atoms: N_10  and  C_32
   10  A    between atoms: C_14  and  C_27
   11  A    between atoms: C_16  and  C_29
   12  A    between atoms: C_16  and  C_33
   13  A    between atoms: C_20  and  C_35
   14  A    between atoms: N_22  and  C_31
   15  A    between atoms: C_25  and  N_34
                            x       y       z     vdW  Elec       q    Type
                         _______ _______ _______ _____ _____    ______ ____

>  <TORSDO>
F 15

$$$$
=
 OpenBabel11042420243D

 36 38  0  0  1  0  0  0  0  0999 V2000
  160.6410  206.6750  153.9520 O   0  0  0  0  0  0  0  0  0  0  0  0
  161.3970  206.2000  151.7570 C   0  0  0  0  0  0  0  0  0  0  0  0
  160.9840  207.1340  152.8290 C   0  0  0  0  0  0  0  0  0  0  0  0
  161.7070  209.0000  151.2970 C   0  0  1  0  0  3  0  0  0  0  0  0
  160.9230  208.6310  152.5760 C   0  0  2  0  0  3  0  0  0  0  0  0
  161.3280  208.0700  150.1450 C   0  0  0  0  0  2  0  0  0  0  0  0
  161.5960  206.6440  150.5140 C   0  0  0  0  0  3  0  0  0  0  0  0
  160.9570  210.7390  153.6740 C   0  0  0  0  0  2  0  0  0  0  0  0
  160.3300  209.7800  154.5650 C   0  0  1  0  0  3  0  0  0  0  0  0
  161.4680  209.3570  153.7260 N   0  0  1  0  0  0  0  0  0  0  0  0
  160.8180  210.0020  155.9800 C   0  0  0  0  0  2  0  0  0  0  0  0
  160.0920  211.1840  156.5870 C   0  0  0  0  0  2  0  0  0  0  0  0
  158.6610  210.9940  156.4480 N   0  0  0  0  0  2  0  0  0  0  0  0
  158.0420  212.2860  156.7050 C   0  0  0  0  0  2  0  0  0  0  0  0
  156.9770  212.5950  155.6570 C   0  0  2  0  0  3  0  0  0  0  0  0
  155.7230  212.1830  156.1140 O   0  0  0  0  0  1  0  0  0  0  0  0
  157.2850  211.9240  154.3250 C   0  0  0  0  0  2  0  0  0  0  0  0
  157.0430  214.0930  153.3390 O   0  0  0  0  0  1  0  0  0  0  0  0
  157.8140  212.9290  153.3140 C   0  0  0  0  0  2  0  0  0  0  0  0
  161.4300  210.4370  150.8830 C   0  0  0  0  0  2  0  0  0  0  0  0
  162.2510  210.7930  149.7340 N   0  0  0  0  0  2  0  0  0  0  0  0
  161.9750  211.8750  148.8340 C   0  0  0  0  0  0  0  0  0  0  0  0
  162.6350  211.9520  147.7660 O   0  0  0  0  0  0  0  0  0  0  0  0
  160.9710  212.8660  149.0970 N   0  0  0  0  0  2  0  0  0  0  0  0
  160.3450  213.1040  150.3880 C   0  0  0  0  0  2  0  0  0  0  0  0
  159.3600  214.1640  150.2680 N   0  0  0  0  0  1  0  0  0  0  0  0
  161.6240  204.7520  152.0520 C   0  0  0  0  0  2  0  0  0  0  0  0
  161.2810  203.6040  148.4540 C   0  0  0  0  0  0  0  0  0  0  0  0
  160.7420  202.3230  148.6240 C   0  0  0  0  0  3  0  0  0  0  0  0
  161.5620  204.3990  149.5720 C   0  0  0  0  0  3  0  0  0  0  0  0
  160.7850  202.6220  151.0270 C   0  0  0  0  0  3  0  0  0  0  0  0
  160.4970  201.8320  149.9100 C   0  0  0  0  0  3  0  0  0  0  0  0
  161.3180  203.9070  150.8600 C   0  0  0  0  0  0  0  0  0  0  0  0
  161.5230  204.1350  147.0850 C   0  0  0  0  0  2  0  0  0  0  0  0
  161.8860  205.5400  147.1590 N   0  0  0  0  0  2  0  0  0  0  0  0
  160.8870  206.2710  146.4020 C   0  0  0  0  0  1  0  0  0  0  0  0
  2 27  1  0  0  0  0
  2  3  1  0  0  0  0
  3  1  2  0  0  0  0
  4 20  1  6  0  0  0
  4  5  1  0  0  0  0
  5  3  1  1  0  0  0
  5 10  1  0  0  0  0
  6  7  1  0  0  0  0
  6  4  1  0  0  0  0
  7  2  2  0  0  0  0
  8  9  1  0  0  0  0
  9 11  1  1  0  0  0
 10  8  1  6  0  0  0
 10  9  1  0  0  0  0
 11 12  1  0  0  0  0
 13 12  1  0  0  0  0
 13 14  1  0  0  0  0
 15 16  1  1  0  0  0
 15 14  1  0  0  0  0
 17 15  1  0  0  0  0
 19 18  1  0  0  0  0
 19 17  1  0  0  0  0
 21 20  1  0  0  0  0
 22 24  1  0  0  0  0
 22 21  1  0  0  0  0
 23 22  2  0  0  0  0
 24 25  1  0  0  0  0
 26 25  1  0  0  0  0
 28 29  2  0  0  0  0
 28 30  1  0  0  0  0
 29 32  1  0  0  0  0
 30 33  2  0  0  0  0
 32 31  2  0  0  0  0
 33 31  1  0  0  0  0
 33 27  1  0  0  0  0
 34 35  1  0  0  0  0
 34 28  1  0  0  0  0
 36 35  1  0  0  0  0
M  END
>  <MODEL>
3

>  <REMARK>
 VINA RESULT:      -6.6      2.738      6.715
  Name = 
  15 active torsions:
  status: ('A' for Active; 'I' for Inactive)
    1  A    between atoms: N_1  and  C_24
    2  A    between atoms: N_1  and  C_29
    3  A    between atoms: C_3  and  C_20
    4  A    between atoms: C_4  and  C_24
    5  A    between atoms: C_4  and  C_27
    6  A    between atoms: N_5  and  C_7
    7  A    between atoms: C_6  and  C_32
    8  A    between atoms: C_7  and  C_23
    9  A    between atoms: N_10  and  C_32
   10  A    between atoms: C_14  and  C_27
   11  A    between atoms: C_16  and  C_29
   12  A    between atoms: C_16  and  C_33
   13  A    between atoms: C_20  and  C_35
   14  A    between atoms: N_22  and  C_31
   15  A    between atoms: C_25  and  N_34
                            x       y       z     vdW  Elec       q    Type
                         _______ _______ _______ _____ _____    ______ ____

>  <TORSDO>
F 15

$$$$
=
 OpenBabel11042420243D

 36 38  0  0  1  0  0  0  0  0999 V2000
  161.5670  207.4690  149.2210 O   0  0  0  0  0  0  0  0  0  0  0  0
  161.9560  209.7080  149.8920 C   0  0  0  0  0  0  0  0  0  0  0  0
  161.6170  208.2940  150.1720 C   0  0  0  0  0  0  0  0  0  0  0  0
  161.7440  208.8890  152.6180 C   0  0  1  0  0  3  0  0  0  0  0  0
  161.2820  207.8390  151.5830 C   0  0  2  0  0  3  0  0  0  0  0  0
  161.2990  210.2900  152.2000 C   0  0  0  0  0  2  0  0  0  0  0  0
  161.8460  210.6310  150.8490 C   0  0  0  0  0  3  0  0  0  0  0  0
  161.2260  205.9370  153.0070 C   0  0  0  0  0  2  0  0  0  0  0  0
  160.8990  205.5000  151.6610 C   0  0  1  0  0  3  0  0  0  0  0  0
  161.9180  206.5480  151.8580 N   0  0  1  0  0  0  0  0  0  0  0  0
  161.5940  204.1880  151.3680 C   0  0  0  0  0  2  0  0  0  0  0  0
  160.8590  203.4600  150.2620 C   0  0  0  0  0  2  0  0  0  0  0  0
  160.9320  204.2380  149.0400 N   0  0  0  0  0  2  0  0  0  0  0  0
  161.4540  203.3510  148.0120 C   0  0  0  0  0  2  0  0  0  0  0  0
  161.7490  204.1210  146.7290 C   0  0  2  0  0  3  0  0  0  0  0  0
  161.0640  205.3370  146.7330 O   0  0  0  0  0  1  0  0  0  0  0  0
  161.3670  203.3200  145.4910 C   0  0  0  0  0  2  0  0  0  0  0  0
  159.7850  201.5850  145.0250 O   0  0  0  0  0  1  0  0  0  0  0  0
  160.8370  201.9460  145.8680 C   0  0  0  0  0  2  0  0  0  0  0  0
  161.1790  208.5810  153.9960 C   0  0  0  0  0  2  0  0  0  0  0  0
  160.1330  209.5370  154.3320 N   0  0  0  0  0  2  0  0  0  0  0  0
  159.9230  210.0970  155.6360 C   0  0  0  0  0  0  0  0  0  0  0  0
  158.8660  210.7440  155.8490 O   0  0  0  0  0  0  0  0  0  0  0  0
  160.8640  209.9400  156.7090 N   0  0  0  0  0  2  0  0  0  0  0  0
  162.2420  209.4990  156.5580 C   0  0  0  0  0  2  0  0  0  0  0  0
  163.0920  210.6390  156.2620 N   0  0  0  0  0  1  0  0  0  0  0  0
  162.4530  210.1210  148.5430 C   0  0  0  0  0  2  0  0  0  0  0  0
  160.3550  213.1610  147.6850 C   0  0  0  0  0  0  0  0  0  0  0  0
  161.3280  214.1680  147.6580 C   0  0  0  0  0  3  0  0  0  0  0  0
  160.7230  211.8400  147.9670 C   0  0  0  0  0  3  0  0  0  0  0  0
  163.0320  212.5380  148.2130 C   0  0  0  0  0  3  0  0  0  0  0  0
  162.6650  213.8560  147.9240 C   0  0  0  0  0  3  0  0  0  0  0  0
  162.0620  211.5280  148.2360 C   0  0  0  0  0  0  0  0  0  0  0  0
  158.9360  213.4890  147.3810 C   0  0  0  0  0  2  0  0  0  0  0  0
  158.8160  213.9200  145.9980 N   0  0  0  0  0  2  0  0  0  0  0  0
  158.5520  212.7310  145.2100 C   0  0  0  0  0  1  0  0  0  0  0  0
  1  3  2  0  0  0  0
  2  3  1  0  0  0  0
  2  7  2  0  0  0  0
  4 20  1  1  0  0  0
  5  3  1  6  0  0  0
  5 10  1  0  0  0  0
  5  4  1  0  0  0  0
  6  4  1  0  0  0  0
  7  6  1  0  0  0  0
  9 11  1  1  0  0  0
  9 10  1  0  0  0  0
  9  8  1  0  0  0  0
 10  8  1  1  0  0  0
 12 11  1  0  0  0  0
 13 12  1  0  0  0  0
 14 13  1  0  0  0  0
 15 16  1  1  0  0  0
 15 14  1  0  0  0  0
 17 19  1  0  0  0  0
 17 15  1  0  0  0  0
 18 19  1  0  0  0  0
 20 21  1  0  0  0  0
 21 22  1  0  0  0  0
 22 23  2  0  0  0  0
 22 24  1  0  0  0  0
 25 24  1  0  0  0  0
 26 25  1  0  0  0  0
 27  2  1  0  0  0  0
 28 30  1  0  0  0  0
 29 28  2  0  0  0  0
 29 32  1  0  0  0  0
 30 33  2  0  0  0  0
 31 33  1  0  0  0  0
 32 31  2  0  0  0  0
 33 27  1  0  0  0  0
 34 28  1  0  0  0  0
 35 34  1  0  0  0  0
 36 35  1  0  0  0  0
M  END
>  <MODEL>
4

>  <REMARK>
 VINA RESULT:      -6.6      1.726      6.909
  Name = 
  15 active torsions:
  status: ('A' for Active; 'I' for Inactive)
    1  A    between atoms: N_1  and  C_24
    2  A    between atoms: N_1  and  C_29
    3  A    between atoms: C_3  and  C_20
    4  A    between atoms: C_4  and  C_24
    5  A    between atoms: C_4  and  C_27
    6  A    between atoms: N_5  and  C_7
    7  A    between atoms: C_6  and  C_32
    8  A    between atoms: C_7  and  C_23
    9  A    between atoms: N_10  and  C_32
   10  A    between atoms: C_14  and  C_27
   11  A    between atoms: C_16  and  C_29
   12  A    between atoms: C_16  and  C_33
   13  A    between atoms: C_20  and  C_35
   14  A    between atoms: N_22  and  C_31
   15  A    between atoms: C_25  and  N_34
                            x       y       z     vdW  Elec       q    Type
                         _______ _______ _______ _____ _____    ______ ____

>  <TORSDO>
F 15

$$$$
=
 OpenBabel11042420243D

 36 38  0  0  1  0  0  0  0  0999 V2000
  162.3510  210.0630  152.0960 O   0  0  0  0  0  0  0  0  0  0  0  0
  162.1440  210.1080  149.7360 C   0  0  0  0  0  0  0  0  0  0  0  0
  162.0590  209.4270  151.0480 C   0  0  0  0  0  0  0  0  0  0  0  0
  161.0220  207.4850  149.8220 C   0  0  1  0  0  3  0  0  0  0  0  0
  161.6720  207.9600  151.1400 C   0  0  2  0  0  3  0  0  0  0  0  0
  161.8560  207.9240  148.6190 C   0  0  0  0  0  2  0  0  0  0  0  0
  162.0080  209.4130  148.6040 C   0  0  0  0  0  3  0  0  0  0  0  0
  161.0230  206.4250  152.8340 C   0  0  0  0  0  2  0  0  0  0  0  0
  161.5600  207.6080  153.4830 C   0  0  1  0  0  3  0  0  0  0  0  0
  160.7490  207.7550  152.2590 N   0  0  1  0  0  0  0  0  0  0  0  0
  160.7080  207.9630  154.6820 C   0  0  0  0  0  2  0  0  0  0  0  0
  161.5140  208.8120  155.6430 C   0  0  0  0  0  2  0  0  0  0  0  0
  160.7420  209.9810  156.0190 N   0  0  0  0  0  2  0  0  0  0  0  0
  159.7060  210.1400  155.0100 C   0  0  0  0  0  2  0  0  0  0  0  0
  159.9510  211.3910  154.1720 C   0  0  2  0  0  3  0  0  0  0  0  0
  159.4920  212.5200  154.8540 O   0  0  0  0  0  1  0  0  0  0  0  0
  159.2710  211.3000  152.8130 C   0  0  0  0  0  2  0  0  0  0  0  0
  158.3540  213.0330  151.4370 O   0  0  0  0  0  1  0  0  0  0  0  0
  159.5440  212.5430  151.9790 C   0  0  0  0  0  2  0  0  0  0  0  0
  160.8800  205.9710  149.7990 C   0  0  0  0  0  2  0  0  0  0  0  0
  161.1250  205.4660  148.4540 N   0  0  0  0  0  2  0  0  0  0  0  0
  161.3870  204.0950  148.1300 C   0  0  0  0  0  0  0  0  0  0  0  0
  161.7890  203.8170  146.9700 O   0  0  0  0  0  0  0  0  0  0  0  0
  161.2190  203.0270  149.0750 N   0  0  0  0  0  2  0  0  0  0  0  0
  160.4870  203.1240  150.3280 C   0  0  0  0  0  2  0  0  0  0  0  0
  161.3560  202.7590  151.4330 N   0  0  0  0  0  1  0  0  0  0  0  0
  162.3520  211.5870  149.6550 C   0  0  0  0  0  2  0  0  0  0  0  0
  161.8900  213.0280  146.1780 C   0  0  0  0  0  0  0  0  0  0  0  0
  160.5030  213.2170  146.1410 C   0  0  0  0  0  3  0  0  0  0  0  0
  162.4940  212.5030  147.3270 C   0  0  0  0  0  3  0  0  0  0  0  0
  160.3210  212.3370  148.3900 C   0  0  0  0  0  3  0  0  0  0  0  0
  159.7200  212.8680  147.2460 C   0  0  0  0  0  3  0  0  0  0  0  0
  161.7090  212.1530  148.4330 C   0  0  0  0  0  0  0  0  0  0  0  0
  162.7260  213.4180  145.0110 C   0  0  0  0  0  2  0  0  0  0  0  0
  161.8900  213.5540  143.8300 N   0  0  0  0  0  2  0  0  0  0  0  0
  162.3180  212.5310  142.8940 C   0  0  0  0  0  1  0  0  0  0  0  0
  2  3  1  0  0  0  0
  3  1  2  0  0  0  0
  4 20  1  1  0  0  0
  4  5  1  0  0  0  0
  5  3  1  6  0  0  0
  5 10  1  0  0  0  0
  6  4  1  0  0  0  0
  7  6  1  0  0  0  0
  7  2  2  0  0  0  0
  8  9  1  0  0  0  0
  9 11  1  1  0  0  0
 10  8  1  6  0  0  0
 10  9  1  0  0  0  0
 11 12  1  0  0  0  0
 12 13  1  0  0  0  0
 14 13  1  0  0  0  0
 15 16  1  1  0  0  0
 15 14  1  0  0  0  0
 17 15  1  0  0  0  0
 18 19  1  0  0  0  0
 19 17  1  0  0  0  0
 21 20  1  0  0  0  0
 22 21  1  0  0  0  0
 22 24  1  0  0  0  0
 23 22  2  0  0  0  0
 24 25  1  0  0  0  0
 25 26  1  0  0  0  0
 27  2  1  0  0  0  0
 28 30  1  0  0  0  0
 29 28  2  0  0  0  0
 29 32  1  0  0  0  0
 30 33  2  0  0  0  0
 31 33  1  0  0  0  0
 32 31  2  0  0  0  0
 33 27  1  0  0  0  0
 34 28  1  0  0  0  0
 35 34  1  0  0  0  0
 36 35  1  0  0  0  0
M  END
>  <MODEL>
5

>  <REMARK>
 VINA RESULT:      -6.2      1.245      1.828
  Name = 
  15 active torsions:
  status: ('A' for Active; 'I' for Inactive)
    1  A    between atoms: N_1  and  C_24
    2  A    between atoms: N_1  and  C_29
    3  A    between atoms: C_3  and  C_20
    4  A    between atoms: C_4  and  C_24
    5  A    between atoms: C_4  and  C_27
    6  A    between atoms: N_5  and  C_7
    7  A    between atoms: C_6  and  C_32
    8  A    between atoms: C_7  and  C_23
    9  A    between atoms: N_10  and  C_32
   10  A    between atoms: C_14  and  C_27
   11  A    between atoms: C_16  and  C_29
   12  A    between atoms: C_16  and  C_33
   13  A    between atoms: C_20  and  C_35
   14  A    between atoms: N_22  and  C_31
   15  A    between atoms: C_25  and  N_34
                            x       y       z     vdW  Elec       q    Type
                         _______ _______ _______ _____ _____    ______ ____

>  <TORSDO>
F 15

$$$$
=
 OpenBabel11042420243D

 36 38  0  0  1  0  0  0  0  0999 V2000
  160.6810  205.1460  152.8200 O   0  0  0  0  0  0  0  0  0  0  0  0
  161.2040  205.2130  150.5100 C   0  0  0  0  0  0  0  0  0  0  0  0
  160.9710  205.8590  151.8220 C   0  0  0  0  0  0  0  0  0  0  0  0
  161.7360  208.0070  150.7500 C   0  0  1  0  0  3  0  0  0  0  0  0
  161.0300  207.3700  151.9680 C   0  0  2  0  0  3  0  0  0  0  0  0
  161.1780  207.4410  149.4450 C   0  0  0  0  0  2  0  0  0  0  0  0
  161.3410  205.9530  149.4080 C   0  0  0  0  0  3  0  0  0  0  0  0
  161.4170  209.1350  153.5120 C   0  0  0  0  0  2  0  0  0  0  0  0
  160.7130  208.0730  154.2110 C   0  0  1  0  0  3  0  0  0  0  0  0
  161.7340  207.7290  153.2020 N   0  0  1  0  0  0  0  0  0  0  0  0
  161.3070  207.8910  155.5910 C   0  0  0  0  0  2  0  0  0  0  0  0
  160.3910  208.5140  156.6230 C   0  0  0  0  0  2  0  0  0  0  0  0
  160.7410  209.9110  156.7990 N   0  0  0  0  0  2  0  0  0  0  0  0
  159.4950  210.6610  156.7630 C   0  0  0  0  0  2  0  0  0  0  0  0
  159.5470  211.7500  155.6960 C   0  0  2  0  0  3  0  0  0  0  0  0
  159.1630  212.9750  156.2450 O   0  0  0  0  0  1  0  0  0  0  0  0
  158.6550  211.4170  154.5080 C   0  0  0  0  0  2  0  0  0  0  0  0
  156.5850  212.5840  154.2160 O   0  0  0  0  0  1  0  0  0  0  0  0
  157.1840  211.5130  154.8820 C   0  0  0  0  0  2  0  0  0  0  0  0
  161.5620  209.5180  150.7480 C   0  0  0  0  0  2  0  0  0  0  0  0
  162.2440  210.0980  149.5990 N   0  0  0  0  0  2  0  0  0  0  0  0
  161.9570  211.3880  149.0420 C   0  0  0  0  0  0  0  0  0  0  0  0
  162.4620  211.6880  147.9290 O   0  0  0  0  0  0  0  0  0  0  0  0
  161.1100  212.3450  149.6950 N   0  0  0  0  0  2  0  0  0  0  0  0
  160.7030  212.2900  151.0910 C   0  0  0  0  0  2  0  0  0  0  0  0
  159.3890  212.8890  151.2430 N   0  0  0  0  0  1  0  0  0  0  0  0
  161.3190  203.7260  150.4010 C   0  0  0  0  0  2  0  0  0  0  0  0
  161.5970  203.6560  146.6190 C   0  0  0  0  0  0  0  0  0  0  0  0
  160.9540  202.4490  146.3190 C   0  0  0  0  0  3  0  0  0  0  0  0
  161.7100  204.0750  147.9500 C   0  0  0  0  0  3  0  0  0  0  0  0
  160.5540  202.0720  148.6780 C   0  0  0  0  0  3  0  0  0  0  0  0
  160.4350  201.6570  147.3480 C   0  0  0  0  0  3  0  0  0  0  0  0
  161.1920  203.2820  148.9810 C   0  0  0  0  0  0  0  0  0  0  0  0
  162.1310  204.5080  145.5230 C   0  0  0  0  0  2  0  0  0  0  0  0
  161.8180  205.9030  145.7880 N   0  0  0  0  0  2  0  0  0  0  0  0
  160.4640  206.1250  145.3170 C   0  0  0  0  0  1  0  0  0  0  0  0
  2  3  1  0  0  0  0
  3  1  2  0  0  0  0
  4 20  1  6  0  0  0
  4  5  1  0  0  0  0
  5  3  1  6  0  0  0
  5 10  1  0  0  0  0
  6  4  1  0  0  0  0
  7  6  1  0  0  0  0
  7  2  2  0  0  0  0
  8  9  1  0  0  0  0
  9 11  1  1  0  0  0
 10  8  1  6  0  0  0
 10  9  1  0  0  0  0
 11 12  1  0  0  0  0
 12 13  1  0  0  0  0
 14 13  1  0  0  0  0
 15 16  1  1  0  0  0
 15 14  1  0  0  0  0
 17 19  1  0  0  0  0
 17 15  1  0  0  0  0
 18 19  1  0  0  0  0
 21 20  1  0  0  0  0
 22 21  1  0  0  0  0
 22 24  1  0  0  0  0
 23 22  2  0  0  0  0
 24 25  1  0  0  0  0
 25 26  1  0  0  0  0
 27  2  1  0  0  0  0
 28 30  1  0  0  0  0
 29 28  2  0  0  0  0
 29 32  1  0  0  0  0
 30 33  2  0  0  0  0
 31 33  1  0  0  0  0
 32 31  2  0  0  0  0
 33 27  1  0  0  0  0
 34 35  1  0  0  0  0
 34 28  1  0  0  0  0
 36 35  1  0  0  0  0
M  END
>  <MODEL>
6

>  <REMARK>
 VINA RESULT:      -6.2      2.767      6.342
  Name = 
  15 active torsions:
  status: ('A' for Active; 'I' for Inactive)
    1  A    between atoms: N_1  and  C_24
    2  A    between atoms: N_1  and  C_29
    3  A    between atoms: C_3  and  C_20
    4  A    between atoms: C_4  and  C_24
    5  A    between atoms: C_4  and  C_27
    6  A    between atoms: N_5  and  C_7
    7  A    between atoms: C_6  and  C_32
    8  A    between atoms: C_7  and  C_23
    9  A    between atoms: N_10  and  C_32
   10  A    between atoms: C_14  and  C_27
   11  A    between atoms: C_16  and  C_29
   12  A    between atoms: C_16  and  C_33
   13  A    between atoms: C_20  and  C_35
   14  A    between atoms: N_22  and  C_31
   15  A    between atoms: C_25  and  N_34
                            x       y       z     vdW  Elec       q    Type
                         _______ _______ _______ _____ _____    ______ ____

>  <TORSDO>
F 15

$$$$
=
 OpenBabel11042420243D

 36 38  0  0  1  0  0  0  0  0999 V2000
  161.6350  210.0090  149.7490 O   0  0  0  0  0  0  0  0  0  0  0  0
  162.1680  207.7000  149.7670 C   0  0  0  0  0  0  0  0  0  0  0  0
  161.7820  208.9630  150.4370 C   0  0  0  0  0  0  0  0  0  0  0  0
  161.4800  207.6000  152.5350 C   0  0  1  0  0  3  0  0  0  0  0  0
  161.6090  209.0220  151.9450 C   0  0  2  0  0  3  0  0  0  0  0  0
  162.5710  206.6860  151.9820 C   0  0  0  0  0  2  0  0  0  0  0  0
  162.4960  206.6260  150.4880 C   0  0  0  0  0  3  0  0  0  0  0  0
  160.6950  210.5150  153.5540 C   0  0  0  0  0  2  0  0  0  0  0  0
  160.8310  211.2350  152.3000 C   0  0  1  0  0  3  0  0  0  0  0  0
  160.4250  209.8160  152.2840 N   0  0  1  0  0  0  0  0  0  0  0  0
  159.6090  212.0980  152.0730 C   0  0  0  0  0  2  0  0  0  0  0  0
  160.0350  213.4470  151.5310 C   0  0  0  0  0  2  0  0  0  0  0  0
  159.4360  213.6550  150.2270 N   0  0  0  0  0  2  0  0  0  0  0  0
  160.4570  213.3300  149.2420 C   0  0  0  0  0  2  0  0  0  0  0  0
  159.8620  213.2790  147.8390 C   0  0  2  0  0  3  0  0  0  0  0  0
  158.5050  212.9580  147.9070 O   0  0  0  0  0  1  0  0  0  0  0  0
  160.5850  212.2690  146.9580 C   0  0  0  0  0  2  0  0  0  0  0  0
  160.9780  214.3200  145.7850 O   0  0  0  0  0  1  0  0  0  0  0  0
  161.2740  212.9550  145.7880 C   0  0  0  0  0  2  0  0  0  0  0  0
  161.5810  207.6280  154.0530 C   0  0  0  0  0  2  0  0  0  0  0  0
  160.3100  207.2320  154.6450 N   0  0  0  0  0  2  0  0  0  0  0  0
  160.0230  207.2430  156.0500 C   0  0  0  0  0  0  0  0  0  0  0  0
  158.9720  206.6830  156.4530 O   0  0  0  0  0  0  0  0  0  0  0  0
  160.8900  207.8580  157.0150 N   0  0  0  0  0  2  0  0  0  0  0  0
  161.9600  208.7940  156.7050 C   0  0  0  0  0  2  0  0  0  0  0  0
  161.5520  210.1410  157.0600 N   0  0  0  0  0  1  0  0  0  0  0  0
  162.1680  207.5960  148.2750 C   0  0  0  0  0  2  0  0  0  0  0  0
  161.2580  203.9150  148.3200 C   0  0  0  0  0  0  0  0  0  0  0  0
  161.5830  203.5350  147.0120 C   0  0  0  0  0  3  0  0  0  0  0  0
  161.4550  205.2380  148.7340 C   0  0  0  0  0  3  0  0  0  0  0  0
  162.2820  205.8030  146.5260 C   0  0  0  0  0  3  0  0  0  0  0  0
  162.0920  204.4800  146.1160 C   0  0  0  0  0  3  0  0  0  0  0  0
  161.9640  206.1840  147.8360 C   0  0  0  0  0  0  0  0  0  0  0  0
  160.7360  202.9060  149.2810 C   0  0  0  0  0  2  0  0  0  0  0  0
  160.5520  203.5180  150.5860 N   0  0  0  0  0  2  0  0  0  0  0  0
  161.2060  202.6530  151.5500 C   0  0  0  0  0  1  0  0  0  0  0  0
  1  3  2  0  0  0  0
  2  3  1  0  0  0  0
  2  7  2  0  0  0  0
  4 20  1  1  0  0  0
  5  3  1  6  0  0  0
  5 10  1  0  0  0  0
  5  4  1  0  0  0  0
  6  4  1  0  0  0  0
  7  6  1  0  0  0  0
  9 11  1  1  0  0  0
  9  8  1  0  0  0  0
 10  9  1  0  0  0  0
 10  8  1  1  0  0  0
 12 11  1  0  0  0  0
 13 12  1  0  0  0  0
 14 13  1  0  0  0  0
 15 16  1  1  0  0  0
 15 14  1  0  0  0  0
 17 15  1  0  0  0  0
 18 19  1  0  0  0  0
 19 17  1  0  0  0  0
 20 21  1  0  0  0  0
 21 22  1  0  0  0  0
 22 23  2  0  0  0  0
 22 24  1  0  0  0  0
 25 24  1  0  0  0  0
 25 26  1  0  0  0  0
 27  2  1  0  0  0  0
 28 30  1  0  0  0  0
 28 34  1  0  0  0  0
 29 28  2  0  0  0  0
 31 33  1  0  0  0  0
 32 31  2  0  0  0  0
 32 29  1  0  0  0  0
 33 27  1  0  0  0  0
 33 30  2  0  0  0  0
 34 35  1  0  0  0  0
 35 36  1  0  0  0  0
M  END
>  <MODEL>
7

>  <REMARK>
 VINA RESULT:      -5.9      2.496      7.258
  Name = 
  15 active torsions:
  status: ('A' for Active; 'I' for Inactive)
    1  A    between atoms: N_1  and  C_24
    2  A    between atoms: N_1  and  C_29
    3  A    between atoms: C_3  and  C_20
    4  A    between atoms: C_4  and  C_24
    5  A    between atoms: C_4  and  C_27
    6  A    between atoms: N_5  and  C_7
    7  A    between atoms: C_6  and  C_32
    8  A    between atoms: C_7  and  C_23
    9  A    between atoms: N_10  and  C_32
   10  A    between atoms: C_14  and  C_27
   11  A    between atoms: C_16  and  C_29
   12  A    between atoms: C_16  and  C_33
   13  A    between atoms: C_20  and  C_35
   14  A    between atoms: N_22  and  C_31
   15  A    between atoms: C_25  and  N_34
                            x       y       z     vdW  Elec       q    Type
                         _______ _______ _______ _____ _____    ______ ____

>  <TORSDO>
F 15

$$$$
=
 OpenBabel11042420243D

 36 38  0  0  1  0  0  0  0  0999 V2000
  161.7860  208.2970  151.8410 O   0  0  0  0  0  0  0  0  0  0  0  0
  161.5850  206.0730  152.6320 C   0  0  0  0  0  0  0  0  0  0  0  0
  161.5920  207.0860  151.5520 C   0  0  0  0  0  0  0  0  0  0  0  0
  161.4660  205.1610  149.9290 C   0  0  1  0  0  3  0  0  0  0  0  0
  161.3200  206.6890  150.1100 C   0  0  2  0  0  3  0  0  0  0  0  0
  160.7100  204.4130  151.0260 C   0  0  0  0  0  2  0  0  0  0  0  0
  161.2130  204.8160  152.3770 C   0  0  0  0  0  3  0  0  0  0  0  0
  161.6010  207.4890  147.8900 C   0  0  0  0  0  2  0  0  0  0  0  0
  161.5770  208.6360  148.7800 C   0  0  1  0  0  3  0  0  0  0  0  0
  162.2420  207.3920  149.2140 N   0  0  1  0  0  0  0  0  0  0  0  0
  162.6320  209.6340  148.3550 C   0  0  0  0  0  2  0  0  0  0  0  0
  162.1380  211.0400  148.6230 C   0  0  0  0  0  2  0  0  0  0  0  0
  163.0770  211.9960  148.0690 N   0  0  0  0  0  2  0  0  0  0  0  0
  162.3150  212.8670  147.1880 C   0  0  0  0  0  2  0  0  0  0  0  0
  160.8290  212.8160  147.5260 C   0  0  2  0  0  3  0  0  0  0  0  0
  160.1060  212.3370  146.4310 O   0  0  0  0  0  1  0  0  0  0  0  0
  160.2970  214.1830  147.9340 C   0  0  0  0  0  2  0  0  0  0  0  0
  160.0870  213.3630  150.1750 O   0  0  0  0  0  1  0  0  0  0  0  0
  160.5340  214.4450  149.4140 C   0  0  0  0  0  2  0  0  0  0  0  0
  160.9360  204.7200  148.5740 C   0  0  0  0  0  2  0  0  0  0  0  0
  161.1800  203.2970  148.3810 N   0  0  0  0  0  2  0  0  0  0  0  0
  161.2040  202.6360  147.1090 C   0  0  0  0  0  0  0  0  0  0  0  0
  161.2150  201.3780  147.0850 O   0  0  0  0  0  0  0  0  0  0  0  0
  161.2060  203.3490  145.8630 N   0  0  0  0  0  2  0  0  0  0  0  0
  161.5010  204.7650  145.7070 C   0  0  0  0  0  2  0  0  0  0  0  0
  161.4600  205.1230  144.3010 N   0  0  0  0  0  1  0  0  0  0  0  0
  162.0220  206.4300  154.0160 C   0  0  0  0  0  2  0  0  0  0  0  0
  160.3200  209.6940  154.9270 C   0  0  0  0  0  0  0  0  0  0  0  0
  159.3250  209.2490  155.8060 C   0  0  0  0  0  3  0  0  0  0  0  0
  161.2040  208.7750  154.3490 C   0  0  0  0  0  3  0  0  0  0  0  0
  160.0830  206.9680  155.5130 C   0  0  0  0  0  3  0  0  0  0  0  0
  159.2060  207.8860  156.0960 C   0  0  0  0  0  3  0  0  0  0  0  0
  161.0840  207.4100  154.6390 C   0  0  0  0  0  0  0  0  0  0  0  0
  160.4600  211.1460  154.6340 C   0  0  0  0  0  2  0  0  0  0  0  0
  159.1650  211.7040  154.2800 N   0  0  0  0  0  2  0  0  0  0  0  0
  158.9580  211.4230  152.8720 C   0  0  0  0  0  1  0  0  0  0  0  0
  2 27  1  0  0  0  0
  3  1  2  0  0  0  0
  3  2  1  0  0  0  0
  4 20  1  6  0  0  0
  4  5  1  0  0  0  0
  4  6  1  0  0  0  0
  5  3  1  1  0  0  0
  6  7  1  0  0  0  0
  7  2  2  0  0  0  0
  8  9  1  0  0  0  0
  9 11  1  6  0  0  0
  9 10  1  0  0  0  0
 10  8  1  6  0  0  0
 10  5  1  0  0  0  0
 11 12  1  0  0  0  0
 13 12  1  0  0  0  0
 14 15  1  0  0  0  0
 14 13  1  0  0  0  0
 15 16  1  6  0  0  0
 15 17  1  0  0  0  0
 17 19  1  0  0  0  0
 19 18  1  0  0  0  0
 21 20  1  0  0  0  0
 22 21  1  0  0  0  0
 23 22  2  0  0  0  0
 24 22  1  0  0  0  0
 25 24  1  0  0  0  0
 26 25  1  0  0  0  0
 27 33  1  0  0  0  0
 28 29  1  0  0  0  0
 29 32  2  0  0  0  0
 30 33  1  0  0  0  0
 30 28  2  0  0  0  0
 31 32  1  0  0  0  0
 33 31  2  0  0  0  0
 34 28  1  0  0  0  0
 35 34  1  0  0  0  0
 36 35  1  0  0  0  0
M  END
>  <MODEL>
8

>  <REMARK>
 VINA RESULT:      -5.7      2.187      6.340
  Name = 
  15 active torsions:
  status: ('A' for Active; 'I' for Inactive)
    1  A    between atoms: N_1  and  C_24
    2  A    between atoms: N_1  and  C_29
    3  A    between atoms: C_3  and  C_20
    4  A    between atoms: C_4  and  C_24
    5  A    between atoms: C_4  and  C_27
    6  A    between atoms: N_5  and  C_7
    7  A    between atoms: C_6  and  C_32
    8  A    between atoms: C_7  and  C_23
    9  A    between atoms: N_10  and  C_32
   10  A    between atoms: C_14  and  C_27
   11  A    between atoms: C_16  and  C_29
   12  A    between atoms: C_16  and  C_33
   13  A    between atoms: C_20  and  C_35
   14  A    between atoms: N_22  and  C_31
   15  A    between atoms: C_25  and  N_34
                            x       y       z     vdW  Elec       q    Type
                         _______ _______ _______ _____ _____    ______ ____

>  <TORSDO>
F 15

$$$$
=
 OpenBabel11042420243D

 36 38  0  0  1  0  0  0  0  0999 V2000
  161.1450  210.8210  151.9870 O   0  0  0  0  0  0  0  0  0  0  0  0
  161.1320  209.2630  153.7730 C   0  0  0  0  0  0  0  0  0  0  0  0
  161.2210  209.6120  152.3370 C   0  0  0  0  0  0  0  0  0  0  0  0
  161.7810  207.1900  151.9210 C   0  0  1  0  0  3  0  0  0  0  0  0
  161.3520  208.5290  151.2790 C   0  0  2  0  0  3  0  0  0  0  0  0
  160.9260  206.8830  153.1490 C   0  0  0  0  0  2  0  0  0  0  0  0
  161.0360  207.9880  154.1530 C   0  0  0  0  0  3  0  0  0  0  0  0
  161.9600  208.2800  148.9950 C   0  0  0  0  0  2  0  0  0  0  0  0
  161.5960  209.6680  149.2130 C   0  0  1  0  0  3  0  0  0  0  0  0
  162.3280  208.9350  150.2640 N   0  0  1  0  0  0  0  0  0  0  0  0
  162.5640  210.5710  148.4800 C   0  0  0  0  0  2  0  0  0  0  0  0
  162.2350  212.0190  148.7810 C   0  0  0  0  0  2  0  0  0  0  0  0
  161.0810  212.4240  148.0020 N   0  0  0  0  0  2  0  0  0  0  0  0
  161.5940  213.0430  146.7890 C   0  0  0  0  0  2  0  0  0  0  0  0
  160.5190  213.0910  145.7080 C   0  0  2  0  0  3  0  0  0  0  0  0
  159.9070  211.8420  145.5850 O   0  0  0  0  0  1  0  0  0  0  0  0
  161.0930  213.5170  144.3620 C   0  0  0  0  0  2  0  0  0  0  0  0
  163.0050  212.9770  143.0260 O   0  0  0  0  0  1  0  0  0  0  0  0
  162.5990  213.3140  144.3190 C   0  0  0  0  0  2  0  0  0  0  0  0
  161.6530  206.0440  150.9290 C   0  0  0  0  0  2  0  0  0  0  0  0
  161.6340  204.7710  151.6370 N   0  0  0  0  0  2  0  0  0  0  0  0
  161.1390  203.5400  151.0940 C   0  0  0  0  0  0  0  0  0  0  0  0
  160.9810  202.5620  151.8690 O   0  0  0  0  0  0  0  0  0  0  0  0
  160.8050  203.3820  149.7070 N   0  0  0  0  0  2  0  0  0  0  0  0
  161.2050  204.2860  148.6400 C   0  0  0  0  0  2  0  0  0  0  0  0
  161.5880  203.5210  147.4660 N   0  0  0  0  0  1  0  0  0  0  0  0
  161.1780  210.3290  154.8210 C   0  0  0  0  0  2  0  0  0  0  0  0
  158.4290  212.9200  154.4890 C   0  0  0  0  0  0  0  0  0  0  0  0
  157.3820  212.3010  155.1840 C   0  0  0  0  0  3  0  0  0  0  0  0
  159.6690  212.2790  154.3770 C   0  0  0  0  0  3  0  0  0  0  0  0
  158.8070  210.3950  155.6360 C   0  0  0  0  0  3  0  0  0  0  0  0
  157.5720  211.0380  155.7540 C   0  0  0  0  0  3  0  0  0  0  0  0
  159.8580  211.0140  154.9470 C   0  0  0  0  0  0  0  0  0  0  0  0
  158.2350  214.2720  153.9000 C   0  0  0  0  0  2  0  0  0  0  0  0
  157.5760  214.1560  152.6090 N   0  0  0  0  0  2  0  0  0  0  0  0
  158.6190  213.9230  151.6270 C   0  0  0  0  0  1  0  0  0  0  0  0
  1  3  2  0  0  0  0
  2  7  2  0  0  0  0
  2 27  1  0  0  0  0
  3  2  1  0  0  0  0
  4 20  1  6  0  0  0
  4  6  1  0  0  0  0
  5  4  1  0  0  0  0
  5  3  1  1  0  0  0
  6  7  1  0  0  0  0
  8  9  1  0  0  0  0
  9 11  1  6  0  0  0
  9 10  1  0  0  0  0
 10  8  1  6  0  0  0
 10  5  1  0  0  0  0
 11 12  1  0  0  0  0
 13 12  1  0  0  0  0
 14 13  1  0  0  0  0
 15 16  1  6  0  0  0
 15 14  1  0  0  0  0
 17 15  1  0  0  0  0
 18 19  1  0  0  0  0
 19 17  1  0  0  0  0
 20 21  1  0  0  0  0
 22 21  1  0  0  0  0
 22 23  2  0  0  0  0
 24 22  1  0  0  0  0
 25 24  1  0  0  0  0
 26 25  1  0  0  0  0
 27 33  1  0  0  0  0
 28 29  1  0  0  0  0
 29 32  2  0  0  0  0
 30 28  2  0  0  0  0
 30 33  1  0  0  0  0
 31 32  1  0  0  0  0
 33 31  2  0  0  0  0
 34 28  1  0  0  0  0
 35 34  1  0  0  0  0
 36 35  1  0  0  0  0
M  END
>  <MODEL>
9

>  <REMARK>
 VINA RESULT:      -5.7      3.006      6.644
  Name = 
  15 active torsions:
  status: ('A' for Active; 'I' for Inactive)
    1  A    between atoms: N_1  and  C_24
    2  A    between atoms: N_1  and  C_29
    3  A    between atoms: C_3  and  C_20
    4  A    between atoms: C_4  and  C_24
    5  A    between atoms: C_4  and  C_27
    6  A    between atoms: N_5  and  C_7
    7  A    between atoms: C_6  and  C_32
    8  A    between atoms: C_7  and  C_23
    9  A    between atoms: N_10  and  C_32
   10  A    between atoms: C_14  and  C_27
   11  A    between atoms: C_16  and  C_29
   12  A    between atoms: C_16  and  C_33
   13  A    between atoms: C_20  and  C_35
   14  A    between atoms: N_22  and  C_31
   15  A    between atoms: C_25  and  N_34
                            x       y       z     vdW  Elec       q    Type
                         _______ _______ _______ _____ _____    ______ ____

>  <TORSDO>
F 15

$$$$
