=
 OpenBabel11052411023D

 37 42  0  0  1  0  0  0  0  0999 V2000
  161.0070  204.4020  152.9620 C   0  0  0  0  0  3  0  0  0  0  0  0
  160.7030  206.7260  148.3510 C   0  0  0  0  0  3  0  0  0  0  0  0
  161.3130  203.0870  148.3660 C   0  0  0  0  0  3  0  0  0  0  0  0
  161.0330  205.7420  152.6230 C   0  0  0  0  0  0  0  0  0  0  0  0
  161.1650  206.1740  151.2980 C   0  0  0  0  0  0  0  0  0  0  0  0
  161.1040  203.4810  151.9740 N   0  0  0  0  0  0  0  0  0  0  0  0
  161.8740  210.2610  151.5260 N   0  0  0  0  0  0  0  0  0  0  0  0
  160.7960  205.9540  146.0740 C   0  0  0  0  0  3  0  0  0  0  0  0
  161.7460  208.3130  150.1960 N   0  0  0  0  0  0  0  0  0  0  0  0
  161.2970  202.8040  149.7220 C   0  0  0  0  0  3  0  0  0  0  0  0
  161.0390  205.4600  148.8430 C   0  0  0  0  0  0  0  0  0  0  0  0
  160.5890  206.9790  146.9880 C   0  0  0  0  0  3  0  0  0  0  0  0
  161.3740  207.5800  151.2720 C   0  0  0  0  0  0  0  0  0  0  0  0
  161.1870  203.8260  150.6580 C   0  0  0  0  0  0  0  0  0  0  0  0
  161.0610  207.0230  153.7080 S   0  0  0  0  0  0  0  0  0  0  0  0
  161.5430  209.5720  152.6520 C   0  0  0  0  0  0  0  0  0  0  0  0
  161.3030  208.1920  152.5240 C   0  0  0  0  0  0  0  0  0  0  0  0
  161.0950  204.6600  146.5050 C   0  0  0  0  0  0  0  0  0  0  0  0
  161.1750  204.3940  147.8990 C   0  0  0  0  0  0  0  0  0  0  0  0
  161.9780  209.6490  150.3130 C   0  0  0  0  0  0  0  0  0  0  0  0
  161.1460  205.1960  150.2460 C   0  0  0  0  0  0  0  0  0  0  0  0
  160.6380  211.3960  154.1090 C   0  0  0  0  0  1  0  0  0  0  0  0
  161.4790  210.2780  153.8630 O   0  0  0  0  0  0  0  0  0  0  0  0
  161.2680  203.6600  145.4890 N   0  0  0  0  0  2  0  0  0  0  0  0
  161.4350  202.2930  145.7520 N   0  0  0  0  0  2  0  0  0  0  0  0
  159.4190  201.7100  144.7280 O   0  0  0  0  0  0  0  0  0  0  0  0
  160.4600  201.3390  145.3340 C   0  0  0  0  0  0  0  0  0  0  0  0
  161.4840  199.7610  146.8290 N   0  0  0  0  0  1  0  0  0  0  0  0
  160.6610  199.8980  145.6410 C   0  0  0  0  0  2  0  0  0  0  0  0
  162.3720  210.4390  149.1170 C   0  0  0  0  0  2  0  0  0  0  0  0
  161.8680  211.7350  149.2230 O   0  0  0  0  0  0  0  0  0  0  0  0
  162.0110  212.2800  147.9470 C   0  0  2  0  0  3  0  0  0  0  0  0
  162.4110  213.7500  148.0560 C   0  0  0  0  0  2  0  0  0  0  0  0
  161.0970  214.1680  145.9760 C   0  0  0  0  0  2  0  0  0  0  0  0
  160.8300  212.7360  145.8490 N   0  0  0  0  0  2  0  0  0  0  0  0
  160.6870  212.1690  147.1890 C   0  0  0  0  0  2  0  0  0  0  0  0
  162.4390  214.3920  146.6710 C   0  0  0  0  0  2  0  0  0  0  0  0
  2 11  1  0  0  0  0
  3 10  1  0  0  0  0
  4  1  1  0  0  0  0
  4 15  1  0  0  0  0
  5  4  2  0  0  0  0
  6  1  2  0  0  0  0
  7 16  2  0  0  0  0
  8 18  2  0  0  0  0
  8 12  1  0  0  0  0
  9 20  2  0  0  0  0
  9 13  1  0  0  0  0
 10 14  2  0  0  0  0
 11 21  2  0  0  0  0
 12  2  2  0  0  0  0
 13  5  1  0  0  0  0
 13 17  2  0  0  0  0
 14  6  1  0  0  0  0
 16 23  1  0  0  0  0
 17 16  1  0  0  0  0
 17 15  1  0  0  0  0
 18 19  1  0  0  0  0
 19  3  2  0  0  0  0
 19 11  1  0  0  0  0
 20  7  1  0  0  0  0
 21 14  1  0  0  0  0
 21  5  1  0  0  0  0
 23 22  1  0  0  0  0
 24 25  1  0  0  0  0
 24 18  1  0  0  0  0
 26 27  2  0  0  0  0
 27 29  1  0  0  0  0
 27 25  1  0  0  0  0
 29 28  1  0  0  0  0
 30 31  1  0  0  0  0
 30 20  1  0  0  0  0
 32 33  1  0  0  0  0
 32 31  1  1  0  0  0
 34 37  1  0  0  0  0
 35 34  1  0  0  0  0
 35 36  1  0  0  0  0
 36 32  1  0  0  0  0
 37 33  1  0  0  0  0
M  END
>  <MODEL>
1

>  <REMARK>
 VINA RESULT:      -9.6      0.000      0.000
  Name = 
  7 active torsions:
  status: ('A' for Active; 'I' for Inactive)
    1  A    between atoms: N_1  and  N_9
    2  A    between atoms: N_1  and  C_30
    3  A    between atoms: C_7  and  O_31
    4  A    between atoms: C_15  and  O_31
    5  A    between atoms: C_15  and  C_34
    6  A    between atoms: O_20  and  C_26
    7  A    between atoms: C_22  and  C_35
                            x       y       z     vdW  Elec       q    Type
                         _______ _______ _______ _____ _____    ______ ____

>  <TORSDO>
F 7

$$$$
=
 OpenBabel11052411023D

 37 42  0  0  1  0  0  0  0  0999 V2000
  160.5940  207.4480  155.1600 C   0  0  0  0  0  3  0  0  0  0  0  0
  161.5890  209.7730  150.6480 C   0  0  0  0  0  3  0  0  0  0  0  0
  160.0440  211.8260  153.2970 C   0  0  0  0  0  3  0  0  0  0  0  0
  160.9280  206.9200  153.9270 C   0  0  0  0  0  0  0  0  0  0  0  0
  160.9400  207.6960  152.7630 C   0  0  0  0  0  0  0  0  0  0  0  0
  160.2780  208.7630  155.2400 N   0  0  0  0  0  0  0  0  0  0  0  0
  161.3250  204.9950  149.6300 N   0  0  0  0  0  0  0  0  0  0  0  0
  161.3410  212.0220  149.8300 C   0  0  0  0  0  3  0  0  0  0  0  0
  160.9630  207.2200  150.3330 N   0  0  0  0  0  0  0  0  0  0  0  0
  159.9580  210.9200  154.3420 C   0  0  0  0  0  3  0  0  0  0  0  0
  160.9220  210.0840  151.8390 C   0  0  0  0  0  0  0  0  0  0  0  0
  161.7920  210.7210  149.6510 C   0  0  0  0  0  3  0  0  0  0  0  0
  161.1080  206.8550  151.6290 C   0  0  0  0  0  0  0  0  0  0  0  0
  160.3150  209.5890  154.1570 C   0  0  0  0  0  0  0  0  0  0  0  0
  161.2160  205.2980  153.6050 S   0  0  0  0  0  0  0  0  0  0  0  0
  161.4410  204.5570  150.9140 C   0  0  0  0  0  0  0  0  0  0  0  0
  161.3130  205.5100  151.9400 C   0  0  0  0  0  0  0  0  0  0  0  0
  160.7040  212.4020  151.0130 C   0  0  0  0  0  0  0  0  0  0  0  0
  160.5300  211.4430  152.0470 C   0  0  0  0  0  0  0  0  0  0  0  0
  161.0880  206.3030  149.3350 C   0  0  0  0  0  0  0  0  0  0  0  0
  160.7220  209.1120  152.8710 C   0  0  0  0  0  0  0  0  0  0  0  0
  160.9680  202.1390  150.4700 C   0  0  0  0  0  1  0  0  0  0  0  0
  161.6650  203.1880  151.1260 O   0  0  0  0  0  0  0  0  0  0  0  0
  160.2950  213.7750  151.1190 N   0  0  0  0  0  2  0  0  0  0  0  0
  159.0210  214.1860  151.5340 N   0  0  0  0  0  2  0  0  0  0  0  0
  157.9960  213.4580  149.5660 O   0  0  0  0  0  0  0  0  0  0  0  0
  157.8780  213.9930  150.7020 C   0  0  0  0  0  0  0  0  0  0  0  0
  155.5450  214.1640  150.1500 N   0  0  0  0  0  1  0  0  0  0  0  0
  156.5420  214.4530  151.1660 C   0  0  0  0  0  2  0  0  0  0  0  0
  160.9380  206.7270  147.9180 C   0  0  0  0  0  2  0  0  0  0  0  0
  162.1950  206.8130  147.3190 O   0  0  0  0  0  0  0  0  0  0  0  0
  162.0880  206.0520  146.1550 C   0  0  2  0  0  3  0  0  0  0  0  0
  160.6540  206.1100  145.6320 C   0  0  0  0  0  2  0  0  0  0  0  0
  160.9500  203.7690  144.8200 C   0  0  0  0  0  2  0  0  0  0  0  0
  162.3520  203.7940  145.2380 N   0  0  0  0  0  2  0  0  0  0  0  0
  162.4600  204.5980  146.4550 C   0  0  0  0  0  2  0  0  0  0  0  0
  160.4910  205.1740  144.4360 C   0  0  0  0  0  2  0  0  0  0  0  0
  1  6  1  0  0  0  0
  2 11  1  0  0  0  0
  3 10  2  0  0  0  0
  4  1  2  0  0  0  0
  5 21  2  0  0  0  0
  5  4  1  0  0  0  0
  7 16  2  0  0  0  0
  8 18  2  0  0  0  0
  9 13  1  0  0  0  0
 11 19  2  0  0  0  0
 11 21  1  0  0  0  0
 12  8  1  0  0  0  0
 12  2  2  0  0  0  0
 13 17  2  0  0  0  0
 13  5  1  0  0  0  0
 14 10  1  0  0  0  0
 14  6  2  0  0  0  0
 15  4  1  0  0  0  0
 16 23  1  0  0  0  0
 16 17  1  0  0  0  0
 17 15  1  0  0  0  0
 18 24  1  0  0  0  0
 18 19  1  0  0  0  0
 19  3  1  0  0  0  0
 20  7  1  0  0  0  0
 20  9  2  0  0  0  0
 21 14  1  0  0  0  0
 22 23  1  0  0  0  0
 24 25  1  0  0  0  0
 26 27  2  0  0  0  0
 27 29  1  0  0  0  0
 27 25  1  0  0  0  0
 28 29  1  0  0  0  0
 30 20  1  0  0  0  0
 31 30  1  0  0  0  0
 32 36  1  0  0  0  0
 32 31  1  1  0  0  0
 33 32  1  0  0  0  0
 34 35  1  0  0  0  0
 35 36  1  0  0  0  0
 37 34  1  0  0  0  0
 37 33  1  0  0  0  0
M  END
>  <MODEL>
2

>  <REMARK>
 VINA RESULT:      -7.8      2.965      8.253
  Name = 
  7 active torsions:
  status: ('A' for Active; 'I' for Inactive)
    1  A    between atoms: N_1  and  N_9
    2  A    between atoms: N_1  and  C_30
    3  A    between atoms: C_7  and  O_31
    4  A    between atoms: C_15  and  O_31
    5  A    between atoms: C_15  and  C_34
    6  A    between atoms: O_20  and  C_26
    7  A    between atoms: C_22  and  C_35
                            x       y       z     vdW  Elec       q    Type
                         _______ _______ _______ _____ _____    ______ ____

>  <TORSDO>
F 7

$$$$
=
 OpenBabel11052411023D

 37 42  0  0  1  0  0  0  0  0999 V2000
  160.9710  203.5280  151.6280 C   0  0  0  0  0  3  0  0  0  0  0  0
  162.1130  208.5730  151.6880 C   0  0  0  0  0  3  0  0  0  0  0  0
  160.6970  207.1290  154.7740 C   0  0  0  0  0  3  0  0  0  0  0  0
  161.2720  204.3970  150.5970 C   0  0  0  0  0  0  0  0  0  0  0  0
  161.3340  205.7830  150.7830 C   0  0  0  0  0  0  0  0  0  0  0  0
  160.7370  204.0390  152.8600 N   0  0  0  0  0  0  0  0  0  0  0  0
  161.5530  207.4120  146.9680 N   0  0  0  0  0  0  0  0  0  0  0  0
  162.0080  210.2960  153.3630 C   0  0  0  0  0  3  0  0  0  0  0  0
  161.3300  207.7600  149.2930 N   0  0  0  0  0  0  0  0  0  0  0  0
  160.5540  205.7960  154.4230 C   0  0  0  0  0  3  0  0  0  0  0  0
  161.4670  207.6560  152.5240 C   0  0  0  0  0  0  0  0  0  0  0  0
  162.3770  209.8770  152.0910 C   0  0  0  0  0  3  0  0  0  0  0  0
  161.4500  206.4310  149.5230 C   0  0  0  0  0  0  0  0  0  0  0  0
  160.8270  205.3720  153.1270 C   0  0  0  0  0  0  0  0  0  0  0  0
  161.4590  203.9710  148.9830 S   0  0  0  0  0  0  0  0  0  0  0  0
  161.6400  206.0630  147.1300 C   0  0  0  0  0  0  0  0  0  0  0  0
  161.5700  205.5590  148.4410 C   0  0  0  0  0  0  0  0  0  0  0  0
  161.3940  209.4160  154.2570 C   0  0  0  0  0  0  0  0  0  0  0  0
  161.1600  208.0730  153.8570 C   0  0  0  0  0  0  0  0  0  0  0  0
  161.3980  208.2550  148.0260 C   0  0  0  0  0  0  0  0  0  0  0  0
  161.2050  206.3090  152.1140 C   0  0  0  0  0  0  0  0  0  0  0  0
  161.1790  205.5470  144.7230 C   0  0  0  0  0  1  0  0  0  0  0  0
  161.7770  205.2680  145.9810 O   0  0  0  0  0  0  0  0  0  0  0  0
  161.0720  209.9310  155.5580 N   0  0  0  0  0  2  0  0  0  0  0  0
  159.7810  210.3050  155.9580 N   0  0  0  0  0  2  0  0  0  0  0  0
  160.0800  212.5300  155.3160 O   0  0  0  0  0  0  0  0  0  0  0  0
  159.3240  211.6480  155.8050 C   0  0  0  0  0  0  0  0  0  0  0  0
  156.9760  211.2120  155.5390 N   0  0  0  0  0  1  0  0  0  0  0  0
  157.9540  212.0150  156.2510 C   0  0  0  0  0  2  0  0  0  0  0  0
  161.2770  209.7180  147.7960 C   0  0  0  0  0  2  0  0  0  0  0  0
  162.2180  210.3950  148.5730 O   0  0  0  0  0  0  0  0  0  0  0  0
  161.9180  211.7460  148.3990 C   0  0  2  0  0  3  0  0  0  0  0  0
  160.8360  211.9000  147.3310 C   0  0  0  0  0  2  0  0  0  0  0  0
  161.9190  214.0510  146.6740 C   0  0  0  0  0  2  0  0  0  0  0  0
  162.8680  213.9180  147.7790 N   0  0  0  0  0  2  0  0  0  0  0  0
  163.1750  212.5000  147.9620 C   0  0  0  0  0  2  0  0  0  0  0  0
  160.5950  213.3790  147.0360 C   0  0  0  0  0  2  0  0  0  0  0  0
  1  6  1  0  0  0  0
  2 12  2  0  0  0  0
  2 11  1  0  0  0  0
  4  5  1  0  0  0  0
  4  1  2  0  0  0  0
  5 21  2  0  0  0  0
  6 14  2  0  0  0  0
  7 16  2  0  0  0  0
  7 20  1  0  0  0  0
  8 18  2  0  0  0  0
  9 13  1  0  0  0  0
 10  3  2  0  0  0  0
 11 19  2  0  0  0  0
 12  8  1  0  0  0  0
 13  5  1  0  0  0  0
 14 10  1  0  0  0  0
 15  4  1  0  0  0  0
 16 17  1  0  0  0  0
 17 15  1  0  0  0  0
 17 13  2  0  0  0  0
 18 24  1  0  0  0  0
 19 18  1  0  0  0  0
 19  3  1  0  0  0  0
 20  9  2  0  0  0  0
 21 11  1  0  0  0  0
 21 14  1  0  0  0  0
 22 23  1  0  0  0  0
 23 16  1  0  0  0  0
 24 25  1  0  0  0  0
 26 27  2  0  0  0  0
 27 25  1  0  0  0  0
 27 29  1  0  0  0  0
 28 29  1  0  0  0  0
 30 20  1  0  0  0  0
 30 31  1  0  0  0  0
 32 31  1  6  0  0  0
 33 32  1  0  0  0  0
 34 37  1  0  0  0  0
 34 35  1  0  0  0  0
 35 36  1  0  0  0  0
 36 32  1  0  0  0  0
 37 33  1  0  0  0  0
M  END
>  <MODEL>
3

>  <REMARK>
 VINA RESULT:      -7.4      2.735      7.404
  Name = 
  7 active torsions:
  status: ('A' for Active; 'I' for Inactive)
    1  A    between atoms: N_1  and  N_9
    2  A    between atoms: N_1  and  C_30
    3  A    between atoms: C_7  and  O_31
    4  A    between atoms: C_15  and  O_31
    5  A    between atoms: C_15  and  C_34
    6  A    between atoms: O_20  and  C_26
    7  A    between atoms: C_22  and  C_35
                            x       y       z     vdW  Elec       q    Type
                         _______ _______ _______ _____ _____    ______ ____

>  <TORSDO>
F 7

$$$$
=
 OpenBabel11052411023D

 37 42  0  0  1  0  0  0  0  0999 V2000
  160.5480  207.3410  154.8890 C   0  0  0  0  0  3  0  0  0  0  0  0
  160.6510  207.0320  149.7270 C   0  0  0  0  0  3  0  0  0  0  0  0
  161.5430  203.9890  151.6150 C   0  0  0  0  0  3  0  0  0  0  0  0
  160.5110  208.3300  153.9250 C   0  0  0  0  0  0  0  0  0  0  0  0
  160.7750  208.0680  152.5760 C   0  0  0  0  0  0  0  0  0  0  0  0
  160.8440  206.0750  154.5090 N   0  0  0  0  0  0  0  0  0  0  0  0
  161.1220  211.7900  150.7640 N   0  0  0  0  0  0  0  0  0  0  0  0
  161.0950  205.2590  148.1610 C   0  0  0  0  0  3  0  0  0  0  0  0
  161.3200  209.4440  150.5910 N   0  0  0  0  0  0  0  0  0  0  0  0
  161.3760  204.4110  152.9240 C   0  0  0  0  0  3  0  0  0  0  0  0
  161.0210  206.2290  150.8110 C   0  0  0  0  0  0  0  0  0  0  0  0
  160.6920  206.5640  148.4180 C   0  0  0  0  0  3  0  0  0  0  0  0
  160.8730  209.2920  151.8600 C   0  0  0  0  0  0  0  0  0  0  0  0
  161.0660  205.7360  153.2070 C   0  0  0  0  0  0  0  0  0  0  0  0
  160.2970  209.9700  154.2160 S   0  0  0  0  0  0  0  0  0  0  0  0
  160.7060  211.7070  152.0580 C   0  0  0  0  0  0  0  0  0  0  0  0
  160.5950  210.4250  152.6250 C   0  0  0  0  0  0  0  0  0  0  0  0
  161.4390  204.3980  149.2050 C   0  0  0  0  0  0  0  0  0  0  0  0
  161.3610  204.8660  150.5450 C   0  0  0  0  0  0  0  0  0  0  0  0
  161.4280  210.6810  150.0350 C   0  0  0  0  0  0  0  0  0  0  0  0
  160.9690  206.7060  152.1600 C   0  0  0  0  0  0  0  0  0  0  0  0
  159.4480  213.8520  152.3550 C   0  0  0  0  0  1  0  0  0  0  0  0
  160.4310  212.9030  152.7400 O   0  0  0  0  0  0  0  0  0  0  0  0
  161.8190  203.0600  148.8460 N   0  0  0  0  0  2  0  0  0  0  0  0
  161.0730  202.2330  147.9950 N   0  0  0  0  0  2  0  0  0  0  0  0
  161.7610  203.3620  146.0700 O   0  0  0  0  0  0  0  0  0  0  0  0
  161.0850  202.4290  146.5820 C   0  0  0  0  0  0  0  0  0  0  0  0
  159.7890  202.2940  144.5630 N   0  0  0  0  0  1  0  0  0  0  0  0
  160.2720  201.5430  145.7080 C   0  0  0  0  0  2  0  0  0  0  0  0
  161.9070  210.8250  148.6360 C   0  0  0  0  0  2  0  0  0  0  0  0
  162.4140  212.1100  148.4420 O   0  0  0  0  0  0  0  0  0  0  0  0
  161.9490  212.4920  147.1840 C   0  0  2  0  0  3  0  0  0  0  0  0
  161.9880  214.0140  147.0610 C   0  0  0  0  0  2  0  0  0  0  0  0
  159.9530  213.8590  145.6240 C   0  0  0  0  0  2  0  0  0  0  0  0
  160.0170  212.3990  145.6790 N   0  0  0  0  0  2  0  0  0  0  0  0
  160.5120  212.0040  146.9970 C   0  0  0  0  0  2  0  0  0  0  0  0
  161.3570  214.4510  145.7410 C   0  0  0  0  0  2  0  0  0  0  0  0
  2 11  1  0  0  0  0
  3 10  2  0  0  0  0
  4 15  1  0  0  0  0
  4  1  2  0  0  0  0
  5  4  1  0  0  0  0
  6  1  1  0  0  0  0
  7 16  2  0  0  0  0
  8 12  1  0  0  0  0
  8 18  2  0  0  0  0
  9 13  1  0  0  0  0
 10 14  1  0  0  0  0
 11 21  1  0  0  0  0
 12  2  2  0  0  0  0
 13  5  1  0  0  0  0
 13 17  2  0  0  0  0
 14  6  2  0  0  0  0
 16 17  1  0  0  0  0
 16 23  1  0  0  0  0
 17 15  1  0  0  0  0
 18 19  1  0  0  0  0
 19 11  2  0  0  0  0
 19  3  1  0  0  0  0
 20  9  2  0  0  0  0
 20  7  1  0  0  0  0
 21  5  2  0  0  0  0
 21 14  1  0  0  0  0
 22 23  1  0  0  0  0
 24 18  1  0  0  0  0
 25 24  1  0  0  0  0
 26 27  2  0  0  0  0
 27 25  1  0  0  0  0
 28 29  1  0  0  0  0
 29 27  1  0  0  0  0
 30 20  1  0  0  0  0
 31 30  1  0  0  0  0
 32 31  1  1  0  0  0
 33 32  1  0  0  0  0
 34 35  1  0  0  0  0
 34 37  1  0  0  0  0
 35 36  1  0  0  0  0
 36 32  1  0  0  0  0
 37 33  1  0  0  0  0
M  END
>  <MODEL>
4

>  <REMARK>
 VINA RESULT:      -7.0      1.735      2.408
  Name = 
  7 active torsions:
  status: ('A' for Active; 'I' for Inactive)
    1  A    between atoms: N_1  and  N_9
    2  A    between atoms: N_1  and  C_30
    3  A    between atoms: C_7  and  O_31
    4  A    between atoms: C_15  and  O_31
    5  A    between atoms: C_15  and  C_34
    6  A    between atoms: O_20  and  C_26
    7  A    between atoms: C_22  and  C_35
                            x       y       z     vdW  Elec       q    Type
                         _______ _______ _______ _____ _____    ______ ____

>  <TORSDO>
F 7

$$$$
