=
 OpenBabel11042421323D

 27 29  0  0  1  0  0  0  0  0999 V2000
  161.9600  209.1310  148.7990 N   0  0  0  0  0  0  0  0  0  0  0  0
  161.7550  208.0740  149.5340 C   0  0  0  0  0  0  0  0  0  0  0  0
  161.2970  207.5100  153.7640 C   0  0  0  0  0  0  0  0  0  0  0  0
  162.4190  206.7860  151.6190 C   0  0  0  0  0  2  0  0  0  0  0  0
  160.7300  208.5240  153.1750 N   0  0  0  0  0  0  0  0  0  0  0  0
  160.5580  208.5610  151.7230 C   0  0  0  0  0  2  0  0  0  0  0  0
  161.7820  206.3430  152.9450 C   0  0  0  0  0  2  0  0  0  0  0  0
  161.8410  208.0840  151.0370 C   0  0  2  0  0  3  0  0  0  0  0  0
  161.4210  207.4680  155.1900 N   0  0  0  0  0  2  0  0  0  0  0  0
  160.4780  209.2990  156.7150 N   0  0  0  0  0  0  0  0  0  0  0  0
  160.9050  208.4720  156.0240 C   0  0  0  0  0  0  0  0  0  0  0  0
  162.1360  206.3530  147.3530 S   0  0  0  0  0  0  0  0  0  0  0  0
  161.5170  204.7960  147.4330 C   0  0  0  0  0  0  0  0  0  0  0  0
  161.5380  206.7800  148.8670 C   0  0  0  0  0  0  0  0  0  0  0  0
  160.8540  204.6450  148.6430 C   0  0  0  0  0  3  0  0  0  0  0  0
  160.8760  205.7500  149.4340 N   0  0  0  0  0  0  0  0  0  0  0  0
  162.2770  204.0190  145.3260 O   0  0  0  0  0  0  0  0  0  0  0  0
  161.6570  203.7660  146.3960 C   0  0  0  0  0  0  0  0  0  0  0  0
  161.1260  202.4990  146.5990 O   0  0  0  0  0  1  0  0  0  0  0  0
  162.1770  210.4740  149.2470 C   0  0  0  0  0  0  0  0  0  0  0  0
  162.4930  210.7000  150.4470 O   0  0  0  0  0  0  0  0  0  0  0  0
  162.0030  211.6010  148.3100 C   0  0  0  0  0  0  0  0  0  0  0  0
  162.7930  213.6570  147.3140 C   0  0  0  0  0  3  0  0  0  0  0  0
  161.6180  213.7750  146.6330 N   0  0  0  0  0  0  0  0  0  0  0  0
  160.6300  212.8470  146.7500 C   0  0  0  0  0  3  0  0  0  0  0  0
  160.8050  211.7460  147.5900 C   0  0  0  0  0  3  0  0  0  0  0  0
  163.0050  212.5700  148.1700 C   0  0  0  0  0  3  0  0  0  0  0  0
  1 20  1  0  0  0  0
  1  2  2  0  0  0  0
  3  9  1  0  0  0  0
  4  7  1  0  0  0  0
  5  3  2  0  0  0  0
  6  5  1  0  0  0  0
  7  3  1  0  0  0  0
  8  2  1  6  0  0  0
  8  4  1  0  0  0  0
  8  6  1  0  0  0  0
  9 11  1  0  0  0  0
 11 10  3  0  0  0  0
 12 13  1  0  0  0  0
 12 14  1  0  0  0  0
 13 15  2  0  0  0  0
 14 16  2  0  0  0  0
 14  2  1  0  0  0  0
 15 16  1  0  0  0  0
 17 18  2  0  0  0  0
 18 19  1  0  0  0  0
 18 13  1  0  0  0  0
 20 21  2  0  0  0  0
 22 20  1  0  0  0  0
 23 27  2  0  0  0  0
 24 25  2  0  0  0  0
 24 23  1  0  0  0  0
 25 26  1  0  0  0  0
 26 22  2  0  0  0  0
 27 22  1  0  0  0  0
M  END
>  <MODEL>
1

>  <REMARK>
 VINA RESULT:      -7.1      0.000      0.000
  Name = 
  6 active torsions:
  status: ('A' for Active; 'I' for Inactive)
    1  A    between atoms: C_1  and  C_8
    2  A    between atoms: N_6  and  C_8
    3  A    between atoms: C_9  and  N_25
    4  A    between atoms: C_10  and  C_11
    5  A    between atoms: C_15  and  C_16
    6  A    between atoms: C_15  and  C_24
                            x       y       z     vdW  Elec       q    Type
                         _______ _______ _______ _____ _____    ______ ____

>  <TORSDO>
F 6

$$$$
=
 OpenBabel11042421323D

 27 29  0  0  1  0  0  0  0  0999 V2000
  162.0730  210.2320  150.2010 N   0  0  0  0  0  0  0  0  0  0  0  0
  161.7690  208.9690  150.2940 C   0  0  0  0  0  0  0  0  0  0  0  0
  161.2290  205.9470  147.2940 C   0  0  0  0  0  0  0  0  0  0  0  0
  160.4610  206.9500  149.4830 C   0  0  0  0  0  2  0  0  0  0  0  0
  162.0830  206.9120  147.1030 N   0  0  0  0  0  0  0  0  0  0  0  0
  162.5560  207.7390  148.2130 C   0  0  0  0  0  2  0  0  0  0  0  0
  160.7170  205.6630  148.6810 C   0  0  0  0  0  2  0  0  0  0  0  0
  161.3770  208.1240  149.1110 C   0  0  2  0  0  3  0  0  0  0  0  0
  160.8070  205.1180  146.2050 N   0  0  0  0  0  2  0  0  0  0  0  0
  161.7370  205.3800  143.8320 N   0  0  0  0  0  0  0  0  0  0  0  0
  161.3150  205.2600  144.9050 C   0  0  0  0  0  0  0  0  0  0  0  0
  160.9760  209.0550  152.9820 S   0  0  0  0  0  0  0  0  0  0  0  0
  161.2620  207.7170  153.9540 C   0  0  0  0  0  0  0  0  0  0  0  0
  161.6940  208.3560  151.6300 C   0  0  0  0  0  0  0  0  0  0  0  0
  161.9160  206.7540  153.1990 C   0  0  0  0  0  3  0  0  0  0  0  0
  162.1460  207.1160  151.9080 N   0  0  0  0  0  0  0  0  0  0  0  0
  159.7630  207.1010  155.6840 O   0  0  0  0  0  0  0  0  0  0  0  0
  160.8820  207.5900  155.3660 C   0  0  0  0  0  0  0  0  0  0  0  0
  161.7660  207.9860  156.3620 O   0  0  0  0  0  1  0  0  0  0  0  0
  162.2100  211.0100  149.0050 C   0  0  0  0  0  0  0  0  0  0  0  0
  163.2160  210.8550  148.2580 O   0  0  0  0  0  0  0  0  0  0  0  0
  161.1880  212.0160  148.6580 C   0  0  0  0  0  0  0  0  0  0  0  0
  159.8060  213.1430  147.0260 C   0  0  0  0  0  3  0  0  0  0  0  0
  159.3520  213.9850  147.9970 N   0  0  0  0  0  0  0  0  0  0  0  0
  159.7720  213.8790  149.2860 C   0  0  0  0  0  3  0  0  0  0  0  0
  160.6970  212.8950  149.6380 C   0  0  0  0  0  3  0  0  0  0  0  0
  160.7370  212.1450  147.3380 C   0  0  0  0  0  3  0  0  0  0  0  0
  1  2  2  0  0  0  0
  2 14  1  0  0  0  0
  3  7  1  0  0  0  0
  5  3  2  0  0  0  0
  5  6  1  0  0  0  0
  6  8  1  0  0  0  0
  7  4  1  0  0  0  0
  8  4  1  0  0  0  0
  8  2  1  1  0  0  0
  9  3  1  0  0  0  0
 10 11  3  0  0  0  0
 11  9  1  0  0  0  0
 12 13  1  0  0  0  0
 13 18  1  0  0  0  0
 14 16  2  0  0  0  0
 14 12  1  0  0  0  0
 15 13  2  0  0  0  0
 16 15  1  0  0  0  0
 18 17  2  0  0  0  0
 18 19  1  0  0  0  0
 20  1  1  0  0  0  0
 21 20  2  0  0  0  0
 22 20  1  0  0  0  0
 22 26  1  0  0  0  0
 23 27  1  0  0  0  0
 23 24  2  0  0  0  0
 24 25  1  0  0  0  0
 25 26  2  0  0  0  0
 27 22  2  0  0  0  0
M  END
>  <MODEL>
2

>  <REMARK>
 VINA RESULT:      -6.4      3.177      6.289
  Name = 
  6 active torsions:
  status: ('A' for Active; 'I' for Inactive)
    1  A    between atoms: C_1  and  C_8
    2  A    between atoms: N_6  and  C_8
    3  A    between atoms: C_9  and  N_25
    4  A    between atoms: C_10  and  C_11
    5  A    between atoms: C_15  and  C_16
    6  A    between atoms: C_15  and  C_24
                            x       y       z     vdW  Elec       q    Type
                         _______ _______ _______ _____ _____    ______ ____

>  <TORSDO>
F 6

$$$$
=
 OpenBabel11042421323D

 27 29  0  0  1  0  0  0  0  0999 V2000
  160.7630  207.7640  153.2730 N   0  0  0  0  0  0  0  0  0  0  0  0
  161.0350  207.5110  152.0230 C   0  0  0  0  0  0  0  0  0  0  0  0
  162.1920  210.2950  148.9690 C   0  0  0  0  0  0  0  0  0  0  0  0
  161.2740  208.0120  149.5460 C   0  0  0  0  0  2  0  0  0  0  0  0
  162.1650  210.6680  150.2170 N   0  0  0  0  0  0  0  0  0  0  0  0
  162.1310  209.6870  151.3020 C   0  0  0  0  0  2  0  0  0  0  0  0
  162.1940  208.8290  148.6250 C   0  0  0  0  0  2  0  0  0  0  0  0
  161.1310  208.5780  150.9660 C   0  0  2  0  0  3  0  0  0  0  0  0
  162.2680  211.2640  147.9170 N   0  0  0  0  0  2  0  0  0  0  0  0
  162.4550  213.7800  148.3680 N   0  0  0  0  0  0  0  0  0  0  0  0
  162.3690  212.6420  148.1640 C   0  0  0  0  0  0  0  0  0  0  0  0
  160.4960  205.4670  150.1790 S   0  0  0  0  0  0  0  0  0  0  0  0
  161.1370  203.9410  150.4530 C   0  0  0  0  0  0  0  0  0  0  0  0
  161.1450  206.1070  151.5950 C   0  0  0  0  0  0  0  0  0  0  0  0
  161.8420  203.9640  151.6480 C   0  0  0  0  0  3  0  0  0  0  0  0
  161.8460  205.1730  152.2710 N   0  0  0  0  0  0  0  0  0  0  0  0
  160.6900  201.6470  150.0560 O   0  0  0  0  0  1  0  0  0  0  0  0
  160.9770  202.7770  149.5730 C   0  0  0  0  0  0  0  0  0  0  0  0
  161.1180  202.9200  148.1980 O   0  0  0  0  0  0  0  0  0  0  0  0
  160.6260  209.0490  153.8910 C   0  0  0  0  0  0  0  0  0  0  0  0
  159.8300  209.9030  153.4120 O   0  0  0  0  0  0  0  0  0  0  0  0
  161.4390  209.3880  155.0750 C   0  0  0  0  0  0  0  0  0  0  0  0
  163.0090  210.8320  156.2130 C   0  0  0  0  0  3  0  0  0  0  0  0
  163.0510  209.9580  157.2580 N   0  0  0  0  0  0  0  0  0  0  0  0
  162.3140  208.8150  157.2610 C   0  0  0  0  0  3  0  0  0  0  0  0
  161.4980  208.5100  156.1700 C   0  0  0  0  0  3  0  0  0  0  0  0
  162.2060  210.5600  155.0990 C   0  0  0  0  0  3  0  0  0  0  0  0
  1 20  1  0  0  0  0
  2  1  2  0  0  0  0
  3  5  2  0  0  0  0
  4  8  1  0  0  0  0
  5  6  1  0  0  0  0
  7  3  1  0  0  0  0
  7  4  1  0  0  0  0
  8  6  1  0  0  0  0
  8  2  1  1  0  0  0
  9 11  1  0  0  0  0
  9  3  1  0  0  0  0
 11 10  3  0  0  0  0
 12 13  1  0  0  0  0
 12 14  1  0  0  0  0
 13 15  2  0  0  0  0
 14  2  1  0  0  0  0
 14 16  2  0  0  0  0
 15 16  1  0  0  0  0
 18 17  1  0  0  0  0
 18 13  1  0  0  0  0
 19 18  2  0  0  0  0
 20 22  1  0  0  0  0
 21 20  2  0  0  0  0
 22 27  2  0  0  0  0
 22 26  1  0  0  0  0
 23 24  2  0  0  0  0
 24 25  1  0  0  0  0
 26 25  2  0  0  0  0
 27 23  1  0  0  0  0
M  END
>  <MODEL>
3

>  <REMARK>
 VINA RESULT:      -6.3      2.152      6.171
  Name = 
  6 active torsions:
  status: ('A' for Active; 'I' for Inactive)
    1  A    between atoms: C_1  and  C_8
    2  A    between atoms: N_6  and  C_8
    3  A    between atoms: C_9  and  N_25
    4  A    between atoms: C_10  and  C_11
    5  A    between atoms: C_15  and  C_16
    6  A    between atoms: C_15  and  C_24
                            x       y       z     vdW  Elec       q    Type
                         _______ _______ _______ _____ _____    ______ ____

>  <TORSDO>
F 6

$$$$
=
 OpenBabel11042421323D

 27 29  0  0  1  0  0  0  0  0999 V2000
  161.0230  208.0750  153.6890 N   0  0  0  0  0  0  0  0  0  0  0  0
  161.1190  207.7340  152.4340 C   0  0  0  0  0  0  0  0  0  0  0  0
  162.1190  210.2850  149.1310 C   0  0  0  0  0  0  0  0  0  0  0  0
  161.1740  208.0780  149.9200 C   0  0  0  0  0  2  0  0  0  0  0  0
  162.2080  210.7320  150.3510 N   0  0  0  0  0  0  0  0  0  0  0  0
  162.2270  209.8190  151.4950 C   0  0  0  0  0  2  0  0  0  0  0  0
  162.0430  208.8020  148.8790 C   0  0  0  0  0  2  0  0  0  0  0  0
  161.1660  208.7320  151.3090 C   0  0  2  0  0  3  0  0  0  0  0  0
  162.1440  211.1860  148.0180 N   0  0  0  0  0  2  0  0  0  0  0  0
  162.4500  213.7160  148.2930 N   0  0  0  0  0  0  0  0  0  0  0  0
  162.3120  212.5710  148.1710 C   0  0  0  0  0  0  0  0  0  0  0  0
  160.8210  205.6900  150.5370 S   0  0  0  0  0  0  0  0  0  0  0  0
  160.9900  204.0960  151.0320 C   0  0  0  0  0  0  0  0  0  0  0  0
  161.0680  206.3050  152.0840 C   0  0  0  0  0  0  0  0  0  0  0  0
  161.2340  204.0800  152.3980 C   0  0  0  0  0  3  0  0  0  0  0  0
  161.2820  205.3120  152.9720 N   0  0  0  0  0  0  0  0  0  0  0  0
  160.8480  201.7590  150.6600 O   0  0  0  0  0  1  0  0  0  0  0  0
  160.8970  202.9170  150.1620 C   0  0  0  0  0  0  0  0  0  0  0  0
  160.8380  203.0740  148.7830 O   0  0  0  0  0  0  0  0  0  0  0  0
  161.0610  209.3970  154.2380 C   0  0  0  0  0  0  0  0  0  0  0  0
  162.1530  209.8850  154.6420 O   0  0  0  0  0  0  0  0  0  0  0  0
  159.8180  210.1830  154.3580 C   0  0  0  0  0  0  0  0  0  0  0  0
  158.2280  211.7650  153.4590 C   0  0  0  0  0  3  0  0  0  0  0  0
  157.5430  211.7430  154.6380 N   0  0  0  0  0  0  0  0  0  0  0  0
  157.9440  210.9660  155.6800 C   0  0  0  0  0  3  0  0  0  0  0  0
  159.0880  210.1750  155.5590 C   0  0  0  0  0  3  0  0  0  0  0  0
  159.3820  210.9900  153.2990 C   0  0  0  0  0  3  0  0  0  0  0  0
  1 20  1  0  0  0  0
  2  1  2  0  0  0  0
  3  5  2  0  0  0  0
  4  8  1  0  0  0  0
  5  6  1  0  0  0  0
  7  3  1  0  0  0  0
  7  4  1  0  0  0  0
  8  6  1  0  0  0  0
  8  2  1  1  0  0  0
  9 11  1  0  0  0  0
  9  3  1  0  0  0  0
 11 10  3  0  0  0  0
 12 13  1  0  0  0  0
 12 14  1  0  0  0  0
 13 15  2  0  0  0  0
 14  2  1  0  0  0  0
 14 16  2  0  0  0  0
 15 16  1  0  0  0  0
 18 17  1  0  0  0  0
 18 13  1  0  0  0  0
 19 18  2  0  0  0  0
 20 22  1  0  0  0  0
 20 21  2  0  0  0  0
 22 26  1  0  0  0  0
 23 24  2  0  0  0  0
 24 25  1  0  0  0  0
 26 25  2  0  0  0  0
 27 23  1  0  0  0  0
 27 22  2  0  0  0  0
M  END
>  <MODEL>
4

>  <REMARK>
 VINA RESULT:      -6.1      2.596      5.813
  Name = 
  6 active torsions:
  status: ('A' for Active; 'I' for Inactive)
    1  A    between atoms: C_1  and  C_8
    2  A    between atoms: N_6  and  C_8
    3  A    between atoms: C_9  and  N_25
    4  A    between atoms: C_10  and  C_11
    5  A    between atoms: C_15  and  C_16
    6  A    between atoms: C_15  and  C_24
                            x       y       z     vdW  Elec       q    Type
                         _______ _______ _______ _____ _____    ______ ____

>  <TORSDO>
F 6

$$$$
=
 OpenBabel11042421323D

 27 29  0  0  1  0  0  0  0  0999 V2000
  161.7230  206.8870  152.9100 N   0  0  0  0  0  0  0  0  0  0  0  0
  161.1810  208.0700  152.8300 C   0  0  0  0  0  0  0  0  0  0  0  0
  162.1040  210.0990  149.1630 C   0  0  0  0  0  0  0  0  0  0  0  0
  161.0850  208.0820  150.2930 C   0  0  0  0  0  2  0  0  0  0  0  0
  162.3010  210.6930  150.3050 N   0  0  0  0  0  0  0  0  0  0  0  0
  162.3440  209.9370  151.5560 C   0  0  0  0  0  2  0  0  0  0  0  0
  161.9230  208.6050  149.1150 C   0  0  0  0  0  2  0  0  0  0  0  0
  161.2100  208.9090  151.5800 C   0  0  2  0  0  3  0  0  0  0  0  0
  162.1060  210.8460  147.9400 N   0  0  0  0  0  2  0  0  0  0  0  0
  162.5800  213.3630  147.8560 N   0  0  0  0  0  0  0  0  0  0  0  0
  162.3650  212.2240  147.8960 C   0  0  0  0  0  0  0  0  0  0  0  0
  160.1060  210.2680  154.2000 S   0  0  0  0  0  0  0  0  0  0  0  0
  159.5550  210.0510  155.7700 C   0  0  0  0  0  0  0  0  0  0  0  0
  160.6080  208.6690  154.0460 C   0  0  0  0  0  0  0  0  0  0  0  0
  159.7780  208.7330  156.1400 C   0  0  0  0  0  3  0  0  0  0  0  0
  160.3570  207.9710  155.1730 N   0  0  0  0  0  0  0  0  0  0  0  0
  159.6590  211.8920  157.2610 O   0  0  0  0  0  1  0  0  0  0  0  0
  158.9390  211.0860  156.6100 C   0  0  0  0  0  0  0  0  0  0  0  0
  157.5550  211.1980  156.6710 O   0  0  0  0  0  0  0  0  0  0  0  0
  162.3210  206.1290  151.8510 C   0  0  0  0  0  0  0  0  0  0  0  0
  163.4260  206.4880  151.3590 O   0  0  0  0  0  0  0  0  0  0  0  0
  161.6290  204.9420  151.3130 C   0  0  0  0  0  0  0  0  0  0  0  0
  160.6020  202.7770  151.6260 C   0  0  0  0  0  3  0  0  0  0  0  0
  160.4340  202.6650  150.2780 N   0  0  0  0  0  0  0  0  0  0  0  0
  160.8310  203.6480  149.4260 C   0  0  0  0  0  3  0  0  0  0  0  0
  161.4360  204.8010  149.9280 C   0  0  0  0  0  3  0  0  0  0  0  0
  161.2090  203.9150  152.1680 C   0  0  0  0  0  3  0  0  0  0  0  0
  2  1  2  0  0  0  0
  2 14  1  0  0  0  0
  3  5  2  0  0  0  0
  4  8  1  0  0  0  0
  5  6  1  0  0  0  0
  6  8  1  0  0  0  0
  7  3  1  0  0  0  0
  7  4  1  0  0  0  0
  8  2  1  1  0  0  0
  9  3  1  0  0  0  0
 10 11  3  0  0  0  0
 11  9  1  0  0  0  0
 12 13  1  0  0  0  0
 13 15  2  0  0  0  0
 13 18  1  0  0  0  0
 14 12  1  0  0  0  0
 14 16  2  0  0  0  0
 16 15  1  0  0  0  0
 18 19  2  0  0  0  0
 18 17  1  0  0  0  0
 20  1  1  0  0  0  0
 21 20  2  0  0  0  0
 22 20  1  0  0  0  0
 22 27  1  0  0  0  0
 23 27  2  0  0  0  0
 24 23  1  0  0  0  0
 25 26  1  0  0  0  0
 25 24  2  0  0  0  0
 26 22  2  0  0  0  0
M  END
>  <MODEL>
5

>  <REMARK>
 VINA RESULT:      -6.0      3.254      8.279
  Name = 
  6 active torsions:
  status: ('A' for Active; 'I' for Inactive)
    1  A    between atoms: C_1  and  C_8
    2  A    between atoms: N_6  and  C_8
    3  A    between atoms: C_9  and  N_25
    4  A    between atoms: C_10  and  C_11
    5  A    between atoms: C_15  and  C_16
    6  A    between atoms: C_15  and  C_24
                            x       y       z     vdW  Elec       q    Type
                         _______ _______ _______ _____ _____    ______ ____

>  <TORSDO>
F 6

$$$$
=
 OpenBabel11042421323D

 27 29  0  0  1  0  0  0  0  0999 V2000
  161.6250  208.7150  151.9530 N   0  0  0  0  0  0  0  0  0  0  0  0
  161.7010  208.6000  150.6570 C   0  0  0  0  0  0  0  0  0  0  0  0
  161.6140  205.1960  148.0440 C   0  0  0  0  0  0  0  0  0  0  0  0
  162.7060  207.3890  148.6660 C   0  0  0  0  0  2  0  0  0  0  0  0
  160.8450  205.2330  149.0950 N   0  0  0  0  0  0  0  0  0  0  0  0
  160.5780  206.4880  149.7980 C   0  0  0  0  0  2  0  0  0  0  0  0
  162.2400  206.4660  147.5290 C   0  0  0  0  0  2  0  0  0  0  0  0
  161.8780  207.2810  149.9540 C   0  0  2  0  0  3  0  0  0  0  0  0
  161.8330  203.9680  147.3410 N   0  0  0  0  0  2  0  0  0  0  0  0
  160.6900  201.7720  148.0010 N   0  0  0  0  0  0  0  0  0  0  0  0
  161.2060  202.7660  147.7030 C   0  0  0  0  0  0  0  0  0  0  0  0
  161.5580  211.3920  150.4270 S   0  0  0  0  0  0  0  0  0  0  0  0
  161.7840  212.0920  148.9190 C   0  0  0  0  0  0  0  0  0  0  0  0
  161.7270  209.8240  149.8390 C   0  0  0  0  0  0  0  0  0  0  0  0
  161.9840  211.0830  147.9880 C   0  0  0  0  0  3  0  0  0  0  0  0
  161.9560  209.8270  148.5100 N   0  0  0  0  0  0  0  0  0  0  0  0
  160.9250  214.2850  149.1900 O   0  0  0  0  0  1  0  0  0  0  0  0
  161.7730  213.5320  148.6360 C   0  0  0  0  0  0  0  0  0  0  0  0
  162.7150  214.0780  147.7720 O   0  0  0  0  0  0  0  0  0  0  0  0
  161.5740  207.6590  152.9200 C   0  0  0  0  0  0  0  0  0  0  0  0
  161.9790  206.5020  152.6180 O   0  0  0  0  0  0  0  0  0  0  0  0
  161.0210  207.9140  154.2640 C   0  0  0  0  0  0  0  0  0  0  0  0
  160.6180  209.3940  156.1320 C   0  0  0  0  0  3  0  0  0  0  0  0
  160.0810  208.3560  156.8340 N   0  0  0  0  0  0  0  0  0  0  0  0
  159.9870  207.1080  156.3010 C   0  0  0  0  0  3  0  0  0  0  0  0
  160.4560  206.8660  155.0090 C   0  0  0  0  0  3  0  0  0  0  0  0
  161.1040  209.1910  154.8350 C   0  0  0  0  0  3  0  0  0  0  0  0
  1 20  1  0  0  0  0
  2  1  2  0  0  0  0
  3  5  2  0  0  0  0
  4  8  1  0  0  0  0
  5  6  1  0  0  0  0
  6  8  1  0  0  0  0
  7  3  1  0  0  0  0
  7  4  1  0  0  0  0
  8  2  1  6  0  0  0
  9 11  1  0  0  0  0
  9  3  1  0  0  0  0
 11 10  3  0  0  0  0
 13 12  1  0  0  0  0
 14 12  1  0  0  0  0
 14  2  1  0  0  0  0
 15 16  1  0  0  0  0
 15 13  2  0  0  0  0
 16 14  2  0  0  0  0
 18 13  1  0  0  0  0
 18 17  1  0  0  0  0
 19 18  2  0  0  0  0
 20 22  1  0  0  0  0
 21 20  2  0  0  0  0
 22 27  2  0  0  0  0
 22 26  1  0  0  0  0
 23 24  2  0  0  0  0
 25 24  1  0  0  0  0
 26 25  2  0  0  0  0
 27 23  1  0  0  0  0
M  END
>  <MODEL>
6

>  <REMARK>
 VINA RESULT:      -5.9      2.876      7.581
  Name = 
  6 active torsions:
  status: ('A' for Active; 'I' for Inactive)
    1  A    between atoms: C_1  and  C_8
    2  A    between atoms: N_6  and  C_8
    3  A    between atoms: C_9  and  N_25
    4  A    between atoms: C_10  and  C_11
    5  A    between atoms: C_15  and  C_16
    6  A    between atoms: C_15  and  C_24
                            x       y       z     vdW  Elec       q    Type
                         _______ _______ _______ _____ _____    ______ ____

>  <TORSDO>
F 6

$$$$
=
 OpenBabel11042421323D

 27 29  0  0  1  0  0  0  0  0999 V2000
  162.0690  210.0980  149.0670 N   0  0  0  0  0  0  0  0  0  0  0  0
  161.7000  209.5970  150.2120 C   0  0  0  0  0  0  0  0  0  0  0  0
  160.8390  211.1680  154.1120 C   0  0  0  0  0  0  0  0  0  0  0  0
  162.5490  210.1860  152.5310 C   0  0  0  0  0  2  0  0  0  0  0  0
  159.9400  211.2260  153.1710 N   0  0  0  0  0  0  0  0  0  0  0  0
  160.0480  210.4040  151.9660 C   0  0  0  0  0  2  0  0  0  0  0  0
  162.0130  210.2350  153.9700 C   0  0  0  0  0  2  0  0  0  0  0  0
  161.4880  210.4290  151.4480 C   0  0  2  0  0  3  0  0  0  0  0  0
  160.7000  211.9470  155.3060 N   0  0  0  0  0  2  0  0  0  0  0  0
  158.6630  213.4360  155.7500 N   0  0  0  0  0  0  0  0  0  0  0  0
  159.5850  212.7630  155.5510 C   0  0  0  0  0  0  0  0  0  0  0  0
  161.0550  207.0880  149.1370 S   0  0  0  0  0  0  0  0  0  0  0  0
  161.3260  205.7160  150.0650 C   0  0  0  0  0  0  0  0  0  0  0  0
  161.5920  208.1340  150.3410 C   0  0  0  0  0  0  0  0  0  0  0  0
  161.8280  206.1080  151.2980 C   0  0  0  0  0  3  0  0  0  0  0  0
  161.9770  207.4520  151.4390 N   0  0  0  0  0  0  0  0  0  0  0  0
  160.6180  203.4880  150.4580 O   0  0  0  0  0  1  0  0  0  0  0  0
  161.0750  204.3340  149.6400 C   0  0  0  0  0  0  0  0  0  0  0  0
  161.3160  203.9560  148.3250 O   0  0  0  0  0  0  0  0  0  0  0  0
  162.2230  211.4830  148.7310 C   0  0  0  0  0  0  0  0  0  0  0  0
  163.3670  212.0150  148.7420 O   0  0  0  0  0  0  0  0  0  0  0  0
  161.0380  212.2980  148.3990 C   0  0  0  0  0  0  0  0  0  0  0  0
  159.3570  213.0320  146.8260 C   0  0  0  0  0  3  0  0  0  0  0  0
  158.8830  213.9160  147.7490 N   0  0  0  0  0  0  0  0  0  0  0  0
  159.4380  214.0190  148.9870 C   0  0  0  0  0  3  0  0  0  0  0  0
  160.5240  213.2140  149.3320 C   0  0  0  0  0  3  0  0  0  0  0  0
  160.4470  212.2100  147.1320 C   0  0  0  0  0  3  0  0  0  0  0  0
  1  2  2  0  0  0  0
  2 14  1  0  0  0  0
  3  9  1  0  0  0  0
  4  7  1  0  0  0  0
  5  3  2  0  0  0  0
  6  5  1  0  0  0  0
  7  3  1  0  0  0  0
  8  2  1  6  0  0  0
  8  6  1  0  0  0  0
  8  4  1  0  0  0  0
  9 11  1  0  0  0  0
 11 10  3  0  0  0  0
 12 13  1  0  0  0  0
 12 14  1  0  0  0  0
 13 15  2  0  0  0  0
 14 16  2  0  0  0  0
 15 16  1  0  0  0  0
 18 13  1  0  0  0  0
 18 17  1  0  0  0  0
 19 18  2  0  0  0  0
 20 21  2  0  0  0  0
 20  1  1  0  0  0  0
 22 20  1  0  0  0  0
 22 26  1  0  0  0  0
 23 27  1  0  0  0  0
 23 24  2  0  0  0  0
 24 25  1  0  0  0  0
 25 26  2  0  0  0  0
 27 22  2  0  0  0  0
M  END
>  <MODEL>
7

>  <REMARK>
 VINA RESULT:      -5.9      2.462      3.083
  Name = 
  6 active torsions:
  status: ('A' for Active; 'I' for Inactive)
    1  A    between atoms: C_1  and  C_8
    2  A    between atoms: N_6  and  C_8
    3  A    between atoms: C_9  and  N_25
    4  A    between atoms: C_10  and  C_11
    5  A    between atoms: C_15  and  C_16
    6  A    between atoms: C_15  and  C_24
                            x       y       z     vdW  Elec       q    Type
                         _______ _______ _______ _____ _____    ______ ____

>  <TORSDO>
F 6

$$$$
=
 OpenBabel11042421323D

 27 29  0  0  1  0  0  0  0  0999 V2000
  161.7110  205.8270  149.6640 N   0  0  0  0  0  0  0  0  0  0  0  0
  161.7440  206.9110  150.3860 C   0  0  0  0  0  0  0  0  0  0  0  0
  162.0050  210.9980  149.1030 C   0  0  0  0  0  0  0  0  0  0  0  0
  162.4130  209.2990  150.9290 C   0  0  0  0  0  2  0  0  0  0  0  0
  161.6490  210.0710  148.2610 N   0  0  0  0  0  0  0  0  0  0  0  0
  161.2060  208.7550  148.7220 C   0  0  0  0  0  2  0  0  0  0  0  0
  161.9560  210.7250  150.5830 C   0  0  0  0  0  2  0  0  0  0  0  0
  162.1310  208.2580  149.8370 C   0  0  2  0  0  3  0  0  0  0  0  0
  162.3970  212.2960  148.6400 N   0  0  0  0  0  2  0  0  0  0  0  0
  162.3490  212.9490  146.1630 N   0  0  0  0  0  0  0  0  0  0  0  0
  162.3720  212.6540  147.2830 C   0  0  0  0  0  0  0  0  0  0  0  0
  160.8310  208.0070  152.8010 S   0  0  0  0  0  0  0  0  0  0  0  0
  160.8520  207.0530  154.1810 C   0  0  0  0  0  0  0  0  0  0  0  0
  161.5030  206.8040  151.8340 C   0  0  0  0  0  0  0  0  0  0  0  0
  161.3860  205.8150  153.8560 C   0  0  0  0  0  3  0  0  0  0  0  0
  161.7390  205.6840  152.5490 N   0  0  0  0  0  0  0  0  0  0  0  0
  159.3330  206.9570  155.9990 O   0  0  0  0  0  0  0  0  0  0  0  0
  160.3810  207.4630  155.5100 C   0  0  0  0  0  0  0  0  0  0  0  0
  161.1020  208.3940  156.2470 O   0  0  0  0  0  1  0  0  0  0  0  0
  161.9050  205.7160  148.2490 C   0  0  0  0  0  0  0  0  0  0  0  0
  162.3340  206.7030  147.5880 O   0  0  0  0  0  0  0  0  0  0  0  0
  161.5760  204.4560  147.5550 C   0  0  0  0  0  0  0  0  0  0  0  0
  161.2060  203.2020  145.5220 C   0  0  0  0  0  3  0  0  0  0  0  0
  160.8450  202.1150  146.2610 N   0  0  0  0  0  0  0  0  0  0  0  0
  160.8430  202.1480  147.6210 C   0  0  0  0  0  3  0  0  0  0  0  0
  161.2060  203.3180  148.2900 C   0  0  0  0  0  3  0  0  0  0  0  0
  161.5730  204.3960  146.1550 C   0  0  0  0  0  3  0  0  0  0  0  0
  1  2  2  0  0  0  0
  2 14  1  0  0  0  0
  3  7  1  0  0  0  0
  5  6  1  0  0  0  0
  5  3  2  0  0  0  0
  6  8  1  0  0  0  0
  7  4  1  0  0  0  0
  8  2  1  1  0  0  0
  8  4  1  0  0  0  0
  9  3  1  0  0  0  0
 10 11  3  0  0  0  0
 11  9  1  0  0  0  0
 12 13  1  0  0  0  0
 13 18  1  0  0  0  0
 14 16  2  0  0  0  0
 14 12  1  0  0  0  0
 15 13  2  0  0  0  0
 16 15  1  0  0  0  0
 18 17  2  0  0  0  0
 18 19  1  0  0  0  0
 20  1  1  0  0  0  0
 21 20  2  0  0  0  0
 22 20  1  0  0  0  0
 22 26  1  0  0  0  0
 23 27  1  0  0  0  0
 23 24  2  0  0  0  0
 24 25  1  0  0  0  0
 25 26  2  0  0  0  0
 27 22  2  0  0  0  0
M  END
>  <MODEL>
8

>  <REMARK>
 VINA RESULT:      -5.8      2.779      7.482
  Name = 
  6 active torsions:
  status: ('A' for Active; 'I' for Inactive)
    1  A    between atoms: C_1  and  C_8
    2  A    between atoms: N_6  and  C_8
    3  A    between atoms: C_9  and  N_25
    4  A    between atoms: C_10  and  C_11
    5  A    between atoms: C_15  and  C_16
    6  A    between atoms: C_15  and  C_24
                            x       y       z     vdW  Elec       q    Type
                         _______ _______ _______ _____ _____    ______ ____

>  <TORSDO>
F 6

$$$$
=
 OpenBabel11042421323D

 27 29  0  0  1  0  0  0  0  0999 V2000
  162.0610  209.1800  149.4540 N   0  0  0  0  0  0  0  0  0  0  0  0
  161.4600  208.1800  150.0340 C   0  0  0  0  0  0  0  0  0  0  0  0
  160.8300  208.7690  154.2380 C   0  0  0  0  0  0  0  0  0  0  0  0
  160.4820  209.6180  151.8840 C   0  0  0  0  0  2  0  0  0  0  0  0
  161.3520  207.6570  153.8060 N   0  0  0  0  0  0  0  0  0  0  0  0
  161.9070  207.5530  152.4560 C   0  0  0  0  0  2  0  0  0  0  0  0
  160.7970  209.9800  153.3430 C   0  0  0  0  0  2  0  0  0  0  0  0
  160.9640  208.2250  151.4550 C   0  0  2  0  0  3  0  0  0  0  0  0
  160.3280  208.8700  155.5760 N   0  0  0  0  0  2  0  0  0  0  0  0
  160.4870  206.9460  157.2610 N   0  0  0  0  0  0  0  0  0  0  0  0
  160.4140  207.8150  156.4970 C   0  0  0  0  0  0  0  0  0  0  0  0
  161.9780  206.5980  147.7770 S   0  0  0  0  0  0  0  0  0  0  0  0
  161.5000  204.9890  147.7890 C   0  0  0  0  0  0  0  0  0  0  0  0
  161.3540  206.9020  149.3100 C   0  0  0  0  0  0  0  0  0  0  0  0
  160.8600  204.7270  148.9920 C   0  0  0  0  0  3  0  0  0  0  0  0
  160.7900  205.7940  149.8320 N   0  0  0  0  0  0  0  0  0  0  0  0
  162.4280  204.3370  145.7080 O   0  0  0  0  0  0  0  0  0  0  0  0
  161.7250  204.0230  146.7070 C   0  0  0  0  0  0  0  0  0  0  0  0
  161.1810  202.7470  146.7910 O   0  0  0  0  0  1  0  0  0  0  0  0
  162.2570  210.5000  149.9760 C   0  0  0  0  0  0  0  0  0  0  0  0
  162.8070  210.6620  151.1000 O   0  0  0  0  0  0  0  0  0  0  0  0
  161.7900  211.6720  149.2120 C   0  0  0  0  0  0  0  0  0  0  0  0
  160.3700  213.6160  148.9920 C   0  0  0  0  0  3  0  0  0  0  0  0
  160.8340  213.8070  147.7240 N   0  0  0  0  0  0  0  0  0  0  0  0
  161.7610  212.9800  147.1730 C   0  0  0  0  0  3  0  0  0  0  0  0
  162.2540  211.8990  147.9060 C   0  0  0  0  0  3  0  0  0  0  0  0
  160.8350  212.5410  149.7580 C   0  0  0  0  0  3  0  0  0  0  0  0
  1 20  1  0  0  0  0
  1  2  2  0  0  0  0
  3  9  1  0  0  0  0
  4  7  1  0  0  0  0
  5  3  2  0  0  0  0
  6  5  1  0  0  0  0
  7  3  1  0  0  0  0
  8  2  1  6  0  0  0
  8  4  1  0  0  0  0
  8  6  1  0  0  0  0
  9 11  1  0  0  0  0
 11 10  3  0  0  0  0
 12 13  1  0  0  0  0
 12 14  1  0  0  0  0
 13 15  2  0  0  0  0
 14 16  2  0  0  0  0
 14  2  1  0  0  0  0
 15 16  1  0  0  0  0
 17 18  2  0  0  0  0
 18 19  1  0  0  0  0
 18 13  1  0  0  0  0
 20 21  2  0  0  0  0
 22 27  1  0  0  0  0
 22 20  1  0  0  0  0
 23 27  2  0  0  0  0
 24 23  1  0  0  0  0
 25 24  2  0  0  0  0
 25 26  1  0  0  0  0
 26 22  2  0  0  0  0
M  END
>  <MODEL>
9

>  <REMARK>
 VINA RESULT:      -5.7      1.170      1.608
  Name = 
  6 active torsions:
  status: ('A' for Active; 'I' for Inactive)
    1  A    between atoms: C_1  and  C_8
    2  A    between atoms: N_6  and  C_8
    3  A    between atoms: C_9  and  N_25
    4  A    between atoms: C_10  and  C_11
    5  A    between atoms: C_15  and  C_16
    6  A    between atoms: C_15  and  C_24
                            x       y       z     vdW  Elec       q    Type
                         _______ _______ _______ _____ _____    ______ ____

>  <TORSDO>
F 6

$$$$
