=
 OpenBabel11042420543D

 64 67  0  0  1  0  0  0  0  0999 V2000
  159.0970  213.6670  149.9010 C   0  0  0  0  0  0  0  0  0  0  0  0
  158.3320  213.7250  148.8440 N   0  0  0  0  0  0  0  0  0  0  0  0
  159.1080  212.6500  144.4800 C   0  0  0  0  0  2  0  0  0  0  0  0
  160.5170  214.1450  145.9810 C   0  0  0  0  0  2  0  0  0  0  0  0
  157.8080  212.5600  145.2710 C   0  0  0  0  0  3  0  0  0  0  0  0
  159.8970  213.9850  144.6210 C   0  0  1  0  0  3  0  0  0  0  0  0
  158.6770  213.3070  147.5190 C   0  0  1  0  0  3  0  0  0  0  0  0
  157.6320  212.8060  146.5910 C   0  0  0  0  0  3  0  0  0  0  0  0
  159.7130  213.8060  146.9340 C   0  0  0  0  0  2  0  0  0  0  0  0
  160.9510  214.1610  143.5270 C   0  0  1  0  0  3  0  0  0  0  0  0
  163.0130  213.2490  143.3220 O   0  0  0  0  0  1  0  0  0  0  0  0
  162.3020  214.1190  144.0780 N   0  0  0  0  0  2  0  0  0  0  0  0
  160.7850  213.1250  142.5150 N   0  0  0  0  0  2  0  0  0  0  0  0
  159.7800  213.5710  141.5570 C   0  0  0  0  0  2  0  0  0  0  0  0
  160.2780  213.4000  140.1240 C   0  0  1  0  0  3  0  0  0  0  0  0
  161.7770  213.1410  140.1580 C   0  0  0  0  0  1  0  0  0  0  0  0
  159.4160  213.4700  137.1110 C   0  0  0  0  0  2  0  0  0  0  0  0
  157.3220  213.0400  138.4930 C   0  0  0  0  0  0  0  0  0  0  0  0
  157.8980  213.3730  137.1320 C   0  0  0  0  0  2  0  0  0  0  0  0
  160.1240  211.9200  137.7380 S   0  0  0  0  0  0  0  0  0  0  0  0
  158.0400  212.4670  139.4750 C   0  0  0  0  0  3  0  0  0  0  0  0
  159.5330  212.2420  139.4430 C   0  0  2  0  0  3  0  0  0  0  0  0
  155.5740  214.3180  139.4580 O   0  0  0  0  0  1  0  0  0  0  0  0
  155.8460  213.1740  138.7050 C   0  0  2  0  0  3  0  0  0  0  0  0
  155.2850  211.9380  139.3990 C   0  0  0  0  0  2  0  0  0  0  0  0
  154.0450  210.7000  137.7030 N   0  0  0  0  0  1  0  0  0  0  0  0
  155.2840  210.7400  138.4620 C   0  0  0  0  0  2  0  0  0  0  0  0
  161.3940  214.2220  149.6870 O   0  0  0  0  0  0  0  0  0  0  0  0
  160.9430  211.9440  149.8420 N   0  0  0  0  0  2  0  0  0  0  0  0
  160.5330  213.3130  149.8370 C   0  0  0  0  0  0  0  0  0  0  0  0
  162.3430  211.5570  149.7840 C   0  0  0  0  0  2  0  0  0  0  0  0
  162.4960  210.0970  150.1640 C   0  0  1  0  0  3  0  0  0  0  0  0
  162.1830  209.9440  151.5190 O   0  0  0  0  0  1  0  0  0  0  0  0
  161.5440  209.2720  149.3170 C   0  0  0  0  0  2  0  0  0  0  0  0
  162.0830  207.8700  149.1110 C   0  0  0  0  0  2  0  0  0  0  0  0
  161.1940  207.1350  148.1220 C   0  0  1  0  0  3  0  0  0  0  0  0
  161.9360  206.8190  146.9800 O   0  0  0  0  0  1  0  0  0  0  0  0
  160.6190  205.8680  148.7430 C   0  0  2  0  0  3  0  0  0  0  0  0
  160.0970  206.1660  150.0050 O   0  0  0  0  0  1  0  0  0  0  0  0
  161.6740  204.8700  148.8740 N   0  0  0  0  0  2  0  0  0  0  0  0
  161.0460  203.5670  149.0290 C   0  0  0  0  0  2  0  0  0  0  0  0
  160.7400  201.3070  147.9720 C   0  0  1  0  0  3  0  0  0  0  0  0
  161.2170  200.6900  149.1300 O   0  0  0  0  0  1  0  0  0  0  0  0
  161.1930  202.5320  145.5560 C   0  0  0  0  0  2  0  0  0  0  0  0
  161.3650  202.7060  147.8200 C   0  0  1  0  0  3  0  0  0  0  0  0
  160.5580  201.1460  145.7100 C   0  0  0  0  0  2  0  0  0  0  0  0
  161.0770  200.5130  146.8570 O   0  0  0  0  0  0  0  0  0  0  0  0
  160.8550  203.3340  146.6630 O   0  0  0  0  0  0  0  0  0  0  0  0
  158.4980  213.9420  151.2520 C   0  0  1  0  0  3  0  0  0  0  0  0
  155.9220  214.4530  151.1390 N   0  0  0  0  0  0  0  0  0  0  0  0
  157.0560  214.2290  151.1880 C   0  0  0  0  0  0  0  0  0  0  0  0
  158.7950  212.8290  152.2130 C   0  0  0  0  0  0  0  0  0  0  0  0
  158.6620  211.6620  151.8740 O   0  0  0  0  0  0  0  0  0  0  0  0
  159.3140  213.1690  153.5700 C   0  0  0  0  0  2  0  0  0  0  0  0
  158.6690  212.2700  154.6150 C   0  0  0  0  0  2  0  0  0  0  0  0
  160.6080  208.9780  155.2240 C   0  0  0  0  0  0  0  0  0  0  0  0
  160.8190  211.8070  155.9590 C   0  0  0  0  0  2  0  0  0  0  0  0
  159.9900  208.1440  156.3360 C   0  0  0  0  0  1  0  0  0  0  0  0
  162.7500  211.1490  157.1980 O   0  0  0  0  0  1  0  0  0  0  0  0
  159.6660  211.2920  155.1400 C   0  0  0  0  0  0  0  0  0  0  0  0
  161.5600  210.6670  156.6540 C   0  0  2  0  0  3  0  0  0  0  0  0
  160.9300  208.0540  154.0690 C   0  0  0  0  0  1  0  0  0  0  0  0
  161.8550  209.6020  155.6920 N   0  0  0  0  0  2  0  0  0  0  0  0
  159.6100  210.0070  154.7480 C   0  0  0  0  0  3  0  0  0  0  0  0
  1 49  1  0  0  0  0
  2  1  2  0  0  0  0
  3  6  1  0  0  0  0
  3  5  1  0  0  0  0
  4  9  1  0  0  0  0
  5  8  2  0  0  0  0
  6 10  1  6  0  0  0
  6  4  1  0  0  0  0
  7  2  1  1  0  0  0
  8  7  1  0  0  0  0
  9  7  1  0  0  0  0
 10 13  1  6  0  0  0
 10 12  1  0  0  0  0
 11 12  1  0  0  0  0
 14 13  1  0  0  0  0
 15 16  1  1  0  0  0
 15 14  1  0  0  0  0
 17 19  1  0  0  0  0
 17 20  1  0  0  0  0
 18 24  1  0  0  0  0
 18 21  2  0  0  0  0
 19 18  1  0  0  0  0
 20 22  1  0  0  0  0
 22 21  1  0  0  0  0
 22 15  1  6  0  0  0
 24 25  1  0  0  0  0
 24 23  1  1  0  0  0
 26 27  1  0  0  0  0
 27 25  1  0  0  0  0
 28 30  2  0  0  0  0
 30 29  1  0  0  0  0
 30  1  1  0  0  0  0
 31 29  1  0  0  0  0
 31 32  1  0  0  0  0
 32 33  1  1  0  0  0
 34 32  1  0  0  0  0
 35 34  1  0  0  0  0
 36 37  1  6  0  0  0
 36 38  1  0  0  0  0
 36 35  1  0  0  0  0
 38 40  1  0  0  0  0
 38 39  1  1  0  0  0
 40 41  1  0  0  0  0
 42 43  1  1  0  0  0
 44 46  1  0  0  0  0
 44 48  1  0  0  0  0
 45 42  1  0  0  0  0
 45 41  1  1  0  0  0
 46 47  1  0  0  0  0
 47 42  1  0  0  0  0
 48 45  1  0  0  0  0
 49 51  1  6  0  0  0
 49 52  1  0  0  0  0
 50 51  3  0  0  0  0
 52 54  1  0  0  0  0
 53 52  2  0  0  0  0
 54 55  1  0  0  0  0
 55 60  1  0  0  0  0
 56 63  1  0  0  0  0
 56 58  1  0  0  0  0
 57 61  1  0  0  0  0
 60 57  1  0  0  0  0
 61 59  1  6  0  0  0
 62 56  1  0  0  0  0
 63 61  1  0  0  0  0
 64 60  2  0  0  0  0
 64 56  1  0  0  0  0
M  END
>  <MODEL>
1

>  <REMARK>
 VINA RESULT:      -5.0      0.000      0.000
  Name = 
  26 active torsions:
  status: ('A' for Active; 'I' for Inactive)
    1  A    between atoms: C_3  and  C_16
    2  A    between atoms: C_3  and  C_62
    3  A    between atoms: C_4  and  C_43
    4  A    between atoms: C_4  and  C_63
    5  A    between atoms: C_5  and  C_18
    6  A    between atoms: C_6  and  C_7
    7  A    between atoms: C_6  and  C_54
    8  A    between atoms: C_7  and  C_36
    9  A    between atoms: C_8  and  N_33
   10  A    between atoms: C_8  and  C_34
   11  A    between atoms: C_16  and  N_29
   12  A    between atoms: C_18  and  C_55
   13  A    between atoms: C_19  and  C_36
   14  A    between atoms: C_19  and  C_58
   15  A    between atoms: C_25  and  C_27
   16  A    between atoms: C_27  and  N_33
   17  A    between atoms: C_28  and  C_41
   18  A    between atoms: N_29  and  C_41
   19  A    between atoms: C_32  and  N_46
   20  A    between atoms: C_34  and  C_42
   21  A    between atoms: C_36  and  C_53
   22  A    between atoms: C_37  and  C_54
   23  A    between atoms: N_38  and  C_63
   24  A    between atoms: C_40  and  C_55
   25  A    between atoms: C_41  and  N_57
   26  A    between atoms: C_42  and  C_43
                            x       y       z     vdW  Elec       q    Type
                         _______ _______ _______ _____ _____    ______ ____

>  <TORSDO>
F 26

$$$$
=
 OpenBabel11042420543D

 64 67  0  0  1  0  0  0  0  0999 V2000
  161.2540  204.6220  146.7570 C   0  0  0  0  0  0  0  0  0  0  0  0
  161.2280  203.6470  147.6270 N   0  0  0  0  0  0  0  0  0  0  0  0
  160.7290  203.9530  152.1500 C   0  0  0  0  0  2  0  0  0  0  0  0
  160.5830  205.8360  150.4450 C   0  0  0  0  0  2  0  0  0  0  0  0
  161.3940  202.8510  151.3320 C   0  0  0  0  0  3  0  0  0  0  0  0
  161.1320  205.4100  151.7770 C   0  0  1  0  0  3  0  0  0  0  0  0
  160.9370  203.7600  149.0230 C   0  0  1  0  0  3  0  0  0  0  0  0
  161.4480  202.7490  149.9830 C   0  0  0  0  0  3  0  0  0  0  0  0
  160.7060  204.9180  149.5440 C   0  0  0  0  0  2  0  0  0  0  0  0
  160.7500  206.4180  152.8620 C   0  0  1  0  0  3  0  0  0  0  0  0
  160.6530  206.2630  155.1190 O   0  0  0  0  0  1  0  0  0  0  0  0
  161.5220  206.2060  154.0810 N   0  0  0  0  0  2  0  0  0  0  0  0
  160.9530  207.7740  152.3650 N   0  0  0  0  0  2  0  0  0  0  0  0
  161.4750  208.5920  153.4540 C   0  0  0  0  0  2  0  0  0  0  0  0
  161.2410  210.0760  153.1830 C   0  0  1  0  0  3  0  0  0  0  0  0
  159.8310  210.2540  152.6400 C   0  0  0  0  0  1  0  0  0  0  0  0
  159.7670  209.3920  155.8630 C   0  0  0  0  0  2  0  0  0  0  0  0
  159.2310  211.8150  155.2950 C   0  0  0  0  0  0  0  0  0  0  0  0
  158.9270  210.6210  156.1770 C   0  0  0  0  0  2  0  0  0  0  0  0
  161.5270  209.8270  155.9690 S   0  0  0  0  0  0  0  0  0  0  0  0
  160.3820  211.9510  154.6130 C   0  0  0  0  0  3  0  0  0  0  0  0
  161.4420  210.8840  154.4740 C   0  0  2  0  0  3  0  0  0  0  0  0
  156.9870  212.5520  155.4950 O   0  0  0  0  0  1  0  0  0  0  0  0
  158.3030  212.9890  155.3240 C   0  0  2  0  0  3  0  0  0  0  0  0
  158.4270  213.8080  154.0450 C   0  0  0  0  0  2  0  0  0  0  0  0
  157.7640  213.9000  151.7000 N   0  0  0  0  0  1  0  0  0  0  0  0
  157.4300  213.3370  152.9980 C   0  0  0  0  0  2  0  0  0  0  0  0
  160.0290  206.6130  147.1580 O   0  0  0  0  0  0  0  0  0  0  0  0
  162.3350  206.8130  147.4000 N   0  0  0  0  0  2  0  0  0  0  0  0
  161.1560  206.0480  147.1430 C   0  0  0  0  0  0  0  0  0  0  0  0
  162.2790  208.2140  147.7830 C   0  0  0  0  0  2  0  0  0  0  0  0
  162.0230  208.3360  149.2730 C   0  0  1  0  0  3  0  0  0  0  0  0
  163.0860  207.7500  149.9680 O   0  0  0  0  0  1  0  0  0  0  0  0
  161.9220  209.8090  149.6290 C   0  0  0  0  0  2  0  0  0  0  0  0
  162.3470  210.6760  148.4620 C   0  0  0  0  0  2  0  0  0  0  0  0
  161.6100  212.0030  148.5320 C   0  0  1  0  0  3  0  0  0  0  0  0
  161.1730  212.2200  149.8420 O   0  0  0  0  0  1  0  0  0  0  0  0
  162.5050  213.1500  148.0800 C   0  0  2  0  0  3  0  0  0  0  0  0
  161.8560  214.3650  148.3180 O   0  0  0  0  0  1  0  0  0  0  0  0
  162.7840  213.0160  146.6560 N   0  0  0  0  0  2  0  0  0  0  0  0
  161.7930  213.7930  145.9270 C   0  0  0  0  0  2  0  0  0  0  0  0
  159.7460  213.4070  144.5200 C   0  0  1  0  0  3  0  0  0  0  0  0
  158.9540  213.3610  145.6690 O   0  0  0  0  0  1  0  0  0  0  0  0
  161.3990  212.1750  142.7040 C   0  0  0  0  0  2  0  0  0  0  0  0
  161.1750  212.9300  144.8410 C   0  0  1  0  0  3  0  0  0  0  0  0
  159.9810  212.6630  142.3830 C   0  0  0  0  0  2  0  0  0  0  0  0
  159.1770  212.5730  143.5360 O   0  0  0  0  0  0  0  0  0  0  0  0
  161.9760  213.0080  143.6810 O   0  0  0  0  0  0  0  0  0  0  0  0
  161.3590  204.2930  145.2940 C   0  0  1  0  0  3  0  0  0  0  0  0
  160.1340  202.0540  144.6660 N   0  0  0  0  0  0  0  0  0  0  0  0
  160.6740  203.0400  144.9420 C   0  0  0  0  0  0  0  0  0  0  0  0
  160.8850  205.4360  144.4460 C   0  0  0  0  0  0  0  0  0  0  0  0
  160.3010  206.3840  144.9490 O   0  0  0  0  0  0  0  0  0  0  0  0
  161.1920  205.4250  142.9860 C   0  0  0  0  0  2  0  0  0  0  0  0
  162.2050  206.5110  142.6580 C   0  0  0  0  0  2  0  0  0  0  0  0
  161.5750  208.6540  139.4990 C   0  0  0  0  0  0  0  0  0  0  0  0
  162.5540  205.9730  140.1620 C   0  0  0  0  0  2  0  0  0  0  0  0
  160.1140  208.6410  139.0770 C   0  0  0  0  0  1  0  0  0  0  0  0
  162.7370  205.6590  137.8030 O   0  0  0  0  0  1  0  0  0  0  0  0
  162.0780  206.9220  141.2290 C   0  0  0  0  0  0  0  0  0  0  0  0
  162.0830  206.4130  138.7770 C   0  0  2  0  0  3  0  0  0  0  0  0
  162.0690  210.0840  139.4330 C   0  0  0  0  0  1  0  0  0  0  0  0
  162.3770  207.8340  138.5780 N   0  0  0  0  0  2  0  0  0  0  0  0
  161.6950  208.1740  140.9260 C   0  0  0  0  0  3  0  0  0  0  0  0
  1 30  1  0  0  0  0
  1  2  2  0  0  0  0
  4  6  1  0  0  0  0
  5  3  1  0  0  0  0
  6  3  1  0  0  0  0
  6 10  1  1  0  0  0
  7  2  1  6  0  0  0
  7  9  1  0  0  0  0
  7  8  1  0  0  0  0
  8  5  2  0  0  0  0
  9  4  1  0  0  0  0
 10 13  1  6  0  0  0
 10 12  1  0  0  0  0
 12 11  1  0  0  0  0
 13 14  1  0  0  0  0
 15 16  1  1  0  0  0
 15 14  1  0  0  0  0
 17 20  1  0  0  0  0
 17 19  1  0  0  0  0
 18 24  1  0  0  0  0
 18 19  1  0  0  0  0
 21 18  2  0  0  0  0
 22 15  1  6  0  0  0
 22 21  1  0  0  0  0
 22 20  1  0  0  0  0
 24 23  1  6  0  0  0
 25 24  1  0  0  0  0
 26 27  1  0  0  0  0
 27 25  1  0  0  0  0
 29 31  1  0  0  0  0
 30 28  2  0  0  0  0
 30 29  1  0  0  0  0
 31 32  1  0  0  0  0
 32 34  1  0  0  0  0
 32 33  1  1  0  0  0
 35 36  1  0  0  0  0
 35 34  1  0  0  0  0
 36 37  1  1  0  0  0
 38 39  1  6  0  0  0
 38 36  1  0  0  0  0
 40 38  1  0  0  0  0
 41 40  1  0  0  0  0
 42 45  1  0  0  0  0
 42 43  1  1  0  0  0
 44 48  1  0  0  0  0
 45 41  1  1  0  0  0
 46 44  1  0  0  0  0
 46 47  1  0  0  0  0
 47 42  1  0  0  0  0
 48 45  1  0  0  0  0
 49 51  1  1  0  0  0
 49  1  1  0  0  0  0
 50 51  3  0  0  0  0
 52 53  2  0  0  0  0
 52 49  1  0  0  0  0
 54 52  1  0  0  0  0
 55 54  1  0  0  0  0
 56 64  1  0  0  0  0
 57 60  1  0  0  0  0
 58 56  1  0  0  0  0
 60 55  1  0  0  0  0
 61 59  1  6  0  0  0
 61 57  1  0  0  0  0
 62 56  1  0  0  0  0
 63 61  1  0  0  0  0
 63 56  1  0  0  0  0
 64 60  2  0  0  0  0
M  END
>  <MODEL>
2

>  <REMARK>
 VINA RESULT:      -3.5      3.929     12.716
  Name = 
  26 active torsions:
  status: ('A' for Active; 'I' for Inactive)
    1  A    between atoms: C_3  and  C_16
    2  A    between atoms: C_3  and  C_62
    3  A    between atoms: C_4  and  C_43
    4  A    between atoms: C_4  and  C_63
    5  A    between atoms: C_5  and  C_18
    6  A    between atoms: C_6  and  C_7
    7  A    between atoms: C_6  and  C_54
    8  A    between atoms: C_7  and  C_36
    9  A    between atoms: C_8  and  N_33
   10  A    between atoms: C_8  and  C_34
   11  A    between atoms: C_16  and  N_29
   12  A    between atoms: C_18  and  C_55
   13  A    between atoms: C_19  and  C_36
   14  A    between atoms: C_19  and  C_58
   15  A    between atoms: C_25  and  C_27
   16  A    between atoms: C_27  and  N_33
   17  A    between atoms: C_28  and  C_41
   18  A    between atoms: N_29  and  C_41
   19  A    between atoms: C_32  and  N_46
   20  A    between atoms: C_34  and  C_42
   21  A    between atoms: C_36  and  C_53
   22  A    between atoms: C_37  and  C_54
   23  A    between atoms: N_38  and  C_63
   24  A    between atoms: C_40  and  C_55
   25  A    between atoms: C_41  and  N_57
   26  A    between atoms: C_42  and  C_43
                            x       y       z     vdW  Elec       q    Type
                         _______ _______ _______ _____ _____    ______ ____

>  <TORSDO>
F 26

$$$$
=
 OpenBabel11042420543D

 64 67  0  0  1  0  0  0  0  0999 V2000
  161.3220  209.5120  150.0480 C   0  0  0  0  0  0  0  0  0  0  0  0
  160.7940  209.5920  151.2410 N   0  0  0  0  0  0  0  0  0  0  0  0
  159.4320  213.5490  153.0540 C   0  0  0  0  0  2  0  0  0  0  0  0
  158.4390  211.2410  153.4500 C   0  0  0  0  0  2  0  0  0  0  0  0
  160.2810  213.3080  151.8100 C   0  0  0  0  0  3  0  0  0  0  0  0
  158.1410  212.6870  153.1710 C   0  0  1  0  0  3  0  0  0  0  0  0
  160.4220  210.7910  151.9280 C   0  0  1  0  0  3  0  0  0  0  0  0
  160.7400  212.1200  151.3480 C   0  0  0  0  0  3  0  0  0  0  0  0
  159.4120  210.7890  152.7310 C   0  0  0  0  0  2  0  0  0  0  0  0
  157.1590  213.2410  154.2040 C   0  0  1  0  0  3  0  0  0  0  0  0
  154.9040  213.3070  154.3970 O   0  0  0  0  0  1  0  0  0  0  0  0
  155.9390  212.4430  154.2600 N   0  0  0  0  0  2  0  0  0  0  0  0
  157.7970  213.2810  155.5150 N   0  0  0  0  0  2  0  0  0  0  0  0
  158.6420  212.1010  155.6550 C   0  0  0  0  0  2  0  0  0  0  0  0
  160.0050  212.4700  156.2340 C   0  0  1  0  0  3  0  0  0  0  0  0
  159.8640  213.7670  157.0180 C   0  0  0  0  0  1  0  0  0  0  0  0
  162.5430  210.7690  155.5350 C   0  0  0  0  0  2  0  0  0  0  0  0
  160.6030  209.1510  155.8460 C   0  0  0  0  0  0  0  0  0  0  0  0
  162.0350  209.3420  155.3910 C   0  0  0  0  0  2  0  0  0  0  0  0
  162.3480  211.3030  157.2600 S   0  0  0  0  0  0  0  0  0  0  0  0
  159.9760  210.0000  156.6790 C   0  0  0  0  0  3  0  0  0  0  0  0
  160.5200  211.3350  157.1320 C   0  0  2  0  0  3  0  0  0  0  0  0
  160.1590  206.9180  156.5090 O   0  0  0  0  0  1  0  0  0  0  0  0
  159.9050  207.8680  155.5160 C   0  0  2  0  0  3  0  0  0  0  0  0
  160.3530  207.3440  154.1570 C   0  0  0  0  0  2  0  0  0  0  0  0
  161.0190  205.0700  153.5790 N   0  0  0  0  0  1  0  0  0  0  0  0
  161.4120  206.2640  154.3100 C   0  0  0  0  0  2  0  0  0  0  0  0
  162.9900  211.0560  149.3690 O   0  0  0  0  0  0  0  0  0  0  0  0
  160.8540  211.4940  148.5550 N   0  0  0  0  0  2  0  0  0  0  0  0
  161.7830  210.6970  149.2910 C   0  0  0  0  0  0  0  0  0  0  0  0
  161.2690  212.6630  147.7970 C   0  0  0  0  0  2  0  0  0  0  0  0
  160.1130  213.1820  146.9640 C   0  0  1  0  0  3  0  0  0  0  0  0
  159.4550  214.1900  147.6760 O   0  0  0  0  0  1  0  0  0  0  0  0
  160.6630  213.7420  145.6640 C   0  0  0  0  0  2  0  0  0  0  0  0
  160.4530  212.7660  144.5240 C   0  0  0  0  0  2  0  0  0  0  0  0
  161.3400  213.1640  143.3570 C   0  0  1  0  0  3  0  0  0  0  0  0
  162.6660  212.8370  143.6530 O   0  0  0  0  0  1  0  0  0  0  0  0
  160.9010  212.4660  142.0750 C   0  0  2  0  0  3  0  0  0  0  0  0
  159.8160  211.6280  142.3530 O   0  0  0  0  0  1  0  0  0  0  0  0
  162.0070  211.6750  141.5500 N   0  0  0  0  0  2  0  0  0  0  0  0
  162.3400  212.1880  140.2290 C   0  0  0  0  0  2  0  0  0  0  0  0
  162.7330  211.0870  138.0030 C   0  0  1  0  0  3  0  0  0  0  0  0
  163.0510  212.3230  137.4380 O   0  0  0  0  0  1  0  0  0  0  0  0
  160.8740  209.2120  138.7610 C   0  0  0  0  0  2  0  0  0  0  0  0
  161.7460  211.2760  139.1700 C   0  0  1  0  0  3  0  0  0  0  0  0
  161.8670  209.0200  137.6090 C   0  0  0  0  0  2  0  0  0  0  0  0
  162.1500  210.2660  137.0160 O   0  0  0  0  0  0  0  0  0  0  0  0
  161.4530  210.0240  139.7550 O   0  0  0  0  0  0  0  0  0  0  0  0
  161.4430  208.1640  149.3920 C   0  0  1  0  0  3  0  0  0  0  0  0
  163.4430  208.0390  147.6920 N   0  0  0  0  0  0  0  0  0  0  0  0
  162.5620  208.0930  148.4400 C   0  0  0  0  0  0  0  0  0  0  0  0
  161.5190  207.0690  150.4140 C   0  0  0  0  0  0  0  0  0  0  0  0
  162.3250  207.1270  151.3300 O   0  0  0  0  0  0  0  0  0  0  0  0
  160.5520  205.9350  150.3280 C   0  0  0  0  0  2  0  0  0  0  0  0
  161.3030  204.6170  150.2120 C   0  0  0  0  0  2  0  0  0  0  0  0
  161.6310  204.5350  146.3580 C   0  0  0  0  0  0  0  0  0  0  0  0
  161.0740  202.6650  148.5450 C   0  0  0  0  0  2  0  0  0  0  0  0
  160.3600  204.9960  145.6630 C   0  0  0  0  0  1  0  0  0  0  0  0
  160.8400  201.0210  146.8300 O   0  0  0  0  0  1  0  0  0  0  0  0
  161.2840  204.1340  148.8010 C   0  0  0  0  0  0  0  0  0  0  0  0
  160.7870  202.3940  147.0700 C   0  0  2  0  0  3  0  0  0  0  0  0
  162.8070  205.2020  145.6760 C   0  0  0  0  0  1  0  0  0  0  0  0
  161.7780  203.0770  146.2340 N   0  0  0  0  0  2  0  0  0  0  0  0
  161.6070  204.9750  147.8030 C   0  0  0  0  0  3  0  0  0  0  0  0
  1  2  2  0  0  0  0
  3  6  1  0  0  0  0
  5  3  1  0  0  0  0
  6  4  1  0  0  0  0
  6 10  1  1  0  0  0
  7  2  1  6  0  0  0
  7  9  1  0  0  0  0
  8  5  2  0  0  0  0
  8  7  1  0  0  0  0
  9  4  1  0  0  0  0
 10 12  1  1  0  0  0
 10 13  1  0  0  0  0
 12 11  1  0  0  0  0
 13 14  1  0  0  0  0
 14 15  1  0  0  0  0
 15 16  1  1  0  0  0
 17 20  1  0  0  0  0
 18 21  2  0  0  0  0
 19 17  1  0  0  0  0
 19 18  1  0  0  0  0
 21 22  1  0  0  0  0
 22 15  1  6  0  0  0
 22 20  1  0  0  0  0
 24 18  1  0  0  0  0
 24 23  1  1  0  0  0
 25 27  1  0  0  0  0
 25 24  1  0  0  0  0
 26 27  1  0  0  0  0
 29 30  1  0  0  0  0
 30 28  2  0  0  0  0
 30  1  1  0  0  0  0
 31 29  1  0  0  0  0
 32 33  1  1  0  0  0
 32 31  1  0  0  0  0
 34 32  1  0  0  0  0
 35 34  1  0  0  0  0
 36 37  1  1  0  0  0
 36 35  1  0  0  0  0
 38 39  1  1  0  0  0
 38 36  1  0  0  0  0
 40 38  1  0  0  0  0
 41 40  1  0  0  0  0
 42 43  1  6  0  0  0
 42 45  1  0  0  0  0
 44 48  1  0  0  0  0
 45 48  1  0  0  0  0
 45 41  1  1  0  0  0
 46 44  1  0  0  0  0
 47 46  1  0  0  0  0
 47 42  1  0  0  0  0
 49 51  1  1  0  0  0
 49  1  1  0  0  0  0
 49 52  1  0  0  0  0
 50 51  3  0  0  0  0
 52 53  2  0  0  0  0
 54 52  1  0  0  0  0
 55 54  1  0  0  0  0
 56 64  1  0  0  0  0
 57 60  1  0  0  0  0
 58 56  1  0  0  0  0
 60 55  1  0  0  0  0
 61 59  1  1  0  0  0
 61 57  1  0  0  0  0
 62 56  1  0  0  0  0
 63 56  1  0  0  0  0
 63 61  1  0  0  0  0
 64 60  2  0  0  0  0
M  END
>  <MODEL>
3

>  <REMARK>
 VINA RESULT:      -3.3      3.852     11.792
  Name = 
  26 active torsions:
  status: ('A' for Active; 'I' for Inactive)
    1  A    between atoms: C_3  and  C_16
    2  A    between atoms: C_3  and  C_62
    3  A    between atoms: C_4  and  C_43
    4  A    between atoms: C_4  and  C_63
    5  A    between atoms: C_5  and  C_18
    6  A    between atoms: C_6  and  C_7
    7  A    between atoms: C_6  and  C_54
    8  A    between atoms: C_7  and  C_36
    9  A    between atoms: C_8  and  N_33
   10  A    between atoms: C_8  and  C_34
   11  A    between atoms: C_16  and  N_29
   12  A    between atoms: C_18  and  C_55
   13  A    between atoms: C_19  and  C_36
   14  A    between atoms: C_19  and  C_58
   15  A    between atoms: C_25  and  C_27
   16  A    between atoms: C_27  and  N_33
   17  A    between atoms: C_28  and  C_41
   18  A    between atoms: N_29  and  C_41
   19  A    between atoms: C_32  and  N_46
   20  A    between atoms: C_34  and  C_42
   21  A    between atoms: C_36  and  C_53
   22  A    between atoms: C_37  and  C_54
   23  A    between atoms: N_38  and  C_63
   24  A    between atoms: C_40  and  C_55
   25  A    between atoms: C_41  and  N_57
   26  A    between atoms: C_42  and  C_43
                            x       y       z     vdW  Elec       q    Type
                         _______ _______ _______ _____ _____    ______ ____

>  <TORSDO>
F 26

$$$$
=
 OpenBabel11042420543D

 64 67  0  0  1  0  0  0  0  0999 V2000
  161.7510  208.8170  149.5950 C   0  0  0  0  0  0  0  0  0  0  0  0
  161.9270  208.2050  150.7360 N   0  0  0  0  0  0  0  0  0  0  0  0
  161.9260  210.5170  154.6660 C   0  0  0  0  0  2  0  0  0  0  0  0
  160.1740  208.8680  153.8400 C   0  0  0  0  0  2  0  0  0  0  0  0
  162.7030  210.8050  153.3870 C   0  0  0  0  0  3  0  0  0  0  0  0
  160.4110  210.2040  154.4840 C   0  0  1  0  0  3  0  0  0  0  0  0
  161.9580  208.8110  152.0310 C   0  0  1  0  0  3  0  0  0  0  0  0
  162.7470  210.0470  152.2650 C   0  0  0  0  0  3  0  0  0  0  0  0
  160.9680  208.6510  152.8430 C   0  0  0  0  0  2  0  0  0  0  0  0
  159.6290  210.3150  155.7920 C   0  0  1  0  0  3  0  0  0  0  0  0
  160.3930  211.9990  157.0990 O   0  0  0  0  0  1  0  0  0  0  0  0
  160.5030  210.6630  156.9070 N   0  0  0  0  0  2  0  0  0  0  0  0
  158.5720  211.3100  155.6500 N   0  0  0  0  0  2  0  0  0  0  0  0
  157.3230  210.6190  155.3500 C   0  0  0  0  0  2  0  0  0  0  0  0
  156.1470  211.5920  155.3500 C   0  0  1  0  0  3  0  0  0  0  0  0
  155.3590  211.4020  156.6380 C   0  0  0  0  0  1  0  0  0  0  0  0
  154.3530  213.9470  154.3210 C   0  0  0  0  0  2  0  0  0  0  0  0
  156.4200  213.8590  152.8380 C   0  0  0  0  0  0  0  0  0  0  0  0
  155.0390  214.4450  153.0580 C   0  0  0  0  0  2  0  0  0  0  0  0
  155.4190  214.2780  155.7530 S   0  0  0  0  0  0  0  0  0  0  0  0
  157.1530  213.3120  153.8230 C   0  0  0  0  0  3  0  0  0  0  0  0
  156.6580  213.0350  155.2240 C   0  0  2  0  0  3  0  0  0  0  0  0
  156.1470  213.9490  150.4840 O   0  0  0  0  0  1  0  0  0  0  0  0
  157.0870  214.0620  151.5120 C   0  0  2  0  0  3  0  0  0  0  0  0
  158.2110  213.0530  151.3140 C   0  0  0  0  0  2  0  0  0  0  0  0
  160.2520  214.1610  150.5690 N   0  0  0  0  0  1  0  0  0  0  0  0
  159.5500  213.6410  151.7310 C   0  0  0  0  0  2  0  0  0  0  0  0
  161.0440  210.9780  150.2690 O   0  0  0  0  0  0  0  0  0  0  0  0
  162.4050  210.9330  148.3820 N   0  0  0  0  0  2  0  0  0  0  0  0
  161.7320  210.2910  149.4670 C   0  0  0  0  0  0  0  0  0  0  0  0
  162.4120  212.3790  148.2240 C   0  0  0  0  0  2  0  0  0  0  0  0
  161.5270  212.7790  147.0600 C   0  0  1  0  0  3  0  0  0  0  0  0
  160.5290  213.6430  147.5220 O   0  0  0  0  0  1  0  0  0  0  0  0
  162.3810  213.4850  146.0210 C   0  0  0  0  0  2  0  0  0  0  0  0
  161.5200  214.0460  144.9070 C   0  0  0  0  0  2  0  0  0  0  0  0
  161.9850  213.4720  143.5800 C   0  0  1  0  0  3  0  0  0  0  0  0
  163.1420  212.7140  143.7840 O   0  0  0  0  0  1  0  0  0  0  0  0
  160.8990  212.6100  142.9480 C   0  0  2  0  0  3  0  0  0  0  0  0
  160.2330  211.8960  143.9490 O   0  0  0  0  0  1  0  0  0  0  0  0
  161.5060  211.6780  142.0050 N   0  0  0  0  0  2  0  0  0  0  0  0
  160.5220  211.3720  140.9770 C   0  0  0  0  0  2  0  0  0  0  0  0
  161.3110  209.7890  139.1900 C   0  0  1  0  0  3  0  0  0  0  0  0
  162.0060  209.0440  140.1440 O   0  0  0  0  0  1  0  0  0  0  0  0
  161.1720  211.9100  137.4490 C   0  0  0  0  0  2  0  0  0  0  0  0
  161.2180  211.2620  139.6320 C   0  0  1  0  0  3  0  0  0  0  0  0
  161.2500  210.4430  137.0110 C   0  0  0  0  0  2  0  0  0  0  0  0
  161.9900  209.7060  137.9570 O   0  0  0  0  0  0  0  0  0  0  0  0
  160.4880  212.0020  138.6760 O   0  0  0  0  0  0  0  0  0  0  0  0
  161.5250  207.9980  148.3540 C   0  0  1  0  0  3  0  0  0  0  0  0
  163.7690  207.1970  147.2440 N   0  0  0  0  0  0  0  0  0  0  0  0
  162.7800  207.5500  147.7320 C   0  0  0  0  0  0  0  0  0  0  0  0
  160.6040  206.8460  148.6240 C   0  0  0  0  0  0  0  0  0  0  0  0
  159.9350  206.8100  149.6470 O   0  0  0  0  0  0  0  0  0  0  0  0
  160.4700  205.7740  147.5950 C   0  0  0  0  0  2  0  0  0  0  0  0
  161.6250  204.7910  147.7130 C   0  0  0  0  0  2  0  0  0  0  0  0
  160.5450  201.2990  148.9790 C   0  0  0  0  0  0  0  0  0  0  0  0
  161.4650  203.8440  150.1050 C   0  0  0  0  0  2  0  0  0  0  0  0
  159.0320  201.1560  149.0520 C   0  0  0  0  0  1  0  0  0  0  0  0
  161.1810  202.7930  152.2290 O   0  0  0  0  0  1  0  0  0  0  0  0
  161.2570  203.6680  148.6240 C   0  0  0  0  0  0  0  0  0  0  0  0
  160.7700  202.7390  150.8980 C   0  0  2  0  0  3  0  0  0  0  0  0
  161.1040  200.0460  148.3400 C   0  0  0  0  0  1  0  0  0  0  0  0
  161.1070  201.4300  150.3320 N   0  0  0  0  0  2  0  0  0  0  0  0
  160.9010  202.4800  148.1070 C   0  0  0  0  0  3  0  0  0  0  0  0
  1  2  2  0  0  0  0
  4  6  1  0  0  0  0
  5  3  1  0  0  0  0
  6  3  1  0  0  0  0
  6 10  1  1  0  0  0
  7  2  1  6  0  0  0
  7  8  1  0  0  0  0
  7  9  1  0  0  0  0
  8  5  2  0  0  0  0
  9  4  1  0  0  0  0
 10 13  1  6  0  0  0
 10 12  1  0  0  0  0
 12 11  1  0  0  0  0
 14 13  1  0  0  0  0
 15 14  1  0  0  0  0
 15 16  1  1  0  0  0
 17 20  1  0  0  0  0
 18 19  1  0  0  0  0
 18 21  2  0  0  0  0
 19 17  1  0  0  0  0
 21 22  1  0  0  0  0
 22 15  1  6  0  0  0
 22 20  1  0  0  0  0
 24 23  1  6  0  0  0
 24 18  1  0  0  0  0
 25 24  1  0  0  0  0
 25 27  1  0  0  0  0
 26 27  1  0  0  0  0
 29 30  1  0  0  0  0
 30  1  1  0  0  0  0
 30 28  2  0  0  0  0
 31 29  1  0  0  0  0
 32 33  1  1  0  0  0
 32 31  1  0  0  0  0
 34 32  1  0  0  0  0
 35 34  1  0  0  0  0
 36 37  1  1  0  0  0
 36 35  1  0  0  0  0
 38 36  1  0  0  0  0
 38 39  1  1  0  0  0
 40 38  1  0  0  0  0
 41 40  1  0  0  0  0
 42 45  1  0  0  0  0
 42 43  1  1  0  0  0
 44 48  1  0  0  0  0
 45 41  1  1  0  0  0
 46 44  1  0  0  0  0
 46 47  1  0  0  0  0
 47 42  1  0  0  0  0
 48 45  1  0  0  0  0
 49 51  1  1  0  0  0
 49 52  1  0  0  0  0
 49  1  1  0  0  0  0
 50 51  3  0  0  0  0
 52 53  2  0  0  0  0
 54 55  1  0  0  0  0
 54 52  1  0  0  0  0
 55 60  1  0  0  0  0
 56 58  1  0  0  0  0
 56 63  1  0  0  0  0
 57 61  1  0  0  0  0
 60 57  1  0  0  0  0
 61 59  1  1  0  0  0
 62 56  1  0  0  0  0
 63 61  1  0  0  0  0
 64 60  2  0  0  0  0
 64 56  1  0  0  0  0
M  END
>  <MODEL>
4

>  <REMARK>
 VINA RESULT:      -2.6      3.743     11.031
  Name = 
  26 active torsions:
  status: ('A' for Active; 'I' for Inactive)
    1  A    between atoms: C_3  and  C_16
    2  A    between atoms: C_3  and  C_62
    3  A    between atoms: C_4  and  C_43
    4  A    between atoms: C_4  and  C_63
    5  A    between atoms: C_5  and  C_18
    6  A    between atoms: C_6  and  C_7
    7  A    between atoms: C_6  and  C_54
    8  A    between atoms: C_7  and  C_36
    9  A    between atoms: C_8  and  N_33
   10  A    between atoms: C_8  and  C_34
   11  A    between atoms: C_16  and  N_29
   12  A    between atoms: C_18  and  C_55
   13  A    between atoms: C_19  and  C_36
   14  A    between atoms: C_19  and  C_58
   15  A    between atoms: C_25  and  C_27
   16  A    between atoms: C_27  and  N_33
   17  A    between atoms: C_28  and  C_41
   18  A    between atoms: N_29  and  C_41
   19  A    between atoms: C_32  and  N_46
   20  A    between atoms: C_34  and  C_42
   21  A    between atoms: C_36  and  C_53
   22  A    between atoms: C_37  and  C_54
   23  A    between atoms: N_38  and  C_63
   24  A    between atoms: C_40  and  C_55
   25  A    between atoms: C_41  and  N_57
   26  A    between atoms: C_42  and  C_43
                            x       y       z     vdW  Elec       q    Type
                         _______ _______ _______ _____ _____    ______ ____

>  <TORSDO>
F 26

$$$$
=
 OpenBabel11042420543D

 64 67  0  0  1  0  0  0  0  0999 V2000
  161.3820  204.8130  146.7910 C   0  0  0  0  0  0  0  0  0  0  0  0
  161.2410  203.8490  147.6600 N   0  0  0  0  0  0  0  0  0  0  0  0
  160.8380  204.2750  152.1830 C   0  0  0  0  0  2  0  0  0  0  0  0
  160.6120  206.1040  150.4290 C   0  0  0  0  0  2  0  0  0  0  0  0
  161.5090  203.1640  151.3820 C   0  0  0  0  0  3  0  0  0  0  0  0
  161.2000  205.7290  151.7600 C   0  0  1  0  0  3  0  0  0  0  0  0
  160.9790  203.9960  149.0590 C   0  0  1  0  0  3  0  0  0  0  0  0
  161.5340  203.0240  150.0350 C   0  0  0  0  0  3  0  0  0  0  0  0
  160.7350  205.1630  149.5520 C   0  0  0  0  0  2  0  0  0  0  0  0
  160.8210  206.7600  152.8240 C   0  0  1  0  0  3  0  0  0  0  0  0
  160.1100  206.4220  154.9470 O   0  0  0  0  0  1  0  0  0  0  0  0
  161.2060  206.3130  154.1580 N   0  0  0  0  0  2  0  0  0  0  0  0
  161.4520  208.0380  152.5170 N   0  0  0  0  0  2  0  0  0  0  0  0
  161.5120  208.8300  153.7400 C   0  0  0  0  0  2  0  0  0  0  0  0
  161.3350  210.3150  153.4380 C   0  0  1  0  0  3  0  0  0  0  0  0
  159.9820  210.5170  152.7710 C   0  0  0  0  0  1  0  0  0  0  0  0
  160.0680  209.3710  156.1450 C   0  0  0  0  0  2  0  0  0  0  0  0
  159.1290  211.6800  155.6290 C   0  0  0  0  0  0  0  0  0  0  0  0
  159.0480  210.4420  156.5000 C   0  0  0  0  0  2  0  0  0  0  0  0
  161.7360  210.0870  156.2120 S   0  0  0  0  0  0  0  0  0  0  0  0
  160.2220  212.0100  154.9180 C   0  0  0  0  0  3  0  0  0  0  0  0
  161.4380  211.1310  154.7350 C   0  0  2  0  0  3  0  0  0  0  0  0
  157.6500  212.8910  157.0310 O   0  0  0  0  0  1  0  0  0  0  0  0
  158.0230  212.6870  155.7000 C   0  0  2  0  0  3  0  0  0  0  0  0
  156.8230  212.2310  154.8790 C   0  0  0  0  0  2  0  0  0  0  0  0
  155.4330  210.2960  155.3980 N   0  0  0  0  0  1  0  0  0  0  0  0
  155.7310  211.6670  155.7750 C   0  0  0  0  0  2  0  0  0  0  0  0
  160.4310  206.9560  147.1520 O   0  0  0  0  0  0  0  0  0  0  0  0
  162.7320  206.8340  147.4810 N   0  0  0  0  0  2  0  0  0  0  0  0
  161.4680  206.2400  147.1770 C   0  0  0  0  0  0  0  0  0  0  0  0
  162.8560  208.2310  147.8670 C   0  0  0  0  0  2  0  0  0  0  0  0
  161.9320  208.5330  149.0320 C   0  0  1  0  0  3  0  0  0  0  0  0
  162.6630  208.4650  150.2220 O   0  0  0  0  0  1  0  0  0  0  0  0
  161.3660  209.9300  148.8520 C   0  0  0  0  0  2  0  0  0  0  0  0
  162.4430  210.8940  148.3950 C   0  0  0  0  0  2  0  0  0  0  0  0
  161.8070  212.2350  148.0730 C   0  0  1  0  0  3  0  0  0  0  0  0
  162.7670  213.0770  147.5040 O   0  0  0  0  0  1  0  0  0  0  0  0
  160.6270  212.0670  147.1230 C   0  0  2  0  0  3  0  0  0  0  0  0
  161.0750  212.1870  145.8040 O   0  0  0  0  0  1  0  0  0  0  0  0
  159.6320  213.0960  147.3970 N   0  0  0  0  0  2  0  0  0  0  0  0
  159.9500  213.6990  148.6840 C   0  0  0  0  0  2  0  0  0  0  0  0
  159.1830  213.9010  151.0690 C   0  0  1  0  0  3  0  0  0  0  0  0
  160.2830  213.1550  151.4960 O   0  0  0  0  0  1  0  0  0  0  0  0
  156.6210  214.0320  150.0860 C   0  0  0  0  0  2  0  0  0  0  0  0
  158.7870  213.4910  149.6380 C   0  0  1  0  0  3  0  0  0  0  0  0
  157.0190  214.4530  151.5060 C   0  0  0  0  0  2  0  0  0  0  0  0
  158.1030  213.6670  151.9450 O   0  0  0  0  0  0  0  0  0  0  0  0
  157.6920  214.2700  149.2040 O   0  0  0  0  0  0  0  0  0  0  0  0
  161.4320  204.4760  145.3260 C   0  0  1  0  0  3  0  0  0  0  0  0
  160.2160  202.2140  144.7640 N   0  0  0  0  0  0  0  0  0  0  0  0
  160.7510  203.2110  145.0110 C   0  0  0  0  0  0  0  0  0  0  0  0
  160.9070  205.6060  144.4920 C   0  0  0  0  0  0  0  0  0  0  0  0
  160.4580  206.6130  145.0180 O   0  0  0  0  0  0  0  0  0  0  0  0
  160.9970  205.5050  143.0050 C   0  0  0  0  0  2  0  0  0  0  0  0
  162.3240  206.0720  142.5240 C   0  0  0  0  0  2  0  0  0  0  0  0
  161.6060  208.7540  139.8300 C   0  0  0  0  0  0  0  0  0  0  0  0
  162.5840  205.9950  139.9610 C   0  0  0  0  0  2  0  0  0  0  0  0
  160.1310  208.8200  139.4630 C   0  0  0  0  0  1  0  0  0  0  0  0
  162.6850  206.1140  137.5790 O   0  0  0  0  0  1  0  0  0  0  0  0
  162.1520  206.7350  141.1990 C   0  0  0  0  0  0  0  0  0  0  0  0
  162.0710  206.6800  138.6960 C   0  0  2  0  0  3  0  0  0  0  0  0
  162.1090  210.1710  140.0070 C   0  0  0  0  0  1  0  0  0  0  0  0
  162.3690  208.1140  138.7480 N   0  0  0  0  0  2  0  0  0  0  0  0
  161.7700  208.0220  141.1410 C   0  0  0  0  0  3  0  0  0  0  0  0
  1 30  1  0  0  0  0
  1  2  2  0  0  0  0
  4  6  1  0  0  0  0
  5  3  1  0  0  0  0
  6  3  1  0  0  0  0
  6 10  1  1  0  0  0
  7  2  1  6  0  0  0
  7  9  1  0  0  0  0
  7  8  1  0  0  0  0
  8  5  2  0  0  0  0
  9  4  1  0  0  0  0
 10 13  1  6  0  0  0
 10 12  1  0  0  0  0
 12 11  1  0  0  0  0
 13 14  1  0  0  0  0
 15 16  1  1  0  0  0
 15 14  1  0  0  0  0
 17 20  1  0  0  0  0
 17 19  1  0  0  0  0
 18 24  1  0  0  0  0
 18 19  1  0  0  0  0
 21 18  2  0  0  0  0
 22 15  1  6  0  0  0
 22 21  1  0  0  0  0
 22 20  1  0  0  0  0
 24 23  1  1  0  0  0
 25 24  1  0  0  0  0
 25 27  1  0  0  0  0
 26 27  1  0  0  0  0
 28 30  2  0  0  0  0
 29 31  1  0  0  0  0
 30 29  1  0  0  0  0
 31 32  1  0  0  0  0
 32 33  1  1  0  0  0
 34 32  1  0  0  0  0
 35 34  1  0  0  0  0
 36 37  1  6  0  0  0
 36 35  1  0  0  0  0
 38 39  1  6  0  0  0
 38 40  1  0  0  0  0
 38 36  1  0  0  0  0
 40 41  1  0  0  0  0
 42 43  1  1  0  0  0
 42 47  1  0  0  0  0
 44 46  1  0  0  0  0
 45 41  1  6  0  0  0
 45 42  1  0  0  0  0
 46 47  1  0  0  0  0
 48 45  1  0  0  0  0
 48 44  1  0  0  0  0
 49 51  1  1  0  0  0
 49  1  1  0  0  0  0
 50 51  3  0  0  0  0
 52 53  2  0  0  0  0
 52 49  1  0  0  0  0
 54 52  1  0  0  0  0
 55 54  1  0  0  0  0
 56 62  1  0  0  0  0
 56 64  1  0  0  0  0
 57 60  1  0  0  0  0
 58 56  1  0  0  0  0
 60 55  1  0  0  0  0
 61 59  1  6  0  0  0
 61 63  1  0  0  0  0
 61 57  1  0  0  0  0
 63 56  1  0  0  0  0
 64 60  2  0  0  0  0
M  END
>  <MODEL>
5

>  <REMARK>
 VINA RESULT:      -2.5      4.223     12.971
  Name = 
  26 active torsions:
  status: ('A' for Active; 'I' for Inactive)
    1  A    between atoms: C_3  and  C_16
    2  A    between atoms: C_3  and  C_62
    3  A    between atoms: C_4  and  C_43
    4  A    between atoms: C_4  and  C_63
    5  A    between atoms: C_5  and  C_18
    6  A    between atoms: C_6  and  C_7
    7  A    between atoms: C_6  and  C_54
    8  A    between atoms: C_7  and  C_36
    9  A    between atoms: C_8  and  N_33
   10  A    between atoms: C_8  and  C_34
   11  A    between atoms: C_16  and  N_29
   12  A    between atoms: C_18  and  C_55
   13  A    between atoms: C_19  and  C_36
   14  A    between atoms: C_19  and  C_58
   15  A    between atoms: C_25  and  C_27
   16  A    between atoms: C_27  and  N_33
   17  A    between atoms: C_28  and  C_41
   18  A    between atoms: N_29  and  C_41
   19  A    between atoms: C_32  and  N_46
   20  A    between atoms: C_34  and  C_42
   21  A    between atoms: C_36  and  C_53
   22  A    between atoms: C_37  and  C_54
   23  A    between atoms: N_38  and  C_63
   24  A    between atoms: C_40  and  C_55
   25  A    between atoms: C_41  and  N_57
   26  A    between atoms: C_42  and  C_43
                            x       y       z     vdW  Elec       q    Type
                         _______ _______ _______ _____ _____    ______ ____

>  <TORSDO>
F 26

$$$$
