=
 OpenBabel11042423103D

 29 32  0  0  1  0  0  0  0  0999 V2000
  160.8070  207.5240  153.4930 C   0  0  1  0  0  3  0  0  0  0  0  0
  161.5640  208.2080  149.9020 N   0  0  0  0  0  2  0  0  0  0  0  0
  161.1510  208.9860  153.2930 C   0  0  0  0  0  2  0  0  0  0  0  0
  160.6730  209.4510  151.9330 C   0  0  0  0  0  2  0  0  0  0  0  0
  161.0150  202.5580  151.3840 C   0  0  0  0  0  3  0  0  0  0  0  0
  160.8790  202.3940  149.9920 C   0  0  0  0  0  3  0  0  0  0  0  0
  161.0590  206.1790  147.6140 C   0  0  0  0  0  1  0  0  0  0  0  0
  160.8830  203.5090  149.1370 C   0  0  0  0  0  3  0  0  0  0  0  0
  162.6960  210.0180  150.8180 O   0  0  0  0  0  0  0  0  0  0  0  0
  161.2630  206.2210  151.3950 C   0  0  0  0  0  0  0  0  0  0  0  0
  161.1510  203.8400  151.9420 C   0  0  0  0  0  2  0  0  0  0  0  0
  161.6740  206.6900  152.6780 N   0  0  0  0  0  2  0  0  0  0  0  0
  161.2680  206.9620  150.1240 C   0  0  0  0  0  0  0  0  0  0  0  0
  161.7200  209.2260  150.8940 C   0  0  0  0  0  0  0  0  0  0  0  0
  161.0140  204.7760  149.7070 C   0  0  0  0  0  0  0  0  0  0  0  0
  161.1360  204.9390  151.0800 C   0  0  0  0  0  0  0  0  0  0  0  0
  161.0930  205.9490  149.0880 C   0  0  0  0  0  0  0  0  0  0  0  0
  160.9890  207.1620  154.9580 C   0  0  0  0  0  2  0  0  0  0  0  0
  161.9830  208.1190  156.9050 O   0  0  0  0  0  1  0  0  0  0  0  0
  161.1920  208.4160  155.7920 C   0  0  2  0  0  3  0  0  0  0  0  0
  159.8440  208.9500  156.2460 C   0  0  0  0  0  2  0  0  0  0  0  0
  157.3990  210.4790  155.5920 O   0  0  0  0  0  1  0  0  0  0  0  0
  159.7460  210.4410  156.1120 C   0  0  0  0  0  0  0  0  0  0  0  0
  158.8940  212.5020  155.7510 C   0  0  0  0  0  0  0  0  0  0  0  0
  160.8650  211.4260  156.2740 C   0  0  0  0  0  2  0  0  0  0  0  0
  158.6330  211.0810  155.8130 C   0  0  0  0  0  0  0  0  0  0  0  0
  160.1680  212.7320  156.0280 C   0  0  0  0  0  3  0  0  0  0  0  0
  157.4950  213.5310  154.1560 O   0  0  0  0  0  1  0  0  0  0  0  0
  157.8800  213.5620  155.4960 C   0  0  0  0  0  2  0  0  0  0  0  0
  1 18  1  1  0  0  0
  2 13  1  0  0  0  0
  2 14  1  0  0  0  0
  3  1  1  0  0  0  0
  4  3  1  0  0  0  0
  5 11  1  0  0  0  0
  6  5  2  0  0  0  0
  7 17  1  0  0  0  0
  8 15  2  0  0  0  0
  8  6  1  0  0  0  0
  9 14  2  0  0  0  0
 10 12  1  0  0  0  0
 12  1  1  0  0  0  0
 13 10  1  0  0  0  0
 14  4  1  0  0  0  0
 15 16  1  0  0  0  0
 16 10  2  0  0  0  0
 16 11  1  0  0  0  0
 17 15  1  0  0  0  0
 17 13  2  0  0  0  0
 18 20  1  0  0  0  0
 20 21  1  0  0  0  0
 20 19  1  1  0  0  0
 22 26  1  0  0  0  0
 23 21  1  0  0  0  0
 23 25  1  0  0  0  0
 24 26  1  0  0  0  0
 24 27  2  0  0  0  0
 26 23  2  0  0  0  0
 27 25  1  0  0  0  0
 28 29  1  0  0  0  0
 29 24  1  0  0  0  0
M  END
>  <MODEL>
1

>  <REMARK>
 VINA RESULT:      -8.9      0.000      0.000
  Name = 
  5 active torsions:
  status: ('A' for Active; 'I' for Inactive)
    1  A    between atoms: C_1  and  C_13
    2  A    between atoms: C_8  and  C_28
    3  A    between atoms: C_9  and  C_15
    4  A    between atoms: C_13  and  C_18
    5  A    between atoms: C_18  and  C_28
                            x       y       z     vdW  Elec       q    Type
                         _______ _______ _______ _____ _____    ______ ____

>  <TORSDO>
F 5

$$$$
=
 OpenBabel11042423103D

 29 32  0  0  1  0  0  0  0  0999 V2000
  160.7800  205.7280  150.7100 C   0  0  1  0  0  3  0  0  0  0  0  0
  161.9030  206.3420  147.2020 N   0  0  0  0  0  2  0  0  0  0  0  0
  161.2040  207.1720  150.5340 C   0  0  0  0  0  2  0  0  0  0  0  0
  160.8780  207.6430  149.1310 C   0  0  0  0  0  2  0  0  0  0  0  0
  160.9700  200.7360  148.6610 C   0  0  0  0  0  3  0  0  0  0  0  0
  160.9600  200.5640  147.2630 C   0  0  0  0  0  3  0  0  0  0  0  0
  161.5290  204.3120  144.8900 C   0  0  0  0  0  1  0  0  0  0  0  0
  161.0940  201.6680  146.4060 C   0  0  0  0  0  3  0  0  0  0  0  0
  163.0200  208.1110  148.2110 O   0  0  0  0  0  0  0  0  0  0  0  0
  161.3750  204.3850  148.6730 C   0  0  0  0  0  0  0  0  0  0  0  0
  161.1080  202.0160  149.2210 C   0  0  0  0  0  2  0  0  0  0  0  0
  161.6820  204.8500  149.9860 N   0  0  0  0  0  2  0  0  0  0  0  0
  161.5330  205.1120  147.4040 C   0  0  0  0  0  0  0  0  0  0  0  0
  162.0080  207.3620  148.1980 C   0  0  0  0  0  0  0  0  0  0  0  0
  161.2250  202.9350  146.9780 C   0  0  0  0  0  0  0  0  0  0  0  0
  161.2230  203.1060  148.3550 C   0  0  0  0  0  0  0  0  0  0  0  0
  161.4130  204.0970  146.3610 C   0  0  0  0  0  0  0  0  0  0  0  0
  160.8060  205.3740  152.1870 C   0  0  0  0  0  2  0  0  0  0  0  0
  162.7920  205.8790  153.4090 O   0  0  0  0  0  1  0  0  0  0  0  0
  161.5820  206.4200  152.9690 C   0  0  2  0  0  3  0  0  0  0  0  0
  160.7600  206.8790  154.1620 C   0  0  0  0  0  2  0  0  0  0  0  0
  161.8710  207.9350  156.6910 O   0  0  0  0  0  1  0  0  0  0  0  0
  160.9860  208.3250  154.4900 C   0  0  0  0  0  0  0  0  0  0  0  0
  161.5530  210.1960  155.6230 C   0  0  0  0  0  0  0  0  0  0  0  0
  160.6830  209.4980  153.6060 C   0  0  0  0  0  3  0  0  0  0  0  0
  161.4800  208.7510  155.6360 C   0  0  2  0  0  3  0  0  0  0  0  0
  161.1150  210.6530  154.4600 C   0  0  0  0  0  3  0  0  0  0  0  0
  163.4840  210.8490  156.8060 O   0  0  0  0  0  1  0  0  0  0  0  0
  162.1070  211.0470  156.7110 C   0  0  0  0  0  2  0  0  0  0  0  0
  1 18  1  1  0  0  0
  2 13  1  0  0  0  0
  2 14  1  0  0  0  0
  3  1  1  0  0  0  0
  4  3  1  0  0  0  0
  5 11  1  0  0  0  0
  6  5  2  0  0  0  0
  7 17  1  0  0  0  0
  8 15  2  0  0  0  0
  8  6  1  0  0  0  0
 10 12  1  0  0  0  0
 12  1  1  0  0  0  0
 13 10  1  0  0  0  0
 14  9  2  0  0  0  0
 14  4  1  0  0  0  0
 15 16  1  0  0  0  0
 16 10  2  0  0  0  0
 16 11  1  0  0  0  0
 17 15  1  0  0  0  0
 17 13  2  0  0  0  0
 18 20  1  0  0  0  0
 20 19  1  1  0  0  0
 20 21  1  0  0  0  0
 21 23  1  0  0  0  0
 23 26  1  0  0  0  0
 24 26  1  0  0  0  0
 24 29  1  0  0  0  0
 25 27  1  0  0  0  0
 25 23  2  0  0  0  0
 26 22  1  6  0  0  0
 27 24  2  0  0  0  0
 29 28  1  0  0  0  0
M  END
>  <MODEL>
2

>  <REMARK>
 VINA RESULT:      -8.9      2.561      3.674
  Name = 
  5 active torsions:
  status: ('A' for Active; 'I' for Inactive)
    1  A    between atoms: C_1  and  C_13
    2  A    between atoms: C_8  and  C_28
    3  A    between atoms: C_9  and  C_15
    4  A    between atoms: C_13  and  C_18
    5  A    between atoms: C_18  and  C_28
                            x       y       z     vdW  Elec       q    Type
                         _______ _______ _______ _____ _____    ______ ____

>  <TORSDO>
F 5

$$$$
=
 OpenBabel11042423103D

 29 32  0  0  1  0  0  0  0  0999 V2000
  160.4770  206.0180  149.6190 C   0  0  1  0  0  3  0  0  0  0  0  0
  161.1680  204.9960  153.1420 N   0  0  0  0  0  0  0  0  0  0  0  0
  160.6930  204.5210  149.7040 C   0  0  0  0  0  2  0  0  0  0  0  0
  160.1750  203.9950  151.0270 C   0  0  0  0  0  2  0  0  0  0  0  0
  161.1100  210.7700  152.1020 C   0  0  0  0  0  3  0  0  0  0  0  0
  160.9870  210.8370  153.5040 C   0  0  0  0  0  3  0  0  0  0  0  0
  160.8370  206.8790  155.5820 C   0  0  0  0  0  1  0  0  0  0  0  0
  160.8940  209.6640  154.2710 C   0  0  0  0  0  3  0  0  0  0  0  0
  162.1410  203.1720  152.0830 O   0  0  0  0  0  0  0  0  0  0  0  0
  161.0410  207.1110  151.8080 C   0  0  0  0  0  0  0  0  0  0  0  0
  161.1350  209.5290  151.4470 C   0  0  0  0  0  3  0  0  0  0  0  0
  161.4110  206.7090  150.4910 N   0  0  0  0  0  2  0  0  0  0  0  0
  160.9810  206.2770  153.0180 C   0  0  0  0  0  0  0  0  0  0  0  0
  161.2370  204.0490  152.0740 C   0  0  0  0  0  0  0  0  0  0  0  0
  160.9160  208.4370  153.6040 C   0  0  0  0  0  0  0  0  0  0  0  0
  161.0250  208.3720  152.2220 C   0  0  0  0  0  0  0  0  0  0  0  0
  160.8930  207.2180  154.1310 C   0  0  0  0  0  0  0  0  0  0  0  0
  160.6900  206.4750  148.1850 C   0  0  0  0  0  2  0  0  0  0  0  0
  162.6970  207.7240  147.8600 O   0  0  0  0  0  1  0  0  0  0  0  0
  162.1660  206.4320  147.8290 C   0  0  2  0  0  3  0  0  0  0  0  0
  162.3390  205.8380  146.4410 C   0  0  0  0  0  2  0  0  0  0  0  0
  160.6770  204.7650  144.2430 O   0  0  0  0  0  1  0  0  0  0  0  0
  161.7990  204.4420  146.3450 C   0  0  0  0  0  0  0  0  0  0  0  0
  160.6960  202.6260  145.5770 C   0  0  0  0  0  0  0  0  0  0  0  0
  161.9910  203.3420  147.3450 C   0  0  0  0  0  2  0  0  0  0  0  0
  161.0550  204.0080  145.3470 C   0  0  0  0  0  0  0  0  0  0  0  0
  161.2340  202.2110  146.7120 C   0  0  0  0  0  3  0  0  0  0  0  0
  160.1380  200.4240  144.9490 O   0  0  0  0  0  1  0  0  0  0  0  0
  159.9110  201.7670  144.6490 C   0  0  0  0  0  2  0  0  0  0  0  0
  1 18  1  6  0  0  0
  1  3  1  0  0  0  0
  1 12  1  0  0  0  0
  3  4  1  0  0  0  0
  4 14  1  0  0  0  0
  5  6  1  0  0  0  0
  6  8  2  0  0  0  0
 10 16  2  0  0  0  0
 10 13  1  0  0  0  0
 11  5  2  0  0  0  0
 11 16  1  0  0  0  0
 12 10  1  0  0  0  0
 13  2  2  0  0  0  0
 13 17  1  0  0  0  0
 14  9  2  0  0  0  0
 14  2  1  0  0  0  0
 15 17  2  0  0  0  0
 15  8  1  0  0  0  0
 16 15  1  0  0  0  0
 17  7  1  0  0  0  0
 20 19  1  6  0  0  0
 20 18  1  0  0  0  0
 21 20  1  0  0  0  0
 22 26  1  0  0  0  0
 23 21  1  0  0  0  0
 23 25  1  0  0  0  0
 24 27  2  0  0  0  0
 26 24  1  0  0  0  0
 26 23  2  0  0  0  0
 27 25  1  0  0  0  0
 29 28  1  0  0  0  0
 29 24  1  0  0  0  0
M  END
>  <MODEL>
3

>  <REMARK>
 VINA RESULT:      -8.9      3.529      9.157
  Name = 
  5 active torsions:
  status: ('A' for Active; 'I' for Inactive)
    1  A    between atoms: C_1  and  C_13
    2  A    between atoms: C_8  and  C_28
    3  A    between atoms: C_9  and  C_15
    4  A    between atoms: C_13  and  C_18
    5  A    between atoms: C_18  and  C_28
                            x       y       z     vdW  Elec       q    Type
                         _______ _______ _______ _____ _____    ______ ____

>  <TORSDO>
F 5

$$$$
=
 OpenBabel11042423103D

 29 32  0  0  1  0  0  0  0  0999 V2000
  160.8190  208.2060  153.1860 C   0  0  1  0  0  3  0  0  0  0  0  0
  159.8510  209.4870  156.5570 N   0  0  0  0  0  0  0  0  0  0  0  0
  161.1970  207.2070  154.2610 C   0  0  0  0  0  2  0  0  0  0  0  0
  160.1890  207.2540  155.3910 C   0  0  0  0  0  2  0  0  0  0  0  0
  159.4060  213.3080  152.1270 C   0  0  0  0  0  3  0  0  0  0  0  0
  158.6050  214.0080  153.0510 C   0  0  0  0  0  3  0  0  0  0  0  0
  158.0810  211.9920  157.0090 C   0  0  0  0  0  1  0  0  0  0  0  0
  158.3350  213.4650  154.3180 C   0  0  0  0  0  3  0  0  0  0  0  0
  161.4890  207.9890  157.2410 O   0  0  0  0  0  0  0  0  0  0  0  0
  160.0630  210.3650  154.2210 C   0  0  0  0  0  0  0  0  0  0  0  0
  159.9420  212.0530  152.4540 C   0  0  0  0  0  3  0  0  0  0  0  0
  161.0870  209.5590  153.6420 N   0  0  0  0  0  2  0  0  0  0  0  0
  159.5510  210.3140  155.6000 C   0  0  0  0  0  0  0  0  0  0  0  0
  160.5800  208.2660  156.4150 C   0  0  0  0  0  0  0  0  0  0  0  0
  158.8710  212.2140  154.6270 C   0  0  0  0  0  0  0  0  0  0  0  0
  159.6490  211.5190  153.7110 C   0  0  0  0  0  0  0  0  0  0  0  0
  158.7850  211.5450  155.7710 C   0  0  0  0  0  0  0  0  0  0  0  0
  161.6300  207.9240  151.9320 C   0  0  0  0  0  2  0  0  0  0  0  0
  163.0130  205.9880  151.7510 O   0  0  0  0  0  1  0  0  0  0  0  0
  161.6910  206.4300  151.6650 C   0  0  2  0  0  3  0  0  0  0  0  0
  161.1400  206.1370  150.2790 C   0  0  0  0  0  2  0  0  0  0  0  0
  161.3090  204.7860  147.6540 O   0  0  0  0  0  1  0  0  0  0  0  0
  160.9680  204.6680  150.0310 C   0  0  0  0  0  0  0  0  0  0  0  0
  160.8180  202.6860  148.9580 C   0  0  0  0  0  0  0  0  0  0  0  0
  160.6690  203.6190  151.0600 C   0  0  0  0  0  2  0  0  0  0  0  0
  161.0460  204.1090  148.8400 C   0  0  0  0  0  0  0  0  0  0  0  0
  160.6140  202.3720  150.2280 C   0  0  0  0  0  3  0  0  0  0  0  0
  161.4540  200.5130  148.2990 O   0  0  0  0  0  1  0  0  0  0  0  0
  160.8810  201.7000  147.8440 C   0  0  0  0  0  2  0  0  0  0  0  0
  1 18  1  6  0  0  0
  1 12  1  0  0  0  0
  1  3  1  0  0  0  0
  3  4  1  0  0  0  0
  4 14  1  0  0  0  0
  5 11  2  0  0  0  0
  5  6  1  0  0  0  0
  6  8  2  0  0  0  0
  8 15  1  0  0  0  0
 10 13  1  0  0  0  0
 11 16  1  0  0  0  0
 12 10  1  0  0  0  0
 13 17  1  0  0  0  0
 13  2  2  0  0  0  0
 14  2  1  0  0  0  0
 14  9  2  0  0  0  0
 15 17  2  0  0  0  0
 16 10  2  0  0  0  0
 16 15  1  0  0  0  0
 17  7  1  0  0  0  0
 20 19  1  6  0  0  0
 20 18  1  0  0  0  0
 21 20  1  0  0  0  0
 22 26  1  0  0  0  0
 23 21  1  0  0  0  0
 23 25  1  0  0  0  0
 24 27  2  0  0  0  0
 26 24  1  0  0  0  0
 26 23  2  0  0  0  0
 27 25  1  0  0  0  0
 29 28  1  0  0  0  0
 29 24  1  0  0  0  0
M  END
>  <MODEL>
4

>  <REMARK>
 VINA RESULT:      -8.7      2.925      8.801
  Name = 
  5 active torsions:
  status: ('A' for Active; 'I' for Inactive)
    1  A    between atoms: C_1  and  C_13
    2  A    between atoms: C_8  and  C_28
    3  A    between atoms: C_9  and  C_15
    4  A    between atoms: C_13  and  C_18
    5  A    between atoms: C_18  and  C_28
                            x       y       z     vdW  Elec       q    Type
                         _______ _______ _______ _____ _____    ______ ____

>  <TORSDO>
F 5

$$$$
=
 OpenBabel11042423103D

 29 32  0  0  1  0  0  0  0  0999 V2000
  160.8370  206.4620  147.5580 C   0  0  1  0  0  3  0  0  0  0  0  0
  161.1450  203.6300  145.1440 N   0  0  0  0  0  2  0  0  0  0  0  0
  161.0030  206.9850  146.1450 C   0  0  0  0  0  2  0  0  0  0  0  0
  160.3420  206.0410  145.1610 C   0  0  0  0  0  2  0  0  0  0  0  0
  161.3460  202.1980  150.8300 C   0  0  0  0  0  3  0  0  0  0  0  0
  161.0860  200.9080  150.3280 C   0  0  0  0  0  3  0  0  0  0  0  0
  160.6240  200.6650  145.8850 C   0  0  0  0  0  1  0  0  0  0  0  0
  160.8860  200.7030  148.9530 C   0  0  0  0  0  3  0  0  0  0  0  0
  162.1690  205.2660  143.8520 O   0  0  0  0  0  0  0  0  0  0  0  0
  161.2090  203.9790  147.6230 C   0  0  0  0  0  0  0  0  0  0  0  0
  161.4040  203.3030  149.9660 C   0  0  0  0  0  3  0  0  0  0  0  0
  161.6970  205.3110  147.7700 N   0  0  0  0  0  2  0  0  0  0  0  0
  161.0060  203.2300  146.3730 C   0  0  0  0  0  0  0  0  0  0  0  0
  161.2950  204.9840  144.7130 C   0  0  0  0  0  0  0  0  0  0  0  0
  160.9410  201.8120  148.1060 C   0  0  0  0  0  0  0  0  0  0  0  0
  161.1850  203.0850  148.6030 C   0  0  2  0  0  3  0  0  0  0  0  0
  160.8320  201.8390  146.7820 C   0  0  0  0  0  0  0  0  0  0  0  0
  161.2040  207.5570  148.5440 C   0  0  0  0  0  2  0  0  0  0  0  0
  160.0210  206.2960  150.1890 O   0  0  0  0  0  1  0  0  0  0  0  0
  161.1960  207.0170  149.9640 C   0  0  2  0  0  3  0  0  0  0  0  0
  161.2890  208.1700  150.9490 C   0  0  0  0  0  2  0  0  0  0  0  0
  160.3720  209.8180  153.2260 O   0  0  0  0  0  1  0  0  0  0  0  0
  161.1690  207.7160  152.3740 C   0  0  0  0  0  0  0  0  0  0  0  0
  160.7750  207.7430  154.5980 C   0  0  0  0  0  0  0  0  0  0  0  0
  161.4990  206.3540  152.9060 C   0  0  0  0  0  3  0  0  0  0  0  0
  160.7590  208.4900  153.3600 C   0  0  2  0  0  3  0  0  0  0  0  0
  161.1810  206.5050  154.3650 C   0  0  0  0  0  3  0  0  0  0  0  0
  159.8450  207.1910  156.6930 O   0  0  0  0  0  1  0  0  0  0  0  0
  160.3280  208.2490  155.9240 C   0  0  0  0  0  2  0  0  0  0  0  0
  1 12  1  0  0  0  0
  1 18  1  1  0  0  0
  2 13  1  0  0  0  0
  3  1  1  0  0  0  0
  4  3  1  0  0  0  0
  6  5  1  0  0  0  0
  7 17  1  0  0  0  0
  8  6  2  0  0  0  0
  9 14  2  0  0  0  0
 10 12  1  0  0  0  0
 10 16  1  0  0  0  0
 11  5  2  0  0  0  0
 13 17  1  0  0  0  0
 13 10  2  0  0  0  0
 14  2  1  0  0  0  0
 14  4  1  0  0  0  0
 15 16  1  0  0  0  0
 15  8  1  0  0  0  0
 16 11  1  6  0  0  0
 17 15  2  0  0  0  0
 18 20  1  0  0  0  0
 20 19  1  1  0  0  0
 20 21  1  0  0  0  0
 21 23  1  0  0  0  0
 23 25  2  0  0  0  0
 23 26  1  0  0  0  0
 24 29  1  0  0  0  0
 25 27  1  0  0  0  0
 26 22  1  6  0  0  0
 26 24  1  0  0  0  0
 27 24  2  0  0  0  0
 29 28  1  0  0  0  0
M  END
>  <MODEL>
5

>  <REMARK>
 VINA RESULT:      -8.6      2.910      5.558
  Name = 
  5 active torsions:
  status: ('A' for Active; 'I' for Inactive)
    1  A    between atoms: C_1  and  C_13
    2  A    between atoms: C_8  and  C_28
    3  A    between atoms: C_9  and  C_15
    4  A    between atoms: C_13  and  C_18
    5  A    between atoms: C_18  and  C_28
                            x       y       z     vdW  Elec       q    Type
                         _______ _______ _______ _____ _____    ______ ____

>  <TORSDO>
F 5

$$$$
=
 OpenBabel11042423103D

 29 32  0  0  1  0  0  0  0  0999 V2000
  162.0120  206.6230  150.5580 C   0  0  1  0  0  3  0  0  0  0  0  0
  161.1070  203.0030  150.4250 N   0  0  0  0  0  2  0  0  0  0  0  0
  161.8380  206.0680  151.9570 C   0  0  0  0  0  2  0  0  0  0  0  0
  162.2770  204.6190  152.0000 C   0  0  0  0  0  2  0  0  0  0  0  0
  161.0570  205.8570  145.2990 C   0  0  0  0  0  3  0  0  0  0  0  0
  161.0790  204.5490  144.7770 C   0  0  0  0  0  3  0  0  0  0  0  0
  161.2060  201.2930  147.8420 C   0  0  0  0  0  1  0  0  0  0  0  0
  161.1540  203.4390  145.6350 C   0  0  0  0  0  3  0  0  0  0  0  0
  160.2690  203.4660  152.5410 O   0  0  0  0  0  0  0  0  0  0  0  0
  161.2620  204.9430  148.8490 C   0  0  0  0  0  0  0  0  0  0  0  0
  161.1170  206.0740  146.6850 C   0  0  0  0  0  2  0  0  0  0  0  0
  160.9980  206.0770  149.6730 N   0  0  0  0  0  2  0  0  0  0  0  0
  161.2620  203.5260  149.2450 C   0  0  0  0  0  0  0  0  0  0  0  0
  161.1430  203.7080  151.6680 C   0  0  0  0  0  0  0  0  0  0  0  0
  161.2180  203.6710  147.0100 C   0  0  0  0  0  0  0  0  0  0  0  0
  161.2090  204.9610  147.5230 C   0  0  0  0  0  0  0  0  0  0  0  0
  161.2420  202.7760  147.9920 C   0  0  0  0  0  0  0  0  0  0  0  0
  161.8870  208.1370  150.5990 C   0  0  0  0  0  2  0  0  0  0  0  0
  160.1690  208.5960  152.1900 O   0  0  0  0  0  1  0  0  0  0  0  0
  161.5530  208.6030  152.0060 C   0  0  2  0  0  3  0  0  0  0  0  0
  162.0950  210.0070  152.2200 C   0  0  0  0  0  2  0  0  0  0  0  0
  159.9700  212.0630  152.1920 O   0  0  0  0  0  1  0  0  0  0  0  0
  161.4970  210.6730  153.4230 C   0  0  0  0  0  0  0  0  0  0  0  0
  160.2180  212.0290  154.7000 C   0  0  0  0  0  0  0  0  0  0  0  0
  161.8710  210.4290  154.8550 C   0  0  0  0  0  2  0  0  0  0  0  0
  160.5530  211.5910  153.3630 C   0  0  0  0  0  0  0  0  0  0  0  0
  160.9500  211.3650  155.5810 C   0  0  0  0  0  3  0  0  0  0  0  0
  157.9140  212.3850  155.0510 O   0  0  0  0  0  1  0  0  0  0  0  0
  159.1590  213.0140  155.0530 C   0  0  0  0  0  2  0  0  0  0  0  0
  1 18  1  1  0  0  0
  1  3  1  0  0  0  0
  2 14  1  0  0  0  0
  3  4  1  0  0  0  0
  5 11  1  0  0  0  0
  6  5  2  0  0  0  0
  6  8  1  0  0  0  0
  7 17  1  0  0  0  0
  8 15  2  0  0  0  0
 10 13  1  0  0  0  0
 10 12  1  0  0  0  0
 11 16  1  0  0  0  0
 12  1  1  0  0  0  0
 13  2  1  0  0  0  0
 14  4  1  0  0  0  0
 14  9  2  0  0  0  0
 15 16  1  0  0  0  0
 15 17  1  0  0  0  0
 16 10  2  0  0  0  0
 17 13  2  0  0  0  0
 18 20  1  0  0  0  0
 20 19  1  6  0  0  0
 20 21  1  0  0  0  0
 21 23  1  0  0  0  0
 22 26  1  0  0  0  0
 23 25  1  0  0  0  0
 24 29  1  0  0  0  0
 24 27  2  0  0  0  0
 25 27  1  0  0  0  0
 26 23  2  0  0  0  0
 26 24  1  0  0  0  0
 28 29  1  0  0  0  0
M  END
>  <MODEL>
6

>  <REMARK>
 VINA RESULT:      -8.6      2.362      4.188
  Name = 
  5 active torsions:
  status: ('A' for Active; 'I' for Inactive)
    1  A    between atoms: C_1  and  C_13
    2  A    between atoms: C_8  and  C_28
    3  A    between atoms: C_9  and  C_15
    4  A    between atoms: C_13  and  C_18
    5  A    between atoms: C_18  and  C_28
                            x       y       z     vdW  Elec       q    Type
                         _______ _______ _______ _____ _____    ______ ____

>  <TORSDO>
F 5

$$$$
=
 OpenBabel11042423103D

 29 32  0  0  1  0  0  0  0  0999 V2000
  161.7080  207.8530  151.9730 C   0  0  1  0  0  3  0  0  0  0  0  0
  160.2170  209.1380  155.1460 N   0  0  0  0  0  0  0  0  0  0  0  0
  161.9520  206.8770  153.1060 C   0  0  0  0  0  2  0  0  0  0  0  0
  160.7870  206.9040  154.0740 C   0  0  0  0  0  2  0  0  0  0  0  0
  160.3210  212.8990  150.6430 C   0  0  0  0  0  3  0  0  0  0  0  0
  159.3730  213.5830  151.4290 C   0  0  0  0  0  3  0  0  0  0  0  0
  158.3280  211.5910  155.2960 C   0  0  0  0  0  1  0  0  0  0  0  0
  158.9340  213.0450  152.6500 C   0  0  0  0  0  3  0  0  0  0  0  0
  161.7780  207.6970  156.0850 O   0  0  0  0  0  0  0  0  0  0  0  0
  160.7460  209.9980  152.8550 C   0  0  0  0  0  0  0  0  0  0  0  0
  160.8390  211.6630  151.0650 C   0  0  0  0  0  3  0  0  0  0  0  0
  161.8670  209.2180  152.4440 N   0  0  0  0  0  2  0  0  0  0  0  0
  160.0380  209.9450  154.1430 C   0  0  0  0  0  0  0  0  0  0  0  0
  160.9930  207.9380  155.1300 C   0  0  0  0  0  0  0  0  0  0  0  0
  159.4550  211.8130  153.0530 C   0  0  0  0  0  0  0  0  0  0  0  0
  160.3790  211.1330  152.2730 C   0  0  0  0  0  0  0  0  0  0  0  0
  159.2190  211.1540  154.1820 C   0  0  0  0  0  0  0  0  0  0  0  0
  162.7040  207.5840  150.8570 C   0  0  0  0  0  2  0  0  0  0  0  0
  161.6330  208.6260  148.9970 O   0  0  0  0  0  1  0  0  0  0  0  0
  161.9800  207.3850  149.5370 C   0  0  2  0  0  3  0  0  0  0  0  0
  160.7270  206.5540  149.7620 C   0  0  0  0  0  2  0  0  0  0  0  0
  160.4300  204.0900  151.3690 O   0  0  0  0  0  1  0  0  0  0  0  0
  160.8760  205.1490  149.2570 C   0  0  0  0  0  0  0  0  0  0  0  0
  160.9600  202.8920  149.2170 C   0  0  0  0  0  0  0  0  0  0  0  0
  161.2110  204.7360  147.8560 C   0  0  0  0  0  3  0  0  0  0  0  0
  160.7390  204.0780  150.0140 C   0  0  1  0  0  3  0  0  0  0  0  0
  161.2170  203.2400  147.9650 C   0  0  0  0  0  3  0  0  0  0  0  0
  161.2160  200.6110  148.6780 O   0  0  0  0  0  1  0  0  0  0  0  0
  160.8390  201.4880  149.6950 C   0  0  0  0  0  2  0  0  0  0  0  0
  1 18  1  6  0  0  0
  1 12  1  0  0  0  0
  1  3  1  0  0  0  0
  3  4  1  0  0  0  0
  4 14  1  0  0  0  0
  5 11  2  0  0  0  0
  5  6  1  0  0  0  0
  6  8  2  0  0  0  0
  8 15  1  0  0  0  0
 10 13  1  0  0  0  0
 11 16  1  0  0  0  0
 12 10  1  0  0  0  0
 13 17  1  0  0  0  0
 13  2  2  0  0  0  0
 14  2  1  0  0  0  0
 14  9  2  0  0  0  0
 15 17  2  0  0  0  0
 16 10  2  0  0  0  0
 16 15  1  0  0  0  0
 17  7  1  0  0  0  0
 20 19  1  1  0  0  0
 20 21  1  0  0  0  0
 20 18  1  0  0  0  0
 23 21  1  0  0  0  0
 23 26  1  0  0  0  0
 24 29  1  0  0  0  0
 24 26  1  0  0  0  0
 25 27  1  0  0  0  0
 25 23  2  0  0  0  0
 26 22  1  1  0  0  0
 27 24  2  0  0  0  0
 28 29  1  0  0  0  0
M  END
>  <MODEL>
7

>  <REMARK>
 VINA RESULT:      -8.4      2.919      8.366
  Name = 
  5 active torsions:
  status: ('A' for Active; 'I' for Inactive)
    1  A    between atoms: C_1  and  C_13
    2  A    between atoms: C_8  and  C_28
    3  A    between atoms: C_9  and  C_15
    4  A    between atoms: C_13  and  C_18
    5  A    between atoms: C_18  and  C_28
                            x       y       z     vdW  Elec       q    Type
                         _______ _______ _______ _____ _____    ______ ____

>  <TORSDO>
F 5

$$$$
=
 OpenBabel11042423103D

 29 32  0  0  1  0  0  0  0  0999 V2000
  161.3150  206.1500  152.5120 C   0  0  1  0  0  3  0  0  0  0  0  0
  160.9430  209.3770  154.3530 N   0  0  0  0  0  2  0  0  0  0  0  0
  161.1880  205.8990  154.0010 C   0  0  0  0  0  2  0  0  0  0  0  0
  160.2810  206.9380  154.6280 C   0  0  0  0  0  2  0  0  0  0  0  0
  162.3320  209.8020  148.6680 C   0  0  0  0  0  3  0  0  0  0  0  0
  161.9050  211.1330  148.8500 C   0  0  0  0  0  3  0  0  0  0  0  0
  160.4560  212.1070  152.9690 C   0  0  0  0  0  1  0  0  0  0  0  0
  161.3950  211.5560  150.0890 C   0  0  0  0  0  3  0  0  0  0  0  0
  161.7320  208.0900  156.1180 O   0  0  0  0  0  0  0  0  0  0  0  0
  161.5720  208.6060  152.0550 C   0  0  0  0  0  0  0  0  0  0  0  0
  162.2490  208.8760  149.7200 C   0  0  0  0  0  2  0  0  0  0  0  0
  162.1450  207.3170  152.2700 N   0  0  0  0  0  2  0  0  0  0  0  0
  161.0610  209.5410  153.0690 C   0  0  0  0  0  0  0  0  0  0  0  0
  161.0580  208.1380  155.0560 C   0  0  0  0  0  0  0  0  0  0  0  0
  161.3140  210.6220  151.1230 C   0  0  0  0  0  0  0  0  0  0  0  0
  161.7230  209.3090  150.9400 C   0  0  0  0  0  0  0  0  0  0  0  0
  160.9160  210.8180  152.3750 C   0  0  0  0  0  0  0  0  0  0  0  0
  161.9440  204.9350  151.8510 C   0  0  0  0  0  2  0  0  0  0  0  0
  160.8220  202.8840  152.3290 O   0  0  0  0  0  1  0  0  0  0  0  0
  160.8710  203.9480  151.4250 C   0  0  2  0  0  3  0  0  0  0  0  0
  161.1830  203.4250  150.0320 C   0  0  0  0  0  2  0  0  0  0  0  0
  161.9730  203.1760  147.1940 O   0  0  0  0  0  1  0  0  0  0  0  0
  161.0250  204.4800  148.9780 C   0  0  0  0  0  0  0  0  0  0  0  0
  161.1140  205.5370  146.9830 C   0  0  0  0  0  0  0  0  0  0  0  0
  160.4500  205.8520  149.1680 C   0  0  0  0  0  2  0  0  0  0  0  0
  161.3970  204.3270  147.7220 C   0  0  0  0  0  0  0  0  0  0  0  0
  160.5530  206.4270  147.7860 C   0  0  0  0  0  3  0  0  0  0  0  0
  162.7060  205.8380  145.2690 O   0  0  0  0  0  1  0  0  0  0  0  0
  161.3380  205.7370  145.5250 C   0  0  0  0  0  2  0  0  0  0  0  0
  1 18  1  6  0  0  0
  1  3  1  0  0  0  0
  2 14  1  0  0  0  0
  3  4  1  0  0  0  0
  4 14  1  0  0  0  0
  5  6  2  0  0  0  0
  5 11  1  0  0  0  0
  6  8  1  0  0  0  0
  8 15  2  0  0  0  0
 10 12  1  0  0  0  0
 10 13  1  0  0  0  0
 11 16  1  0  0  0  0
 12  1  1  0  0  0  0
 13  2  1  0  0  0  0
 14  9  2  0  0  0  0
 15 17  1  0  0  0  0
 16 15  1  0  0  0  0
 16 10  2  0  0  0  0
 17  7  1  0  0  0  0
 17 13  2  0  0  0  0
 20 18  1  0  0  0  0
 20 19  1  1  0  0  0
 21 20  1  0  0  0  0
 22 26  1  0  0  0  0
 23 25  1  0  0  0  0
 23 21  1  0  0  0  0
 24 26  1  0  0  0  0
 24 27  2  0  0  0  0
 26 23  2  0  0  0  0
 27 25  1  0  0  0  0
 28 29  1  0  0  0  0
 29 24  1  0  0  0  0
M  END
>  <MODEL>
8

>  <REMARK>
 VINA RESULT:      -8.3      2.777      7.655
  Name = 
  5 active torsions:
  status: ('A' for Active; 'I' for Inactive)
    1  A    between atoms: C_1  and  C_13
    2  A    between atoms: C_8  and  C_28
    3  A    between atoms: C_9  and  C_15
    4  A    between atoms: C_13  and  C_18
    5  A    between atoms: C_18  and  C_28
                            x       y       z     vdW  Elec       q    Type
                         _______ _______ _______ _____ _____    ______ ____

>  <TORSDO>
F 5

$$$$
=
 OpenBabel11042423103D

 29 32  0  0  1  0  0  0  0  0999 V2000
  160.6170  207.9520  153.2580 C   0  0  1  0  0  3  0  0  0  0  0  0
  159.9890  209.5930  156.5520 N   0  0  0  0  0  0  0  0  0  0  0  0
  161.0050  207.0270  154.3930 C   0  0  0  0  0  2  0  0  0  0  0  0
  160.0890  207.2470  155.5790 C   0  0  0  0  0  2  0  0  0  0  0  0
  159.4750  213.0310  151.8250 C   0  0  0  0  0  3  0  0  0  0  0  0
  158.7940  213.8670  152.7320 C   0  0  0  0  0  3  0  0  0  0  0  0
  158.4300  212.2510  156.8870 C   0  0  0  0  0  1  0  0  0  0  0  0
  158.5820  213.4590  154.0590 C   0  0  0  0  0  3  0  0  0  0  0  0
  161.5690  208.0450  157.2610 O   0  0  0  0  0  0  0  0  0  0  0  0
  160.0860  210.2440  154.1360 C   0  0  0  0  0  0  0  0  0  0  0  0
  159.9480  211.7730  152.2310 C   0  0  0  0  0  3  0  0  0  0  0  0
  161.0080  209.3160  153.5670 N   0  0  0  0  0  2  0  0  0  0  0  0
  159.6760  210.3520  155.5440 C   0  0  0  0  0  0  0  0  0  0  0  0
  160.6220  208.3140  156.4760 C   0  0  0  0  0  0  0  0  0  0  0  0
  159.0540  212.2030  154.4460 C   0  0  0  0  0  0  0  0  0  0  0  0
  159.7150  211.3750  153.5500 C   0  0  0  0  0  0  0  0  0  0  0  0
  159.0080  211.6460  155.6520 C   0  0  0  0  0  0  0  0  0  0  0  0
  161.3130  207.5020  151.9840 C   0  0  0  0  0  2  0  0  0  0  0  0
  162.8660  205.7280  151.6170 O   0  0  0  0  0  1  0  0  0  0  0  0
  161.5560  206.0020  152.0140 C   0  0  2  0  0  3  0  0  0  0  0  0
  160.5790  205.3090  151.0790 C   0  0  0  0  0  2  0  0  0  0  0  0
  161.3420  203.3200  149.0280 O   0  0  0  0  0  1  0  0  0  0  0  0
  160.8670  205.5970  149.6350 C   0  0  0  0  0  0  0  0  0  0  0  0
  161.4270  205.2960  147.4670 C   0  0  0  0  0  0  0  0  0  0  0  0
  160.8330  206.9400  148.9700 C   0  0  0  0  0  2  0  0  0  0  0  0
  161.2100  204.6770  148.7550 C   0  0  0  0  0  0  0  0  0  0  0  0
  161.2010  206.5970  147.5560 C   0  0  0  0  0  3  0  0  0  0  0  0
  163.1350  204.7200  145.9470 O   0  0  0  0  0  1  0  0  0  0  0  0
  161.7710  204.5830  146.2070 C   0  0  0  0  0  2  0  0  0  0  0  0
  1 18  1  6  0  0  0
  1 12  1  0  0  0  0
  1  3  1  0  0  0  0
  3  4  1  0  0  0  0
  4 14  1  0  0  0  0
  5 11  2  0  0  0  0
  5  6  1  0  0  0  0
  6  8  2  0  0  0  0
  8 15  1  0  0  0  0
 10 13  1  0  0  0  0
 11 16  1  0  0  0  0
 12 10  1  0  0  0  0
 13 17  1  0  0  0  0
 13  2  2  0  0  0  0
 14  2  1  0  0  0  0
 14  9  2  0  0  0  0
 15 17  2  0  0  0  0
 16 10  2  0  0  0  0
 16 15  1  0  0  0  0
 17  7  1  0  0  0  0
 18 20  1  0  0  0  0
 20 19  1  6  0  0  0
 21 20  1  0  0  0  0
 23 21  1  0  0  0  0
 24 27  2  0  0  0  0
 24 26  1  0  0  0  0
 25 23  1  0  0  0  0
 26 22  1  0  0  0  0
 26 23  2  0  0  0  0
 27 25  1  0  0  0  0
 28 29  1  0  0  0  0
 29 24  1  0  0  0  0
M  END
>  <MODEL>
9

>  <REMARK>
 VINA RESULT:      -7.9      2.725      8.441
  Name = 
  5 active torsions:
  status: ('A' for Active; 'I' for Inactive)
    1  A    between atoms: C_1  and  C_13
    2  A    between atoms: C_8  and  C_28
    3  A    between atoms: C_9  and  C_15
    4  A    between atoms: C_13  and  C_18
    5  A    between atoms: C_18  and  C_28
                            x       y       z     vdW  Elec       q    Type
                         _______ _______ _______ _____ _____    ______ ____

>  <TORSDO>
F 5

$$$$
