=
 OpenBabel11052409523D

 56 59  0  0  1  0  0  0  0  0999 V2000
  161.4330  208.3960  150.4810 C   0  0  0  0  0  3  0  0  0  0  0  0
  162.0860  210.5130  149.4740 C   0  0  0  0  0  0  0  0  0  0  0  0
  161.0940  209.0610  151.6640 C   0  0  0  0  0  3  0  0  0  0  0  0
  161.7590  211.1560  150.6780 C   0  0  0  0  0  3  0  0  0  0  0  0
  160.9510  211.0920  152.9510 O   0  0  0  0  0  1  0  0  0  0  0  0
  161.2720  210.4380  151.7670 C   0  0  0  0  0  0  0  0  0  0  0  0
  161.9400  209.1070  149.3840 C   0  0  0  0  0  0  0  0  0  0  0  0
  162.6660  211.3060  148.3640 C   0  0  0  0  0  0  0  0  0  0  0  0
  163.9460  211.3980  148.2620 N   0  0  0  0  0  2  0  0  0  0  0  0
  161.8670  212.1480  147.5260 N   0  0  0  0  0  2  0  0  0  0  0  0
  159.8670  212.4960  144.9450 C   0  0  2  0  0  3  0  0  0  0  0  0
  160.7620  213.7120  145.1690 C   0  0  0  0  0  2  0  0  0  0  0  0
  160.4080  212.1160  147.4370 C   0  0  2  0  0  3  0  0  0  0  0  0
  159.9870  211.4850  146.0950 C   0  0  0  0  0  2  0  0  0  0  0  0
  159.8410  213.5360  147.5600 C   0  0  2  0  0  3  0  0  0  0  0  0
  160.3650  214.4530  146.4460 C   0  0  0  0  0  2  0  0  0  0  0  0
  160.1670  214.1330  148.9080 C   0  0  0  0  0  1  0  0  0  0  0  0
  160.1630  211.8680  143.7330 O   0  0  0  0  0  0  0  0  0  0  0  0
  159.4820  212.5870  142.7430 C   0  0  0  0  0  2  0  0  0  0  0  0
  159.5290  211.9000  141.5240 O   0  0  0  0  0  0  0  0  0  0  0  0
  160.8440  211.6230  141.3410 N   0  0  0  0  0  2  0  0  0  0  0  0
  161.0670  211.4480  139.9070 C   0  0  1  0  0  3  0  0  0  0  0  0
  159.0610  210.8310  138.8310 O   0  0  0  0  0  0  0  0  0  0  0  0
  160.1190  210.4450  139.2910 C   0  0  0  0  0  0  0  0  0  0  0  0
  160.4640  208.9850  139.1520 C   0  0  1  0  0  3  0  0  0  0  0  0
  160.4780  208.4860  137.7040 C   0  0  0  0  0  2  0  0  0  0  0  0
  161.6230  208.9340  137.0450 O   0  0  0  0  0  1  0  0  0  0  0  0
  161.6830  208.7090  139.7760 O   0  0  0  0  0  0  0  0  0  0  0  0
  162.9730  206.9530  140.4100 O   0  0  0  0  0  1  0  0  0  0  0  0
  161.8200  207.3230  139.7230 C   0  0  0  0  0  2  0  0  0  0  0  0
  161.1200  212.6670  139.1880 O   0  0  0  0  0  0  0  0  0  0  0  0
  162.3570  212.8140  138.5390 C   0  0  0  0  0  3  0  0  0  0  0  0
  163.4330  213.0880  139.5790 C   0  0  0  0  0  2  0  0  0  0  0  0
  163.3180  211.7180  138.9670 C   0  0  0  0  0  2  0  0  0  0  0  0
  162.2790  208.4120  148.1720 N   0  0  0  0  0  2  0  0  0  0  0  0
  162.1250  206.9780  147.9940 C   0  0  1  0  0  3  0  0  0  0  0  0
  160.0950  206.2760  149.0680 O   0  0  0  0  0  0  0  0  0  0  0  0
  159.9460  206.5970  146.7760 N   0  0  0  0  0  1  0  0  0  0  0  0
  160.6770  206.5880  147.9950 C   0  0  0  0  0  0  0  0  0  0  0  0
  162.8380  206.5180  146.7320 C   0  0  0  0  0  2  0  0  0  0  0  0
  163.1830  205.1040  146.8100 N   0  0  0  0  0  2  0  0  0  0  0  0
  162.6100  204.4420  145.6510 C   0  0  2  0  0  3  0  0  0  0  0  0
  162.3310  205.4690  144.5660 C   0  0  0  0  0  1  0  0  0  0  0  0
  161.4330  203.4800  147.4920 C   0  0  0  0  0  2  0  0  0  0  0  0
  161.4150  203.7020  146.0590 N   0  0  0  0  0  0  0  0  0  0  0  0
  160.6810  202.1980  147.6750 C   0  0  1  0  0  3  0  0  0  0  0  0
  160.6100  201.6690  146.2660 C   0  0  0  0  0  2  0  0  0  0  0  0
  161.4120  202.4840  145.4610 O   0  0  0  0  0  0  0  0  0  0  0  0
  161.4080  201.2350  148.6230 C   0  0  2  0  0  3  0  0  0  0  0  0
  161.5160  199.9650  148.0470 O   0  0  0  0  0  1  0  0  0  0  0  0
  160.6640  201.1290  149.9460 C   0  0  0  0  0  2  0  0  0  0  0  0
  162.0930  201.7660  151.7140 O   0  0  0  0  0  0  0  0  0  0  0  0
  161.1920  202.0960  150.9540 C   0  0  0  0  0  0  0  0  0  0  0  0
  160.6330  203.4760  151.0100 C   0  0  0  0  0  2  0  0  0  0  0  0
  161.2340  204.7820  152.9070 O   0  0  0  0  0  1  0  0  0  0  0  0
  161.6410  204.4240  151.6190 C   0  0  0  0  0  2  0  0  0  0  0  0
  1  3  1  0  0  0  0
  2  4  2  0  0  0  0
  3  6  2  0  0  0  0
  4  6  1  0  0  0  0
  6  5  1  0  0  0  0
  7  2  1  0  0  0  0
  7  1  2  0  0  0  0
  8  2  1  0  0  0  0
  9  8  2  0  0  0  0
 10  8  1  0  0  0  0
 11 18  1  6  0  0  0
 11 12  1  0  0  0  0
 11 14  1  0  0  0  0
 12 16  1  0  0  0  0
 13 10  1  6  0  0  0
 13 15  1  0  0  0  0
 14 13  1  0  0  0  0
 15 17  1  1  0  0  0
 16 15  1  0  0  0  0
 19 18  1  0  0  0  0
 20 19  1  0  0  0  0
 21 20  1  0  0  0  0
 22 31  1  6  0  0  0
 22 21  1  0  0  0  0
 23 24  2  0  0  0  0
 24 22  1  0  0  0  0
 25 26  1  6  0  0  0
 25 24  1  0  0  0  0
 25 28  1  0  0  0  0
 27 26  1  0  0  0  0
 30 28  1  0  0  0  0
 30 29  1  0  0  0  0
 32 34  1  0  0  0  0
 32 31  1  0  0  0  0
 32 33  1  0  0  0  0
 34 33  1  0  0  0  0
 35  7  1  0  0  0  0
 36 40  1  6  0  0  0
 36 39  1  0  0  0  0
 36 35  1  0  0  0  0
 38 39  1  0  0  0  0
 39 37  2  0  0  0  0
 40 41  1  0  0  0  0
 42 43  1  6  0  0  0
 42 45  1  0  0  0  0
 42 41  1  0  0  0  0
 44 46  1  0  0  0  0
 45 44  1  0  0  0  0
 46 49  1  1  0  0  0
 47 46  1  0  0  0  0
 48 45  1  0  0  0  0
 48 47  1  0  0  0  0
 49 50  1  6  0  0  0
 49 51  1  0  0  0  0
 51 53  1  0  0  0  0
 53 54  1  0  0  0  0
 53 52  2  0  0  0  0
 54 56  1  0  0  0  0
 56 55  1  0  0  0  0
M  END
>  <MODEL>
1

>  <REMARK>
 VINA RESULT:      -5.2      0.000      0.000
  Name = 
  26 active torsions:
  status: ('A' for Active; 'I' for Inactive)
    1  A    between atoms: C_1  and  C_8
    2  A    between atoms: O_3  and  C_15
    3  A    between atoms: O_3  and  C_44
    4  A    between atoms: N_4  and  C_25
    5  A    between atoms: C_10  and  C_14
    6  A    between atoms: C_10  and  C_42
    7  A    between atoms: C_12  and  C_18
    8  A    between atoms: C_12  and  N_30
    9  A    between atoms: C_12  and  C_33
   10  A    between atoms: N_13  and  C_28
   11  A    between atoms: C_15  and  N_43
   12  A    between atoms: C_15  and  C_56
   13  A    between atoms: C_18  and  N_29
   14  A    between atoms: C_22  and  O_38
   15  A    between atoms: C_23  and  O_37
   16  A    between atoms: C_23  and  O_38
   17  A    between atoms: C_27  and  C_52
   18  A    between atoms: C_28  and  N_29
   19  A    between atoms: N_30  and  C_48
   20  A    between atoms: C_31  and  O_51
   21  A    between atoms: C_34  and  C_35
   22  A    between atoms: C_35  and  C_39
   23  A    between atoms: O_37  and  N_43
   24  A    between atoms: C_39  and  C_42
   25  A    between atoms: O_51  and  C_52
   26  A    between atoms: C_52  and  C_56
                            x       y       z     vdW  Elec       q    Type
                         _______ _______ _______ _____ _____    ______ ____

>  <TORSDO>
F 26

$$$$
=
 OpenBabel11052409523D

 56 59  0  0  1  0  0  0  0  0999 V2000
  160.7270  206.9910  145.8430 C   0  0  0  0  0  3  0  0  0  0  0  0
  161.6130  204.9320  146.7900 C   0  0  0  0  0  0  0  0  0  0  0  0
  160.0200  206.2500  144.8900 C   0  0  0  0  0  3  0  0  0  0  0  0
  160.9120  204.2120  145.8110 C   0  0  0  0  0  3  0  0  0  0  0  0
  159.4360  204.1330  143.9040 O   0  0  0  0  0  1  0  0  0  0  0  0
  160.1260  204.8630  144.8640 C   0  0  0  0  0  0  0  0  0  0  0  0
  161.5350  206.3470  146.7900 C   0  0  0  0  0  0  0  0  0  0  0  0
  162.4930  204.2030  147.7340 C   0  0  0  0  0  0  0  0  0  0  0  0
  163.7200  203.9880  147.4090 N   0  0  0  0  0  2  0  0  0  0  0  0
  161.9850  203.5430  148.8980 N   0  0  0  0  0  2  0  0  0  0  0  0
  161.0580  204.4960  151.9010 C   0  0  2  0  0  3  0  0  0  0  0  0
  161.9050  203.2270  151.9180 C   0  0  0  0  0  2  0  0  0  0  0  0
  160.6530  203.7380  149.4710 C   0  0  2  0  0  3  0  0  0  0  0  0
  160.6880  204.9110  150.4690 C   0  0  0  0  0  2  0  0  0  0  0  0
  160.1880  202.4550  150.1710 C   0  0  2  0  0  3  0  0  0  0  0  0
  161.1390  202.0530  151.3080 C   0  0  0  0  0  2  0  0  0  0  0  0
  160.0600  201.3170  149.1870 C   0  0  0  0  0  1  0  0  0  0  0  0
  161.7160  205.5500  152.5410 O   0  0  0  0  0  0  0  0  0  0  0  0
  160.8440  206.0100  153.5350 C   0  0  0  0  0  2  0  0  0  0  0  0
  161.5320  206.8130  154.4520 O   0  0  0  0  0  0  0  0  0  0  0  0
  161.3650  208.0760  153.9890 N   0  0  0  0  0  2  0  0  0  0  0  0
  161.2360  208.9610  155.1450 C   0  0  1  0  0  3  0  0  0  0  0  0
  159.1050  208.5450  156.0640 O   0  0  0  0  0  0  0  0  0  0  0  0
  159.7990  209.3250  155.4400 C   0  0  0  0  0  0  0  0  0  0  0  0
  159.2080  210.6570  155.0590 C   0  0  1  0  0  3  0  0  0  0  0  0
  159.7260  211.2060  153.7270 C   0  0  0  0  0  2  0  0  0  0  0  0
  158.6810  211.3260  152.8100 O   0  0  0  0  0  1  0  0  0  0  0  0
  157.8130  210.5890  155.0520 O   0  0  0  0  0  0  0  0  0  0  0  0
  156.0280  211.2560  156.2840 O   0  0  0  0  0  1  0  0  0  0  0  0
  157.3970  211.4140  156.0960 C   0  0  0  0  0  2  0  0  0  0  0  0
  161.9330  208.5030  156.2900 O   0  0  0  0  0  0  0  0  0  0  0  0
  162.0280  209.5160  157.2590 C   0  0  0  0  0  3  0  0  0  0  0  0
  163.4460  210.0690  157.2610 C   0  0  0  0  0  2  0  0  0  0  0  0
  162.3400  210.8520  156.6060 C   0  0  0  0  0  2  0  0  0  0  0  0
  162.2510  207.1190  147.7680 N   0  0  0  0  0  2  0  0  0  0  0  0
  161.6730  208.2370  148.4940 C   0  0  1  0  0  3  0  0  0  0  0  0
  160.7710  208.2850  150.7200 O   0  0  0  0  0  0  0  0  0  0  0  0
  162.9320  207.4640  150.5420 N   0  0  0  0  0  1  0  0  0  0  0  0
  161.7510  208.0130  149.9750 C   0  0  0  0  0  0  0  0  0  0  0  0
  162.3360  209.5420  148.0810 C   0  0  0  0  0  2  0  0  0  0  0  0
  161.3810  210.6430  148.0940 N   0  0  0  0  0  2  0  0  0  0  0  0
  161.9760  211.7390  148.8370 C   0  0  2  0  0  3  0  0  0  0  0  0
  161.5720  211.6400  150.2990 C   0  0  0  0  0  1  0  0  0  0  0  0
  160.3380  212.8480  147.5030 C   0  0  0  0  0  2  0  0  0  0  0  0
  161.5870  213.0080  148.2210 N   0  0  0  0  0  0  0  0  0  0  0  0
  160.4220  213.8500  146.3920 C   0  0  1  0  0  3  0  0  0  0  0  0
  161.8780  214.2340  146.4230 C   0  0  0  0  0  2  0  0  0  0  0  0
  162.5290  213.3800  147.3180 O   0  0  0  0  0  0  0  0  0  0  0  0
  160.0060  213.2480  145.0420 C   0  0  2  0  0  3  0  0  0  0  0  0
  159.9010  211.8570  145.1350 O   0  0  0  0  0  1  0  0  0  0  0  0
  161.0200  213.6090  143.9660 C   0  0  0  0  0  2  0  0  0  0  0  0
  161.8180  211.9860  142.4490 O   0  0  0  0  0  0  0  0  0  0  0  0
  160.8940  212.7210  142.7710 C   0  0  0  0  0  0  0  0  0  0  0  0
  159.6240  212.7170  141.9910 C   0  0  0  0  0  2  0  0  0  0  0  0
  158.7450  211.7060  140.0240 O   0  0  0  0  0  1  0  0  0  0  0  0
  159.8910  212.2960  140.5630 C   0  0  0  0  0  2  0  0  0  0  0  0
  1  7  1  0  0  0  0
  2  7  2  0  0  0  0
  2  8  1  0  0  0  0
  3  1  2  0  0  0  0
  4  2  1  0  0  0  0
  5  6  1  0  0  0  0
  6  3  1  0  0  0  0
  6  4  2  0  0  0  0
  7 35  1  0  0  0  0
  8 10  1  0  0  0  0
  9  8  2  0  0  0  0
 11 12  1  0  0  0  0
 11 18  1  6  0  0  0
 13 10  1  1  0  0  0
 13 15  1  0  0  0  0
 13 14  1  0  0  0  0
 14 11  1  0  0  0  0
 15 17  1  6  0  0  0
 15 16  1  0  0  0  0
 16 12  1  0  0  0  0
 18 19  1  0  0  0  0
 19 20  1  0  0  0  0
 21 20  1  0  0  0  0
 22 21  1  6  0  0  0
 22 24  1  0  0  0  0
 22 31  1  0  0  0  0
 24 23  2  0  0  0  0
 25 26  1  6  0  0  0
 25 24  1  0  0  0  0
 27 26  1  0  0  0  0
 28 25  1  0  0  0  0
 28 30  1  0  0  0  0
 30 29  1  0  0  0  0
 31 32  1  0  0  0  0
 32 33  1  0  0  0  0
 34 32  1  0  0  0  0
 34 33  1  0  0  0  0
 35 36  1  0  0  0  0
 36 40  1  1  0  0  0
 36 39  1  0  0  0  0
 39 38  1  0  0  0  0
 39 37  2  0  0  0  0
 40 41  1  0  0  0  0
 41 42  1  0  0  0  0
 42 43  1  1  0  0  0
 44 45  1  0  0  0  0
 45 42  1  0  0  0  0
 46 49  1  6  0  0  0
 46 47  1  0  0  0  0
 46 44  1  0  0  0  0
 47 48  1  0  0  0  0
 48 45  1  0  0  0  0
 49 50  1  1  0  0  0
 51 49  1  0  0  0  0
 52 53  2  0  0  0  0
 53 51  1  0  0  0  0
 54 53  1  0  0  0  0
 55 56  1  0  0  0  0
 56 54  1  0  0  0  0
M  END
>  <MODEL>
2

>  <REMARK>
 VINA RESULT:      -4.0      2.798     12.081
  Name = 
  26 active torsions:
  status: ('A' for Active; 'I' for Inactive)
    1  A    between atoms: C_1  and  C_8
    2  A    between atoms: O_3  and  C_15
    3  A    between atoms: O_3  and  C_44
    4  A    between atoms: N_4  and  C_25
    5  A    between atoms: C_10  and  C_14
    6  A    between atoms: C_10  and  C_42
    7  A    between atoms: C_12  and  C_18
    8  A    between atoms: C_12  and  N_30
    9  A    between atoms: C_12  and  C_33
   10  A    between atoms: N_13  and  C_28
   11  A    between atoms: C_15  and  N_43
   12  A    between atoms: C_15  and  C_56
   13  A    between atoms: C_18  and  N_29
   14  A    between atoms: C_22  and  O_38
   15  A    between atoms: C_23  and  O_37
   16  A    between atoms: C_23  and  O_38
   17  A    between atoms: C_27  and  C_52
   18  A    between atoms: C_28  and  N_29
   19  A    between atoms: N_30  and  C_48
   20  A    between atoms: C_31  and  O_51
   21  A    between atoms: C_34  and  C_35
   22  A    between atoms: C_35  and  C_39
   23  A    between atoms: O_37  and  N_43
   24  A    between atoms: C_39  and  C_42
   25  A    between atoms: O_51  and  C_52
   26  A    between atoms: C_52  and  C_56
                            x       y       z     vdW  Elec       q    Type
                         _______ _______ _______ _____ _____    ______ ____

>  <TORSDO>
F 26

$$$$
=
 OpenBabel11052409523D

 56 59  0  0  1  0  0  0  0  0999 V2000
  161.3910  208.1340  150.2800 C   0  0  0  0  0  3  0  0  0  0  0  0
  162.1260  210.2880  149.4180 C   0  0  0  0  0  0  0  0  0  0  0  0
  161.1360  208.7170  151.5250 C   0  0  0  0  0  3  0  0  0  0  0  0
  161.8830  210.8460  150.6830 C   0  0  0  0  0  3  0  0  0  0  0  0
  161.1600  210.6390  152.9760 O   0  0  0  0  0  1  0  0  0  0  0  0
  161.3970  210.0680  151.7310 C   0  0  0  0  0  0  0  0  0  0  0  0
  161.8960  208.9040  149.2230 C   0  0  0  0  0  0  0  0  0  0  0  0
  162.7080  211.1370  148.3520 C   0  0  0  0  0  0  0  0  0  0  0  0
  163.9850  211.3020  148.3090 N   0  0  0  0  0  2  0  0  0  0  0  0
  161.9010  211.9530  147.4970 N   0  0  0  0  0  2  0  0  0  0  0  0
  159.9110  213.0140  145.1100 C   0  0  2  0  0  3  0  0  0  0  0  0
  160.6960  214.1430  145.7710 C   0  0  0  0  0  2  0  0  0  0  0  0
  160.4510  211.8430  147.3430 C   0  0  2  0  0  3  0  0  0  0  0  0
  160.1020  211.6810  145.8500 C   0  0  0  0  0  2  0  0  0  0  0  0
  159.7630  213.0870  147.9190 C   0  0  2  0  0  3  0  0  0  0  0  0
  160.2210  214.3680  147.2070 C   0  0  0  0  0  2  0  0  0  0  0  0
  160.0200  213.2090  149.4020 C   0  0  0  0  0  1  0  0  0  0  0  0
  160.2750  212.8640  143.7690 O   0  0  0  0  0  0  0  0  0  0  0  0
  159.1770  213.2940  143.0150 C   0  0  0  0  0  2  0  0  0  0  0  0
  158.9770  212.4440  141.9200 O   0  0  0  0  0  0  0  0  0  0  0  0
  160.2050  211.9330  141.6580 N   0  0  0  0  0  2  0  0  0  0  0  0
  160.4180  212.0060  140.2140 C   0  0  1  0  0  3  0  0  0  0  0  0
  159.4410  214.0980  139.7380 O   0  0  0  0  0  0  0  0  0  0  0  0
  159.4150  212.9020  139.5240 C   0  0  0  0  0  0  0  0  0  0  0  0
  158.4260  212.3800  138.5140 C   0  0  1  0  0  3  0  0  0  0  0  0
  158.5860  212.9870  137.1180 C   0  0  0  0  0  2  0  0  0  0  0  0
  157.8630  214.1770  137.0180 O   0  0  0  0  0  1  0  0  0  0  0  0
  158.4800  210.9860  138.4510 O   0  0  0  0  0  0  0  0  0  0  0  0
  156.3090  211.6450  138.3990 O   0  0  0  0  0  1  0  0  0  0  0  0
  157.1600  210.5580  138.5750 C   0  0  0  0  0  2  0  0  0  0  0  0
  161.7560  212.2980  139.8520 O   0  0  0  0  0  0  0  0  0  0  0  0
  161.8940  212.3700  138.4550 C   0  0  0  0  0  3  0  0  0  0  0  0
  162.7930  213.5470  138.1060 C   0  0  0  0  0  2  0  0  0  0  0  0
  163.3410  212.1470  138.0500 C   0  0  0  0  0  2  0  0  0  0  0  0
  162.1480  208.2940  147.9460 N   0  0  0  0  0  2  0  0  0  0  0  0
  162.0560  206.8650  147.7020 C   0  0  1  0  0  3  0  0  0  0  0  0
  160.1000  206.3690  146.4000 O   0  0  0  0  0  0  0  0  0  0  0  0
  159.8690  206.0810  148.6900 N   0  0  0  0  0  1  0  0  0  0  0  0
  160.6270  206.4370  147.5430 C   0  0  0  0  0  0  0  0  0  0  0  0
  162.9040  206.4730  146.5020 C   0  0  0  0  0  2  0  0  0  0  0  0
  163.3420  205.0860  146.5990 N   0  0  0  0  0  2  0  0  0  0  0  0
  162.6680  204.3320  145.5570 C   0  0  2  0  0  3  0  0  0  0  0  0
  162.3830  205.2440  144.3750 C   0  0  0  0  0  1  0  0  0  0  0  0
  161.6510  203.4260  147.5170 C   0  0  0  0  0  2  0  0  0  0  0  0
  161.4600  203.7190  146.1100 N   0  0  0  0  0  0  0  0  0  0  0  0
  160.7790  202.2330  147.7660 C   0  0  1  0  0  3  0  0  0  0  0  0
  160.4470  201.7870  146.3660 C   0  0  0  0  0  2  0  0  0  0  0  0
  161.2220  202.5410  145.4800 O   0  0  0  0  0  0  0  0  0  0  0  0
  161.5080  201.1450  148.5660 C   0  0  2  0  0  3  0  0  0  0  0  0
  161.5550  199.9490  147.8420 O   0  0  0  0  0  1  0  0  0  0  0  0
  160.8070  200.9050  149.8960 C   0  0  0  0  0  2  0  0  0  0  0  0
  159.5080  202.7280  150.6460 O   0  0  0  0  0  0  0  0  0  0  0  0
  160.6020  202.1790  150.6490 C   0  0  0  0  0  0  0  0  0  0  0  0
  161.7330  202.7620  151.4240 C   0  0  0  0  0  2  0  0  0  0  0  0
  161.9180  204.7560  152.7110 O   0  0  0  0  0  1  0  0  0  0  0  0
  161.6380  204.2710  151.4310 C   0  0  0  0  0  2  0  0  0  0  0  0
  1  3  1  0  0  0  0
  2  4  2  0  0  0  0
  3  6  2  0  0  0  0
  4  6  1  0  0  0  0
  6  5  1  0  0  0  0
  7  2  1  0  0  0  0
  7  1  2  0  0  0  0
  8  2  1  0  0  0  0
  9  8  2  0  0  0  0
 10  8  1  0  0  0  0
 11 18  1  6  0  0  0
 11 12  1  0  0  0  0
 11 14  1  0  0  0  0
 12 16  1  0  0  0  0
 13 10  1  6  0  0  0
 13 15  1  0  0  0  0
 14 13  1  0  0  0  0
 15 17  1  1  0  0  0
 16 15  1  0  0  0  0
 19 18  1  0  0  0  0
 20 19  1  0  0  0  0
 21 20  1  0  0  0  0
 22 24  1  1  0  0  0
 22 21  1  0  0  0  0
 24 23  2  0  0  0  0
 25 26  1  6  0  0  0
 25 24  1  0  0  0  0
 27 26  1  0  0  0  0
 28 25  1  0  0  0  0
 28 30  1  0  0  0  0
 29 30  1  0  0  0  0
 31 22  1  0  0  0  0
 32 31  1  0  0  0  0
 33 32  1  0  0  0  0
 34 33  1  0  0  0  0
 34 32  1  0  0  0  0
 35  7  1  0  0  0  0
 36 40  1  6  0  0  0
 36 35  1  0  0  0  0
 37 39  2  0  0  0  0
 39 36  1  0  0  0  0
 39 38  1  0  0  0  0
 40 41  1  0  0  0  0
 42 43  1  6  0  0  0
 42 45  1  0  0  0  0
 42 41  1  0  0  0  0
 44 46  1  0  0  0  0
 45 44  1  0  0  0  0
 46 49  1  6  0  0  0
 47 46  1  0  0  0  0
 48 45  1  0  0  0  0
 48 47  1  0  0  0  0
 49 50  1  6  0  0  0
 49 51  1  0  0  0  0
 51 53  1  0  0  0  0
 52 53  2  0  0  0  0
 53 54  1  0  0  0  0
 54 56  1  0  0  0  0
 56 55  1  0  0  0  0
M  END
>  <MODEL>
3

>  <REMARK>
 VINA RESULT:      -3.3      1.639      2.147
  Name = 
  26 active torsions:
  status: ('A' for Active; 'I' for Inactive)
    1  A    between atoms: C_1  and  C_8
    2  A    between atoms: O_3  and  C_15
    3  A    between atoms: O_3  and  C_44
    4  A    between atoms: N_4  and  C_25
    5  A    between atoms: C_10  and  C_14
    6  A    between atoms: C_10  and  C_42
    7  A    between atoms: C_12  and  C_18
    8  A    between atoms: C_12  and  N_30
    9  A    between atoms: C_12  and  C_33
   10  A    between atoms: N_13  and  C_28
   11  A    between atoms: C_15  and  N_43
   12  A    between atoms: C_15  and  C_56
   13  A    between atoms: C_18  and  N_29
   14  A    between atoms: C_22  and  O_38
   15  A    between atoms: C_23  and  O_37
   16  A    between atoms: C_23  and  O_38
   17  A    between atoms: C_27  and  C_52
   18  A    between atoms: C_28  and  N_29
   19  A    between atoms: N_30  and  C_48
   20  A    between atoms: C_31  and  O_51
   21  A    between atoms: C_34  and  C_35
   22  A    between atoms: C_35  and  C_39
   23  A    between atoms: O_37  and  N_43
   24  A    between atoms: C_39  and  C_42
   25  A    between atoms: O_51  and  C_52
   26  A    between atoms: C_52  and  C_56
                            x       y       z     vdW  Elec       q    Type
                         _______ _______ _______ _____ _____    ______ ____

>  <TORSDO>
F 26

$$$$
=
 OpenBabel11052409523D

 56 59  0  0  1  0  0  0  0  0999 V2000
  159.1830  212.5110  151.3800 C   0  0  0  0  0  3  0  0  0  0  0  0
  160.8050  210.9410  152.2880 C   0  0  0  0  0  0  0  0  0  0  0  0
  158.3950  212.3630  152.5260 C   0  0  0  0  0  3  0  0  0  0  0  0
  159.9870  210.7930  153.4190 C   0  0  0  0  0  3  0  0  0  0  0  0
  157.9940  211.3350  154.6660 O   0  0  0  0  0  1  0  0  0  0  0  0
  158.7890  211.4920  153.5370 C   0  0  0  0  0  0  0  0  0  0  0  0
  160.3820  211.7990  151.2430 C   0  0  0  0  0  0  0  0  0  0  0  0
  162.0370  210.1250  152.1730 C   0  0  0  0  0  0  0  0  0  0  0  0
  163.0830  210.4720  152.8390 N   0  0  0  0  0  2  0  0  0  0  0  0
  162.1810  209.0920  151.1930 N   0  0  0  0  0  2  0  0  0  0  0  0
  161.3260  205.9570  150.7200 C   0  0  2  0  0  3  0  0  0  0  0  0
  162.7490  206.2590  150.2590 C   0  0  0  0  0  2  0  0  0  0  0  0
  161.0930  208.5060  150.4120 C   0  0  2  0  0  3  0  0  0  0  0  0
  160.5760  207.2380  151.1180 C   0  0  0  0  0  2  0  0  0  0  0  0
  161.5820  208.1680  148.9970 C   0  0  2  0  0  3  0  0  0  0  0  0
  162.7420  207.1620  149.0250 C   0  0  0  0  0  2  0  0  0  0  0  0
  162.0060  209.4150  148.2590 C   0  0  0  0  0  1  0  0  0  0  0  0
  161.3220  205.0580  151.7890 O   0  0  0  0  0  0  0  0  0  0  0  0
  161.8700  203.8660  151.3000 C   0  0  0  0  0  2  0  0  0  0  0  0
  160.8540  202.9960  150.8880 O   0  0  0  0  0  0  0  0  0  0  0  0
  160.3830  203.5440  149.7410 N   0  0  0  0  0  2  0  0  0  0  0  0
  161.3120  203.1960  148.6680 C   0  0  1  0  0  3  0  0  0  0  0  0
  161.2160  200.8820  149.1110 O   0  0  0  0  0  0  0  0  0  0  0  0
  161.2060  201.7450  148.2550 C   0  0  0  0  0  0  0  0  0  0  0  0
  161.0090  201.3250  146.8220 C   0  0  1  0  0  3  0  0  0  0  0  0
  160.9540  199.8080  146.6230 C   0  0  0  0  0  2  0  0  0  0  0  0
  162.2360  199.2600  146.6920 O   0  0  0  0  0  1  0  0  0  0  0  0
  159.8710  201.9300  146.2860 O   0  0  0  0  0  0  0  0  0  0  0  0
  159.0970  202.8010  144.3380 O   0  0  0  0  0  1  0  0  0  0  0  0
  160.1540  202.1200  144.9340 C   0  0  0  0  0  2  0  0  0  0  0  0
  161.2640  204.0840  147.5650 O   0  0  0  0  0  0  0  0  0  0  0  0
  162.5590  204.4010  147.1190 C   0  0  0  0  0  3  0  0  0  0  0  0
  162.6360  204.1690  145.6180 C   0  0  0  0  0  2  0  0  0  0  0  0
  162.5190  205.5710  146.1510 C   0  0  0  0  0  2  0  0  0  0  0  0
  161.1850  211.9650  150.0630 N   0  0  0  0  0  2  0  0  0  0  0  0
  160.8820  212.9150  149.0060 C   0  0  1  0  0  3  0  0  0  0  0  0
  162.7390  214.4370  148.9640 O   0  0  0  0  0  0  0  0  0  0  0  0
  162.6730  212.9030  147.2270 N   0  0  0  0  0  1  0  0  0  0  0  0
  162.1390  213.4770  148.4110 C   0  0  0  0  0  0  0  0  0  0  0  0
  159.9900  212.2750  147.9530 C   0  0  0  0  0  2  0  0  0  0  0  0
  159.9830  213.0600  146.7250 N   0  0  0  0  0  2  0  0  0  0  0  0
  158.6160  213.4780  146.4720 C   0  0  2  0  0  3  0  0  0  0  0  0
  157.6910  212.8290  147.4890 C   0  0  0  0  0  1  0  0  0  0  0  0
  159.3230  212.3880  144.4700 C   0  0  0  0  0  2  0  0  0  0  0  0
  158.2610  213.1560  145.0890 N   0  0  0  0  0  0  0  0  0  0  0  0
  159.2380  212.7460  143.0180 C   0  0  1  0  0  3  0  0  0  0  0  0
  158.3300  213.9480  143.0420 C   0  0  0  0  0  2  0  0  0  0  0  0
  158.1240  214.3040  144.3790 O   0  0  0  0  0  0  0  0  0  0  0  0
  160.6150  213.0680  142.4230 C   0  0  2  0  0  3  0  0  0  0  0  0
  160.8300  214.4500  142.3980 O   0  0  0  0  0  1  0  0  0  0  0  0
  160.7260  212.5130  141.0090 C   0  0  0  0  0  2  0  0  0  0  0  0
  160.1940  214.2210  139.4690 O   0  0  0  0  0  0  0  0  0  0  0  0
  161.0760  213.5810  140.0250 C   0  0  0  0  0  0  0  0  0  0  0  0
  162.5090  213.8780  139.7440 C   0  0  0  0  0  2  0  0  0  0  0  0
  161.8780  212.7230  137.7610 O   0  0  0  0  0  1  0  0  0  0  0  0
  162.9780  213.0970  138.5370 C   0  0  0  0  0  2  0  0  0  0  0  0
  1  3  1  0  0  0  0
  2  4  2  0  0  0  0
  3  6  2  0  0  0  0
  4  6  1  0  0  0  0
  6  5  1  0  0  0  0
  7  1  2  0  0  0  0
  7  2  1  0  0  0  0
  8  2  1  0  0  0  0
  8  9  2  0  0  0  0
 10  8  1  0  0  0  0
 11 14  1  0  0  0  0
 11 18  1  1  0  0  0
 12 11  1  0  0  0  0
 13 14  1  0  0  0  0
 13 10  1  1  0  0  0
 15 17  1  1  0  0  0
 15 16  1  0  0  0  0
 15 13  1  0  0  0  0
 16 12  1  0  0  0  0
 19 18  1  0  0  0  0
 20 19  1  0  0  0  0
 21 20  1  0  0  0  0
 22 31  1  6  0  0  0
 22 21  1  0  0  0  0
 24 22  1  0  0  0  0
 24 23  2  0  0  0  0
 25 26  1  1  0  0  0
 25 24  1  0  0  0  0
 26 27  1  0  0  0  0
 28 25  1  0  0  0  0
 29 30  1  0  0  0  0
 30 28  1  0  0  0  0
 32 31  1  0  0  0  0
 33 34  1  0  0  0  0
 33 32  1  0  0  0  0
 34 32  1  0  0  0  0
 35  7  1  0  0  0  0
 36 40  1  6  0  0  0
 36 35  1  0  0  0  0
 38 39  1  0  0  0  0
 39 37  2  0  0  0  0
 39 36  1  0  0  0  0
 41 40  1  0  0  0  0
 42 41  1  0  0  0  0
 42 43  1  1  0  0  0
 44 45  1  0  0  0  0
 45 42  1  0  0  0  0
 46 49  1  1  0  0  0
 46 47  1  0  0  0  0
 46 44  1  0  0  0  0
 47 48  1  0  0  0  0
 48 45  1  0  0  0  0
 49 50  1  6  0  0  0
 51 49  1  0  0  0  0
 52 53  2  0  0  0  0
 53 51  1  0  0  0  0
 54 53  1  0  0  0  0
 55 56  1  0  0  0  0
 56 54  1  0  0  0  0
M  END
>  <MODEL>
4

>  <REMARK>
 VINA RESULT:      -3.0      2.574     10.256
  Name = 
  26 active torsions:
  status: ('A' for Active; 'I' for Inactive)
    1  A    between atoms: C_1  and  C_8
    2  A    between atoms: O_3  and  C_15
    3  A    between atoms: O_3  and  C_44
    4  A    between atoms: N_4  and  C_25
    5  A    between atoms: C_10  and  C_14
    6  A    between atoms: C_10  and  C_42
    7  A    between atoms: C_12  and  C_18
    8  A    between atoms: C_12  and  N_30
    9  A    between atoms: C_12  and  C_33
   10  A    between atoms: N_13  and  C_28
   11  A    between atoms: C_15  and  N_43
   12  A    between atoms: C_15  and  C_56
   13  A    between atoms: C_18  and  N_29
   14  A    between atoms: C_22  and  O_38
   15  A    between atoms: C_23  and  O_37
   16  A    between atoms: C_23  and  O_38
   17  A    between atoms: C_27  and  C_52
   18  A    between atoms: C_28  and  N_29
   19  A    between atoms: N_30  and  C_48
   20  A    between atoms: C_31  and  O_51
   21  A    between atoms: C_34  and  C_35
   22  A    between atoms: C_35  and  C_39
   23  A    between atoms: O_37  and  N_43
   24  A    between atoms: C_39  and  C_42
   25  A    between atoms: O_51  and  C_52
   26  A    between atoms: C_52  and  C_56
                            x       y       z     vdW  Elec       q    Type
                         _______ _______ _______ _____ _____    ______ ____

>  <TORSDO>
F 26

$$$$
=
 OpenBabel11052409523D

 56 59  0  0  1  0  0  0  0  0999 V2000
  161.3130  206.5800  154.0040 C   0  0  0  0  0  3  0  0  0  0  0  0
  160.9580  208.9860  153.9320 C   0  0  0  0  0  0  0  0  0  0  0  0
  160.5160  206.4950  155.1500 C   0  0  0  0  0  3  0  0  0  0  0  0
  160.1790  208.8790  155.0950 C   0  0  0  0  0  3  0  0  0  0  0  0
  159.1870  207.5580  156.8530 O   0  0  0  0  0  1  0  0  0  0  0  0
  159.9630  207.6450  155.7040 C   0  0  0  0  0  0  0  0  0  0  0  0
  161.5510  207.8180  153.3920 C   0  0  0  0  0  0  0  0  0  0  0  0
  161.2180  210.3270  153.3570 C   0  0  0  0  0  0  0  0  0  0  0  0
  162.3620  210.5650  152.8140 N   0  0  0  0  0  2  0  0  0  0  0  0
  160.3360  211.4340  153.5650 N   0  0  0  0  0  2  0  0  0  0  0  0
  157.6440  213.1610  152.8180 C   0  0  2  0  0  3  0  0  0  0  0  0
  158.7830  214.0340  153.3390 C   0  0  0  0  0  2  0  0  0  0  0  0
  158.9700  211.3440  154.0790 C   0  0  2  0  0  3  0  0  0  0  0  0
  157.9720  211.6660  152.9490 C   0  0  0  0  0  2  0  0  0  0  0  0
  158.7820  212.3170  155.2500 C   0  0  2  0  0  3  0  0  0  0  0  0
  159.0340  213.7710  154.8240 C   0  0  0  0  0  2  0  0  0  0  0  0
  159.6890  211.9580  156.4020 C   0  0  0  0  0  1  0  0  0  0  0  0
  157.3470  213.4630  151.4870 O   0  0  0  0  0  0  0  0  0  0  0  0
  158.4860  214.0870  150.9630 C   0  0  0  0  0  2  0  0  0  0  0  0
  158.3100  214.3540  149.6000 O   0  0  0  0  0  0  0  0  0  0  0  0
  159.5620  214.2980  149.0800 N   0  0  0  0  0  2  0  0  0  0  0  0
  159.5520  213.3080  148.0040 C   0  0  1  0  0  3  0  0  0  0  0  0
  160.5690  214.3610  146.1560 O   0  0  0  0  0  0  0  0  0  0  0  0
  159.5320  213.9410  146.6320 C   0  0  0  0  0  0  0  0  0  0  0  0
  158.2850  214.0060  145.7890 C   0  0  1  0  0  3  0  0  0  0  0  0
  158.4500  213.4060  144.3910 C   0  0  0  0  0  2  0  0  0  0  0  0
  158.9570  214.3600  143.5080 O   0  0  0  0  0  1  0  0  0  0  0  0
  157.2130  213.4080  146.4550 O   0  0  0  0  0  0  0  0  0  0  0  0
  155.6450  214.4470  145.1860 O   0  0  0  0  0  1  0  0  0  0  0  0
  156.1990  214.3640  146.4590 C   0  0  0  0  0  2  0  0  0  0  0  0
  160.5550  212.3160  148.1370 O   0  0  0  0  0  0  0  0  0  0  0  0
  161.7730  212.8850  148.5480 C   0  0  0  0  0  3  0  0  0  0  0  0
  162.7100  211.7750  149.0000 C   0  0  0  0  0  2  0  0  0  0  0  0
  162.9080  212.4170  147.6530 C   0  0  0  0  0  2  0  0  0  0  0  0
  162.3670  207.8920  152.2110 N   0  0  0  0  0  2  0  0  0  0  0  0
  162.6560  206.7520  151.3570 C   0  0  1  0  0  3  0  0  0  0  0  0
  161.6830  204.6820  152.0930 O   0  0  0  0  0  0  0  0  0  0  0  0
  160.3300  205.9880  150.7350 N   0  0  0  0  0  1  0  0  0  0  0  0
  161.5500  205.7400  151.4200 C   0  0  0  0  0  0  0  0  0  0  0  0
  162.9300  207.2080  149.9320 C   0  0  0  0  0  2  0  0  0  0  0  0
  162.1360  206.4460  148.9770 N   0  0  0  0  0  2  0  0  0  0  0  0
  162.3600  207.0150  147.6590 C   0  0  2  0  0  3  0  0  0  0  0  0
  162.2760  208.5310  147.7400 C   0  0  0  0  0  1  0  0  0  0  0  0
  161.0080  205.1140  147.1530 C   0  0  0  0  0  2  0  0  0  0  0  0
  161.4020  206.4390  146.7150 N   0  0  0  0  0  0  0  0  0  0  0  0
  160.6910  204.3850  145.8840 C   0  0  1  0  0  3  0  0  0  0  0  0
  161.2710  205.3040  144.8390 C   0  0  0  0  0  2  0  0  0  0  0  0
  161.9900  206.3050  145.5000 O   0  0  0  0  0  0  0  0  0  0  0  0
  161.3260  202.9890  145.8480 C   0  0  2  0  0  3  0  0  0  0  0  0
  160.4080  202.0420  145.3820 O   0  0  0  0  0  1  0  0  0  0  0  0
  161.8060  202.5880  147.2360 C   0  0  0  0  0  2  0  0  0  0  0  0
  160.2130  200.8830  147.5960 O   0  0  0  0  0  0  0  0  0  0  0  0
  160.7280  201.9110  148.0170 C   0  0  0  0  0  0  0  0  0  0  0  0
  160.3020  202.4810  149.3260 C   0  0  0  0  0  2  0  0  0  0  0  0
  161.4600  200.5060  149.9760 O   0  0  0  0  0  1  0  0  0  0  0  0
  160.6060  201.5080  150.4430 C   0  0  0  0  0  2  0  0  0  0  0  0
  1  3  1  0  0  0  0
  2  4  2  0  0  0  0
  3  6  2  0  0  0  0
  4  6  1  0  0  0  0
  6  5  1  0  0  0  0
  7  2  1  0  0  0  0
  7  1  2  0  0  0  0
  8 10  1  0  0  0  0
  8  2  1  0  0  0  0
  9  8  2  0  0  0  0
 11 18  1  6  0  0  0
 11 14  1  0  0  0  0
 11 12  1  0  0  0  0
 12 16  1  0  0  0  0
 13 10  1  6  0  0  0
 13 15  1  0  0  0  0
 14 13  1  0  0  0  0
 15 17  1  1  0  0  0
 16 15  1  0  0  0  0
 19 18  1  0  0  0  0
 20 19  1  0  0  0  0
 21 20  1  0  0  0  0
 22 24  1  6  0  0  0
 22 31  1  0  0  0  0
 22 21  1  0  0  0  0
 23 24  2  0  0  0  0
 25 26  1  6  0  0  0
 25 28  1  0  0  0  0
 25 24  1  0  0  0  0
 27 26  1  0  0  0  0
 28 30  1  0  0  0  0
 29 30  1  0  0  0  0
 31 32  1  0  0  0  0
 32 33  1  0  0  0  0
 34 32  1  0  0  0  0
 34 33  1  0  0  0  0
 35  7  1  0  0  0  0
 36 40  1  6  0  0  0
 36 39  1  0  0  0  0
 36 35  1  0  0  0  0
 38 39  1  0  0  0  0
 39 37  2  0  0  0  0
 41 40  1  0  0  0  0
 42 43  1  1  0  0  0
 42 41  1  0  0  0  0
 45 44  1  0  0  0  0
 45 42  1  0  0  0  0
 46 49  1  1  0  0  0
 46 44  1  0  0  0  0
 47 48  1  0  0  0  0
 47 46  1  0  0  0  0
 48 45  1  0  0  0  0
 49 50  1  1  0  0  0
 49 51  1  0  0  0  0
 51 53  1  0  0  0  0
 52 53  2  0  0  0  0
 53 54  1  0  0  0  0
 54 56  1  0  0  0  0
 55 56  1  0  0  0  0
M  END
>  <MODEL>
5

>  <REMARK>
 VINA RESULT:      -2.8      3.794      6.500
  Name = 
  26 active torsions:
  status: ('A' for Active; 'I' for Inactive)
    1  A    between atoms: C_1  and  C_8
    2  A    between atoms: O_3  and  C_15
    3  A    between atoms: O_3  and  C_44
    4  A    between atoms: N_4  and  C_25
    5  A    between atoms: C_10  and  C_14
    6  A    between atoms: C_10  and  C_42
    7  A    between atoms: C_12  and  C_18
    8  A    between atoms: C_12  and  N_30
    9  A    between atoms: C_12  and  C_33
   10  A    between atoms: N_13  and  C_28
   11  A    between atoms: C_15  and  N_43
   12  A    between atoms: C_15  and  C_56
   13  A    between atoms: C_18  and  N_29
   14  A    between atoms: C_22  and  O_38
   15  A    between atoms: C_23  and  O_37
   16  A    between atoms: C_23  and  O_38
   17  A    between atoms: C_27  and  C_52
   18  A    between atoms: C_28  and  N_29
   19  A    between atoms: N_30  and  C_48
   20  A    between atoms: C_31  and  O_51
   21  A    between atoms: C_34  and  C_35
   22  A    between atoms: C_35  and  C_39
   23  A    between atoms: O_37  and  N_43
   24  A    between atoms: C_39  and  C_42
   25  A    between atoms: O_51  and  C_52
   26  A    between atoms: C_52  and  C_56
                            x       y       z     vdW  Elec       q    Type
                         _______ _______ _______ _____ _____    ______ ____

>  <TORSDO>
F 26

$$$$
=
 OpenBabel11052409523D

 56 59  0  0  1  0  0  0  0  0999 V2000
  160.7650  206.8650  145.7140 C   0  0  0  0  0  3  0  0  0  0  0  0
  161.6290  204.8360  146.7420 C   0  0  0  0  0  0  0  0  0  0  0  0
  160.0480  206.0950  144.7920 C   0  0  0  0  0  3  0  0  0  0  0  0
  160.9180  204.0850  145.7930 C   0  0  0  0  0  3  0  0  0  0  0  0
  159.4390  203.9460  143.8920 O   0  0  0  0  0  1  0  0  0  0  0  0
  160.1380  204.7070  144.8220 C   0  0  0  0  0  0  0  0  0  0  0  0
  161.5670  206.2500  146.6850 C   0  0  0  0  0  0  0  0  0  0  0  0
  162.5020  204.1350  147.7130 C   0  0  0  0  0  0  0  0  0  0  0  0
  163.7570  204.0120  147.4530 N   0  0  0  0  0  2  0  0  0  0  0  0
  161.9760  203.4040  148.8260 N   0  0  0  0  0  2  0  0  0  0  0  0
  160.8100  204.3930  151.7330 C   0  0  2  0  0  3  0  0  0  0  0  0
  161.7740  203.2150  151.8510 C   0  0  0  0  0  2  0  0  0  0  0  0
  160.6040  203.4920  149.3260 C   0  0  2  0  0  3  0  0  0  0  0  0
  160.4750  204.7060  150.2660 C   0  0  0  0  0  2  0  0  0  0  0  0
  160.2290  202.2010  150.0660 C   0  0  2  0  0  3  0  0  0  0  0  0
  161.1560  201.9460  151.2630 C   0  0  0  0  0  2  0  0  0  0  0  0
  160.2620  201.0150  149.1330 C   0  0  0  0  0  1  0  0  0  0  0  0
  161.3300  205.5330  152.3500 O   0  0  0  0  0  0  0  0  0  0  0  0
  161.0320  205.4110  153.7130 C   0  0  0  0  0  2  0  0  0  0  0  0
  161.2250  206.6350  154.3650 O   0  0  0  0  0  0  0  0  0  0  0  0
  159.9730  207.1140  154.5650 N   0  0  0  0  0  2  0  0  0  0  0  0
  160.0860  208.3370  155.3570 C   0  0  1  0  0  3  0  0  0  0  0  0
  162.1580  208.1670  156.4710 O   0  0  0  0  0  0  0  0  0  0  0  0
  161.5220  208.7370  155.6050 C   0  0  0  0  0  0  0  0  0  0  0  0
  162.2300  209.7700  154.7660 C   0  0  1  0  0  3  0  0  0  0  0  0
  162.1750  209.4890  153.2620 C   0  0  0  0  0  2  0  0  0  0  0  0
  161.8170  210.6440  152.5630 O   0  0  0  0  0  1  0  0  0  0  0  0
  161.7390  211.0470  155.0440 O   0  0  0  0  0  0  0  0  0  0  0  0
  161.8840  211.5190  157.2590 O   0  0  0  0  0  1  0  0  0  0  0  0
  162.5660  211.5510  156.0470 C   0  0  0  0  0  2  0  0  0  0  0  0
  159.2950  209.4050  154.8680 O   0  0  0  0  0  0  0  0  0  0  0  0
  158.5550  209.9980  155.9050 C   0  0  0  0  0  3  0  0  0  0  0  0
  158.5490  211.5070  155.7100 C   0  0  0  0  0  2  0  0  0  0  0  0
  157.3280  210.7030  155.3510 C   0  0  0  0  0  2  0  0  0  0  0  0
  162.2930  207.0530  147.6310 N   0  0  0  0  0  2  0  0  0  0  0  0
  161.7010  208.1410  148.3890 C   0  0  1  0  0  3  0  0  0  0  0  0
  160.6900  207.9920  150.5630 O   0  0  0  0  0  0  0  0  0  0  0  0
  162.9230  207.3730  150.4620 N   0  0  0  0  0  1  0  0  0  0  0  0
  161.7260  207.8460  149.8600 C   0  0  0  0  0  0  0  0  0  0  0  0
  162.3880  209.4570  148.0610 C   0  0  0  0  0  2  0  0  0  0  0  0
  161.7000  210.5790  148.6860 N   0  0  0  0  0  2  0  0  0  0  0  0
  161.8600  211.7360  147.8230 C   0  0  2  0  0  3  0  0  0  0  0  0
  162.9610  212.6290  148.3720 C   0  0  0  0  0  1  0  0  0  0  0  0
  159.9140  212.0210  146.4700 C   0  0  0  0  0  2  0  0  0  0  0  0
  160.5750  212.4250  147.6960 N   0  0  0  0  0  0  0  0  0  0  0  0
  159.0960  213.2140  146.0830 C   0  0  1  0  0  3  0  0  0  0  0  0
  159.6600  214.2880  146.9780 C   0  0  0  0  0  2  0  0  0  0  0  0
  160.7860  213.7630  147.6200 O   0  0  0  0  0  0  0  0  0  0  0  0
  159.2490  213.5580  144.5950 C   0  0  2  0  0  3  0  0  0  0  0  0
  158.0550  214.0780  144.0850 O   0  0  0  0  0  1  0  0  0  0  0  0
  159.6420  212.3190  143.8020 C   0  0  0  0  0  2  0  0  0  0  0  0
  161.3780  212.3510  142.2030 O   0  0  0  0  0  0  0  0  0  0  0  0
  160.2310  212.6780  142.4770 C   0  0  0  0  0  0  0  0  0  0  0  0
  159.4030  213.4140  141.4810 C   0  0  0  0  0  2  0  0  0  0  0  0
  158.1840  213.1590  139.4520 O   0  0  0  0  0  1  0  0  0  0  0  0
  159.1010  212.5260  140.2940 C   0  0  0  0  0  2  0  0  0  0  0  0
  1  7  1  0  0  0  0
  2  8  1  0  0  0  0
  3  6  1  0  0  0  0
  3  1  2  0  0  0  0
  4  2  1  0  0  0  0
  5  6  1  0  0  0  0
  6  4  2  0  0  0  0
  7  2  2  0  0  0  0
  7 35  1  0  0  0  0
  8 10  1  0  0  0  0
  9  8  2  0  0  0  0
 11 12  1  0  0  0  0
 11 18  1  6  0  0  0
 13 10  1  1  0  0  0
 13 15  1  0  0  0  0
 13 14  1  0  0  0  0
 14 11  1  0  0  0  0
 15 17  1  6  0  0  0
 15 16  1  0  0  0  0
 16 12  1  0  0  0  0
 18 19  1  0  0  0  0
 19 20  1  0  0  0  0
 20 21  1  0  0  0  0
 22 21  1  6  0  0  0
 22 24  1  0  0  0  0
 24 23  2  0  0  0  0
 25 26  1  6  0  0  0
 25 28  1  0  0  0  0
 25 24  1  0  0  0  0
 27 26  1  0  0  0  0
 28 30  1  0  0  0  0
 30 29  1  0  0  0  0
 31 22  1  0  0  0  0
 31 32  1  0  0  0  0
 33 32  1  0  0  0  0
 34 33  1  0  0  0  0
 34 32  1  0  0  0  0
 35 36  1  0  0  0  0
 36 40  1  1  0  0  0
 36 39  1  0  0  0  0
 39 38  1  0  0  0  0
 39 37  2  0  0  0  0
 40 41  1  0  0  0  0
 42 43  1  1  0  0  0
 42 41  1  0  0  0  0
 44 45  1  0  0  0  0
 45 42  1  0  0  0  0
 46 49  1  6  0  0  0
 46 44  1  0  0  0  0
 46 47  1  0  0  0  0
 47 48  1  0  0  0  0
 48 45  1  0  0  0  0
 49 50  1  6  0  0  0
 51 49  1  0  0  0  0
 52 53  2  0  0  0  0
 53 51  1  0  0  0  0
 54 53  1  0  0  0  0
 55 56  1  0  0  0  0
 56 54  1  0  0  0  0
M  END
>  <MODEL>
6

>  <REMARK>
 VINA RESULT:      -2.8      2.828     12.081
  Name = 
  26 active torsions:
  status: ('A' for Active; 'I' for Inactive)
    1  A    between atoms: C_1  and  C_8
    2  A    between atoms: O_3  and  C_15
    3  A    between atoms: O_3  and  C_44
    4  A    between atoms: N_4  and  C_25
    5  A    between atoms: C_10  and  C_14
    6  A    between atoms: C_10  and  C_42
    7  A    between atoms: C_12  and  C_18
    8  A    between atoms: C_12  and  N_30
    9  A    between atoms: C_12  and  C_33
   10  A    between atoms: N_13  and  C_28
   11  A    between atoms: C_15  and  N_43
   12  A    between atoms: C_15  and  C_56
   13  A    between atoms: C_18  and  N_29
   14  A    between atoms: C_22  and  O_38
   15  A    between atoms: C_23  and  O_37
   16  A    between atoms: C_23  and  O_38
   17  A    between atoms: C_27  and  C_52
   18  A    between atoms: C_28  and  N_29
   19  A    between atoms: N_30  and  C_48
   20  A    between atoms: C_31  and  O_51
   21  A    between atoms: C_34  and  C_35
   22  A    between atoms: C_35  and  C_39
   23  A    between atoms: O_37  and  N_43
   24  A    between atoms: C_39  and  C_42
   25  A    between atoms: O_51  and  C_52
   26  A    between atoms: C_52  and  C_56
                            x       y       z     vdW  Elec       q    Type
                         _______ _______ _______ _____ _____    ______ ____

>  <TORSDO>
F 26

$$$$
