=
 OpenBabel11042423093D

 29 30  0  0  1  0  0  0  0  0999 V2000
  161.3040  205.0160  150.3410 C   0  0  2  0  0  3  0  0  0  0  0  0
  161.0320  201.9180  146.4480 C   0  0  0  0  0  0  0  0  0  0  0  0
  161.3070  202.9870  145.5910 C   0  0  0  0  0  3  0  0  0  0  0  0
  161.5230  204.2670  146.1060 C   0  0  0  0  0  3  0  0  0  0  0  0
  161.1830  203.4300  148.3630 C   0  0  0  0  0  0  0  0  0  0  0  0
  161.4630  204.4880  147.4840 C   0  0  0  0  0  3  0  0  0  0  0  0
  160.6280  201.2780  150.0830 C   0  0  0  0  0  3  0  0  0  0  0  0
  160.8320  202.5570  150.6040 C   0  0  0  0  0  3  0  0  0  0  0  0
  160.9690  202.1290  147.8370 C   0  0  0  0  0  0  0  0  0  0  0  0
  160.6950  201.0650  148.7050 C   0  0  0  0  0  3  0  0  0  0  0  0
  161.1120  203.6410  149.7570 C   0  0  0  0  0  0  0  0  0  0  0  0
  160.8210  200.6530  145.9100 O   0  0  0  0  0  1  0  0  0  0  0  0
  161.2000  204.9790  151.8610 C   0  0  0  0  0  2  0  0  0  0  0  0
  163.3020  206.0900  151.9450 O   0  0  0  0  0  0  0  0  0  0  0  0
  161.8440  206.6710  153.6530 N   0  0  0  0  0  2  0  0  0  0  0  0
  162.1760  205.9290  152.4800 C   0  0  0  0  0  0  0  0  0  0  0  0
  160.5670  206.5260  154.3380 C   0  0  0  0  0  2  0  0  0  0  0  0
  160.3920  207.6440  155.3510 C   0  0  0  0  0  2  0  0  0  0  0  0
  160.1040  207.0660  156.7240 C   0  0  0  0  0  1  0  0  0  0  0  0
  160.3150  206.0170  149.7480 C   0  0  0  0  0  2  0  0  0  0  0  0
  160.8630  207.4330  149.8240 C   0  0  0  0  0  2  0  0  0  0  0  0
  161.4600  207.8380  148.4880 C   0  0  0  0  0  2  0  0  0  0  0  0
  162.2230  209.1420  148.6320 C   0  0  0  0  0  2  0  0  0  0  0  0
  162.0560  209.6840  150.0370 C   0  0  0  0  0  2  0  0  0  0  0  0
  162.0240  211.1350  149.9980 N   0  0  0  0  0  2  0  0  0  0  0  0
  162.0910  211.5150  148.5970 C   0  0  0  0  0  2  0  0  0  0  0  0
  160.5550  213.3240  148.7900 O   0  0  0  0  0  0  0  0  0  0  0  0
  161.7050  212.9430  148.4450 C   0  0  0  0  0  0  0  0  0  0  0  0
  162.6420  213.8830  147.9290 N   0  0  0  0  0  1  0  0  0  0  0  0
  1 20  1  6  0  0  0
  1 13  1  0  0  0  0
  2  9  1  0  0  0  0
  3  4  1  0  0  0  0
  3  2  2  0  0  0  0
  4  6  2  0  0  0  0
  5 11  1  0  0  0  0
  6  5  1  0  0  0  0
  7  8  1  0  0  0  0
  9  5  2  0  0  0  0
  9 10  1  0  0  0  0
 10  7  2  0  0  0  0
 11  1  1  0  0  0  0
 11  8  2  0  0  0  0
 12  2  1  0  0  0  0
 13 16  1  0  0  0  0
 14 16  2  0  0  0  0
 15 17  1  0  0  0  0
 16 15  1  0  0  0  0
 17 18  1  0  0  0  0
 18 19  1  0  0  0  0
 20 21  1  0  0  0  0
 22 23  1  0  0  0  0
 22 21  1  0  0  0  0
 23 24  1  0  0  0  0
 25 24  1  0  0  0  0
 26 25  1  0  0  0  0
 28 26  1  0  0  0  0
 28 27  2  0  0  0  0
 29 28  1  0  0  0  0
M  END
>  <MODEL>
1

>  <REMARK>
 VINA RESULT:      -7.8      0.000      0.000
  Name = 
  13 active torsions:
  status: ('A' for Active; 'I' for Inactive)
    1  A    between atoms: C_1  and  C_14
    2  A    between atoms: C_1  and  C_18
    3  A    between atoms: C_5  and  C_22
    4  A    between atoms: C_6  and  C_24
    5  A    between atoms: C_6  and  C_26
    6  A    between atoms: C_10  and  N_19
    7  A    between atoms: C_10  and  C_27
    8  A    between atoms: N_11  and  C_22
    9  A    between atoms: C_14  and  C_27
   10  A    between atoms: C_15  and  C_25
   11  A    between atoms: C_18  and  C_24
   12  A    between atoms: N_19  and  C_25
   13  A    between atoms: C_21  and  C_24
                            x       y       z     vdW  Elec       q    Type
                         _______ _______ _______ _____ _____    ______ ____

>  <TORSDO>
F 13

$$$$
=
 OpenBabel11042423093D

 29 30  0  0  1  0  0  0  0  0999 V2000
  161.1890  205.4400  150.1600 C   0  0  2  0  0  3  0  0  0  0  0  0
  161.1090  201.9430  146.6110 C   0  0  0  0  0  0  0  0  0  0  0  0
  161.3480  202.9280  145.6490 C   0  0  0  0  0  3  0  0  0  0  0  0
  161.5000  204.2630  146.0280 C   0  0  0  0  0  3  0  0  0  0  0  0
  161.1660  203.6520  148.3580 C   0  0  0  0  0  0  0  0  0  0  0  0
  161.4110  204.6240  147.3750 C   0  0  0  0  0  3  0  0  0  0  0  0
  160.6820  201.6690  150.2890 C   0  0  0  0  0  3  0  0  0  0  0  0
  160.8230  203.0030  150.6750 C   0  0  0  0  0  3  0  0  0  0  0  0
  161.0170  202.2950  147.9690 C   0  0  0  0  0  0  0  0  0  0  0  0
  160.7780  201.3160  148.9420 C   0  0  0  0  0  3  0  0  0  0  0  0
  161.0670  204.0040  149.7210 C   0  0  0  0  0  0  0  0  0  0  0  0
  160.9610  200.6200  146.2070 O   0  0  0  0  0  1  0  0  0  0  0  0
  160.8300  205.5900  151.6330 C   0  0  0  0  0  2  0  0  0  0  0  0
  163.1660  205.9150  151.9350 O   0  0  0  0  0  0  0  0  0  0  0  0
  161.8620  206.6510  153.7060 N   0  0  0  0  0  2  0  0  0  0  0  0
  162.0150  206.0470  152.4210 C   0  0  0  0  0  0  0  0  0  0  0  0
  160.5640  206.8230  154.3420 C   0  0  0  0  0  2  0  0  0  0  0  0
  160.6940  207.7350  155.5490 C   0  0  0  0  0  2  0  0  0  0  0  0
  160.1970  207.0280  156.7970 C   0  0  0  0  0  1  0  0  0  0  0  0
  160.3380  206.3640  149.2900 C   0  0  0  0  0  2  0  0  0  0  0  0
  161.2140  207.2830  148.4540 C   0  0  0  0  0  2  0  0  0  0  0  0
  162.3130  207.8840  149.3110 C   0  0  0  0  0  2  0  0  0  0  0  0
  161.9140  209.2740  149.7710 C   0  0  0  0  0  2  0  0  0  0  0  0
  162.2450  209.4460  151.2400 C   0  0  0  0  0  2  0  0  0  0  0  0
  161.0240  209.6830  151.9890 N   0  0  0  0  0  2  0  0  0  0  0  0
  161.3950  210.4690  153.1530 C   0  0  0  0  0  2  0  0  0  0  0  0
  159.1280  211.1840  153.0110 O   0  0  0  0  0  0  0  0  0  0  0  0
  160.2090  211.2090  153.6580 C   0  0  0  0  0  0  0  0  0  0  0  0
  160.2870  211.9300  154.8840 N   0  0  0  0  0  1  0  0  0  0  0  0
  1 20  1  6  0  0  0
  1 13  1  0  0  0  0
  2  9  1  0  0  0  0
  3  4  1  0  0  0  0
  3  2  2  0  0  0  0
  4  6  2  0  0  0  0
  5 11  1  0  0  0  0
  6  5  1  0  0  0  0
  7  8  1  0  0  0  0
  9  5  2  0  0  0  0
  9 10  1  0  0  0  0
 10  7  2  0  0  0  0
 11  1  1  0  0  0  0
 11  8  2  0  0  0  0
 12  2  1  0  0  0  0
 13 16  1  0  0  0  0
 14 16  2  0  0  0  0
 15 17  1  0  0  0  0
 16 15  1  0  0  0  0
 17 18  1  0  0  0  0
 18 19  1  0  0  0  0
 21 20  1  0  0  0  0
 21 22  1  0  0  0  0
 22 23  1  0  0  0  0
 23 24  1  0  0  0  0
 24 25  1  0  0  0  0
 25 26  1  0  0  0  0
 26 28  1  0  0  0  0
 27 28  2  0  0  0  0
 28 29  1  0  0  0  0
M  END
>  <MODEL>
2

>  <REMARK>
 VINA RESULT:      -7.7      1.820      2.295
  Name = 
  13 active torsions:
  status: ('A' for Active; 'I' for Inactive)
    1  A    between atoms: C_1  and  C_14
    2  A    between atoms: C_1  and  C_18
    3  A    between atoms: C_5  and  C_22
    4  A    between atoms: C_6  and  C_24
    5  A    between atoms: C_6  and  C_26
    6  A    between atoms: C_10  and  N_19
    7  A    between atoms: C_10  and  C_27
    8  A    between atoms: N_11  and  C_22
    9  A    between atoms: C_14  and  C_27
   10  A    between atoms: C_15  and  C_25
   11  A    between atoms: C_18  and  C_24
   12  A    between atoms: N_19  and  C_25
   13  A    between atoms: C_21  and  C_24
                            x       y       z     vdW  Elec       q    Type
                         _______ _______ _______ _____ _____    ______ ____

>  <TORSDO>
F 13

$$$$
=
 OpenBabel11042423093D

 29 30  0  0  1  0  0  0  0  0999 V2000
  161.8440  207.3250  151.6930 C   0  0  2  0  0  3  0  0  0  0  0  0
  159.9450  210.7040  154.8230 C   0  0  0  0  0  0  0  0  0  0  0  0
  160.1640  211.6990  153.8660 C   0  0  0  0  0  3  0  0  0  0  0  0
  160.7200  211.3760  152.6270 C   0  0  0  0  0  3  0  0  0  0  0  0
  160.8580  209.0390  153.2840 C   0  0  0  0  0  0  0  0  0  0  0  0
  161.0650  210.0540  152.3360 C   0  0  0  0  0  3  0  0  0  0  0  0
  160.4180  207.0420  155.2110 C   0  0  0  0  0  3  0  0  0  0  0  0
  160.9840  206.7130  153.9780 C   0  0  0  0  0  3  0  0  0  0  0  0
  160.2870  209.3700  154.5410 C   0  0  0  0  0  0  0  0  0  0  0  0
  160.0710  208.3650  155.4920 C   0  0  0  0  0  3  0  0  0  0  0  0
  161.2080  207.7000  153.0060 C   0  0  0  0  0  0  0  0  0  0  0  0
  159.3880  211.0520  156.0500 O   0  0  0  0  0  1  0  0  0  0  0  0
  160.8400  207.4350  150.5520 C   0  0  0  0  0  2  0  0  0  0  0  0
  162.1800  209.0380  149.4150 O   0  0  0  0  0  0  0  0  0  0  0  0
  161.3670  207.3380  148.0620 N   0  0  0  0  0  2  0  0  0  0  0  0
  161.4920  207.9890  149.3260 C   0  0  0  0  0  0  0  0  0  0  0  0
  160.5750  206.1300  147.8770 C   0  0  0  0  0  2  0  0  0  0  0  0
  161.3140  205.1590  146.9730 C   0  0  0  0  0  2  0  0  0  0  0  0
  162.3320  205.9010  146.1270 C   0  0  0  0  0  1  0  0  0  0  0  0
  162.4580  205.9270  151.7500 C   0  0  0  0  0  2  0  0  0  0  0  0
  161.5430  204.9040  151.0980 C   0  0  0  0  0  2  0  0  0  0  0  0
  161.4380  203.6640  151.9670 C   0  0  0  0  0  2  0  0  0  0  0  0
  160.9850  202.4800  151.1320 C   0  0  0  0  0  2  0  0  0  0  0  0
  160.7040  202.9270  149.7120 C   0  0  0  0  0  2  0  0  0  0  0  0
  160.1340  201.8250  148.9580 N   0  0  0  0  0  2  0  0  0  0  0  0
  161.2390  200.9560  148.5910 C   0  0  0  0  0  2  0  0  0  0  0  0
  161.5420  199.5500  146.6940 O   0  0  0  0  0  0  0  0  0  0  0  0
  161.1970  200.6800  147.1310 C   0  0  0  0  0  0  0  0  0  0  0  0
  160.7480  201.6850  146.2280 N   0  0  0  0  0  1  0  0  0  0  0  0
  1 13  1  6  0  0  0
  1 20  1  0  0  0  0
  1 11  1  0  0  0  0
  2 12  1  0  0  0  0
  3  2  2  0  0  0  0
  4  3  1  0  0  0  0
  5  9  1  0  0  0  0
  6  4  2  0  0  0  0
  6  5  1  0  0  0  0
  7 10  1  0  0  0  0
  8  7  2  0  0  0  0
  9  2  1  0  0  0  0
  9 10  2  0  0  0  0
 11  5  2  0  0  0  0
 11  8  1  0  0  0  0
 15 16  1  0  0  0  0
 16 14  2  0  0  0  0
 16 13  1  0  0  0  0
 17 15  1  0  0  0  0
 18 17  1  0  0  0  0
 19 18  1  0  0  0  0
 21 20  1  0  0  0  0
 21 22  1  0  0  0  0
 23 22  1  0  0  0  0
 24 23  1  0  0  0  0
 25 24  1  0  0  0  0
 26 25  1  0  0  0  0
 27 28  2  0  0  0  0
 28 26  1  0  0  0  0
 29 28  1  0  0  0  0
M  END
>  <MODEL>
3

>  <REMARK>
 VINA RESULT:      -7.7      3.232      8.696
  Name = 
  13 active torsions:
  status: ('A' for Active; 'I' for Inactive)
    1  A    between atoms: C_1  and  C_14
    2  A    between atoms: C_1  and  C_18
    3  A    between atoms: C_5  and  C_22
    4  A    between atoms: C_6  and  C_24
    5  A    between atoms: C_6  and  C_26
    6  A    between atoms: C_10  and  N_19
    7  A    between atoms: C_10  and  C_27
    8  A    between atoms: N_11  and  C_22
    9  A    between atoms: C_14  and  C_27
   10  A    between atoms: C_15  and  C_25
   11  A    between atoms: C_18  and  C_24
   12  A    between atoms: N_19  and  C_25
   13  A    between atoms: C_21  and  C_24
                            x       y       z     vdW  Elec       q    Type
                         _______ _______ _______ _____ _____    ______ ____

>  <TORSDO>
F 13

$$$$
=
 OpenBabel11042423093D

 29 30  0  0  1  0  0  0  0  0999 V2000
  161.1750  206.5620  149.9120 C   0  0  2  0  0  3  0  0  0  0  0  0
  161.0670  201.8870  148.1910 C   0  0  0  0  0  0  0  0  0  0  0  0
  160.7490  201.4330  149.4740 C   0  0  0  0  0  3  0  0  0  0  0  0
  160.6030  202.3380  150.5270 C   0  0  0  0  0  3  0  0  0  0  0  0
  161.1020  204.1840  149.0260 C   0  0  0  0  0  0  0  0  0  0  0  0
  160.7780  203.7060  150.3050 C   0  0  0  0  0  3  0  0  0  0  0  0
  161.7450  205.0930  146.4460 C   0  0  0  0  0  3  0  0  0  0  0  0
  161.6110  206.0030  147.4960 C   0  0  0  0  0  3  0  0  0  0  0  0
  161.2450  203.2620  147.9570 C   0  0  0  0  0  0  0  0  0  0  0  0
  161.5630  203.7280  146.6750 C   0  0  0  0  0  3  0  0  0  0  0  0
  161.2890  205.5630  148.7900 C   0  0  0  0  0  0  0  0  0  0  0  0
  161.2060  200.9650  147.1590 O   0  0  0  0  0  1  0  0  0  0  0  0
  162.3960  207.4720  149.9550 C   0  0  0  0  0  2  0  0  0  0  0  0
  161.7010  209.1440  148.4130 O   0  0  0  0  0  0  0  0  0  0  0  0
  162.0010  209.9090  150.5820 N   0  0  0  0  0  2  0  0  0  0  0  0
  162.0220  208.8750  149.5980 C   0  0  0  0  0  0  0  0  0  0  0  0
  162.3760  209.6780  151.9700 C   0  0  0  0  0  2  0  0  0  0  0  0
  161.4940  210.5060  152.8890 C   0  0  0  0  0  2  0  0  0  0  0  0
  160.0440  210.4050  152.4560 C   0  0  0  0  0  1  0  0  0  0  0  0
  160.9600  205.8690  151.2560 C   0  0  0  0  0  2  0  0  0  0  0  0
  162.0860  206.1970  152.2230 C   0  0  0  0  0  2  0  0  0  0  0  0
  161.6150  206.0230  153.6560 C   0  0  0  0  0  2  0  0  0  0  0  0
  160.6560  207.1380  154.0280 C   0  0  0  0  0  2  0  0  0  0  0  0
  160.5270  207.2260  155.5350 C   0  0  0  0  0  2  0  0  0  0  0  0
  161.2290  208.4020  156.0160 N   0  0  0  0  0  2  0  0  0  0  0  0
  160.3200  209.0900  156.9170 C   0  0  0  0  0  2  0  0  0  0  0  0
  158.6630  210.3250  155.7350 O   0  0  0  0  0  0  0  0  0  0  0  0
  159.8060  210.3240  156.2650 C   0  0  0  0  0  0  0  0  0  0  0  0
  160.5950  211.5080  156.2590 N   0  0  0  0  0  1  0  0  0  0  0  0
  1 13  1  1  0  0  0
  1 20  1  0  0  0  0
  2  3  1  0  0  0  0
  3  4  2  0  0  0  0
  5  6  2  0  0  0  0
  6  4  1  0  0  0  0
  7 10  2  0  0  0  0
  7  8  1  0  0  0  0
  8 11  2  0  0  0  0
  9  2  2  0  0  0  0
  9  5  1  0  0  0  0
 10  9  1  0  0  0  0
 11  5  1  0  0  0  0
 11  1  1  0  0  0  0
 12  2  1  0  0  0  0
 14 16  2  0  0  0  0
 15 17  1  0  0  0  0
 16 13  1  0  0  0  0
 16 15  1  0  0  0  0
 17 18  1  0  0  0  0
 19 18  1  0  0  0  0
 20 21  1  0  0  0  0
 21 22  1  0  0  0  0
 22 23  1  0  0  0  0
 23 24  1  0  0  0  0
 24 25  1  0  0  0  0
 25 26  1  0  0  0  0
 27 28  2  0  0  0  0
 28 26  1  0  0  0  0
 29 28  1  0  0  0  0
M  END
>  <MODEL>
4

>  <REMARK>
 VINA RESULT:      -7.6      2.413      4.965
  Name = 
  13 active torsions:
  status: ('A' for Active; 'I' for Inactive)
    1  A    between atoms: C_1  and  C_14
    2  A    between atoms: C_1  and  C_18
    3  A    between atoms: C_5  and  C_22
    4  A    between atoms: C_6  and  C_24
    5  A    between atoms: C_6  and  C_26
    6  A    between atoms: C_10  and  N_19
    7  A    between atoms: C_10  and  C_27
    8  A    between atoms: N_11  and  C_22
    9  A    between atoms: C_14  and  C_27
   10  A    between atoms: C_15  and  C_25
   11  A    between atoms: C_18  and  C_24
   12  A    between atoms: N_19  and  C_25
   13  A    between atoms: C_21  and  C_24
                            x       y       z     vdW  Elec       q    Type
                         _______ _______ _______ _____ _____    ______ ____

>  <TORSDO>
F 13

$$$$
=
 OpenBabel11042423093D

 29 30  0  0  1  0  0  0  0  0999 V2000
  161.5720  206.6090  150.5160 C   0  0  2  0  0  3  0  0  0  0  0  0
  160.9710  202.4420  147.8520 C   0  0  0  0  0  0  0  0  0  0  0  0
  160.5880  201.7660  149.0140 C   0  0  0  0  0  3  0  0  0  0  0  0
  160.5310  202.4400  150.2360 C   0  0  0  0  0  3  0  0  0  0  0  0
  161.2490  204.4940  149.1510 C   0  0  0  0  0  0  0  0  0  0  0  0
  160.8580  203.7960  150.3050 C   0  0  0  0  0  3  0  0  0  0  0  0
  162.0190  205.8480  146.8120 C   0  0  0  0  0  3  0  0  0  0  0  0
  161.9730  206.5270  148.0320 C   0  0  0  0  0  3  0  0  0  0  0  0
  161.3010  203.8070  147.9100 C   0  0  0  0  0  0  0  0  0  0  0  0
  161.6850  204.4950  146.7520 C   0  0  0  0  0  3  0  0  0  0  0  0
  161.5890  205.8630  149.2080 C   0  0  0  0  0  0  0  0  0  0  0  0
  161.0190  201.7480  146.6470 O   0  0  0  0  0  1  0  0  0  0  0  0
  162.3950  207.8880  150.4210 C   0  0  0  0  0  2  0  0  0  0  0  0
  160.9030  209.0270  151.8820 O   0  0  0  0  0  0  0  0  0  0  0  0
  161.5620  210.2640  150.0340 N   0  0  0  0  0  2  0  0  0  0  0  0
  161.5760  209.0740  150.8220 C   0  0  0  0  0  0  0  0  0  0  0  0
  162.3030  210.3880  148.7860 C   0  0  0  0  0  2  0  0  0  0  0  0
  162.5360  211.8540  148.4640 C   0  0  0  0  0  2  0  0  0  0  0  0
  161.2700  212.6530  148.7150 C   0  0  0  0  0  1  0  0  0  0  0  0
  162.0560  205.7290  151.6670 C   0  0  0  0  0  2  0  0  0  0  0  0
  161.0620  205.7420  152.8160 C   0  0  0  0  0  2  0  0  0  0  0  0
  161.6340  206.5040  153.9980 C   0  0  0  0  0  2  0  0  0  0  0  0
  160.5110  207.1000  154.8260 C   0  0  0  0  0  2  0  0  0  0  0  0
  161.0830  207.8020  156.0420 C   0  0  0  0  0  2  0  0  0  0  0  0
  160.1830  208.8620  156.4590 N   0  0  0  0  0  2  0  0  0  0  0  0
  159.9530  209.6960  155.2920 C   0  0  0  0  0  2  0  0  0  0  0  0
  161.8860  210.8390  154.5000 O   0  0  0  0  0  0  0  0  0  0  0  0
  160.9070  210.8370  155.2930 C   0  0  0  0  0  0  0  0  0  0  0  0
  160.7030  211.9360  156.1750 N   0  0  0  0  0  1  0  0  0  0  0  0
  1 13  1  6  0  0  0
  1 20  1  0  0  0  0
  2  9  2  0  0  0  0
  2  3  1  0  0  0  0
  3  4  2  0  0  0  0
  4  6  1  0  0  0  0
  5 11  1  0  0  0  0
  5  6  2  0  0  0  0
  7  8  1  0  0  0  0
  8 11  2  0  0  0  0
  9  5  1  0  0  0  0
 10  7  2  0  0  0  0
 10  9  1  0  0  0  0
 11  1  1  0  0  0  0
 12  2  1  0  0  0  0
 13 16  1  0  0  0  0
 15 16  1  0  0  0  0
 16 14  2  0  0  0  0
 17 15  1  0  0  0  0
 18 19  1  0  0  0  0
 18 17  1  0  0  0  0
 20 21  1  0  0  0  0
 21 22  1  0  0  0  0
 22 23  1  0  0  0  0
 23 24  1  0  0  0  0
 24 25  1  0  0  0  0
 26 28  1  0  0  0  0
 26 25  1  0  0  0  0
 27 28  2  0  0  0  0
 28 29  1  0  0  0  0
M  END
>  <MODEL>
5

>  <REMARK>
 VINA RESULT:      -7.1      2.171      5.327
  Name = 
  13 active torsions:
  status: ('A' for Active; 'I' for Inactive)
    1  A    between atoms: C_1  and  C_14
    2  A    between atoms: C_1  and  C_18
    3  A    between atoms: C_5  and  C_22
    4  A    between atoms: C_6  and  C_24
    5  A    between atoms: C_6  and  C_26
    6  A    between atoms: C_10  and  N_19
    7  A    between atoms: C_10  and  C_27
    8  A    between atoms: N_11  and  C_22
    9  A    between atoms: C_14  and  C_27
   10  A    between atoms: C_15  and  C_25
   11  A    between atoms: C_18  and  C_24
   12  A    between atoms: N_19  and  C_25
   13  A    between atoms: C_21  and  C_24
                            x       y       z     vdW  Elec       q    Type
                         _______ _______ _______ _____ _____    ______ ____

>  <TORSDO>
F 13

$$$$
=
 OpenBabel11042423093D

 29 30  0  0  1  0  0  0  0  0999 V2000
  160.9940  207.0670  149.4750 C   0  0  2  0  0  3  0  0  0  0  0  0
  161.0090  207.8460  154.3970 C   0  0  0  0  0  0  0  0  0  0  0  0
  160.8610  209.2170  154.1700 C   0  0  0  0  0  3  0  0  0  0  0  0
  160.7700  209.7120  152.8670 C   0  0  0  0  0  3  0  0  0  0  0  0
  160.9830  207.4560  151.9830 C   0  0  0  0  0  0  0  0  0  0  0  0
  160.8300  208.8370  151.7790 C   0  0  0  0  0  3  0  0  0  0  0  0
  161.2820  204.7010  152.4430 C   0  0  0  0  0  3  0  0  0  0  0  0
  161.2020  205.1880  151.1380 C   0  0  0  0  0  3  0  0  0  0  0  0
  161.0690  206.9570  153.3090 C   0  0  0  0  0  0  0  0  0  0  0  0
  161.2170  205.5810  153.5240 C   0  0  0  0  0  3  0  0  0  0  0  0
  161.0510  206.5630  150.8930 C   0  0  0  0  0  0  0  0  0  0  0  0
  161.0960  207.3800  155.7040 O   0  0  0  0  0  1  0  0  0  0  0  0
  160.1190  206.1650  148.6130 C   0  0  0  0  0  2  0  0  0  0  0  0
  160.8250  206.5790  146.3800 O   0  0  0  0  0  0  0  0  0  0  0  0
  161.5350  204.5480  147.2470 N   0  0  0  0  0  2  0  0  0  0  0  0
  160.8310  205.7850  147.3550 C   0  0  0  0  0  0  0  0  0  0  0  0
  161.5730  203.5710  148.3260 C   0  0  0  0  0  2  0  0  0  0  0  0
  160.8970  202.2850  147.8850 C   0  0  0  0  0  2  0  0  0  0  0  0
  160.0820  201.7030  149.0240 C   0  0  0  0  0  1  0  0  0  0  0  0
  162.3920  207.2100  148.8760 C   0  0  0  0  0  2  0  0  0  0  0  0
  162.8740  208.6490  148.9590 C   0  0  0  0  0  2  0  0  0  0  0  0
  161.8080  209.5920  148.4300 C   0  0  0  0  0  2  0  0  0  0  0  0
  161.9490  210.9560  149.0800 C   0  0  0  0  0  2  0  0  0  0  0  0
  162.8800  211.8250  148.2590 C   0  0  0  0  0  2  0  0  0  0  0  0
  162.2900  213.1390  148.0830 N   0  0  0  0  0  2  0  0  0  0  0  0
  161.7940  213.1940  146.7190 C   0  0  0  0  0  2  0  0  0  0  0  0
  159.8360  212.1990  145.7990 O   0  0  0  0  0  0  0  0  0  0  0  0
  160.3320  212.9220  146.7040 C   0  0  0  0  0  0  0  0  0  0  0  0
  159.4960  213.4610  147.7220 N   0  0  0  0  0  1  0  0  0  0  0  0
  1 13  1  6  0  0  0
  1 11  1  0  0  0  0
  2 12  1  0  0  0  0
  3  2  1  0  0  0  0
  4  3  2  0  0  0  0
  5  9  1  0  0  0  0
  6  5  2  0  0  0  0
  6  4  1  0  0  0  0
  7 10  2  0  0  0  0
  8  7  1  0  0  0  0
  9 10  1  0  0  0  0
  9  2  2  0  0  0  0
 11  8  2  0  0  0  0
 11  5  1  0  0  0  0
 14 16  2  0  0  0  0
 15 16  1  0  0  0  0
 15 17  1  0  0  0  0
 16 13  1  0  0  0  0
 18 17  1  0  0  0  0
 18 19  1  0  0  0  0
 20 21  1  0  0  0  0
 20  1  1  0  0  0  0
 22 21  1  0  0  0  0
 22 23  1  0  0  0  0
 24 23  1  0  0  0  0
 25 24  1  0  0  0  0
 26 25  1  0  0  0  0
 27 28  2  0  0  0  0
 28 26  1  0  0  0  0
 28 29  1  0  0  0  0
M  END
>  <MODEL>
6

>  <REMARK>
 VINA RESULT:      -7.1      2.426      5.998
  Name = 
  13 active torsions:
  status: ('A' for Active; 'I' for Inactive)
    1  A    between atoms: C_1  and  C_14
    2  A    between atoms: C_1  and  C_18
    3  A    between atoms: C_5  and  C_22
    4  A    between atoms: C_6  and  C_24
    5  A    between atoms: C_6  and  C_26
    6  A    between atoms: C_10  and  N_19
    7  A    between atoms: C_10  and  C_27
    8  A    between atoms: N_11  and  C_22
    9  A    between atoms: C_14  and  C_27
   10  A    between atoms: C_15  and  C_25
   11  A    between atoms: C_18  and  C_24
   12  A    between atoms: N_19  and  C_25
   13  A    between atoms: C_21  and  C_24
                            x       y       z     vdW  Elec       q    Type
                         _______ _______ _______ _____ _____    ______ ____

>  <TORSDO>
F 13

$$$$
=
 OpenBabel11042423093D

 29 30  0  0  1  0  0  0  0  0999 V2000
  161.8250  207.1610  151.1600 C   0  0  2  0  0  3  0  0  0  0  0  0
  160.1540  209.1330  155.4200 C   0  0  0  0  0  0  0  0  0  0  0  0
  160.0780  207.8510  155.9710 C   0  0  0  0  0  3  0  0  0  0  0  0
  160.4560  206.7360  155.2210 C   0  0  0  0  0  3  0  0  0  0  0  0
  160.9920  208.1730  153.3340 C   0  0  0  0  0  0  0  0  0  0  0  0
  160.9110  206.8950  153.9100 C   0  0  0  0  0  3  0  0  0  0  0  0
  161.1430  210.7510  152.2280 C   0  0  0  0  0  3  0  0  0  0  0  0
  161.5130  209.6400  151.4680 C   0  0  0  0  0  3  0  0  0  0  0  0
  160.6120  209.3040  154.1020 C   0  0  0  0  0  0  0  0  0  0  0  0
  160.6940  210.5840  153.5390 C   0  0  0  0  0  3  0  0  0  0  0  0
  161.4440  208.3460  152.0080 C   0  0  0  0  0  0  0  0  0  0  0  0
  159.7720  210.2270  156.1890 O   0  0  0  0  0  1  0  0  0  0  0  0
  160.9640  207.0940  149.9040 C   0  0  0  0  0  2  0  0  0  0  0  0
  162.1660  208.7030  148.6310 O   0  0  0  0  0  0  0  0  0  0  0  0
  162.0450  206.6040  147.6500 N   0  0  0  0  0  2  0  0  0  0  0  0
  161.7460  207.5200  148.7040 C   0  0  0  0  0  0  0  0  0  0  0  0
  161.5800  205.2240  147.6560 C   0  0  0  0  0  2  0  0  0  0  0  0
  162.3350  204.4180  146.6140 C   0  0  0  0  0  2  0  0  0  0  0  0
  161.7960  204.7190  145.2270 C   0  0  0  0  0  1  0  0  0  0  0  0
  161.7420  205.8580  151.9520 C   0  0  0  0  0  2  0  0  0  0  0  0
  161.1420  204.7450  151.1080 C   0  0  0  0  0  2  0  0  0  0  0  0
  161.2190  203.4230  151.8510 C   0  0  0  0  0  2  0  0  0  0  0  0
  161.1730  202.2690  150.8660 C   0  0  0  0  0  2  0  0  0  0  0  0
  160.3870  202.6730  149.6350 C   0  0  0  0  0  2  0  0  0  0  0  0
  160.0840  201.4940  148.8430 N   0  0  0  0  0  2  0  0  0  0  0  0
  161.3470  201.0140  148.3110 C   0  0  0  0  0  2  0  0  0  0  0  0
  161.5810  199.4500  146.5310 O   0  0  0  0  0  0  0  0  0  0  0  0
  161.1660  200.5810  146.9000 C   0  0  0  0  0  0  0  0  0  0  0  0
  160.5060  201.4350  145.9720 N   0  0  0  0  0  1  0  0  0  0  0  0
  1 13  1  6  0  0  0
  1 20  1  0  0  0  0
  1 11  1  0  0  0  0
  2  3  1  0  0  0  0
  2 12  1  0  0  0  0
  4  3  2  0  0  0  0
  5  6  2  0  0  0  0
  5  9  1  0  0  0  0
  6  4  1  0  0  0  0
  7 10  2  0  0  0  0
  8 11  2  0  0  0  0
  8  7  1  0  0  0  0
  9  2  2  0  0  0  0
 10  9  1  0  0  0  0
 11  5  1  0  0  0  0
 14 16  2  0  0  0  0
 15 17  1  0  0  0  0
 15 16  1  0  0  0  0
 16 13  1  0  0  0  0
 18 17  1  0  0  0  0
 19 18  1  0  0  0  0
 21 22  1  0  0  0  0
 21 20  1  0  0  0  0
 23 22  1  0  0  0  0
 24 23  1  0  0  0  0
 25 24  1  0  0  0  0
 26 25  1  0  0  0  0
 27 28  2  0  0  0  0
 28 26  1  0  0  0  0
 29 28  1  0  0  0  0
M  END
>  <MODEL>
7

>  <REMARK>
 VINA RESULT:      -6.9      3.157      8.849
  Name = 
  13 active torsions:
  status: ('A' for Active; 'I' for Inactive)
    1  A    between atoms: C_1  and  C_14
    2  A    between atoms: C_1  and  C_18
    3  A    between atoms: C_5  and  C_22
    4  A    between atoms: C_6  and  C_24
    5  A    between atoms: C_6  and  C_26
    6  A    between atoms: C_10  and  N_19
    7  A    between atoms: C_10  and  C_27
    8  A    between atoms: N_11  and  C_22
    9  A    between atoms: C_14  and  C_27
   10  A    between atoms: C_15  and  C_25
   11  A    between atoms: C_18  and  C_24
   12  A    between atoms: N_19  and  C_25
   13  A    between atoms: C_21  and  C_24
                            x       y       z     vdW  Elec       q    Type
                         _______ _______ _______ _____ _____    ______ ____

>  <TORSDO>
F 13

$$$$
=
 OpenBabel11042423093D

 29 30  0  0  1  0  0  0  0  0999 V2000
  161.1350  207.1510  152.2850 C   0  0  2  0  0  3  0  0  0  0  0  0
  161.1940  204.1520  148.3060 C   0  0  0  0  0  0  0  0  0  0  0  0
  161.1730  205.2740  147.4730 C   0  0  0  0  0  3  0  0  0  0  0  0
  161.1610  206.5590  148.0190 C   0  0  0  0  0  3  0  0  0  0  0  0
  161.1850  205.6190  150.2610 C   0  0  0  0  0  0  0  0  0  0  0  0
  161.1680  206.7320  149.4050 C   0  0  0  0  0  3  0  0  0  0  0  0
  161.2260  203.3610  151.9330 C   0  0  0  0  0  3  0  0  0  0  0  0
  161.2040  204.6420  152.4870 C   0  0  0  0  0  3  0  0  0  0  0  0
  161.2020  204.3150  149.7020 C   0  0  0  0  0  0  0  0  0  0  0  0
  161.2240  203.1980  150.5470 C   0  0  0  0  0  3  0  0  0  0  0  0
  161.1850  205.7790  151.6640 C   0  0  0  0  0  0  0  0  0  0  0  0
  161.2060  202.8840  147.7360 O   0  0  0  0  0  1  0  0  0  0  0  0
  162.0830  208.1060  151.5690 C   0  0  0  0  0  2  0  0  0  0  0  0
  161.1130  209.8870  152.8110 O   0  0  0  0  0  0  0  0  0  0  0  0
  161.7690  210.4660  150.6620 N   0  0  0  0  0  2  0  0  0  0  0  0
  161.6220  209.5200  151.7220 C   0  0  0  0  0  0  0  0  0  0  0  0
  162.3330  210.1110  149.3680 C   0  0  0  0  0  2  0  0  0  0  0  0
  161.9150  211.1310  148.3230 C   0  0  0  0  0  2  0  0  0  0  0  0
  162.9700  212.2140  148.1960 C   0  0  0  0  0  1  0  0  0  0  0  0
  161.4390  207.0970  153.7810 C   0  0  0  0  0  2  0  0  0  0  0  0
  160.1600  206.9510  154.5900 C   0  0  0  0  0  2  0  0  0  0  0  0
  160.2800  207.7040  155.9030 C   0  0  0  0  0  2  0  0  0  0  0  0
  161.7300  208.0700  156.1620 C   0  0  0  0  0  2  0  0  0  0  0  0
  161.8040  209.3920  156.9010 C   0  0  0  0  0  2  0  0  0  0  0  0
  161.7610  210.4850  155.9470 N   0  0  0  0  0  2  0  0  0  0  0  0
  160.9330  211.5220  156.5390 C   0  0  0  0  0  2  0  0  0  0  0  0
  159.7100  212.9550  155.0830 O   0  0  0  0  0  0  0  0  0  0  0  0
  159.7900  211.8270  155.6380 C   0  0  0  0  0  0  0  0  0  0  0  0
  158.7960  210.8380  155.3870 N   0  0  0  0  0  1  0  0  0  0  0  0
  1 13  1  6  0  0  0
  1 20  1  0  0  0  0
  2  9  1  0  0  0  0
  3  4  1  0  0  0  0
  3  2  2  0  0  0  0
  4  6  2  0  0  0  0
  5 11  1  0  0  0  0
  6  5  1  0  0  0  0
  7  8  1  0  0  0  0
  9  5  2  0  0  0  0
  9 10  1  0  0  0  0
 10  7  2  0  0  0  0
 11  1  1  0  0  0  0
 11  8  2  0  0  0  0
 12  2  1  0  0  0  0
 13 16  1  0  0  0  0
 15 16  1  0  0  0  0
 16 14  2  0  0  0  0
 17 15  1  0  0  0  0
 18 17  1  0  0  0  0
 19 18  1  0  0  0  0
 20 21  1  0  0  0  0
 21 22  1  0  0  0  0
 22 23  1  0  0  0  0
 23 24  1  0  0  0  0
 25 26  1  0  0  0  0
 25 24  1  0  0  0  0
 27 28  2  0  0  0  0
 28 26  1  0  0  0  0
 29 28  1  0  0  0  0
M  END
>  <MODEL>
8

>  <REMARK>
 VINA RESULT:      -6.7      2.547      5.452
  Name = 
  13 active torsions:
  status: ('A' for Active; 'I' for Inactive)
    1  A    between atoms: C_1  and  C_14
    2  A    between atoms: C_1  and  C_18
    3  A    between atoms: C_5  and  C_22
    4  A    between atoms: C_6  and  C_24
    5  A    between atoms: C_6  and  C_26
    6  A    between atoms: C_10  and  N_19
    7  A    between atoms: C_10  and  C_27
    8  A    between atoms: N_11  and  C_22
    9  A    between atoms: C_14  and  C_27
   10  A    between atoms: C_15  and  C_25
   11  A    between atoms: C_18  and  C_24
   12  A    between atoms: N_19  and  C_25
   13  A    between atoms: C_21  and  C_24
                            x       y       z     vdW  Elec       q    Type
                         _______ _______ _______ _____ _____    ______ ____

>  <TORSDO>
F 13

$$$$
=
 OpenBabel11042423093D

 29 30  0  0  1  0  0  0  0  0999 V2000
  160.8590  207.2960  149.9690 C   0  0  2  0  0  3  0  0  0  0  0  0
  160.8430  208.7370  154.7390 C   0  0  0  0  0  0  0  0  0  0  0  0
  160.5990  210.0510  154.3300 C   0  0  0  0  0  3  0  0  0  0  0  0
  160.4680  210.3560  152.9730 C   0  0  0  0  0  3  0  0  0  0  0  0
  160.8330  208.0210  152.4010 C   0  0  0  0  0  0  0  0  0  0  0  0
  160.5830  209.3480  152.0140 C   0  0  0  0  0  3  0  0  0  0  0  0
  161.3260  205.3810  153.2260 C   0  0  0  0  0  3  0  0  0  0  0  0
  161.2060  205.6800  151.8680 C   0  0  0  0  0  3  0  0  0  0  0  0
  160.9600  207.7150  153.7810 C   0  0  0  0  0  0  0  0  0  0  0  0
  161.2040  206.3940  154.1790 C   0  0  0  0  0  3  0  0  0  0  0  0
  160.9590  206.9940  151.4410 C   0  0  0  0  0  0  0  0  0  0  0  0
  160.9690  208.4610  156.0960 O   0  0  0  0  0  1  0  0  0  0  0  0
  160.0870  206.2020  149.2420 C   0  0  0  0  0  2  0  0  0  0  0  0
  161.5760  204.3490  149.3070 O   0  0  0  0  0  0  0  0  0  0  0  0
  161.2900  205.2720  147.1980 N   0  0  0  0  0  2  0  0  0  0  0  0
  161.0250  205.2300  148.6000 C   0  0  0  0  0  0  0  0  0  0  0  0
  160.7030  206.2730  146.3190 C   0  0  0  0  0  2  0  0  0  0  0  0
  160.5180  205.6950  144.9260 C   0  0  0  0  0  2  0  0  0  0  0  0
  161.0040  204.2580  144.8860 C   0  0  0  0  0  1  0  0  0  0  0  0
  162.2390  207.4990  149.3470 C   0  0  0  0  0  2  0  0  0  0  0  0
  162.2440  208.7030  148.4180 C   0  0  0  0  0  2  0  0  0  0  0  0
  162.3310  209.9870  149.2230 C   0  0  0  0  0  2  0  0  0  0  0  0
  161.6700  211.1230  148.4640 C   0  0  0  0  0  2  0  0  0  0  0  0
  162.7010  212.1740  148.1070 C   0  0  0  0  0  2  0  0  0  0  0  0
  162.0460  213.3010  147.4670 N   0  0  0  0  0  2  0  0  0  0  0  0
  162.5230  213.3340  146.0950 C   0  0  0  0  0  2  0  0  0  0  0  0
  160.2520  212.8050  145.6170 O   0  0  0  0  0  0  0  0  0  0  0  0
  161.4170  212.9740  145.1690 C   0  0  0  0  0  0  0  0  0  0  0  0
  161.6700  212.8390  143.7750 N   0  0  0  0  0  1  0  0  0  0  0  0
  1 13  1  6  0  0  0
  1 11  1  0  0  0  0
  2 12  1  0  0  0  0
  3  2  1  0  0  0  0
  4  3  2  0  0  0  0
  5  9  1  0  0  0  0
  6  5  2  0  0  0  0
  6  4  1  0  0  0  0
  7 10  2  0  0  0  0
  8  7  1  0  0  0  0
  9 10  1  0  0  0  0
  9  2  2  0  0  0  0
 11  8  2  0  0  0  0
 11  5  1  0  0  0  0
 15 16  1  0  0  0  0
 16 13  1  0  0  0  0
 16 14  2  0  0  0  0
 17 15  1  0  0  0  0
 18 17  1  0  0  0  0
 19 18  1  0  0  0  0
 20  1  1  0  0  0  0
 21 22  1  0  0  0  0
 21 20  1  0  0  0  0
 23 22  1  0  0  0  0
 24 23  1  0  0  0  0
 25 24  1  0  0  0  0
 26 25  1  0  0  0  0
 28 27  2  0  0  0  0
 28 26  1  0  0  0  0
 29 28  1  0  0  0  0
M  END
>  <MODEL>
9

>  <REMARK>
 VINA RESULT:      -6.7      2.639      6.593
  Name = 
  13 active torsions:
  status: ('A' for Active; 'I' for Inactive)
    1  A    between atoms: C_1  and  C_14
    2  A    between atoms: C_1  and  C_18
    3  A    between atoms: C_5  and  C_22
    4  A    between atoms: C_6  and  C_24
    5  A    between atoms: C_6  and  C_26
    6  A    between atoms: C_10  and  N_19
    7  A    between atoms: C_10  and  C_27
    8  A    between atoms: N_11  and  C_22
    9  A    between atoms: C_14  and  C_27
   10  A    between atoms: C_15  and  C_25
   11  A    between atoms: C_18  and  C_24
   12  A    between atoms: N_19  and  C_25
   13  A    between atoms: C_21  and  C_24
                            x       y       z     vdW  Elec       q    Type
                         _______ _______ _______ _____ _____    ______ ____

>  <TORSDO>
F 13

$$$$
