=
 OpenBabel11052409403D

 38 43  0  0  1  0  0  0  0  0999 V2000
  161.6190  207.7280  150.2020 C   0  0  0  0  0  0  0  0  0  0  0  0
  160.8490  206.9350  152.4860 C   0  0  2  0  0  3  0  0  0  0  0  0
  162.4070  208.7240  149.6270 C   0  0  0  0  0  3  0  0  0  0  0  0
  160.3240  204.7770  150.9750 C   0  0  1  0  0  3  0  0  0  0  0  0
  161.4650  206.6560  147.9730 C   0  0  0  0  0  0  0  0  0  0  0  0
  160.3810  204.2940  149.5700 N   0  0  0  0  0  0  0  0  0  0  0  0
  161.7230  204.9940  151.5680 C   0  0  1  0  0  3  0  0  0  0  0  0
  160.8040  203.5280  148.4680 C   0  0  0  0  0  0  0  0  0  0  0  0
  161.0960  206.6670  149.3870 C   0  0  0  0  0  0  0  0  0  0  0  0
  162.2690  207.6870  147.4720 C   0  0  0  0  0  3  0  0  0  0  0  0
  161.0200  204.3680  147.5230 C   0  0  0  0  0  0  0  0  0  0  0  0
  160.0240  205.6970  149.9640 C   0  0  2  0  0  3  0  0  0  0  0  0
  161.7070  205.8340  152.7070 O   0  0  0  0  0  0  0  0  0  0  0  0
  161.4170  207.8780  151.5860 O   0  0  0  0  0  0  0  0  0  0  0  0
  162.7250  208.7140  148.2800 C   0  0  0  0  0  3  0  0  0  0  0  0
  161.1630  205.5430  147.0000 C   0  0  0  0  0  0  0  0  0  0  0  0
  161.2340  201.1300  148.8820 C   0  0  0  0  0  0  0  0  0  0  0  0
  160.3670  201.7930  146.7420 C   0  0  0  0  0  2  0  0  0  0  0  0
  162.1760  200.0930  147.7870 S   0  0  0  0  0  0  0  0  0  0  0  0
  161.2290  200.9460  150.0890 O   0  0  0  0  0  0  0  0  0  0  0  0
  160.8510  200.3590  146.5780 C   0  0  0  0  0  2  0  0  0  0  0  0
  160.3330  202.1230  148.2310 C   0  0  2  0  0  3  0  0  0  0  0  0
  160.0420  206.3800  145.0700 O   0  0  0  0  0  0  0  0  0  0  0  0
  161.0230  205.7420  145.5370 C   0  0  0  0  0  0  0  0  0  0  0  0
  162.0200  205.1750  144.5810 C   0  0  0  0  0  1  0  0  0  0  0  0
  161.3320  202.7640  152.3180 O   0  0  0  0  0  1  0  0  0  0  0  0
  162.3350  203.6540  151.9340 C   0  0  0  0  0  2  0  0  0  0  0  0
  160.5380  207.5670  153.7280 O   0  0  0  0  0  0  0  0  0  0  0  0
  161.0600  210.8760  155.3160 C   0  0  0  0  0  3  0  0  0  0  0  0
  159.9820  211.2060  153.1770 C   0  0  0  0  0  0  0  0  0  0  0  0
  159.9850  209.8260  152.9640 C   0  0  0  0  0  3  0  0  0  0  0  0
  161.0640  209.4920  155.1110 C   0  0  0  0  0  0  0  0  0  0  0  0
  160.5210  211.7320  154.3530 C   0  0  0  0  0  3  0  0  0  0  0  0
  160.5250  208.9560  153.9260 C   0  0  0  0  0  0  0  0  0  0  0  0
  159.4610  212.0340  152.2410 F   0  0  0  0  0  0  0  0  0  0  0  0
  161.6600  208.6050  156.1570 C   0  0  0  0  0  2  0  0  0  0  0  0
  160.6580  208.3000  157.2610 C   0  0  0  0  0  2  0  0  0  0  0  0
  160.1610  206.8710  157.1550 C   0  0  0  0  0  1  0  0  0  0  0  0
  1 14  1  0  0  0  0
  2 13  1  0  0  0  0
  2 28  1  1  0  0  0
  3  1  1  0  0  0  0
  4  6  1  6  0  0  0
  4  7  1  0  0  0  0
  5  9  1  0  0  0  0
  6 12  1  0  0  0  0
  7 27  1  1  0  0  0
  7 13  1  0  0  0  0
  8  6  1  0  0  0  0
  9  1  2  0  0  0  0
 10  5  2  0  0  0  0
 10 15  1  0  0  0  0
 11  8  2  0  0  0  0
 12  9  1  6  0  0  0
 12  4  1  0  0  0  0
 14  2  1  0  0  0  0
 15  3  2  0  0  0  0
 16 11  2  0  0  0  0
 16  5  1  0  0  0  0
 17 20  2  0  0  0  0
 18 22  1  0  0  0  0
 19 17  1  0  0  0  0
 21 18  1  0  0  0  0
 21 19  1  0  0  0  0
 22  8  1  6  0  0  0
 22 17  1  0  0  0  0
 23 24  2  0  0  0  0
 24 16  1  0  0  0  0
 25 24  1  0  0  0  0
 27 26  1  0  0  0  0
 28 34  1  0  0  0  0
 30 33  1  0  0  0  0
 31 30  2  0  0  0  0
 31 34  1  0  0  0  0
 32 29  1  0  0  0  0
 32 36  1  0  0  0  0
 33 29  2  0  0  0  0
 34 32  2  0  0  0  0
 35 30  1  0  0  0  0
 36 37  1  0  0  0  0
 38 37  1  0  0  0  0
M  END
>  <MODEL>
1

>  <REMARK>
 VINA RESULT:      -6.4      0.000      0.000
  Name = 
  7 active torsions:
  status: ('A' for Active; 'I' for Inactive)
    1  A    between atoms: C_4  and  O_12
    2  A    between atoms: C_5  and  C_36
    3  A    between atoms: O_12  and  C_23
    4  A    between atoms: C_17  and  C_35
    5  A    between atoms: C_18  and  C_27
    6  A    between atoms: C_22  and  C_38
    7  A    between atoms: C_24  and  C_27
                            x       y       z     vdW  Elec       q    Type
                         _______ _______ _______ _____ _____    ______ ____

>  <TORSDO>
F 7

$$$$
=
 OpenBabel11052409403D

 38 43  0  0  1  0  0  0  0  0999 V2000
  161.2620  207.6590  153.6400 C   0  0  0  0  0  0  0  0  0  0  0  0
  161.8560  207.4120  151.1850 C   0  0  2  0  0  3  0  0  0  0  0  0
  161.5630  207.0850  154.8750 C   0  0  0  0  0  3  0  0  0  0  0  0
  160.7680  209.8680  151.2190 C   0  0  1  0  0  3  0  0  0  0  0  0
  160.0400  209.4470  154.8440 C   0  0  0  0  0  0  0  0  0  0  0  0
  160.1150  210.8430  152.1330 N   0  0  0  0  0  0  0  0  0  0  0  0
  162.2520  209.6660  151.5560 C   0  0  1  0  0  3  0  0  0  0  0  0
  159.9520  212.0210  152.8850 C   0  0  0  0  0  0  0  0  0  0  0  0
  160.4650  208.8520  153.5790 C   0  0  0  0  0  0  0  0  0  0  0  0
  160.3910  208.8160  156.0440 C   0  0  0  0  0  3  0  0  0  0  0  0
  159.5830  211.6380  154.0530 C   0  0  0  0  0  0  0  0  0  0  0  0
  159.9220  209.3570  152.2100 C   0  0  2  0  0  3  0  0  0  0  0  0
  162.7760  208.4710  151.0090 O   0  0  0  0  0  0  0  0  0  0  0  0
  161.8040  206.9740  152.5370 O   0  0  0  0  0  0  0  0  0  0  0  0
  161.1310  207.6460  156.0630 C   0  0  0  0  0  3  0  0  0  0  0  0
  159.3520  210.7810  154.9950 C   0  0  0  0  0  0  0  0  0  0  0  0
  158.0390  213.4190  152.1830 C   0  0  0  0  0  0  0  0  0  0  0  0
  160.0270  213.4240  150.8340 C   0  0  0  0  0  2  0  0  0  0  0  0
  157.3490  213.3950  150.5440 S   0  0  0  0  0  0  0  0  0  0  0  0
  157.3470  213.6350  153.1650 O   0  0  0  0  0  0  0  0  0  0  0  0
  158.9380  214.0690  149.9880 C   0  0  0  0  0  2  0  0  0  0  0  0
  159.5240  213.3210  152.2710 C   0  0  2  0  0  3  0  0  0  0  0  0
  158.9300  211.3910  157.2600 O   0  0  0  0  0  0  0  0  0  0  0  0
  158.4540  211.1230  156.1250 C   0  0  0  0  0  0  0  0  0  0  0  0
  156.9710  211.1360  155.9570 C   0  0  0  0  0  1  0  0  0  0  0  0
  162.6100  211.2170  149.7790 O   0  0  0  0  0  1  0  0  0  0  0  0
  163.0550  210.8500  151.0500 C   0  0  0  0  0  2  0  0  0  0  0  0
  162.1970  206.3230  150.3280 O   0  0  0  0  0  0  0  0  0  0  0  0
  160.5860  203.1690  149.2310 C   0  0  0  0  0  3  0  0  0  0  0  0
  160.7890  203.1370  151.6410 C   0  0  0  0  0  0  0  0  0  0  0  0
  161.3900  204.3970  151.6060 C   0  0  0  0  0  3  0  0  0  0  0  0
  161.1840  204.4330  149.1890 C   0  0  0  0  0  0  0  0  0  0  0  0
  160.3880  202.5220  150.4530 C   0  0  0  0  0  3  0  0  0  0  0  0
  161.5940  205.0570  150.3820 C   0  0  0  0  0  0  0  0  0  0  0  0
  160.6000  202.5100  152.8260 F   0  0  0  0  0  0  0  0  0  0  0  0
  161.3930  205.0930  147.8630 C   0  0  0  0  0  2  0  0  0  0  0  0
  161.9380  204.1110  146.8370 C   0  0  0  0  0  2  0  0  0  0  0  0
  162.9600  204.7840  145.9400 C   0  0  0  0  0  1  0  0  0  0  0  0
  1  3  1  0  0  0  0
  2 28  1  6  0  0  0
  2 14  1  0  0  0  0
  3 15  2  0  0  0  0
  4  7  1  0  0  0  0
  4  6  1  1  0  0  0
  4 12  1  0  0  0  0
  5 16  1  0  0  0  0
  5 10  2  0  0  0  0
  6 12  1  0  0  0  0
  6  8  1  0  0  0  0
  7 27  1  6  0  0  0
  8 11  2  0  0  0  0
  9  1  2  0  0  0  0
  9  5  1  0  0  0  0
 10 15  1  0  0  0  0
 11 16  2  0  0  0  0
 12  9  1  1  0  0  0
 13  2  1  0  0  0  0
 13  7  1  0  0  0  0
 14  1  1  0  0  0  0
 16 24  1  0  0  0  0
 17 22  1  0  0  0  0
 17 20  2  0  0  0  0
 18 22  1  0  0  0  0
 19 17  1  0  0  0  0
 21 19  1  0  0  0  0
 21 18  1  0  0  0  0
 22  8  1  6  0  0  0
 24 23  2  0  0  0  0
 25 24  1  0  0  0  0
 26 27  1  0  0  0  0
 28 34  1  0  0  0  0
 29 33  1  0  0  0  0
 30 35  1  0  0  0  0
 31 30  1  0  0  0  0
 32 29  2  0  0  0  0
 32 34  1  0  0  0  0
 33 30  2  0  0  0  0
 34 31  2  0  0  0  0
 36 32  1  0  0  0  0
 37 36  1  0  0  0  0
 38 37  1  0  0  0  0
M  END
>  <MODEL>
2

>  <REMARK>
 VINA RESULT:      -5.8      3.866      9.225
  Name = 
  7 active torsions:
  status: ('A' for Active; 'I' for Inactive)
    1  A    between atoms: C_4  and  O_12
    2  A    between atoms: C_5  and  C_36
    3  A    between atoms: O_12  and  C_23
    4  A    between atoms: C_17  and  C_35
    5  A    between atoms: C_18  and  C_27
    6  A    between atoms: C_22  and  C_38
    7  A    between atoms: C_24  and  C_27
                            x       y       z     vdW  Elec       q    Type
                         _______ _______ _______ _____ _____    ______ ____

>  <TORSDO>
F 7

$$$$
=
 OpenBabel11052409403D

 38 43  0  0  1  0  0  0  0  0999 V2000
  161.6980  207.6020  150.4720 C   0  0  0  0  0  0  0  0  0  0  0  0
  160.6070  206.7960  152.6170 C   0  0  2  0  0  3  0  0  0  0  0  0
  162.6000  208.5700  150.0310 C   0  0  0  0  0  3  0  0  0  0  0  0
  160.1720  204.7050  150.9860 C   0  0  1  0  0  3  0  0  0  0  0  0
  161.7750  206.5950  148.2090 C   0  0  0  0  0  0  0  0  0  0  0  0
  160.3830  204.2550  149.5840 N   0  0  0  0  0  0  0  0  0  0  0  0
  161.4940  204.8350  151.7560 C   0  0  1  0  0  3  0  0  0  0  0  0
  160.9050  203.4940  148.5220 C   0  0  0  0  0  0  0  0  0  0  0  0
  161.2310  206.5910  149.5660 C   0  0  0  0  0  0  0  0  0  0  0  0
  162.6850  207.5940  147.8450 C   0  0  0  0  0  3  0  0  0  0  0  0
  161.2790  204.3450  147.6370 C   0  0  0  0  0  0  0  0  0  0  0  0
  160.0490  205.6650  149.9740 C   0  0  2  0  0  3  0  0  0  0  0  0
  161.3750  205.6460  152.9090 O   0  0  0  0  0  0  0  0  0  0  0  0
  161.3310  207.7290  151.8240 O   0  0  0  0  0  0  0  0  0  0  0  0
  163.0850  208.5760  148.7350 C   0  0  0  0  0  3  0  0  0  0  0  0
  161.5450  205.5240  147.1730 C   0  0  0  0  0  0  0  0  0  0  0  0
  161.2580  201.0630  148.7870 C   0  0  0  0  0  0  0  0  0  0  0  0
  160.4550  201.8880  146.6780 C   0  0  0  0  0  2  0  0  0  0  0  0
  162.1930  200.0720  147.6450 S   0  0  0  0  0  0  0  0  0  0  0  0
  161.2210  200.8020  149.9790 O   0  0  0  0  0  0  0  0  0  0  0  0
  160.9030  200.4540  146.4300 C   0  0  0  0  0  2  0  0  0  0  0  0
  160.3990  202.1220  148.1840 C   0  0  2  0  0  3  0  0  0  0  0  0
  162.6890  205.6550  145.0860 O   0  0  0  0  0  0  0  0  0  0  0  0
  161.6000  205.7650  145.7100 C   0  0  0  0  0  0  0  0  0  0  0  0
  160.3820  206.1660  144.9460 C   0  0  0  0  0  1  0  0  0  0  0  0
  160.9030  202.6120  152.3870 O   0  0  0  0  0  1  0  0  0  0  0  0
  161.9890  203.4560  152.1530 C   0  0  0  0  0  2  0  0  0  0  0  0
  160.1730  207.4120  153.8280 O   0  0  0  0  0  0  0  0  0  0  0  0
  161.3140  210.8670  154.5420 C   0  0  0  0  0  3  0  0  0  0  0  0
  162.2940  209.3760  156.1740 C   0  0  0  0  0  0  0  0  0  0  0  0
  161.6480  208.2940  155.5720 C   0  0  0  0  0  3  0  0  0  0  0  0
  160.6670  209.7870  153.9310 C   0  0  0  0  0  0  0  0  0  0  0  0
  162.1260  210.6630  155.6610 C   0  0  0  0  0  3  0  0  0  0  0  0
  160.8300  208.4870  154.4470 C   0  0  0  0  0  0  0  0  0  0  0  0
  163.0790  209.1770  157.2600 F   0  0  0  0  0  0  0  0  0  0  0  0
  159.7950  210.0420  152.7430 C   0  0  0  0  0  2  0  0  0  0  0  0
  159.5150  211.5280  152.5710 C   0  0  0  0  0  2  0  0  0  0  0  0
  158.1700  211.8920  153.1710 C   0  0  0  0  0  1  0  0  0  0  0  0
  1 14  1  0  0  0  0
  2 13  1  0  0  0  0
  2 28  1  1  0  0  0
  3  1  1  0  0  0  0
  4  6  1  6  0  0  0
  4  7  1  0  0  0  0
  5  9  1  0  0  0  0
  6 12  1  0  0  0  0
  7 27  1  1  0  0  0
  7 13  1  0  0  0  0
  8  6  1  0  0  0  0
  9  1  2  0  0  0  0
 10  5  2  0  0  0  0
 10 15  1  0  0  0  0
 11  8  2  0  0  0  0
 12  9  1  1  0  0  0
 12  4  1  0  0  0  0
 14  2  1  0  0  0  0
 15  3  2  0  0  0  0
 16 11  2  0  0  0  0
 16  5  1  0  0  0  0
 17 20  2  0  0  0  0
 18 22  1  0  0  0  0
 19 17  1  0  0  0  0
 21 18  1  0  0  0  0
 21 19  1  0  0  0  0
 22  8  1  6  0  0  0
 22 17  1  0  0  0  0
 23 24  2  0  0  0  0
 24 16  1  0  0  0  0
 25 24  1  0  0  0  0
 27 26  1  0  0  0  0
 28 34  1  0  0  0  0
 29 33  1  0  0  0  0
 30 35  1  0  0  0  0
 31 30  1  0  0  0  0
 32 34  1  0  0  0  0
 32 29  2  0  0  0  0
 33 30  2  0  0  0  0
 34 31  2  0  0  0  0
 36 32  1  0  0  0  0
 37 36  1  0  0  0  0
 37 38  1  0  0  0  0
M  END
>  <MODEL>
3

>  <REMARK>
 VINA RESULT:      -5.8      1.403      2.264
  Name = 
  7 active torsions:
  status: ('A' for Active; 'I' for Inactive)
    1  A    between atoms: C_4  and  O_12
    2  A    between atoms: C_5  and  C_36
    3  A    between atoms: O_12  and  C_23
    4  A    between atoms: C_17  and  C_35
    5  A    between atoms: C_18  and  C_27
    6  A    between atoms: C_22  and  C_38
    7  A    between atoms: C_24  and  C_27
                            x       y       z     vdW  Elec       q    Type
                         _______ _______ _______ _____ _____    ______ ____

>  <TORSDO>
F 7

$$$$
=
 OpenBabel11052409403D

 38 43  0  0  1  0  0  0  0  0999 V2000
  161.4810  206.9330  150.5260 C   0  0  0  0  0  0  0  0  0  0  0  0
  162.2380  208.4920  148.6730 C   0  0  2  0  0  3  0  0  0  0  0  0
  160.8610  206.9790  151.7750 C   0  0  0  0  0  3  0  0  0  0  0  0
  162.2340  206.1250  147.4010 C   0  0  1  0  0  3  0  0  0  0  0  0
  161.2740  204.4640  150.5890 C   0  0  0  0  0  0  0  0  0  0  0  0
  161.9900  204.6770  147.6320 N   0  0  0  0  0  0  0  0  0  0  0  0
  160.9470  206.9530  147.5150 C   0  0  1  0  0  3  0  0  0  0  0  0
  161.3530  203.4260  147.5260 C   0  0  0  0  0  0  0  0  0  0  0  0
  161.7330  205.6660  149.8970 C   0  0  0  0  0  0  0  0  0  0  0  0
  160.6510  204.5940  151.8360 C   0  0  0  0  0  3  0  0  0  0  0  0
  161.2400  202.9920  148.7270 C   0  0  0  0  0  0  0  0  0  0  0  0
  162.6360  205.5910  148.6310 C   0  0  2  0  0  3  0  0  0  0  0  0
  161.2010  208.3290  147.7250 O   0  0  0  0  0  0  0  0  0  0  0  0
  161.8010  208.1940  149.9930 O   0  0  0  0  0  0  0  0  0  0  0  0
  160.4560  205.8290  152.4290 C   0  0  0  0  0  3  0  0  0  0  0  0
  161.2890  203.0680  150.0190 C   0  0  0  0  0  0  0  0  0  0  0  0
  160.5830  202.8840  145.2410 C   0  0  0  0  0  0  0  0  0  0  0  0
  161.2040  201.0840  146.7060 C   0  0  0  0  0  2  0  0  0  0  0  0
  159.3130  201.6910  144.8860 S   0  0  0  0  0  0  0  0  0  0  0  0
  160.7460  203.8710  144.5420 O   0  0  0  0  0  0  0  0  0  0  0  0
  160.4560  200.4460  145.5430 C   0  0  0  0  0  2  0  0  0  0  0  0
  161.5290  202.5280  146.3370 C   0  0  2  0  0  3  0  0  0  0  0  0
  162.0540  201.8210  151.9000 O   0  0  0  0  0  0  0  0  0  0  0  0
  161.3650  201.8390  150.8460 C   0  0  0  0  0  0  0  0  0  0  0  0
  160.6520  200.5910  150.4430 C   0  0  0  0  0  1  0  0  0  0  0  0
  160.9520  206.5750  145.1600 O   0  0  0  0  0  1  0  0  0  0  0  0
  160.1150  206.7770  146.2580 C   0  0  0  0  0  2  0  0  0  0  0  0
  162.7480  209.8240  148.6120 O   0  0  0  0  0  0  0  0  0  0  0  0
  160.7620  212.5800  150.0970 C   0  0  0  0  0  3  0  0  0  0  0  0
  160.7720  212.8420  147.6930 C   0  0  0  0  0  0  0  0  0  0  0  0
  161.5600  211.6950  147.5720 C   0  0  0  0  0  3  0  0  0  0  0  0
  161.5480  211.4280  149.9830 C   0  0  0  0  0  0  0  0  0  0  0  0
  160.3740  213.2860  148.9550 C   0  0  0  0  0  3  0  0  0  0  0  0
  161.9560  210.9780  148.7130 C   0  0  0  0  0  0  0  0  0  0  0  0
  160.3990  213.5260  146.5850 F   0  0  0  0  0  0  0  0  0  0  0  0
  161.9560  210.7030  151.2260 C   0  0  0  0  0  2  0  0  0  0  0  0
  160.8380  210.7030  152.2580 C   0  0  0  0  0  2  0  0  0  0  0  0
  161.3710  210.3190  153.6260 C   0  0  0  0  0  1  0  0  0  0  0  0
  1  3  1  0  0  0  0
  2 28  1  1  0  0  0
  2 14  1  0  0  0  0
  3 15  2  0  0  0  0
  4  7  1  0  0  0  0
  4  6  1  6  0  0  0
  4 12  1  0  0  0  0
  5 10  2  0  0  0  0
  6 12  1  0  0  0  0
  7 27  1  6  0  0  0
  7 13  1  0  0  0  0
  8  6  1  0  0  0  0
  8 11  2  0  0  0  0
  9  1  2  0  0  0  0
  9  5  1  0  0  0  0
 10 15  1  0  0  0  0
 11 16  2  0  0  0  0
 12  9  1  1  0  0  0
 13  2  1  0  0  0  0
 14  1  1  0  0  0  0
 16  5  1  0  0  0  0
 16 24  1  0  0  0  0
 17 22  1  0  0  0  0
 19 17  1  0  0  0  0
 19 21  1  0  0  0  0
 20 17  2  0  0  0  0
 21 18  1  0  0  0  0
 22 18  1  0  0  0  0
 22  8  1  1  0  0  0
 24 23  2  0  0  0  0
 25 24  1  0  0  0  0
 26 27  1  0  0  0  0
 28 34  1  0  0  0  0
 30 33  1  0  0  0  0
 31 30  2  0  0  0  0
 31 34  1  0  0  0  0
 32 29  1  0  0  0  0
 32 36  1  0  0  0  0
 33 29  2  0  0  0  0
 34 32  2  0  0  0  0
 35 30  1  0  0  0  0
 36 37  1  0  0  0  0
 37 38  1  0  0  0  0
M  END
>  <MODEL>
4

>  <REMARK>
 VINA RESULT:      -4.5      2.429      4.952
  Name = 
  7 active torsions:
  status: ('A' for Active; 'I' for Inactive)
    1  A    between atoms: C_4  and  O_12
    2  A    between atoms: C_5  and  C_36
    3  A    between atoms: O_12  and  C_23
    4  A    between atoms: C_17  and  C_35
    5  A    between atoms: C_18  and  C_27
    6  A    between atoms: C_22  and  C_38
    7  A    between atoms: C_24  and  C_27
                            x       y       z     vdW  Elec       q    Type
                         _______ _______ _______ _____ _____    ______ ____

>  <TORSDO>
F 7

$$$$
=
 OpenBabel11052409403D

 38 43  0  0  1  0  0  0  0  0999 V2000
  161.5700  207.2140  150.6830 C   0  0  0  0  0  0  0  0  0  0  0  0
  162.2300  208.7780  148.7960 C   0  0  2  0  0  3  0  0  0  0  0  0
  160.9920  207.2550  151.9510 C   0  0  0  0  0  3  0  0  0  0  0  0
  162.2370  206.4030  147.5390 C   0  0  1  0  0  3  0  0  0  0  0  0
  161.4210  204.7420  150.7680 C   0  0  0  0  0  0  0  0  0  0  0  0
  162.0340  204.9510  147.7870 N   0  0  0  0  0  0  0  0  0  0  0  0
  160.9360  207.2030  147.6920 C   0  0  1  0  0  3  0  0  0  0  0  0
  161.4220  203.6860  147.7090 C   0  0  0  0  0  0  0  0  0  0  0  0
  161.8300  205.9490  150.0530 C   0  0  0  0  0  0  0  0  0  0  0  0
  160.8370  204.8660  152.0340 C   0  0  0  0  0  3  0  0  0  0  0  0
  161.3580  203.2570  148.9170 C   0  0  0  0  0  0  0  0  0  0  0  0
  162.6910  205.8860  148.7590 C   0  0  2  0  0  3  0  0  0  0  0  0
  161.1660  208.5850  147.8850 O   0  0  0  0  0  0  0  0  0  0  0  0
  161.8440  208.4790  150.1320 O   0  0  0  0  0  0  0  0  0  0  0  0
  160.6350  206.1010  152.6260 C   0  0  0  0  0  3  0  0  0  0  0  0
  161.4490  203.3430  150.2050 C   0  0  0  0  0  0  0  0  0  0  0  0
  161.1700  203.4680  145.2610 C   0  0  0  0  0  0  0  0  0  0  0  0
  160.6580  201.5730  146.6460 C   0  0  0  0  0  2  0  0  0  0  0  0
  159.7040  202.8450  144.4710 S   0  0  0  0  0  0  0  0  0  0  0  0
  161.8700  204.3160  144.7310 O   0  0  0  0  0  0  0  0  0  0  0  0
  160.0820  201.2620  145.2710 C   0  0  0  0  0  2  0  0  0  0  0  0
  161.5770  202.7830  146.5210 C   0  0  2  0  0  3  0  0  0  0  0  0
  162.3470  202.1090  152.0360 O   0  0  0  0  0  0  0  0  0  0  0  0
  161.5800  202.1210  151.0370 C   0  0  0  0  0  0  0  0  0  0  0  0
  160.8300  200.8750  150.7030 C   0  0  0  0  0  1  0  0  0  0  0  0
  160.8710  206.7880  145.3440 O   0  0  0  0  0  1  0  0  0  0  0  0
  160.0670  206.9990  146.4640 C   0  0  0  0  0  2  0  0  0  0  0  0
  162.7080  210.1200  148.7100 O   0  0  0  0  0  0  0  0  0  0  0  0
  161.2500  213.5290  148.6630 C   0  0  0  0  0  3  0  0  0  0  0  0
  160.4720  212.3820  150.6440 C   0  0  0  0  0  0  0  0  0  0  0  0
  161.2030  211.2510  150.2760 C   0  0  0  0  0  3  0  0  0  0  0  0
  161.9880  212.4000  148.2890 C   0  0  0  0  0  0  0  0  0  0  0  0
  160.4940  213.5210  149.8370 C   0  0  0  0  0  3  0  0  0  0  0  0
  161.9670  211.2470  149.0970 C   0  0  0  0  0  0  0  0  0  0  0  0
  159.7370  212.3720  151.7820 F   0  0  0  0  0  0  0  0  0  0  0  0
  162.7770  212.4370  147.0190 C   0  0  0  0  0  2  0  0  0  0  0  0
  162.1120  213.3280  145.9800 C   0  0  0  0  0  2  0  0  0  0  0  0
  162.9040  213.3280  144.6870 C   0  0  0  0  0  1  0  0  0  0  0  0
  1  3  1  0  0  0  0
  2 28  1  1  0  0  0
  2 14  1  0  0  0  0
  3 15  2  0  0  0  0
  4  7  1  0  0  0  0
  4  6  1  6  0  0  0
  4 12  1  0  0  0  0
  5 10  2  0  0  0  0
  6 12  1  0  0  0  0
  7 27  1  6  0  0  0
  7 13  1  0  0  0  0
  8  6  1  0  0  0  0
  8 11  2  0  0  0  0
  9  1  2  0  0  0  0
  9  5  1  0  0  0  0
 10 15  1  0  0  0  0
 11 16  2  0  0  0  0
 12  9  1  1  0  0  0
 13  2  1  0  0  0  0
 14  1  1  0  0  0  0
 16  5  1  0  0  0  0
 16 24  1  0  0  0  0
 17 22  1  0  0  0  0
 19 17  1  0  0  0  0
 19 21  1  0  0  0  0
 20 17  2  0  0  0  0
 21 18  1  0  0  0  0
 22 18  1  0  0  0  0
 22  8  1  1  0  0  0
 24 23  2  0  0  0  0
 25 24  1  0  0  0  0
 26 27  1  0  0  0  0
 28 34  1  0  0  0  0
 29 33  1  0  0  0  0
 30 35  1  0  0  0  0
 31 30  1  0  0  0  0
 32 29  2  0  0  0  0
 32 34  1  0  0  0  0
 33 30  2  0  0  0  0
 34 31  2  0  0  0  0
 36 32  1  0  0  0  0
 37 36  1  0  0  0  0
 38 37  1  0  0  0  0
M  END
>  <MODEL>
5

>  <REMARK>
 VINA RESULT:      -4.4      2.634      5.762
  Name = 
  7 active torsions:
  status: ('A' for Active; 'I' for Inactive)
    1  A    between atoms: C_4  and  O_12
    2  A    between atoms: C_5  and  C_36
    3  A    between atoms: O_12  and  C_23
    4  A    between atoms: C_17  and  C_35
    5  A    between atoms: C_18  and  C_27
    6  A    between atoms: C_22  and  C_38
    7  A    between atoms: C_24  and  C_27
                            x       y       z     vdW  Elec       q    Type
                         _______ _______ _______ _____ _____    ______ ____

>  <TORSDO>
F 7

$$$$
=
 OpenBabel11052409403D

 38 43  0  0  1  0  0  0  0  0999 V2000
  160.7470  208.5330  155.0140 C   0  0  0  0  0  0  0  0  0  0  0  0
  161.6260  207.4670  152.8860 C   0  0  2  0  0  3  0  0  0  0  0  0
  160.8640  208.4100  156.3980 C   0  0  0  0  0  3  0  0  0  0  0  0
  160.6650  209.7950  151.9500 C   0  0  1  0  0  3  0  0  0  0  0  0
  159.4750  210.6290  155.3760 C   0  0  0  0  0  0  0  0  0  0  0  0
  159.9540  211.0240  152.3890 N   0  0  0  0  0  0  0  0  0  0  0  0
  162.0850  209.7110  152.5290 C   0  0  1  0  0  3  0  0  0  0  0  0
  159.7580  212.3880  152.6750 C   0  0  0  0  0  0  0  0  0  0  0  0
  160.0230  209.6390  154.4510 C   0  0  0  0  0  0  0  0  0  0  0  0
  159.6440  210.4400  156.7530 C   0  0  0  0  0  3  0  0  0  0  0  0
  159.2290  212.4260  153.8430 C   0  0  0  0  0  0  0  0  0  0  0  0
  159.6790  209.6530  152.9330 C   0  0  2  0  0  3  0  0  0  0  0  0
  162.6120  208.3990  152.4890 O   0  0  0  0  0  0  0  0  0  0  0  0
  161.3860  207.5130  154.2870 O   0  0  0  0  0  0  0  0  0  0  0  0
  160.3160  209.3420  157.2610 C   0  0  0  0  0  3  0  0  0  0  0  0
  158.8410  211.9390  154.9780 C   0  0  0  0  0  0  0  0  0  0  0  0
  158.0110  213.5240  151.3450 C   0  0  0  0  0  0  0  0  0  0  0  0
  160.0960  212.9780  150.2830 C   0  0  0  0  0  2  0  0  0  0  0  0
  157.4540  212.9540  149.7560 S   0  0  0  0  0  0  0  0  0  0  0  0
  157.2610  214.0980  152.1180 O   0  0  0  0  0  0  0  0  0  0  0  0
  159.1260  213.3260  149.1620 C   0  0  0  0  0  2  0  0  0  0  0  0
  159.4740  213.4050  151.6090 C   0  0  2  0  0  3  0  0  0  0  0  0
  158.0850  213.7770  156.2930 O   0  0  0  0  0  0  0  0  0  0  0  0
  157.8280  212.6480  155.7980 C   0  0  0  0  0  0  0  0  0  0  0  0
  156.4950  212.0370  156.0780 C   0  0  0  0  0  1  0  0  0  0  0  0
  162.4810  210.8930  150.4960 O   0  0  0  0  0  1  0  0  0  0  0  0
  163.0020  210.6500  151.7670 C   0  0  0  0  0  2  0  0  0  0  0  0
  162.0160  206.1500  152.4970 O   0  0  0  0  0  0  0  0  0  0  0  0
  161.1910  205.4430  148.9520 C   0  0  0  0  0  3  0  0  0  0  0  0
  160.4440  203.5840  150.3060 C   0  0  0  0  0  0  0  0  0  0  0  0
  160.9180  204.2280  151.4510 C   0  0  0  0  0  3  0  0  0  0  0  0
  161.6650  206.0960  150.0950 C   0  0  0  0  0  0  0  0  0  0  0  0
  160.5810  204.1900  149.0560 C   0  0  0  0  0  3  0  0  0  0  0  0
  161.5330  205.4880  151.3580 C   0  0  0  0  0  0  0  0  0  0  0  0
  159.8550  202.3680  150.4090 F   0  0  0  0  0  0  0  0  0  0  0  0
  162.3240  207.4310  149.9470 C   0  0  0  0  0  2  0  0  0  0  0  0
  162.4910  207.8050  148.4810 C   0  0  0  0  0  2  0  0  0  0  0  0
  161.5840  208.9650  148.1170 C   0  0  0  0  0  1  0  0  0  0  0  0
  1  3  1  0  0  0  0
  2 28  1  1  0  0  0
  2 14  1  0  0  0  0
  3 15  2  0  0  0  0
  4  6  1  1  0  0  0
  4  7  1  0  0  0  0
  4 12  1  0  0  0  0
  5 10  2  0  0  0  0
  6  8  1  0  0  0  0
  6 12  1  0  0  0  0
  7 27  1  6  0  0  0
  8 11  2  0  0  0  0
  9  1  2  0  0  0  0
  9  5  1  0  0  0  0
 10 15  1  0  0  0  0
 11 16  2  0  0  0  0
 12  9  1  1  0  0  0
 13  7  1  0  0  0  0
 13  2  1  0  0  0  0
 14  1  1  0  0  0  0
 16  5  1  0  0  0  0
 16 24  1  0  0  0  0
 17 22  1  0  0  0  0
 17 20  2  0  0  0  0
 18 22  1  0  0  0  0
 19 17  1  0  0  0  0
 21 19  1  0  0  0  0
 21 18  1  0  0  0  0
 22  8  1  1  0  0  0
 24 25  1  0  0  0  0
 24 23  2  0  0  0  0
 26 27  1  0  0  0  0
 29 33  2  0  0  0  0
 29 32  1  0  0  0  0
 30 35  1  0  0  0  0
 30 31  2  0  0  0  0
 32 34  2  0  0  0  0
 33 30  1  0  0  0  0
 34 31  1  0  0  0  0
 34 28  1  0  0  0  0
 36 32  1  0  0  0  0
 37 36  1  0  0  0  0
 38 37  1  0  0  0  0
M  END
>  <MODEL>
6

>  <REMARK>
 VINA RESULT:      -4.4      3.942      9.092
  Name = 
  7 active torsions:
  status: ('A' for Active; 'I' for Inactive)
    1  A    between atoms: C_4  and  O_12
    2  A    between atoms: C_5  and  C_36
    3  A    between atoms: O_12  and  C_23
    4  A    between atoms: C_17  and  C_35
    5  A    between atoms: C_18  and  C_27
    6  A    between atoms: C_22  and  C_38
    7  A    between atoms: C_24  and  C_27
                            x       y       z     vdW  Elec       q    Type
                         _______ _______ _______ _____ _____    ______ ____

>  <TORSDO>
F 7

$$$$
=
 OpenBabel11052409403D

 38 43  0  0  1  0  0  0  0  0999 V2000
  161.5780  208.2020  151.2980 C   0  0  0  0  0  0  0  0  0  0  0  0
  162.4290  209.7090  149.4430 C   0  0  2  0  0  3  0  0  0  0  0  0
  160.8650  208.2790  152.4950 C   0  0  0  0  0  3  0  0  0  0  0  0
  162.5880  207.2950  148.2750 C   0  0  1  0  0  3  0  0  0  0  0  0
  161.4370  205.7330  151.4500 C   0  0  0  0  0  0  0  0  0  0  0  0
  162.3680  205.8500  148.5480 N   0  0  0  0  0  0  0  0  0  0  0  0
  161.2730  208.0860  148.2580 C   0  0  1  0  0  3  0  0  0  0  0  0
  161.7760  204.5770  148.4470 C   0  0  0  0  0  0  0  0  0  0  0  0
  161.9130  206.9200  150.7440 C   0  0  0  0  0  0  0  0  0  0  0  0
  160.7170  205.8930  152.6410 C   0  0  0  0  0  3  0  0  0  0  0  0
  161.5840  204.1870  149.6550 C   0  0  0  0  0  0  0  0  0  0  0  0
  162.9100  206.8230  149.5530 C   0  0  2  0  0  3  0  0  0  0  0  0
  161.4720  209.4770  148.4290 O   0  0  0  0  0  0  0  0  0  0  0  0
  161.9020  209.4510  150.7380 O   0  0  0  0  0  0  0  0  0  0  0  0
  160.4440  207.1450  153.1650 C   0  0  0  0  0  3  0  0  0  0  0  0
  161.5340  204.3160  150.9420 C   0  0  0  0  0  0  0  0  0  0  0  0
  162.1240  204.3590  146.0110 C   0  0  0  0  0  0  0  0  0  0  0  0
  160.9430  202.6150  147.1680 C   0  0  0  0  0  2  0  0  0  0  0  0
  160.8210  203.9950  144.8570 S   0  0  0  0  0  0  0  0  0  0  0  0
  163.0760  205.0560  145.7000 O   0  0  0  0  0  0  0  0  0  0  0  0
  160.6920  202.3860  145.6830 C   0  0  0  0  0  2  0  0  0  0  0  0
  162.0660  203.6380  147.3140 C   0  0  2  0  0  3  0  0  0  0  0  0
  160.7510  202.9900  152.7600 O   0  0  0  0  0  0  0  0  0  0  0  0
  161.5820  203.1240  151.8240 C   0  0  0  0  0  0  0  0  0  0  0  0
  162.6240  202.0710  151.6420 C   0  0  0  0  0  1  0  0  0  0  0  0
  159.9370  206.5780  146.9820 O   0  0  0  0  0  1  0  0  0  0  0  0
  160.5430  207.8340  146.9510 C   0  0  0  0  0  2  0  0  0  0  0  0
  162.9050  211.0530  149.3640 O   0  0  0  0  0  0  0  0  0  0  0  0
  160.7520  213.7950  148.1010 C   0  0  0  0  0  3  0  0  0  0  0  0
  162.3570  213.2190  146.3870 C   0  0  0  0  0  0  0  0  0  0  0  0
  162.8990  212.2420  147.2240 C   0  0  0  0  0  3  0  0  0  0  0  0
  161.2880  212.8150  148.9440 C   0  0  0  0  0  0  0  0  0  0  0  0
  161.2840  213.9970  146.8260 C   0  0  0  0  0  3  0  0  0  0  0  0
  162.3720  212.0300  148.5090 C   0  0  0  0  0  0  0  0  0  0  0  0
  162.8750  213.4150  145.1510 F   0  0  0  0  0  0  0  0  0  0  0  0
  160.7030  212.6320  150.3080 C   0  0  0  0  0  2  0  0  0  0  0  0
  159.3590  213.3360  150.4320 C   0  0  0  0  0  2  0  0  0  0  0  0
  159.2180  213.9870  151.7960 C   0  0  0  0  0  1  0  0  0  0  0  0
  1  3  1  0  0  0  0
  2 28  1  1  0  0  0
  2 14  1  0  0  0  0
  3 15  2  0  0  0  0
  4  6  1  6  0  0  0
  4 12  1  0  0  0  0
  5 10  2  0  0  0  0
  6 12  1  0  0  0  0
  7 27  1  6  0  0  0
  7  4  1  0  0  0  0
  7 13  1  0  0  0  0
  8  6  1  0  0  0  0
  8 11  2  0  0  0  0
  9  1  2  0  0  0  0
  9  5  1  0  0  0  0
 10 15  1  0  0  0  0
 11 16  2  0  0  0  0
 12  9  1  1  0  0  0
 13  2  1  0  0  0  0
 14  1  1  0  0  0  0
 16  5  1  0  0  0  0
 16 24  1  0  0  0  0
 17 22  1  0  0  0  0
 18 22  1  0  0  0  0
 19 21  1  0  0  0  0
 19 17  1  0  0  0  0
 20 17  2  0  0  0  0
 21 18  1  0  0  0  0
 22  8  1  1  0  0  0
 24 23  2  0  0  0  0
 25 24  1  0  0  0  0
 27 26  1  0  0  0  0
 29 32  1  0  0  0  0
 30 33  1  0  0  0  0
 30 31  2  0  0  0  0
 31 34  1  0  0  0  0
 32 36  1  0  0  0  0
 33 29  2  0  0  0  0
 34 32  2  0  0  0  0
 34 28  1  0  0  0  0
 35 30  1  0  0  0  0
 36 37  1  0  0  0  0
 37 38  1  0  0  0  0
M  END
>  <MODEL>
7

>  <REMARK>
 VINA RESULT:      -3.8      2.993      5.655
  Name = 
  7 active torsions:
  status: ('A' for Active; 'I' for Inactive)
    1  A    between atoms: C_4  and  O_12
    2  A    between atoms: C_5  and  C_36
    3  A    between atoms: O_12  and  C_23
    4  A    between atoms: C_17  and  C_35
    5  A    between atoms: C_18  and  C_27
    6  A    between atoms: C_22  and  C_38
    7  A    between atoms: C_24  and  C_27
                            x       y       z     vdW  Elec       q    Type
                         _______ _______ _______ _____ _____    ______ ____

>  <TORSDO>
F 7

$$$$
=
 OpenBabel11052409403D

 38 43  0  0  1  0  0  0  0  0999 V2000
  160.9810  205.7670  151.5830 C   0  0  0  0  0  0  0  0  0  0  0  0
  160.7580  205.3640  149.0880 C   0  0  2  0  0  3  0  0  0  0  0  0
  161.2080  205.0600  152.7640 C   0  0  0  0  0  3  0  0  0  0  0  0
  161.1910  208.0150  149.1560 C   0  0  1  0  0  3  0  0  0  0  0  0
  161.2220  207.8690  152.8740 C   0  0  0  0  0  0  0  0  0  0  0  0
  161.3930  209.1400  150.1070 N   0  0  0  0  0  0  0  0  0  0  0  0
  162.3680  207.0300  149.1680 C   0  0  1  0  0  3  0  0  0  0  0  0
  162.0650  210.1810  150.7740 C   0  0  0  0  0  0  0  0  0  0  0  0
  160.9540  207.2040  151.6010 C   0  0  0  0  0  0  0  0  0  0  0  0
  161.4510  207.0880  154.0140 C   0  0  0  0  0  3  0  0  0  0  0  0
  161.8340  209.9990  152.0230 C   0  0  0  0  0  0  0  0  0  0  0  0
  160.4620  207.9890  150.3510 C   0  0  2  0  0  3  0  0  0  0  0  0
  162.0290  205.7690  148.6210 O   0  0  0  0  0  0  0  0  0  0  0  0
  160.7980  204.9550  150.4500 O   0  0  0  0  0  0  0  0  0  0  0  0
  161.4330  205.7050  153.9660 C   0  0  0  0  0  3  0  0  0  0  0  0
  161.4090  209.3540  153.0620 C   0  0  0  0  0  0  0  0  0  0  0  0
  160.9690  212.2470  149.9760 C   0  0  0  0  0  0  0  0  0  0  0  0
  162.8690  211.4090  148.7680 C   0  0  0  0  0  2  0  0  0  0  0  0
  160.4540  212.5040  148.2930 S   0  0  0  0  0  0  0  0  0  0  0  0
  160.3620  212.7410  150.9120 O   0  0  0  0  0  0  0  0  0  0  0  0
  162.2150  212.4450  147.8640 C   0  0  0  0  0  2  0  0  0  0  0  0
  162.2660  211.5370  150.1630 C   0  0  2  0  0  3  0  0  0  0  0  0
  162.0690  210.4640  155.0650 O   0  0  0  0  0  0  0  0  0  0  0  0
  161.1260  210.0670  154.3310 C   0  0  0  0  0  0  0  0  0  0  0  0
  159.7240  210.3130  154.7830 C   0  0  0  0  0  1  0  0  0  0  0  0
  163.0720  208.5930  147.5100 O   0  0  0  0  0  1  0  0  0  0  0  0
  163.5340  207.6200  148.3970 C   0  0  0  0  0  2  0  0  0  0  0  0
  160.2540  204.3070  148.2720 O   0  0  0  0  0  0  0  0  0  0  0  0
  161.5810  201.0110  147.2140 C   0  0  0  0  0  3  0  0  0  0  0  0
  161.1800  200.9540  149.5980 C   0  0  0  0  0  0  0  0  0  0  0  0
  160.7310  202.2760  149.5520 C   0  0  0  0  0  3  0  0  0  0  0  0
  161.1290  202.3340  147.1600 C   0  0  0  0  0  0  0  0  0  0  0  0
  161.6070  200.3210  148.4280 C   0  0  0  0  0  3  0  0  0  0  0  0
  160.7010  202.9780  148.3360 C   0  0  0  0  0  0  0  0  0  0  0  0
  161.2070  200.2880  150.7770 F   0  0  0  0  0  0  0  0  0  0  0  0
  161.1260  203.0470  145.8450 C   0  0  0  0  0  2  0  0  0  0  0  0
  162.3400  203.9540  145.7060 C   0  0  0  0  0  2  0  0  0  0  0  0
  161.9280  205.3270  145.2070 C   0  0  0  0  0  1  0  0  0  0  0  0
  1  9  2  0  0  0  0
  1  3  1  0  0  0  0
  2 28  1  6  0  0  0
  2 14  1  0  0  0  0
  3 15  2  0  0  0  0
  4  7  1  0  0  0  0
  4  6  1  1  0  0  0
  4 12  1  0  0  0  0
  5 16  1  0  0  0  0
  5 10  2  0  0  0  0
  6 12  1  0  0  0  0
  6  8  1  0  0  0  0
  7 27  1  6  0  0  0
  8 11  2  0  0  0  0
  9  5  1  0  0  0  0
 11 16  2  0  0  0  0
 12  9  1  1  0  0  0
 13  2  1  0  0  0  0
 13  7  1  0  0  0  0
 14  1  1  0  0  0  0
 15 10  1  0  0  0  0
 16 24  1  0  0  0  0
 17 22  1  0  0  0  0
 17 20  2  0  0  0  0
 18 22  1  0  0  0  0
 19 17  1  0  0  0  0
 21 19  1  0  0  0  0
 21 18  1  0  0  0  0
 22  8  1  6  0  0  0
 24 25  1  0  0  0  0
 24 23  2  0  0  0  0
 26 27  1  0  0  0  0
 28 34  1  0  0  0  0
 29 33  1  0  0  0  0
 30 35  1  0  0  0  0
 31 30  1  0  0  0  0
 32 29  2  0  0  0  0
 32 34  1  0  0  0  0
 33 30  2  0  0  0  0
 34 31  2  0  0  0  0
 36 32  1  0  0  0  0
 37 36  1  0  0  0  0
 38 37  1  0  0  0  0
M  END
>  <MODEL>
8

>  <REMARK>
 VINA RESULT:      -3.7      3.645      8.793
  Name = 
  7 active torsions:
  status: ('A' for Active; 'I' for Inactive)
    1  A    between atoms: C_4  and  O_12
    2  A    between atoms: C_5  and  C_36
    3  A    between atoms: O_12  and  C_23
    4  A    between atoms: C_17  and  C_35
    5  A    between atoms: C_18  and  C_27
    6  A    between atoms: C_22  and  C_38
    7  A    between atoms: C_24  and  C_27
                            x       y       z     vdW  Elec       q    Type
                         _______ _______ _______ _____ _____    ______ ____

>  <TORSDO>
F 7

$$$$
=
 OpenBabel11052409403D

 38 43  0  0  1  0  0  0  0  0999 V2000
  161.8520  209.1490  150.0890 C   0  0  0  0  0  0  0  0  0  0  0  0
  161.1090  209.1610  152.5150 C   0  0  2  0  0  3  0  0  0  0  0  0
  162.6560  209.8790  149.2140 C   0  0  0  0  0  3  0  0  0  0  0  0
  160.4890  206.6500  151.7870 C   0  0  1  0  0  3  0  0  0  0  0  0
  161.6190  207.4220  148.3270 C   0  0  0  0  0  0  0  0  0  0  0  0
  160.5020  205.7390  150.6120 N   0  0  0  0  0  0  0  0  0  0  0  0
  161.9070  206.9990  152.2630 C   0  0  1  0  0  3  0  0  0  0  0  0
  160.8800  204.6440  149.8120 C   0  0  0  0  0  0  0  0  0  0  0  0
  161.2810  207.9000  149.6650 C   0  0  0  0  0  0  0  0  0  0  0  0
  162.4420  208.2090  147.5110 C   0  0  0  0  0  3  0  0  0  0  0  0
  161.0990  205.1270  148.6440 C   0  0  0  0  0  0  0  0  0  0  0  0
  160.1950  207.2050  150.5360 C   0  0  2  0  0  3  0  0  0  0  0  0
  161.9390  208.1610  153.0700 O   0  0  0  0  0  0  0  0  0  0  0  0
  161.6850  209.7430  151.3520 O   0  0  0  0  0  0  0  0  0  0  0  0
  162.9450  209.4250  147.9390 C   0  0  0  0  0  3  0  0  0  0  0  0
  161.2650  206.0660  147.7680 C   0  0  0  0  0  0  0  0  0  0  0  0
  160.8830  202.6900  151.3240 C   0  0  0  0  0  0  0  0  0  0  0  0
  160.8540  202.3120  148.9520 C   0  0  0  0  0  2  0  0  0  0  0  0
  162.0160  201.3280  151.1740 S   0  0  0  0  0  0  0  0  0  0  0  0
  160.4570  203.0500  152.4100 O   0  0  0  0  0  0  0  0  0  0  0  0
  161.2050  200.9750  149.5900 C   0  0  0  0  0  2  0  0  0  0  0  0
  160.3640  203.2550  150.0460 C   0  0  2  0  0  3  0  0  0  0  0  0
  160.0840  206.2040  145.7030 O   0  0  0  0  0  0  0  0  0  0  0  0
  161.0990  205.7870  146.3200 C   0  0  0  0  0  0  0  0  0  0  0  0
  162.1110  204.9900  145.5660 C   0  0  0  0  0  1  0  0  0  0  0  0
  161.5810  205.4040  154.0050 O   0  0  0  0  0  1  0  0  0  0  0  0
  162.4880  205.8280  153.0340 C   0  0  0  0  0  2  0  0  0  0  0  0
  160.8430  210.1690  153.4900 O   0  0  0  0  0  0  0  0  0  0  0  0
  157.7390  211.8890  154.5640 C   0  0  0  0  0  3  0  0  0  0  0  0
  158.3270  212.6650  152.3500 C   0  0  0  0  0  0  0  0  0  0  0  0
  159.4460  211.8300  152.3560 C   0  0  0  0  0  3  0  0  0  0  0  0
  158.8570  211.0470  154.5750 C   0  0  0  0  0  0  0  0  0  0  0  0
  157.4730  212.6960  153.4550 C   0  0  0  0  0  3  0  0  0  0  0  0
  159.7230  211.0140  153.4660 C   0  0  0  0  0  0  0  0  0  0  0  0
  158.0720  213.4480  151.2750 F   0  0  0  0  0  0  0  0  0  0  0  0
  159.1180  210.2060  155.7830 C   0  0  0  0  0  2  0  0  0  0  0  0
  160.1460  210.8550  156.6980 C   0  0  0  0  0  2  0  0  0  0  0  0
  161.1710  209.8370  157.1630 C   0  0  0  0  0  1  0  0  0  0  0  0
  1 14  1  0  0  0  0
  2 13  1  0  0  0  0
  2 28  1  1  0  0  0
  3  1  2  0  0  0  0
  4  6  1  6  0  0  0
  4  7  1  0  0  0  0
  5  9  2  0  0  0  0
  7 27  1  1  0  0  0
  7 13  1  0  0  0  0
  8  6  1  0  0  0  0
  9  1  1  0  0  0  0
 10 15  2  0  0  0  0
 10  5  1  0  0  0  0
 11  8  2  0  0  0  0
 12  9  1  6  0  0  0
 12  6  1  0  0  0  0
 12  4  1  0  0  0  0
 14  2  1  0  0  0  0
 15  3  1  0  0  0  0
 16  5  1  0  0  0  0
 16 11  2  0  0  0  0
 17 20  2  0  0  0  0
 18 21  1  0  0  0  0
 18 22  1  0  0  0  0
 19 17  1  0  0  0  0
 21 19  1  0  0  0  0
 22  8  1  6  0  0  0
 22 17  1  0  0  0  0
 23 24  2  0  0  0  0
 24 16  1  0  0  0  0
 25 24  1  0  0  0  0
 27 26  1  0  0  0  0
 29 32  1  0  0  0  0
 30 31  2  0  0  0  0
 30 33  1  0  0  0  0
 31 34  1  0  0  0  0
 32 36  1  0  0  0  0
 33 29  2  0  0  0  0
 34 28  1  0  0  0  0
 34 32  2  0  0  0  0
 35 30  1  0  0  0  0
 36 37  1  0  0  0  0
 37 38  1  0  0  0  0
M  END
>  <MODEL>
9

>  <REMARK>
 VINA RESULT:      -3.7      1.667      2.267
  Name = 
  7 active torsions:
  status: ('A' for Active; 'I' for Inactive)
    1  A    between atoms: C_4  and  O_12
    2  A    between atoms: C_5  and  C_36
    3  A    between atoms: O_12  and  C_23
    4  A    between atoms: C_17  and  C_35
    5  A    between atoms: C_18  and  C_27
    6  A    between atoms: C_22  and  C_38
    7  A    between atoms: C_24  and  C_27
                            x       y       z     vdW  Elec       q    Type
                         _______ _______ _______ _____ _____    ______ ____

>  <TORSDO>
F 7

$$$$
