=
 OpenBabel11042420433D

 27 29  0  0  1  0  0  0  0  0999 V2000
  160.4190  204.7060  150.3310 C   0  0  2  0  0  3  0  0  0  0  0  0
  161.1230  205.4440  152.6400 C   0  0  0  0  0  3  0  0  0  0  0  0
  161.4950  202.7090  150.2810 C   0  0  1  0  0  3  0  0  0  0  0  0
  161.0200  203.7670  149.4680 O   0  0  0  0  0  0  0  0  0  0  0  0
  161.4800  203.1370  151.7350 C   0  0  0  0  0  2  0  0  0  0  0  0
  160.7540  206.1230  149.9310 C   0  0  0  0  0  0  0  0  0  0  0  0
  160.8500  204.4200  151.6840 N   0  0  0  0  0  0  0  0  0  0  0  0
  161.1650  206.7110  152.2310 C   0  0  0  0  0  0  0  0  0  0  0  0
  161.0310  207.0200  150.8340 N   0  0  0  0  0  0  0  0  0  0  0  0
  161.5040  210.8660  156.0210 C   0  0  0  0  0  1  0  0  0  0  0  0
  160.6760  207.6080  154.3720 O   0  0  0  0  0  0  0  0  0  0  0  0
  161.4990  210.2460  153.6130 C   0  0  1  0  0  3  0  0  0  0  0  0
  161.1540  209.1590  152.6010 C   0  0  0  0  0  2  0  0  0  0  0  0
  161.1960  208.4700  155.3560 C   0  0  2  0  0  3  0  0  0  0  0  0
  161.0330  211.4650  153.1580 F   0  0  0  0  0  0  0  0  0  0  0  0
  160.6150  208.1610  156.5860 O   0  0  0  0  0  1  0  0  0  0  0  0
  160.9000  209.9320  154.9880 C   0  0  1  0  0  3  0  0  0  0  0  0
  161.4550  207.7920  153.2160 C   0  0  2  0  0  3  0  0  0  0  0  0
  160.6750  201.4380  150.0670 C   0  0  0  0  0  2  0  0  0  0  0  0
  160.1570  201.3630  148.7450 O   0  0  0  0  0  0  0  0  0  0  0  0
  160.8240  201.6130  146.5050 C   0  0  0  0  0  2  0  0  0  0  0  0
  160.9820  201.0220  147.6790 C   0  0  0  0  0  3  0  0  0  0  0  0
  160.5720  206.5500  148.5120 C   0  0  0  0  0  2  0  0  0  0  0  0
  161.8930  206.6380  147.8190 C   0  0  0  0  0  0  0  0  0  0  0  0
  162.7180  207.4600  148.1830 O   0  0  0  0  0  0  0  0  0  0  0  0
  162.2500  205.5740  146.4230 S   0  0  0  0  0  0  0  0  0  0  0  0
  160.6980  206.0090  145.5900 C   0  0  0  0  0  1  0  0  0  0  0  0
  1  4  1  6  0  0  0
  1  7  1  0  0  0  0
  3 19  1  1  0  0  0
  3  5  1  0  0  0  0
  4  3  1  0  0  0  0
  6  1  1  0  0  0  0
  6  9  2  0  0  0  0
  7  5  1  0  0  0  0
  7  2  1  0  0  0  0
  8  2  2  0  0  0  0
  9  8  1  0  0  0  0
 11 14  1  0  0  0  0
 12 15  1  6  0  0  0
 12 17  1  0  0  0  0
 13 18  1  0  0  0  0
 13 12  1  0  0  0  0
 14 16  1  1  0  0  0
 17 14  1  0  0  0  0
 17 10  1  1  0  0  0
 18  8  1  6  0  0  0
 18 11  1  0  0  0  0
 20 19  1  0  0  0  0
 21 22  2  0  0  0  0
 22 20  1  0  0  0  0
 23  6  1  0  0  0  0
 24 25  2  0  0  0  0
 24 23  1  0  0  0  0
 26 24  1  0  0  0  0
 27 26  1  0  0  0  0
M  END
>  <MODEL>
1

>  <REMARK>
 VINA RESULT:      -7.4      0.000      0.000
  Name = 
  7 active torsions:
  status: ('A' for Active; 'I' for Inactive)
    1  A    between atoms: C_2  and  S_4
    2  A    between atoms: C_2  and  C_15
    3  A    between atoms: C_8  and  O_26
    4  A    between atoms: C_10  and  C_14
    5  A    between atoms: C_14  and  O_26
    6  A    between atoms: C_15  and  C_19
    7  A    between atoms: C_21  and  C_23
                            x       y       z     vdW  Elec       q    Type
                         _______ _______ _______ _____ _____    ______ ____

>  <TORSDO>
F 7

$$$$
=
 OpenBabel11042420433D

 27 29  0  0  1  0  0  0  0  0999 V2000
  161.5750  205.6890  149.3110 C   0  0  2  0  0  3  0  0  0  0  0  0
  162.0720  207.8860  150.4510 C   0  0  0  0  0  3  0  0  0  0  0  0
  161.0980  206.4920  147.2420 C   0  0  1  0  0  3  0  0  0  0  0  0
  160.8250  205.4350  148.1440 O   0  0  0  0  0  0  0  0  0  0  0  0
  161.7940  207.6200  147.9760 C   0  0  0  0  0  2  0  0  0  0  0  0
  160.7820  205.3840  150.5590 C   0  0  0  0  0  0  0  0  0  0  0  0
  162.0050  207.0720  149.2790 N   0  0  0  0  0  0  0  0  0  0  0  0
  161.5460  207.4260  151.5840 C   0  0  0  0  0  0  0  0  0  0  0  0
  160.8430  206.1720  151.5940 N   0  0  0  0  0  0  0  0  0  0  0  0
  160.9890  210.5800  156.2200 C   0  0  0  0  0  1  0  0  0  0  0  0
  160.7350  207.7420  153.7910 O   0  0  0  0  0  0  0  0  0  0  0  0
  161.3080  210.5500  153.7540 C   0  0  1  0  0  3  0  0  0  0  0  0
  161.2020  209.7060  152.4880 C   0  0  0  0  0  2  0  0  0  0  0  0
  161.0420  208.3920  155.0000 C   0  0  2  0  0  3  0  0  0  0  0  0
  160.7480  211.7930  153.5270 F   0  0  0  0  0  0  0  0  0  0  0  0
  160.3790  207.7470  156.0450 O   0  0  0  0  0  1  0  0  0  0  0  0
  160.6120  209.8650  154.9350 C   0  0  1  0  0  3  0  0  0  0  0  0
  161.6010  208.2670  152.8140 C   0  0  2  0  0  3  0  0  0  0  0  0
  161.9290  206.0050  146.0560 C   0  0  0  0  0  2  0  0  0  0  0  0
  161.1170  205.7500  144.9160 O   0  0  0  0  0  0  0  0  0  0  0  0
  161.2450  203.4290  145.2650 C   0  0  0  0  0  2  0  0  0  0  0  0
  160.7640  204.4500  144.5730 C   0  0  0  0  0  3  0  0  0  0  0  0
  160.0810  204.0720  150.6840 C   0  0  0  0  0  2  0  0  0  0  0  0
  161.0560  202.9860  151.0050 C   0  0  0  0  0  0  0  0  0  0  0  0
  161.9920  203.2110  151.7550 O   0  0  0  0  0  0  0  0  0  0  0  0
  160.8840  201.3700  150.2520 S   0  0  0  0  0  0  0  0  0  0  0  0
  160.7060  202.0730  148.5890 C   0  0  0  0  0  1  0  0  0  0  0  0
  1  4  1  6  0  0  0
  1  6  1  0  0  0  0
  2  8  2  0  0  0  0
  3 19  1  6  0  0  0
  3  5  1  0  0  0  0
  3  4  1  0  0  0  0
  5  7  1  0  0  0  0
  6 23  1  0  0  0  0
  6  9  2  0  0  0  0
  7  1  1  0  0  0  0
  7  2  1  0  0  0  0
  8  9  1  0  0  0  0
 11 14  1  0  0  0  0
 12 15  1  6  0  0  0
 12 17  1  0  0  0  0
 13 18  1  0  0  0  0
 13 12  1  0  0  0  0
 14 16  1  1  0  0  0
 17 14  1  0  0  0  0
 17 10  1  1  0  0  0
 18  8  1  6  0  0  0
 18 11  1  0  0  0  0
 20 19  1  0  0  0  0
 22 20  1  0  0  0  0
 22 21  2  0  0  0  0
 23 24  1  0  0  0  0
 24 25  2  0  0  0  0
 26 24  1  0  0  0  0
 27 26  1  0  0  0  0
M  END
>  <MODEL>
2

>  <REMARK>
 VINA RESULT:      -7.2      1.851      3.458
  Name = 
  7 active torsions:
  status: ('A' for Active; 'I' for Inactive)
    1  A    between atoms: C_2  and  S_4
    2  A    between atoms: C_2  and  C_15
    3  A    between atoms: C_8  and  O_26
    4  A    between atoms: C_10  and  C_14
    5  A    between atoms: C_14  and  O_26
    6  A    between atoms: C_15  and  C_19
    7  A    between atoms: C_21  and  C_23
                            x       y       z     vdW  Elec       q    Type
                         _______ _______ _______ _____ _____    ______ ____

>  <TORSDO>
F 7

$$$$
=
 OpenBabel11042420433D

 27 29  0  0  1  0  0  0  0  0999 V2000
  161.2030  208.2650  153.8980 C   0  0  2  0  0  3  0  0  0  0  0  0
  161.3230  205.7930  153.3960 C   0  0  0  0  0  3  0  0  0  0  0  0
  159.9270  208.1580  155.7720 C   0  0  1  0  0  3  0  0  0  0  0  0
  160.2610  208.9780  154.6670 O   0  0  0  0  0  0  0  0  0  0  0  0
  160.4310  206.7500  155.5310 C   0  0  0  0  0  2  0  0  0  0  0  0
  160.9380  208.4080  152.4190 C   0  0  0  0  0  0  0  0  0  0  0  0
  161.1670  206.8770  154.3120 N   0  0  0  0  0  0  0  0  0  0  0  0
  161.3130  206.0510  152.0890 C   0  0  0  0  0  0  0  0  0  0  0  0
  161.0570  207.3860  151.6200 N   0  0  0  0  0  0  0  0  0  0  0  0
  161.1550  201.9260  148.2540 C   0  0  0  0  0  1  0  0  0  0  0  0
  160.9020  205.2890  149.8810 O   0  0  0  0  0  0  0  0  0  0  0  0
  160.9930  202.5330  150.6600 C   0  0  1  0  0  3  0  0  0  0  0  0
  160.7840  203.6720  151.6530 C   0  0  0  0  0  2  0  0  0  0  0  0
  161.3270  204.3280  148.9440 C   0  0  2  0  0  3  0  0  0  0  0  0
  160.2050  201.4560  151.0210 F   0  0  0  0  0  0  0  0  0  0  0  0
  160.9910  204.7630  147.6620 O   0  0  0  0  0  1  0  0  0  0  0  0
  160.6590  202.9750  149.2320 C   0  0  1  0  0  3  0  0  0  0  0  0
  161.4670  204.9300  151.1180 C   0  0  2  0  0  3  0  0  0  0  0  0
  160.4840  208.7340  157.0730 C   0  0  0  0  0  2  0  0  0  0  0  0
  161.9060  208.7330  157.0820 O   0  0  0  0  0  0  0  0  0  0  0  0
  163.0020  210.6190  156.2080 C   0  0  0  0  0  2  0  0  0  0  0  0
  162.6150  209.9150  157.2600 C   0  0  0  0  0  3  0  0  0  0  0  0
  160.7340  209.7670  151.8360 C   0  0  0  0  0  2  0  0  0  0  0  0
  161.9820  210.2400  151.1640 C   0  0  0  0  0  0  0  0  0  0  0  0
  163.0330  210.2700  151.7830 O   0  0  0  0  0  0  0  0  0  0  0  0
  161.9290  210.8130  149.4670 S   0  0  0  0  0  0  0  0  0  0  0  0
  162.0600  209.1270  148.8090 C   0  0  0  0  0  1  0  0  0  0  0  0
  1  6  1  6  0  0  0
  1  7  1  0  0  0  0
  1  4  1  0  0  0  0
  2  7  1  0  0  0  0
  3 19  1  1  0  0  0
  4  3  1  0  0  0  0
  5  3  1  0  0  0  0
  7  5  1  0  0  0  0
  8  2  2  0  0  0  0
  9  8  1  0  0  0  0
  9  6  2  0  0  0  0
 11 18  1  0  0  0  0
 12 15  1  1  0  0  0
 12 13  1  0  0  0  0
 14 16  1  6  0  0  0
 14 17  1  0  0  0  0
 14 11  1  0  0  0  0
 17 10  1  6  0  0  0
 17 12  1  0  0  0  0
 18 13  1  0  0  0  0
 18  8  1  1  0  0  0
 19 20  1  0  0  0  0
 20 22  1  0  0  0  0
 21 22  2  0  0  0  0
 23  6  1  0  0  0  0
 24 25  2  0  0  0  0
 24 23  1  0  0  0  0
 26 24  1  0  0  0  0
 27 26  1  0  0  0  0
M  END
>  <MODEL>
3

>  <REMARK>
 VINA RESULT:      -7.2      2.963      7.505
  Name = 
  7 active torsions:
  status: ('A' for Active; 'I' for Inactive)
    1  A    between atoms: C_2  and  S_4
    2  A    between atoms: C_2  and  C_15
    3  A    between atoms: C_8  and  O_26
    4  A    between atoms: C_10  and  C_14
    5  A    between atoms: C_14  and  O_26
    6  A    between atoms: C_15  and  C_19
    7  A    between atoms: C_21  and  C_23
                            x       y       z     vdW  Elec       q    Type
                         _______ _______ _______ _____ _____    ______ ____

>  <TORSDO>
F 7

$$$$
=
 OpenBabel11042420433D

 27 29  0  0  1  0  0  0  0  0999 V2000
  162.0730  209.8920  150.8980 C   0  0  2  0  0  3  0  0  0  0  0  0
  161.6000  207.4930  150.2720 C   0  0  0  0  0  3  0  0  0  0  0  0
  160.4850  210.1330  152.5020 C   0  0  1  0  0  3  0  0  0  0  0  0
  161.2350  210.8360  151.5280 O   0  0  0  0  0  0  0  0  0  0  0  0
  160.6170  208.6420  152.2690 C   0  0  0  0  0  2  0  0  0  0  0  0
  162.1430  210.1180  149.4080 C   0  0  0  0  0  0  0  0  0  0  0  0
  161.5780  208.5680  151.2120 N   0  0  0  0  0  0  0  0  0  0  0  0
  161.9100  207.7540  149.0050 C   0  0  0  0  0  0  0  0  0  0  0  0
  162.1260  209.1120  148.5810 N   0  0  0  0  0  0  0  0  0  0  0  0
  161.2300  203.5340  145.3340 C   0  0  0  0  0  1  0  0  0  0  0  0
  160.9330  206.8540  147.0390 O   0  0  0  0  0  0  0  0  0  0  0  0
  161.7690  204.1870  147.6720 C   0  0  1  0  0  3  0  0  0  0  0  0
  161.7000  205.3050  148.7070 C   0  0  0  0  0  2  0  0  0  0  0  0
  161.1890  205.9520  145.9900 C   0  0  2  0  0  3  0  0  0  0  0  0
  161.3510  203.0010  148.2460 F   0  0  0  0  0  0  0  0  0  0  0  0
  160.3750  206.2740  144.9040 O   0  0  0  0  0  1  0  0  0  0  0  0
  160.9070  204.5130  146.4480 C   0  0  1  0  0  3  0  0  0  0  0  0
  161.9310  206.6450  148.0080 C   0  0  2  0  0  3  0  0  0  0  0  0
  160.9200  210.5160  153.9160 C   0  0  0  0  0  2  0  0  0  0  0  0
  161.2000  209.3690  154.7070 O   0  0  0  0  0  0  0  0  0  0  0  0
  159.9490  207.8800  156.0270 C   0  0  0  0  0  2  0  0  0  0  0  0
  160.4500  209.0910  155.8440 C   0  0  0  0  0  3  0  0  0  0  0  0
  162.4370  211.4850  148.8830 C   0  0  0  0  0  2  0  0  0  0  0  0
  161.1950  212.1140  148.3400 C   0  0  0  0  0  0  0  0  0  0  0  0
  160.7540  211.7570  147.2600 O   0  0  0  0  0  0  0  0  0  0  0  0
  160.3810  213.4280  149.2460 S   0  0  0  0  0  0  0  0  0  0  0  0
  159.0870  213.6070  147.9870 C   0  0  0  0  0  1  0  0  0  0  0  0
  1  6  1  6  0  0  0
  1  7  1  0  0  0  0
  1  4  1  0  0  0  0
  2  7  1  0  0  0  0
  3 19  1  1  0  0  0
  4  3  1  0  0  0  0
  5  3  1  0  0  0  0
  7  5  1  0  0  0  0
  8  2  2  0  0  0  0
  9  8  1  0  0  0  0
  9  6  2  0  0  0  0
 11 18  1  0  0  0  0
 12 15  1  1  0  0  0
 12 13  1  0  0  0  0
 14 16  1  6  0  0  0
 14 17  1  0  0  0  0
 14 11  1  0  0  0  0
 17 10  1  6  0  0  0
 17 12  1  0  0  0  0
 18 13  1  0  0  0  0
 18  8  1  1  0  0  0
 19 20  1  0  0  0  0
 20 22  1  0  0  0  0
 22 21  2  0  0  0  0
 23  6  1  0  0  0  0
 24 23  1  0  0  0  0
 24 26  1  0  0  0  0
 25 24  2  0  0  0  0
 27 26  1  0  0  0  0
M  END
>  <MODEL>
4

>  <REMARK>
 VINA RESULT:      -7.1      3.795      7.966
  Name = 
  7 active torsions:
  status: ('A' for Active; 'I' for Inactive)
    1  A    between atoms: C_2  and  S_4
    2  A    between atoms: C_2  and  C_15
    3  A    between atoms: C_8  and  O_26
    4  A    between atoms: C_10  and  C_14
    5  A    between atoms: C_14  and  O_26
    6  A    between atoms: C_15  and  C_19
    7  A    between atoms: C_21  and  C_23
                            x       y       z     vdW  Elec       q    Type
                         _______ _______ _______ _____ _____    ______ ____

>  <TORSDO>
F 7

$$$$
=
 OpenBabel11042420433D

 27 29  0  0  1  0  0  0  0  0999 V2000
  160.6380  208.3110  153.2900 C   0  0  2  0  0  3  0  0  0  0  0  0
  160.9610  207.2390  151.0270 C   0  0  0  0  0  3  0  0  0  0  0  0
  161.4990  210.3550  152.8110 C   0  0  1  0  0  3  0  0  0  0  0  0
  161.2950  209.4220  153.8570 O   0  0  0  0  0  0  0  0  0  0  0  0
  161.2510  209.6850  151.4750 C   0  0  0  0  0  2  0  0  0  0  0  0
  161.1840  207.0090  153.8260 C   0  0  0  0  0  0  0  0  0  0  0  0
  160.7740  208.3910  151.8500 N   0  0  0  0  0  0  0  0  0  0  0  0
  161.2070  206.0670  151.6080 C   0  0  0  0  0  0  0  0  0  0  0  0
  161.3730  205.9920  153.0350 N   0  0  0  0  0  0  0  0  0  0  0  0
  161.2550  201.5810  148.1990 C   0  0  0  0  0  1  0  0  0  0  0  0
  160.9240  205.0890  149.4650 O   0  0  0  0  0  0  0  0  0  0  0  0
  160.9530  202.4240  150.5180 C   0  0  1  0  0  3  0  0  0  0  0  0
  160.6910  203.6560  151.3790 C   0  0  0  0  0  2  0  0  0  0  0  0
  161.3990  204.0400  148.6560 C   0  0  2  0  0  3  0  0  0  0  0  0
  160.1390  201.3880  150.9370 F   0  0  0  0  0  0  0  0  0  0  0  0
  161.1430  204.3450  147.3190 O   0  0  0  0  0  1  0  0  0  0  0  0
  160.7070  202.7230  149.0360 C   0  0  1  0  0  3  0  0  0  0  0  0
  161.4120  204.8550  150.7640 C   0  0  2  0  0  3  0  0  0  0  0  0
  160.6110  211.5860  152.9900 C   0  0  0  0  0  2  0  0  0  0  0  0
  159.2360  211.2730  152.8070 O   0  0  0  0  0  0  0  0  0  0  0  0
  158.2510  211.1430  154.9370 C   0  0  0  0  0  2  0  0  0  0  0  0
  158.2850  211.6880  153.7310 C   0  0  0  0  0  3  0  0  0  0  0  0
  161.3190  206.8190  155.3010 C   0  0  0  0  0  2  0  0  0  0  0  0
  160.1150  207.3510  156.0090 C   0  0  0  0  0  0  0  0  0  0  0  0
  159.0130  206.8850  155.7700 O   0  0  0  0  0  0  0  0  0  0  0  0
  160.2800  208.7040  157.1710 S   0  0  0  0  0  0  0  0  0  0  0  0
  162.0880  208.7210  157.0210 C   0  0  0  0  0  1  0  0  0  0  0  0
  1  6  1  1  0  0  0
  1  4  1  0  0  0  0
  2  8  2  0  0  0  0
  2  7  1  0  0  0  0
  3 19  1  1  0  0  0
  3  4  1  0  0  0  0
  5  7  1  0  0  0  0
  5  3  1  0  0  0  0
  6 23  1  0  0  0  0
  7  1  1  0  0  0  0
  8  9  1  0  0  0  0
  9  6  2  0  0  0  0
 11 18  1  0  0  0  0
 12 15  1  1  0  0  0
 12 13  1  0  0  0  0
 14 16  1  6  0  0  0
 14 17  1  0  0  0  0
 14 11  1  0  0  0  0
 17 10  1  6  0  0  0
 17 12  1  0  0  0  0
 18 13  1  0  0  0  0
 18  8  1  1  0  0  0
 20 19  1  0  0  0  0
 20 22  1  0  0  0  0
 22 21  2  0  0  0  0
 23 24  1  0  0  0  0
 24 26  1  0  0  0  0
 25 24  2  0  0  0  0
 27 26  1  0  0  0  0
M  END
>  <MODEL>
5

>  <REMARK>
 VINA RESULT:      -6.7      3.521      8.373
  Name = 
  7 active torsions:
  status: ('A' for Active; 'I' for Inactive)
    1  A    between atoms: C_2  and  S_4
    2  A    between atoms: C_2  and  C_15
    3  A    between atoms: C_8  and  O_26
    4  A    between atoms: C_10  and  C_14
    5  A    between atoms: C_14  and  O_26
    6  A    between atoms: C_15  and  C_19
    7  A    between atoms: C_21  and  C_23
                            x       y       z     vdW  Elec       q    Type
                         _______ _______ _______ _____ _____    ______ ____

>  <TORSDO>
F 7

$$$$
=
 OpenBabel11042420433D

 27 29  0  0  1  0  0  0  0  0999 V2000
  161.4910  205.3940  149.4970 C   0  0  2  0  0  3  0  0  0  0  0  0
  161.6020  207.5770  150.7610 C   0  0  0  0  0  3  0  0  0  0  0  0
  161.1570  206.2350  147.4160 C   0  0  1  0  0  3  0  0  0  0  0  0
  160.9100  205.1130  148.2430 O   0  0  0  0  0  0  0  0  0  0  0  0
  161.6330  207.3970  148.2630 C   0  0  0  0  0  2  0  0  0  0  0  0
  160.6050  204.9450  150.6340 C   0  0  0  0  0  0  0  0  0  0  0  0
  161.7600  206.8150  149.5630 N   0  0  0  0  0  0  0  0  0  0  0  0
  161.0100  207.0090  151.8090 C   0  0  0  0  0  0  0  0  0  0  0  0
  160.4600  205.6850  151.6960 N   0  0  0  0  0  0  0  0  0  0  0  0
  161.0750  209.8330  156.6840 C   0  0  0  0  0  1  0  0  0  0  0  0
  161.8670  208.7340  153.1940 O   0  0  0  0  0  0  0  0  0  0  0  0
  160.6040  207.6770  155.5390 C   0  0  1  0  0  3  0  0  0  0  0  0
  160.8310  206.8560  154.2740 C   0  0  0  0  0  2  0  0  0  0  0  0
  161.4910  209.6170  154.2230 C   0  0  2  0  0  3  0  0  0  0  0  0
  160.8150  206.8820  156.6500 F   0  0  0  0  0  0  0  0  0  0  0  0
  162.3660  210.7030  154.2340 O   0  0  0  0  0  1  0  0  0  0  0  0
  161.5290  208.8970  155.5800 C   0  0  1  0  0  3  0  0  0  0  0  0
  160.8310  207.7920  153.0660 C   0  0  2  0  0  3  0  0  0  0  0  0
  162.1650  205.8980  146.3180 C   0  0  0  0  0  2  0  0  0  0  0  0
  161.5450  205.8290  145.0400 O   0  0  0  0  0  0  0  0  0  0  0  0
  161.2070  203.5130  145.2610 C   0  0  0  0  0  2  0  0  0  0  0  0
  161.1050  204.6120  144.5310 C   0  0  0  0  0  3  0  0  0  0  0  0
  160.0500  203.5580  150.6320 C   0  0  0  0  0  2  0  0  0  0  0  0
  161.1400  202.5590  150.8470 C   0  0  0  0  0  0  0  0  0  0  0  0
  161.9880  202.7570  151.7010 O   0  0  0  0  0  0  0  0  0  0  0  0
  161.2340  201.0960  149.8170 S   0  0  0  0  0  0  0  0  0  0  0  0
  160.0800  201.7810  148.5960 C   0  0  0  0  0  1  0  0  0  0  0  0
  1  4  1  6  0  0  0
  1  7  1  0  0  0  0
  1  6  1  0  0  0  0
  2  8  2  0  0  0  0
  3 19  1  6  0  0  0
  3  4  1  0  0  0  0
  3  5  1  0  0  0  0
  5  7  1  0  0  0  0
  6  9  2  0  0  0  0
  7  2  1  0  0  0  0
  9  8  1  0  0  0  0
 11 14  1  0  0  0  0
 12 17  1  0  0  0  0
 12 15  1  1  0  0  0
 13 12  1  0  0  0  0
 14 16  1  1  0  0  0
 14 17  1  0  0  0  0
 17 10  1  1  0  0  0
 18  8  1  6  0  0  0
 18 11  1  0  0  0  0
 18 13  1  0  0  0  0
 20 19  1  0  0  0  0
 22 20  1  0  0  0  0
 22 21  2  0  0  0  0
 23  6  1  0  0  0  0
 23 24  1  0  0  0  0
 24 25  2  0  0  0  0
 26 24  1  0  0  0  0
 27 26  1  0  0  0  0
M  END
>  <MODEL>
6

>  <REMARK>
 VINA RESULT:      -6.6      2.284      3.821
  Name = 
  7 active torsions:
  status: ('A' for Active; 'I' for Inactive)
    1  A    between atoms: C_2  and  S_4
    2  A    between atoms: C_2  and  C_15
    3  A    between atoms: C_8  and  O_26
    4  A    between atoms: C_10  and  C_14
    5  A    between atoms: C_14  and  O_26
    6  A    between atoms: C_15  and  C_19
    7  A    between atoms: C_21  and  C_23
                            x       y       z     vdW  Elec       q    Type
                         _______ _______ _______ _____ _____    ______ ____

>  <TORSDO>
F 7

$$$$
=
 OpenBabel11042420433D

 27 29  0  0  1  0  0  0  0  0999 V2000
  160.8690  204.3670  148.6340 C   0  0  2  0  0  3  0  0  0  0  0  0
  160.4610  205.1360  151.0040 C   0  0  0  0  0  3  0  0  0  0  0  0
  161.4970  202.2330  149.0840 C   0  0  1  0  0  3  0  0  0  0  0  0
  161.6560  203.2960  148.1620 O   0  0  0  0  0  0  0  0  0  0  0  0
  160.8420  202.7490  150.3480 C   0  0  0  0  0  2  0  0  0  0  0  0
  161.5780  205.6900  148.4770 C   0  0  0  0  0  0  0  0  0  0  0  0
  160.5320  204.1050  150.0180 N   0  0  0  0  0  0  0  0  0  0  0  0
  160.8990  206.3540  150.6920 C   0  0  0  0  0  0  0  0  0  0  0  0
  161.5170  206.5920  149.4160 N   0  0  0  0  0  0  0  0  0  0  0  0
  161.4370  210.4300  154.5440 C   0  0  0  0  0  1  0  0  0  0  0  0
  161.7410  208.4650  151.3720 O   0  0  0  0  0  0  0  0  0  0  0  0
  161.0730  208.0070  154.1210 C   0  0  1  0  0  3  0  0  0  0  0  0
  161.1840  206.8850  153.0940 C   0  0  0  0  0  2  0  0  0  0  0  0
  161.4350  209.5660  152.1930 C   0  0  2  0  0  3  0  0  0  0  0  0
  161.5870  207.5770  155.3300 F   0  0  0  0  0  0  0  0  0  0  0  0
  162.1390  210.6820  151.7390 O   0  0  0  0  0  1  0  0  0  0  0  0
  161.8130  209.2630  153.6500 C   0  0  1  0  0  3  0  0  0  0  0  0
  160.8390  207.4400  151.7120 C   0  0  2  0  0  3  0  0  0  0  0  0
  160.6960  201.0860  148.4700 C   0  0  0  0  0  2  0  0  0  0  0  0
  161.4040  200.4610  147.4070 O   0  0  0  0  0  0  0  0  0  0  0  0
  160.3940  201.5770  145.6020 C   0  0  0  0  0  2  0  0  0  0  0  0
  160.8910  200.4620  146.1150 C   0  0  0  0  0  3  0  0  0  0  0  0
  162.1840  206.0500  147.1610 C   0  0  0  0  0  2  0  0  0  0  0  0
  161.1510  206.0130  146.0820 C   0  0  0  0  0  0  0  0  0  0  0  0
  160.0830  206.5790  146.2420 O   0  0  0  0  0  0  0  0  0  0  0  0
  161.4590  205.0950  144.5740 S   0  0  0  0  0  0  0  0  0  0  0  0
  162.9700  204.3450  145.2410 C   0  0  0  0  0  1  0  0  0  0  0  0
  1  4  1  1  0  0  0
  1  7  1  0  0  0  0
  3 19  1  6  0  0  0
  3  5  1  0  0  0  0
  4  3  1  0  0  0  0
  6  1  1  0  0  0  0
  6  9  2  0  0  0  0
  7  5  1  0  0  0  0
  7  2  1  0  0  0  0
  8  2  2  0  0  0  0
  9  8  1  0  0  0  0
 11 18  1  0  0  0  0
 11 14  1  0  0  0  0
 12 15  1  1  0  0  0
 13 12  1  0  0  0  0
 14 16  1  6  0  0  0
 14 17  1  0  0  0  0
 17 12  1  0  0  0  0
 17 10  1  1  0  0  0
 18  8  1  6  0  0  0
 18 13  1  0  0  0  0
 20 19  1  0  0  0  0
 21 22  2  0  0  0  0
 22 20  1  0  0  0  0
 23  6  1  0  0  0  0
 24 25  2  0  0  0  0
 24 23  1  0  0  0  0
 26 27  1  0  0  0  0
 26 24  1  0  0  0  0
M  END
>  <MODEL>
7

>  <REMARK>
 VINA RESULT:      -6.5      2.002      2.437
  Name = 
  7 active torsions:
  status: ('A' for Active; 'I' for Inactive)
    1  A    between atoms: C_2  and  S_4
    2  A    between atoms: C_2  and  C_15
    3  A    between atoms: C_8  and  O_26
    4  A    between atoms: C_10  and  C_14
    5  A    between atoms: C_14  and  O_26
    6  A    between atoms: C_15  and  C_19
    7  A    between atoms: C_21  and  C_23
                            x       y       z     vdW  Elec       q    Type
                         _______ _______ _______ _____ _____    ______ ____

>  <TORSDO>
F 7

$$$$
=
 OpenBabel11042420433D

 27 29  0  0  1  0  0  0  0  0999 V2000
  161.2270  208.5790  150.7500 C   0  0  2  0  0  3  0  0  0  0  0  0
  161.4580  206.8370  148.9370 C   0  0  0  0  0  3  0  0  0  0  0  0
  162.3220  210.2780  149.7160 C   0  0  1  0  0  3  0  0  0  0  0  0
  161.9990  209.7370  150.9840 O   0  0  0  0  0  0  0  0  0  0  0  0
  162.0180  209.2590  148.6360 C   0  0  0  0  0  2  0  0  0  0  0  0
  161.6140  207.4560  151.6810 C   0  0  0  0  0  0  0  0  0  0  0  0
  161.3920  208.1990  149.3620 N   0  0  0  0  0  0  0  0  0  0  0  0
  161.5610  205.8810  149.8580 C   0  0  0  0  0  0  0  0  0  0  0  0
  161.6970  206.2310  151.2460 N   0  0  0  0  0  0  0  0  0  0  0  0
  161.1320  200.5770  148.0090 C   0  0  0  0  0  1  0  0  0  0  0  0
  161.1390  204.3190  148.1240 O   0  0  0  0  0  0  0  0  0  0  0  0
  160.9640  202.1190  149.9520 C   0  0  1  0  0  3  0  0  0  0  0  0
  160.8320  203.5750  150.3870 C   0  0  0  0  0  2  0  0  0  0  0  0
  161.5000  203.0330  147.6810 C   0  0  2  0  0  3  0  0  0  0  0  0
  160.0730  201.3410  150.6690 F   0  0  0  0  0  0  0  0  0  0  0  0
  161.2370  202.9310  146.3140 O   0  0  0  0  0  1  0  0  0  0  0  0
  160.7070  201.9650  148.4500 C   0  0  1  0  0  3  0  0  0  0  0  0
  161.6380  204.4550  149.4320 C   0  0  2  0  0  3  0  0  0  0  0  0
  161.5780  211.5890  149.4700 C   0  0  0  0  0  2  0  0  0  0  0  0
  161.7230  212.0310  148.1270 O   0  0  0  0  0  0  0  0  0  0  0  0
  162.3740  214.2210  147.5730 C   0  0  0  0  0  2  0  0  0  0  0  0
  162.7030  212.9570  147.7870 C   0  0  0  0  0  3  0  0  0  0  0  0
  161.7060  207.7140  153.1490 C   0  0  0  0  0  2  0  0  0  0  0  0
  161.0740  206.5990  153.9170 C   0  0  0  0  0  0  0  0  0  0  0  0
  161.2060  205.4470  153.5370 O   0  0  0  0  0  0  0  0  0  0  0  0
  160.0810  206.9530  155.3660 S   0  0  0  0  0  0  0  0  0  0  0  0
  160.7000  208.6560  155.4740 C   0  0  0  0  0  1  0  0  0  0  0  0
  1  4  1  1  0  0  0
  1  6  1  0  0  0  0
  2  7  1  0  0  0  0
  2  8  2  0  0  0  0
  3 19  1  6  0  0  0
  3  4  1  0  0  0  0
  5  7  1  0  0  0  0
  5  3  1  0  0  0  0
  6 23  1  0  0  0  0
  7  1  1  0  0  0  0
  8  9  1  0  0  0  0
  9  6  2  0  0  0  0
 11 18  1  0  0  0  0
 12 13  1  0  0  0  0
 12 15  1  1  0  0  0
 14 16  1  6  0  0  0
 14 11  1  0  0  0  0
 14 17  1  0  0  0  0
 17 10  1  6  0  0  0
 17 12  1  0  0  0  0
 18  8  1  1  0  0  0
 18 13  1  0  0  0  0
 20 19  1  0  0  0  0
 21 22  2  0  0  0  0
 22 20  1  0  0  0  0
 23 24  1  0  0  0  0
 24 26  1  0  0  0  0
 25 24  2  0  0  0  0
 26 27  1  0  0  0  0
M  END
>  <MODEL>
8

>  <REMARK>
 VINA RESULT:      -6.3      3.847      8.223
  Name = 
  7 active torsions:
  status: ('A' for Active; 'I' for Inactive)
    1  A    between atoms: C_2  and  S_4
    2  A    between atoms: C_2  and  C_15
    3  A    between atoms: C_8  and  O_26
    4  A    between atoms: C_10  and  C_14
    5  A    between atoms: C_14  and  O_26
    6  A    between atoms: C_15  and  C_19
    7  A    between atoms: C_21  and  C_23
                            x       y       z     vdW  Elec       q    Type
                         _______ _______ _______ _____ _____    ______ ____

>  <TORSDO>
F 7

$$$$
=
 OpenBabel11042420433D

 27 29  0  0  1  0  0  0  0  0999 V2000
  161.5240  209.8530  150.5410 C   0  0  2  0  0  3  0  0  0  0  0  0
  161.5500  207.6820  149.2520 C   0  0  0  0  0  3  0  0  0  0  0  0
  162.5310  211.1690  148.9890 C   0  0  1  0  0  3  0  0  0  0  0  0
  162.3290  211.0000  150.3810 O   0  0  0  0  0  0  0  0  0  0  0  0
  162.1080  209.9120  148.2570 C   0  0  0  0  0  2  0  0  0  0  0  0
  161.9870  209.0060  151.7010 C   0  0  0  0  0  0  0  0  0  0  0  0
  161.5440  209.1100  149.2980 N   0  0  0  0  0  0  0  0  0  0  0  0
  161.7320  207.0040  150.3830 C   0  0  0  0  0  0  0  0  0  0  0  0
  162.0100  207.7060  151.6070 N   0  0  0  0  0  0  0  0  0  0  0  0
  161.0400  201.4180  150.1420 C   0  0  0  0  0  1  0  0  0  0  0  0
  161.0290  205.0500  149.2360 O   0  0  0  0  0  0  0  0  0  0  0  0
  161.2000  203.4300  151.5930 C   0  0  1  0  0  3  0  0  0  0  0  0
  161.1310  204.9540  151.6340 C   0  0  0  0  0  2  0  0  0  0  0  0
  161.3200  203.6800  149.1030 C   0  0  2  0  0  3  0  0  0  0  0  0
  160.4570  202.9080  152.6360 F   0  0  0  0  0  0  0  0  0  0  0  0
  160.8220  203.2250  147.8810 O   0  0  0  0  0  1  0  0  0  0  0  0
  160.6850  202.8890  150.2570 C   0  0  1  0  0  3  0  0  0  0  0  0
  161.7480  205.5140  150.3520 C   0  0  2  0  0  3  0  0  0  0  0  0
  161.7830  212.3950  148.4680 C   0  0  0  0  0  2  0  0  0  0  0  0
  161.0220  212.0910  147.3070 O   0  0  0  0  0  0  0  0  0  0  0  0
  159.2590  213.5160  147.9280 C   0  0  0  0  0  2  0  0  0  0  0  0
  159.8890  212.8310  146.9870 C   0  0  0  0  0  3  0  0  0  0  0  0
  162.2290  209.6430  153.0290 C   0  0  0  0  0  2  0  0  0  0  0  0
  161.0450  209.4560  153.9210 C   0  0  0  0  0  0  0  0  0  0  0  0
  159.9790  209.9790  153.6370 O   0  0  0  0  0  0  0  0  0  0  0  0
  161.2000  208.5090  155.4340 S   0  0  0  0  0  0  0  0  0  0  0  0
  160.4630  207.0320  154.6820 C   0  0  0  0  0  1  0  0  0  0  0  0
  1  4  1  6  0  0  0
  1  6  1  0  0  0  0
  2  7  1  0  0  0  0
  2  8  2  0  0  0  0
  3 19  1  6  0  0  0
  3  4  1  0  0  0  0
  5  3  1  0  0  0  0
  5  7  1  0  0  0  0
  6 23  1  0  0  0  0
  7  1  1  0  0  0  0
  8  9  1  0  0  0  0
  9  6  2  0  0  0  0
 11 18  1  0  0  0  0
 12 13  1  0  0  0  0
 12 15  1  1  0  0  0
 14 16  1  6  0  0  0
 14 11  1  0  0  0  0
 14 17  1  0  0  0  0
 17 10  1  6  0  0  0
 17 12  1  0  0  0  0
 18  8  1  1  0  0  0
 18 13  1  0  0  0  0
 20 19  1  0  0  0  0
 22 20  1  0  0  0  0
 22 21  2  0  0  0  0
 23 24  1  0  0  0  0
 24 26  1  0  0  0  0
 25 24  2  0  0  0  0
 27 26  1  0  0  0  0
M  END
>  <MODEL>
9

>  <REMARK>
 VINA RESULT:      -6.2      3.823      7.824
  Name = 
  7 active torsions:
  status: ('A' for Active; 'I' for Inactive)
    1  A    between atoms: C_2  and  S_4
    2  A    between atoms: C_2  and  C_15
    3  A    between atoms: C_8  and  O_26
    4  A    between atoms: C_10  and  C_14
    5  A    between atoms: C_14  and  O_26
    6  A    between atoms: C_15  and  C_19
    7  A    between atoms: C_21  and  C_23
                            x       y       z     vdW  Elec       q    Type
                         _______ _______ _______ _____ _____    ______ ____

>  <TORSDO>
F 7

$$$$
