=
 OpenBabel11052410153D

 25 28  0  0  1  0  0  0  0  0999 V2000
  161.7800  206.4160  151.1580 C   0  0  1  0  0  3  0  0  0  0  0  0
  161.5910  206.6820  152.5840 N   0  0  0  0  0  2  0  0  0  0  0  0
  159.5120  207.8780  156.1040 C   0  0  0  0  0  3  0  0  0  0  0  0
  160.1970  210.1520  155.4820 C   0  0  0  0  0  3  0  0  0  0  0  0
  161.6680  210.2130  153.4380 C   0  0  0  0  0  2  0  0  0  0  0  0
  161.4350  209.6030  154.8240 C   0  0  2  0  0  3  0  0  0  0  0  0
  161.5800  207.9800  153.1930 C   0  0  0  0  0  0  0  0  0  0  0  0
  161.7990  209.0690  152.5410 N   0  0  0  0  0  0  0  0  0  0  0  0
  161.3070  208.1740  154.5650 N   0  0  0  0  0  0  0  0  0  0  0  0
  160.4490  207.3240  155.3340 C   0  0  0  0  0  3  0  0  0  0  0  0
  159.3360  209.3450  156.1120 C   0  0  0  0  0  3  0  0  0  0  0  0
  161.0810  204.6140  149.5190 C   0  0  0  0  0  3  0  0  0  0  0  0
  161.4560  204.9920  150.8170 C   0  0  0  0  0  0  0  0  0  0  0  0
  160.8130  202.3230  150.2550 C   0  0  0  0  0  0  0  0  0  0  0  0
  161.4980  204.0300  151.8310 C   0  0  0  0  0  3  0  0  0  0  0  0
  161.1790  202.6970  151.5510 C   0  0  0  0  0  3  0  0  0  0  0  0
  160.4750  200.9070  149.9580 C   0  0  0  0  0  1  0  0  0  0  0  0
  160.7630  203.2810  149.2390 C   0  0  0  0  0  3  0  0  0  0  0  0
  161.0340  207.4180  150.2770 C   0  0  0  0  0  2  0  0  0  0  0  0
  161.8870  207.8530  149.0970 C   0  0  2  0  0  3  0  0  0  0  0  0
  161.9930  209.3390  149.0940 C   0  0  0  0  0  0  0  0  0  0  0  0
  162.0200  210.4990  148.4140 N   0  0  0  0  0  0  0  0  0  0  0  0
  162.1030  210.5300  149.7880 N   0  0  0  0  0  2  0  0  0  0  0  0
  162.2200  206.4520  147.0580 C   0  0  0  0  0  1  0  0  0  0  0  0
  161.2620  207.3680  147.7980 C   0  0  0  0  0  2  0  0  0  0  0  0
  1 19  1  6  0  0  0
  1  2  1  0  0  0  0
  2  7  1  0  0  0  0
  3 11  1  0  0  0  0
  4 11  2  0  0  0  0
  6  5  1  6  0  0  0
  6  4  1  0  0  0  0
  7  9  1  0  0  0  0
  8  7  2  0  0  0  0
  8  5  1  0  0  0  0
  9  6  1  0  0  0  0
  9 10  1  0  0  0  0
 10  3  2  0  0  0  0
 12 13  1  0  0  0  0
 13  1  1  0  0  0  0
 13 15  2  0  0  0  0
 14 16  2  0  0  0  0
 16 15  1  0  0  0  0
 17 14  1  0  0  0  0
 18 12  2  0  0  0  0
 18 14  1  0  0  0  0
 20 25  1  6  0  0  0
 20 19  1  0  0  0  0
 21 20  1  0  0  0  0
 21 23  1  0  0  0  0
 22 21  2  0  0  0  0
 22 23  1  0  0  0  0
 24 25  1  0  0  0  0
M  END
>  <MODEL>
1

>  <REMARK>
 VINA RESULT:      -7.9      0.000      0.000
  Name = 
  6 active torsions:
  status: ('A' for Active; 'I' for Inactive)
    1  A    between atoms: C_1  and  C_22
    2  A    between atoms: N_2  and  C_25
    3  A    between atoms: C_9  and  C_25
    4  A    between atoms: C_22  and  C_23
    5  A    between atoms: C_22  and  C_24
    6  A    between atoms: C_23  and  C_25
                            x       y       z     vdW  Elec       q    Type
                         _______ _______ _______ _____ _____    ______ ____

>  <TORSDO>
F 6

$$$$
=
 OpenBabel11052410153D

 25 28  0  0  1  0  0  0  0  0999 V2000
  161.5170  206.1780  150.1610 C   0  0  1  0  0  3  0  0  0  0  0  0
  161.2330  206.4760  148.7570 N   0  0  0  0  0  2  0  0  0  0  0  0
  159.7170  205.7890  144.8360 C   0  0  0  0  0  3  0  0  0  0  0  0
  161.8380  204.6130  144.4500 C   0  0  0  0  0  3  0  0  0  0  0  0
  163.4010  204.7320  146.4220 C   0  0  0  0  0  2  0  0  0  0  0  0
  162.5220  205.5150  145.4430 C   0  0  2  0  0  3  0  0  0  0  0  0
  161.9350  205.9300  147.6330 C   0  0  0  0  0  0  0  0  0  0  0  0
  162.9510  205.1470  147.7470 N   0  0  0  0  0  0  0  0  0  0  0  0
  161.5550  206.1910  146.2980 N   0  0  0  0  0  0  0  0  0  0  0  0
  160.2060  206.4430  145.8900 C   0  0  0  0  0  3  0  0  0  0  0  0
  160.5460  204.7800  144.1440 C   0  0  0  0  0  3  0  0  0  0  0  0
  161.8960  208.6560  150.5350 C   0  0  0  0  0  3  0  0  0  0  0  0
  161.4490  207.4130  151.0090 C   0  0  0  0  0  0  0  0  0  0  0  0
  161.3440  209.6750  152.6600 C   0  0  0  0  0  0  0  0  0  0  0  0
  160.9600  207.3090  152.3150 C   0  0  0  0  0  3  0  0  0  0  0  0
  160.9050  208.4370  153.1390 C   0  0  0  0  0  3  0  0  0  0  0  0
  161.2860  210.8730  153.5370 C   0  0  0  0  0  1  0  0  0  0  0  0
  161.8400  209.7850  151.3590 C   0  0  0  0  0  3  0  0  0  0  0  0
  160.6460  205.0430  150.7010 C   0  0  0  0  0  2  0  0  0  0  0  0
  161.3890  203.7180  150.6660 C   0  0  2  0  0  3  0  0  0  0  0  0
  160.8460  202.8850  149.5560 C   0  0  0  0  0  0  0  0  0  0  0  0
  160.0140  201.9180  149.1320 N   0  0  0  0  0  0  0  0  0  0  0  0
  160.8080  202.5640  148.2110 N   0  0  0  0  0  2  0  0  0  0  0  0
  160.8050  203.9700  153.0790 C   0  0  0  0  0  1  0  0  0  0  0  0
  161.2270  202.9960  151.9940 C   0  0  0  0  0  2  0  0  0  0  0  0
  1 19  1  1  0  0  0
  1 13  1  0  0  0  0
  2  1  1  0  0  0  0
  3 10  2  0  0  0  0
  5  8  1  0  0  0  0
  6  4  1  6  0  0  0
  6  9  1  0  0  0  0
  6  5  1  0  0  0  0
  7  8  2  0  0  0  0
  7  2  1  0  0  0  0
  9  7  1  0  0  0  0
 10  9  1  0  0  0  0
 11  4  2  0  0  0  0
 11  3  1  0  0  0  0
 12 13  2  0  0  0  0
 12 18  1  0  0  0  0
 13 15  1  0  0  0  0
 14 16  1  0  0  0  0
 14 17  1  0  0  0  0
 15 16  2  0  0  0  0
 18 14  2  0  0  0  0
 20 19  1  1  0  0  0
 20 25  1  0  0  0  0
 21 20  1  0  0  0  0
 22 21  2  0  0  0  0
 23 22  1  0  0  0  0
 23 21  1  0  0  0  0
 25 24  1  0  0  0  0
M  END
>  <MODEL>
2

>  <REMARK>
 VINA RESULT:      -7.4      2.879      7.697
  Name = 
  6 active torsions:
  status: ('A' for Active; 'I' for Inactive)
    1  A    between atoms: C_1  and  C_22
    2  A    between atoms: N_2  and  C_25
    3  A    between atoms: C_9  and  C_25
    4  A    between atoms: C_22  and  C_23
    5  A    between atoms: C_22  and  C_24
    6  A    between atoms: C_23  and  C_25
                            x       y       z     vdW  Elec       q    Type
                         _______ _______ _______ _____ _____    ______ ____

>  <TORSDO>
F 6

$$$$
=
 OpenBabel11052410153D

 25 28  0  0  1  0  0  0  0  0999 V2000
  161.2930  209.1970  152.3750 C   0  0  1  0  0  3  0  0  0  0  0  0
  160.7890  208.1980  151.4330 N   0  0  0  0  0  2  0  0  0  0  0  0
  160.8100  204.5980  149.1570 C   0  0  0  0  0  3  0  0  0  0  0  0
  162.1250  205.8830  147.5290 C   0  0  0  0  0  3  0  0  0  0  0  0
  162.4150  208.2980  148.1850 C   0  0  0  0  0  2  0  0  0  0  0  0
  161.4290  207.1470  147.9610 C   0  0  2  0  0  3  0  0  0  0  0  0
  161.2490  208.0190  150.0860 C   0  0  0  0  0  0  0  0  0  0  0  0
  162.1340  208.7750  149.5350 N   0  0  0  0  0  0  0  0  0  0  0  0
  160.7810  206.9780  149.2550 N   0  0  0  0  0  0  0  0  0  0  0  0
  160.3490  205.7030  149.7420 C   0  0  0  0  0  3  0  0  0  0  0  0
  161.7950  204.7000  148.0600 C   0  0  0  0  0  3  0  0  0  0  0  0
  159.2690  210.4650  153.2210 C   0  0  0  0  0  3  0  0  0  0  0  0
  160.4140  210.4110  152.4120 C   0  0  0  0  0  0  0  0  0  0  0  0
  158.7820  212.6890  152.3990 C   0  0  0  0  0  0  0  0  0  0  0  0
  160.7300  211.4980  151.5920 C   0  0  0  0  0  3  0  0  0  0  0  0
  159.9170  212.6370  151.5850 C   0  0  0  0  0  3  0  0  0  0  0  0
  157.9180  213.8980  152.3920 C   0  0  0  0  0  1  0  0  0  0  0  0
  158.4560  211.6030  153.2160 C   0  0  0  0  0  3  0  0  0  0  0  0
  161.5460  208.6090  153.7630 C   0  0  0  0  0  2  0  0  0  0  0  0
  160.8580  207.2630  153.9220 C   0  0  2  0  0  3  0  0  0  0  0  0
  160.3370  207.1450  155.3130 C   0  0  0  0  0  0  0  0  0  0  0  0
  160.5590  207.1440  156.6390 N   0  0  0  0  0  0  0  0  0  0  0  0
  159.2710  206.9870  156.1800 N   0  0  0  0  0  2  0  0  0  0  0  0
  161.1170  204.9410  153.0460 C   0  0  0  0  0  1  0  0  0  0  0  0
  161.8410  206.1400  153.6310 C   0  0  0  0  0  2  0  0  0  0  0  0
  1 13  1  0  0  0  0
  1 19  1  1  0  0  0
  2  1  1  0  0  0  0
  3 10  2  0  0  0  0
  4 11  2  0  0  0  0
  5  8  1  0  0  0  0
  6  4  1  1  0  0  0
  6  5  1  0  0  0  0
  6  9  1  0  0  0  0
  7  2  1  0  0  0  0
  8  7  2  0  0  0  0
  9 10  1  0  0  0  0
  9  7  1  0  0  0  0
 11  3  1  0  0  0  0
 13 12  2  0  0  0  0
 14 18  2  0  0  0  0
 15 13  1  0  0  0  0
 16 15  2  0  0  0  0
 16 14  1  0  0  0  0
 17 14  1  0  0  0  0
 18 12  1  0  0  0  0
 19 20  1  0  0  0  0
 20 25  1  1  0  0  0
 20 21  1  0  0  0  0
 21 23  1  0  0  0  0
 21 22  2  0  0  0  0
 23 22  1  0  0  0  0
 24 25  1  0  0  0  0
M  END
>  <MODEL>
3

>  <REMARK>
 VINA RESULT:      -7.2      2.291      7.352
  Name = 
  6 active torsions:
  status: ('A' for Active; 'I' for Inactive)
    1  A    between atoms: C_1  and  C_22
    2  A    between atoms: N_2  and  C_25
    3  A    between atoms: C_9  and  C_25
    4  A    between atoms: C_22  and  C_23
    5  A    between atoms: C_22  and  C_24
    6  A    between atoms: C_23  and  C_25
                            x       y       z     vdW  Elec       q    Type
                         _______ _______ _______ _____ _____    ______ ____

>  <TORSDO>
F 6

$$$$
=
 OpenBabel11052410153D

 25 28  0  0  1  0  0  0  0  0999 V2000
  162.3520  208.5440  149.1160 C   0  0  1  0  0  3  0  0  0  0  0  0
  161.5260  209.6200  148.5670 N   0  0  0  0  0  2  0  0  0  0  0  0
  160.0330  212.2890  145.6020 C   0  0  0  0  0  3  0  0  0  0  0  0
  161.9620  213.6890  146.1930 C   0  0  0  0  0  3  0  0  0  0  0  0
  163.3160  212.7460  148.0960 C   0  0  0  0  0  2  0  0  0  0  0  0
  161.9250  213.1520  147.5990 C   0  0  2  0  0  3  0  0  0  0  0  0
  161.9750  210.9520  148.2850 C   0  0  0  0  0  0  0  0  0  0  0  0
  163.1660  211.3670  148.5480 N   0  0  0  0  0  0  0  0  0  0  0  0
  161.1490  211.9210  147.6750 N   0  0  0  0  0  0  0  0  0  0  0  0
  160.1070  211.6060  146.7440 C   0  0  0  0  0  3  0  0  0  0  0  0
  161.0500  213.3140  145.2880 C   0  0  0  0  0  3  0  0  0  0  0  0
  161.0290  208.9790  151.2330 C   0  0  0  0  0  3  0  0  0  0  0  0
  161.9310  208.1850  150.5090 C   0  0  0  0  0  0  0  0  0  0  0  0
  161.2230  207.4870  153.1290 C   0  0  0  0  0  0  0  0  0  0  0  0
  162.4810  207.0470  151.1080 C   0  0  0  0  0  3  0  0  0  0  0  0
  162.1270  206.6970  152.4150 C   0  0  0  0  0  3  0  0  0  0  0  0
  160.8470  207.1150  154.5180 C   0  0  0  0  0  1  0  0  0  0  0  0
  160.6740  208.6290  152.5400 C   0  0  0  0  0  3  0  0  0  0  0  0
  162.4170  207.3320  148.1870 C   0  0  0  0  0  2  0  0  0  0  0  0
  161.0390  206.7230  147.9840 C   0  0  2  0  0  3  0  0  0  0  0  0
  160.9910  205.3930  148.6540 C   0  0  0  0  0  0  0  0  0  0  0  0
  161.3130  204.0880  148.6670 N   0  0  0  0  0  0  0  0  0  0  0  0
  160.6100  204.6100  149.7290 N   0  0  0  0  0  2  0  0  0  0  0  0
  161.8940  205.8520  145.8060 C   0  0  0  0  0  1  0  0  0  0  0  0
  160.7520  206.5730  146.4980 C   0  0  0  0  0  2  0  0  0  0  0  0
  1 19  1  6  0  0  0
  1 13  1  0  0  0  0
  2  1  1  0  0  0  0
  3 10  2  0  0  0  0
  5  8  1  0  0  0  0
  6  4  1  6  0  0  0
  6  9  1  0  0  0  0
  6  5  1  0  0  0  0
  7  8  2  0  0  0  0
  7  2  1  0  0  0  0
  9  7  1  0  0  0  0
 10  9  1  0  0  0  0
 11  3  1  0  0  0  0
 11  4  2  0  0  0  0
 12 18  1  0  0  0  0
 13 15  1  0  0  0  0
 13 12  2  0  0  0  0
 14 17  1  0  0  0  0
 15 16  2  0  0  0  0
 16 14  1  0  0  0  0
 18 14  2  0  0  0  0
 20 25  1  6  0  0  0
 20 19  1  0  0  0  0
 20 21  1  0  0  0  0
 21 22  2  0  0  0  0
 21 23  1  0  0  0  0
 22 23  1  0  0  0  0
 24 25  1  0  0  0  0
M  END
>  <MODEL>
4

>  <REMARK>
 VINA RESULT:      -7.2      2.776      6.384
  Name = 
  6 active torsions:
  status: ('A' for Active; 'I' for Inactive)
    1  A    between atoms: C_1  and  C_22
    2  A    between atoms: N_2  and  C_25
    3  A    between atoms: C_9  and  C_25
    4  A    between atoms: C_22  and  C_23
    5  A    between atoms: C_22  and  C_24
    6  A    between atoms: C_23  and  C_25
                            x       y       z     vdW  Elec       q    Type
                         _______ _______ _______ _____ _____    ______ ____

>  <TORSDO>
F 6

$$$$
=
 OpenBabel11052410153D

 25 28  0  0  1  0  0  0  0  0999 V2000
  161.5500  205.9010  149.4180 C   0  0  1  0  0  3  0  0  0  0  0  0
  161.5830  206.6900  150.6500 N   0  0  0  0  0  2  0  0  0  0  0  0
  160.1290  209.3650  153.6290 C   0  0  0  0  0  3  0  0  0  0  0  0
  160.9470  211.1360  152.1380 C   0  0  0  0  0  3  0  0  0  0  0  0
  162.1260  210.2400  150.1000 C   0  0  0  0  0  2  0  0  0  0  0  0
  162.0230  210.2140  151.6280 C   0  0  2  0  0  3  0  0  0  0  0  0
  161.7840  208.1080  150.7240 C   0  0  0  0  0  0  0  0  0  0  0  0
  162.0200  208.8430  149.6930 N   0  0  0  0  0  0  0  0  0  0  0  0
  161.7190  208.8230  151.9400 N   0  0  0  0  0  0  0  0  0  0  0  0
  160.8930  208.4410  153.0440 C   0  0  0  0  0  3  0  0  0  0  0  0
  160.1030  210.7440  153.1000 C   0  0  0  0  0  3  0  0  0  0  0  0
  161.2900  203.9410  151.0030 C   0  0  0  0  0  3  0  0  0  0  0  0
  161.2600  204.4570  149.6990 C   0  0  0  0  0  0  0  0  0  0  0  0
  160.7610  201.7370  150.1530 C   0  0  0  0  0  0  0  0  0  0  0  0
  160.9890  203.6030  148.6260 C   0  0  0  0  0  3  0  0  0  0  0  0
  160.7370  202.2450  148.8510 C   0  0  0  0  0  3  0  0  0  0  0  0
  160.4940  200.2950  150.3930 C   0  0  0  0  0  1  0  0  0  0  0  0
  161.0380  202.5840  151.2290 C   0  0  0  0  0  3  0  0  0  0  0  0
  160.6090  206.4990  148.3720 C   0  0  0  0  0  2  0  0  0  0  0  0
  161.3570  206.8410  147.0940 C   0  0  2  0  0  3  0  0  0  0  0  0
  160.6220  206.2680  145.9310 C   0  0  0  0  0  0  0  0  0  0  0  0
  159.4850  205.7830  145.4030 N   0  0  0  0  0  0  0  0  0  0  0  0
  160.6020  205.8790  144.6050 N   0  0  0  0  0  2  0  0  0  0  0  0
  162.9030  205.0850  146.2240 C   0  0  0  0  0  1  0  0  0  0  0  0
  162.7690  206.2790  147.1520 C   0  0  0  0  0  2  0  0  0  0  0  0
  1 19  1  6  0  0  0
  1 13  1  0  0  0  0
  1  2  1  0  0  0  0
  2  7  1  0  0  0  0
  4 11  2  0  0  0  0
  6  5  1  6  0  0  0
  6  9  1  0  0  0  0
  6  4  1  0  0  0  0
  7  9  1  0  0  0  0
  8  5  1  0  0  0  0
  8  7  2  0  0  0  0
  9 10  1  0  0  0  0
 10  3  2  0  0  0  0
 11  3  1  0  0  0  0
 12 18  1  0  0  0  0
 13 12  2  0  0  0  0
 14 17  1  0  0  0  0
 14 18  2  0  0  0  0
 15 16  2  0  0  0  0
 15 13  1  0  0  0  0
 16 14  1  0  0  0  0
 20 25  1  1  0  0  0
 20 19  1  0  0  0  0
 21 20  1  0  0  0  0
 22 21  2  0  0  0  0
 23 22  1  0  0  0  0
 23 21  1  0  0  0  0
 24 25  1  0  0  0  0
M  END
>  <MODEL>
5

>  <REMARK>
 VINA RESULT:      -7.2      2.135      3.135
  Name = 
  6 active torsions:
  status: ('A' for Active; 'I' for Inactive)
    1  A    between atoms: C_1  and  C_22
    2  A    between atoms: N_2  and  C_25
    3  A    between atoms: C_9  and  C_25
    4  A    between atoms: C_22  and  C_23
    5  A    between atoms: C_22  and  C_24
    6  A    between atoms: C_23  and  C_25
                            x       y       z     vdW  Elec       q    Type
                         _______ _______ _______ _____ _____    ______ ____

>  <TORSDO>
F 6

$$$$
=
 OpenBabel11052410153D

 25 28  0  0  1  0  0  0  0  0999 V2000
  161.5500  206.1450  150.4060 C   0  0  1  0  0  3  0  0  0  0  0  0
  161.6850  206.5550  151.8040 N   0  0  0  0  0  2  0  0  0  0  0  0
  160.4040  207.4190  155.7730 C   0  0  0  0  0  3  0  0  0  0  0  0
  159.8400  209.6380  154.8830 C   0  0  0  0  0  3  0  0  0  0  0  0
  160.4870  209.9210  152.4650 C   0  0  0  0  0  2  0  0  0  0  0  0
  160.9460  209.5150  153.8690 C   0  0  2  0  0  3  0  0  0  0  0  0
  161.2950  207.8270  152.3380 C   0  0  0  0  0  0  0  0  0  0  0  0
  160.8310  208.7860  151.6140 N   0  0  0  0  0  0  0  0  0  0  0  0
  161.3730  208.1300  153.7160 N   0  0  0  0  0  0  0  0  0  0  0  0
  161.2210  207.1560  154.7540 C   0  0  0  0  0  3  0  0  0  0  0  0
  159.6280  208.6770  155.7900 C   0  0  0  0  0  3  0  0  0  0  0  0
  161.0680  204.0610  149.0470 C   0  0  0  0  0  3  0  0  0  0  0  0
  161.3250  204.6680  150.2860 C   0  0  0  0  0  0  0  0  0  0  0  0
  160.8630  201.9080  150.1340 C   0  0  0  0  0  0  0  0  0  0  0  0
  161.3400  203.8870  151.4460 C   0  0  0  0  0  3  0  0  0  0  0  0
  161.1110  202.5090  151.3710 C   0  0  0  0  0  3  0  0  0  0  0  0
  160.6190  200.4440  150.0540 C   0  0  0  0  0  1  0  0  0  0  0  0
  160.8400  202.6830  148.9720 C   0  0  0  0  0  3  0  0  0  0  0  0
  160.4970  206.9650  149.6600 C   0  0  0  0  0  2  0  0  0  0  0  0
  161.1110  207.7040  148.4820 C   0  0  2  0  0  3  0  0  0  0  0  0
  161.3670  206.7350  147.3790 C   0  0  0  0  0  0  0  0  0  0  0  0
  160.8960  205.9020  146.4350 N   0  0  0  0  0  0  0  0  0  0  0  0
  162.2570  206.0630  146.5620 N   0  0  0  0  0  2  0  0  0  0  0  0
  162.3320  209.8710  148.6850 C   0  0  0  0  0  1  0  0  0  0  0  0
  162.4090  208.3720  148.9070 C   0  0  0  0  0  2  0  0  0  0  0  0
  1 19  1  1  0  0  0
  1  2  1  0  0  0  0
  2  7  1  0  0  0  0
  3 11  1  0  0  0  0
  4 11  2  0  0  0  0
  6  5  1  6  0  0  0
  6  4  1  0  0  0  0
  7  9  1  0  0  0  0
  8  7  2  0  0  0  0
  8  5  1  0  0  0  0
  9  6  1  0  0  0  0
  9 10  1  0  0  0  0
 10  3  2  0  0  0  0
 12 13  1  0  0  0  0
 13  1  1  0  0  0  0
 13 15  2  0  0  0  0
 14 16  2  0  0  0  0
 16 15  1  0  0  0  0
 17 14  1  0  0  0  0
 18 12  2  0  0  0  0
 18 14  1  0  0  0  0
 20 25  1  1  0  0  0
 20 19  1  0  0  0  0
 21 20  1  0  0  0  0
 22 23  1  0  0  0  0
 22 21  2  0  0  0  0
 23 21  1  0  0  0  0
 24 25  1  0  0  0  0
M  END
>  <MODEL>
6

>  <REMARK>
 VINA RESULT:      -7.1      1.621      2.005
  Name = 
  6 active torsions:
  status: ('A' for Active; 'I' for Inactive)
    1  A    between atoms: C_1  and  C_22
    2  A    between atoms: N_2  and  C_25
    3  A    between atoms: C_9  and  C_25
    4  A    between atoms: C_22  and  C_23
    5  A    between atoms: C_22  and  C_24
    6  A    between atoms: C_23  and  C_25
                            x       y       z     vdW  Elec       q    Type
                         _______ _______ _______ _____ _____    ______ ____

>  <TORSDO>
F 6

$$$$
=
 OpenBabel11052410153D

 25 28  0  0  1  0  0  0  0  0999 V2000
  162.2420  207.3470  149.5720 C   0  0  1  0  0  3  0  0  0  0  0  0
  162.4300  206.7890  148.2330 N   0  0  0  0  0  2  0  0  0  0  0  0
  161.2910  205.4460  144.3540 C   0  0  0  0  0  3  0  0  0  0  0  0
  160.7690  203.3230  145.4730 C   0  0  0  0  0  3  0  0  0  0  0  0
  161.3540  203.3320  147.9230 C   0  0  0  0  0  2  0  0  0  0  0  0
  161.8410  203.5950  146.4950 C   0  0  2  0  0  3  0  0  0  0  0  0
  162.0950  205.4530  147.8350 C   0  0  0  0  0  0  0  0  0  0  0  0
  161.6380  204.5660  148.6490 N   0  0  0  0  0  0  0  0  0  0  0  0
  162.2210  205.0010  146.5020 N   0  0  0  0  0  0  0  0  0  0  0  0
  162.0710  205.8480  145.3580 C   0  0  0  0  0  3  0  0  0  0  0  0
  160.5550  204.1690  144.4580 C   0  0  0  0  0  3  0  0  0  0  0  0
  161.9670  209.6000  150.6980 C   0  0  0  0  0  3  0  0  0  0  0  0
  162.0590  208.8340  149.5270 C   0  0  0  0  0  0  0  0  0  0  0  0
  161.6640  211.6050  149.3760 C   0  0  0  0  0  0  0  0  0  0  0  0
  161.9420  209.4620  148.2820 C   0  0  0  0  0  3  0  0  0  0  0  0
  161.7470  210.8450  148.2050 C   0  0  0  0  0  3  0  0  0  0  0  0
  161.4560  213.0740  149.2940 C   0  0  0  0  0  1  0  0  0  0  0  0
  161.7730  210.9830  150.6220 C   0  0  0  0  0  3  0  0  0  0  0  0
  161.1300  206.6380  150.3460 C   0  0  0  0  0  2  0  0  0  0  0  0
  161.6060  206.2160  151.7260 C   0  0  2  0  0  3  0  0  0  0  0  0
  161.3640  204.7560  151.8990 C   0  0  0  0  0  0  0  0  0  0  0  0
  160.5320  203.7470  152.2090 N   0  0  0  0  0  0  0  0  0  0  0  0
  161.8210  203.4530  151.8270 N   0  0  0  0  0  2  0  0  0  0  0  0
  161.2270  206.4950  154.1770 C   0  0  0  0  0  1  0  0  0  0  0  0
  160.8620  207.0020  152.7940 C   0  0  0  0  0  2  0  0  0  0  0  0
  1 19  1  6  0  0  0
  2  1  1  0  0  0  0
  3 11  1  0  0  0  0
  3 10  2  0  0  0  0
  5  8  1  0  0  0  0
  6  4  1  6  0  0  0
  6  9  1  0  0  0  0
  6  5  1  0  0  0  0
  7  2  1  0  0  0  0
  7  8  2  0  0  0  0
  9  7  1  0  0  0  0
 10  9  1  0  0  0  0
 11  4  2  0  0  0  0
 13  1  1  0  0  0  0
 13 12  2  0  0  0  0
 14 18  2  0  0  0  0
 15 13  1  0  0  0  0
 16 15  2  0  0  0  0
 16 14  1  0  0  0  0
 17 14  1  0  0  0  0
 18 12  1  0  0  0  0
 20 19  1  6  0  0  0
 20 21  1  0  0  0  0
 20 25  1  0  0  0  0
 21 22  2  0  0  0  0
 23 21  1  0  0  0  0
 23 22  1  0  0  0  0
 25 24  1  0  0  0  0
M  END
>  <MODEL>
7

>  <REMARK>
 VINA RESULT:      -6.9      2.762      8.031
  Name = 
  6 active torsions:
  status: ('A' for Active; 'I' for Inactive)
    1  A    between atoms: C_1  and  C_22
    2  A    between atoms: N_2  and  C_25
    3  A    between atoms: C_9  and  C_25
    4  A    between atoms: C_22  and  C_23
    5  A    between atoms: C_22  and  C_24
    6  A    between atoms: C_23  and  C_25
                            x       y       z     vdW  Elec       q    Type
                         _______ _______ _______ _____ _____    ______ ____

>  <TORSDO>
F 6

$$$$
=
 OpenBabel11052410153D

 25 28  0  0  1  0  0  0  0  0999 V2000
  162.2110  209.4360  150.8680 C   0  0  1  0  0  3  0  0  0  0  0  0
  161.3940  208.2700  150.5300 N   0  0  0  0  0  2  0  0  0  0  0  0
  160.4560  204.1390  150.0890 C   0  0  0  0  0  3  0  0  0  0  0  0
  161.5830  204.3310  147.9160 C   0  0  0  0  0  3  0  0  0  0  0  0
  162.3320  206.6800  147.4010 C   0  0  0  0  0  2  0  0  0  0  0  0
  161.1710  205.7770  147.8270 C   0  0  2  0  0  3  0  0  0  0  0  0
  161.5450  207.4610  149.3560 C   0  0  0  0  0  0  0  0  0  0  0  0
  162.3980  207.7170  148.4260 N   0  0  0  0  0  0  0  0  0  0  0  0
  160.7780  206.2960  149.1310 N   0  0  0  0  0  0  0  0  0  0  0  0
  160.2800  205.4570  150.1790 C   0  0  0  0  0  3  0  0  0  0  0  0
  161.2050  203.5700  148.9500 C   0  0  0  0  0  3  0  0  0  0  0  0
  162.3310  210.7050  148.6770 C   0  0  0  0  0  3  0  0  0  0  0  0
  161.8750  210.6120  150.0010 C   0  0  0  0  0  0  0  0  0  0  0  0
  161.2540  212.8610  148.4480 C   0  0  0  0  0  0  0  0  0  0  0  0
  161.1160  211.6540  150.5430 C   0  0  0  0  0  3  0  0  0  0  0  0
  160.8040  212.7770  149.7690 C   0  0  0  0  0  3  0  0  0  0  0  0
  160.9230  214.0530  147.6250 C   0  0  0  0  0  1  0  0  0  0  0  0
  162.0190  211.8270  147.9020 C   0  0  0  0  0  3  0  0  0  0  0  0
  162.1600  209.7680  152.3590 C   0  0  0  0  0  2  0  0  0  0  0  0
  160.8910  209.2280  152.9980 C   0  0  2  0  0  3  0  0  0  0  0  0
  160.0800  210.3680  153.5100 C   0  0  0  0  0  0  0  0  0  0  0  0
  159.9570  211.4290  154.3260 N   0  0  0  0  0  0  0  0  0  0  0  0
  158.9230  211.1240  153.4700 N   0  0  0  0  0  2  0  0  0  0  0  0
  161.1760  206.8390  153.6650 C   0  0  0  0  0  1  0  0  0  0  0  0
  161.2440  208.2810  154.1350 C   0  0  0  0  0  2  0  0  0  0  0  0
  1 19  1  1  0  0  0
  2  1  1  0  0  0  0
  3 10  2  0  0  0  0
  4 11  2  0  0  0  0
  5  8  1  0  0  0  0
  6  5  1  1  0  0  0
  6  4  1  0  0  0  0
  6  9  1  0  0  0  0
  7  2  1  0  0  0  0
  8  7  2  0  0  0  0
  9  7  1  0  0  0  0
  9 10  1  0  0  0  0
 11  3  1  0  0  0  0
 12 13  1  0  0  0  0
 13 15  2  0  0  0  0
 13  1  1  0  0  0  0
 14 16  2  0  0  0  0
 16 15  1  0  0  0  0
 17 14  1  0  0  0  0
 18 14  1  0  0  0  0
 18 12  2  0  0  0  0
 20 19  1  1  0  0  0
 20 21  1  0  0  0  0
 20 25  1  0  0  0  0
 21 22  2  0  0  0  0
 23 21  1  0  0  0  0
 23 22  1  0  0  0  0
 24 25  1  0  0  0  0
M  END
>  <MODEL>
8

>  <REMARK>
 VINA RESULT:      -6.9      2.405      7.123
  Name = 
  6 active torsions:
  status: ('A' for Active; 'I' for Inactive)
    1  A    between atoms: C_1  and  C_22
    2  A    between atoms: N_2  and  C_25
    3  A    between atoms: C_9  and  C_25
    4  A    between atoms: C_22  and  C_23
    5  A    between atoms: C_22  and  C_24
    6  A    between atoms: C_23  and  C_25
                            x       y       z     vdW  Elec       q    Type
                         _______ _______ _______ _____ _____    ______ ____

>  <TORSDO>
F 6

$$$$
=
 OpenBabel11052410153D

 25 28  0  0  1  0  0  0  0  0999 V2000
  161.9310  206.9410  152.5330 C   0  0  1  0  0  3  0  0  0  0  0  0
  160.8510  207.5900  153.2750 N   0  0  0  0  0  2  0  0  0  0  0  0
  158.8340  210.7540  155.2910 C   0  0  0  0  0  3  0  0  0  0  0  0
  160.1420  210.0580  157.2490 C   0  0  0  0  0  3  0  0  0  0  0  0
  161.5580  208.0210  156.8130 C   0  0  0  0  0  2  0  0  0  0  0  0
  160.1600  208.6420  156.7370 C   0  0  2  0  0  3  0  0  0  0  0  0
  160.8640  207.8800  154.6800 C   0  0  0  0  0  0  0  0  0  0  0  0
  161.8270  207.5360  155.4630 N   0  0  0  0  0  0  0  0  0  0  0  0
  159.8230  208.5870  155.3210 N   0  0  0  0  0  0  0  0  0  0  0  0
  159.0270  209.5870  154.6760 C   0  0  0  0  0  3  0  0  0  0  0  0
  159.4840  211.0190  156.5910 C   0  0  0  0  0  3  0  0  0  0  0  0
  161.0850  204.5520  152.5810 C   0  0  0  0  0  3  0  0  0  0  0  0
  161.4570  205.6920  151.8520 C   0  0  0  0  0  0  0  0  0  0  0  0
  160.6260  203.3710  150.5180 C   0  0  0  0  0  0  0  0  0  0  0  0
  161.4180  205.6590  150.4540 C   0  0  0  0  0  3  0  0  0  0  0  0
  161.0020  204.5020  149.7870 C   0  0  0  0  0  3  0  0  0  0  0  0
  160.1840  202.1420  149.8100 C   0  0  0  0  0  1  0  0  0  0  0  0
  160.6680  203.3960  151.9140 C   0  0  0  0  0  3  0  0  0  0  0  0
  162.6380  207.9020  151.5770 C   0  0  0  0  0  2  0  0  0  0  0  0
  161.7060  209.0190  151.1350 C   0  0  2  0  0  3  0  0  0  0  0  0
  161.8560  209.2240  149.6660 C   0  0  0  0  0  0  0  0  0  0  0  0
  161.8290  210.0440  148.6010 N   0  0  0  0  0  0  0  0  0  0  0  0
  162.1550  208.7200  148.4140 N   0  0  0  0  0  2  0  0  0  0  0  0
  160.7910  211.1400  152.0790 C   0  0  0  0  0  1  0  0  0  0  0  0
  162.0400  210.3000  151.8820 C   0  0  0  0  0  2  0  0  0  0  0  0
  1 19  1  6  0  0  0
  1  2  1  0  0  0  0
  2  7  1  0  0  0  0
  3 11  1  0  0  0  0
  6  5  1  6  0  0  0
  6  4  1  0  0  0  0
  7  9  1  0  0  0  0
  7  8  2  0  0  0  0
  8  5  1  0  0  0  0
  9  6  1  0  0  0  0
 10  3  2  0  0  0  0
 10  9  1  0  0  0  0
 11  4  2  0  0  0  0
 13  1  1  0  0  0  0
 13 12  2  0  0  0  0
 14 18  2  0  0  0  0
 15 13  1  0  0  0  0
 16 15  2  0  0  0  0
 16 14  1  0  0  0  0
 17 14  1  0  0  0  0
 18 12  1  0  0  0  0
 20 19  1  1  0  0  0
 20 25  1  0  0  0  0
 21 20  1  0  0  0  0
 22 21  2  0  0  0  0
 23 22  1  0  0  0  0
 23 21  1  0  0  0  0
 25 24  1  0  0  0  0
M  END
>  <MODEL>
9

>  <REMARK>
 VINA RESULT:      -6.6      1.498      2.750
  Name = 
  6 active torsions:
  status: ('A' for Active; 'I' for Inactive)
    1  A    between atoms: C_1  and  C_22
    2  A    between atoms: N_2  and  C_25
    3  A    between atoms: C_9  and  C_25
    4  A    between atoms: C_22  and  C_23
    5  A    between atoms: C_22  and  C_24
    6  A    between atoms: C_23  and  C_25
                            x       y       z     vdW  Elec       q    Type
                         _______ _______ _______ _____ _____    ______ ____

>  <TORSDO>
F 6

$$$$
