=
 OpenBabel11042420143D

 25 28  0  0  1  0  0  0  0  0999 V2000
  161.2020  204.9510  153.0310 C   0  0  0  0  0  2  0  0  0  0  0  0
  160.7380  204.8870  151.5910 C   0  0  1  0  0  3  0  0  0  0  0  0
  162.2360  206.5830  151.7100 C   0  0  1  0  0  3  0  0  0  0  0  0
  161.8180  206.3050  153.1330 C   0  0  0  0  0  2  0  0  0  0  0  0
  161.3380  205.9250  150.8490 O   0  0  0  0  0  0  0  0  0  0  0  0
  161.0430  203.5390  150.9980 C   0  0  0  0  0  0  0  0  0  0  0  0
  161.9580  202.8120  151.5310 N   0  0  0  0  0  2  0  0  0  0  0  0
  161.9060  203.9280  146.0420 C   0  0  0  0  0  3  0  0  0  0  0  0
  160.2550  203.0260  149.8210 C   0  0  2  0  0  3  0  0  0  0  0  0
  161.4950  205.0280  146.8160 C   0  0  0  0  0  3  0  0  0  0  0  0
  161.7640  202.6580  146.5190 N   0  0  0  0  0  0  0  0  0  0  0  0
  160.3390  201.4910  149.7240 C   0  0  0  0  0  3  0  0  0  0  0  0
  161.2260  202.4520  147.7500 C   0  0  0  0  0  0  0  0  0  0  0  0
  161.0010  201.1370  148.3820 C   0  0  0  0  0  3  0  0  0  0  0  0
  160.8230  203.4950  148.5360 C   0  0  0  0  0  0  0  0  0  0  0  0
  160.9400  204.8100  148.0850 C   0  0  0  0  0  3  0  0  0  0  0  0
  162.2540  208.0860  151.4270 C   0  0  2  0  0  3  0  0  0  0  0  0
  162.2670  210.1390  152.7080 O   0  0  0  0  0  0  0  0  0  0  0  0
  161.6770  208.8660  152.6160 C   0  0  1  0  0  3  0  0  0  0  0  0
  161.0390  210.7580  152.4250 C   0  0  0  0  0  2  0  0  0  0  0  0
  160.3250  209.4430  152.2910 C   0  0  0  0  0  2  0  0  0  0  0  0
  161.4800  208.3580  150.2610 O   0  0  0  0  0  0  0  0  0  0  0  0
  162.0620  208.7790  149.0640 C   0  0  0  0  0  0  0  0  0  0  0  0
  162.6230  207.9550  148.2930 O   0  0  0  0  0  0  0  0  0  0  0  0
  162.0120  210.1210  148.7130 O   0  0  0  0  0  1  0  0  0  0  0  0
  1  4  1  0  0  0  0
  2  6  1  6  0  0  0
  2  1  1  0  0  0  0
  3 17  1  6  0  0  0
  3  4  1  0  0  0  0
  5  2  1  0  0  0  0
  5  3  1  0  0  0  0
  6  7  2  0  0  0  0
  8 11  2  0  0  0  0
  8 10  1  0  0  0  0
  9  6  1  1  0  0  0
 10 16  2  0  0  0  0
 11 13  1  0  0  0  0
 12  9  1  0  0  0  0
 13 14  1  0  0  0  0
 13 15  2  0  0  0  0
 14 12  2  0  0  0  0
 15  9  1  0  0  0  0
 16 15  1  0  0  0  0
 17 22  1  6  0  0  0
 19 17  1  6  0  0  0
 19 18  1  0  0  0  0
 20 18  1  0  0  0  0
 21 20  1  0  0  0  0
 21 19  1  0  0  0  0
 23 22  1  0  0  0  0
 24 23  2  0  0  0  0
 25 23  1  0  0  0  0
M  END
>  <MODEL>
1

>  <REMARK>
 VINA RESULT:      -8.1      0.000      0.000
  Name = 
  6 active torsions:
  status: ('A' for Active; 'I' for Inactive)
    1  A    between atoms: O_1  and  C_2
    2  A    between atoms: O_1  and  C_13
    3  A    between atoms: C_5  and  C_17
    4  A    between atoms: C_7  and  C_13
    5  A    between atoms: C_8  and  C_17
    6  A    between atoms: C_10  and  C_13
                            x       y       z     vdW  Elec       q    Type
                         _______ _______ _______ _____ _____    ______ ____

>  <TORSDO>
F 6

$$$$
=
 OpenBabel11042420143D

 25 28  0  0  1  0  0  0  0  0999 V2000
  162.3480  208.3280  148.6970 C   0  0  0  0  0  2  0  0  0  0  0  0
  162.1260  206.9020  149.1530 C   0  0  1  0  0  3  0  0  0  0  0  0
  161.0010  208.2240  150.6080 C   0  0  1  0  0  3  0  0  0  0  0  0
  161.9710  209.1330  149.8950 C   0  0  0  0  0  2  0  0  0  0  0  0
  161.3640  206.8910  150.3390 O   0  0  0  0  0  0  0  0  0  0  0  0
  161.4660  206.0980  148.0670 C   0  0  0  0  0  0  0  0  0  0  0  0
  160.2000  206.2110  147.8850 N   0  0  0  0  0  2  0  0  0  0  0  0
  160.5460  201.4510  146.3290 C   0  0  0  0  0  3  0  0  0  0  0  0
  162.2850  205.2030  147.1720 C   0  0  2  0  0  3  0  0  0  0  0  0
  160.8730  201.6920  147.6750 C   0  0  0  0  0  3  0  0  0  0  0  0
  160.7900  202.3990  145.3790 N   0  0  0  0  0  0  0  0  0  0  0  0
  162.3220  205.7450  145.7310 C   0  0  0  0  0  3  0  0  0  0  0  0
  161.3500  203.5850  145.7340 C   0  0  0  0  0  0  0  0  0  0  0  0
  161.6820  204.6900  144.8130 C   0  0  0  0  0  3  0  0  0  0  0  0
  161.6740  203.8610  147.0320 C   0  0  0  0  0  0  0  0  0  0  0  0
  161.4510  202.9170  148.0350 C   0  0  0  0  0  3  0  0  0  0  0  0
  161.0030  208.4920  152.1140 C   0  0  2  0  0  3  0  0  0  0  0  0
  160.6050  210.8720  152.2980 O   0  0  0  0  0  0  0  0  0  0  0  0
  161.5920  209.8770  152.4150 C   0  0  1  0  0  3  0  0  0  0  0  0
  160.6900  211.1550  153.6700 C   0  0  0  0  0  2  0  0  0  0  0  0
  161.7380  210.1030  153.8960 C   0  0  0  0  0  2  0  0  0  0  0  0
  161.7790  207.4930  152.7720 O   0  0  0  0  0  0  0  0  0  0  0  0
  161.2030  206.5250  153.5950 C   0  0  0  0  0  0  0  0  0  0  0  0
  160.6240  206.8490  154.6660 O   0  0  0  0  0  1  0  0  0  0  0  0
  161.2600  205.1880  153.2250 O   0  0  0  0  0  0  0  0  0  0  0  0
  1  2  1  0  0  0  0
  1  4  1  0  0  0  0
  2  6  1  6  0  0  0
  2  5  1  0  0  0  0
  3 17  1  1  0  0  0
  4  3  1  0  0  0  0
  5  3  1  0  0  0  0
  7  6  2  0  0  0  0
  8 10  1  0  0  0  0
  9  6  1  1  0  0  0
 10 16  2  0  0  0  0
 11 13  1  0  0  0  0
 11  8  2  0  0  0  0
 12  9  1  0  0  0  0
 13 15  2  0  0  0  0
 14 12  2  0  0  0  0
 14 13  1  0  0  0  0
 15  9  1  0  0  0  0
 15 16  1  0  0  0  0
 17 22  1  1  0  0  0
 18 19  1  0  0  0  0
 18 20  1  0  0  0  0
 19 17  1  1  0  0  0
 19 21  1  0  0  0  0
 20 21  1  0  0  0  0
 22 23  1  0  0  0  0
 23 24  1  0  0  0  0
 25 23  2  0  0  0  0
M  END
>  <MODEL>
2

>  <REMARK>
 VINA RESULT:      -7.9      2.023      3.819
  Name = 
  6 active torsions:
  status: ('A' for Active; 'I' for Inactive)
    1  A    between atoms: O_1  and  C_2
    2  A    between atoms: O_1  and  C_13
    3  A    between atoms: C_5  and  C_17
    4  A    between atoms: C_7  and  C_13
    5  A    between atoms: C_8  and  C_17
    6  A    between atoms: C_10  and  C_13
                            x       y       z     vdW  Elec       q    Type
                         _______ _______ _______ _____ _____    ______ ____

>  <TORSDO>
F 6

$$$$
=
 OpenBabel11042420143D

 25 28  0  0  1  0  0  0  0  0999 V2000
  162.0350  208.7550  148.4090 C   0  0  0  0  0  2  0  0  0  0  0  0
  162.4040  207.3110  148.6730 C   0  0  1  0  0  3  0  0  0  0  0  0
  161.5120  208.1090  150.5970 C   0  0  1  0  0  3  0  0  0  0  0  0
  161.8730  209.3230  149.7780 C   0  0  0  0  0  2  0  0  0  0  0  0
  162.1300  206.9860  150.0170 O   0  0  0  0  0  0  0  0  0  0  0  0
  161.6750  206.3980  147.7260 C   0  0  0  0  0  0  0  0  0  0  0  0
  160.4030  206.5170  147.5950 N   0  0  0  0  0  2  0  0  0  0  0  0
  160.5860  201.6000  146.6070 C   0  0  0  0  0  3  0  0  0  0  0  0
  162.4320  205.3850  146.9060 C   0  0  2  0  0  3  0  0  0  0  0  0
  160.9870  201.9930  147.8960 C   0  0  0  0  0  3  0  0  0  0  0  0
  160.7980  202.4220  145.5390 N   0  0  0  0  0  0  0  0  0  0  0  0
  162.4040  205.7500  145.4110 C   0  0  0  0  0  3  0  0  0  0  0  0
  161.3960  203.6290  145.7200 C   0  0  0  0  0  0  0  0  0  0  0  0
  161.6990  204.6080  144.6580 C   0  0  0  0  0  3  0  0  0  0  0  0
  161.7910  204.0500  146.9590 C   0  0  0  0  0  0  0  0  0  0  0  0
  161.6040  203.2380  148.0780 C   0  0  0  0  0  3  0  0  0  0  0  0
  161.9510  208.2780  152.0520 C   0  0  2  0  0  3  0  0  0  0  0  0
  160.5770  206.3230  152.4380 O   0  0  0  0  0  0  0  0  0  0  0  0
  160.9850  207.5480  152.9950 C   0  0  1  0  0  3  0  0  0  0  0  0
  161.2260  205.6120  153.4580 C   0  0  0  0  0  2  0  0  0  0  0  0
  161.7210  206.8670  154.1180 C   0  0  0  0  0  2  0  0  0  0  0  0
  161.9790  209.6640  152.3810 O   0  0  0  0  0  0  0  0  0  0  0  0
  160.9860  210.2650  153.1570 C   0  0  0  0  0  0  0  0  0  0  0  0
  161.1970  210.5580  154.3640 O   0  0  0  0  0  1  0  0  0  0  0  0
  159.7530  210.5520  152.5880 O   0  0  0  0  0  0  0  0  0  0  0  0
  1  2  1  0  0  0  0
  1  4  1  0  0  0  0
  2  6  1  6  0  0  0
  2  5  1  0  0  0  0
  3 17  1  1  0  0  0
  4  3  1  0  0  0  0
  5  3  1  0  0  0  0
  7  6  2  0  0  0  0
  8 10  1  0  0  0  0
  9 15  1  0  0  0  0
  9  6  1  1  0  0  0
 10 16  2  0  0  0  0
 11 13  1  0  0  0  0
 11  8  2  0  0  0  0
 12  9  1  0  0  0  0
 13 15  2  0  0  0  0
 14 12  2  0  0  0  0
 14 13  1  0  0  0  0
 15 16  1  0  0  0  0
 17 22  1  1  0  0  0
 18 19  1  0  0  0  0
 18 20  1  0  0  0  0
 19 17  1  6  0  0  0
 19 21  1  0  0  0  0
 20 21  1  0  0  0  0
 22 23  1  0  0  0  0
 23 24  1  0  0  0  0
 25 23  2  0  0  0  0
M  END
>  <MODEL>
3

>  <REMARK>
 VINA RESULT:      -7.5      1.916      4.012
  Name = 
  6 active torsions:
  status: ('A' for Active; 'I' for Inactive)
    1  A    between atoms: O_1  and  C_2
    2  A    between atoms: O_1  and  C_13
    3  A    between atoms: C_5  and  C_17
    4  A    between atoms: C_7  and  C_13
    5  A    between atoms: C_8  and  C_17
    6  A    between atoms: C_10  and  C_13
                            x       y       z     vdW  Elec       q    Type
                         _______ _______ _______ _____ _____    ______ ____

>  <TORSDO>
F 6

$$$$
=
 OpenBabel11042420143D

 25 28  0  0  1  0  0  0  0  0999 V2000
  161.9840  205.0870  151.2390 C   0  0  0  0  0  2  0  0  0  0  0  0
  160.7750  205.7920  150.6600 C   0  0  1  0  0  3  0  0  0  0  0  0
  161.8200  207.2970  151.9930 C   0  0  1  0  0  3  0  0  0  0  0  0
  162.3600  205.9470  152.3970 C   0  0  0  0  0  2  0  0  0  0  0  0
  160.6830  207.0950  151.1900 O   0  0  0  0  0  0  0  0  0  0  0  0
  160.8440  205.8110  149.1580 C   0  0  0  0  0  0  0  0  0  0  0  0
  159.9710  206.4840  148.4990 N   0  0  0  0  0  2  0  0  0  0  0  0
  160.7610  201.5700  146.4260 C   0  0  0  0  0  3  0  0  0  0  0  0
  161.9500  205.0870  148.4340 C   0  0  2  0  0  3  0  0  0  0  0  0
  160.6280  201.5580  147.8260 C   0  0  0  0  0  3  0  0  0  0  0  0
  161.2490  202.6730  145.7890 N   0  0  0  0  0  0  0  0  0  0  0  0
  162.4190  205.8830  147.2020 C   0  0  0  0  0  3  0  0  0  0  0  0
  161.6060  203.7690  146.5090 C   0  0  0  0  0  0  0  0  0  0  0  0
  162.1600  205.0200  145.9550 C   0  0  0  0  0  3  0  0  0  0  0  0
  161.4840  203.7990  147.8700 C   0  0  0  0  0  0  0  0  0  0  0  0
  160.9990  202.6900  148.5630 C   0  0  0  0  0  3  0  0  0  0  0  0
  161.4740  208.1400  153.2210 C   0  0  2  0  0  3  0  0  0  0  0  0
  161.7450  207.8710  155.6110 O   0  0  0  0  0  0  0  0  0  0  0  0
  161.2620  207.2430  154.4490 C   0  0  1  0  0  3  0  0  0  0  0  0
  160.4470  207.9480  156.1400 C   0  0  0  0  0  2  0  0  0  0  0  0
  159.8370  207.2980  154.9310 C   0  0  0  0  0  2  0  0  0  0  0  0
  160.2840  208.8820  152.9650 O   0  0  0  0  0  0  0  0  0  0  0  0
  160.2600  210.2780  152.9850 C   0  0  0  0  0  0  0  0  0  0  0  0
  161.2770  210.9380  153.3270 O   0  0  0  0  0  1  0  0  0  0  0  0
  159.1020  210.9480  152.6130 O   0  0  0  0  0  0  0  0  0  0  0  0
  1  4  1  0  0  0  0
  2  6  1  6  0  0  0
  2  5  1  0  0  0  0
  2  1  1  0  0  0  0
  3  4  1  0  0  0  0
  3 17  1  1  0  0  0
  5  3  1  0  0  0  0
  7  6  2  0  0  0  0
  8 10  1  0  0  0  0
  9  6  1  6  0  0  0
 10 16  2  0  0  0  0
 11  8  2  0  0  0  0
 11 13  1  0  0  0  0
 12  9  1  0  0  0  0
 13 15  2  0  0  0  0
 14 13  1  0  0  0  0
 14 12  2  0  0  0  0
 15  9  1  0  0  0  0
 15 16  1  0  0  0  0
 17 22  1  6  0  0  0
 18 20  1  0  0  0  0
 19 17  1  6  0  0  0
 19 21  1  0  0  0  0
 19 18  1  0  0  0  0
 21 20  1  0  0  0  0
 22 23  1  0  0  0  0
 23 24  1  0  0  0  0
 25 23  2  0  0  0  0
M  END
>  <MODEL>
4

>  <REMARK>
 VINA RESULT:      -7.4      2.001      3.373
  Name = 
  6 active torsions:
  status: ('A' for Active; 'I' for Inactive)
    1  A    between atoms: O_1  and  C_2
    2  A    between atoms: O_1  and  C_13
    3  A    between atoms: C_5  and  C_17
    4  A    between atoms: C_7  and  C_13
    5  A    between atoms: C_8  and  C_17
    6  A    between atoms: C_10  and  C_13
                            x       y       z     vdW  Elec       q    Type
                         _______ _______ _______ _____ _____    ______ ____

>  <TORSDO>
F 6

$$$$
=
 OpenBabel11042420143D

 25 28  0  0  1  0  0  0  0  0999 V2000
  161.1890  205.3380  153.3720 C   0  0  0  0  0  2  0  0  0  0  0  0
  160.5640  205.4250  151.9960 C   0  0  1  0  0  3  0  0  0  0  0  0
  161.6790  207.3710  152.3200 C   0  0  1  0  0  3  0  0  0  0  0  0
  161.5190  206.7570  153.6890 C   0  0  0  0  0  2  0  0  0  0  0  0
  160.8320  206.6870  151.4280 O   0  0  0  0  0  0  0  0  0  0  0  0
  161.0610  204.3100  151.1190 C   0  0  0  0  0  0  0  0  0  0  0  0
  162.0400  203.5830  151.5230 N   0  0  0  0  0  2  0  0  0  0  0  0
  162.4960  205.3660  146.3980 C   0  0  0  0  0  3  0  0  0  0  0  0
  160.3920  204.0180  149.8000 C   0  0  2  0  0  3  0  0  0  0  0  0
  162.0430  206.3630  147.2810 C   0  0  0  0  0  3  0  0  0  0  0  0
  162.2510  204.0490  146.6600 N   0  0  0  0  0  0  0  0  0  0  0  0
  160.4260  202.5110  149.4840 C   0  0  0  0  0  3  0  0  0  0  0  0
  161.5690  203.6970  147.7820 C   0  0  0  0  0  0  0  0  0  0  0  0
  161.2220  202.3190  148.1810 C   0  0  0  0  0  3  0  0  0  0  0  0
  161.1210  204.6360  148.6680 C   0  0  0  0  0  0  0  0  0  0  0  0
  161.3400  205.9940  148.4350 C   0  0  0  0  0  3  0  0  0  0  0  0
  161.3470  208.8640  152.3460 C   0  0  2  0  0  3  0  0  0  0  0  0
  162.6090  208.8960  150.2800 O   0  0  0  0  0  0  0  0  0  0  0  0
  162.3020  209.6440  151.4310 C   0  0  1  0  0  3  0  0  0  0  0  0
  161.9560  209.8340  149.4650 C   0  0  0  0  0  2  0  0  0  0  0  0
  161.5690  210.6910  150.6360 C   0  0  0  0  0  2  0  0  0  0  0  0
  161.4630  209.3520  153.6800 O   0  0  0  0  0  0  0  0  0  0  0  0
  160.5300  210.2300  154.2340 C   0  0  0  0  0  0  0  0  0  0  0  0
  159.7090  209.8350  155.1050 O   0  0  0  0  0  1  0  0  0  0  0  0
  160.5130  211.5570  153.8290 O   0  0  0  0  0  0  0  0  0  0  0  0
  1  4  1  0  0  0  0
  2  6  1  6  0  0  0
  2  1  1  0  0  0  0
  3 17  1  1  0  0  0
  3  4  1  0  0  0  0
  5  2  1  0  0  0  0
  5  3  1  0  0  0  0
  6  7  2  0  0  0  0
  8 11  2  0  0  0  0
  8 10  1  0  0  0  0
  9  6  1  1  0  0  0
 10 16  2  0  0  0  0
 11 13  1  0  0  0  0
 12  9  1  0  0  0  0
 13 14  1  0  0  0  0
 13 15  2  0  0  0  0
 14 12  2  0  0  0  0
 15  9  1  0  0  0  0
 16 15  1  0  0  0  0
 17 22  1  1  0  0  0
 18 19  1  0  0  0  0
 19 17  1  1  0  0  0
 20 18  1  0  0  0  0
 20 21  1  0  0  0  0
 21 19  1  0  0  0  0
 22 23  1  0  0  0  0
 23 24  1  0  0  0  0
 25 23  2  0  0  0  0
M  END
>  <MODEL>
5

>  <REMARK>
 VINA RESULT:      -7.3      1.405      2.696
  Name = 
  6 active torsions:
  status: ('A' for Active; 'I' for Inactive)
    1  A    between atoms: O_1  and  C_2
    2  A    between atoms: O_1  and  C_13
    3  A    between atoms: C_5  and  C_17
    4  A    between atoms: C_7  and  C_13
    5  A    between atoms: C_8  and  C_17
    6  A    between atoms: C_10  and  C_13
                            x       y       z     vdW  Elec       q    Type
                         _______ _______ _______ _____ _____    ______ ____

>  <TORSDO>
F 6

$$$$
=
 OpenBabel11042420143D

 25 28  0  0  1  0  0  0  0  0999 V2000
  162.0320  208.0870  149.1000 C   0  0  0  0  0  2  0  0  0  0  0  0
  161.0020  207.4540  150.0100 C   0  0  1  0  0  3  0  0  0  0  0  0
  161.7990  205.7950  148.6870 C   0  0  1  0  0  3  0  0  0  0  0  0
  162.1880  207.0850  148.0070 C   0  0  0  0  0  2  0  0  0  0  0  0
  160.8500  206.0900  149.6840 O   0  0  0  0  0  0  0  0  0  0  0  0
  161.3870  207.6360  151.4510 C   0  0  0  0  0  0  0  0  0  0  0  0
  162.3800  206.9720  151.9230 N   0  0  0  0  0  2  0  0  0  0  0  0
  161.3300  208.1890  156.4670 C   0  0  0  0  0  3  0  0  0  0  0  0
  160.6470  208.6170  152.3230 C   0  0  2  0  0  3  0  0  0  0  0  0
  160.6990  207.1060  155.8280 C   0  0  0  0  0  3  0  0  0  0  0  0
  161.6870  209.2960  155.7540 N   0  0  0  0  0  0  0  0  0  0  0  0
  161.2170  210.0390  152.1630 C   0  0  0  0  0  3  0  0  0  0  0  0
  161.4350  209.3540  154.4200 C   0  0  0  0  0  0  0  0  0  0  0  0
  161.7520  210.4900  153.5330 C   0  0  0  0  0  3  0  0  0  0  0  0
  160.8320  208.3190  153.7620 C   0  0  0  0  0  0  0  0  0  0  0  0
  160.4410  207.1720  154.4520 C   0  0  0  0  0  3  0  0  0  0  0  0
  161.2330  204.7920  147.6810 C   0  0  2  0  0  3  0  0  0  0  0  0
  161.1400  202.9670  149.2680 O   0  0  0  0  0  0  0  0  0  0  0  0
  161.6790  203.3660  148.0320 C   0  0  1  0  0  3  0  0  0  0  0  0
  160.3710  201.9740  148.6420 C   0  0  0  0  0  2  0  0  0  0  0  0
  160.8790  202.3380  147.2770 C   0  0  0  0  0  2  0  0  0  0  0  0
  161.6920  205.1240  146.3730 O   0  0  0  0  0  0  0  0  0  0  0  0
  160.8180  205.2790  145.2950 C   0  0  0  0  0  0  0  0  0  0  0  0
  160.1950  206.3600  145.1180 O   0  0  0  0  0  1  0  0  0  0  0  0
  160.6400  204.2320  144.4010 O   0  0  0  0  0  0  0  0  0  0  0  0
  1  2  1  0  0  0  0
  2  6  1  1  0  0  0
  3 17  1  6  0  0  0
  3  5  1  0  0  0  0
  4  3  1  0  0  0  0
  4  1  1  0  0  0  0
  5  2  1  0  0  0  0
  6  7  2  0  0  0  0
  9  6  1  6  0  0  0
  9 15  1  0  0  0  0
 10  8  1  0  0  0  0
 11  8  2  0  0  0  0
 12  9  1  0  0  0  0
 12 14  2  0  0  0  0
 13 11  1  0  0  0  0
 14 13  1  0  0  0  0
 15 13  2  0  0  0  0
 15 16  1  0  0  0  0
 16 10  2  0  0  0  0
 17 22  1  6  0  0  0
 19 17  1  6  0  0  0
 19 18  1  0  0  0  0
 20 18  1  0  0  0  0
 21 19  1  0  0  0  0
 21 20  1  0  0  0  0
 23 22  1  0  0  0  0
 24 23  1  0  0  0  0
 25 23  2  0  0  0  0
M  END
>  <MODEL>
6

>  <REMARK>
 VINA RESULT:      -7.3      2.891      7.236
  Name = 
  6 active torsions:
  status: ('A' for Active; 'I' for Inactive)
    1  A    between atoms: O_1  and  C_2
    2  A    between atoms: O_1  and  C_13
    3  A    between atoms: C_5  and  C_17
    4  A    between atoms: C_7  and  C_13
    5  A    between atoms: C_8  and  C_17
    6  A    between atoms: C_10  and  C_13
                            x       y       z     vdW  Elec       q    Type
                         _______ _______ _______ _____ _____    ______ ____

>  <TORSDO>
F 6

$$$$
=
 OpenBabel11042420143D

 25 28  0  0  1  0  0  0  0  0999 V2000
  162.4650  205.8920  146.4780 C   0  0  0  0  0  2  0  0  0  0  0  0
  161.3800  206.1780  147.4950 C   0  0  1  0  0  3  0  0  0  0  0  0
  161.6680  203.9310  147.4760 C   0  0  1  0  0  3  0  0  0  0  0  0
  162.3020  204.4360  146.2040 C   0  0  0  0  0  2  0  0  0  0  0  0
  160.8880  204.9670  148.0230 O   0  0  0  0  0  0  0  0  0  0  0  0
  161.8990  207.0810  148.5800 C   0  0  0  0  0  0  0  0  0  0  0  0
  163.1080  207.5070  148.5150 N   0  0  0  0  0  2  0  0  0  0  0  0
  161.5720  205.4590  153.3470 C   0  0  0  0  0  3  0  0  0  0  0  0
  160.9980  207.5180  149.7060 C   0  0  2  0  0  3  0  0  0  0  0  0
  161.1200  204.6850  152.2630 C   0  0  0  0  0  3  0  0  0  0  0  0
  161.8020  206.7950  153.1920 N   0  0  0  0  0  0  0  0  0  0  0  0
  161.3740  208.9260  150.2020 C   0  0  0  0  0  3  0  0  0  0  0  0
  161.5970  207.3820  151.9840 C   0  0  0  0  0  0  0  0  0  0  0  0
  161.7900  208.8140  151.6790 C   0  0  0  0  0  3  0  0  0  0  0  0
  161.1660  206.6630  150.9040 C   0  0  0  0  0  0  0  0  0  0  0  0
  160.9090  205.2970  151.0200 C   0  0  0  0  0  3  0  0  0  0  0  0
  160.8120  202.6910  147.2100 C   0  0  2  0  0  3  0  0  0  0  0  0
  161.6010  202.1800  149.4390 O   0  0  0  0  0  0  0  0  0  0  0  0
  161.0870  201.6090  148.2620 C   0  0  1  0  0  3  0  0  0  0  0  0
  160.4570  201.7980  150.1570 C   0  0  0  0  0  2  0  0  0  0  0  0
  159.8200  201.1740  148.9480 C   0  0  0  0  0  2  0  0  0  0  0  0
  161.1100  202.1800  145.9130 O   0  0  0  0  0  0  0  0  0  0  0  0
  160.1170  201.7080  145.0530 C   0  0  0  0  0  0  0  0  0  0  0  0
  159.9400  200.4720  144.8860 O   0  0  0  0  0  1  0  0  0  0  0  0
  159.3080  202.6120  144.3790 O   0  0  0  0  0  0  0  0  0  0  0  0
  1  2  1  0  0  0  0
  2  5  1  0  0  0  0
  2  6  1  1  0  0  0
  3 17  1  6  0  0  0
  3  5  1  0  0  0  0
  4  1  1  0  0  0  0
  4  3  1  0  0  0  0
  7  6  2  0  0  0  0
  9  6  1  6  0  0  0
  9 12  1  0  0  0  0
  9 15  1  0  0  0  0
 10  8  2  0  0  0  0
 11  8  1  0  0  0  0
 12 14  2  0  0  0  0
 13 11  2  0  0  0  0
 14 13  1  0  0  0  0
 15 16  2  0  0  0  0
 15 13  1  0  0  0  0
 16 10  1  0  0  0  0
 17 22  1  6  0  0  0
 18 20  1  0  0  0  0
 19 17  1  6  0  0  0
 19 21  1  0  0  0  0
 19 18  1  0  0  0  0
 21 20  1  0  0  0  0
 23 22  1  0  0  0  0
 24 23  1  0  0  0  0
 25 23  2  0  0  0  0
M  END
>  <MODEL>
7

>  <REMARK>
 VINA RESULT:      -7.2      3.249      6.955
  Name = 
  6 active torsions:
  status: ('A' for Active; 'I' for Inactive)
    1  A    between atoms: O_1  and  C_2
    2  A    between atoms: O_1  and  C_13
    3  A    between atoms: C_5  and  C_17
    4  A    between atoms: C_7  and  C_13
    5  A    between atoms: C_8  and  C_17
    6  A    between atoms: C_10  and  C_13
                            x       y       z     vdW  Elec       q    Type
                         _______ _______ _______ _____ _____    ______ ____

>  <TORSDO>
F 6

$$$$
=
 OpenBabel11042420143D

 25 28  0  0  1  0  0  0  0  0999 V2000
  162.6280  209.1850  151.2340 C   0  0  0  0  0  2  0  0  0  0  0  0
  161.7550  207.9480  151.2260 C   0  0  1  0  0  3  0  0  0  0  0  0
  160.6240  209.5250  152.3950 C   0  0  1  0  0  3  0  0  0  0  0  0
  162.0550  210.0010  152.3430 C   0  0  0  0  0  2  0  0  0  0  0  0
  160.5920  208.1780  151.9880 O   0  0  0  0  0  0  0  0  0  0  0  0
  161.4200  207.5480  149.8160 C   0  0  0  0  0  0  0  0  0  0  0  0
  161.9390  208.2010  148.8390 N   0  0  0  0  0  2  0  0  0  0  0  0
  161.5810  204.0470  146.1850 C   0  0  0  0  0  3  0  0  0  0  0  0
  160.5220  206.3680  149.5480 C   0  0  2  0  0  3  0  0  0  0  0  0
  161.1970  205.3750  145.9240 C   0  0  0  0  0  3  0  0  0  0  0  0
  161.5990  203.5730  147.4640 N   0  0  0  0  0  0  0  0  0  0  0  0
  160.7050  205.2780  150.6200 C   0  0  0  0  0  3  0  0  0  0  0  0
  161.2470  204.3870  148.4940 C   0  0  0  0  0  0  0  0  0  0  0  0
  161.2070  204.0040  149.9180 C   0  0  0  0  0  3  0  0  0  0  0  0
  160.8770  205.6860  148.2820 C   0  0  0  0  0  0  0  0  0  0  0  0
  160.8350  206.2100  146.9900 C   0  0  0  0  0  3  0  0  0  0  0  0
  160.0460  209.6790  153.8030 C   0  0  2  0  0  3  0  0  0  0  0  0
  158.4460  211.3780  153.1610 O   0  0  0  0  0  0  0  0  0  0  0  0
  159.5270  211.1070  154.0190 C   0  0  1  0  0  3  0  0  0  0  0  0
  157.5730  211.4930  154.2540 C   0  0  0  0  0  2  0  0  0  0  0  0
  158.6600  211.1970  155.2470 C   0  0  0  0  0  2  0  0  0  0  0  0
  161.0570  209.3900  154.7650 O   0  0  0  0  0  0  0  0  0  0  0  0
  160.9950  208.2710  155.5970 C   0  0  0  0  0  0  0  0  0  0  0  0
  160.0580  207.4360  155.4880 O   0  0  0  0  0  0  0  0  0  0  0  0
  161.9850  208.0700  156.5490 O   0  0  0  0  0  1  0  0  0  0  0  0
  1  4  1  0  0  0  0
  2  6  1  6  0  0  0
  2  1  1  0  0  0  0
  2  5  1  0  0  0  0
  3 17  1  1  0  0  0
  4  3  1  0  0  0  0
  5  3  1  0  0  0  0
  7  6  2  0  0  0  0
  8 11  1  0  0  0  0
  9  6  1  1  0  0  0
  9 12  1  0  0  0  0
 10  8  2  0  0  0  0
 10 16  1  0  0  0  0
 11 13  2  0  0  0  0
 13 14  1  0  0  0  0
 14 12  2  0  0  0  0
 15 13  1  0  0  0  0
 15  9  1  0  0  0  0
 16 15  2  0  0  0  0
 17 22  1  1  0  0  0
 18 19  1  0  0  0  0
 18 20  1  0  0  0  0
 19 17  1  6  0  0  0
 19 21  1  0  0  0  0
 20 21  1  0  0  0  0
 22 23  1  0  0  0  0
 23 25  1  0  0  0  0
 24 23  2  0  0  0  0
M  END
>  <MODEL>
8

>  <REMARK>
 VINA RESULT:      -7.1      2.586      4.169
  Name = 
  6 active torsions:
  status: ('A' for Active; 'I' for Inactive)
    1  A    between atoms: O_1  and  C_2
    2  A    between atoms: O_1  and  C_13
    3  A    between atoms: C_5  and  C_17
    4  A    between atoms: C_7  and  C_13
    5  A    between atoms: C_8  and  C_17
    6  A    between atoms: C_10  and  C_13
                            x       y       z     vdW  Elec       q    Type
                         _______ _______ _______ _____ _____    ______ ____

>  <TORSDO>
F 6

$$$$
=
 OpenBabel11042420143D

 25 28  0  0  1  0  0  0  0  0999 V2000
  161.1940  206.3360  152.1280 C   0  0  0  0  0  2  0  0  0  0  0  0
  162.1660  207.3390  151.5440 C   0  0  1  0  0  3  0  0  0  0  0  0
  161.2060  206.2750  149.7880 C   0  0  1  0  0  3  0  0  0  0  0  0
  160.9370  205.4060  150.9920 C   0  0  0  0  0  2  0  0  0  0  0  0
  162.1850  207.2230  150.1390 O   0  0  0  0  0  0  0  0  0  0  0  0
  161.8080  208.7340  151.9770 C   0  0  0  0  0  0  0  0  0  0  0  0
  162.5410  209.7160  151.5930 N   0  0  0  0  0  2  0  0  0  0  0  0
  161.3180  209.5760  156.9280 C   0  0  0  0  0  3  0  0  0  0  0  0
  160.5800  208.9840  152.8140 C   0  0  2  0  0  3  0  0  0  0  0  0
  161.6490  208.3090  156.4160 C   0  0  0  0  0  3  0  0  0  0  0  0
  160.7910  210.5330  156.1100 N   0  0  0  0  0  0  0  0  0  0  0  0
  159.9740  210.3660  152.5090 C   0  0  0  0  0  3  0  0  0  0  0  0
  160.5880  210.2640  154.7940 C   0  0  0  0  0  0  0  0  0  0  0  0
  160.0150  211.1960  153.8040 C   0  0  0  0  0  3  0  0  0  0  0  0
  160.9060  209.0480  154.2570 C   0  0  0  0  0  0  0  0  0  0  0  0
  161.4370  208.0360  155.0580 C   0  0  0  0  0  3  0  0  0  0  0  0
  161.6670  205.4350  148.5960 C   0  0  2  0  0  3  0  0  0  0  0  0
  162.6610  205.6600  146.4010 O   0  0  0  0  0  0  0  0  0  0  0  0
  161.8740  206.3210  147.3600 C   0  0  1  0  0  3  0  0  0  0  0  0
  161.5830  205.6220  145.5030 C   0  0  0  0  0  2  0  0  0  0  0  0
  160.6620  206.3120  146.4680 C   0  0  0  0  0  2  0  0  0  0  0  0
  160.6870  204.4420  148.3090 O   0  0  0  0  0  0  0  0  0  0  0  0
  161.0010  203.0830  148.2420 C   0  0  0  0  0  0  0  0  0  0  0  0
  161.2850  202.5390  147.1420 O   0  0  0  0  0  0  0  0  0  0  0  0
  161.0100  202.3240  149.4050 O   0  0  0  0  0  1  0  0  0  0  0  0
  2  6  1  6  0  0  0
  2  1  1  0  0  0  0
  3 17  1  6  0  0  0
  3  5  1  0  0  0  0
  3  4  1  0  0  0  0
  4  1  1  0  0  0  0
  5  2  1  0  0  0  0
  7  6  2  0  0  0  0
  9  6  1  6  0  0  0
  9 15  1  0  0  0  0
 10  8  1  0  0  0  0
 11  8  2  0  0  0  0
 12  9  1  0  0  0  0
 12 14  2  0  0  0  0
 13 11  1  0  0  0  0
 14 13  1  0  0  0  0
 15 13  2  0  0  0  0
 15 16  1  0  0  0  0
 16 10  2  0  0  0  0
 17 22  1  6  0  0  0
 18 19  1  0  0  0  0
 19 17  1  1  0  0  0
 20 18  1  0  0  0  0
 20 21  1  0  0  0  0
 21 19  1  0  0  0  0
 23 22  1  0  0  0  0
 23 25  1  0  0  0  0
 24 23  2  0  0  0  0
M  END
>  <MODEL>
9

>  <REMARK>
 VINA RESULT:      -7.1      3.230      7.438
  Name = 
  6 active torsions:
  status: ('A' for Active; 'I' for Inactive)
    1  A    between atoms: O_1  and  C_2
    2  A    between atoms: O_1  and  C_13
    3  A    between atoms: C_5  and  C_17
    4  A    between atoms: C_7  and  C_13
    5  A    between atoms: C_8  and  C_17
    6  A    between atoms: C_10  and  C_13
                            x       y       z     vdW  Elec       q    Type
                         _______ _______ _______ _____ _____    ______ ____

>  <TORSDO>
F 6

$$$$
