=
 OpenBabel11042420383D

 45 50  0  0  1  0  0  0  0  0999 V2000
  161.3320  209.4780  155.9640 C   0  0  0  0  0  3  0  0  0  0  0  0
  159.8200  210.6880  154.5470 C   0  0  0  0  0  0  0  0  0  0  0  0
  160.1200  209.8580  153.5040 C   0  0  0  0  0  0  0  0  0  0  0  0
  161.0500  208.8160  153.6260 C   0  0  0  0  0  0  0  0  0  0  0  0
  159.6750  213.7200  149.3520 C   0  0  1  0  0  3  0  0  0  0  0  0
  157.9670  212.1860  151.9220 C   0  0  0  0  0  2  0  0  0  0  0  0
  160.4090  210.5280  155.8140 C   0  0  0  0  0  0  0  0  0  0  0  0
  158.4150  213.4560  150.1610 C   0  0  0  0  0  2  0  0  0  0  0  0
  161.4560  207.9330  152.4770 C   0  0  2  0  0  3  0  0  0  0  0  0
  162.3980  210.1000  151.3230 C   0  0  1  0  0  3  0  0  0  0  0  0
  158.9650  211.6400  154.1410 N   0  0  0  0  0  0  0  0  0  0  0  0
  159.4650  210.2510  152.4000 N   0  0  0  0  0  2  0  0  0  0  0  0
  158.7500  213.2640  151.5030 O   0  0  0  0  0  0  0  0  0  0  0  0
  161.7650  210.5840  150.0180 C   0  0  2  0  0  3  0  0  0  0  0  0
  160.3780  212.4100  149.0300 C   0  0  0  0  0  2  0  0  0  0  0  0
  161.6540  208.6340  154.8810 C   0  0  0  0  0  3  0  0  0  0  0  0
  163.0500  207.9060  150.7340 O   0  0  0  0  0  0  0  0  0  0  0  0
  162.6540  210.4740  148.9450 O   0  0  0  0  0  1  0  0  0  0  0  0
  161.2940  212.0190  150.1770 C   0  0  0  0  0  2  0  0  0  0  0  0
  158.7690  211.3300  152.8360 C   0  0  0  0  0  0  0  0  0  0  0  0
  162.3600  208.6010  151.4650 C   0  0  0  0  0  0  0  0  0  0  0  0
  164.0020  210.7220  153.0190 O   0  0  0  0  0  1  0  0  0  0  0  0
  163.7620  210.7100  151.6440 C   0  0  0  0  0  2  0  0  0  0  0  0
  160.1360  211.3510  156.9150 O   0  0  0  0  0  0  0  0  0  0  0  0
  159.3860  212.5530  156.8400 C   0  0  0  0  0  1  0  0  0  0  0  0
  159.3060  214.4380  148.0590 C   0  0  0  0  0  2  0  0  0  0  0  0
  159.4530  213.5350  146.9220 N   0  0  0  0  0  0  0  0  0  0  0  0
  158.1310  213.1650  146.4370 C   0  0  0  0  0  1  0  0  0  0  0  0
  160.2830  214.1480  145.8680 C   0  0  0  0  0  2  0  0  0  0  0  0
  160.6120  212.9770  143.6130 C   0  0  0  0  0  2  0  0  0  0  0  0
  162.6090  213.6200  144.8620 C   0  0  0  0  0  2  0  0  0  0  0  0
  161.8200  212.8870  142.6920 C   0  0  0  0  0  2  0  0  0  0  0  0
  163.0580  212.9730  143.5680 C   0  0  0  0  0  2  0  0  0  0  0  0
  161.1590  213.2100  145.0080 C   0  0  0  0  0  3  0  0  0  0  0  0
  160.2540  207.2580  151.8230 C   0  0  0  0  0  2  0  0  0  0  0  0
  160.9590  202.7200  148.4610 C   0  0  0  0  0  2  0  0  0  0  0  0
  160.9380  201.7370  149.4790 O   0  0  0  0  0  0  0  0  0  0  0  0
  161.3120  203.8570  150.4100 C   0  0  2  0  0  3  0  0  0  0  0  0
  160.8110  206.5030  149.3960 C   0  0  0  0  0  2  0  0  0  0  0  0
  162.0190  201.8210  151.6200 C   0  0  0  0  0  1  0  0  0  0  0  0
  160.6890  206.1780  150.8860 C   0  0  0  0  0  0  0  0  0  0  0  0
  160.6330  204.0330  149.1150 C   0  0  1  0  0  3  0  0  0  0  0  0
  160.9650  202.4290  150.7160 C   0  0  2  0  0  3  0  0  0  0  0  0
  160.8420  204.9190  151.3540 C   0  0  0  0  0  3  0  0  0  0  0  0
  161.1920  205.3010  148.4960 C   0  0  0  0  0  2  0  0  0  0  0  0
  2  7  2  0  0  0  0
  3  4  2  0  0  0  0
  3  2  1  0  0  0  0
  4 16  1  0  0  0  0
  5 26  1  6  0  0  0
  5  8  1  0  0  0  0
  6 20  1  0  0  0  0
  7  1  1  0  0  0  0
  7 24  1  0  0  0  0
  8 13  1  0  0  0  0
  9 35  1  6  0  0  0
  9  4  1  0  0  0  0
 10 21  1  0  0  0  0
 10 23  1  6  0  0  0
 11  2  1  0  0  0  0
 12 20  1  0  0  0  0
 12  3  1  0  0  0  0
 13  6  1  0  0  0  0
 14 18  1  6  0  0  0
 14 19  1  0  0  0  0
 14 10  1  0  0  0  0
 15  5  1  0  0  0  0
 15 19  1  0  0  0  0
 16  1  2  0  0  0  0
 17 21  2  0  0  0  0
 20 11  2  0  0  0  0
 21  9  1  0  0  0  0
 23 22  1  0  0  0  0
 25 24  1  0  0  0  0
 27 26  1  0  0  0  0
 28 27  1  0  0  0  0
 29 27  1  0  0  0  0
 30 34  1  0  0  0  0
 31 34  1  0  0  0  0
 32 33  1  0  0  0  0
 32 30  1  0  0  0  0
 33 31  1  0  0  0  0
 34 29  1  0  0  0  0
 36 37  1  0  0  0  0
 37 43  1  0  0  0  0
 38 43  1  0  0  0  0
 38 44  1  1  0  0  0
 39 41  1  0  0  0  0
 41 44  2  0  0  0  0
 41 35  1  0  0  0  0
 42 36  1  6  0  0  0
 42 38  1  0  0  0  0
 43 40  1  1  0  0  0
 45 42  1  0  0  0  0
 45 39  1  0  0  0  0
M  END
>  <MODEL>
1

>  <REMARK>
 VINA RESULT:      -3.1      0.000      0.000
  Name = 
  8 active torsions:
  status: ('A' for Active; 'I' for Inactive)
    1  A    between atoms: C_7  and  C_11
    2  A    between atoms: C_7  and  N_18
    3  A    between atoms: C_13  and  O_34
    4  A    between atoms: N_18  and  C_22
    5  A    between atoms: C_21  and  C_44
    6  A    between atoms: C_22  and  C_26
    7  A    between atoms: C_23  and  C_44
    8  A    between atoms: C_24  and  C_42
                            x       y       z     vdW  Elec       q    Type
                         _______ _______ _______ _____ _____    ______ ____

>  <TORSDO>
F 8

$$$$
=
 OpenBabel11042420383D

 45 50  0  0  1  0  0  0  0  0999 V2000
  161.7160  208.3540  155.8070 C   0  0  0  0  0  3  0  0  0  0  0  0
  160.1430  209.8010  154.7160 C   0  0  0  0  0  0  0  0  0  0  0  0
  160.3160  209.1200  153.5440 C   0  0  0  0  0  0  0  0  0  0  0  0
  161.2060  208.0430  153.4350 C   0  0  0  0  0  0  0  0  0  0  0  0
  159.6860  213.5470  150.0290 C   0  0  1  0  0  3  0  0  0  0  0  0
  158.1390  211.7160  152.5050 C   0  0  0  0  0  2  0  0  0  0  0  0
  160.8300  209.4430  155.8890 C   0  0  0  0  0  0  0  0  0  0  0  0
  158.4900  213.2090  150.9050 C   0  0  0  0  0  2  0  0  0  0  0  0
  161.4730  207.3200  152.1420 C   0  0  2  0  0  3  0  0  0  0  0  0
  162.4070  209.5990  151.2200 C   0  0  1  0  0  3  0  0  0  0  0  0
  159.2980  210.8280  154.5260 N   0  0  0  0  0  0  0  0  0  0  0  0
  159.5860  209.6860  152.5710 N   0  0  0  0  0  2  0  0  0  0  0  0
  158.9300  212.8170  152.1710 O   0  0  0  0  0  0  0  0  0  0  0  0
  161.6860  210.2840  150.0590 C   0  0  2  0  0  3  0  0  0  0  0  0
  160.3010  212.2750  149.4650 C   0  0  0  0  0  2  0  0  0  0  0  0
  161.9070  207.6640  154.5920 C   0  0  0  0  0  3  0  0  0  0  0  0
  162.9090  207.4920  150.2740 O   0  0  0  0  0  0  0  0  0  0  0  0
  162.4740  210.3010  148.9040 O   0  0  0  0  0  1  0  0  0  0  0  0
  161.2940  211.6960  150.4590 C   0  0  0  0  0  2  0  0  0  0  0  0
  158.9790  210.7130  153.2140 C   0  0  0  0  0  0  0  0  0  0  0  0
  162.3150  208.0970  151.1550 C   0  0  0  0  0  0  0  0  0  0  0  0
  163.8790  210.8030  152.7100 O   0  0  0  0  0  1  0  0  0  0  0  0
  163.8180  210.1140  151.4980 C   0  0  0  0  0  2  0  0  0  0  0  0
  160.6890  210.1090  157.1140 O   0  0  0  0  0  0  0  0  0  0  0  0
  160.7330  211.5200  157.2600 C   0  0  0  0  0  1  0  0  0  0  0  0
  159.2400  214.4530  148.8880 C   0  0  0  0  0  2  0  0  0  0  0  0
  158.7540  213.6520  147.7690 N   0  0  0  0  0  0  0  0  0  0  0  0
  157.3080  213.5170  147.8750 C   0  0  0  0  0  1  0  0  0  0  0  0
  159.1670  214.2420  146.4820 C   0  0  0  0  0  2  0  0  0  0  0  0
  158.5840  214.0610  143.9940 C   0  0  0  0  0  2  0  0  0  0  0  0
  160.3950  212.6600  144.8420 C   0  0  0  0  0  2  0  0  0  0  0  0
  159.3640  213.4960  142.8160 C   0  0  0  0  0  2  0  0  0  0  0  0
  160.2560  212.3930  143.3580 C   0  0  0  0  0  2  0  0  0  0  0  0
  159.1000  213.3440  145.2270 C   0  0  0  0  0  3  0  0  0  0  0  0
  160.1910  206.7830  151.5120 C   0  0  0  0  0  2  0  0  0  0  0  0
  162.2290  203.7600  147.1420 C   0  0  0  0  0  2  0  0  0  0  0  0
  162.1350  204.7760  146.1610 O   0  0  0  0  0  0  0  0  0  0  0  0
  160.8220  205.3280  148.0240 C   0  0  2  0  0  3  0  0  0  0  0  0
  160.8810  204.3950  150.7450 C   0  0  0  0  0  2  0  0  0  0  0  0
  160.3270  206.3150  145.8130 C   0  0  0  0  0  1  0  0  0  0  0  0
  160.4970  205.8340  150.3990 C   0  0  0  0  0  0  0  0  0  0  0  0
  161.8710  204.3900  148.4580 C   0  0  1  0  0  3  0  0  0  0  0  0
  161.4220  205.8500  146.7510 C   0  0  2  0  0  3  0  0  0  0  0  0
  160.5490  206.2980  149.1300 C   0  0  0  0  0  3  0  0  0  0  0  0
  161.2550  203.5090  149.5300 C   0  0  0  0  0  2  0  0  0  0  0  0
  1  7  1  0  0  0  0
  2  7  2  0  0  0  0
  3  2  1  0  0  0  0
  4  3  2  0  0  0  0
  4 16  1  0  0  0  0
  5 26  1  6  0  0  0
  5  8  1  0  0  0  0
  6 20  1  0  0  0  0
  7 24  1  0  0  0  0
  8 13  1  0  0  0  0
  9 35  1  6  0  0  0
  9  4  1  0  0  0  0
 10 23  1  6  0  0  0
 11  2  1  0  0  0  0
 12 20  1  0  0  0  0
 12  3  1  0  0  0  0
 13  6  1  0  0  0  0
 14 18  1  6  0  0  0
 14 19  1  0  0  0  0
 14 10  1  0  0  0  0
 15  5  1  0  0  0  0
 15 19  1  0  0  0  0
 16  1  2  0  0  0  0
 17 21  2  0  0  0  0
 20 11  2  0  0  0  0
 21 10  1  0  0  0  0
 21  9  1  0  0  0  0
 23 22  1  0  0  0  0
 24 25  1  0  0  0  0
 27 28  1  0  0  0  0
 27 26  1  0  0  0  0
 29 27  1  0  0  0  0
 30 34  1  0  0  0  0
 31 34  1  0  0  0  0
 32 33  1  0  0  0  0
 32 30  1  0  0  0  0
 33 31  1  0  0  0  0
 34 29  1  0  0  0  0
 37 43  1  0  0  0  0
 37 36  1  0  0  0  0
 38 42  1  0  0  0  0
 38 44  1  1  0  0  0
 41 39  1  0  0  0  0
 41 35  1  0  0  0  0
 42 36  1  6  0  0  0
 42 45  1  0  0  0  0
 43 40  1  6  0  0  0
 43 38  1  0  0  0  0
 44 41  2  0  0  0  0
 45 39  1  0  0  0  0
M  END
>  <MODEL>
2

>  <REMARK>
 VINA RESULT:      -0.6      1.318      2.073
  Name = 
  8 active torsions:
  status: ('A' for Active; 'I' for Inactive)
    1  A    between atoms: C_7  and  C_11
    2  A    between atoms: C_7  and  N_18
    3  A    between atoms: C_13  and  O_34
    4  A    between atoms: N_18  and  C_22
    5  A    between atoms: C_21  and  C_44
    6  A    between atoms: C_22  and  C_26
    7  A    between atoms: C_23  and  C_44
    8  A    between atoms: C_24  and  C_42
                            x       y       z     vdW  Elec       q    Type
                         _______ _______ _______ _____ _____    ______ ____

>  <TORSDO>
F 8

$$$$
