=
 OpenBabel11052411473D

 40 49  0  0  1  0  0  0  0  0999 V2000
  161.0900  200.8040  150.4750 O   0  0  0  0  0  1  0  0  0  0  0  0
  161.0930  206.7060  151.6210 C   0  0  0  0  0  0  0  0  0  0  0  0
  160.4280  204.7600  149.2430 N   0  0  0  0  0  0  0  0  0  0  0  0
  160.8090  203.0900  152.3080 N   0  0  0  0  0  0  0  0  0  0  0  0
  160.3850  204.4570  150.5510 C   0  0  0  0  0  0  0  0  0  0  0  0
  160.4220  206.0040  148.8180 N   0  0  0  0  0  0  0  0  0  0  0  0
  160.9060  207.5820  152.7440 C   0  0  0  0  0  3  0  0  0  0  0  0
  161.8320  207.3490  150.6490 C   0  0  0  0  0  0  0  0  0  0  0  0
  160.5550  203.1110  150.9880 C   0  0  0  0  0  0  0  0  0  0  0  0
  160.8570  202.1090  150.0550 C   0  0  0  0  0  0  0  0  0  0  0  0
  162.1480  209.5900  151.7520 C   0  0  0  0  0  3  0  0  0  0  0  0
  161.3910  208.9670  152.8140 C   0  0  0  0  0  0  0  0  0  0  0  0
  161.7510  208.4060  148.3670 C   0  0  1  0  0  3  0  0  0  0  0  0
  160.6770  205.2720  151.6290 C   0  0  0  0  0  0  0  0  0  0  0  0
  161.6580  207.3700  147.3240 N   0  0  0  0  0  2  0  0  0  0  0  0
  161.3660  204.6470  146.9360 S   0  0  0  0  0  0  0  0  0  0  0  0
  160.9660  206.1580  147.6080 C   0  0  0  0  0  0  0  0  0  0  0  0
  162.5870  207.9180  149.5860 C   0  0  1  0  0  3  0  0  0  0  0  0
  162.3280  208.7180  150.7230 C   0  0  0  0  0  0  0  0  0  0  0  0
  161.0080  202.4820  148.6900 C   0  0  0  0  0  0  0  0  0  0  0  0
  160.8750  204.3940  152.7010 C   0  0  0  0  0  3  0  0  0  0  0  0
  160.8340  203.8430  148.3340 C   0  0  0  0  0  0  0  0  0  0  0  0
  161.3380  210.6360  155.9270 C   0  0  0  0  0  0  0  0  0  0  0  0
  161.9440  209.8540  155.0130 N   0  0  0  0  0  0  0  0  0  0  0  0
  159.9770  210.3870  154.1960 N   0  0  0  0  0  0  0  0  0  0  0  0
  160.0810  210.9770  155.4010 C   0  0  0  0  0  0  0  0  0  0  0  0
  161.1080  209.7320  153.9950 N   0  0  0  0  0  0  0  0  0  0  0  0
  161.9980  210.8910  157.2610 C   0  0  0  0  0  3  0  0  0  0  0  0
  163.4850  210.6190  157.2320 C   0  0  0  0  0  2  0  0  0  0  0  0
  162.9710  212.0490  157.2490 C   0  0  0  0  0  2  0  0  0  0  0  0
  159.2490  213.2510  156.2460 C   0  0  0  0  0  1  0  0  0  0  0  0
  158.9930  211.8130  155.9510 C   0  0  0  0  0  0  0  0  0  0  0  0
  157.8690  211.3320  156.2380 O   0  0  0  0  0  0  0  0  0  0  0  0
  161.7970  200.7450  146.9270 N   0  0  0  0  0  0  0  0  0  0  0  0
  161.4460  201.5180  147.7120 C   0  0  0  0  0  0  0  0  0  0  0  0
  162.3740  209.6490  147.7530 C   0  0  0  0  0  2  0  0  0  0  0  0
  161.4600  211.9310  147.4490 C   0  0  1  0  0  3  0  0  0  0  0  0
  161.9370  213.2920  147.9170 C   0  0  0  0  0  2  0  0  0  0  0  0
  162.7990  212.0620  148.1200 C   0  0  1  0  0  3  0  0  0  0  0  0
  161.8930  210.8960  148.4690 C   0  0  2  0  0  3  0  0  0  0  0  0
  2 14  1  0  0  0  0
  2  7  1  0  0  0  0
  3  5  1  0  0  0  0
  4 21  2  0  0  0  0
  5  9  1  0  0  0  0
  5 14  2  0  0  0  0
  6  3  1  0  0  0  0
  7 12  2  0  0  0  0
  8 19  1  0  0  0  0
  8  2  2  0  0  0  0
  9  4  1  0  0  0  0
 10  1  1  0  0  0  0
 10  9  2  0  0  0  0
 11 12  1  0  0  0  0
 12 27  1  0  0  0  0
 13 36  1  6  0  0  0
 13 18  1  0  0  0  0
 14 21  1  0  0  0  0
 15 17  1  0  0  0  0
 15 13  1  0  0  0  0
 16 17  1  0  0  0  0
 16 22  1  0  0  0  0
 17  6  2  0  0  0  0
 18  8  1  1  0  0  0
 18 19  1  0  0  0  0
 19 11  2  0  0  0  0
 20 10  1  0  0  0  0
 22 20  2  0  0  0  0
 22  3  1  0  0  0  0
 23 28  1  0  0  0  0
 24 23  2  0  0  0  0
 25 26  2  0  0  0  0
 26 23  1  0  0  0  0
 26 32  1  0  0  0  0
 27 25  1  0  0  0  0
 27 24  1  0  0  0  0
 29 30  1  0  0  0  0
 29 28  1  0  0  0  0
 30 28  1  0  0  0  0
 32 33  2  0  0  0  0
 32 31  1  0  0  0  0
 34 35  3  0  0  0  0
 35 20  1  0  0  0  0
 37 38  1  1  0  0  0
 37 39  1  0  0  0  0
 37 40  1  0  0  0  0
 39 38  1  1  0  0  0
 39 40  1  0  0  0  0
 40 36  1  6  0  0  0
M  END
>  <MODEL>
1

>  <REMARK>
 VINA RESULT:      -7.4      0.000      0.000
  Name = 
  6 active torsions:
  status: ('A' for Active; 'I' for Inactive)
    1  A    between atoms: C_5  and  C_15
    2  A    between atoms: C_17  and  C_22
    3  A    between atoms: C_17  and  C_27
    4  A    between atoms: C_19  and  C_28
    5  A    between atoms: C_24  and  N_38
    6  A    between atoms: C_26  and  C_37
                            x       y       z     vdW  Elec       q    Type
                         _______ _______ _______ _____ _____    ______ ____

>  <TORSDO>
F 6

$$$$
=
 OpenBabel11052411473D

 40 49  0  0  1  0  0  0  0  0999 V2000
  161.1250  200.6340  150.3920 O   0  0  0  0  0  1  0  0  0  0  0  0
  161.1150  206.5130  151.6500 C   0  0  0  0  0  0  0  0  0  0  0  0
  160.4270  204.6090  149.2450 N   0  0  0  0  0  0  0  0  0  0  0  0
  160.8590  202.8830  152.2720 N   0  0  0  0  0  0  0  0  0  0  0  0
  160.4030  204.2810  150.5470 C   0  0  0  0  0  0  0  0  0  0  0  0
  160.4090  205.8610  148.8430 N   0  0  0  0  0  0  0  0  0  0  0  0
  160.9390  207.3670  152.7920 C   0  0  0  0  0  3  0  0  0  0  0  0
  161.8370  207.1790  150.6800 C   0  0  0  0  0  0  0  0  0  0  0  0
  160.5860  202.9280  150.9560 C   0  0  0  0  0  0  0  0  0  0  0  0
  160.8800  201.9460  150.0000 C   0  0  0  0  0  0  0  0  0  0  0  0
  162.1560  209.3990  151.8210 C   0  0  0  0  0  3  0  0  0  0  0  0
  161.4180  208.7530  152.8820 C   0  0  0  0  0  0  0  0  0  0  0  0
  161.7180  208.2770  148.4210 C   0  0  1  0  0  3  0  0  0  0  0  0
  160.7060  205.0770  151.6370 C   0  0  0  0  0  0  0  0  0  0  0  0
  161.6160  207.2620  147.3590 N   0  0  0  0  0  2  0  0  0  0  0  0
  161.3330  204.5440  146.9230 S   0  0  0  0  0  0  0  0  0  0  0  0
  160.9350  206.0410  147.6290 C   0  0  0  0  0  0  0  0  0  0  0  0
  162.5740  207.7720  149.6180 C   0  0  1  0  0  3  0  0  0  0  0  0
  162.3270  208.5480  150.7740 C   0  0  0  0  0  0  0  0  0  0  0  0
  161.0100  202.3450  148.6410 C   0  0  0  0  0  0  0  0  0  0  0  0
  160.9230  204.1800  152.6890 C   0  0  0  0  0  3  0  0  0  0  0  0
  160.8240  203.7110  148.3130 C   0  0  0  0  0  0  0  0  0  0  0  0
  160.0850  210.3540  155.7340 C   0  0  0  0  0  0  0  0  0  0  0  0
  159.9500  209.5850  154.6360 N   0  0  0  0  0  0  0  0  0  0  0  0
  162.0630  210.1710  154.7520 N   0  0  0  0  0  0  0  0  0  0  0  0
  161.4370  210.7260  155.8070 C   0  0  0  0  0  0  0  0  0  0  0  0
  161.1470  209.4930  154.0810 N   0  0  0  0  0  0  0  0  0  0  0  0
  158.8690  210.7340  156.5450 C   0  0  0  0  0  3  0  0  0  0  0  0
  158.3160  212.0870  156.1610 C   0  0  0  0  0  2  0  0  0  0  0  0
  157.5960  210.8200  155.7320 C   0  0  0  0  0  2  0  0  0  0  0  0
  161.5690  212.8340  157.2600 C   0  0  0  0  0  1  0  0  0  0  0  0
  162.1650  211.5520  156.7920 C   0  0  0  0  0  0  0  0  0  0  0  0
  163.3090  211.2370  157.2050 O   0  0  0  0  0  0  0  0  0  0  0  0
  161.7830  200.6450  146.8340 N   0  0  0  0  0  0  0  0  0  0  0  0
  161.4390  201.4020  147.6380 C   0  0  0  0  0  0  0  0  0  0  0  0
  162.3260  209.5360  147.8210 C   0  0  0  0  0  2  0  0  0  0  0  0
  161.4080  211.8300  147.6620 C   0  0  1  0  0  3  0  0  0  0  0  0
  161.9270  213.1720  148.1390 C   0  0  0  0  0  2  0  0  0  0  0  0
  162.7930  211.9330  148.2370 C   0  0  1  0  0  3  0  0  0  0  0  0
  161.9070  210.7590  148.6130 C   0  0  2  0  0  3  0  0  0  0  0  0
  2  7  1  0  0  0  0
  3  5  1  0  0  0  0
  4 21  2  0  0  0  0
  5  9  1  0  0  0  0
  5 14  2  0  0  0  0
  6  3  1  0  0  0  0
  7 12  2  0  0  0  0
  8 19  1  0  0  0  0
  8  2  2  0  0  0  0
  9  4  1  0  0  0  0
 10  1  1  0  0  0  0
 10  9  2  0  0  0  0
 11 12  1  0  0  0  0
 12 27  1  0  0  0  0
 13 36  1  6  0  0  0
 13 18  1  0  0  0  0
 14  2  1  0  0  0  0
 14 21  1  0  0  0  0
 15 17  1  0  0  0  0
 15 13  1  0  0  0  0
 16 17  1  0  0  0  0
 16 22  1  0  0  0  0
 17  6  2  0  0  0  0
 18  8  1  1  0  0  0
 18 19  1  0  0  0  0
 19 11  2  0  0  0  0
 20 10  1  0  0  0  0
 22 20  2  0  0  0  0
 22  3  1  0  0  0  0
 23 26  1  0  0  0  0
 23 28  1  0  0  0  0
 24 23  2  0  0  0  0
 25 26  2  0  0  0  0
 26 32  1  0  0  0  0
 27 24  1  0  0  0  0
 27 25  1  0  0  0  0
 29 28  1  0  0  0  0
 30 29  1  0  0  0  0
 30 28  1  0  0  0  0
 32 33  2  0  0  0  0
 32 31  1  0  0  0  0
 34 35  3  0  0  0  0
 35 20  1  0  0  0  0
 37 38  1  1  0  0  0
 37 39  1  0  0  0  0
 37 40  1  0  0  0  0
 39 38  1  1  0  0  0
 39 40  1  0  0  0  0
 40 36  1  6  0  0  0
M  END
>  <MODEL>
2

>  <REMARK>
 VINA RESULT:      -7.3      1.018      1.835
  Name = 
  6 active torsions:
  status: ('A' for Active; 'I' for Inactive)
    1  A    between atoms: C_5  and  C_15
    2  A    between atoms: C_17  and  C_22
    3  A    between atoms: C_17  and  C_27
    4  A    between atoms: C_19  and  C_28
    5  A    between atoms: C_24  and  N_38
    6  A    between atoms: C_26  and  C_37
                            x       y       z     vdW  Elec       q    Type
                         _______ _______ _______ _____ _____    ______ ____

>  <TORSDO>
F 6

$$$$
