=
 OpenBabel11042420043D

 42 45  0  0  1  0  0  0  0  0999 V2000
  159.2380  211.6110  154.0450 C   0  0  0  0  0  2  0  0  0  0  0  0
  159.7630  209.2730  155.6460 C   0  0  0  0  0  3  0  0  0  0  0  0
  161.2100  205.7040  154.0150 O   0  0  0  0  0  1  0  0  0  0  0  0
  159.8420  208.1200  156.4240 C   0  0  0  0  0  3  0  0  0  0  0  0
  160.1450  209.2510  154.2950 C   0  0  0  0  0  0  0  0  0  0  0  0
  161.0370  207.9960  152.2870 C   0  0  0  0  0  0  0  0  0  0  0  0
  160.6450  206.8370  151.5370 N   0  0  0  0  0  2  0  0  0  0  0  0
  163.2520  210.6810  151.6640 O   0  0  0  0  0  0  0  0  0  0  0  0
  160.7200  206.8990  154.5280 C   0  0  0  0  0  0  0  0  0  0  0  0
  161.5350  210.9710  153.2640 C   0  0  0  0  0  2  0  0  0  0  0  0
  160.1110  210.5010  153.4690 C   0  0  2  0  0  3  0  0  0  0  0  0
  162.2230  210.1820  152.1900 C   0  0  0  0  0  0  0  0  0  0  0  0
  161.7380  208.9230  151.6900 N   0  0  0  0  0  0  0  0  0  0  0  0
  160.6470  208.0610  153.7250 C   0  0  0  0  0  0  0  0  0  0  0  0
  160.3160  206.9360  155.8640 C   0  0  0  0  0  3  0  0  0  0  0  0
  160.9370  206.6570  150.1200 C   0  0  0  0  0  2  0  0  0  0  0  0
  160.9260  205.2100  149.7600 C   0  0  0  0  0  0  0  0  0  0  0  0
  161.0800  204.8240  148.4240 C   0  0  0  0  0  3  0  0  0  0  0  0
  160.7530  202.8830  150.4120 C   0  0  0  0  0  3  0  0  0  0  0  0
  160.9050  202.4970  149.0770 C   0  0  0  0  0  3  0  0  0  0  0  0
  160.7660  204.2380  150.7540 C   0  0  0  0  0  3  0  0  0  0  0  0
  161.0700  203.4670  148.0830 C   0  0  0  0  0  3  0  0  0  0  0  0
  156.7810  213.8970  152.2380 N   0  0  0  0  0  1  0  0  0  0  0  0
  157.5280  213.2800  153.2820 C   0  0  0  0  0  0  0  0  0  0  0  0
  158.5770  212.3460  152.9730 N   0  0  0  0  0  0  0  0  0  0  0  0
  157.2510  213.5540  154.4800 O   0  0  0  0  0  0  0  0  0  0  0  0
  158.9290  212.0330  151.5920 C   0  0  0  0  0  2  0  0  0  0  0  0
  159.0250  213.0010  149.3560 N   0  0  0  0  0  0  0  0  0  0  0  0
  160.4710  213.8980  150.9950 C   0  0  0  0  0  2  0  0  0  0  0  0
  159.1110  213.3040  150.7710 C   0  0  2  0  0  3  0  0  0  0  0  0
  160.8940  214.4500  149.7250 N   0  0  0  0  0  2  0  0  0  0  0  0
  160.0470  213.8240  148.7130 C   0  0  1  0  0  3  0  0  0  0  0  0
  160.8950  212.9650  147.7920 C   0  0  0  0  0  2  0  0  0  0  0  0
  161.5670  211.9940  148.5370 O   0  0  0  0  0  1  0  0  0  0  0  0
  157.7260  213.4830  148.9050 C   0  0  0  0  0  2  0  0  0  0  0  0
  157.8840  214.3460  147.6640 C   0  0  0  0  0  2  0  0  0  0  0  0
  156.8060  213.7410  146.3290 S   0  0  0  0  0  0  0  0  0  0  0  0
  158.0120  214.1970  145.0420 C   0  0  0  0  0  2  0  0  0  0  0  0
  159.3430  212.7130  143.4710 C   0  0  0  0  0  0  0  0  0  0  0  0
  160.1110  211.7280  143.3230 O   0  0  0  0  0  0  0  0  0  0  0  0
  158.8930  213.4700  142.2670 C   0  0  0  0  0  1  0  0  0  0  0  0
  158.9110  213.0820  144.7850 N   0  0  0  0  0  2  0  0  0  0  0  0
  2  4  1  0  0  0  0
  3  9  1  0  0  0  0
  5  2  2  0  0  0  0
  6 14  1  0  0  0  0
  7  6  1  0  0  0  0
  8 12  2  0  0  0  0
  9 15  1  0  0  0  0
 10 11  1  0  0  0  0
 11  1  1  1  0  0  0
 11  5  1  0  0  0  0
 12 10  1  0  0  0  0
 13 12  1  0  0  0  0
 13  6  2  0  0  0  0
 14  5  1  0  0  0  0
 14  9  2  0  0  0  0
 15  4  2  0  0  0  0
 16  7  1  0  0  0  0
 17 16  1  0  0  0  0
 17 21  1  0  0  0  0
 18 17  2  0  0  0  0
 19 21  2  0  0  0  0
 20 19  1  0  0  0  0
 22 18  1  0  0  0  0
 22 20  2  0  0  0  0
 23 24  1  0  0  0  0
 24 26  2  0  0  0  0
 25 24  1  0  0  0  0
 25  1  1  0  0  0  0
 27 25  1  0  0  0  0
 28 30  1  0  0  0  0
 30 29  1  0  0  0  0
 30 27  1  1  0  0  0
 31 29  1  0  0  0  0
 32 33  1  6  0  0  0
 32 28  1  0  0  0  0
 32 31  1  0  0  0  0
 33 34  1  0  0  0  0
 35 28  1  0  0  0  0
 36 35  1  0  0  0  0
 37 36  1  0  0  0  0
 38 37  1  0  0  0  0
 39 42  1  0  0  0  0
 40 39  2  0  0  0  0
 41 39  1  0  0  0  0
 42 38  1  0  0  0  0
M  END
>  <MODEL>
1

>  <REMARK>
 VINA RESULT:      -6.4      0.000      0.000
  Name = 
  12 active torsions:
  status: ('A' for Active; 'I' for Inactive)
    1  A    between atoms: C_1  and  C_39
    2  A    between atoms: N_6  and  C_19
    3  A    between atoms: N_6  and  C_37
    4  A    between atoms: C_10  and  C_40
    5  A    between atoms: C_12  and  N_21
    6  A    between atoms: C_12  and  C_24
    7  A    between atoms: S_13  and  C_24
    8  A    between atoms: S_13  and  C_25
    9  A    between atoms: C_19  and  C_33
   10  A    between atoms: C_25  and  N_42
   11  A    between atoms: N_26  and  C_39
   12  A    between atoms: C_28  and  C_37
                            x       y       z     vdW  Elec       q    Type
                         _______ _______ _______ _____ _____    ______ ____

>  <TORSDO>
F 12

$$$$
=
 OpenBabel11042420043D

 42 45  0  0  1  0  0  0  0  0999 V2000
  159.4620  209.6540  153.6350 C   0  0  0  0  0  2  0  0  0  0  0  0
  160.5760  207.0100  153.9170 C   0  0  0  0  0  3  0  0  0  0  0  0
  162.2960  204.9380  150.7180 O   0  0  0  0  0  1  0  0  0  0  0  0
  160.9470  205.6750  154.0560 C   0  0  0  0  0  3  0  0  0  0  0  0
  160.7500  207.6770  152.6930 C   0  0  0  0  0  0  0  0  0  0  0  0
  161.5150  207.6700  150.2810 C   0  0  0  0  0  0  0  0  0  0  0  0
  161.2000  206.9190  149.1000 N   0  0  0  0  0  2  0  0  0  0  0  0
  163.1700  210.7420  150.8580 O   0  0  0  0  0  0  0  0  0  0  0  0
  161.7100  205.6460  151.7600 C   0  0  0  0  0  0  0  0  0  0  0  0
  161.6870  209.9210  152.5070 C   0  0  0  0  0  2  0  0  0  0  0  0
  160.4000  209.1270  152.5530 C   0  0  2  0  0  3  0  0  0  0  0  0
  162.3210  209.8600  151.1500 C   0  0  0  0  0  0  0  0  0  0  0  0
  161.9670  208.8890  150.1470 N   0  0  0  0  0  0  0  0  0  0  0  0
  161.3390  207.0010  151.6020 C   0  0  0  0  0  0  0  0  0  0  0  0
  161.5090  204.9950  152.9790 C   0  0  0  0  0  3  0  0  0  0  0  0
  161.3000  207.4580  147.7500 C   0  0  0  0  0  2  0  0  0  0  0  0
  161.3970  206.3570  146.7490 C   0  0  0  0  0  0  0  0  0  0  0  0
  162.4480  205.4370  146.8250 C   0  0  0  0  0  3  0  0  0  0  0  0
  160.5340  205.2080  144.7970 C   0  0  0  0  0  3  0  0  0  0  0  0
  161.5860  204.2900  144.8740 C   0  0  0  0  0  3  0  0  0  0  0  0
  160.4380  206.2400  145.7360 C   0  0  0  0  0  3  0  0  0  0  0  0
  162.5420  204.4040  145.8880 C   0  0  0  0  0  3  0  0  0  0  0  0
  161.0540  212.1040  156.0820 N   0  0  0  0  0  1  0  0  0  0  0  0
  160.6690  210.8830  155.4570 C   0  0  0  0  0  0  0  0  0  0  0  0
  159.9790  210.8960  154.1960 N   0  0  0  0  0  0  0  0  0  0  0  0
  160.9310  209.7910  156.0290 O   0  0  0  0  0  0  0  0  0  0  0  0
  159.6860  212.1490  153.5060 C   0  0  0  0  0  2  0  0  0  0  0  0
  157.8670  213.7490  153.7780 N   0  0  0  0  0  0  0  0  0  0  0  0
  157.4400  211.5020  154.3730 C   0  0  0  0  0  2  0  0  0  0  0  0
  158.1840  212.3830  153.4110 C   0  0  2  0  0  3  0  0  0  0  0  0
  156.3190  212.2780  154.8590 N   0  0  0  0  0  2  0  0  0  0  0  0
  156.6340  213.6720  154.5590 C   0  0  1  0  0  3  0  0  0  0  0  0
  156.7950  214.4530  155.8510 C   0  0  0  0  0  2  0  0  0  0  0  0
  157.9210  213.9990  156.5410 O   0  0  0  0  0  1  0  0  0  0  0  0
  157.5590  214.4530  152.5410 C   0  0  0  0  0  2  0  0  0  0  0  0
  158.7640  214.4430  151.6130 C   0  0  0  0  0  2  0  0  0  0  0  0
  158.3100  213.7580  149.9900 S   0  0  0  0  0  0  0  0  0  0  0  0
  160.0500  213.6320  149.4690 C   0  0  0  0  0  2  0  0  0  0  0  0
  161.3080  212.9190  147.3820 C   0  0  0  0  0  0  0  0  0  0  0  0
  161.3020  212.7490  146.1360 O   0  0  0  0  0  0  0  0  0  0  0  0
  162.5530  212.6310  148.1500 C   0  0  0  0  0  1  0  0  0  0  0  0
  160.1250  213.3930  148.0360 N   0  0  0  0  0  2  0  0  0  0  0  0
  1 25  1  0  0  0  0
  2  4  1  0  0  0  0
  3  9  1  0  0  0  0
  5  2  2  0  0  0  0
  6 14  1  0  0  0  0
  7  6  1  0  0  0  0
  8 12  2  0  0  0  0
  9 15  1  0  0  0  0
 10 11  1  0  0  0  0
 11  5  1  0  0  0  0
 11  1  1  1  0  0  0
 12 10  1  0  0  0  0
 13  6  2  0  0  0  0
 13 12  1  0  0  0  0
 14  9  2  0  0  0  0
 14  5  1  0  0  0  0
 15  4  2  0  0  0  0
 16  7  1  0  0  0  0
 17 18  1  0  0  0  0
 17 16  1  0  0  0  0
 19 20  2  0  0  0  0
 19 21  1  0  0  0  0
 20 22  1  0  0  0  0
 21 17  2  0  0  0  0
 22 18  2  0  0  0  0
 24 26  2  0  0  0  0
 24 23  1  0  0  0  0
 25 24  1  0  0  0  0
 27 25  1  0  0  0  0
 28 32  1  0  0  0  0
 29 31  1  0  0  0  0
 30 27  1  1  0  0  0
 30 28  1  0  0  0  0
 30 29  1  0  0  0  0
 32 31  1  0  0  0  0
 32 33  1  1  0  0  0
 33 34  1  0  0  0  0
 35 28  1  0  0  0  0
 36 35  1  0  0  0  0
 37 36  1  0  0  0  0
 38 37  1  0  0  0  0
 39 42  1  0  0  0  0
 39 41  1  0  0  0  0
 40 39  2  0  0  0  0
 42 38  1  0  0  0  0
M  END
>  <MODEL>
2

>  <REMARK>
 VINA RESULT:      -6.2      2.447      4.329
  Name = 
  12 active torsions:
  status: ('A' for Active; 'I' for Inactive)
    1  A    between atoms: C_1  and  C_39
    2  A    between atoms: N_6  and  C_19
    3  A    between atoms: N_6  and  C_37
    4  A    between atoms: C_10  and  C_40
    5  A    between atoms: C_12  and  N_21
    6  A    between atoms: C_12  and  C_24
    7  A    between atoms: S_13  and  C_24
    8  A    between atoms: S_13  and  C_25
    9  A    between atoms: C_19  and  C_33
   10  A    between atoms: C_25  and  N_42
   11  A    between atoms: N_26  and  C_39
   12  A    between atoms: C_28  and  C_37
                            x       y       z     vdW  Elec       q    Type
                         _______ _______ _______ _____ _____    ______ ____

>  <TORSDO>
F 12

$$$$
=
 OpenBabel11042420043D

 42 45  0  0  1  0  0  0  0  0999 V2000
  161.6810  209.4690  150.7840 C   0  0  0  0  0  2  0  0  0  0  0  0
  160.8390  212.1870  150.3230 C   0  0  0  0  0  3  0  0  0  0  0  0
  158.5430  214.3320  153.0820 O   0  0  0  0  0  1  0  0  0  0  0  0
  160.3130  213.4320  149.9890 C   0  0  0  0  0  3  0  0  0  0  0  0
  160.5880  211.6180  151.5830 C   0  0  0  0  0  0  0  0  0  0  0  0
  159.5170  211.7450  153.8710 C   0  0  0  0  0  0  0  0  0  0  0  0
  158.1840  211.8980  154.3810 N   0  0  0  0  0  2  0  0  0  0  0  0
  162.5750  210.6850  155.2970 O   0  0  0  0  0  0  0  0  0  0  0  0
  159.2970  213.5920  152.1790 C   0  0  0  0  0  0  0  0  0  0  0  0
  162.3130  210.5670  152.9500 C   0  0  0  0  0  2  0  0  0  0  0  0
  161.1950  210.3030  151.9650 C   0  0  2  0  0  3  0  0  0  0  0  0
  161.7800  210.8150  154.3300 C   0  0  0  0  0  0  0  0  0  0  0  0
  160.4040  211.1310  154.6090 N   0  0  0  0  0  0  0  0  0  0  0  0
  159.8240  212.3290  152.5350 C   0  0  0  0  0  0  0  0  0  0  0  0
  159.5410  214.1300  150.9150 C   0  0  0  0  0  3  0  0  0  0  0  0
  157.7410  211.3540  155.6590 C   0  0  0  0  0  2  0  0  0  0  0  0
  156.6200  212.1640  156.2150 C   0  0  0  0  0  0  0  0  0  0  0  0
  156.7030  213.5600  156.2150 C   0  0  0  0  0  3  0  0  0  0  0  0
  154.4370  212.2940  157.2600 C   0  0  0  0  0  3  0  0  0  0  0  0
  154.5210  213.6900  157.2600 C   0  0  0  0  0  3  0  0  0  0  0  0
  155.4850  211.5310  156.7350 C   0  0  0  0  0  3  0  0  0  0  0  0
  155.6530  214.3230  156.7370 C   0  0  0  0  0  3  0  0  0  0  0  0
  161.0000  206.2430  152.6950 N   0  0  0  0  0  1  0  0  0  0  0  0
  160.9620  207.6130  152.3100 C   0  0  0  0  0  0  0  0  0  0  0  0
  161.5990  208.0470  151.0970 N   0  0  0  0  0  0  0  0  0  0  0  0
  160.3710  208.4440  153.0520 O   0  0  0  0  0  0  0  0  0  0  0  0
  162.2690  207.0980  150.2130 C   0  0  0  0  0  2  0  0  0  0  0  0
  161.6140  205.2030  148.8260 N   0  0  0  0  0  0  0  0  0  0  0  0
  161.4890  207.3560  147.8590 C   0  0  0  0  0  2  0  0  0  0  0  0
  161.3170  206.5870  149.1370 C   0  0  2  0  0  3  0  0  0  0  0  0
  161.3030  206.4070  146.7810 N   0  0  0  0  0  2  0  0  0  0  0  0
  161.4650  205.0840  147.3760 C   0  0  1  0  0  3  0  0  0  0  0  0
  162.6870  204.4010  146.7890 C   0  0  0  0  0  2  0  0  0  0  0  0
  162.7680  204.6700  145.4220 O   0  0  0  0  0  1  0  0  0  0  0  0
  160.5630  204.4030  149.4410 C   0  0  0  0  0  2  0  0  0  0  0  0
  161.1640  203.2170  150.1780 C   0  0  0  0  0  2  0  0  0  0  0  0
  160.2190  201.7040  149.8230 S   0  0  0  0  0  0  0  0  0  0  0  0
  161.3180  201.2480  148.4440 C   0  0  0  0  0  2  0  0  0  0  0  0
  160.7060  200.8210  146.0170 C   0  0  0  0  0  0  0  0  0  0  0  0
  160.1890  201.2480  144.9530 O   0  0  0  0  0  0  0  0  0  0  0  0
  161.2980  199.4520  146.0390 C   0  0  0  0  0  1  0  0  0  0  0  0
  160.7250  201.6580  147.1790 N   0  0  0  0  0  2  0  0  0  0  0  0
  1 25  1  0  0  0  0
  2  5  1  0  0  0  0
  4  2  2  0  0  0  0
  4 15  1  0  0  0  0
  5 11  1  0  0  0  0
  5 14  2  0  0  0  0
  6  7  1  0  0  0  0
  6 13  2  0  0  0  0
  7 16  1  0  0  0  0
  9 14  1  0  0  0  0
  9  3  1  0  0  0  0
 10 12  1  0  0  0  0
 11  1  1  6  0  0  0
 11 10  1  0  0  0  0
 12 13  1  0  0  0  0
 12  8  2  0  0  0  0
 14  6  1  0  0  0  0
 15  9  2  0  0  0  0
 16 17  1  0  0  0  0
 17 21  1  0  0  0  0
 18 17  2  0  0  0  0
 18 22  1  0  0  0  0
 19 20  1  0  0  0  0
 21 19  2  0  0  0  0
 22 20  2  0  0  0  0
 24 23  1  0  0  0  0
 24 26  2  0  0  0  0
 25 24  1  0  0  0  0
 27 25  1  0  0  0  0
 28 30  1  0  0  0  0
 28 35  1  0  0  0  0
 29 30  1  0  0  0  0
 30 27  1  1  0  0  0
 31 32  1  0  0  0  0
 31 29  1  0  0  0  0
 32 33  1  6  0  0  0
 32 28  1  0  0  0  0
 34 33  1  0  0  0  0
 35 36  1  0  0  0  0
 37 36  1  0  0  0  0
 38 37  1  0  0  0  0
 39 41  1  0  0  0  0
 39 42  1  0  0  0  0
 40 39  2  0  0  0  0
 42 38  1  0  0  0  0
M  END
>  <MODEL>
3

>  <REMARK>
 VINA RESULT:      -5.3      3.961      9.067
  Name = 
  12 active torsions:
  status: ('A' for Active; 'I' for Inactive)
    1  A    between atoms: C_1  and  C_39
    2  A    between atoms: N_6  and  C_19
    3  A    between atoms: N_6  and  C_37
    4  A    between atoms: C_10  and  C_40
    5  A    between atoms: C_12  and  N_21
    6  A    between atoms: C_12  and  C_24
    7  A    between atoms: S_13  and  C_24
    8  A    between atoms: S_13  and  C_25
    9  A    between atoms: C_19  and  C_33
   10  A    between atoms: C_25  and  N_42
   11  A    between atoms: N_26  and  C_39
   12  A    between atoms: C_28  and  C_37
                            x       y       z     vdW  Elec       q    Type
                         _______ _______ _______ _____ _____    ______ ____

>  <TORSDO>
F 12

$$$$
=
 OpenBabel11042420043D

 42 45  0  0  1  0  0  0  0  0999 V2000
  162.2950  209.9560  152.8050 C   0  0  0  0  0  2  0  0  0  0  0  0
  159.8050  211.4070  152.7320 C   0  0  0  0  0  3  0  0  0  0  0  0
  158.9080  214.1930  149.7450 O   0  0  0  0  0  1  0  0  0  0  0  0
  158.6690  212.2070  152.8290 C   0  0  0  0  0  3  0  0  0  0  0  0
  160.6830  211.5390  151.6440 C   0  0  0  0  0  0  0  0  0  0  0  0
  161.3170  212.6500  149.4610 C   0  0  0  0  0  0  0  0  0  0  0  0
  161.5880  213.9890  149.0240 N   0  0  0  0  0  2  0  0  0  0  0  0
  161.9500  209.4540  148.0850 O   0  0  0  0  0  0  0  0  0  0  0  0
  159.2370  213.2700  150.7300 C   0  0  0  0  0  0  0  0  0  0  0  0
  161.5960  209.6390  150.4160 C   0  0  0  0  0  2  0  0  0  0  0  0
  161.8780  210.6460  151.5100 C   0  0  2  0  0  3  0  0  0  0  0  0
  161.7900  210.2390  149.0550 C   0  0  0  0  0  0  0  0  0  0  0  0
  161.8640  211.6560  148.8110 N   0  0  0  0  0  0  0  0  0  0  0  0
  160.3940  212.4650  150.6170 C   0  0  0  0  0  0  0  0  0  0  0  0
  158.3890  213.1370  151.8310 C   0  0  0  0  0  3  0  0  0  0  0  0
  162.4900  214.3140  147.9260 C   0  0  0  0  0  2  0  0  0  0  0  0
  161.8270  214.0730  146.6120 C   0  0  0  0  0  0  0  0  0  0  0  0
  160.4940  214.4530  146.4250 C   0  0  0  0  0  3  0  0  0  0  0  0
  161.9100  213.2430  144.3370 C   0  0  0  0  0  3  0  0  0  0  0  0
  160.5770  213.6220  144.1510 C   0  0  0  0  0  3  0  0  0  0  0  0
  162.5360  213.4710  145.5660 C   0  0  0  0  0  3  0  0  0  0  0  0
  159.8690  214.2280  145.1930 C   0  0  0  0  0  3  0  0  0  0  0  0
  160.1390  207.6620  154.9530 N   0  0  0  0  0  1  0  0  0  0  0  0
  160.9870  208.7380  154.5640 C   0  0  0  0  0  0  0  0  0  0  0  0
  161.3140  208.9450  153.1800 N   0  0  0  0  0  0  0  0  0  0  0  0
  161.4570  209.5010  155.4510 O   0  0  0  0  0  0  0  0  0  0  0  0
  160.7620  208.0870  152.1360 C   0  0  0  0  0  2  0  0  0  0  0  0
  161.1730  206.1320  150.7380 N   0  0  0  0  0  0  0  0  0  0  0  0
  162.1950  206.1830  152.8680 C   0  0  0  0  0  2  0  0  0  0  0  0
  161.7730  207.0310  151.7040 C   0  0  2  0  0  3  0  0  0  0  0  0
  162.3750  204.8410  152.3550 N   0  0  0  0  0  2  0  0  0  0  0  0
  161.6690  204.8000  151.0780 C   0  0  1  0  0  3  0  0  0  0  0  0
  160.5070  203.8260  151.1620 C   0  0  0  0  0  2  0  0  0  0  0  0
  160.9190  202.6520  151.7960 O   0  0  0  0  0  1  0  0  0  0  0  0
  161.7270  206.4870  149.4380 C   0  0  0  0  0  2  0  0  0  0  0  0
  160.7540  206.1170  148.3300 C   0  0  0  0  0  2  0  0  0  0  0  0
  161.6260  205.9860  146.7390 S   0  0  0  0  0  0  0  0  0  0  0  0
  161.9940  204.2200  146.9960 C   0  0  0  0  0  2  0  0  0  0  0  0
  160.8340  202.1170  146.1770 C   0  0  0  0  0  0  0  0  0  0  0  0
  160.3210  201.4810  145.2200 O   0  0  0  0  0  0  0  0  0  0  0  0
  160.8780  201.4860  147.5280 C   0  0  0  0  0  1  0  0  0  0  0  0
  161.3700  203.4250  145.9490 N   0  0  0  0  0  2  0  0  0  0  0  0
  1 25  1  0  0  0  0
  2  4  1  0  0  0  0
  3  9  1  0  0  0  0
  5  2  2  0  0  0  0
  6 14  1  0  0  0  0
  7  6  1  0  0  0  0
  8 12  2  0  0  0  0
  9 15  1  0  0  0  0
 10 11  1  0  0  0  0
 11  5  1  0  0  0  0
 11  1  1  1  0  0  0
 12 10  1  0  0  0  0
 13 12  1  0  0  0  0
 13  6  2  0  0  0  0
 14  9  2  0  0  0  0
 14  5  1  0  0  0  0
 15  4  2  0  0  0  0
 16  7  1  0  0  0  0
 17 16  1  0  0  0  0
 18 17  1  0  0  0  0
 19 21  1  0  0  0  0
 20 19  2  0  0  0  0
 20 22  1  0  0  0  0
 21 17  2  0  0  0  0
 22 18  2  0  0  0  0
 24 23  1  0  0  0  0
 24 26  2  0  0  0  0
 25 24  1  0  0  0  0
 27 25  1  0  0  0  0
 28 32  1  0  0  0  0
 28 30  1  0  0  0  0
 30 27  1  1  0  0  0
 30 29  1  0  0  0  0
 31 29  1  0  0  0  0
 32 33  1  1  0  0  0
 32 31  1  0  0  0  0
 33 34  1  0  0  0  0
 35 28  1  0  0  0  0
 36 35  1  0  0  0  0
 37 38  1  0  0  0  0
 37 36  1  0  0  0  0
 39 41  1  0  0  0  0
 40 39  2  0  0  0  0
 42 39  1  0  0  0  0
 42 38  1  0  0  0  0
M  END
>  <MODEL>
4

>  <REMARK>
 VINA RESULT:      -5.0      3.066      8.182
  Name = 
  12 active torsions:
  status: ('A' for Active; 'I' for Inactive)
    1  A    between atoms: C_1  and  C_39
    2  A    between atoms: N_6  and  C_19
    3  A    between atoms: N_6  and  C_37
    4  A    between atoms: C_10  and  C_40
    5  A    between atoms: C_12  and  N_21
    6  A    between atoms: C_12  and  C_24
    7  A    between atoms: S_13  and  C_24
    8  A    between atoms: S_13  and  C_25
    9  A    between atoms: C_19  and  C_33
   10  A    between atoms: C_25  and  N_42
   11  A    between atoms: N_26  and  C_39
   12  A    between atoms: C_28  and  C_37
                            x       y       z     vdW  Elec       q    Type
                         _______ _______ _______ _____ _____    ______ ____

>  <TORSDO>
F 12

$$$$
=
 OpenBabel11042420043D

 42 45  0  0  1  0  0  0  0  0999 V2000
  159.8610  211.1060  154.3700 C   0  0  0  0  0  2  0  0  0  0  0  0
  160.6630  208.5800  155.5030 C   0  0  0  0  0  3  0  0  0  0  0  0
  161.5760  205.2450  153.1510 O   0  0  0  0  0  1  0  0  0  0  0  0
  160.8800  207.3370  156.0920 C   0  0  0  0  0  3  0  0  0  0  0  0
  160.7230  208.7310  154.1080 C   0  0  0  0  0  0  0  0  0  0  0  0
  161.0860  207.7390  151.8090 C   0  0  0  0  0  0  0  0  0  0  0  0
  160.4950  206.6880  151.0320 N   0  0  0  0  0  2  0  0  0  0  0  0
  163.1870  210.4750  151.0250 O   0  0  0  0  0  0  0  0  0  0  0  0
  161.2570  206.3660  153.9080 C   0  0  0  0  0  0  0  0  0  0  0  0
  161.8940  210.5630  153.0030 C   0  0  0  0  0  2  0  0  0  0  0  0
  160.5410  210.0760  153.4730 C   0  0  2  0  0  3  0  0  0  0  0  0
  162.2910  209.9160  151.7100 C   0  0  0  0  0  0  0  0  0  0  0  0
  161.6620  208.7330  151.1840 N   0  0  0  0  0  0  0  0  0  0  0  0
  161.0400  207.6210  153.2940 C   0  0  0  0  0  0  0  0  0  0  0  0
  161.1730  206.2330  155.2950 C   0  0  0  0  0  3  0  0  0  0  0  0
  160.4460  206.6900  149.5750 C   0  0  0  0  0  2  0  0  0  0  0  0
  160.7530  205.3340  149.0360 C   0  0  0  0  0  0  0  0  0  0  0  0
  160.4750  204.2000  149.8070 C   0  0  0  0  0  3  0  0  0  0  0  0
  161.6040  203.9190  147.2630 C   0  0  0  0  0  3  0  0  0  0  0  0
  161.3280  202.7860  148.0340 C   0  0  0  0  0  3  0  0  0  0  0  0
  161.3150  205.1920  147.7620 C   0  0  0  0  0  3  0  0  0  0  0  0
  160.7620  202.9260  149.3050 C   0  0  0  0  0  3  0  0  0  0  0  0
  156.2340  210.2770  155.1960 N   0  0  0  0  0  1  0  0  0  0  0  0
  157.6310  210.5110  155.3490 C   0  0  0  0  0  0  0  0  0  0  0  0
  158.4110  211.0070  154.2500 N   0  0  0  0  0  0  0  0  0  0  0  0
  158.1760  210.2670  156.4590 O   0  0  0  0  0  0  0  0  0  0  0  0
  157.7950  211.3180  152.9630 C   0  0  0  0  0  2  0  0  0  0  0  0
  158.0030  213.5980  153.8000 N   0  0  0  0  0  0  0  0  0  0  0  0
  155.8220  212.7270  153.5420 C   0  0  0  0  0  2  0  0  0  0  0  0
  157.2070  212.7240  152.9630 C   0  0  2  0  0  3  0  0  0  0  0  0
  155.6870  213.9660  154.2800 N   0  0  0  0  0  2  0  0  0  0  0  0
  157.0460  214.4500  154.5030 C   0  0  1  0  0  3  0  0  0  0  0  0
  157.3550  214.4500  155.9900 C   0  0  0  0  0  2  0  0  0  0  0  0
  158.6360  213.9410  156.2070 O   0  0  0  0  0  1  0  0  0  0  0  0
  158.7710  214.4500  152.9020 C   0  0  0  0  0  2  0  0  0  0  0  0
  158.5520  214.0280  151.4580 C   0  0  0  0  0  2  0  0  0  0  0  0
  160.1310  214.0080  150.5560 S   0  0  0  0  0  0  0  0  0  0  0  0
  159.3110  214.3010  148.9560 C   0  0  0  0  0  2  0  0  0  0  0  0
  159.1300  213.0260  146.7680 C   0  0  0  0  0  0  0  0  0  0  0  0
  159.6550  212.2320  145.9470 O   0  0  0  0  0  0  0  0  0  0  0  0
  157.7620  213.5530  146.4970 C   0  0  0  0  0  1  0  0  0  0  0  0
  159.8510  213.4010  147.9480 N   0  0  0  0  0  2  0  0  0  0  0  0
  2  4  1  0  0  0  0
  3  9  1  0  0  0  0
  5  2  2  0  0  0  0
  6 14  1  0  0  0  0
  7  6  1  0  0  0  0
  8 12  2  0  0  0  0
  9 15  1  0  0  0  0
 10 11  1  0  0  0  0
 11  5  1  0  0  0  0
 11  1  1  1  0  0  0
 12 10  1  0  0  0  0
 13 12  1  0  0  0  0
 13  6  2  0  0  0  0
 14  9  2  0  0  0  0
 14  5  1  0  0  0  0
 15  4  2  0  0  0  0
 16  7  1  0  0  0  0
 17 16  1  0  0  0  0
 17 18  1  0  0  0  0
 19 21  1  0  0  0  0
 19 20  2  0  0  0  0
 20 22  1  0  0  0  0
 21 17  2  0  0  0  0
 22 18  2  0  0  0  0
 23 24  1  0  0  0  0
 24 26  2  0  0  0  0
 25  1  1  0  0  0  0
 25 24  1  0  0  0  0
 27 25  1  0  0  0  0
 28 32  1  0  0  0  0
 29 31  1  0  0  0  0
 30 27  1  1  0  0  0
 30 29  1  0  0  0  0
 30 28  1  0  0  0  0
 31 32  1  0  0  0  0
 32 33  1  1  0  0  0
 33 34  1  0  0  0  0
 35 28  1  0  0  0  0
 36 35  1  0  0  0  0
 37 36  1  0  0  0  0
 38 37  1  0  0  0  0
 39 42  1  0  0  0  0
 40 39  2  0  0  0  0
 41 39  1  0  0  0  0
 42 38  1  0  0  0  0
M  END
>  <MODEL>
5

>  <REMARK>
 VINA RESULT:      -5.0      1.856      3.545
  Name = 
  12 active torsions:
  status: ('A' for Active; 'I' for Inactive)
    1  A    between atoms: C_1  and  C_39
    2  A    between atoms: N_6  and  C_19
    3  A    between atoms: N_6  and  C_37
    4  A    between atoms: C_10  and  C_40
    5  A    between atoms: C_12  and  N_21
    6  A    between atoms: C_12  and  C_24
    7  A    between atoms: S_13  and  C_24
    8  A    between atoms: S_13  and  C_25
    9  A    between atoms: C_19  and  C_33
   10  A    between atoms: C_25  and  N_42
   11  A    between atoms: N_26  and  C_39
   12  A    between atoms: C_28  and  C_37
                            x       y       z     vdW  Elec       q    Type
                         _______ _______ _______ _____ _____    ______ ____

>  <TORSDO>
F 12

$$$$
=
 OpenBabel11042420043D

 42 45  0  0  1  0  0  0  0  0999 V2000
  162.0680  209.1740  148.8860 C   0  0  0  0  0  2  0  0  0  0  0  0
  161.8830  212.0330  148.5730 C   0  0  0  0  0  3  0  0  0  0  0  0
  159.6900  214.4490  151.1890 O   0  0  0  0  0  1  0  0  0  0  0  0
  161.6810  213.3810  148.2890 C   0  0  0  0  0  3  0  0  0  0  0  0
  161.3340  211.4550  149.7290 C   0  0  0  0  0  0  0  0  0  0  0  0
  159.9800  211.6680  151.8560 C   0  0  0  0  0  0  0  0  0  0  0  0
  158.6470  212.0740  152.1950 N   0  0  0  0  0  2  0  0  0  0  0  0
  162.5040  209.8810  153.5720 O   0  0  0  0  0  0  0  0  0  0  0  0
  160.4020  213.6210  150.3300 C   0  0  0  0  0  0  0  0  0  0  0  0
  162.5790  209.9700  151.2100 C   0  0  0  0  0  2  0  0  0  0  0  0
  161.5920  210.0180  150.0650 C   0  0  2  0  0  3  0  0  0  0  0  0
  161.9090  210.2410  152.5240 C   0  0  0  0  0  0  0  0  0  0  0  0
  160.6010  210.8300  152.6450 N   0  0  0  0  0  0  0  0  0  0  0  0
  160.5990  212.2540  150.6330 C   0  0  0  0  0  0  0  0  0  0  0  0
  160.9400  214.1710  149.1650 C   0  0  0  0  0  3  0  0  0  0  0  0
  157.9140  211.5610  153.3460 C   0  0  0  0  0  2  0  0  0  0  0  0
  158.4920  212.0880  154.6160 C   0  0  0  0  0  0  0  0  0  0  0  0
  158.7260  211.2190  155.6870 C   0  0  0  0  0  3  0  0  0  0  0  0
  159.3410  213.9370  155.9310 C   0  0  0  0  0  3  0  0  0  0  0  0
  159.5740  213.0690  157.0020 C   0  0  0  0  0  3  0  0  0  0  0  0
  158.8030  213.4470  154.7380 C   0  0  0  0  0  3  0  0  0  0  0  0
  159.2680  211.7100  156.8800 C   0  0  0  0  0  3  0  0  0  0  0  0
  160.8250  205.7380  147.8010 N   0  0  0  0  0  1  0  0  0  0  0  0
  161.5100  206.9860  147.7930 C   0  0  0  0  0  0  0  0  0  0  0  0
  161.4870  207.8370  148.9510 N   0  0  0  0  0  0  0  0  0  0  0  0
  162.1290  207.3410  146.7540 O   0  0  0  0  0  0  0  0  0  0  0  0
  160.7960  207.4360  150.1730 C   0  0  0  0  0  2  0  0  0  0  0  0
  160.8120  205.8910  152.0600 N   0  0  0  0  0  0  0  0  0  0  0  0
  162.8910  206.7600  151.3440 C   0  0  0  0  0  2  0  0  0  0  0  0
  161.5390  206.3050  150.8750 C   0  0  2  0  0  3  0  0  0  0  0  0
  163.1340  206.0940  152.6070 N   0  0  0  0  0  2  0  0  0  0  0  0
  161.8300  205.6350  153.0770 C   0  0  1  0  0  3  0  0  0  0  0  0
  161.4630  206.3540  154.3620 C   0  0  0  0  0  2  0  0  0  0  0  0
  160.0890  206.5960  154.3930 O   0  0  0  0  0  1  0  0  0  0  0  0
  160.1830  204.6180  151.7380 C   0  0  0  0  0  2  0  0  0  0  0  0
  161.0430  203.8350  150.7590 C   0  0  0  0  0  2  0  0  0  0  0  0
  161.2160  202.1090  151.3070 S   0  0  0  0  0  0  0  0  0  0  0  0
  160.3220  201.4750  149.8520 C   0  0  0  0  0  2  0  0  0  0  0  0
  160.9980  201.8400  147.4330 C   0  0  0  0  0  0  0  0  0  0  0  0
  161.2020  202.6460  146.4890 O   0  0  0  0  0  0  0  0  0  0  0  0
  161.2210  200.3830  147.2050 C   0  0  0  0  0  1  0  0  0  0  0  0
  160.5650  202.3360  148.7040 N   0  0  0  0  0  2  0  0  0  0  0  0
  1 25  1  0  0  0  0
  2  5  1  0  0  0  0
  4  2  2  0  0  0  0
  4 15  1  0  0  0  0
  5 11  1  0  0  0  0
  5 14  2  0  0  0  0
  6  7  1  0  0  0  0
  6 13  2  0  0  0  0
  7 16  1  0  0  0  0
  9 14  1  0  0  0  0
  9  3  1  0  0  0  0
 10 12  1  0  0  0  0
 11  1  1  6  0  0  0
 11 10  1  0  0  0  0
 12 13  1  0  0  0  0
 12  8  2  0  0  0  0
 14  6  1  0  0  0  0
 15  9  2  0  0  0  0
 16 17  1  0  0  0  0
 17 21  2  0  0  0  0
 17 18  1  0  0  0  0
 18 22  2  0  0  0  0
 19 20  2  0  0  0  0
 21 19  1  0  0  0  0
 22 20  1  0  0  0  0
 24 23  1  0  0  0  0
 24 25  1  0  0  0  0
 25 27  1  0  0  0  0
 26 24  2  0  0  0  0
 28 32  1  0  0  0  0
 29 31  1  0  0  0  0
 30 27  1  1  0  0  0
 30 29  1  0  0  0  0
 30 28  1  0  0  0  0
 31 32  1  0  0  0  0
 32 33  1  1  0  0  0
 33 34  1  0  0  0  0
 35 28  1  0  0  0  0
 36 37  1  0  0  0  0
 36 35  1  0  0  0  0
 38 37  1  0  0  0  0
 39 42  1  0  0  0  0
 40 39  2  0  0  0  0
 41 39  1  0  0  0  0
 42 38  1  0  0  0  0
M  END
>  <MODEL>
6

>  <REMARK>
 VINA RESULT:      -4.6      3.562      9.025
  Name = 
  12 active torsions:
  status: ('A' for Active; 'I' for Inactive)
    1  A    between atoms: C_1  and  C_39
    2  A    between atoms: N_6  and  C_19
    3  A    between atoms: N_6  and  C_37
    4  A    between atoms: C_10  and  C_40
    5  A    between atoms: C_12  and  N_21
    6  A    between atoms: C_12  and  C_24
    7  A    between atoms: S_13  and  C_24
    8  A    between atoms: S_13  and  C_25
    9  A    between atoms: C_19  and  C_33
   10  A    between atoms: C_25  and  N_42
   11  A    between atoms: N_26  and  C_39
   12  A    between atoms: C_28  and  C_37
                            x       y       z     vdW  Elec       q    Type
                         _______ _______ _______ _____ _____    ______ ____

>  <TORSDO>
F 12

$$$$
=
 OpenBabel11042420043D

 42 45  0  0  1  0  0  0  0  0999 V2000
  161.4440  209.5340  150.7620 C   0  0  0  0  0  2  0  0  0  0  0  0
  160.3210  212.1880  150.6870 C   0  0  0  0  0  3  0  0  0  0  0  0
  158.7490  214.0650  154.0770 O   0  0  0  0  0  1  0  0  0  0  0  0
  159.6370  213.3950  150.5730 C   0  0  0  0  0  3  0  0  0  0  0  0
  160.4740  211.5660  151.9370 C   0  0  0  0  0  0  0  0  0  0  0  0
  160.0820  211.5440  154.4370 C   0  0  0  0  0  0  0  0  0  0  0  0
  158.9390  211.5750  155.3030 N   0  0  0  0  0  2  0  0  0  0  0  0
  163.4830  210.6930  154.9030 O   0  0  0  0  0  0  0  0  0  0  0  0
  159.2690  213.4130  152.9650 C   0  0  0  0  0  0  0  0  0  0  0  0
  162.5810  210.6190  152.7180 C   0  0  0  0  0  2  0  0  0  0  0  0
  161.2530  210.2930  152.0710 C   0  0  2  0  0  3  0  0  0  0  0  0
  162.4420  210.7850  154.2020 C   0  0  0  0  0  0  0  0  0  0  0  0
  161.1810  210.9820  154.8680 N   0  0  0  0  0  0  0  0  0  0  0  0
  159.9610  212.1870  153.0970 C   0  0  0  0  0  0  0  0  0  0  0  0
  159.1100  214.0040  151.7100 C   0  0  0  0  0  3  0  0  0  0  0  0
  158.9120  210.9620  156.6260 C   0  0  0  0  0  2  0  0  0  0  0  0
  159.6280  209.6550  156.6160 C   0  0  0  0  0  0  0  0  0  0  0  0
  159.0650  208.5570  155.9570 C   0  0  0  0  0  3  0  0  0  0  0  0
  161.5310  208.2960  157.2520 C   0  0  0  0  0  3  0  0  0  0  0  0
  160.9660  207.1980  156.5940 C   0  0  0  0  0  3  0  0  0  0  0  0
  160.8640  209.5240  157.2600 C   0  0  0  0  0  3  0  0  0  0  0  0
  159.7340  207.3290  155.9460 C   0  0  0  0  0  3  0  0  0  0  0  0
  161.2900  206.1800  152.5660 N   0  0  0  0  0  1  0  0  0  0  0  0
  161.0590  207.5490  152.2450 C   0  0  0  0  0  0  0  0  0  0  0  0
  161.5580  208.1030  151.0170 N   0  0  0  0  0  0  0  0  0  0  0  0
  160.4210  208.2710  153.0570 O   0  0  0  0  0  0  0  0  0  0  0  0
  162.2790  207.2780  150.0520 C   0  0  0  0  0  2  0  0  0  0  0  0
  161.8330  205.1940  148.8660 N   0  0  0  0  0  0  0  0  0  0  0  0
  161.1580  207.2060  147.8260 C   0  0  0  0  0  2  0  0  0  0  0  0
  161.3140  206.5170  149.1510 C   0  0  2  0  0  3  0  0  0  0  0  0
  161.0220  206.1620  146.8330 N   0  0  0  0  0  2  0  0  0  0  0  0
  161.5200  204.9410  147.4610 C   0  0  1  0  0  3  0  0  0  0  0  0
  162.7640  204.4590  146.7370 C   0  0  0  0  0  2  0  0  0  0  0  0
  162.5420  204.4680  145.3590 O   0  0  0  0  0  1  0  0  0  0  0  0
  161.0520  204.2590  149.6650 C   0  0  0  0  0  2  0  0  0  0  0  0
  160.6810  203.0390  148.8380 C   0  0  0  0  0  2  0  0  0  0  0  0
  161.0000  201.5150  149.7780 S   0  0  0  0  0  0  0  0  0  0  0  0
  161.3860  200.5720  148.2680 C   0  0  0  0  0  2  0  0  0  0  0  0
  160.6590  200.5620  145.8360 C   0  0  0  0  0  0  0  0  0  0  0  0
  160.1150  201.1710  144.8800 O   0  0  0  0  0  0  0  0  0  0  0  0
  161.1970  199.1900  145.6110 C   0  0  0  0  0  1  0  0  0  0  0  0
  160.7580  201.1990  147.1150 N   0  0  0  0  0  2  0  0  0  0  0  0
  1 25  1  0  0  0  0
  2  5  1  0  0  0  0
  4  2  2  0  0  0  0
  4 15  1  0  0  0  0
  5 11  1  0  0  0  0
  5 14  2  0  0  0  0
  6 13  2  0  0  0  0
  6  7  1  0  0  0  0
  7 16  1  0  0  0  0
  9 14  1  0  0  0  0
  9  3  1  0  0  0  0
 10 12  1  0  0  0  0
 11  1  1  6  0  0  0
 11 10  1  0  0  0  0
 12 13  1  0  0  0  0
 12  8  2  0  0  0  0
 14  6  1  0  0  0  0
 15  9  2  0  0  0  0
 17 16  1  0  0  0  0
 17 21  1  0  0  0  0
 18 17  2  0  0  0  0
 19 21  2  0  0  0  0
 20 19  1  0  0  0  0
 22 18  1  0  0  0  0
 22 20  2  0  0  0  0
 24 23  1  0  0  0  0
 24 26  2  0  0  0  0
 25 24  1  0  0  0  0
 27 25  1  0  0  0  0
 28 30  1  0  0  0  0
 28 35  1  0  0  0  0
 29 30  1  0  0  0  0
 30 27  1  1  0  0  0
 31 32  1  0  0  0  0
 31 29  1  0  0  0  0
 32 33  1  6  0  0  0
 32 28  1  0  0  0  0
 34 33  1  0  0  0  0
 36 35  1  0  0  0  0
 36 37  1  0  0  0  0
 38 37  1  0  0  0  0
 39 42  1  0  0  0  0
 40 39  2  0  0  0  0
 41 39  1  0  0  0  0
 42 38  1  0  0  0  0
M  END
>  <MODEL>
7

>  <REMARK>
 VINA RESULT:      -4.4      4.010      8.331
  Name = 
  12 active torsions:
  status: ('A' for Active; 'I' for Inactive)
    1  A    between atoms: C_1  and  C_39
    2  A    between atoms: N_6  and  C_19
    3  A    between atoms: N_6  and  C_37
    4  A    between atoms: C_10  and  C_40
    5  A    between atoms: C_12  and  N_21
    6  A    between atoms: C_12  and  C_24
    7  A    between atoms: S_13  and  C_24
    8  A    between atoms: S_13  and  C_25
    9  A    between atoms: C_19  and  C_33
   10  A    between atoms: C_25  and  N_42
   11  A    between atoms: N_26  and  C_39
   12  A    between atoms: C_28  and  C_37
                            x       y       z     vdW  Elec       q    Type
                         _______ _______ _______ _____ _____    ______ ____

>  <TORSDO>
F 12

$$$$
=
 OpenBabel11042420043D

 42 45  0  0  1  0  0  0  0  0999 V2000
  161.5700  208.7580  153.5710 C   0  0  0  0  0  2  0  0  0  0  0  0
  161.1730  210.8810  151.6610 C   0  0  0  0  0  3  0  0  0  0  0  0
  158.7960  214.2250  152.4710 O   0  0  0  0  0  1  0  0  0  0  0  0
  160.8710  211.7950  150.6550 C   0  0  0  0  0  3  0  0  0  0  0  0
  160.6640  211.0520  152.9600 C   0  0  0  0  0  0  0  0  0  0  0  0
  159.2910  212.3790  154.6190 C   0  0  0  0  0  0  0  0  0  0  0  0
  157.9300  212.8220  154.7130 N   0  0  0  0  0  2  0  0  0  0  0  0
  161.9360  212.0900  156.9500 O   0  0  0  0  0  0  0  0  0  0  0  0
  159.5710  213.0980  152.2260 C   0  0  0  0  0  0  0  0  0  0  0  0
  162.0120  210.7900  154.9760 C   0  0  0  0  0  2  0  0  0  0  0  0
  161.0280  210.0990  154.0570 C   0  0  2  0  0  3  0  0  0  0  0  0
  161.3180  211.7330  155.9130 C   0  0  0  0  0  0  0  0  0  0  0  0
  159.9690  212.1990  155.7220 N   0  0  0  0  0  0  0  0  0  0  0  0
  159.8690  212.1790  153.2590 C   0  0  0  0  0  0  0  0  0  0  0  0
  160.0700  212.8980  150.9370 C   0  0  0  0  0  3  0  0  0  0  0  0
  157.2340  213.0300  155.9760 C   0  0  0  0  0  2  0  0  0  0  0  0
  156.1370  212.0340  156.1440 C   0  0  0  0  0  0  0  0  0  0  0  0
  156.1060  210.8900  155.3400 C   0  0  0  0  0  3  0  0  0  0  0  0
  154.1110  211.3050  157.2570 C   0  0  0  0  0  3  0  0  0  0  0  0
  154.0810  210.1630  156.4510 C   0  0  0  0  0  3  0  0  0  0  0  0
  155.1400  212.2400  157.1050 C   0  0  0  0  0  3  0  0  0  0  0  0
  155.0780  209.9550  155.4940 C   0  0  0  0  0  3  0  0  0  0  0  0
  160.1680  206.4620  156.2710 N   0  0  0  0  0  1  0  0  0  0  0  0
  160.7440  207.6000  155.6370 C   0  0  0  0  0  0  0  0  0  0  0  0
  160.8510  207.6600  154.2050 N   0  0  0  0  0  0  0  0  0  0  0  0
  161.1700  208.5500  156.3470 O   0  0  0  0  0  0  0  0  0  0  0  0
  160.3430  206.5810  153.3620 C   0  0  0  0  0  2  0  0  0  0  0  0
  160.8050  205.7950  151.1000 N   0  0  0  0  0  0  0  0  0  0  0  0
  162.0550  204.8380  152.8630 C   0  0  0  0  0  2  0  0  0  0  0  0
  161.4080  206.1050  152.3810 C   0  0  2  0  0  3  0  0  0  0  0  0
  162.3230  204.0400  151.6850 N   0  0  0  0  0  2  0  0  0  0  0  0
  161.4820  204.5900  150.6260 C   0  0  1  0  0  3  0  0  0  0  0  0
  160.4540  203.5580  150.1960 C   0  0  0  0  0  2  0  0  0  0  0  0
  160.7620  203.0890  148.9180 O   0  0  0  0  0  1  0  0  0  0  0  0
  161.1600  206.8820  150.1980 C   0  0  0  0  0  2  0  0  0  0  0  0
  160.9940  206.4450  148.7520 C   0  0  0  0  0  2  0  0  0  0  0  0
  162.2840  207.1940  147.7110 S   0  0  0  0  0  0  0  0  0  0  0  0
  162.5310  205.6530  146.7710 C   0  0  0  0  0  2  0  0  0  0  0  0
  161.0460  204.4440  145.1050 C   0  0  0  0  0  0  0  0  0  0  0  0
  160.3170  204.5040  144.0820 O   0  0  0  0  0  0  0  0  0  0  0  0
  161.2590  203.1260  145.7690 C   0  0  0  0  0  1  0  0  0  0  0  0
  161.6610  205.6370  145.6040 N   0  0  0  0  0  2  0  0  0  0  0  0
  1 25  1  0  0  0  0
  2  5  1  0  0  0  0
  4 15  1  0  0  0  0
  4  2  2  0  0  0  0
  5 14  2  0  0  0  0
  5 11  1  0  0  0  0
  6  7  1  0  0  0  0
  6 13  2  0  0  0  0
  7 16  1  0  0  0  0
  9  3  1  0  0  0  0
  9 14  1  0  0  0  0
 10 12  1  0  0  0  0
 11  1  1  6  0  0  0
 11 10  1  0  0  0  0
 12  8  2  0  0  0  0
 13 12  1  0  0  0  0
 14  6  1  0  0  0  0
 15  9  2  0  0  0  0
 16 17  1  0  0  0  0
 17 21  1  0  0  0  0
 18 22  1  0  0  0  0
 18 17  2  0  0  0  0
 20 19  1  0  0  0  0
 21 19  2  0  0  0  0
 22 20  2  0  0  0  0
 24 23  1  0  0  0  0
 24 26  2  0  0  0  0
 25 24  1  0  0  0  0
 27 25  1  0  0  0  0
 28 30  1  0  0  0  0
 30 29  1  0  0  0  0
 30 27  1  1  0  0  0
 31 29  1  0  0  0  0
 32 33  1  1  0  0  0
 32 28  1  0  0  0  0
 32 31  1  0  0  0  0
 34 33  1  0  0  0  0
 35 28  1  0  0  0  0
 36 35  1  0  0  0  0
 37 36  1  0  0  0  0
 38 37  1  0  0  0  0
 39 42  1  0  0  0  0
 39 41  1  0  0  0  0
 40 39  2  0  0  0  0
 42 38  1  0  0  0  0
M  END
>  <MODEL>
8

>  <REMARK>
 VINA RESULT:      -4.2      3.825      8.158
  Name = 
  12 active torsions:
  status: ('A' for Active; 'I' for Inactive)
    1  A    between atoms: C_1  and  C_39
    2  A    between atoms: N_6  and  C_19
    3  A    between atoms: N_6  and  C_37
    4  A    between atoms: C_10  and  C_40
    5  A    between atoms: C_12  and  N_21
    6  A    between atoms: C_12  and  C_24
    7  A    between atoms: S_13  and  C_24
    8  A    between atoms: S_13  and  C_25
    9  A    between atoms: C_19  and  C_33
   10  A    between atoms: C_25  and  N_42
   11  A    between atoms: N_26  and  C_39
   12  A    between atoms: C_28  and  C_37
                            x       y       z     vdW  Elec       q    Type
                         _______ _______ _______ _____ _____    ______ ____

>  <TORSDO>
F 12

$$$$
=
 OpenBabel11042420043D

 42 45  0  0  1  0  0  0  0  0999 V2000
  159.8940  208.6200  153.5780 C   0  0  0  0  0  2  0  0  0  0  0  0
  160.7160  206.7730  151.5230 C   0  0  0  0  0  3  0  0  0  0  0  0
  162.6320  208.0110  148.0180 O   0  0  0  0  0  1  0  0  0  0  0  0
  160.9420  205.8730  150.4850 C   0  0  0  0  0  3  0  0  0  0  0  0
  161.1050  208.1180  151.4020 C   0  0  0  0  0  0  0  0  0  0  0  0
  162.1670  209.9810  150.0590 C   0  0  0  0  0  0  0  0  0  0  0  0
  161.9370  210.5940  148.7830 N   0  0  0  0  0  2  0  0  0  0  0  0
  164.0100  210.9200  152.9280 O   0  0  0  0  0  0  0  0  0  0  0  0
  161.9850  207.6290  149.1870 C   0  0  0  0  0  0  0  0  0  0  0  0
  162.2610  209.3460  153.1650 C   0  0  0  0  0  2  0  0  0  0  0  0
  160.9100  209.0780  152.5360 C   0  0  2  0  0  3  0  0  0  0  0  0
  163.0540  210.3320  152.3590 C   0  0  0  0  0  0  0  0  0  0  0  0
  162.7420  210.6850  150.9990 N   0  0  0  0  0  0  0  0  0  0  0  0
  161.7640  208.5560  150.2320 C   0  0  0  0  0  0  0  0  0  0  0  0
  161.5730  206.3020  149.3200 C   0  0  0  0  0  3  0  0  0  0  0  0
  162.2580  211.9850  148.4850 C   0  0  0  0  0  2  0  0  0  0  0  0
  161.6670  212.3940  147.1790 C   0  0  0  0  0  0  0  0  0  0  0  0
  160.3020  212.1990  146.9410 C   0  0  0  0  0  3  0  0  0  0  0  0
  161.9160  213.3520  144.9670 C   0  0  0  0  0  3  0  0  0  0  0  0
  160.5520  213.1560  144.7290 C   0  0  0  0  0  3  0  0  0  0  0  0
  162.4730  212.9740  146.1920 C   0  0  0  0  0  3  0  0  0  0  0  0
  159.7450  212.5810  145.7160 C   0  0  0  0  0  3  0  0  0  0  0  0
  160.2070  209.5510  157.2610 N   0  0  0  0  0  1  0  0  0  0  0  0
  160.2340  208.7900  156.0570 C   0  0  0  0  0  0  0  0  0  0  0  0
  160.0100  209.4260  154.7880 N   0  0  0  0  0  0  0  0  0  0  0  0
  160.4450  207.5490  156.1200 O   0  0  0  0  0  0  0  0  0  0  0  0
  159.7860  210.8650  154.6920 C   0  0  0  0  0  2  0  0  0  0  0  0
  158.0610  212.5860  154.5920 N   0  0  0  0  0  0  0  0  0  0  0  0
  157.4180  210.4410  155.3470 C   0  0  0  0  0  2  0  0  0  0  0  0
  158.3220  211.1740  154.3990 C   0  0  2  0  0  3  0  0  0  0  0  0
  156.3060  211.3260  155.6220 N   0  0  0  0  0  2  0  0  0  0  0  0
  156.7470  212.6610  155.2270 C   0  0  1  0  0  3  0  0  0  0  0  0
  156.8160  213.5620  156.4470 C   0  0  0  0  0  2  0  0  0  0  0  0
  158.1260  213.6050  156.9280 O   0  0  0  0  0  1  0  0  0  0  0  0
  157.9410  213.1730  153.2640 C   0  0  0  0  0  2  0  0  0  0  0  0
  159.2830  213.7190  152.8040 C   0  0  0  0  0  2  0  0  0  0  0  0
  159.6820  213.1000  151.1400 S   0  0  0  0  0  0  0  0  0  0  0  0
  158.7240  214.4220  150.3330 C   0  0  0  0  0  2  0  0  0  0  0  0
  156.9710  213.8210  148.5990 C   0  0  0  0  0  0  0  0  0  0  0  0
  156.7100  213.4480  147.4270 O   0  0  0  0  0  0  0  0  0  0  0  0
  155.8490  214.0530  149.5540 C   0  0  0  0  0  1  0  0  0  0  0  0
  158.3350  214.0080  148.9940 N   0  0  0  0  0  2  0  0  0  0  0  0
  1 25  1  0  0  0  0
  3  9  1  0  0  0  0
  4  2  2  0  0  0  0
  5  2  1  0  0  0  0
  5 11  1  0  0  0  0
  6 14  1  0  0  0  0
  6 13  2  0  0  0  0
  7  6  1  0  0  0  0
  9 15  2  0  0  0  0
  9 14  1  0  0  0  0
 11 10  1  0  0  0  0
 11  1  1  1  0  0  0
 12  8  2  0  0  0  0
 12 10  1  0  0  0  0
 13 12  1  0  0  0  0
 14  5  2  0  0  0  0
 15  4  1  0  0  0  0
 16  7  1  0  0  0  0
 17 16  1  0  0  0  0
 18 17  1  0  0  0  0
 19 21  1  0  0  0  0
 20 19  2  0  0  0  0
 20 22  1  0  0  0  0
 21 17  2  0  0  0  0
 22 18  2  0  0  0  0
 24 26  2  0  0  0  0
 24 23  1  0  0  0  0
 25 24  1  0  0  0  0
 27 25  1  0  0  0  0
 28 32  1  0  0  0  0
 29 31  1  0  0  0  0
 30 28  1  0  0  0  0
 30 27  1  1  0  0  0
 30 29  1  0  0  0  0
 32 31  1  0  0  0  0
 32 33  1  1  0  0  0
 33 34  1  0  0  0  0
 35 28  1  0  0  0  0
 36 35  1  0  0  0  0
 37 36  1  0  0  0  0
 38 37  1  0  0  0  0
 39 42  1  0  0  0  0
 39 41  1  0  0  0  0
 40 39  2  0  0  0  0
 42 38  1  0  0  0  0
M  END
>  <MODEL>
9

>  <REMARK>
 VINA RESULT:      -4.1      2.467      6.330
  Name = 
  12 active torsions:
  status: ('A' for Active; 'I' for Inactive)
    1  A    between atoms: C_1  and  C_39
    2  A    between atoms: N_6  and  C_19
    3  A    between atoms: N_6  and  C_37
    4  A    between atoms: C_10  and  C_40
    5  A    between atoms: C_12  and  N_21
    6  A    between atoms: C_12  and  C_24
    7  A    between atoms: S_13  and  C_24
    8  A    between atoms: S_13  and  C_25
    9  A    between atoms: C_19  and  C_33
   10  A    between atoms: C_25  and  N_42
   11  A    between atoms: N_26  and  C_39
   12  A    between atoms: C_28  and  C_37
                            x       y       z     vdW  Elec       q    Type
                         _______ _______ _______ _____ _____    ______ ____

>  <TORSDO>
F 12

$$$$
