=
 OpenBabel11052409433D

 31 35  0  0  1  0  0  0  0  0999 V2000
  162.9330  204.7440  151.8190 C   0  0  0  0  0  1  0  0  0  0  0  0
  162.1040  205.8370  147.2120 C   0  0  0  0  0  0  0  0  0  0  0  0
  161.6850  208.2000  147.8830 C   0  0  0  0  0  2  0  0  0  0  0  0
  162.8810  205.7260  145.9420 C   0  0  0  0  0  2  0  0  0  0  0  0
  162.1270  209.1840  148.9440 C   0  0  2  0  0  3  0  0  0  0  0  0
  161.2620  206.1770  149.3390 C   0  0  0  0  0  0  0  0  0  0  0  0
  160.8120  206.7670  150.6520 C   0  0  0  0  0  2  0  0  0  0  0  0
  160.9210  202.5830  146.8450 O   0  0  0  0  0  0  0  0  0  0  0  0
  161.2010  209.1770  150.1610 C   0  0  1  0  0  3  0  0  0  0  0  0
  161.4570  203.7030  146.6400 C   0  0  0  0  0  0  0  0  0  0  0  0
  161.0260  211.0480  151.7130 O   0  0  0  0  0  0  0  0  0  0  0  0
  161.0390  208.3650  152.4800 N   0  0  0  0  0  2  0  0  0  0  0  0
  159.8770  204.0230  150.9730 C   0  0  0  0  0  2  0  0  0  0  0  0
  162.9100  207.8110  151.2130 O   0  0  0  0  0  1  0  0  0  0  0  0
  161.5300  208.0310  151.1420 C   0  0  1  0  0  0  0  0  0  0  0  0
  162.4320  204.0970  145.1920 S   0  0  0  0  0  0  0  0  0  0  0  0
  161.0780  204.9160  153.5690 C   0  0  0  0  0  3  0  0  0  0  0  0
  160.9260  203.2000  151.7170 C   0  0  0  0  0  2  0  0  0  0  0  0
  161.4130  210.5650  150.6170 C   0  0  0  0  0  0  0  0  0  0  0  0
  161.0860  207.5360  153.6550 C   0  0  0  0  0  0  0  0  0  0  0  0
  161.8430  204.0400  152.6110 C   0  0  1  0  0  3  0  0  0  0  0  0
  160.1270  204.0020  149.5720 O   0  0  0  0  0  0  0  0  0  0  0  0
  162.0070  211.3390  149.5990 N   0  0  0  0  0  2  0  0  0  0  0  0
  161.4080  204.8030  147.5620 C   0  0  0  0  0  0  0  0  0  0  0  0
  160.8870  204.9690  148.8990 C   0  0  0  0  0  0  0  0  0  0  0  0
  162.2270  210.5620  148.4520 N   0  0  0  0  0  2  0  0  0  0  0  0
  162.1800  206.8300  148.3200 C   0  0  1  0  0  3  0  0  0  0  0  0
  161.1130  206.2260  153.5840 C   0  0  0  0  0  0  0  0  0  0  0  0
  160.4320  209.5970  154.8480 C   0  0  0  0  0  1  0  0  0  0  0  0
  160.8930  208.1600  154.9980 C   0  0  0  0  0  3  0  0  0  0  0  0
  159.8820  207.3770  155.8140 C   0  0  0  0  0  1  0  0  0  0  0  0
  2 24  2  0  0  0  0
  2 27  1  0  0  0  0
  4  2  1  0  0  0  0
  5  3  1  6  0  0  0
  5  9  1  0  0  0  0
  6  7  1  0  0  0  0
  7 15  1  0  0  0  0
  9 19  1  1  0  0  0
  9 15  1  0  0  0  0
 10  8  2  0  0  0  0
 10 24  1  0  0  0  0
 12 20  1  0  0  0  0
 13 18  1  0  0  0  0
 15 14  1  1  0  0  0
 15 12  1  0  0  0  0
 16  4  1  0  0  0  0
 16 10  1  0  0  0  0
 17 28  2  0  0  0  0
 18 21  1  0  0  0  0
 19 11  2  0  0  0  0
 20 30  1  0  0  0  0
 21  1  1  6  0  0  0
 21 17  1  0  0  0  0
 22 13  1  0  0  0  0
 23 19  1  0  0  0  0
 24 25  1  0  0  0  0
 25  6  2  0  0  0  0
 25 22  1  0  0  0  0
 26  5  1  0  0  0  0
 26 23  1  0  0  0  0
 27  3  1  6  0  0  0
 27  6  1  0  0  0  0
 28 20  2  0  0  0  0
 29 30  1  0  0  0  0
 30 31  1  0  0  0  0
M  END
>  <MODEL>
1

>  <REMARK>
 VINA RESULT:      -6.8      0.000      0.000
  Name = 
  1 active torsions:
  status: ('A' for Active; 'I' for Inactive)
    1  A    between atoms: C_21  and  C_30
                            x       y       z     vdW  Elec       q    Type
                         _______ _______ _______ _____ _____    ______ ____

>  <TORSDO>
F 1

$$$$
=
 OpenBabel11052409433D

 31 35  0  0  1  0  0  0  0  0999 V2000
  163.1680  204.7650  146.3720 C   0  0  0  0  0  1  0  0  0  0  0  0
  161.8730  207.4870  150.1180 C   0  0  0  0  0  0  0  0  0  0  0  0
  160.9170  205.4640  151.2140 C   0  0  0  0  0  2  0  0  0  0  0  0
  162.5920  208.3790  151.0750 C   0  0  0  0  0  2  0  0  0  0  0  0
  161.1530  203.9710  151.2650 C   0  0  2  0  0  3  0  0  0  0  0  0
  161.0770  205.8270  148.7170 C   0  0  0  0  0  0  0  0  0  0  0  0
  160.5590  204.5370  148.1320 C   0  0  0  0  0  2  0  0  0  0  0  0
  161.5150  210.1070  147.8530 O   0  0  0  0  0  0  0  0  0  0  0  0
  160.3170  203.2170  150.2300 C   0  0  1  0  0  3  0  0  0  0  0  0
  161.7470  209.4290  148.8860 C   0  0  0  0  0  0  0  0  0  0  0  0
  159.7610  200.8530  150.4310 O   0  0  0  0  0  0  0  0  0  0  0  0
  160.4730  202.1020  148.0390 N   0  0  0  0  0  2  0  0  0  0  0  0
  160.3480  206.2800  145.8030 C   0  0  0  0  0  2  0  0  0  0  0  0
  162.3590  203.1420  148.9190 O   0  0  0  0  0  1  0  0  0  0  0  0
  160.9660  203.2330  148.8280 C   0  0  1  0  0  0  0  0  0  0  0  0
  162.5230  210.0830  150.3600 S   0  0  0  0  0  0  0  0  0  0  0  0
  161.4150  203.6310  144.8990 C   0  0  0  0  0  3  0  0  0  0  0  0
  161.6020  206.1520  144.9420 C   0  0  0  0  0  2  0  0  0  0  0  0
  160.2020  201.9220  150.9280 C   0  0  0  0  0  0  0  0  0  0  0  0
  160.7800  201.8010  146.6660 C   0  0  0  0  0  0  0  0  0  0  0  0
  162.3250  204.8130  145.1080 C   0  0  1  0  0  3  0  0  0  0  0  0
  160.5270  207.2780  146.8020 O   0  0  0  0  0  0  0  0  0  0  0  0
  160.5360  202.0590  152.2910 N   0  0  0  0  0  2  0  0  0  0  0  0
  161.4720  208.0240  149.0100 C   0  0  0  0  0  0  0  0  0  0  0  0
  160.9910  207.0120  148.0980 C   0  0  0  0  0  0  0  0  0  0  0  0
  160.8860  203.3860  152.5830 N   0  0  0  0  0  2  0  0  0  0  0  0
  161.7560  206.0030  150.0650 C   0  0  1  0  0  3  0  0  0  0  0  0
  161.1260  202.7310  145.8090 C   0  0  0  0  0  0  0  0  0  0  0  0
  160.1150  200.4990  144.6760 C   0  0  0  0  0  1  0  0  0  0  0  0
  160.5040  200.4310  146.1400 C   0  0  0  0  0  3  0  0  0  0  0  0
  161.7180  199.5360  146.3090 C   0  0  0  0  0  1  0  0  0  0  0  0
  2  4  1  0  0  0  0
  5  3  1  1  0  0  0
  5 26  1  0  0  0  0
  6 27  1  0  0  0  0
  7  6  1  0  0  0  0
  7 15  1  0  0  0  0
  8 10  2  0  0  0  0
  9 19  1  1  0  0  0
  9  5  1  0  0  0  0
 10 24  1  0  0  0  0
 10 16  1  0  0  0  0
 11 19  2  0  0  0  0
 12 15  1  0  0  0  0
 13 22  1  0  0  0  0
 15 14  1  1  0  0  0
 15  9  1  0  0  0  0
 16  4  1  0  0  0  0
 17 21  1  0  0  0  0
 17 28  2  0  0  0  0
 18 21  1  0  0  0  0
 18 13  1  0  0  0  0
 19 23  1  0  0  0  0
 20 12  1  0  0  0  0
 21  1  1  1  0  0  0
 22 25  1  0  0  0  0
 23 26  1  0  0  0  0
 24  2  2  0  0  0  0
 25  6  2  0  0  0  0
 25 24  1  0  0  0  0
 27  2  1  0  0  0  0
 27  3  1  1  0  0  0
 28 20  2  0  0  0  0
 29 30  1  0  0  0  0
 30 31  1  0  0  0  0
 30 20  1  0  0  0  0
M  END
>  <MODEL>
2

>  <REMARK>
 VINA RESULT:      -4.7      3.567      7.392
  Name = 
  1 active torsions:
  status: ('A' for Active; 'I' for Inactive)
    1  A    between atoms: C_21  and  C_30
                            x       y       z     vdW  Elec       q    Type
                         _______ _______ _______ _____ _____    ______ ____

>  <TORSDO>
F 1

$$$$
=
 OpenBabel11052409433D

 31 35  0  0  1  0  0  0  0  0999 V2000
  163.1860  209.7050  150.9280 C   0  0  0  0  0  1  0  0  0  0  0  0
  161.1310  208.1580  154.9890 C   0  0  0  0  0  0  0  0  0  0  0  0
  160.7110  205.9570  153.8980 C   0  0  0  0  0  2  0  0  0  0  0  0
  161.5670  208.0240  156.4100 C   0  0  0  0  0  2  0  0  0  0  0  0
  161.3290  205.0660  152.8420 C   0  0  2  0  0  3  0  0  0  0  0  0
  160.8330  208.1770  152.6950 C   0  0  0  0  0  0  0  0  0  0  0  0
  160.6860  207.8070  151.2410 C   0  0  0  0  0  2  0  0  0  0  0  0
  160.1550  211.4550  155.5330 O   0  0  0  0  0  0  0  0  0  0  0  0
  160.7450  205.3260  151.4520 C   0  0  1  0  0  3  0  0  0  0  0  0
  160.5310  210.2650  155.6940 C   0  0  0  0  0  0  0  0  0  0  0  0
  160.8240  203.6920  149.6470 O   0  0  0  0  0  0  0  0  0  0  0  0
  161.2420  206.4290  149.3070 N   0  0  0  0  0  2  0  0  0  0  0  0
  160.0820  210.6580  151.1100 C   0  0  0  0  0  2  0  0  0  0  0  0
  162.7680  206.6100  151.0540 O   0  0  0  0  0  1  0  0  0  0  0  0
  161.4020  206.5400  150.7580 C   0  0  1  0  0  0  0  0  0  0  0  0
  161.0720  209.5900  157.2610 S   0  0  0  0  0  0  0  0  0  0  0  0
  161.8280  209.9590  148.7770 C   0  0  0  0  0  3  0  0  0  0  0  0
  161.3470  211.4410  150.7690 C   0  0  0  0  0  2  0  0  0  0  0  0
  160.9560  203.9900  150.8630 C   0  0  0  0  0  0  0  0  0  0  0  0
  161.6520  207.3850  148.3130 C   0  0  0  0  0  0  0  0  0  0  0  0
  162.3920  210.6200  150.0080 C   0  0  1  0  0  3  0  0  0  0  0  0
  159.9700  210.4790  152.5170 O   0  0  0  0  0  0  0  0  0  0  0  0
  161.2090  203.0350  151.8690 N   0  0  0  0  0  2  0  0  0  0  0  0
  160.6310  209.2980  154.6370 C   0  0  0  0  0  0  0  0  0  0  0  0
  160.4550  209.3580  153.2040 C   0  0  0  0  0  0  0  0  0  0  0  0
  161.1910  203.6370  153.1360 N   0  0  0  0  0  2  0  0  0  0  0  0
  161.4080  207.3060  153.7980 C   0  0  1  0  0  3  0  0  0  0  0  0
  161.7630  208.6650  148.5790 C   0  0  0  0  0  0  0  0  0  0  0  0
  162.7060  205.7790  146.7610 C   0  0  0  0  0  1  0  0  0  0  0  0
  161.7570  206.9550  146.8870 C   0  0  0  0  0  3  0  0  0  0  0  0
  160.3940  206.5780  146.3370 C   0  0  0  0  0  1  0  0  0  0  0  0
  2  4  1  0  0  0  0
  4 16  1  0  0  0  0
  5 26  1  0  0  0  0
  5  3  1  1  0  0  0
  6 25  2  0  0  0  0
  6 27  1  0  0  0  0
  7  6  1  0  0  0  0
  8 10  2  0  0  0  0
  9 19  1  6  0  0  0
  9  5  1  0  0  0  0
 10 16  1  0  0  0  0
 11 19  2  0  0  0  0
 12 15  1  0  0  0  0
 13 22  1  0  0  0  0
 15 14  1  1  0  0  0
 15  7  1  0  0  0  0
 15  9  1  0  0  0  0
 17 21  1  0  0  0  0
 18 13  1  0  0  0  0
 19 23  1  0  0  0  0
 20 28  2  0  0  0  0
 20 12  1  0  0  0  0
 21 18  1  0  0  0  0
 21  1  1  1  0  0  0
 22 25  1  0  0  0  0
 23 26  1  0  0  0  0
 24  2  2  0  0  0  0
 24 10  1  0  0  0  0
 25 24  1  0  0  0  0
 27  3  1  1  0  0  0
 27  2  1  0  0  0  0
 28 17  2  0  0  0  0
 29 30  1  0  0  0  0
 30 20  1  0  0  0  0
 31 30  1  0  0  0  0
M  END
>  <MODEL>
3

>  <REMARK>
 VINA RESULT:      -4.1      3.076      7.509
  Name = 
  1 active torsions:
  status: ('A' for Active; 'I' for Inactive)
    1  A    between atoms: C_21  and  C_30
                            x       y       z     vdW  Elec       q    Type
                         _______ _______ _______ _____ _____    ______ ____

>  <TORSDO>
F 1

$$$$
