=
 OpenBabel11052411593D

 61 65  0  0  1  0  0  0  0  0999 V2000
  162.0880  203.4070  147.4780 C   0  0  0  0  0  2  0  0  0  0  0  0
  160.4990  206.6560  148.9560 C   0  0  1  0  0  3  0  0  0  0  0  0
  161.3930  204.4080  148.3760 C   0  0  0  0  0  0  0  0  0  0  0  0
  161.9250  208.6560  151.5540 O   0  0  0  0  0  0  0  0  0  0  0  0
  161.0980  208.6070  150.4250 C   0  0  2  0  0  3  0  0  0  0  0  0
  160.6630  206.0790  154.1560 N   0  0  0  0  0  2  0  0  0  0  0  0
  160.5550  204.7690  152.1010 C   0  0  0  0  0  0  0  0  0  0  0  0
  161.6270  207.5650  149.4440 C   0  0  0  0  0  2  0  0  0  0  0  0
  161.9670  202.8420  150.3670 C   0  0  0  0  0  1  0  0  0  0  0  0
  161.5090  203.3270  146.0750 C   0  0  0  0  0  2  0  0  0  0  0  0
  161.0130  205.6520  147.9560 C   0  0  0  0  0  0  0  0  0  0  0  0
  160.5690  204.8700  150.6340 C   0  0  0  0  0  0  0  0  0  0  0  0
  160.4920  203.5490  152.7750 O   0  0  0  0  0  1  0  0  0  0  0  0
  160.9610  207.3650  154.7120 C   0  0  0  0  0  0  0  0  0  0  0  0
  162.1670  204.3480  145.1590 C   0  0  0  0  0  2  0  0  0  0  0  0
  159.9350  205.9820  150.0700 O   0  0  0  0  0  0  0  0  0  0  0  0
  161.0640  208.8090  152.6500 C   0  0  0  0  0  2  0  0  0  0  0  0
  161.2590  204.0490  149.8240 C   0  0  0  0  0  0  0  0  0  0  0  0
  160.6510  205.9230  152.7450 C   0  0  0  0  0  3  0  0  0  0  0  0
  160.5640  207.6220  155.8800 O   0  0  0  0  0  0  0  0  0  0  0  0
  160.9970  206.0980  146.5190 C   0  0  0  0  0  2  0  0  0  0  0  0
  161.7820  208.3860  153.9330 C   0  0  1  0  0  3  0  0  0  0  0  0
  162.2730  205.7430  145.7790 C   0  0  0  0  0  2  0  0  0  0  0  0
  161.0790  209.8590  149.7990 O   0  0  0  0  0  0  0  0  0  0  0  0
  161.9700  210.6500  150.5360 C   0  0  2  0  0  3  0  0  0  0  0  0
  161.2510  211.4880  151.3940 O   0  0  0  0  0  1  0  0  0  0  0  0
  162.7310  211.4230  149.6600 O   0  0  0  0  0  0  0  0  0  0  0  0
  161.8020  211.9770  148.7750 C   0  0  0  0  0  2  0  0  0  0  0  0
  163.7120  212.0540  147.3130 O   0  0  0  0  0  1  0  0  0  0  0  0
  162.5040  212.6850  147.6230 C   0  0  1  0  0  3  0  0  0  0  0  0
  160.3260  212.3490  146.6950 O   0  0  0  0  0  1  0  0  0  0  0  0
  161.6060  212.8190  146.3930 C   0  0  1  0  0  3  0  0  0  0  0  0
  161.5160  214.2520  145.8960 C   0  0  0  0  0  2  0  0  0  0  0  0
  160.6900  214.3120  144.7640 O   0  0  0  0  0  0  0  0  0  0  0  0
  161.4090  213.7620  143.6870 C   0  0  1  0  0  0  0  0  0  0  0  0
  160.7170  213.6520  142.3530 C   0  0  2  0  0  0  0  0  0  0  0  0
  161.7600  213.9610  141.2930 C   0  0  2  0  0  3  0  0  0  0  0  0
  161.7410  212.9780  140.3020 O   0  0  0  0  0  1  0  0  0  0  0  0
  159.3230  214.2510  142.2630 C   0  0  0  0  0  1  0  0  0  0  0  0
  162.8880  214.0520  143.4820 C   0  0  0  0  0  2  0  0  0  0  0  0
  160.8950  212.4100  143.2220 C   0  0  0  0  0  2  0  0  0  0  0  0
  163.1270  213.9860  141.9770 C   0  0  0  0  0  2  0  0  0  0  0  0
  162.1650  209.6290  154.7660 C   0  0  2  0  0  3  0  0  0  0  0  0
  162.6960  210.5480  156.8000 C   0  0  0  0  0  1  0  0  0  0  0  0
  162.2440  209.3840  156.1560 O   0  0  0  0  0  0  0  0  0  0  0  0
  161.3550  210.8890  154.4120 C   0  0  0  0  0  2  0  0  0  0  0  0
  160.7890  211.5070  155.6780 C   0  0  0  0  0  2  0  0  0  0  0  0
  158.4720  212.2870  155.3510 C   0  0  0  0  0  0  0  0  0  0  0  0
  158.0030  211.0180  155.6870 O   0  0  0  0  0  1  0  0  0  0  0  0
  159.7790  212.5440  155.3220 C   0  0  0  0  0  3  0  0  0  0  0  0
  157.5060  213.3840  155.0230 C   0  0  2  0  0  3  0  0  0  0  0  0
  156.2900  213.3490  155.9040 C   0  0  0  0  0  0  0  0  0  0  0  0
  155.3200  212.6670  155.6060 O   0  0  0  0  0  0  0  0  0  0  0  0
  156.2760  214.1450  157.1620 C   0  0  0  0  0  1  0  0  0  0  0  0
  155.9800  213.5290  153.2220 O   0  0  0  0  0  0  0  0  0  0  0  0
  157.1550  213.4120  153.5560 C   0  0  0  0  0  0  0  0  0  0  0  0
  159.3650  213.9490  152.9210 F   0  0  0  0  0  0  0  0  0  0  0  0
  158.4980  211.9700  152.2630 F   0  0  0  0  0  0  0  0  0  0  0  0
  158.2160  213.3080  152.4830 C   0  0  0  0  0  0  0  0  0  0  0  0
  157.7720  213.9410  151.1650 C   0  0  0  0  0  2  0  0  0  0  0  0
  157.4020  212.9530  150.2470 O   0  0  0  0  0  1  0  0  0  0  0  0
  1  3  1  0  0  0  0
  2  8  1  1  0  0  0
  2 16  1  0  0  0  0
  3 18  1  0  0  0  0
  4 17  1  0  0  0  0
  5 24  1  6  0  0  0
  5  4  1  0  0  0  0
  6 14  1  0  0  0  0
  7 19  2  0  0  0  0
  7 13  1  0  0  0  0
  8  5  1  0  0  0  0
 10  1  1  0  0  0  0
 11  3  2  0  0  0  0
 11  2  1  0  0  0  0
 12  7  1  0  0  0  0
 14 20  2  0  0  0  0
 15 23  1  0  0  0  0
 15 10  1  0  0  0  0
 16 12  1  0  0  0  0
 17 22  1  0  0  0  0
 18  9  1  0  0  0  0
 18 12  2  0  0  0  0
 19  6  1  0  0  0  0
 21 11  1  0  0  0  0
 22 14  1  0  0  0  0
 22 43  1  1  0  0  0
 23 21  1  0  0  0  0
 24 25  1  0  0  0  0
 25 26  1  1  0  0  0
 27 25  1  0  0  0  0
 28 27  1  0  0  0  0
 30 29  1  6  0  0  0
 30 28  1  0  0  0  0
 32 31  1  1  0  0  0
 32 30  1  0  0  0  0
 33 32  1  0  0  0  0
 34 33  1  0  0  0  0
 35 34  1  1  0  0  0
 36 39  1  6  0  0  0
 36 41  1  0  0  0  0
 36 35  1  0  0  0  0
 37 38  1  6  0  0  0
 37 42  1  0  0  0  0
 37 36  1  0  0  0  0
 40 35  1  0  0  0  0
 41 35  1  0  0  0  0
 42 40  1  0  0  0  0
 43 46  1  1  0  0  0
 43 45  1  0  0  0  0
 45 44  1  0  0  0  0
 46 47  1  0  0  0  0
 48 49  1  0  0  0  0
 50 48  2  0  0  0  0
 50 47  1  0  0  0  0
 51 56  1  6  0  0  0
 51 48  1  0  0  0  0
 51 52  1  0  0  0  0
 52 54  1  0  0  0  0
 53 52  2  0  0  0  0
 55 56  2  0  0  0  0
 58 59  1  0  0  0  0
 59 57  1  0  0  0  0
 59 56  1  0  0  0  0
 60 59  1  0  0  0  0
 61 60  1  0  0  0  0
M  END
>  <MODEL>
1

>  <REMARK>
 VINA RESULT:      -5.5      0.000      0.000
  Name = 
  19 active torsions:
  status: ('A' for Active; 'I' for Inactive)
    1  A    between atoms: C_1  and  C_59
    2  A    between atoms: C_5  and  O_6
    3  A    between atoms: O_6  and  C_53
    4  A    between atoms: C_13  and  O_43
    5  A    between atoms: C_22  and  C_27
    6  A    between atoms: C_22  and  C_61
    7  A    between atoms: C_28  and  O_52
    8  A    between atoms: C_28  and  C_54
    9  A    between atoms: C_30  and  C_59
   10  A    between atoms: O_31  and  C_57
   11  A    between atoms: C_40  and  C_41
   12  A    between atoms: C_40  and  C_57
   13  A    between atoms: C_41  and  C_56
   14  A    between atoms: O_43  and  C_48
   15  A    between atoms: C_44  and  C_53
   16  A    between atoms: C_44  and  C_54
   17  A    between atoms: C_48  and  O_52
   18  A    between atoms: C_51  and  C_57
   19  A    between atoms: C_59  and  C_61
                            x       y       z     vdW  Elec       q    Type
                         _______ _______ _______ _____ _____    ______ ____

>  <TORSDO>
F 19

$$$$
=
 OpenBabel11052411593D

 61 65  0  0  1  0  0  0  0  0999 V2000
  157.1750  212.0900  156.5310 C   0  0  0  0  0  2  0  0  0  0  0  0
  159.8320  212.3190  153.6760 C   0  0  1  0  0  3  0  0  0  0  0  0
  158.3760  211.8580  155.6400 C   0  0  0  0  0  0  0  0  0  0  0  0
  160.1630  210.0050  150.9710 O   0  0  0  0  0  0  0  0  0  0  0  0
  160.3490  211.3140  151.4290 C   0  0  2  0  0  3  0  0  0  0  0  0
  161.9890  207.5600  153.3570 N   0  0  0  0  0  0  0  0  0  0  0  0
  160.8920  209.0460  154.9500 C   0  0  1  0  0  3  0  0  0  0  0  0
  159.2460  211.6760  152.4190 C   0  0  0  0  0  2  0  0  0  0  0  0
  158.5120  209.4670  156.6440 C   0  0  0  0  0  1  0  0  0  0  0  0
  157.0140  213.5290  156.9910 C   0  0  0  0  0  2  0  0  0  0  0  0
  158.7400  212.7130  154.6370 C   0  0  0  0  0  0  0  0  0  0  0  0
  160.2200  210.3480  155.0810 C   0  0  0  0  0  0  0  0  0  0  0  0
  161.0350  208.1580  156.0160 O   0  0  0  0  0  1  0  0  0  0  0  0
  162.2230  207.2970  151.9690 C   0  0  0  0  0  0  0  0  0  0  0  0
  156.2070  214.3340  155.9830 C   0  0  0  0  0  2  0  0  0  0  0  0
  160.7130  211.3970  154.2980 O   0  0  0  0  0  0  0  0  0  0  0  0
  161.4450  209.4400  150.8980 C   0  0  0  0  0  2  0  0  0  0  0  0
  159.0960  210.5530  155.7890 C   0  0  0  0  0  0  0  0  0  0  0  0
  161.3180  208.7550  153.7300 C   0  0  0  0  0  3  0  0  0  0  0  0
  163.1550  206.5080  151.6550 O   0  0  0  0  0  0  0  0  0  0  0  0
  158.1710  214.0930  154.4460 C   0  0  0  0  0  2  0  0  0  0  0  0
  161.3380  207.9140  150.8920 C   0  0  1  0  0  3  0  0  0  0  0  0
  156.6570  214.1220  154.5350 C   0  0  0  0  0  2  0  0  0  0  0  0
  160.3060  212.2030  150.3480 O   0  0  0  0  0  0  0  0  0  0  0  0
  160.9070  213.3780  150.8180 C   0  0  2  0  0  3  0  0  0  0  0  0
  159.9200  214.2510  151.2870 O   0  0  0  0  0  1  0  0  0  0  0  0
  161.6070  213.9840  149.7750 O   0  0  0  0  0  0  0  0  0  0  0  0
  161.6830  213.0060  148.7810 C   0  0  0  0  0  2  0  0  0  0  0  0
  163.0850  214.0450  147.1230 O   0  0  0  0  0  1  0  0  0  0  0  0
  161.7750  213.6400  147.3990 C   0  0  1  0  0  3  0  0  0  0  0  0
  160.0690  212.0920  146.7610 O   0  0  0  0  0  1  0  0  0  0  0  0
  161.2260  212.7270  146.3040 C   0  0  1  0  0  3  0  0  0  0  0  0
  160.9170  213.4810  145.0210 C   0  0  0  0  0  2  0  0  0  0  0  0
  160.0730  212.7110  144.2080 O   0  0  0  0  0  0  0  0  0  0  0  0
  159.8010  213.4630  143.0500 C   0  0  1  0  0  0  0  0  0  0  0  0
  160.2920  212.9350  141.7280 C   0  0  2  0  0  0  0  0  0  0  0  0
  159.2200  213.2570  140.7020 C   0  0  2  0  0  3  0  0  0  0  0  0
  159.7930  213.8610  139.5830 O   0  0  0  0  0  1  0  0  0  0  0  0
  160.9530  211.5660  141.7500 C   0  0  0  0  0  1  0  0  0  0  0  0
  158.4760  214.1860  142.8600 C   0  0  0  0  0  2  0  0  0  0  0  0
  161.0300  214.0850  142.4080 C   0  0  0  0  0  2  0  0  0  0  0  0
  158.2200  214.2110  141.3570 C   0  0  0  0  0  2  0  0  0  0  0  0
  161.6180  207.3640  149.4770 C   0  0  2  0  0  3  0  0  0  0  0  0
  161.2240  208.2930  147.4170 C   0  0  0  0  0  1  0  0  0  0  0  0
  162.0450  208.3470  148.5550 O   0  0  0  0  0  0  0  0  0  0  0  0
  160.5020  206.4570  148.9300 C   0  0  0  0  0  2  0  0  0  0  0  0
  161.0470  205.5950  147.8040 C   0  0  0  0  0  2  0  0  0  0  0  0
  161.6440  203.2100  147.6050 C   0  0  0  0  0  0  0  0  0  0  0  0
  162.6180  203.5390  146.6630 O   0  0  0  0  0  1  0  0  0  0  0  0
  160.8770  204.1540  148.1480 C   0  0  0  0  0  3  0  0  0  0  0  0
  161.4520  201.7860  148.0230 C   0  0  2  0  0  3  0  0  0  0  0  0
  161.1550  200.8880  146.8560 C   0  0  0  0  0  0  0  0  0  0  0  0
  161.6080  199.7530  146.8080 O   0  0  0  0  0  0  0  0  0  0  0  0
  160.2860  201.3850  145.7540 C   0  0  0  0  0  1  0  0  0  0  0  0
  159.2780  201.3470  148.8450 O   0  0  0  0  0  0  0  0  0  0  0  0
  160.4340  201.6500  149.1270 C   0  0  0  0  0  0  0  0  0  0  0  0
  159.8170  201.3140  151.3820 F   0  0  0  0  0  0  0  0  0  0  0  0
  162.0070  201.2390  150.8340 F   0  0  0  0  0  0  0  0  0  0  0  0
  160.8010  201.8700  150.5780 C   0  0  0  0  0  0  0  0  0  0  0  0
  160.9380  203.3530  150.9240 C   0  0  0  0  0  2  0  0  0  0  0  0
  160.7080  203.5620  152.2870 O   0  0  0  0  0  1  0  0  0  0  0  0
  1 10  1  0  0  0  0
  2  8  1  6  0  0  0
  2 16  1  0  0  0  0
  2 11  1  0  0  0  0
  3 18  1  0  0  0  0
  3  1  1  0  0  0  0
  4  5  1  0  0  0  0
  5 24  1  6  0  0  0
  5  8  1  0  0  0  0
  6 19  2  0  0  0  0
  7 12  1  0  0  0  0
  7 13  1  6  0  0  0
 11  3  2  0  0  0  0
 12 18  2  0  0  0  0
 14  6  1  0  0  0  0
 15 10  1  0  0  0  0
 16 12  1  0  0  0  0
 17  4  1  0  0  0  0
 18  9  1  0  0  0  0
 19  7  1  0  0  0  0
 20 14  2  0  0  0  0
 21 23  1  0  0  0  0
 21 11  1  0  0  0  0
 22 43  1  6  0  0  0
 22 17  1  0  0  0  0
 22 14  1  0  0  0  0
 23 15  1  0  0  0  0
 24 25  1  0  0  0  0
 25 26  1  6  0  0  0
 27 25  1  0  0  0  0
 28 27  1  0  0  0  0
 30 29  1  6  0  0  0
 30 28  1  0  0  0  0
 32 31  1  1  0  0  0
 32 30  1  0  0  0  0
 33 32  1  0  0  0  0
 34 33  1  0  0  0  0
 35 34  1  1  0  0  0
 36 39  1  6  0  0  0
 36 41  1  0  0  0  0
 36 35  1  0  0  0  0
 37 38  1  6  0  0  0
 37 42  1  0  0  0  0
 37 36  1  0  0  0  0
 40 35  1  0  0  0  0
 41 35  1  0  0  0  0
 42 40  1  0  0  0  0
 43 46  1  6  0  0  0
 44 45  1  0  0  0  0
 45 43  1  0  0  0  0
 47 50  1  0  0  0  0
 47 46  1  0  0  0  0
 48 51  1  0  0  0  0
 48 50  2  0  0  0  0
 49 48  1  0  0  0  0
 51 52  1  6  0  0  0
 51 56  1  0  0  0  0
 53 52  2  0  0  0  0
 54 52  1  0  0  0  0
 55 56  2  0  0  0  0
 56 59  1  0  0  0  0
 59 58  1  0  0  0  0
 59 60  1  0  0  0  0
 59 57  1  0  0  0  0
 60 61  1  0  0  0  0
M  END
>  <MODEL>
2

>  <REMARK>
 VINA RESULT:      -4.1      2.860      8.731
  Name = 
  19 active torsions:
  status: ('A' for Active; 'I' for Inactive)
    1  A    between atoms: C_1  and  C_59
    2  A    between atoms: C_5  and  O_6
    3  A    between atoms: O_6  and  C_53
    4  A    between atoms: C_13  and  O_43
    5  A    between atoms: C_22  and  C_27
    6  A    between atoms: C_22  and  C_61
    7  A    between atoms: C_28  and  O_52
    8  A    between atoms: C_28  and  C_54
    9  A    between atoms: C_30  and  C_59
   10  A    between atoms: O_31  and  C_57
   11  A    between atoms: C_40  and  C_41
   12  A    between atoms: C_40  and  C_57
   13  A    between atoms: C_41  and  C_56
   14  A    between atoms: O_43  and  C_48
   15  A    between atoms: C_44  and  C_53
   16  A    between atoms: C_44  and  C_54
   17  A    between atoms: C_48  and  O_52
   18  A    between atoms: C_51  and  C_57
   19  A    between atoms: C_59  and  C_61
                            x       y       z     vdW  Elec       q    Type
                         _______ _______ _______ _____ _____    ______ ____

>  <TORSDO>
F 19

$$$$
=
 OpenBabel11052411593D

 61 65  0  0  1  0  0  0  0  0999 V2000
  160.8130  210.0190  156.4910 C   0  0  0  0  0  2  0  0  0  0  0  0
  160.4470  208.9600  152.7480 C   0  0  1  0  0  3  0  0  0  0  0  0
  160.4840  209.9870  155.0140 C   0  0  0  0  0  0  0  0  0  0  0  0
  162.3580  210.2810  150.0310 O   0  0  0  0  0  0  0  0  0  0  0  0
  161.6370  209.1980  150.5450 C   0  0  2  0  0  3  0  0  0  0  0  0
  160.0930  213.4240  150.0370 N   0  0  0  0  0  2  0  0  0  0  0  0
  159.6280  212.5010  152.2470 C   0  0  0  0  0  0  0  0  0  0  0  0
  161.8000  209.1420  152.0610 C   0  0  0  0  0  2  0  0  0  0  0  0
  160.3300  212.5770  155.1130 C   0  0  0  0  0  1  0  0  0  0  0  0
  160.3250  208.8020  157.2610 C   0  0  0  0  0  2  0  0  0  0  0  0
  160.6120  208.8650  154.2430 C   0  0  0  0  0  0  0  0  0  0  0  0
  159.7610  211.2910  153.0730 C   0  0  0  0  0  0  0  0  0  0  0  0
  159.0830  213.6910  152.7290 O   0  0  0  0  0  1  0  0  0  0  0  0
  160.8100  213.2300  148.8130 C   0  0  0  0  0  0  0  0  0  0  0  0
  161.3620  207.6900  157.2280 C   0  0  0  0  0  2  0  0  0  0  0  0
  159.6120  210.0620  152.4240 O   0  0  0  0  0  0  0  0  0  0  0  0
  161.5530  210.8320  149.0230 C   0  0  0  0  0  2  0  0  0  0  0  0
  160.1460  211.2920  154.3610 C   0  0  0  0  0  0  0  0  0  0  0  0
  160.1040  212.3940  151.0140 C   0  0  0  0  0  3  0  0  0  0  0  0
  160.4700  213.9030  147.8030 O   0  0  0  0  0  0  0  0  0  0  0  0
  160.8420  207.4810  154.7860 C   0  0  0  0  0  2  0  0  0  0  0  0
  161.9920  212.2690  148.7390 C   0  0  1  0  0  3  0  0  0  0  0  0
  161.9390  207.4340  155.8340 C   0  0  0  0  0  2  0  0  0  0  0  0
  162.1140  208.0060  149.9880 O   0  0  0  0  0  0  0  0  0  0  0  0
  162.2560  208.2730  148.6200 C   0  0  2  0  0  3  0  0  0  0  0  0
  161.0910  208.8800  148.1400 O   0  0  0  0  0  1  0  0  0  0  0  0
  162.4730  207.0760  147.9390 O   0  0  0  0  0  0  0  0  0  0  0  0
  161.8320  207.2450  146.7080 C   0  0  0  0  0  2  0  0  0  0  0  0
  159.9730  206.3160  145.4950 O   0  0  0  0  0  1  0  0  0  0  0  0
  161.0510  205.9940  146.3260 C   0  0  1  0  0  3  0  0  0  0  0  0
  163.2840  205.2730  145.8710 O   0  0  0  0  0  1  0  0  0  0  0  0
  161.9430  204.9220  145.7020 C   0  0  1  0  0  3  0  0  0  0  0  0
  161.6990  203.5460  146.3010 C   0  0  0  0  0  2  0  0  0  0  0  0
  160.6240  203.6030  147.2000 O   0  0  0  0  0  0  0  0  0  0  0  0
  161.0260  202.9530  148.3810 C   0  0  1  0  0  0  0  0  0  0  0  0
  160.9510  203.7210  149.6750 C   0  0  2  0  0  0  0  0  0  0  0  0
  160.5060  202.7360  150.7420 C   0  0  2  0  0  3  0  0  0  0  0  0
  161.3440  202.8240  151.8540 O   0  0  0  0  0  1  0  0  0  0  0  0
  160.3380  205.1100  149.6020 C   0  0  0  0  0  1  0  0  0  0  0  0
  160.7180  201.4850  148.6300 C   0  0  0  0  0  2  0  0  0  0  0  0
  162.3000  203.5100  148.9940 C   0  0  0  0  0  2  0  0  0  0  0  0
  160.5800  201.3320  150.1410 C   0  0  0  0  0  2  0  0  0  0  0  0
  162.7570  212.3400  147.3990 C   0  0  2  0  0  3  0  0  0  0  0  0
  164.2590  213.8470  148.2540 C   0  0  0  0  0  1  0  0  0  0  0  0
  164.1300  212.6450  147.5400 O   0  0  0  0  0  0  0  0  0  0  0  0
  162.0500  213.1830  146.3230 C   0  0  0  0  0  2  0  0  0  0  0  0
  160.9610  212.3580  145.6600 C   0  0  0  0  0  2  0  0  0  0  0  0
  160.0350  212.5870  143.3840 C   0  0  0  0  0  0  0  0  0  0  0  0
  158.7480  212.6220  143.9190 O   0  0  0  0  0  1  0  0  0  0  0  0
  161.0970  212.4470  144.1770 C   0  0  0  0  0  3  0  0  0  0  0  0
  160.2410  212.7130  141.9070 C   0  0  2  0  0  3  0  0  0  0  0  0
  161.5890  213.2830  141.5700 C   0  0  0  0  0  0  0  0  0  0  0  0
  161.8720  214.4360  141.8590 O   0  0  0  0  0  0  0  0  0  0  0  0
  162.5960  212.4220  140.8890 C   0  0  0  0  0  1  0  0  0  0  0  0
  158.5190  214.3350  141.8660 O   0  0  0  0  0  0  0  0  0  0  0  0
  159.1150  213.4640  141.2390 C   0  0  0  0  0  0  0  0  0  0  0  0
  157.6480  214.0050  139.4700 F   0  0  0  0  0  0  0  0  0  0  0  0
  159.7800  213.4450  138.9780 F   0  0  0  0  0  0  0  0  0  0  0  0
  158.7060  213.1770  139.8110 C   0  0  0  0  0  0  0  0  0  0  0  0
  158.2780  211.7230  139.6120 C   0  0  0  0  0  2  0  0  0  0  0  0
  159.3510  210.9560  139.1460 O   0  0  0  0  0  1  0  0  0  0  0  0
  1 10  1  0  0  0  0
  2  8  1  6  0  0  0
  2 11  1  0  0  0  0
  3  1  1  0  0  0  0
  4  5  1  0  0  0  0
  5 24  1  6  0  0  0
  5  8  1  0  0  0  0
  6 19  1  0  0  0  0
  7 13  1  0  0  0  0
  7 12  1  0  0  0  0
 11 21  1  0  0  0  0
 11  3  2  0  0  0  0
 12 18  2  0  0  0  0
 14  6  1  0  0  0  0
 15 10  1  0  0  0  0
 16  2  1  0  0  0  0
 16 12  1  0  0  0  0
 17  4  1  0  0  0  0
 18  3  1  0  0  0  0
 18  9  1  0  0  0  0
 19  7  2  0  0  0  0
 20 14  2  0  0  0  0
 21 23  1  0  0  0  0
 22 43  1  6  0  0  0
 22 14  1  0  0  0  0
 22 17  1  0  0  0  0
 23 15  1  0  0  0  0
 25 26  1  6  0  0  0
 25 24  1  0  0  0  0
 27 25  1  0  0  0  0
 28 27  1  0  0  0  0
 30 29  1  6  0  0  0
 30 28  1  0  0  0  0
 32 31  1  1  0  0  0
 32 33  1  0  0  0  0
 32 30  1  0  0  0  0
 33 34  1  0  0  0  0
 35 34  1  6  0  0  0
 35 40  1  0  0  0  0
 35 41  1  0  0  0  0
 35 36  1  0  0  0  0
 36 39  1  6  0  0  0
 36 37  1  0  0  0  0
 37 38  1  1  0  0  0
 40 42  1  0  0  0  0
 41 36  1  0  0  0  0
 42 37  1  0  0  0  0
 43 46  1  6  0  0  0
 43 45  1  0  0  0  0
 45 44  1  0  0  0  0
 47 46  1  0  0  0  0
 48 49  1  0  0  0  0
 48 50  2  0  0  0  0
 50 47  1  0  0  0  0
 51 56  1  1  0  0  0
 51 48  1  0  0  0  0
 52 53  2  0  0  0  0
 52 51  1  0  0  0  0
 54 52  1  0  0  0  0
 56 55  2  0  0  0  0
 57 59  1  0  0  0  0
 58 59  1  0  0  0  0
 59 56  1  0  0  0  0
 60 59  1  0  0  0  0
 61 60  1  0  0  0  0
M  END
>  <MODEL>
3

>  <REMARK>
 VINA RESULT:      -3.6      3.368     10.225
  Name = 
  19 active torsions:
  status: ('A' for Active; 'I' for Inactive)
    1  A    between atoms: C_1  and  C_59
    2  A    between atoms: C_5  and  O_6
    3  A    between atoms: O_6  and  C_53
    4  A    between atoms: C_13  and  O_43
    5  A    between atoms: C_22  and  C_27
    6  A    between atoms: C_22  and  C_61
    7  A    between atoms: C_28  and  O_52
    8  A    between atoms: C_28  and  C_54
    9  A    between atoms: C_30  and  C_59
   10  A    between atoms: O_31  and  C_57
   11  A    between atoms: C_40  and  C_41
   12  A    between atoms: C_40  and  C_57
   13  A    between atoms: C_41  and  C_56
   14  A    between atoms: O_43  and  C_48
   15  A    between atoms: C_44  and  C_53
   16  A    between atoms: C_44  and  C_54
   17  A    between atoms: C_48  and  O_52
   18  A    between atoms: C_51  and  C_57
   19  A    between atoms: C_59  and  C_61
                            x       y       z     vdW  Elec       q    Type
                         _______ _______ _______ _____ _____    ______ ____

>  <TORSDO>
F 19

$$$$
=
 OpenBabel11052411593D

 61 65  0  0  1  0  0  0  0  0999 V2000
  160.4060  212.0660  156.1340 C   0  0  0  0  0  2  0  0  0  0  0  0
  160.0010  210.2250  152.7120 C   0  0  1  0  0  3  0  0  0  0  0  0
  159.9780  211.6690  154.7370 C   0  0  0  0  0  0  0  0  0  0  0  0
  161.3290  211.3500  149.5900 O   0  0  0  0  0  0  0  0  0  0  0  0
  160.9240  210.2630  150.3730 C   0  0  2  0  0  3  0  0  0  0  0  0
  158.4030  213.8730  149.3150 N   0  0  0  0  0  0  0  0  0  0  0  0
  158.3430  213.3350  151.6940 C   0  0  1  0  0  3  0  0  0  0  0  0
  161.2150  210.5490  151.8430 C   0  0  0  0  0  2  0  0  0  0  0  0
  159.2330  214.1330  154.3930 C   0  0  0  0  0  1  0  0  0  0  0  0
  160.2770  210.9540  157.1610 C   0  0  0  0  0  2  0  0  0  0  0  0
  160.3010  210.4690  154.1690 C   0  0  0  0  0  0  0  0  0  0  0  0
  158.8190  212.3720  152.6990 C   0  0  0  0  0  0  0  0  0  0  0  0
  157.5760  214.4530  152.0200 O   0  0  0  0  0  1  0  0  0  0  0  0
  159.0460  213.5940  148.0660 C   0  0  0  0  0  0  0  0  0  0  0  0
  161.5400  210.1040  157.2000 C   0  0  0  0  0  2  0  0  0  0  0  0
  158.9100  211.0350  152.3020 O   0  0  0  0  0  0  0  0  0  0  0  0
  160.3410  211.5020  148.6070 C   0  0  0  0  0  2  0  0  0  0  0  0
  159.2950  212.7130  153.9090 C   0  0  0  0  0  0  0  0  0  0  0  0
  158.7310  213.0870  150.4510 C   0  0  0  0  0  3  0  0  0  0  0  0
  158.4790  213.9620  147.0020 O   0  0  0  0  0  0  0  0  0  0  0  0
  160.8900  209.3040  154.9160 C   0  0  0  0  0  2  0  0  0  0  0  0
  160.4090  212.9130  148.0200 C   0  0  1  0  0  3  0  0  0  0  0  0
  162.0470  209.7030  155.8130 C   0  0  0  0  0  2  0  0  0  0  0  0
  161.6190  209.1130  149.9820 O   0  0  0  0  0  0  0  0  0  0  0  0
  162.5840  208.9140  150.9770 C   0  0  2  0  0  3  0  0  0  0  0  0
  163.8220  208.6510  150.3820 O   0  0  0  0  0  1  0  0  0  0  0  0
  162.2090  207.8290  151.7690 O   0  0  0  0  0  0  0  0  0  0  0  0
  162.2980  206.7210  150.9220 C   0  0  0  0  0  2  0  0  0  0  0  0
  161.1700  205.5700  152.7100 O   0  0  0  0  0  1  0  0  0  0  0  0
  162.1290  205.4240  151.7020 C   0  0  1  0  0  3  0  0  0  0  0  0
  161.8960  203.0520  151.5240 O   0  0  0  0  0  1  0  0  0  0  0  0
  161.8140  204.2370  150.7920 C   0  0  1  0  0  3  0  0  0  0  0  0
  160.4390  204.3460  150.1540 C   0  0  0  0  0  2  0  0  0  0  0  0
  160.4390  203.6980  148.9100 O   0  0  0  0  0  0  0  0  0  0  0  0
  160.9490  204.6040  147.9620 C   0  0  1  0  0  0  0  0  0  0  0  0
  161.2710  204.0840  146.5860 C   0  0  2  0  0  0  0  0  0  0  0  0
  160.8820  205.1760  145.6040 C   0  0  2  0  0  3  0  0  0  0  0  0
  161.9290  205.4130  144.7120 O   0  0  0  0  0  1  0  0  0  0  0  0
  160.9120  202.6330  146.3090 C   0  0  0  0  0  1  0  0  0  0  0  0
  160.4420  206.0350  147.8710 C   0  0  0  0  0  2  0  0  0  0  0  0
  162.3980  204.3530  147.5790 C   0  0  0  0  0  2  0  0  0  0  0  0
  160.5850  206.4420  146.4090 C   0  0  0  0  0  2  0  0  0  0  0  0
  161.0280  212.8740  146.6050 C   0  0  2  0  0  3  0  0  0  0  0  0
  162.9340  213.7210  145.6490 C   0  0  0  0  0  1  0  0  0  0  0  0
  161.7090  214.0600  146.2460 O   0  0  0  0  0  0  0  0  0  0  0  0
  160.0630  212.3700  145.5180 C   0  0  0  0  0  2  0  0  0  0  0  0
  160.2700  213.1650  144.2400 C   0  0  0  0  0  2  0  0  0  0  0  0
  159.9530  212.5840  141.8640 C   0  0  0  0  0  0  0  0  0  0  0  0
  159.3800  213.8360  141.6420 O   0  0  0  0  0  1  0  0  0  0  0  0
  160.3670  212.2330  143.0800 C   0  0  0  0  0  3  0  0  0  0  0  0
  160.1160  211.6190  140.7310 C   0  0  2  0  0  3  0  0  0  0  0  0
  161.5510  211.2270  140.5230 C   0  0  0  0  0  0  0  0  0  0  0  0
  161.9120  210.0690  140.6730 O   0  0  0  0  0  0  0  0  0  0  0  0
  162.5390  212.2640  140.1140 C   0  0  0  0  0  1  0  0  0  0  0  0
  159.6940  213.2580  139.0780 O   0  0  0  0  0  0  0  0  0  0  0  0
  159.4650  212.1150  139.4640 C   0  0  0  0  0  0  0  0  0  0  0  0
  159.0970  211.0420  137.3930 F   0  0  0  0  0  0  0  0  0  0  0  0
  158.4140  210.0130  139.2840 F   0  0  0  0  0  0  0  0  0  0  0  0
  158.5420  211.2370  138.6490 C   0  0  0  0  0  0  0  0  0  0  0  0
  157.1520  211.8530  138.4810 C   0  0  0  0  0  2  0  0  0  0  0  0
  156.3200  211.4780  139.5410 O   0  0  0  0  0  1  0  0  0  0  0  0
  1 10  1  0  0  0  0
  2  8  1  6  0  0  0
  2 11  1  0  0  0  0
  3  1  1  0  0  0  0
  4  5  1  0  0  0  0
  5 24  1  6  0  0  0
  5  8  1  0  0  0  0
  6 19  2  0  0  0  0
  7 13  1  1  0  0  0
  7 12  1  0  0  0  0
 10 15  1  0  0  0  0
 11  3  2  0  0  0  0
 11 21  1  0  0  0  0
 12 18  2  0  0  0  0
 14  6  1  0  0  0  0
 16 12  1  0  0  0  0
 16  2  1  0  0  0  0
 17  4  1  0  0  0  0
 18  9  1  0  0  0  0
 18  3  1  0  0  0  0
 19  7  1  0  0  0  0
 20 14  2  0  0  0  0
 21 23  1  0  0  0  0
 22 43  1  6  0  0  0
 22 14  1  0  0  0  0
 22 17  1  0  0  0  0
 23 15  1  0  0  0  0
 24 25  1  0  0  0  0
 25 26  1  6  0  0  0
 25 27  1  0  0  0  0
 28 30  1  0  0  0  0
 28 27  1  0  0  0  0
 30 29  1  1  0  0  0
 32 31  1  1  0  0  0
 32 30  1  0  0  0  0
 33 32  1  0  0  0  0
 34 33  1  0  0  0  0
 35 34  1  1  0  0  0
 36 39  1  6  0  0  0
 36 41  1  0  0  0  0
 36 35  1  0  0  0  0
 37 38  1  6  0  0  0
 37 42  1  0  0  0  0
 37 36  1  0  0  0  0
 40 35  1  0  0  0  0
 41 35  1  0  0  0  0
 42 40  1  0  0  0  0
 43 46  1  6  0  0  0
 44 45  1  0  0  0  0
 45 43  1  0  0  0  0
 47 46  1  0  0  0  0
 48 50  2  0  0  0  0
 49 48  1  0  0  0  0
 50 47  1  0  0  0  0
 51 56  1  6  0  0  0
 51 48  1  0  0  0  0
 52 53  2  0  0  0  0
 52 51  1  0  0  0  0
 54 52  1  0  0  0  0
 55 56  2  0  0  0  0
 57 59  1  0  0  0  0
 59 58  1  0  0  0  0
 59 56  1  0  0  0  0
 60 59  1  0  0  0  0
 60 61  1  0  0  0  0
M  END
>  <MODEL>
4

>  <REMARK>
 VINA RESULT:      -3.5      3.543     10.623
  Name = 
  19 active torsions:
  status: ('A' for Active; 'I' for Inactive)
    1  A    between atoms: C_1  and  C_59
    2  A    between atoms: C_5  and  O_6
    3  A    between atoms: O_6  and  C_53
    4  A    between atoms: C_13  and  O_43
    5  A    between atoms: C_22  and  C_27
    6  A    between atoms: C_22  and  C_61
    7  A    between atoms: C_28  and  O_52
    8  A    between atoms: C_28  and  C_54
    9  A    between atoms: C_30  and  C_59
   10  A    between atoms: O_31  and  C_57
   11  A    between atoms: C_40  and  C_41
   12  A    between atoms: C_40  and  C_57
   13  A    between atoms: C_41  and  C_56
   14  A    between atoms: O_43  and  C_48
   15  A    between atoms: C_44  and  C_53
   16  A    between atoms: C_44  and  C_54
   17  A    between atoms: C_48  and  O_52
   18  A    between atoms: C_51  and  C_57
   19  A    between atoms: C_59  and  C_61
                            x       y       z     vdW  Elec       q    Type
                         _______ _______ _______ _____ _____    ______ ____

>  <TORSDO>
F 19

$$$$
=
 OpenBabel11052411593D

 61 65  0  0  1  0  0  0  0  0999 V2000
  162.1720  203.6950  147.3510 C   0  0  0  0  0  2  0  0  0  0  0  0
  160.3860  206.6550  149.1710 C   0  0  1  0  0  3  0  0  0  0  0  0
  161.4020  204.5410  148.3440 C   0  0  0  0  0  0  0  0  0  0  0  0
  161.6330  208.3620  152.0540 O   0  0  0  0  0  0  0  0  0  0  0  0
  160.8460  208.4240  150.8990 C   0  0  2  0  0  3  0  0  0  0  0  0
  160.4120  205.4190  154.2580 N   0  0  0  0  0  2  0  0  0  0  0  0
  160.4310  204.3820  152.0500 C   0  0  0  0  0  0  0  0  0  0  0  0
  161.4530  207.5410  149.8130 C   0  0  0  0  0  2  0  0  0  0  0  0
  161.9860  202.7570  150.1390 C   0  0  0  0  0  1  0  0  0  0  0  0
  161.6420  203.7710  145.9290 C   0  0  0  0  0  2  0  0  0  0  0  0
  160.9780  205.8110  148.0720 C   0  0  0  0  0  0  0  0  0  0  0  0
  160.4860  204.6730  150.6090 C   0  0  0  0  0  0  0  0  0  0  0  0
  160.4030  203.0840  152.5600 O   0  0  0  0  0  1  0  0  0  0  0  0
  160.6310  206.6350  154.9840 C   0  0  0  0  0  0  0  0  0  0  0  0
  162.2790  204.9300  145.1760 C   0  0  0  0  0  2  0  0  0  0  0  0
  159.8190  205.8190  150.1680 O   0  0  0  0  0  0  0  0  0  0  0  0
  160.7320  208.3350  153.1280 C   0  0  0  0  0  2  0  0  0  0  0  0
  161.2400  203.9930  149.7280 C   0  0  0  0  0  0  0  0  0  0  0  0
  160.4510  205.4470  152.8390 C   0  0  0  0  0  3  0  0  0  0  0  0
  160.1850  206.7210  156.1600 O   0  0  0  0  0  0  0  0  0  0  0  0
  160.9860  206.4380  146.7030 C   0  0  0  0  0  2  0  0  0  0  0  0
  161.4280  207.7820  154.3730 C   0  0  1  0  0  3  0  0  0  0  0  0
  162.3010  206.2360  145.9720 C   0  0  0  0  0  2  0  0  0  0  0  0
  160.7880  209.7450  150.4370 O   0  0  0  0  0  0  0  0  0  0  0  0
  162.0580  210.2770  150.6910 C   0  0  2  0  0  3  0  0  0  0  0  0
  162.2610  210.3630  152.0720 O   0  0  0  0  0  1  0  0  0  0  0  0
  162.1440  211.5490  150.1270 O   0  0  0  0  0  0  0  0  0  0  0  0
  162.0640  211.3350  148.7490 C   0  0  0  0  0  2  0  0  0  0  0  0
  163.2510  212.9110  147.3710 O   0  0  0  0  0  1  0  0  0  0  0  0
  162.0250  212.6570  147.9940 C   0  0  1  0  0  3  0  0  0  0  0  0
  159.6630  212.8760  147.6960 O   0  0  0  0  0  1  0  0  0  0  0  0
  160.8640  212.7240  147.0010 C   0  0  1  0  0  3  0  0  0  0  0  0
  161.0210  213.8600  146.0030 C   0  0  0  0  0  2  0  0  0  0  0  0
  160.1110  213.6940  144.9490 O   0  0  0  0  0  0  0  0  0  0  0  0
  160.8500  213.3380  143.8050 C   0  0  1  0  0  0  0  0  0  0  0  0
  160.2360  213.5960  142.4540 C   0  0  2  0  0  0  0  0  0  0  0  0
  161.3640  214.0390  141.5390 C   0  0  2  0  0  3  0  0  0  0  0  0
  161.3290  213.3120  140.3490 O   0  0  0  0  0  1  0  0  0  0  0  0
  158.9030  214.3250  142.4450 C   0  0  0  0  0  1  0  0  0  0  0  0
  162.3570  213.5310  143.7360 C   0  0  0  0  0  2  0  0  0  0  0  0
  160.2610  212.1790  143.0200 C   0  0  0  0  0  2  0  0  0  0  0  0
  162.6840  213.7850  142.2690 C   0  0  0  0  0  2  0  0  0  0  0  0
  161.7250  208.9220  155.3710 C   0  0  2  0  0  3  0  0  0  0  0  0
  162.8090  209.6470  157.2590 C   0  0  0  0  0  1  0  0  0  0  0  0
  162.4760  208.5140  156.4980 O   0  0  0  0  0  0  0  0  0  0  0  0
  160.4930  209.7710  155.7310 C   0  0  0  0  0  2  0  0  0  0  0  0
  159.3280  209.3890  154.8350 C   0  0  0  0  0  2  0  0  0  0  0  0
  157.6840  211.2120  154.5980 C   0  0  0  0  0  0  0  0  0  0  0  0
  156.9700  210.7000  155.6810 O   0  0  0  0  0  1  0  0  0  0  0  0
  158.7900  210.6070  154.1650 C   0  0  0  0  0  3  0  0  0  0  0  0
  157.2180  212.4570  153.9100 C   0  0  2  0  0  3  0  0  0  0  0  0
  158.2940  213.5020  153.8380 C   0  0  0  0  0  0  0  0  0  0  0  0
  159.0280  213.7120  154.7930 O   0  0  0  0  0  0  0  0  0  0  0  0
  158.4770  214.2770  152.5790 C   0  0  0  0  0  1  0  0  0  0  0  0
  155.0040  213.2770  153.7610 O   0  0  0  0  0  0  0  0  0  0  0  0
  155.9370  212.9890  154.5040 C   0  0  0  0  0  0  0  0  0  0  0  0
  157.0210  213.1970  156.5910 F   0  0  0  0  0  0  0  0  0  0  0  0
  155.1280  214.3750  156.2300 F   0  0  0  0  0  0  0  0  0  0  0  0
  155.7690  213.1690  155.9960 C   0  0  0  0  0  0  0  0  0  0  0  0
  154.9490  212.0440  156.6280 C   0  0  0  0  0  2  0  0  0  0  0  0
  153.7940  212.5570  157.2280 O   0  0  0  0  0  1  0  0  0  0  0  0
  1  3  1  0  0  0  0
  2  8  1  1  0  0  0
  2 16  1  0  0  0  0
  3 18  1  0  0  0  0
  4 17  1  0  0  0  0
  5 24  1  6  0  0  0
  5  4  1  0  0  0  0
  6 14  1  0  0  0  0
  7 13  1  0  0  0  0
  7 19  2  0  0  0  0
  8  5  1  0  0  0  0
 10  1  1  0  0  0  0
 11  3  2  0  0  0  0
 11  2  1  0  0  0  0
 12  7  1  0  0  0  0
 14 20  2  0  0  0  0
 15 10  1  0  0  0  0
 15 23  1  0  0  0  0
 16 12  1  0  0  0  0
 17 22  1  0  0  0  0
 18  9  1  0  0  0  0
 18 12  2  0  0  0  0
 19  6  1  0  0  0  0
 21 11  1  0  0  0  0
 22 14  1  0  0  0  0
 22 43  1  1  0  0  0
 23 21  1  0  0  0  0
 24 25  1  0  0  0  0
 25 26  1  1  0  0  0
 27 25  1  0  0  0  0
 28 27  1  0  0  0  0
 30 29  1  6  0  0  0
 30 28  1  0  0  0  0
 32 31  1  1  0  0  0
 32 30  1  0  0  0  0
 33 32  1  0  0  0  0
 34 33  1  0  0  0  0
 35 34  1  1  0  0  0
 36 39  1  6  0  0  0
 36 41  1  0  0  0  0
 36 35  1  0  0  0  0
 37 38  1  6  0  0  0
 37 42  1  0  0  0  0
 37 36  1  0  0  0  0
 40 35  1  0  0  0  0
 41 35  1  0  0  0  0
 42 40  1  0  0  0  0
 43 46  1  1  0  0  0
 43 45  1  0  0  0  0
 45 44  1  0  0  0  0
 47 46  1  0  0  0  0
 48 49  1  0  0  0  0
 50 48  2  0  0  0  0
 50 47  1  0  0  0  0
 51 52  1  1  0  0  0
 51 56  1  0  0  0  0
 51 48  1  0  0  0  0
 52 53  2  0  0  0  0
 54 52  1  0  0  0  0
 55 56  2  0  0  0  0
 56 59  1  0  0  0  0
 59 58  1  0  0  0  0
 59 57  1  0  0  0  0
 59 60  1  0  0  0  0
 60 61  1  0  0  0  0
M  END
>  <MODEL>
5

>  <REMARK>
 VINA RESULT:      -2.8      1.363      2.114
  Name = 
  19 active torsions:
  status: ('A' for Active; 'I' for Inactive)
    1  A    between atoms: C_1  and  C_59
    2  A    between atoms: C_5  and  O_6
    3  A    between atoms: O_6  and  C_53
    4  A    between atoms: C_13  and  O_43
    5  A    between atoms: C_22  and  C_27
    6  A    between atoms: C_22  and  C_61
    7  A    between atoms: C_28  and  O_52
    8  A    between atoms: C_28  and  C_54
    9  A    between atoms: C_30  and  C_59
   10  A    between atoms: O_31  and  C_57
   11  A    between atoms: C_40  and  C_41
   12  A    between atoms: C_40  and  C_57
   13  A    between atoms: C_41  and  C_56
   14  A    between atoms: O_43  and  C_48
   15  A    between atoms: C_44  and  C_53
   16  A    between atoms: C_44  and  C_54
   17  A    between atoms: C_48  and  O_52
   18  A    between atoms: C_51  and  C_57
   19  A    between atoms: C_59  and  C_61
                            x       y       z     vdW  Elec       q    Type
                         _______ _______ _______ _____ _____    ______ ____

>  <TORSDO>
F 19

$$$$
=
 OpenBabel11052411593D

 61 65  0  0  1  0  0  0  0  0999 V2000
  160.5200  210.5620  156.5030 C   0  0  0  0  0  2  0  0  0  0  0  0
  160.3120  209.4970  152.7500 C   0  0  1  0  0  3  0  0  0  0  0  0
  160.1990  210.4970  155.0250 C   0  0  0  0  0  0  0  0  0  0  0  0
  162.0060  211.1090  150.0470 O   0  0  0  0  0  0  0  0  0  0  0  0
  161.4520  209.9270  150.5500 C   0  0  2  0  0  3  0  0  0  0  0  0
  159.3040  213.8850  150.0800 N   0  0  0  0  0  2  0  0  0  0  0  0
  158.9810  212.8830  152.2810 C   0  0  0  0  0  0  0  0  0  0  0  0
  161.6230  209.8820  152.0660 C   0  0  0  0  0  2  0  0  0  0  0  0
  159.6650  213.0350  155.1480 C   0  0  0  0  0  1  0  0  0  0  0  0
  160.2170  209.2810  157.2610 C   0  0  0  0  0  2  0  0  0  0  0  0
  160.4890  209.4130  154.2450 C   0  0  0  0  0  0  0  0  0  0  0  0
  159.2910  211.6980  153.0960 C   0  0  0  0  0  0  0  0  0  0  0  0
  158.2670  213.9760  152.7740 O   0  0  0  0  0  1  0  0  0  0  0  0
  160.0410  213.8100  148.8540 C   0  0  0  0  0  0  0  0  0  0  0  0
  161.4060  208.3330  157.2190 C   0  0  0  0  0  2  0  0  0  0  0  0
  159.3240  210.4660  152.4350 O   0  0  0  0  0  0  0  0  0  0  0  0
  161.1280  211.5450  149.0430 C   0  0  0  0  0  2  0  0  0  0  0  0
  159.6730  211.7430  154.3840 C   0  0  0  0  0  0  0  0  0  0  0  0
  159.4670  212.8590  151.0480 C   0  0  0  0  0  3  0  0  0  0  0  0
  159.6050  214.4340  147.8510 O   0  0  0  0  0  0  0  0  0  0  0  0
  160.9210  208.0730  154.7750 C   0  0  0  0  0  2  0  0  0  0  0  0
  161.3510  213.0340  148.7730 C   0  0  1  0  0  3  0  0  0  0  0  0
  162.0130  208.1780  155.8230 C   0  0  0  0  0  2  0  0  0  0  0  0
  162.0990  208.8230  149.9820 O   0  0  0  0  0  0  0  0  0  0  0  0
  161.1310  208.2060  149.1790 C   0  0  2  0  0  3  0  0  0  0  0  0
  160.8940  206.9100  149.6470 O   0  0  0  0  0  1  0  0  0  0  0  0
  161.5950  208.1500  147.8650 O   0  0  0  0  0  0  0  0  0  0  0  0
  162.7590  207.3800  147.9300 C   0  0  0  0  0  2  0  0  0  0  0  0
  163.5140  205.1830  147.3000 O   0  0  0  0  0  1  0  0  0  0  0  0
  162.7360  206.2700  146.8870 C   0  0  1  0  0  3  0  0  0  0  0  0
  160.6170  206.9280  145.9980 O   0  0  0  0  0  1  0  0  0  0  0  0
  161.3140  205.8410  146.5280 C   0  0  1  0  0  3  0  0  0  0  0  0
  161.2900  204.6890  145.5360 C   0  0  0  0  0  2  0  0  0  0  0  0
  160.1770  203.8720  145.7830 O   0  0  0  0  0  0  0  0  0  0  0  0
  160.6590  202.6110  146.1800 C   0  0  1  0  0  0  0  0  0  0  0  0
  160.9370  202.3860  147.6440 C   0  0  2  0  0  0  0  0  0  0  0  0
  160.5200  200.9590  147.9530 C   0  0  2  0  0  3  0  0  0  0  0  0
  161.5380  200.3010  148.6440 O   0  0  0  0  0  1  0  0  0  0  0  0
  160.5660  203.5200  148.5850 C   0  0  0  0  0  1  0  0  0  0  0  0
  160.1520  201.3260  145.5450 C   0  0  0  0  0  2  0  0  0  0  0  0
  162.0940  202.6220  146.6770 C   0  0  0  0  0  2  0  0  0  0  0  0
  160.2500  200.2530  146.6240 C   0  0  0  0  0  2  0  0  0  0  0  0
  162.0970  213.2280  147.4340 C   0  0  2  0  0  3  0  0  0  0  0  0
  164.2550  212.5000  147.7040 C   0  0  0  0  0  1  0  0  0  0  0  0
  163.4420  213.6390  147.5830 O   0  0  0  0  0  0  0  0  0  0  0  0
  161.3140  214.0590  146.4020 C   0  0  0  0  0  2  0  0  0  0  0  0
  162.0690  214.0800  145.0840 C   0  0  0  0  0  2  0  0  0  0  0  0
  161.5320  213.4460  142.7610 C   0  0  0  0  0  0  0  0  0  0  0  0
  162.8880  213.2360  142.5120 O   0  0  0  0  0  1  0  0  0  0  0  0
  161.1170  213.8590  143.9580 C   0  0  0  0  0  3  0  0  0  0  0  0
  160.5220  213.2010  141.6830 C   0  0  2  0  0  3  0  0  0  0  0  0
  159.2630  212.5810  142.2180 C   0  0  0  0  0  0  0  0  0  0  0  0
  158.1790  212.8280  141.7100 O   0  0  0  0  0  0  0  0  0  0  0  0
  159.3430  211.6430  143.3720 C   0  0  0  0  0  1  0  0  0  0  0  0
  160.9370  211.2080  140.4790 O   0  0  0  0  0  0  0  0  0  0  0  0
  161.1020  212.4230  140.5280 C   0  0  0  0  0  0  0  0  0  0  0  0
  160.9990  213.8720  138.6660 F   0  0  0  0  0  0  0  0  0  0  0  0
  162.8320  213.9290  139.9860 F   0  0  0  0  0  0  0  0  0  0  0  0
  161.8740  213.1040  139.4200 C   0  0  0  0  0  0  0  0  0  0  0  0
  162.5700  212.1020  138.4970 C   0  0  0  0  0  2  0  0  0  0  0  0
  163.8840  211.8790  138.9190 O   0  0  0  0  0  1  0  0  0  0  0  0
  1 10  1  0  0  0  0
  2  8  1  6  0  0  0
  2 11  1  0  0  0  0
  3  1  1  0  0  0  0
  4  5  1  0  0  0  0
  5 24  1  6  0  0  0
  5  8  1  0  0  0  0
  6 19  1  0  0  0  0
  7 13  1  0  0  0  0
  7 12  1  0  0  0  0
 11 21  1  0  0  0  0
 11  3  2  0  0  0  0
 12 18  2  0  0  0  0
 14  6  1  0  0  0  0
 15 10  1  0  0  0  0
 16  2  1  0  0  0  0
 16 12  1  0  0  0  0
 17  4  1  0  0  0  0
 18  3  1  0  0  0  0
 18  9  1  0  0  0  0
 19  7  2  0  0  0  0
 20 14  2  0  0  0  0
 21 23  1  0  0  0  0
 22 43  1  6  0  0  0
 22 14  1  0  0  0  0
 22 17  1  0  0  0  0
 23 15  1  0  0  0  0
 25 26  1  1  0  0  0
 25 24  1  0  0  0  0
 27 28  1  0  0  0  0
 27 25  1  0  0  0  0
 30 29  1  1  0  0  0
 30 28  1  0  0  0  0
 32 31  1  6  0  0  0
 32 30  1  0  0  0  0
 33 34  1  0  0  0  0
 33 32  1  0  0  0  0
 35 34  1  6  0  0  0
 35 41  1  0  0  0  0
 35 36  1  0  0  0  0
 36 37  1  0  0  0  0
 36 39  1  1  0  0  0
 37 38  1  6  0  0  0
 40 35  1  0  0  0  0
 40 42  1  0  0  0  0
 41 36  1  0  0  0  0
 42 37  1  0  0  0  0
 43 46  1  6  0  0  0
 43 45  1  0  0  0  0
 45 44  1  0  0  0  0
 47 46  1  0  0  0  0
 48 50  2  0  0  0  0
 49 48  1  0  0  0  0
 50 47  1  0  0  0  0
 51 56  1  6  0  0  0
 51 52  1  0  0  0  0
 51 48  1  0  0  0  0
 52 54  1  0  0  0  0
 53 52  2  0  0  0  0
 55 56  2  0  0  0  0
 57 59  1  0  0  0  0
 59 58  1  0  0  0  0
 59 56  1  0  0  0  0
 60 61  1  0  0  0  0
 60 59  1  0  0  0  0
M  END
>  <MODEL>
6

>  <REMARK>
 VINA RESULT:      -2.7      3.439     10.368
  Name = 
  19 active torsions:
  status: ('A' for Active; 'I' for Inactive)
    1  A    between atoms: C_1  and  C_59
    2  A    between atoms: C_5  and  O_6
    3  A    between atoms: O_6  and  C_53
    4  A    between atoms: C_13  and  O_43
    5  A    between atoms: C_22  and  C_27
    6  A    between atoms: C_22  and  C_61
    7  A    between atoms: C_28  and  O_52
    8  A    between atoms: C_28  and  C_54
    9  A    between atoms: C_30  and  C_59
   10  A    between atoms: O_31  and  C_57
   11  A    between atoms: C_40  and  C_41
   12  A    between atoms: C_40  and  C_57
   13  A    between atoms: C_41  and  C_56
   14  A    between atoms: O_43  and  C_48
   15  A    between atoms: C_44  and  C_53
   16  A    between atoms: C_44  and  C_54
   17  A    between atoms: C_48  and  O_52
   18  A    between atoms: C_51  and  C_57
   19  A    between atoms: C_59  and  C_61
                            x       y       z     vdW  Elec       q    Type
                         _______ _______ _______ _____ _____    ______ ____

>  <TORSDO>
F 19

$$$$
=
 OpenBabel11052411593D

 61 65  0  0  1  0  0  0  0  0999 V2000
  161.1310  209.4720  156.4850 C   0  0  0  0  0  2  0  0  0  0  0  0
  160.0330  208.9610  152.7700 C   0  0  1  0  0  3  0  0  0  0  0  0
  160.5750  209.6740  155.0910 C   0  0  0  0  0  0  0  0  0  0  0  0
  161.6730  210.3610  149.9190 O   0  0  0  0  0  0  0  0  0  0  0  0
  160.8870  209.3240  150.4330 C   0  0  2  0  0  3  0  0  0  0  0  0
  159.9320  213.7440  150.6470 N   0  0  0  0  0  2  0  0  0  0  0  0
  159.6840  212.6130  152.7940 C   0  0  0  0  0  0  0  0  0  0  0  0
  161.2740  209.0520  151.8840 C   0  0  0  0  0  2  0  0  0  0  0  0
  160.8270  212.2280  155.4880 C   0  0  0  0  0  1  0  0  0  0  0  0
  160.5930  208.2410  157.1940 C   0  0  0  0  0  2  0  0  0  0  0  0
  160.4120  208.6540  154.1960 C   0  0  0  0  0  0  0  0  0  0  0  0
  159.7620  211.3000  153.4520 C   0  0  0  0  0  0  0  0  0  0  0  0
  159.4050  213.7910  153.4850 O   0  0  0  0  0  1  0  0  0  0  0  0
  160.4130  213.6180  149.3030 C   0  0  0  0  0  0  0  0  0  0  0  0
  161.4350  207.0160  156.8660 C   0  0  0  0  0  2  0  0  0  0  0  0
  159.3320  210.1940  152.7130 O   0  0  0  0  0  0  0  0  0  0  0  0
  160.8130  211.1370  149.1290 C   0  0  0  0  0  2  0  0  0  0  0  0
  160.3390  211.0840  154.6470 C   0  0  0  0  0  0  0  0  0  0  0  0
  159.9410  212.6040  151.4930 C   0  0  0  0  0  3  0  0  0  0  0  0
  160.0240  214.4530  148.4440 O   0  0  0  0  0  0  0  0  0  0  0  0
  160.5150  207.1930  154.5420 C   0  0  0  0  0  2  0  0  0  0  0  0
  161.4120  212.5290  148.9260 C   0  0  1  0  0  3  0  0  0  0  0  0
  161.7420  206.8700  155.3740 C   0  0  0  0  0  2  0  0  0  0  0  0
  161.0880  208.1610  149.6790 O   0  0  0  0  0  0  0  0  0  0  0  0
  162.4590  208.1470  149.3880 C   0  0  2  0  0  3  0  0  0  0  0  0
  162.7230  209.0390  148.3430 O   0  0  0  0  0  1  0  0  0  0  0  0
  162.8330  206.8590  149.0060 O   0  0  0  0  0  0  0  0  0  0  0  0
  162.6770  206.8380  147.6180 C   0  0  0  0  0  2  0  0  0  0  0  0
  160.8010  206.4820  146.1540 O   0  0  0  0  0  1  0  0  0  0  0  0
  161.5250  205.9270  147.2130 C   0  0  1  0  0  3  0  0  0  0  0  0
  163.1680  204.5620  146.1410 O   0  0  0  0  0  1  0  0  0  0  0  0
  161.9940  204.5080  146.8940 C   0  0  1  0  0  3  0  0  0  0  0  0
  162.2310  203.6820  148.1470 C   0  0  0  0  0  2  0  0  0  0  0  0
  161.0300  203.0850  148.5580 O   0  0  0  0  0  0  0  0  0  0  0  0
  160.8130  203.4510  149.8990 C   0  0  1  0  0  0  0  0  0  0  0  0
  160.9040  202.3780  150.9520 C   0  0  2  0  0  0  0  0  0  0  0  0
  161.5560  203.0130  152.1680 C   0  0  2  0  0  3  0  0  0  0  0  0
  160.8110  202.7300  153.3130 O   0  0  0  0  0  1  0  0  0  0  0  0
  161.3330  200.9990  150.4780 C   0  0  0  0  0  1  0  0  0  0  0  0
  161.3200  204.7720  150.4580 C   0  0  0  0  0  2  0  0  0  0  0  0
  159.5380  202.8860  150.5000 C   0  0  0  0  0  2  0  0  0  0  0  0
  161.6040  204.5240  151.9350 C   0  0  0  0  0  2  0  0  0  0  0  0
  161.9610  212.6720  147.4900 C   0  0  2  0  0  3  0  0  0  0  0  0
  164.1050  212.5580  148.2970 C   0  0  0  0  0  1  0  0  0  0  0  0
  163.2490  213.2500  147.4240 O   0  0  0  0  0  0  0  0  0  0  0  0
  160.9600  213.2940  146.5000 C   0  0  0  0  0  2  0  0  0  0  0  0
  160.1550  212.1960  145.8260 C   0  0  0  0  0  2  0  0  0  0  0  0
  159.5170  212.8930  143.5470 C   0  0  0  0  0  0  0  0  0  0  0  0
  158.3760  213.5060  144.0620 O   0  0  0  0  0  1  0  0  0  0  0  0
  160.3670  212.2540  144.3510 C   0  0  0  0  0  3  0  0  0  0  0  0
  159.8070  212.9510  142.0800 C   0  0  2  0  0  3  0  0  0  0  0  0
  158.5640  212.8000  141.2510 C   0  0  0  0  0  0  0  0  0  0  0  0
  157.6810  213.6450  141.2860 O   0  0  0  0  0  0  0  0  0  0  0  0
  158.4180  211.6130  140.3630 C   0  0  0  0  0  1  0  0  0  0  0  0
  160.6800  210.7760  141.7630 O   0  0  0  0  0  0  0  0  0  0  0  0
  160.8900  211.9820  141.6760 C   0  0  0  0  0  0  0  0  0  0  0  0
  162.5470  213.6630  141.7650 F   0  0  0  0  0  0  0  0  0  0  0  0
  163.1930  211.5170  141.4800 F   0  0  0  0  0  0  0  0  0  0  0  0
  162.2290  212.4580  141.1570 C   0  0  0  0  0  0  0  0  0  0  0  0
  162.2250  212.6580  139.6410 C   0  0  0  0  0  2  0  0  0  0  0  0
  162.7760  211.5450  138.9980 O   0  0  0  0  0  1  0  0  0  0  0  0
  1 10  1  0  0  0  0
  2  8  1  6  0  0  0
  2 11  1  0  0  0  0
  3  1  1  0  0  0  0
  4  5  1  0  0  0  0
  5 24  1  6  0  0  0
  5  8  1  0  0  0  0
  6 19  1  0  0  0  0
  7 12  1  0  0  0  0
  7 13  1  0  0  0  0
 11 21  1  0  0  0  0
 11  3  2  0  0  0  0
 12 18  2  0  0  0  0
 14  6  1  0  0  0  0
 15 10  1  0  0  0  0
 16  2  1  0  0  0  0
 16 12  1  0  0  0  0
 17  4  1  0  0  0  0
 18  3  1  0  0  0  0
 18  9  1  0  0  0  0
 19  7  2  0  0  0  0
 20 14  2  0  0  0  0
 21 23  1  0  0  0  0
 22 43  1  6  0  0  0
 22 17  1  0  0  0  0
 22 14  1  0  0  0  0
 23 15  1  0  0  0  0
 25 26  1  6  0  0  0
 25 24  1  0  0  0  0
 27 25  1  0  0  0  0
 28 27  1  0  0  0  0
 30 29  1  6  0  0  0
 30 28  1  0  0  0  0
 32 31  1  1  0  0  0
 32 30  1  0  0  0  0
 32 33  1  0  0  0  0
 33 34  1  0  0  0  0
 35 34  1  6  0  0  0
 35 40  1  0  0  0  0
 35 41  1  0  0  0  0
 35 36  1  0  0  0  0
 36 39  1  6  0  0  0
 36 37  1  0  0  0  0
 37 38  1  1  0  0  0
 40 42  1  0  0  0  0
 41 36  1  0  0  0  0
 42 37  1  0  0  0  0
 43 46  1  6  0  0  0
 45 43  1  0  0  0  0
 45 44  1  0  0  0  0
 47 46  1  0  0  0  0
 48 49  1  0  0  0  0
 48 50  2  0  0  0  0
 50 47  1  0  0  0  0
 51 52  1  6  0  0  0
 51 48  1  0  0  0  0
 52 53  2  0  0  0  0
 54 52  1  0  0  0  0
 56 55  2  0  0  0  0
 56 51  1  0  0  0  0
 59 58  1  0  0  0  0
 59 56  1  0  0  0  0
 59 57  1  0  0  0  0
 60 59  1  0  0  0  0
 61 60  1  0  0  0  0
M  END
>  <MODEL>
7

>  <REMARK>
 VINA RESULT:      -2.5      3.189     10.245
  Name = 
  19 active torsions:
  status: ('A' for Active; 'I' for Inactive)
    1  A    between atoms: C_1  and  C_59
    2  A    between atoms: C_5  and  O_6
    3  A    between atoms: O_6  and  C_53
    4  A    between atoms: C_13  and  O_43
    5  A    between atoms: C_22  and  C_27
    6  A    between atoms: C_22  and  C_61
    7  A    between atoms: C_28  and  O_52
    8  A    between atoms: C_28  and  C_54
    9  A    between atoms: C_30  and  C_59
   10  A    between atoms: O_31  and  C_57
   11  A    between atoms: C_40  and  C_41
   12  A    between atoms: C_40  and  C_57
   13  A    between atoms: C_41  and  C_56
   14  A    between atoms: O_43  and  C_48
   15  A    between atoms: C_44  and  C_53
   16  A    between atoms: C_44  and  C_54
   17  A    between atoms: C_48  and  O_52
   18  A    between atoms: C_51  and  C_57
   19  A    between atoms: C_59  and  C_61
                            x       y       z     vdW  Elec       q    Type
                         _______ _______ _______ _____ _____    ______ ____

>  <TORSDO>
F 19

$$$$
