=
 OpenBabel11052412133D

 41 42  0  0  1  0  0  0  0  0999 V2000
  160.9360  208.9870  153.5080 C   0  0  0  0  0  0  0  0  0  0  0  0
  159.8810  209.8190  153.1220 C   0  0  0  0  0  3  0  0  0  0  0  0
  160.6420  211.5120  154.6730 C   0  0  0  0  0  3  0  0  0  0  0  0
  161.6970  210.6800  155.0630 C   0  0  0  0  0  3  0  0  0  0  0  0
  159.7270  211.0890  153.6970 C   0  0  0  0  0  0  0  0  0  0  0  0
  161.8430  209.4180  154.4820 C   0  0  0  0  0  3  0  0  0  0  0  0
  158.6110  211.9630  153.2900 C   0  0  0  0  0  0  0  0  0  0  0  0
  157.4470  211.7470  153.7280 O   0  0  0  0  0  0  0  0  0  0  0  0
  158.6890  214.4350  153.0040 C   0  0  0  0  0  1  0  0  0  0  0  0
  158.8440  213.0860  152.3260 C   0  0  2  0  0  3  0  0  0  0  0  0
  157.9290  212.9780  151.2020 N   0  0  0  0  0  2  0  0  0  0  0  0
  157.3050  213.3490  148.8460 N   0  0  0  0  0  2  0  0  0  0  0  0
  156.7520  214.0490  146.7060 O   0  0  0  0  0  0  0  0  0  0  0  0
  157.6030  213.5020  147.4530 C   0  0  0  0  0  0  0  0  0  0  0  0
  159.3850  213.9980  149.6910 O   0  0  0  0  0  0  0  0  0  0  0  0
  158.2640  213.4580  149.9010 C   0  0  0  0  0  0  0  0  0  0  0  0
  158.7910  213.0260  146.8860 O   0  0  0  0  0  0  0  0  0  0  0  0
  159.6670  213.8370  146.1120 C   0  0  2  0  0  3  0  0  0  0  0  0
  159.9470  212.1740  143.9540 S   0  0  0  0  0  1  0  0  0  0  0  0
  159.2860  213.7170  144.6480 C   0  0  0  0  0  2  0  0  0  0  0  0
  161.1110  213.3890  146.2980 C   0  0  0  0  0  2  0  0  0  0  0  0
  161.2190  212.3260  147.3750 C   0  0  0  0  0  2  0  0  0  0  0  0
  162.5000  212.5070  148.1640 C   0  0  0  0  0  1  0  0  0  0  0  0
  161.0650  207.6270  152.9100 C   0  0  0  0  0  2  0  0  0  0  0  0
  162.0870  209.3030  149.6680 C   0  0  0  0  0  2  0  0  0  0  0  0
  162.3500  208.6360  151.0100 C   0  0  0  0  0  2  0  0  0  0  0  0
  161.1060  207.3310  148.4580 C   0  0  0  0  0  2  0  0  0  0  0  0
  161.3330  206.1960  149.4140 C   0  0  0  0  0  3  0  0  0  0  0  0
  161.3900  206.3450  150.7450 C   0  0  0  0  0  0  0  0  0  0  0  0
  162.2550  208.3300  148.5080 C   0  0  0  0  0  2  0  0  0  0  0  0
  161.2010  207.7040  151.3900 C   0  0  1  0  0  3  0  0  0  0  0  0
  161.5920  205.1080  151.5690 C   0  0  0  0  0  2  0  0  0  0  0  0
  160.3880  202.9590  151.3670 N   0  0  0  0  0  0  0  0  0  0  0  0
  160.3670  204.2510  151.5200 C   0  0  0  0  0  3  0  0  0  0  0  0
  162.3430  201.9320  152.1690 O   0  0  0  0  0  0  0  0  0  0  0  0
  161.5420  202.1180  151.2140 C   0  0  0  0  0  0  0  0  0  0  0  0
  161.8030  201.4820  149.9620 N   0  0  0  0  0  2  0  0  0  0  0  0
  159.1470  201.4560  149.0330 O   0  0  0  0  0  1  0  0  0  0  0  0
  161.1670  200.5330  147.3950 O   0  0  0  0  0  0  0  0  0  0  0  0
  160.9310  203.0650  147.9970 O   0  0  0  0  0  1  0  0  0  0  0  0
  160.7570  201.6770  148.5680 P   0  0  0  0  0  0  0  0  0  0  0  0
  1  6  1  0  0  0  0
  2  1  2  0  0  0  0
  2  5  1  0  0  0  0
  3  4  1  0  0  0  0
  5  3  2  0  0  0  0
  6  4  2  0  0  0  0
  7  5  1  0  0  0  0
  7  8  2  0  0  0  0
 10  9  1  1  0  0  0
 10  7  1  0  0  0  0
 11 10  1  0  0  0  0
 12 16  1  0  0  0  0
 13 14  2  0  0  0  0
 14 12  1  0  0  0  0
 15 16  2  0  0  0  0
 16 11  1  0  0  0  0
 17 14  1  0  0  0  0
 18 20  1  6  0  0  0
 18 21  1  0  0  0  0
 18 17  1  0  0  0  0
 19 20  1  0  0  0  0
 21 22  1  0  0  0  0
 22 23  1  0  0  0  0
 24  1  1  0  0  0  0
 25 26  1  0  0  0  0
 26 31  1  0  0  0  0
 27 30  1  0  0  0  0
 27 28  1  0  0  0  0
 28 29  2  0  0  0  0
 29 31  1  0  0  0  0
 29 32  1  0  0  0  0
 30 25  1  0  0  0  0
 31 24  1  1  0  0  0
 33 34  2  0  0  0  0
 34 32  1  0  0  0  0
 36 33  1  0  0  0  0
 36 35  2  0  0  0  0
 37 36  1  0  0  0  0
 39 41  2  0  0  0  0
 40 41  1  0  0  0  0
 41 38  1  0  0  0  0
 41 37  1  0  0  0  0
M  END
>  <MODEL>
1

>  <REMARK>
 VINA RESULT:      -6.3      0.000      0.000
  Name = 
  14 active torsions:
  status: ('A' for Active; 'I' for Inactive)
    1  A    between atoms: N_1  and  C_30
    2  A    between atoms: C_3  and  C_29
    3  A    between atoms: C_3  and  C_30
    4  A    between atoms: O_5  and  C_24
    5  A    between atoms: O_5  and  C_25
    6  A    between atoms: C_12  and  C_19
    7  A    between atoms: C_13  and  C_18
    8  A    between atoms: C_13  and  C_25
    9  A    between atoms: C_19  and  C_36
   10  A    between atoms: C_22  and  C_32
   11  A    between atoms: C_23  and  C_25
   12  A    between atoms: C_26  and  N_27
   13  A    between atoms: C_31  and  C_32
   14  A    between atoms: N_34  and  P_40
                            x       y       z     vdW  Elec       q    Type
                         _______ _______ _______ _____ _____    ______ ____

>  <TORSDO>
F 14

$$$$
=
 OpenBabel11052412133D

 41 42  0  0  1  0  0  0  0  0999 V2000
  160.8510  207.0880  153.9580 C   0  0  0  0  0  0  0  0  0  0  0  0
  160.8350  208.3510  153.3580 C   0  0  0  0  0  3  0  0  0  0  0  0
  160.0810  209.3340  155.4350 C   0  0  0  0  0  3  0  0  0  0  0  0
  160.0940  208.0710  156.0370 C   0  0  0  0  0  3  0  0  0  0  0  0
  160.4540  209.4840  154.0910 C   0  0  0  0  0  0  0  0  0  0  0  0
  160.4770  206.9490  155.2980 C   0  0  0  0  0  3  0  0  0  0  0  0
  160.4340  210.8150  153.4550 C   0  0  0  0  0  0  0  0  0  0  0  0
  161.4070  211.1900  152.7440 O   0  0  0  0  0  0  0  0  0  0  0  0
  158.4040  211.2610  154.8270 C   0  0  0  0  0  1  0  0  0  0  0  0
  159.2800  211.7420  153.6830 C   0  0  2  0  0  3  0  0  0  0  0  0
  158.4940  211.8720  152.4670 N   0  0  0  0  0  2  0  0  0  0  0  0
  157.8970  213.0010  150.3590 N   0  0  0  0  0  2  0  0  0  0  0  0
  157.2560  214.3480  148.5830 O   0  0  0  0  0  0  0  0  0  0  0  0
  158.1980  213.7850  149.1980 C   0  0  0  0  0  0  0  0  0  0  0  0
  159.6380  213.7630  151.7190 O   0  0  0  0  0  0  0  0  0  0  0  0
  158.7260  212.9130  151.5190 C   0  0  0  0  0  0  0  0  0  0  0  0
  159.4990  213.9120  148.6980 O   0  0  0  0  0  0  0  0  0  0  0  0
  160.0420  213.0520  147.7020 C   0  0  2  0  0  3  0  0  0  0  0  0
  161.9790  211.6110  148.9950 S   0  0  0  0  0  1  0  0  0  0  0  0
  161.5470  212.9790  147.8810 C   0  0  0  0  0  2  0  0  0  0  0  0
  159.7210  213.5800  146.3110 C   0  0  0  0  0  2  0  0  0  0  0  0
  159.1000  212.5000  145.4460 C   0  0  0  0  0  2  0  0  0  0  0  0
  159.0970  212.9290  143.9920 C   0  0  0  0  0  1  0  0  0  0  0  0
  161.2270  205.8910  153.1530 C   0  0  0  0  0  2  0  0  0  0  0  0
  162.3920  207.6750  150.0190 C   0  0  0  0  0  2  0  0  0  0  0  0
  162.5490  206.7190  151.1920 C   0  0  0  0  0  2  0  0  0  0  0  0
  160.5960  206.4370  148.7700 C   0  0  0  0  0  2  0  0  0  0  0  0
  160.4960  205.1370  149.5140 C   0  0  0  0  0  3  0  0  0  0  0  0
  160.7710  205.0050  150.8200 C   0  0  0  0  0  0  0  0  0  0  0  0
  162.0330  206.9400  148.7330 C   0  0  0  0  0  2  0  0  0  0  0  0
  161.1910  206.1970  151.6560 C   0  0  1  0  0  3  0  0  0  0  0  0
  160.5930  203.6450  151.4280 C   0  0  0  0  0  2  0  0  0  0  0  0
  161.1810  201.7410  149.9650 N   0  0  0  0  0  0  0  0  0  0  0  0
  161.5400  202.6720  150.8000 C   0  0  0  0  0  3  0  0  0  0  0  0
  158.9000  201.2860  150.2980 O   0  0  0  0  0  0  0  0  0  0  0  0
  159.8540  201.4580  149.4930 C   0  0  0  0  0  0  0  0  0  0  0  0
  159.6000  201.3590  148.0910 N   0  0  0  0  0  2  0  0  0  0  0  0
  161.5930  203.0800  147.1020 O   0  0  0  0  0  1  0  0  0  0  0  0
  160.1710  201.4980  145.3440 O   0  0  0  0  0  0  0  0  0  0  0  0
  161.8870  200.4820  147.0320 O   0  0  0  0  0  1  0  0  0  0  0  0
  160.8550  201.5750  146.8870 P   0  0  0  0  0  0  0  0  0  0  0  0
  1  6  1  0  0  0  0
  2  1  2  0  0  0  0
  2  5  1  0  0  0  0
  3  4  1  0  0  0  0
  5  3  2  0  0  0  0
  6  4  2  0  0  0  0
  7 10  1  0  0  0  0
  7  5  1  0  0  0  0
  8  7  2  0  0  0  0
 10  9  1  1  0  0  0
 11 10  1  0  0  0  0
 12 16  1  0  0  0  0
 13 14  2  0  0  0  0
 14 12  1  0  0  0  0
 16 15  2  0  0  0  0
 16 11  1  0  0  0  0
 17 14  1  0  0  0  0
 18 21  1  6  0  0  0
 18 20  1  0  0  0  0
 18 17  1  0  0  0  0
 20 19  1  0  0  0  0
 22 21  1  0  0  0  0
 23 22  1  0  0  0  0
 24  1  1  0  0  0  0
 25 26  1  0  0  0  0
 26 31  1  0  0  0  0
 27 28  1  0  0  0  0
 28 29  2  0  0  0  0
 29 32  1  0  0  0  0
 29 31  1  0  0  0  0
 30 27  1  0  0  0  0
 30 25  1  0  0  0  0
 31 24  1  1  0  0  0
 33 34  2  0  0  0  0
 34 32  1  0  0  0  0
 36 33  1  0  0  0  0
 36 35  2  0  0  0  0
 37 36  1  0  0  0  0
 39 41  2  0  0  0  0
 41 40  1  0  0  0  0
 41 38  1  0  0  0  0
 41 37  1  0  0  0  0
M  END
>  <MODEL>
2

>  <REMARK>
 VINA RESULT:      -6.0      1.802      2.607
  Name = 
  14 active torsions:
  status: ('A' for Active; 'I' for Inactive)
    1  A    between atoms: N_1  and  C_30
    2  A    between atoms: C_3  and  C_29
    3  A    between atoms: C_3  and  C_30
    4  A    between atoms: O_5  and  C_24
    5  A    between atoms: O_5  and  C_25
    6  A    between atoms: C_12  and  C_19
    7  A    between atoms: C_13  and  C_18
    8  A    between atoms: C_13  and  C_25
    9  A    between atoms: C_19  and  C_36
   10  A    between atoms: C_22  and  C_32
   11  A    between atoms: C_23  and  C_25
   12  A    between atoms: C_26  and  N_27
   13  A    between atoms: C_31  and  C_32
   14  A    between atoms: N_34  and  P_40
                            x       y       z     vdW  Elec       q    Type
                         _______ _______ _______ _____ _____    ______ ____

>  <TORSDO>
F 14

$$$$
=
 OpenBabel11052412133D

 41 42  0  0  1  0  0  0  0  0999 V2000
  160.8240  208.3250  154.3700 C   0  0  0  0  0  0  0  0  0  0  0  0
  159.9080  209.3630  154.1760 C   0  0  0  0  0  3  0  0  0  0  0  0
  160.0850  209.9630  156.5130 C   0  0  0  0  0  3  0  0  0  0  0  0
  161.0000  208.9240  156.7100 C   0  0  0  0  0  3  0  0  0  0  0  0
  159.5340  210.1930  155.2430 C   0  0  0  0  0  0  0  0  0  0  0  0
  161.3680  208.1040  155.6400 C   0  0  0  0  0  3  0  0  0  0  0  0
  158.5640  211.2850  155.0370 C   0  0  0  0  0  0  0  0  0  0  0  0
  157.3760  211.1610  155.4460 O   0  0  0  0  0  0  0  0  0  0  0  0
  158.9750  213.7330  155.2300 C   0  0  0  0  0  1  0  0  0  0  0  0
  158.9710  212.5270  154.3060 C   0  0  2  0  0  3  0  0  0  0  0  0
  158.0820  212.7600  153.1790 N   0  0  0  0  0  2  0  0  0  0  0  0
  157.6280  213.4650  150.8620 N   0  0  0  0  0  2  0  0  0  0  0  0
  157.3260  214.4500  148.7840 O   0  0  0  0  0  0  0  0  0  0  0  0
  157.9820  213.6370  149.4840 C   0  0  0  0  0  0  0  0  0  0  0  0
  159.7890  213.4560  151.7500 O   0  0  0  0  0  0  0  0  0  0  0  0
  158.5590  213.2280  151.9190 C   0  0  0  0  0  0  0  0  0  0  0  0
  159.0070  212.9000  148.8780 O   0  0  0  0  0  0  0  0  0  0  0  0
  159.8410  213.4200  147.8490 C   0  0  2  0  0  3  0  0  0  0  0  0
  158.2750  212.6650  145.7330 S   0  0  0  0  0  1  0  0  0  0  0  0
  159.8200  212.4680  146.6680 C   0  0  0  0  0  2  0  0  0  0  0  0
  161.2700  213.5760  148.3510 C   0  0  0  0  0  2  0  0  0  0  0  0
  162.2710  213.3050  147.2440 C   0  0  0  0  0  2  0  0  0  0  0  0
  163.5320  212.6900  147.8160 C   0  0  0  0  0  1  0  0  0  0  0  0
  161.1850  207.4320  153.2320 C   0  0  0  0  0  2  0  0  0  0  0  0
  162.0410  210.5100  151.1930 C   0  0  0  0  0  2  0  0  0  0  0  0
  162.3670  209.3170  152.0800 C   0  0  0  0  0  2  0  0  0  0  0  0
  161.2540  209.2580  149.1610 C   0  0  0  0  0  2  0  0  0  0  0  0
  161.5890  207.8320  149.4870 C   0  0  0  0  0  3  0  0  0  0  0  0
  161.6310  207.3440  150.7360 C   0  0  0  0  0  0  0  0  0  0  0  0
  162.3020  210.2110  149.7220 C   0  0  0  0  0  2  0  0  0  0  0  0
  161.3130  208.2220  151.9300 C   0  0  1  0  0  3  0  0  0  0  0  0
  161.9510  205.8880  150.8980 C   0  0  0  0  0  2  0  0  0  0  0  0
  160.3910  204.3480  149.7560 N   0  0  0  0  0  0  0  0  0  0  0  0
  160.7020  205.0720  150.7910 C   0  0  0  0  0  3  0  0  0  0  0  0
  161.5450  205.1890  147.8900 O   0  0  0  0  0  0  0  0  0  0  0  0
  161.1470  204.1880  148.5440 C   0  0  0  0  0  0  0  0  0  0  0  0
  161.4510  202.8800  148.0590 N   0  0  0  0  0  2  0  0  0  0  0  0
  161.5720  201.4130  150.4560 O   0  0  0  0  0  1  0  0  0  0  0  0
  161.5030  200.0710  148.0450 O   0  0  0  0  0  0  0  0  0  0  0  0
  159.4320  201.3810  148.9520 O   0  0  0  0  0  1  0  0  0  0  0  0
  160.9410  201.4230  148.8880 P   0  0  0  0  0  0  0  0  0  0  0  0
  1  6  1  0  0  0  0
  2  1  2  0  0  0  0
  2  5  1  0  0  0  0
  3  4  1  0  0  0  0
  5  3  2  0  0  0  0
  6  4  2  0  0  0  0
  7  5  1  0  0  0  0
  7  8  2  0  0  0  0
 10  7  1  0  0  0  0
 10  9  1  1  0  0  0
 11 10  1  0  0  0  0
 12 16  1  0  0  0  0
 13 14  2  0  0  0  0
 14 12  1  0  0  0  0
 15 16  2  0  0  0  0
 16 11  1  0  0  0  0
 17 14  1  0  0  0  0
 18 20  1  6  0  0  0
 18 21  1  0  0  0  0
 18 17  1  0  0  0  0
 19 20  1  0  0  0  0
 22 23  1  0  0  0  0
 22 21  1  0  0  0  0
 24  1  1  0  0  0  0
 25 26  1  0  0  0  0
 27 28  1  0  0  0  0
 27 30  1  0  0  0  0
 28 29  2  0  0  0  0
 29 32  1  0  0  0  0
 29 31  1  0  0  0  0
 30 25  1  0  0  0  0
 31 26  1  0  0  0  0
 31 24  1  1  0  0  0
 33 34  2  0  0  0  0
 34 32  1  0  0  0  0
 35 36  2  0  0  0  0
 36 33  1  0  0  0  0
 37 36  1  0  0  0  0
 37 41  1  0  0  0  0
 39 41  2  0  0  0  0
 41 40  1  0  0  0  0
 41 38  1  0  0  0  0
M  END
>  <MODEL>
3

>  <REMARK>
 VINA RESULT:      -5.8      1.603      2.090
  Name = 
  14 active torsions:
  status: ('A' for Active; 'I' for Inactive)
    1  A    between atoms: N_1  and  C_30
    2  A    between atoms: C_3  and  C_29
    3  A    between atoms: C_3  and  C_30
    4  A    between atoms: O_5  and  C_24
    5  A    between atoms: O_5  and  C_25
    6  A    between atoms: C_12  and  C_19
    7  A    between atoms: C_13  and  C_18
    8  A    between atoms: C_13  and  C_25
    9  A    between atoms: C_19  and  C_36
   10  A    between atoms: C_22  and  C_32
   11  A    between atoms: C_23  and  C_25
   12  A    between atoms: C_26  and  N_27
   13  A    between atoms: C_31  and  C_32
   14  A    between atoms: N_34  and  P_40
                            x       y       z     vdW  Elec       q    Type
                         _______ _______ _______ _____ _____    ______ ____

>  <TORSDO>
F 14

$$$$
=
 OpenBabel11052412133D

 41 42  0  0  1  0  0  0  0  0999 V2000
  160.6980  210.1600  152.0830 C   0  0  0  0  0  0  0  0  0  0  0  0
  160.9620  208.8420  152.4670 C   0  0  0  0  0  3  0  0  0  0  0  0
  162.2840  208.5200  150.4660 C   0  0  0  0  0  3  0  0  0  0  0  0
  162.0190  209.8370  150.0800 C   0  0  0  0  0  3  0  0  0  0  0  0
  161.7600  208.0120  151.6650 C   0  0  0  0  0  0  0  0  0  0  0  0
  161.2250  210.6560  150.8860 C   0  0  0  0  0  3  0  0  0  0  0  0
  162.0330  206.6200  152.0690 C   0  0  0  0  0  0  0  0  0  0  0  0
  163.1620  206.1060  151.8390 O   0  0  0  0  0  0  0  0  0  0  0  0
  161.0180  205.9150  154.2310 C   0  0  0  0  0  1  0  0  0  0  0  0
  160.9610  205.7980  152.7170 C   0  0  2  0  0  3  0  0  0  0  0  0
  161.0840  204.4070  152.3140 N   0  0  0  0  0  2  0  0  0  0  0  0
  160.8740  202.5790  150.6740 N   0  0  0  0  0  2  0  0  0  0  0  0
  160.3240  200.9390  149.1300 O   0  0  0  0  0  0  0  0  0  0  0  0
  160.8780  202.0470  149.3430 C   0  0  0  0  0  0  0  0  0  0  0  0
  160.3500  204.7910  150.1330 O   0  0  0  0  0  0  0  0  0  0  0  0
  160.7590  203.9670  150.9960 C   0  0  0  0  0  0  0  0  0  0  0  0
  161.5140  202.6990  148.2800 O   0  0  0  0  0  0  0  0  0  0  0  0
  160.9340  202.8350  146.9880 C   0  0  2  0  0  3  0  0  0  0  0  0
  159.8350  201.4990  144.8660 S   0  0  0  0  0  1  0  0  0  0  0  0
  160.9630  201.4890  146.2900 C   0  0  0  0  0  2  0  0  0  0  0  0
  161.7100  203.8520  146.1620 C   0  0  0  0  0  2  0  0  0  0  0  0
  161.0500  205.2160  146.2120 C   0  0  0  0  0  2  0  0  0  0  0  0
  162.0640  206.2760  146.5950 C   0  0  0  0  0  1  0  0  0  0  0  0
  159.8210  211.0170  152.9310 C   0  0  0  0  0  2  0  0  0  0  0  0
  162.2810  210.2140  155.7000 C   0  0  0  0  0  2  0  0  0  0  0  0
  161.8510  210.8620  154.3930 C   0  0  0  0  0  2  0  0  0  0  0  0
  160.7890  211.5010  157.2610 C   0  0  0  0  0  2  0  0  0  0  0  0
  160.1940  212.5560  156.3720 C   0  0  0  0  0  3  0  0  0  0  0  0
  159.9920  212.3930  155.0560 C   0  0  0  0  0  0  0  0  0  0  0  0
  162.2280  211.1970  156.8640 C   0  0  0  0  0  2  0  0  0  0  0  0
  160.3410  211.0880  154.3670 C   0  0  1  0  0  3  0  0  0  0  0  0
  159.3580  213.5280  154.3100 C   0  0  0  0  0  2  0  0  0  0  0  0
  157.0990  214.2420  155.0140 N   0  0  0  0  0  0  0  0  0  0  0  0
  158.3880  214.2470  155.1930 C   0  0  0  0  0  3  0  0  0  0  0  0
  156.2760  214.0780  152.8190 O   0  0  0  0  0  0  0  0  0  0  0  0
  156.3660  213.5780  153.9720 C   0  0  0  0  0  0  0  0  0  0  0  0
  155.7160  212.3340  154.2370 N   0  0  0  0  0  2  0  0  0  0  0  0
  154.8370  210.1480  155.7740 O   0  0  0  0  0  0  0  0  0  0  0  0
  155.1660  212.6090  156.9790 O   0  0  0  0  0  1  0  0  0  0  0  0
  157.2030  211.2010  156.1430 O   0  0  0  0  0  1  0  0  0  0  0  0
  155.7730  211.5550  155.8060 P   0  0  0  0  0  0  0  0  0  0  0  0
  1  2  1  0  0  0  0
  1 24  1  0  0  0  0
  3  5  1  0  0  0  0
  4  3  2  0  0  0  0
  4  6  1  0  0  0  0
  5  7  1  0  0  0  0
  5  2  2  0  0  0  0
  6  1  2  0  0  0  0
  7 10  1  0  0  0  0
  8  7  2  0  0  0  0
 10  9  1  1  0  0  0
 11 10  1  0  0  0  0
 12 16  1  0  0  0  0
 13 14  2  0  0  0  0
 14 12  1  0  0  0  0
 15 16  2  0  0  0  0
 16 11  1  0  0  0  0
 17 14  1  0  0  0  0
 18 21  1  6  0  0  0
 18 17  1  0  0  0  0
 19 20  1  0  0  0  0
 20 18  1  0  0  0  0
 21 22  1  0  0  0  0
 22 23  1  0  0  0  0
 25 30  1  0  0  0  0
 26 25  1  0  0  0  0
 28 27  1  0  0  0  0
 29 28  2  0  0  0  0
 30 27  1  0  0  0  0
 31 24  1  6  0  0  0
 31 26  1  0  0  0  0
 31 29  1  0  0  0  0
 32 29  1  0  0  0  0
 32 34  1  0  0  0  0
 33 34  2  0  0  0  0
 35 36  2  0  0  0  0
 36 37  1  0  0  0  0
 36 33  1  0  0  0  0
 37 41  1  0  0  0  0
 38 41  2  0  0  0  0
 41 40  1  0  0  0  0
 41 39  1  0  0  0  0
M  END
>  <MODEL>
4

>  <REMARK>
 VINA RESULT:      -5.7      4.138      9.614
  Name = 
  14 active torsions:
  status: ('A' for Active; 'I' for Inactive)
    1  A    between atoms: N_1  and  C_30
    2  A    between atoms: C_3  and  C_29
    3  A    between atoms: C_3  and  C_30
    4  A    between atoms: O_5  and  C_24
    5  A    between atoms: O_5  and  C_25
    6  A    between atoms: C_12  and  C_19
    7  A    between atoms: C_13  and  C_18
    8  A    between atoms: C_13  and  C_25
    9  A    between atoms: C_19  and  C_36
   10  A    between atoms: C_22  and  C_32
   11  A    between atoms: C_23  and  C_25
   12  A    between atoms: C_26  and  N_27
   13  A    between atoms: C_31  and  C_32
   14  A    between atoms: N_34  and  P_40
                            x       y       z     vdW  Elec       q    Type
                         _______ _______ _______ _____ _____    ______ ____

>  <TORSDO>
F 14

$$$$
=
 OpenBabel11052412133D

 41 42  0  0  1  0  0  0  0  0999 V2000
  161.0920  210.5910  153.5320 C   0  0  0  0  0  0  0  0  0  0  0  0
  159.7300  210.9040  153.5650 C   0  0  0  0  0  3  0  0  0  0  0  0
  159.9510  211.6400  155.8590 C   0  0  0  0  0  3  0  0  0  0  0  0
  161.3130  211.3260  155.8280 C   0  0  0  0  0  3  0  0  0  0  0  0
  159.1490  211.4350  154.7260 C   0  0  0  0  0  0  0  0  0  0  0  0
  161.8830  210.7990  154.6670 C   0  0  0  0  0  3  0  0  0  0  0  0
  157.7110  211.7600  154.7600 C   0  0  0  0  0  0  0  0  0  0  0  0
  156.8690  210.8730  155.0710 O   0  0  0  0  0  0  0  0  0  0  0  0
  156.1100  213.5910  155.2930 C   0  0  0  0  0  1  0  0  0  0  0  0
  157.2380  213.1320  154.3860 C   0  0  2  0  0  3  0  0  0  0  0  0
  156.8090  213.1530  152.9970 N   0  0  0  0  0  2  0  0  0  0  0  0
  157.1640  213.6290  150.6050 N   0  0  0  0  0  2  0  0  0  0  0  0
  157.5380  214.4200  148.4580 O   0  0  0  0  0  0  0  0  0  0  0  0
  157.9800  213.7640  149.4350 C   0  0  0  0  0  0  0  0  0  0  0  0
  158.8280  214.0070  152.2010 O   0  0  0  0  0  0  0  0  0  0  0  0
  157.6590  213.6060  151.9450 C   0  0  0  0  0  0  0  0  0  0  0  0
  159.2350  213.1540  149.3250 O   0  0  0  0  0  0  0  0  0  0  0  0
  160.1010  213.3440  148.2120 C   0  0  2  0  0  3  0  0  0  0  0  0
  159.4820  213.6460  145.5610 S   0  0  0  0  0  1  0  0  0  0  0  0
  159.5550  212.5730  147.0250 C   0  0  0  0  0  2  0  0  0  0  0  0
  161.5030  212.8480  148.5380 C   0  0  0  0  0  2  0  0  0  0  0  0
  162.4770  213.1920  147.4280 C   0  0  0  0  0  2  0  0  0  0  0  0
  163.7730  212.4270  147.6100 C   0  0  0  0  0  1  0  0  0  0  0  0
  161.6870  209.9970  152.3000 C   0  0  0  0  0  2  0  0  0  0  0  0
  161.3180  206.6920  154.1180 C   0  0  0  0  0  2  0  0  0  0  0  0
  160.7980  207.9280  153.4000 C   0  0  0  0  0  2  0  0  0  0  0  0
  162.5080  205.6120  152.1860 C   0  0  0  0  0  2  0  0  0  0  0  0
  162.0960  206.4570  151.0160 C   0  0  0  0  0  3  0  0  0  0  0  0
  161.7830  207.7580  151.1100 C   0  0  0  0  0  0  0  0  0  0  0  0
  161.3750  205.4810  153.1950 C   0  0  0  0  0  2  0  0  0  0  0  0
  161.8480  208.4830  152.4400 C   0  0  1  0  0  3  0  0  0  0  0  0
  161.4210  208.4740  149.8440 C   0  0  0  0  0  2  0  0  0  0  0  0
  162.0540  207.0950  147.8920 N   0  0  0  0  0  0  0  0  0  0  0  0
  162.3300  208.0490  148.7340 C   0  0  0  0  0  3  0  0  0  0  0  0
  159.9020  206.5040  148.6270 O   0  0  0  0  0  0  0  0  0  0  0  0
  160.8720  206.2800  147.8540 C   0  0  0  0  0  0  0  0  0  0  0  0
  160.7840  205.1900  146.9360 N   0  0  0  0  0  2  0  0  0  0  0  0
  163.5410  204.7050  146.6610 O   0  0  0  0  0  1  0  0  0  0  0  0
  162.1780  205.9780  144.6270 O   0  0  0  0  0  0  0  0  0  0  0  0
  161.7890  203.4530  145.1760 O   0  0  0  0  0  1  0  0  0  0  0  0
  162.0760  204.7880  145.8220 P   0  0  0  0  0  0  0  0  0  0  0  0
  1  2  2  0  0  0  0
  1  6  1  0  0  0  0
  2  5  1  0  0  0  0
  4  3  1  0  0  0  0
  5  7  1  0  0  0  0
  5  3  2  0  0  0  0
  6  4  2  0  0  0  0
  7  8  2  0  0  0  0
 10  7  1  0  0  0  0
 10  9  1  1  0  0  0
 11 10  1  0  0  0  0
 12 16  1  0  0  0  0
 13 14  2  0  0  0  0
 14 12  1  0  0  0  0
 16 15  2  0  0  0  0
 16 11  1  0  0  0  0
 17 14  1  0  0  0  0
 18 20  1  6  0  0  0
 18 21  1  0  0  0  0
 18 17  1  0  0  0  0
 19 20  1  0  0  0  0
 22 23  1  0  0  0  0
 22 21  1  0  0  0  0
 24  1  1  0  0  0  0
 26 25  1  0  0  0  0
 27 30  1  0  0  0  0
 28 29  2  0  0  0  0
 28 27  1  0  0  0  0
 29 31  1  0  0  0  0
 30 25  1  0  0  0  0
 31 24  1  6  0  0  0
 31 26  1  0  0  0  0
 32 29  1  0  0  0  0
 33 34  2  0  0  0  0
 34 32  1  0  0  0  0
 36 33  1  0  0  0  0
 36 35  2  0  0  0  0
 37 36  1  0  0  0  0
 39 41  2  0  0  0  0
 40 41  1  0  0  0  0
 41 38  1  0  0  0  0
 41 37  1  0  0  0  0
M  END
>  <MODEL>
5

>  <REMARK>
 VINA RESULT:      -5.6      2.425      3.354
  Name = 
  14 active torsions:
  status: ('A' for Active; 'I' for Inactive)
    1  A    between atoms: N_1  and  C_30
    2  A    between atoms: C_3  and  C_29
    3  A    between atoms: C_3  and  C_30
    4  A    between atoms: O_5  and  C_24
    5  A    between atoms: O_5  and  C_25
    6  A    between atoms: C_12  and  C_19
    7  A    between atoms: C_13  and  C_18
    8  A    between atoms: C_13  and  C_25
    9  A    between atoms: C_19  and  C_36
   10  A    between atoms: C_22  and  C_32
   11  A    between atoms: C_23  and  C_25
   12  A    between atoms: C_26  and  N_27
   13  A    between atoms: C_31  and  C_32
   14  A    between atoms: N_34  and  P_40
                            x       y       z     vdW  Elec       q    Type
                         _______ _______ _______ _____ _____    ______ ____

>  <TORSDO>
F 14

$$$$
=
 OpenBabel11052412133D

 41 42  0  0  1  0  0  0  0  0999 V2000
  160.2610  210.2520  153.2770 C   0  0  0  0  0  0  0  0  0  0  0  0
  160.7560  209.3460  152.3350 C   0  0  0  0  0  3  0  0  0  0  0  0
  161.0770  207.7000  154.0780 C   0  0  0  0  0  3  0  0  0  0  0  0
  160.5840  208.6060  155.0230 C   0  0  0  0  0  3  0  0  0  0  0  0
  161.1650  208.0620  152.7250 C   0  0  0  0  0  0  0  0  0  0  0  0
  160.1780  209.8810  154.6230 C   0  0  0  0  0  3  0  0  0  0  0  0
  161.6910  207.1100  151.7300 C   0  0  0  0  0  0  0  0  0  0  0  0
  161.8020  205.8870  152.0230 O   0  0  0  0  0  0  0  0  0  0  0  0
  162.2950  209.1040  150.3670 C   0  0  0  0  0  1  0  0  0  0  0  0
  162.1340  207.5940  150.3840 C   0  0  2  0  0  3  0  0  0  0  0  0
  161.1850  207.1770  149.3640 N   0  0  0  0  0  2  0  0  0  0  0  0
  160.6200  206.2690  147.1440 N   0  0  0  0  0  2  0  0  0  0  0  0
  160.2640  205.7010  144.9240 O   0  0  0  0  0  0  0  0  0  0  0  0
  160.8670  205.4450  145.9980 C   0  0  0  0  0  0  0  0  0  0  0  0
  162.8330  206.4930  147.8610 O   0  0  0  0  0  0  0  0  0  0  0  0
  161.6040  206.6300  148.1150 C   0  0  0  0  0  0  0  0  0  0  0  0
  161.7250  204.3400  146.0420 O   0  0  0  0  0  0  0  0  0  0  0  0
  161.2850  203.0210  146.3470 C   0  0  2  0  0  3  0  0  0  0  0  0
  160.5010  200.6770  145.1680 S   0  0  0  0  0  1  0  0  0  0  0  0
  160.4660  202.4930  145.1850 C   0  0  0  0  0  2  0  0  0  0  0  0
  160.4330  203.0230  147.6090 C   0  0  0  0  0  2  0  0  0  0  0  0
  161.0580  202.1660  148.6930 C   0  0  0  0  0  2  0  0  0  0  0  0
  159.9900  201.3570  149.4030 C   0  0  0  0  0  1  0  0  0  0  0  0
  159.8620  211.6230  152.8490 C   0  0  0  0  0  2  0  0  0  0  0  0
  157.5770  212.1090  155.8330 C   0  0  0  0  0  2  0  0  0  0  0  0
  158.8130  212.3900  154.9910 C   0  0  0  0  0  2  0  0  0  0  0  0
  155.8360  212.9610  154.2330 C   0  0  0  0  0  2  0  0  0  0  0  0
  156.6530  213.6120  153.1540 C   0  0  0  0  0  3  0  0  0  0  0  0
  157.8930  213.2240  152.8230 C   0  0  0  0  0  0  0  0  0  0  0  0
  156.4840  213.1450  155.5990 C   0  0  0  0  0  2  0  0  0  0  0  0
  158.5600  212.0550  153.5230 C   0  0  1  0  0  3  0  0  0  0  0  0
  158.5690  213.9540  151.7010 C   0  0  0  0  0  2  0  0  0  0  0  0
  158.2750  213.5510  149.2800 N   0  0  0  0  0  0  0  0  0  0  0  0
  157.7650  213.8250  150.4460 C   0  0  0  0  0  3  0  0  0  0  0  0
  160.5430  213.3480  149.8620 O   0  0  0  0  0  0  0  0  0  0  0  0
  159.6590  213.3290  148.9640 C   0  0  0  0  0  0  0  0  0  0  0  0
  160.0540  213.0900  147.6120 N   0  0  0  0  0  2  0  0  0  0  0  0
  157.4380  212.4120  146.8290 O   0  0  0  0  0  1  0  0  0  0  0  0
  159.5180  212.0770  145.0470 O   0  0  0  0  0  0  0  0  0  0  0  0
  158.6880  214.4490  145.7650 O   0  0  0  0  0  1  0  0  0  0  0  0
  158.9070  213.0480  146.2870 P   0  0  0  0  0  0  0  0  0  0  0  0
  1  6  1  0  0  0  0
  2  5  1  0  0  0  0
  2  1  2  0  0  0  0
  3  4  1  0  0  0  0
  5  3  2  0  0  0  0
  6  4  2  0  0  0  0
  7  8  2  0  0  0  0
  7  5  1  0  0  0  0
 10  9  1  1  0  0  0
 10  7  1  0  0  0  0
 11 10  1  0  0  0  0
 12 16  1  0  0  0  0
 13 14  2  0  0  0  0
 14 17  1  0  0  0  0
 14 12  1  0  0  0  0
 15 16  2  0  0  0  0
 16 11  1  0  0  0  0
 17 18  1  0  0  0  0
 18 20  1  6  0  0  0
 18 21  1  0  0  0  0
 19 20  1  0  0  0  0
 21 22  1  0  0  0  0
 22 23  1  0  0  0  0
 24  1  1  0  0  0  0
 26 25  1  0  0  0  0
 27 30  1  0  0  0  0
 28 27  1  0  0  0  0
 29 28  2  0  0  0  0
 29 31  1  0  0  0  0
 30 25  1  0  0  0  0
 31 24  1  6  0  0  0
 31 26  1  0  0  0  0
 32 29  1  0  0  0  0
 33 34  2  0  0  0  0
 34 32  1  0  0  0  0
 36 33  1  0  0  0  0
 36 35  2  0  0  0  0
 37 36  1  0  0  0  0
 39 41  2  0  0  0  0
 40 41  1  0  0  0  0
 41 38  1  0  0  0  0
 41 37  1  0  0  0  0
M  END
>  <MODEL>
6

>  <REMARK>
 VINA RESULT:      -5.0      3.642      8.871
  Name = 
  14 active torsions:
  status: ('A' for Active; 'I' for Inactive)
    1  A    between atoms: N_1  and  C_30
    2  A    between atoms: C_3  and  C_29
    3  A    between atoms: C_3  and  C_30
    4  A    between atoms: O_5  and  C_24
    5  A    between atoms: O_5  and  C_25
    6  A    between atoms: C_12  and  C_19
    7  A    between atoms: C_13  and  C_18
    8  A    between atoms: C_13  and  C_25
    9  A    between atoms: C_19  and  C_36
   10  A    between atoms: C_22  and  C_32
   11  A    between atoms: C_23  and  C_25
   12  A    between atoms: C_26  and  N_27
   13  A    between atoms: C_31  and  C_32
   14  A    between atoms: N_34  and  P_40
                            x       y       z     vdW  Elec       q    Type
                         _______ _______ _______ _____ _____    ______ ____

>  <TORSDO>
F 14

$$$$
=
 OpenBabel11052412133D

 41 42  0  0  1  0  0  0  0  0999 V2000
  161.8320  210.4260  150.3420 C   0  0  0  0  0  0  0  0  0  0  0  0
  161.9490  210.8980  149.0310 C   0  0  0  0  0  3  0  0  0  0  0  0
  160.8370  212.9500  149.6660 C   0  0  0  0  0  3  0  0  0  0  0  0
  160.7170  212.4790  150.9770 C   0  0  0  0  0  3  0  0  0  0  0  0
  161.4570  212.1640  148.6830 C   0  0  0  0  0  0  0  0  0  0  0  0
  161.2120  211.2170  151.3150 C   0  0  0  0  0  3  0  0  0  0  0  0
  161.5770  212.6570  147.2980 C   0  0  0  0  0  0  0  0  0  0  0  0
  162.7130  212.7460  146.7560 O   0  0  0  0  0  0  0  0  0  0  0  0
  159.1300  213.0940  147.4370 C   0  0  0  0  0  1  0  0  0  0  0  0
  160.3590  213.0940  146.5440 C   0  0  2  0  0  3  0  0  0  0  0  0
  160.1460  212.2320  145.3940 N   0  0  0  0  0  2  0  0  0  0  0  0
  159.9420  211.8290  142.9710 N   0  0  0  0  0  2  0  0  0  0  0  0
  159.4710  211.6780  140.7050 O   0  0  0  0  0  0  0  0  0  0  0  0
  160.2470  212.1040  141.5980 C   0  0  0  0  0  0  0  0  0  0  0  0
  160.4210  213.9460  143.8360 O   0  0  0  0  0  0  0  0  0  0  0  0
  160.1900  212.7250  144.0560 C   0  0  0  0  0  0  0  0  0  0  0  0
  161.4020  212.7950  141.2130 O   0  0  0  0  0  0  0  0  0  0  0  0
  162.2210  212.4000  140.1190 C   0  0  2  0  0  3  0  0  0  0  0  0
  161.9620  209.8570  139.1350 S   0  0  0  0  0  1  0  0  0  0  0  0
  162.7060  210.9810  140.3530 C   0  0  0  0  0  2  0  0  0  0  0  0
  163.4200  213.3300  139.9880 C   0  0  0  0  0  2  0  0  0  0  0  0
  163.2910  214.2190  138.7660 C   0  0  0  0  0  2  0  0  0  0  0  0
  164.6090  214.2800  138.0200 C   0  0  0  0  0  1  0  0  0  0  0  0
  162.3310  209.0640  150.6870 C   0  0  0  0  0  2  0  0  0  0  0  0
  160.4120  209.5450  153.9200 C   0  0  0  0  0  2  0  0  0  0  0  0
  160.5400  209.3510  152.4160 C   0  0  0  0  0  2  0  0  0  0  0  0
  161.2970  207.3110  154.6590 C   0  0  0  0  0  2  0  0  0  0  0  0
  161.4210  206.5500  153.3710 C   0  0  0  0  0  3  0  0  0  0  0  0
  161.6580  207.1290  152.1840 C   0  0  0  0  0  0  0  0  0  0  0  0
  160.0880  208.2380  154.6340 C   0  0  0  0  0  2  0  0  0  0  0  0
  161.8400  208.6300  152.0680 C   0  0  1  0  0  3  0  0  0  0  0  0
  161.7870  206.2290  150.9920 C   0  0  0  0  0  2  0  0  0  0  0  0
  160.2170  205.3620  149.2900 N   0  0  0  0  0  0  0  0  0  0  0  0
  160.5230  206.2490  150.1920 C   0  0  0  0  0  3  0  0  0  0  0  0
  160.9840  203.1570  149.5530 O   0  0  0  0  0  0  0  0  0  0  0  0
  160.9980  204.2250  148.8860 C   0  0  0  0  0  0  0  0  0  0  0  0
  161.8130  204.2980  147.7150 N   0  0  0  0  0  2  0  0  0  0  0  0
  162.6170  206.9910  147.6030 O   0  0  0  0  0  1  0  0  0  0  0  0
  160.3530  206.1930  146.2410 O   0  0  0  0  0  1  0  0  0  0  0  0
  162.7450  205.4480  145.4940 O   0  0  0  0  0  0  0  0  0  0  0  0
  161.9090  205.7370  146.7200 P   0  0  0  0  0  0  0  0  0  0  0  0
  1 24  1  0  0  0  0
  1  6  1  0  0  0  0
  2  1  2  0  0  0  0
  3  4  1  0  0  0  0
  4  6  2  0  0  0  0
  5  2  1  0  0  0  0
  5  3  2  0  0  0  0
  7  5  1  0  0  0  0
  8  7  2  0  0  0  0
 10  7  1  0  0  0  0
 10  9  1  1  0  0  0
 11 10  1  0  0  0  0
 12 16  1  0  0  0  0
 13 14  2  0  0  0  0
 14 12  1  0  0  0  0
 15 16  2  0  0  0  0
 16 11  1  0  0  0  0
 17 14  1  0  0  0  0
 18 21  1  1  0  0  0
 18 20  1  0  0  0  0
 18 17  1  0  0  0  0
 19 20  1  0  0  0  0
 22 21  1  0  0  0  0
 23 22  1  0  0  0  0
 25 30  1  0  0  0  0
 26 25  1  0  0  0  0
 28 27  1  0  0  0  0
 29 28  2  0  0  0  0
 30 27  1  0  0  0  0
 31 24  1  6  0  0  0
 31 29  1  0  0  0  0
 31 26  1  0  0  0  0
 32 29  1  0  0  0  0
 33 34  2  0  0  0  0
 34 32  1  0  0  0  0
 36 33  1  0  0  0  0
 36 35  2  0  0  0  0
 37 36  1  0  0  0  0
 39 41  1  0  0  0  0
 40 41  2  0  0  0  0
 41 38  1  0  0  0  0
 41 37  1  0  0  0  0
M  END
>  <MODEL>
7

>  <REMARK>
 VINA RESULT:      -4.8      3.794      5.544
  Name = 
  14 active torsions:
  status: ('A' for Active; 'I' for Inactive)
    1  A    between atoms: N_1  and  C_30
    2  A    between atoms: C_3  and  C_29
    3  A    between atoms: C_3  and  C_30
    4  A    between atoms: O_5  and  C_24
    5  A    between atoms: O_5  and  C_25
    6  A    between atoms: C_12  and  C_19
    7  A    between atoms: C_13  and  C_18
    8  A    between atoms: C_13  and  C_25
    9  A    between atoms: C_19  and  C_36
   10  A    between atoms: C_22  and  C_32
   11  A    between atoms: C_23  and  C_25
   12  A    between atoms: C_26  and  N_27
   13  A    between atoms: C_31  and  C_32
   14  A    between atoms: N_34  and  P_40
                            x       y       z     vdW  Elec       q    Type
                         _______ _______ _______ _____ _____    ______ ____

>  <TORSDO>
F 14

$$$$
=
 OpenBabel11052412133D

 41 42  0  0  1  0  0  0  0  0999 V2000
  160.8220  206.8070  154.4340 C   0  0  0  0  0  0  0  0  0  0  0  0
  160.3800  208.0430  153.9520 C   0  0  0  0  0  3  0  0  0  0  0  0
  160.0700  208.8240  156.2200 C   0  0  0  0  0  3  0  0  0  0  0  0
  160.5110  207.5880  156.7050 C   0  0  0  0  0  3  0  0  0  0  0  0
  160.0040  209.0620  154.8390 C   0  0  0  0  0  0  0  0  0  0  0  0
  160.8850  206.5800  155.8130 C   0  0  0  0  0  3  0  0  0  0  0  0
  159.5330  210.3620  154.3270 C   0  0  0  0  0  0  0  0  0  0  0  0
  158.3120  210.5310  154.0590 O   0  0  0  0  0  0  0  0  0  0  0  0
  159.7900  212.7930  153.8550 C   0  0  0  0  0  1  0  0  0  0  0  0
  160.5070  211.4740  154.0830 C   0  0  2  0  0  3  0  0  0  0  0  0
  161.3540  211.1580  152.9440 N   0  0  0  0  0  2  0  0  0  0  0  0
  161.8260  211.0740  150.5270 N   0  0  0  0  0  2  0  0  0  0  0  0
  161.9810  210.7810  148.2320 O   0  0  0  0  0  0  0  0  0  0  0  0
  161.7070  211.5570  149.1820 C   0  0  0  0  0  0  0  0  0  0  0  0
  159.8420  211.9790  151.3680 O   0  0  0  0  0  0  0  0  0  0  0  0
  160.9580  211.4390  151.6020 C   0  0  0  0  0  0  0  0  0  0  0  0
  161.3360  212.8750  148.8910 O   0  0  0  0  0  0  0  0  0  0  0  0
  160.4820  213.2250  147.8080 C   0  0  2  0  0  3  0  0  0  0  0  0
  161.4710  213.4650  145.2660 S   0  0  0  0  0  1  0  0  0  0  0  0
  161.2070  214.2040  146.9040 C   0  0  0  0  0  2  0  0  0  0  0  0
  159.2020  213.8670  148.3270 C   0  0  0  0  0  2  0  0  0  0  0  0
  157.9870  213.0330  147.9670 C   0  0  0  0  0  2  0  0  0  0  0  0
  156.8930  213.2280  148.9980 C   0  0  0  0  0  1  0  0  0  0  0  0
  161.1860  205.7240  153.4770 C   0  0  0  0  0  2  0  0  0  0  0  0
  162.5740  207.8440  150.6580 C   0  0  0  0  0  2  0  0  0  0  0  0
  162.6240  206.7200  151.6820 C   0  0  0  0  0  2  0  0  0  0  0  0
  160.7290  206.9450  149.2090 C   0  0  0  0  0  2  0  0  0  0  0  0
  160.5090  205.5630  149.7540 C   0  0  0  0  0  3  0  0  0  0  0  0
  160.7340  205.2220  151.0310 C   0  0  0  0  0  0  0  0  0  0  0  0
  162.2000  207.3330  149.2730 C   0  0  0  0  0  2  0  0  0  0  0  0
  161.2180  206.2450  152.0400 C   0  0  1  0  0  3  0  0  0  0  0  0
  160.4360  203.8080  151.4300 C   0  0  0  0  0  2  0  0  0  0  0  0
  161.1760  201.8960  150.0500 N   0  0  0  0  0  0  0  0  0  0  0  0
  161.4580  202.8830  150.8490 C   0  0  0  0  0  3  0  0  0  0  0  0
  158.9300  201.2910  150.3820 O   0  0  0  0  0  0  0  0  0  0  0  0
  159.8780  201.4990  149.5790 C   0  0  0  0  0  0  0  0  0  0  0  0
  159.6480  201.3250  148.1800 N   0  0  0  0  0  2  0  0  0  0  0  0
  162.0310  200.3320  147.0630 O   0  0  0  0  0  1  0  0  0  0  0  0
  161.6640  203.0590  147.2740 O   0  0  0  0  0  1  0  0  0  0  0  0
  160.2770  201.6080  145.6010 O   0  0  0  0  0  0  0  0  0  0  0  0
  160.8980  201.5820  146.9780 P   0  0  0  0  0  0  0  0  0  0  0  0
  1  6  1  0  0  0  0
  2  1  2  0  0  0  0
  2  5  1  0  0  0  0
  3  4  1  0  0  0  0
  5  3  2  0  0  0  0
  6  4  2  0  0  0  0
  7  5  1  0  0  0  0
  8  7  2  0  0  0  0
 10  9  1  6  0  0  0
 10  7  1  0  0  0  0
 11 10  1  0  0  0  0
 12 16  1  0  0  0  0
 13 14  2  0  0  0  0
 14 12  1  0  0  0  0
 15 16  2  0  0  0  0
 16 11  1  0  0  0  0
 17 14  1  0  0  0  0
 18 20  1  6  0  0  0
 18 21  1  0  0  0  0
 18 17  1  0  0  0  0
 19 20  1  0  0  0  0
 22 21  1  0  0  0  0
 22 23  1  0  0  0  0
 24  1  1  0  0  0  0
 25 26  1  0  0  0  0
 26 31  1  0  0  0  0
 27 30  1  0  0  0  0
 27 28  1  0  0  0  0
 28 29  2  0  0  0  0
 29 32  1  0  0  0  0
 29 31  1  0  0  0  0
 30 25  1  0  0  0  0
 31 24  1  1  0  0  0
 33 34  2  0  0  0  0
 34 32  1  0  0  0  0
 36 33  1  0  0  0  0
 36 35  2  0  0  0  0
 37 36  1  0  0  0  0
 40 41  2  0  0  0  0
 41 38  1  0  0  0  0
 41 39  1  0  0  0  0
 41 37  1  0  0  0  0
M  END
>  <MODEL>
8

>  <REMARK>
 VINA RESULT:      -4.8      2.103      3.011
  Name = 
  14 active torsions:
  status: ('A' for Active; 'I' for Inactive)
    1  A    between atoms: N_1  and  C_30
    2  A    between atoms: C_3  and  C_29
    3  A    between atoms: C_3  and  C_30
    4  A    between atoms: O_5  and  C_24
    5  A    between atoms: O_5  and  C_25
    6  A    between atoms: C_12  and  C_19
    7  A    between atoms: C_13  and  C_18
    8  A    between atoms: C_13  and  C_25
    9  A    between atoms: C_19  and  C_36
   10  A    between atoms: C_22  and  C_32
   11  A    between atoms: C_23  and  C_25
   12  A    between atoms: C_26  and  N_27
   13  A    between atoms: C_31  and  C_32
   14  A    between atoms: N_34  and  P_40
                            x       y       z     vdW  Elec       q    Type
                         _______ _______ _______ _____ _____    ______ ____

>  <TORSDO>
F 14

$$$$
=
 OpenBabel11052412133D

 41 42  0  0  1  0  0  0  0  0999 V2000
  160.4960  210.0720  152.1870 C   0  0  0  0  0  0  0  0  0  0  0  0
  160.8440  208.7200  152.2610 C   0  0  0  0  0  3  0  0  0  0  0  0
  162.2760  208.9760  150.3290 C   0  0  0  0  0  3  0  0  0  0  0  0
  161.9280  210.3290  150.2510 C   0  0  0  0  0  3  0  0  0  0  0  0
  161.7390  208.1620  151.3370 C   0  0  0  0  0  0  0  0  0  0  0  0
  161.0380  210.8760  151.1780 C   0  0  0  0  0  3  0  0  0  0  0  0
  162.1000  206.7340  151.4150 C   0  0  0  0  0  0  0  0  0  0  0  0
  163.3120  206.3930  151.5040 O   0  0  0  0  0  0  0  0  0  0  0  0
  161.6140  204.2980  151.5930 C   0  0  0  0  0  1  0  0  0  0  0  0
  161.0360  205.6810  151.3490 C   0  0  2  0  0  3  0  0  0  0  0  0
  160.3670  205.7270  150.0590 N   0  0  0  0  0  2  0  0  0  0  0  0
  160.3690  205.8080  147.5960 N   0  0  0  0  0  2  0  0  0  0  0  0
  160.5470  206.1970  145.3170 O   0  0  0  0  0  0  0  0  0  0  0  0
  160.9250  205.5200  146.3070 C   0  0  0  0  0  0  0  0  0  0  0  0
  162.3500  205.6970  148.8310 O   0  0  0  0  0  0  0  0  0  0  0  0
  161.0880  205.7320  148.8280 C   0  0  0  0  0  0  0  0  0  0  0  0
  161.8430  204.4830  146.1030 O   0  0  0  0  0  0  0  0  0  0  0  0
  161.5160  203.1080  146.2630 C   0  0  2  0  0  3  0  0  0  0  0  0
  159.9250  201.3590  144.8820 S   0  0  0  0  0  1  0  0  0  0  0  0
  160.0740  202.8910  145.8460 C   0  0  0  0  0  2  0  0  0  0  0  0
  161.6930  202.6850  147.7160 C   0  0  0  0  0  2  0  0  0  0  0  0
  160.6150  201.7040  148.1340 C   0  0  0  0  0  2  0  0  0  0  0  0
  160.8450  201.2500  149.5620 C   0  0  0  0  0  1  0  0  0  0  0  0
  159.5180  210.6410  153.1580 C   0  0  0  0  0  2  0  0  0  0  0  0
  162.1670  210.0860  155.8120 C   0  0  0  0  0  2  0  0  0  0  0  0
  161.6600  210.5550  154.4560 C   0  0  0  0  0  2  0  0  0  0  0  0
  160.9100  211.7100  157.2610 C   0  0  0  0  0  2  0  0  0  0  0  0
  160.3050  212.6580  156.2660 C   0  0  0  0  0  3  0  0  0  0  0  0
  159.9720  212.3100  155.0140 C   0  0  0  0  0  0  0  0  0  0  0  0
  162.2840  211.2370  156.8030 C   0  0  0  0  0  2  0  0  0  0  0  0
  160.1720  210.8920  154.5170 C   0  0  1  0  0  3  0  0  0  0  0  0
  159.3460  213.3630  154.1490 C   0  0  0  0  0  2  0  0  0  0  0  0
  157.1640  214.2670  154.8770 N   0  0  0  0  0  0  0  0  0  0  0  0
  158.4610  214.2460  154.9710 C   0  0  0  0  0  3  0  0  0  0  0  0
  156.2230  213.7800  152.7800 O   0  0  0  0  0  0  0  0  0  0  0  0
  156.3410  213.4830  153.9990 C   0  0  0  0  0  0  0  0  0  0  0  0
  155.6310  212.3510  154.5040 N   0  0  0  0  0  2  0  0  0  0  0  0
  154.7050  210.5260  156.4350 O   0  0  0  0  0  0  0  0  0  0  0  0
  155.2310  213.1330  157.1730 O   0  0  0  0  0  1  0  0  0  0  0  0
  157.1420  211.4740  156.5230 O   0  0  0  0  0  1  0  0  0  0  0  0
  155.7200  211.8540  156.1830 P   0  0  0  0  0  0  0  0  0  0  0  0
  1  2  1  0  0  0  0
  1 24  1  0  0  0  0
  3  5  1  0  0  0  0
  4  3  2  0  0  0  0
  4  6  1  0  0  0  0
  5  7  1  0  0  0  0
  5  2  2  0  0  0  0
  6  1  2  0  0  0  0
  7  8  2  0  0  0  0
 10  7  1  0  0  0  0
 10  9  1  6  0  0  0
 11 10  1  0  0  0  0
 12 16  1  0  0  0  0
 13 14  2  0  0  0  0
 14 12  1  0  0  0  0
 16 15  2  0  0  0  0
 16 11  1  0  0  0  0
 17 18  1  0  0  0  0
 17 14  1  0  0  0  0
 18 20  1  1  0  0  0
 18 21  1  0  0  0  0
 19 20  1  0  0  0  0
 21 22  1  0  0  0  0
 22 23  1  0  0  0  0
 25 30  1  0  0  0  0
 26 31  1  0  0  0  0
 26 25  1  0  0  0  0
 28 27  1  0  0  0  0
 29 28  2  0  0  0  0
 30 27  1  0  0  0  0
 31 24  1  6  0  0  0
 31 29  1  0  0  0  0
 32 34  1  0  0  0  0
 32 29  1  0  0  0  0
 33 34  2  0  0  0  0
 35 36  2  0  0  0  0
 36 37  1  0  0  0  0
 36 33  1  0  0  0  0
 37 41  1  0  0  0  0
 41 38  2  0  0  0  0
 41 40  1  0  0  0  0
 41 39  1  0  0  0  0
M  END
>  <MODEL>
9

>  <REMARK>
 VINA RESULT:      -4.7      4.346      9.456
  Name = 
  14 active torsions:
  status: ('A' for Active; 'I' for Inactive)
    1  A    between atoms: N_1  and  C_30
    2  A    between atoms: C_3  and  C_29
    3  A    between atoms: C_3  and  C_30
    4  A    between atoms: O_5  and  C_24
    5  A    between atoms: O_5  and  C_25
    6  A    between atoms: C_12  and  C_19
    7  A    between atoms: C_13  and  C_18
    8  A    between atoms: C_13  and  C_25
    9  A    between atoms: C_19  and  C_36
   10  A    between atoms: C_22  and  C_32
   11  A    between atoms: C_23  and  C_25
   12  A    between atoms: C_26  and  N_27
   13  A    between atoms: C_31  and  C_32
   14  A    between atoms: N_34  and  P_40
                            x       y       z     vdW  Elec       q    Type
                         _______ _______ _______ _____ _____    ______ ____

>  <TORSDO>
F 14

$$$$
