=
 OpenBabel11052410093D

 54 62  0  0  1  0  0  0  0  0999 V2000
  161.5070  205.7620  154.3780 C   0  0  0  0  0  3  0  0  0  0  0  0
  161.3950  207.1500  154.3930 C   0  0  0  0  0  0  0  0  0  0  0  0
  160.9590  209.2620  153.5020 C   0  0  0  0  0  0  0  0  0  0  0  0
  161.3000  209.6050  154.8060 C   0  0  0  0  0  0  0  0  0  0  0  0
  159.7010  212.0590  153.8020 C   0  0  0  0  0  0  0  0  0  0  0  0
  161.6940  208.1980  155.6670 S   0  0  0  0  0  0  0  0  0  0  0  0
  160.6880  207.2130  152.0880 C   0  0  0  0  0  3  0  0  0  0  0  0
  161.1930  205.0900  153.1860 C   0  0  0  0  0  3  0  0  0  0  0  0
  160.6900  210.2400  152.4930 N   0  0  0  0  0  0  0  0  0  0  0  0
  158.5940  211.3700  151.6930 C   0  0  0  0  0  1  0  0  0  0  0  0
  161.4470  210.9710  155.3230 C   0  0  0  0  0  0  0  0  0  0  0  0
  161.0050  207.8760  153.2740 C   0  0  0  0  0  0  0  0  0  0  0  0
  160.7350  212.0080  154.8660 C   0  0  0  0  0  3  0  0  0  0  0  0
  160.7700  205.8080  152.0460 C   0  0  0  0  0  0  0  0  0  0  0  0
  159.6830  211.2450  152.7160 C   0  0  0  0  0  0  0  0  0  0  0  0
  160.4440  205.0770  150.7820 C   0  0  1  0  0  3  0  0  0  0  0  0
  161.6060  205.0940  149.8550 C   0  0  1  0  0  3  0  0  0  0  0  0
  161.3040  203.9650  150.6380 O   0  0  0  0  0  0  0  0  0  0  0  0
  161.5040  202.5590  147.7130 C   0  0  2  0  0  3  0  0  0  0  0  0
  160.4150  205.9030  147.8440 O   0  0  0  0  0  0  0  0  0  0  0  0
  162.4630  204.7660  147.5010 C   0  0  1  0  0  3  0  0  0  0  0  0
  160.4820  203.5300  148.2580 C   0  0  0  0  0  2  0  0  0  0  0  0
  160.5150  207.4080  146.0900 O   0  0  0  0  0  0  0  0  0  0  0  0
  162.4540  203.3860  146.8750 C   0  0  0  0  0  2  0  0  0  0  0  0
  160.8250  201.5090  146.8580 C   0  0  0  0  0  1  0  0  0  0  0  0
  162.3130  205.8260  146.4080 C   0  0  0  0  0  2  0  0  0  0  0  0
  161.0190  206.4550  146.7370 C   0  0  0  0  0  0  0  0  0  0  0  0
  161.2090  204.8570  148.3890 C   0  0  1  0  0  0  0  0  0  0  0  0
  158.9790  214.2950  153.4260 O   0  0  0  0  0  0  0  0  0  0  0  0
  158.7260  213.1690  153.9380 C   0  0  0  0  0  0  0  0  0  0  0  0
  157.0400  211.7240  155.0640 O   0  0  0  0  0  1  0  0  0  0  0  0
  156.7360  213.9860  154.9300 O   0  0  0  0  0  0  0  0  0  0  0  0
  157.4610  212.9900  154.6740 C   0  0  0  0  0  0  0  0  0  0  0  0
  163.6960  211.1060  156.2460 O   0  0  0  0  0  1  0  0  0  0  0  0
  162.3530  211.1800  156.4100 N   0  0  0  0  0  2  0  0  0  0  0  0
  161.3760  210.1250  151.2040 C   0  0  1  0  0  3  0  0  0  0  0  0
  160.5030  209.6530  150.2220 O   0  0  0  0  0  1  0  0  0  0  0  0
  162.3540  211.4090  149.3130 C   0  0  0  0  0  2  0  0  0  0  0  0
  161.9750  211.4560  150.7790 C   0  0  1  0  0  3  0  0  0  0  0  0
  161.0690  212.0880  149.7430 C   0  0  1  0  0  3  0  0  0  0  0  0
  161.2540  213.5930  149.7920 C   0  0  0  0  0  2  0  0  0  0  0  0
  160.7300  213.4760  146.4700 C   0  0  1  0  0  3  0  0  0  0  0  0
  160.7730  212.8410  144.1810 C   0  0  0  0  0  1  0  0  0  0  0  0
  158.8500  214.2280  149.7550 C   0  0  0  0  0  2  0  0  0  0  0  0
  160.2060  212.5110  145.4780 N   0  0  0  0  0  0  0  0  0  0  0  0
  158.0340  212.2990  146.6100 C   0  0  0  0  0  2  0  0  0  0  0  0
  160.1760  214.2900  148.9750 C   0  0  2  0  0  3  0  0  0  0  0  0
  158.7590  212.6720  145.3200 C   0  0  0  0  0  2  0  0  0  0  0  0
  156.6150  213.0350  149.2930 C   0  0  0  0  0  1  0  0  0  0  0  0
  159.8820  213.5060  147.7250 C   0  0  0  0  0  0  0  0  0  0  0  0
  157.9810  213.3940  148.9440 N   0  0  0  0  0  0  0  0  0  0  0  0
  158.6440  213.0560  147.7450 C   0  0  0  0  0  0  0  0  0  0  0  0
  162.1710  213.1270  146.8370 C   0  0  0  0  0  2  0  0  0  0  0  0
  163.0200  214.1900  146.5250 O   0  0  0  0  0  1  0  0  0  0  0  0
  1  2  1  0  0  0  0
  2  6  1  0  0  0  0
  3  4  2  0  0  0  0
  4 11  1  0  0  0  0
  4  6  1  0  0  0  0
  5 30  1  0  0  0  0
  5 13  1  0  0  0  0
  7 12  1  0  0  0  0
  8  1  2  0  0  0  0
  9 15  1  0  0  0  0
  9  3  1  0  0  0  0
 10 15  1  0  0  0  0
 11 35  1  0  0  0  0
 12  3  1  0  0  0  0
 12  2  2  0  0  0  0
 13 11  2  0  0  0  0
 14  7  2  0  0  0  0
 14  8  1  0  0  0  0
 15  5  2  0  0  0  0
 16 14  1  1  0  0  0
 17 18  1  1  0  0  0
 17 16  1  0  0  0  0
 18 16  1  0  0  0  0
 19 25  1  6  0  0  0
 19 22  1  0  0  0  0
 20 28  1  0  0  0  0
 21 26  1  6  0  0  0
 21 28  1  0  0  0  0
 23 27  2  0  0  0  0
 24 21  1  0  0  0  0
 24 19  1  0  0  0  0
 26 27  1  0  0  0  0
 27 20  1  0  0  0  0
 28 22  1  6  0  0  0
 28 17  1  0  0  0  0
 29 30  2  0  0  0  0
 30 33  1  0  0  0  0
 33 32  2  0  0  0  0
 33 31  1  0  0  0  0
 34 35  1  0  0  0  0
 36 37  1  6  0  0  0
 36  9  1  0  0  0  0
 38 40  1  0  0  0  0
 38 39  1  0  0  0  0
 39 36  1  6  0  0  0
 40 41  1  1  0  0  0
 40 39  1  0  0  0  0
 42 53  1  1  0  0  0
 42 50  1  0  0  0  0
 43 45  1  0  0  0  0
 45 42  1  0  0  0  0
 46 52  1  0  0  0  0
 47 44  1  0  0  0  0
 47 41  1  1  0  0  0
 48 45  1  0  0  0  0
 48 46  1  0  0  0  0
 50 52  2  0  0  0  0
 50 47  1  0  0  0  0
 51 49  1  0  0  0  0
 51 44  1  0  0  0  0
 52 51  1  0  0  0  0
 54 53  1  0  0  0  0
M  END
>  <MODEL>
1

>  <REMARK>
 VINA RESULT:      -3.4      0.000      0.000
  Name = 
  10 active torsions:
  status: ('A' for Active; 'I' for Inactive)
    1  A    between atoms: C_3  and  C_9
    2  A    between atoms: C_5  and  C_14
    3  A    between atoms: C_5  and  C_52
    4  A    between atoms: C_16  and  C_39
    5  A    between atoms: C_27  and  C_44
    6  A    between atoms: N_29  and  C_39
    7  A    between atoms: C_34  and  C_47
    8  A    between atoms: C_35  and  N_40
    9  A    between atoms: C_37  and  C_44
   10  A    between atoms: C_46  and  C_54
                            x       y       z     vdW  Elec       q    Type
                         _______ _______ _______ _____ _____    ______ ____

>  <TORSDO>
F 10

$$$$
=
 OpenBabel11052410093D

 54 62  0  0  1  0  0  0  0  0999 V2000
  158.5960  214.4360  149.3230 C   0  0  0  0  0  3  0  0  0  0  0  0
  158.9590  213.5930  150.3720 C   0  0  0  0  0  0  0  0  0  0  0  0
  160.1600  211.8880  151.4160 C   0  0  0  0  0  0  0  0  0  0  0  0
  159.3330  212.2870  152.4600 C   0  0  0  0  0  0  0  0  0  0  0  0
  161.6600  210.8330  153.8920 C   0  0  0  0  0  0  0  0  0  0  0  0
  158.3190  213.5360  151.9210 S   0  0  0  0  0  0  0  0  0  0  0  0
  160.6430  212.5000  149.0360 C   0  0  0  0  0  3  0  0  0  0  0  0
  159.2840  214.3050  148.1070 C   0  0  0  0  0  3  0  0  0  0  0  0
  161.0490  210.7720  151.5210 N   0  0  0  0  0  0  0  0  0  0  0  0
  163.4530  210.5310  152.2060 C   0  0  0  0  0  1  0  0  0  0  0  0
  159.2350  211.6400  153.7740 C   0  0  0  0  0  0  0  0  0  0  0  0
  159.9530  212.6310  150.2420 C   0  0  0  0  0  0  0  0  0  0  0  0
  160.2650  211.0220  154.3650 C   0  0  0  0  0  3  0  0  0  0  0  0
  160.3160  213.3510  147.9630 C   0  0  0  0  0  0  0  0  0  0  0  0
  162.0150  210.7190  152.5870 C   0  0  0  0  0  0  0  0  0  0  0  0
  161.0360  213.2200  146.6580 C   0  0  1  0  0  3  0  0  0  0  0  0
  160.6230  214.2980  145.7230 C   0  0  1  0  0  3  0  0  0  0  0  0
  161.8330  214.3640  146.4360 O   0  0  0  0  0  0  0  0  0  0  0  0
  158.8790  213.2410  143.1030 C   0  0  2  0  0  3  0  0  0  0  0  0
  162.1180  214.4530  143.7590 O   0  0  0  0  0  0  0  0  0  0  0  0
  160.9400  212.4220  144.0610 C   0  0  1  0  0  3  0  0  0  0  0  0
  159.7360  214.4530  143.3890 C   0  0  0  0  0  2  0  0  0  0  0  0
  164.0660  213.6290  142.8210 O   0  0  0  0  0  0  0  0  0  0  0  0
  159.8220  212.0580  143.1050 C   0  0  0  0  0  2  0  0  0  0  0  0
  158.2100  213.3810  141.7510 C   0  0  0  0  0  1  0  0  0  0  0  0
  162.2900  212.1030  143.4180 C   0  0  0  0  0  2  0  0  0  0  0  0
  162.9150  213.4340  143.2920 C   0  0  0  0  0  0  0  0  0  0  0  0
  160.8820  213.9480  144.2490 C   0  0  1  0  0  0  0  0  0  0  0  0
  163.8880  210.8040  154.7280 O   0  0  0  0  0  0  0  0  0  0  0  0
  162.6600  210.6450  154.9730 C   0  0  0  0  0  0  0  0  0  0  0  0
  162.3230  208.9420  156.7560 O   0  0  0  0  0  0  0  0  0  0  0  0
  161.7980  211.1360  157.1240 O   0  0  0  0  0  1  0  0  0  0  0  0
  162.2490  210.2640  156.3370 C   0  0  0  0  0  0  0  0  0  0  0  0
  157.8850  212.3920  155.6540 O   0  0  0  0  0  1  0  0  0  0  0  0
  157.9920  211.7340  154.4750 N   0  0  0  0  0  2  0  0  0  0  0  0
  161.0240  209.7530  150.4680 C   0  0  1  0  0  3  0  0  0  0  0  0
  161.6910  210.2080  149.3290 O   0  0  0  0  0  1  0  0  0  0  0  0
  160.9550  207.9970  152.2260 C   0  0  0  0  0  2  0  0  0  0  0  0
  161.6360  208.4480  150.9500 C   0  0  1  0  0  3  0  0  0  0  0  0
  160.5760  207.3670  150.9010 C   0  0  1  0  0  3  0  0  0  0  0  0
  161.2620  206.0240  150.7350 C   0  0  0  0  0  2  0  0  0  0  0  0
  160.9350  205.5490  147.4190 C   0  0  1  0  0  3  0  0  0  0  0  0
  161.3040  205.5580  145.0720 C   0  0  0  0  0  1  0  0  0  0  0  0
  160.3470  203.7110  150.7620 C   0  0  0  0  0  2  0  0  0  0  0  0
  161.7110  204.9340  146.3210 N   0  0  0  0  0  0  0  0  0  0  0  0
  161.7940  202.7320  147.4120 C   0  0  0  0  0  2  0  0  0  0  0  0
  160.3540  205.0490  150.0000 C   0  0  2  0  0  3  0  0  0  0  0  0
  161.3630  203.5180  146.1760 C   0  0  0  0  0  2  0  0  0  0  0  0
  161.2080  201.3610  150.1560 C   0  0  0  0  0  1  0  0  0  0  0  0
  160.9490  204.6880  148.6670 C   0  0  0  0  0  0  0  0  0  0  0  0
  160.9750  202.7650  149.8570 N   0  0  0  0  0  0  0  0  0  0  0  0
  161.2490  203.4060  148.6290 C   0  0  0  0  0  0  0  0  0  0  0  0
  161.4910  206.9330  147.7490 C   0  0  0  0  0  2  0  0  0  0  0  0
  162.8680  206.8590  147.9680 O   0  0  0  0  0  1  0  0  0  0  0  0
  1  2  1  0  0  0  0
  2  6  1  0  0  0  0
  3  9  1  0  0  0  0
  3  4  2  0  0  0  0
  4 11  1  0  0  0  0
  5 13  1  0  0  0  0
  5 30  1  0  0  0  0
  6  4  1  0  0  0  0
  7 12  1  0  0  0  0
  8  1  2  0  0  0  0
  9 15  1  0  0  0  0
 10 15  1  0  0  0  0
 11 13  2  0  0  0  0
 11 35  1  0  0  0  0
 12  2  2  0  0  0  0
 12  3  1  0  0  0  0
 14  8  1  0  0  0  0
 14  7  2  0  0  0  0
 15  5  2  0  0  0  0
 16 14  1  1  0  0  0
 17 18  1  1  0  0  0
 17 16  1  0  0  0  0
 18 16  1  0  0  0  0
 19 25  1  6  0  0  0
 19 24  1  0  0  0  0
 19 22  1  0  0  0  0
 20 28  1  0  0  0  0
 21 24  1  6  0  0  0
 21 28  1  0  0  0  0
 23 27  2  0  0  0  0
 26 21  1  0  0  0  0
 27 26  1  0  0  0  0
 27 20  1  0  0  0  0
 28 22  1  6  0  0  0
 28 17  1  0  0  0  0
 29 30  2  0  0  0  0
 30 33  1  0  0  0  0
 33 31  2  0  0  0  0
 33 32  1  0  0  0  0
 35 34  1  0  0  0  0
 36 37  1  6  0  0  0
 36  9  1  0  0  0  0
 39 36  1  6  0  0  0
 39 38  1  0  0  0  0
 40 41  1  1  0  0  0
 40 39  1  0  0  0  0
 40 38  1  0  0  0  0
 42 53  1  1  0  0  0
 42 50  1  0  0  0  0
 43 45  1  0  0  0  0
 45 42  1  0  0  0  0
 46 52  1  0  0  0  0
 47 41  1  1  0  0  0
 47 44  1  0  0  0  0
 48 45  1  0  0  0  0
 48 46  1  0  0  0  0
 50 47  1  0  0  0  0
 51 49  1  0  0  0  0
 51 44  1  0  0  0  0
 52 50  2  0  0  0  0
 52 51  1  0  0  0  0
 53 54  1  0  0  0  0
M  END
>  <MODEL>
2

>  <REMARK>
 VINA RESULT:      -2.9      2.467      7.874
  Name = 
  10 active torsions:
  status: ('A' for Active; 'I' for Inactive)
    1  A    between atoms: C_3  and  C_9
    2  A    between atoms: C_5  and  C_14
    3  A    between atoms: C_5  and  C_52
    4  A    between atoms: C_16  and  C_39
    5  A    between atoms: C_27  and  C_44
    6  A    between atoms: N_29  and  C_39
    7  A    between atoms: C_34  and  C_47
    8  A    between atoms: C_35  and  N_40
    9  A    between atoms: C_37  and  C_44
   10  A    between atoms: C_46  and  C_54
                            x       y       z     vdW  Elec       q    Type
                         _______ _______ _______ _____ _____    ______ ____

>  <TORSDO>
F 10

$$$$
=
 OpenBabel11052410093D

 54 62  0  0  1  0  0  0  0  0999 V2000
  161.3810  206.0020  155.2570 C   0  0  0  0  0  3  0  0  0  0  0  0
  161.2280  207.3830  155.1580 C   0  0  0  0  0  0  0  0  0  0  0  0
  160.8390  209.4110  154.0720 C   0  0  0  0  0  0  0  0  0  0  0  0
  161.0150  209.8550  155.3770 C   0  0  0  0  0  0  0  0  0  0  0  0
  159.4750  212.1730  154.0210 C   0  0  0  0  0  0  0  0  0  0  0  0
  161.3470  208.5270  156.3780 S   0  0  0  0  0  0  0  0  0  0  0  0
  160.7930  207.2600  152.7890 C   0  0  0  0  0  3  0  0  0  0  0  0
  161.2270  205.2380  154.0900 C   0  0  0  0  0  3  0  0  0  0  0  0
  160.6610  210.3060  152.9710 N   0  0  0  0  0  0  0  0  0  0  0  0
  158.6430  211.3000  151.8550 C   0  0  0  0  0  1  0  0  0  0  0  0
  161.0620  211.2580  155.8080 C   0  0  0  0  0  0  0  0  0  0  0  0
  160.9510  208.0150  153.9530 C   0  0  0  0  0  0  0  0  0  0  0  0
  160.3790  212.2350  155.1980 C   0  0  0  0  0  3  0  0  0  0  0  0
  160.9200  205.8600  152.8590 C   0  0  0  0  0  0  0  0  0  0  0  0
  159.6080  211.2860  153.0030 C   0  0  0  0  0  0  0  0  0  0  0  0
  160.7650  205.0320  151.6230 C   0  0  1  0  0  3  0  0  0  0  0  0
  161.5200  205.6340  150.4930 C   0  0  1  0  0  3  0  0  0  0  0  0
  162.0250  204.5400  151.2170 O   0  0  0  0  0  0  0  0  0  0  0  0
  161.0000  202.7800  148.8770 C   0  0  2  0  0  3  0  0  0  0  0  0
  160.3000  206.1990  148.4170 O   0  0  0  0  0  0  0  0  0  0  0  0
  162.1820  204.7790  148.2100 C   0  0  1  0  0  3  0  0  0  0  0  0
  160.1290  203.9520  149.2710 C   0  0  0  0  0  2  0  0  0  0  0  0
  160.4540  207.3330  146.4060 O   0  0  0  0  0  0  0  0  0  0  0  0
  161.9800  203.3180  147.8580 C   0  0  0  0  0  2  0  0  0  0  0  0
  160.1540  201.6820  148.2680 C   0  0  0  0  0  1  0  0  0  0  0  0
  162.0810  205.6300  146.9430 C   0  0  0  0  0  2  0  0  0  0  0  0
  160.8890  206.4610  147.2010 C   0  0  0  0  0  0  0  0  0  0  0  0
  161.0060  205.1820  149.1170 C   0  0  1  0  0  0  0  0  0  0  0  0
  158.7210  214.3310  153.3610 O   0  0  0  0  0  0  0  0  0  0  0  0
  158.4600  213.2540  153.9640 C   0  0  0  0  0  0  0  0  0  0  0  0
  156.9010  213.6510  155.8630 O   0  0  0  0  0  1  0  0  0  0  0  0
  156.2350  212.4430  154.0410 O   0  0  0  0  0  0  0  0  0  0  0  0
  157.1430  213.1010  154.6110 C   0  0  0  0  0  0  0  0  0  0  0  0
  163.1370  211.2400  157.0810 O   0  0  0  0  0  1  0  0  0  0  0  0
  161.8280  211.5750  156.9730 N   0  0  0  0  0  2  0  0  0  0  0  0
  161.4970  210.1280  151.7800 C   0  0  1  0  0  3  0  0  0  0  0  0
  160.9670  209.1370  150.9510 O   0  0  0  0  0  1  0  0  0  0  0  0
  163.0160  211.5000  150.3700 C   0  0  0  0  0  2  0  0  0  0  0  0
  161.6460  211.4320  151.0120 C   0  0  1  0  0  3  0  0  0  0  0  0
  161.8080  211.1130  149.5400 C   0  0  1  0  0  3  0  0  0  0  0  0
  161.3160  212.2990  148.7320 C   0  0  0  0  0  2  0  0  0  0  0  0
  158.5570  212.8740  146.8920 C   0  0  1  0  0  3  0  0  0  0  0  0
  156.4990  213.7480  146.0900 C   0  0  0  0  0  1  0  0  0  0  0  0
  162.3070  212.0680  146.4620 C   0  0  0  0  0  2  0  0  0  0  0  0
  157.9240  214.0160  146.1980 N   0  0  0  0  0  0  0  0  0  0  0  0
  159.8940  214.4470  144.7910 C   0  0  0  0  0  2  0  0  0  0  0  0
  161.0270  211.8820  147.2970 C   0  0  2  0  0  3  0  0  0  0  0  0
  158.4050  214.1100  144.8170 C   0  0  0  0  0  2  0  0  0  0  0  0
  162.9010  213.6510  144.5200 C   0  0  0  0  0  1  0  0  0  0  0  0
  160.0550  212.8390  146.6640 C   0  0  0  0  0  0  0  0  0  0  0  0
  161.9820  213.1180  145.5130 N   0  0  0  0  0  0  0  0  0  0  0  0
  160.6250  213.4780  145.6620 C   0  0  0  0  0  0  0  0  0  0  0  0
  158.2730  212.9420  148.3910 C   0  0  0  0  0  2  0  0  0  0  0  0
  158.4730  214.2410  148.8620 O   0  0  0  0  0  1  0  0  0  0  0  0
  2  1  1  0  0  0  0
  2  6  1  0  0  0  0
  3  4  2  0  0  0  0
  4 11  1  0  0  0  0
  4  6  1  0  0  0  0
  5 13  1  0  0  0  0
  7 14  2  0  0  0  0
  7 12  1  0  0  0  0
  8  1  2  0  0  0  0
  9 15  1  0  0  0  0
  9  3  1  0  0  0  0
 10 15  1  0  0  0  0
 11 35  1  0  0  0  0
 12  3  1  0  0  0  0
 12  2  2  0  0  0  0
 13 11  2  0  0  0  0
 14  8  1  0  0  0  0
 15  5  2  0  0  0  0
 16 14  1  1  0  0  0
 17 18  1  1  0  0  0
 17 16  1  0  0  0  0
 18 16  1  0  0  0  0
 19 25  1  6  0  0  0
 19 22  1  0  0  0  0
 20 28  1  0  0  0  0
 21 26  1  6  0  0  0
 21 28  1  0  0  0  0
 23 27  2  0  0  0  0
 24 21  1  0  0  0  0
 24 19  1  0  0  0  0
 26 27  1  0  0  0  0
 27 20  1  0  0  0  0
 28 22  1  1  0  0  0
 28 17  1  0  0  0  0
 29 30  2  0  0  0  0
 30  5  1  0  0  0  0
 30 33  1  0  0  0  0
 32 33  2  0  0  0  0
 33 31  1  0  0  0  0
 35 34  1  0  0  0  0
 36 37  1  6  0  0  0
 36  9  1  0  0  0  0
 38 39  1  0  0  0  0
 39 36  1  1  0  0  0
 40 41  1  6  0  0  0
 40 38  1  0  0  0  0
 40 39  1  0  0  0  0
 42 53  1  1  0  0  0
 43 45  1  0  0  0  0
 44 47  1  0  0  0  0
 45 42  1  0  0  0  0
 46 48  1  0  0  0  0
 46 52  1  0  0  0  0
 47 41  1  1  0  0  0
 48 45  1  0  0  0  0
 49 51  1  0  0  0  0
 50 42  1  0  0  0  0
 50 47  1  0  0  0  0
 51 52  1  0  0  0  0
 51 44  1  0  0  0  0
 52 50  2  0  0  0  0
 53 54  1  0  0  0  0
M  END
>  <MODEL>
3

>  <REMARK>
 VINA RESULT:      -2.5      1.280      2.223
  Name = 
  10 active torsions:
  status: ('A' for Active; 'I' for Inactive)
    1  A    between atoms: C_3  and  C_9
    2  A    between atoms: C_5  and  C_14
    3  A    between atoms: C_5  and  C_52
    4  A    between atoms: C_16  and  C_39
    5  A    between atoms: C_27  and  C_44
    6  A    between atoms: N_29  and  C_39
    7  A    between atoms: C_34  and  C_47
    8  A    between atoms: C_35  and  N_40
    9  A    between atoms: C_37  and  C_44
   10  A    between atoms: C_46  and  C_54
                            x       y       z     vdW  Elec       q    Type
                         _______ _______ _______ _____ _____    ______ ____

>  <TORSDO>
F 10

$$$$
=
 OpenBabel11052410093D

 54 62  0  0  1  0  0  0  0  0999 V2000
  161.5040  205.8030  152.7240 C   0  0  0  0  0  3  0  0  0  0  0  0
  161.3840  207.1790  152.9090 C   0  0  0  0  0  0  0  0  0  0  0  0
  161.1080  209.4000  152.2510 C   0  0  0  0  0  0  0  0  0  0  0  0
  161.2010  209.5560  153.6290 C   0  0  0  0  0  0  0  0  0  0  0  0
  159.8010  212.1550  152.6950 C   0  0  0  0  0  0  0  0  0  0  0  0
  161.4380  208.0380  154.3480 S   0  0  0  0  0  0  0  0  0  0  0  0
  161.1130  207.5680  150.5440 C   0  0  0  0  0  3  0  0  0  0  0  0
  161.4180  205.3060  151.4150 C   0  0  0  0  0  3  0  0  0  0  0  0
  161.0240  210.5110  151.3540 N   0  0  0  0  0  0  0  0  0  0  0  0
  159.1060  211.7810  150.3450 C   0  0  0  0  0  1  0  0  0  0  0  0
  161.2430  210.8360  154.3480 C   0  0  0  0  0  0  0  0  0  0  0  0
  161.2030  208.0580  151.8480 C   0  0  0  0  0  0  0  0  0  0  0  0
  160.6220  211.9400  153.9140 C   0  0  0  0  0  3  0  0  0  0  0  0
  161.2090  206.1800  150.3260 C   0  0  0  0  0  0  0  0  0  0  0  0
  159.9890  211.4970  151.5240 C   0  0  0  0  0  0  0  0  0  0  0  0
  161.1260  205.6340  148.9350 C   0  0  1  0  0  3  0  0  0  0  0  0
  161.1160  204.1480  148.9570 C   0  0  1  0  0  3  0  0  0  0  0  0
  159.9340  204.8910  148.7850 O   0  0  0  0  0  0  0  0  0  0  0  0
  162.0050  205.1850  145.9300 C   0  0  2  0  0  3  0  0  0  0  0  0
  161.9820  202.1710  147.7490 O   0  0  0  0  0  0  0  0  0  0  0  0
  160.3970  203.5180  146.6180 C   0  0  1  0  0  3  0  0  0  0  0  0
  162.6700  204.3590  147.0080 C   0  0  0  0  0  2  0  0  0  0  0  0
  161.4050  200.1010  146.8930 O   0  0  0  0  0  0  0  0  0  0  0  0
  160.8390  204.3570  145.4360 C   0  0  0  0  0  2  0  0  0  0  0  0
  162.9780  205.4520  144.8010 C   0  0  0  0  0  1  0  0  0  0  0  0
  160.2000  202.0680  146.1730 C   0  0  0  0  0  2  0  0  0  0  0  0
  161.2310  201.3460  146.9450 C   0  0  0  0  0  0  0  0  0  0  0  0
  161.5620  203.5240  147.6250 C   0  0  1  0  0  0  0  0  0  0  0  0
  159.0740  214.3870  152.3050 O   0  0  0  0  0  0  0  0  0  0  0  0
  158.8120  213.2560  152.8020 C   0  0  0  0  0  0  0  0  0  0  0  0
  156.3310  213.4310  152.8780 O   0  0  0  0  0  0  0  0  0  0  0  0
  157.4960  212.5840  154.6530 O   0  0  0  0  0  1  0  0  0  0  0  0
  157.5220  213.0620  153.4890 C   0  0  0  0  0  0  0  0  0  0  0  0
  161.3140  210.5720  156.7660 O   0  0  0  0  0  1  0  0  0  0  0  0
  161.9320  210.8780  155.6000 N   0  0  0  0  0  2  0  0  0  0  0  0
  161.9370  210.5590  150.2090 C   0  0  1  0  0  3  0  0  0  0  0  0
  161.3470  209.9780  149.0850 O   0  0  0  0  0  1  0  0  0  0  0  0
  163.1320  212.0280  148.5980 C   0  0  0  0  0  2  0  0  0  0  0  0
  162.3610  211.9860  149.9020 C   0  0  1  0  0  3  0  0  0  0  0  0
  161.6720  212.4350  148.6300 C   0  0  1  0  0  3  0  0  0  0  0  0
  161.5420  213.9460  148.6580 C   0  0  0  0  0  2  0  0  0  0  0  0
  161.5990  214.0000  145.2930 C   0  0  1  0  0  3  0  0  0  0  0  0
  162.1740  213.6120  143.0210 C   0  0  0  0  0  1  0  0  0  0  0  0
  159.0930  213.9250  148.2270 C   0  0  0  0  0  2  0  0  0  0  0  0
  161.5240  213.0270  144.1830 N   0  0  0  0  0  0  0  0  0  0  0  0
  159.3440  212.1460  144.9030 C   0  0  0  0  0  2  0  0  0  0  0  0
  160.4560  214.4060  147.6960 C   0  0  2  0  0  3  0  0  0  0  0  0
  160.1310  212.8140  143.7790 C   0  0  0  0  0  2  0  0  0  0  0  0
  157.3750  212.2320  147.3250 C   0  0  0  0  0  1  0  0  0  0  0  0
  160.5900  213.6900  146.3800 C   0  0  0  0  0  0  0  0  0  0  0  0
  158.6260  212.9690  147.2390 N   0  0  0  0  0  0  0  0  0  0  0  0
  159.5360  212.9300  146.1610 C   0  0  0  0  0  0  0  0  0  0  0  0
  163.0040  214.0120  145.8920 C   0  0  0  0  0  2  0  0  0  0  0  0
  163.8050  213.0570  145.2630 O   0  0  0  0  0  1  0  0  0  0  0  0
  1  2  1  0  0  0  0
  2  6  1  0  0  0  0
  3  4  2  0  0  0  0
  4 11  1  0  0  0  0
  4  6  1  0  0  0  0
  5 30  1  0  0  0  0
  5 13  1  0  0  0  0
  7 12  1  0  0  0  0
  8  1  2  0  0  0  0
  9 15  1  0  0  0  0
  9  3  1  0  0  0  0
 10 15  1  0  0  0  0
 11 35  1  0  0  0  0
 12  3  1  0  0  0  0
 12  2  2  0  0  0  0
 13 11  2  0  0  0  0
 14  7  2  0  0  0  0
 14  8  1  0  0  0  0
 15  5  2  0  0  0  0
 16 17  1  0  0  0  0
 16 14  1  1  0  0  0
 17 18  1  6  0  0  0
 18 16  1  0  0  0  0
 19 25  1  6  0  0  0
 19 22  1  0  0  0  0
 21 24  1  6  0  0  0
 21 28  1  0  0  0  0
 23 27  2  0  0  0  0
 24 19  1  0  0  0  0
 26 21  1  0  0  0  0
 26 27  1  0  0  0  0
 27 20  1  0  0  0  0
 28 22  1  6  0  0  0
 28 20  1  0  0  0  0
 28 17  1  0  0  0  0
 29 30  2  0  0  0  0
 30 33  1  0  0  0  0
 31 33  2  0  0  0  0
 33 32  1  0  0  0  0
 35 34  1  0  0  0  0
 36 37  1  6  0  0  0
 36  9  1  0  0  0  0
 38 40  1  0  0  0  0
 38 39  1  0  0  0  0
 39 36  1  6  0  0  0
 40 41  1  1  0  0  0
 40 39  1  0  0  0  0
 42 53  1  1  0  0  0
 42 50  1  0  0  0  0
 43 45  1  0  0  0  0
 45 42  1  0  0  0  0
 46 52  1  0  0  0  0
 47 44  1  0  0  0  0
 47 41  1  1  0  0  0
 48 45  1  0  0  0  0
 48 46  1  0  0  0  0
 50 47  1  0  0  0  0
 51 49  1  0  0  0  0
 51 44  1  0  0  0  0
 52 50  2  0  0  0  0
 52 51  1  0  0  0  0
 54 53  1  0  0  0  0
M  END
>  <MODEL>
4

>  <REMARK>
 VINA RESULT:      -1.9      1.552      2.314
  Name = 
  10 active torsions:
  status: ('A' for Active; 'I' for Inactive)
    1  A    between atoms: C_3  and  C_9
    2  A    between atoms: C_5  and  C_14
    3  A    between atoms: C_5  and  C_52
    4  A    between atoms: C_16  and  C_39
    5  A    between atoms: C_27  and  C_44
    6  A    between atoms: N_29  and  C_39
    7  A    between atoms: C_34  and  C_47
    8  A    between atoms: C_35  and  N_40
    9  A    between atoms: C_37  and  C_44
   10  A    between atoms: C_46  and  C_54
                            x       y       z     vdW  Elec       q    Type
                         _______ _______ _______ _____ _____    ______ ____

>  <TORSDO>
F 10

$$$$
