=
 OpenBabel11042420293D

 31 33  0  0  1  0  0  0  0  0999 V2000
  161.7930  209.8550  150.8750 N   0  0  0  0  0  0  0  0  0  0  0  0
  162.3790  209.3920  148.6520 O   0  0  0  0  0  0  0  0  0  0  0  0
  161.9880  210.2400  149.5010 C   0  0  0  0  0  0  0  0  0  0  0  0
  161.7010  211.6340  149.0510 C   0  0  0  0  0  2  0  0  0  0  0  0
  162.8600  212.1590  148.2250 C   0  0  0  0  0  1  0  0  0  0  0  0
  161.2400  210.7630  151.7920 N   0  0  0  0  0  2  0  0  0  0  0  0
  161.4790  210.2510  153.0760 N   0  0  0  0  0  2  0  0  0  0  0  0
  159.2520  211.1530  153.5060 C   0  0  0  0  0  2  0  0  0  0  0  0
  160.7840  210.7680  155.9780 C   0  0  0  0  0  0  0  0  0  0  0  0
  159.6870  212.3130  154.3570 C   0  0  0  0  0  0  0  0  0  0  0  0
  160.1840  209.9510  153.6730 C   0  0  2  0  0  3  0  0  0  0  0  0
  160.3270  209.5820  155.1620 C   0  0  1  0  0  3  0  0  0  0  0  0
  159.3650  213.4840  154.0280 O   0  0  0  0  0  0  0  0  0  0  0  0
  161.4160  210.6070  157.0580 O   0  0  0  0  0  0  0  0  0  0  0  0
  160.4250  212.0910  155.5640 N   0  0  0  0  0  2  0  0  0  0  0  0
  160.6260  207.4750  156.4410 C   0  0  0  0  0  2  0  0  0  0  0  0
  161.2200  208.3570  155.3590 C   0  0  0  0  0  3  0  0  0  0  0  0
  160.4590  207.0980  154.9860 C   0  0  0  0  0  2  0  0  0  0  0  0
  162.0250  208.4820  151.3120 C   0  0  0  0  0  2  0  0  0  0  0  0
  160.7350  207.6660  151.2820 C   0  0  0  0  0  2  0  0  0  0  0  0
  161.2260  205.1010  152.4880 F   0  0  0  0  0  0  0  0  0  0  0  0
  160.9030  206.4040  150.5000 C   0  0  0  0  0  0  0  0  0  0  0  0
  160.8330  206.4450  149.1050 C   0  0  0  0  0  2  0  0  0  0  0  0
  161.2410  204.1030  148.9710 C   0  0  0  0  0  0  0  0  0  0  0  0
  161.3250  204.0270  150.3680 C   0  0  0  0  0  2  0  0  0  0  0  0
  161.1520  205.1800  151.1350 C   0  0  0  0  0  0  0  0  0  0  0  0
  161.0000  205.3070  148.3800 N   0  0  0  0  0  0  0  0  0  0  0  0
  161.1210  200.5380  147.4260 C   0  0  0  0  0  1  0  0  0  0  0  0
  159.9600  201.4680  149.2740 O   0  0  0  0  0  0  0  0  0  0  0  0
  161.4040  202.9390  148.1450 N   0  0  0  0  0  2  0  0  0  0  0  0
  160.7920  201.6570  148.3470 C   0  0  0  0  0  0  0  0  0  0  0  0
  1 19  1  0  0  0  0
  1  6  1  0  0  0  0
  2  3  2  0  0  0  0
  3  1  1  0  0  0  0
  4  3  1  0  0  0  0
  5  4  1  0  0  0  0
  6  7  1  0  0  0  0
  8 11  1  0  0  0  0
  8 10  1  0  0  0  0
  9 14  2  0  0  0  0
 10 15  1  0  0  0  0
 11  7  1  1  0  0  0
 11 12  1  0  0  0  0
 12 17  1  6  0  0  0
 12  9  1  0  0  0  0
 13 10  2  0  0  0  0
 15  9  1  0  0  0  0
 17 16  1  0  0  0  0
 18 17  1  0  0  0  0
 18 16  1  0  0  0  0
 20 19  1  0  0  0  0
 22 26  2  0  0  0  0
 22 20  1  0  0  0  0
 23 22  1  0  0  0  0
 24 25  1  0  0  0  0
 25 26  1  0  0  0  0
 26 21  1  0  0  0  0
 27 24  2  0  0  0  0
 27 23  1  0  0  0  0
 28 31  1  0  0  0  0
 30 31  1  0  0  0  0
 30 24  1  0  0  0  0
 31 29  2  0  0  0  0
M  END
>  <MODEL>
1

>  <REMARK>
 VINA RESULT:      -7.5      0.000      0.000
  Name = 
  9 active torsions:
  status: ('A' for Active; 'I' for Inactive)
    1  A    between atoms: N_2  and  N_3
    2  A    between atoms: N_2  and  N_9
    3  A    between atoms: N_3  and  C_15
    4  A    between atoms: C_7  and  C_27
    5  A    between atoms: N_9  and  C_25
    6  A    between atoms: C_10  and  C_14
    7  A    between atoms: C_14  and  C_25
    8  A    between atoms: N_17  and  C_19
    9  A    between atoms: C_18  and  C_26
                            x       y       z     vdW  Elec       q    Type
                         _______ _______ _______ _____ _____    ______ ____

>  <TORSDO>
F 9

$$$$
=
 OpenBabel11042420293D

 31 33  0  0  1  0  0  0  0  0999 V2000
  161.5110  207.9320  151.5730 N   0  0  0  0  0  0  0  0  0  0  0  0
  161.2770  208.1410  149.2490 O   0  0  0  0  0  0  0  0  0  0  0  0
  161.7020  208.6330  150.3310 C   0  0  0  0  0  0  0  0  0  0  0  0
  162.3720  209.9670  150.3030 C   0  0  0  0  0  2  0  0  0  0  0  0
  162.0360  210.6870  149.0110 C   0  0  0  0  0  1  0  0  0  0  0  0
  161.8700  208.5350  152.7890 N   0  0  0  0  0  2  0  0  0  0  0  0
  160.7100  209.1150  153.3220 N   0  0  0  0  0  2  0  0  0  0  0  0
  162.0110  210.3270  154.9940 C   0  0  0  0  0  2  0  0  0  0  0  0
  159.1240  210.6660  155.3830 C   0  0  0  0  0  0  0  0  0  0  0  0
  161.3050  209.7820  156.2040 C   0  0  0  0  0  0  0  0  0  0  0  0
  161.0650  210.4460  153.7970 C   0  0  2  0  0  3  0  0  0  0  0  0
  159.8120  211.2570  154.1770 C   0  0  1  0  0  3  0  0  0  0  0  0
  161.9640  209.1890  157.0970 O   0  0  0  0  0  0  0  0  0  0  0  0
  157.8870  210.8360  155.5710 O   0  0  0  0  0  0  0  0  0  0  0  0
  159.8960  209.9740  156.3700 N   0  0  0  0  0  2  0  0  0  0  0  0
  158.3760  212.8640  152.9440 C   0  0  0  0  0  2  0  0  0  0  0  0
  158.8670  211.4300  152.9880 C   0  0  0  0  0  3  0  0  0  0  0  0
  159.4610  212.4110  151.9930 C   0  0  0  0  0  2  0  0  0  0  0  0
  160.8140  206.6500  151.6150 C   0  0  0  0  0  2  0  0  0  0  0  0
  161.7990  205.4830  151.6080 C   0  0  0  0  0  2  0  0  0  0  0  0
  160.8600  202.8350  152.2260 F   0  0  0  0  0  0  0  0  0  0  0  0
  161.4410  204.4710  150.5700 C   0  0  0  0  0  0  0  0  0  0  0  0
  161.5690  204.7980  149.2170 C   0  0  0  0  0  2  0  0  0  0  0  0
  160.8260  202.6280  148.5770 C   0  0  0  0  0  0  0  0  0  0  0  0
  160.6940  202.2640  149.9230 C   0  0  0  0  0  2  0  0  0  0  0  0
  160.9980  203.1900  150.9230 C   0  0  0  0  0  0  0  0  0  0  0  0
  161.2620  203.8800  148.2610 N   0  0  0  0  0  0  0  0  0  0  0  0
  160.2660  200.8960  145.1420 C   0  0  0  0  0  1  0  0  0  0  0  0
  161.2530  202.9840  145.6840 O   0  0  0  0  0  0  0  0  0  0  0  0
  160.5160  201.7100  147.5160 N   0  0  0  0  0  2  0  0  0  0  0  0
  160.7020  201.9350  146.1120 C   0  0  0  0  0  0  0  0  0  0  0  0
  1 19  1  0  0  0  0
  1  6  1  0  0  0  0
  2  3  2  0  0  0  0
  3  1  1  0  0  0  0
  4  3  1  0  0  0  0
  5  4  1  0  0  0  0
  6  7  1  0  0  0  0
  8 10  1  0  0  0  0
  9 14  2  0  0  0  0
  9 15  1  0  0  0  0
 10 15  1  0  0  0  0
 10 13  2  0  0  0  0
 11  7  1  1  0  0  0
 11 12  1  0  0  0  0
 11  8  1  0  0  0  0
 12 17  1  6  0  0  0
 12  9  1  0  0  0  0
 16 17  1  0  0  0  0
 18 16  1  0  0  0  0
 18 17  1  0  0  0  0
 20 19  1  0  0  0  0
 22 26  2  0  0  0  0
 22 20  1  0  0  0  0
 23 22  1  0  0  0  0
 24 25  1  0  0  0  0
 25 26  1  0  0  0  0
 26 21  1  0  0  0  0
 27 24  2  0  0  0  0
 27 23  1  0  0  0  0
 28 31  1  0  0  0  0
 29 31  2  0  0  0  0
 30 24  1  0  0  0  0
 31 30  1  0  0  0  0
M  END
>  <MODEL>
2

>  <REMARK>
 VINA RESULT:      -7.3      1.809      3.032
  Name = 
  9 active torsions:
  status: ('A' for Active; 'I' for Inactive)
    1  A    between atoms: N_2  and  N_3
    2  A    between atoms: N_2  and  N_9
    3  A    between atoms: N_3  and  C_15
    4  A    between atoms: C_7  and  C_27
    5  A    between atoms: N_9  and  C_25
    6  A    between atoms: C_10  and  C_14
    7  A    between atoms: C_14  and  C_25
    8  A    between atoms: N_17  and  C_19
    9  A    between atoms: C_18  and  C_26
                            x       y       z     vdW  Elec       q    Type
                         _______ _______ _______ _____ _____    ______ ____

>  <TORSDO>
F 9

$$$$
=
 OpenBabel11042420293D

 31 33  0  0  1  0  0  0  0  0999 V2000
  160.7600  204.6440  150.3610 N   0  0  0  0  0  0  0  0  0  0  0  0
  161.1130  205.0040  152.6520 O   0  0  0  0  0  0  0  0  0  0  0  0
  160.9640  204.1790  151.7080 C   0  0  0  0  0  0  0  0  0  0  0  0
  160.9700  202.7190  152.0180 C   0  0  0  0  0  2  0  0  0  0  0  0
  162.3110  202.1160  151.6410 C   0  0  0  0  0  1  0  0  0  0  0  0
  160.4710  203.7330  149.3340 N   0  0  0  0  0  2  0  0  0  0  0  0
  160.7760  204.3660  148.1200 N   0  0  0  0  0  2  0  0  0  0  0  0
  162.7620  204.7150  146.7440 C   0  0  0  0  0  2  0  0  0  0  0  0
  160.8310  202.9180  145.4610 C   0  0  0  0  0  0  0  0  0  0  0  0
  162.0430  205.0970  145.4810 C   0  0  0  0  0  0  0  0  0  0  0  0
  161.9540  203.7110  147.5690 C   0  0  2  0  0  3  0  0  0  0  0  0
  161.5660  202.4930  146.7090 C   0  0  1  0  0  3  0  0  0  0  0  0
  162.2900  206.2010  144.9320 O   0  0  0  0  0  0  0  0  0  0  0  0
  160.0230  202.1370  144.8870 O   0  0  0  0  0  0  0  0  0  0  0  0
  161.1150  204.1930  144.8730 N   0  0  0  0  0  2  0  0  0  0  0  0
  161.2080  200.0630  147.0670 C   0  0  0  0  0  2  0  0  0  0  0  0
  160.7940  201.4510  147.5180 C   0  0  0  0  0  3  0  0  0  0  0  0
  161.7580  200.6300  148.3560 C   0  0  0  0  0  2  0  0  0  0  0  0
  160.7050  206.0710  150.0580 C   0  0  0  0  0  2  0  0  0  0  0  0
  162.0230  206.7620  150.4040 C   0  0  0  0  0  2  0  0  0  0  0  0
  162.0400  208.9120  152.3160 F   0  0  0  0  0  0  0  0  0  0  0  0
  162.0000  208.2060  150.0240 C   0  0  0  0  0  0  0  0  0  0  0  0
  161.9580  208.5610  148.6720 C   0  0  0  0  0  3  0  0  0  0  0  0
  161.9220  210.8740  149.2340 C   0  0  0  0  0  0  0  0  0  0  0  0
  161.9560  210.5550  150.5980 C   0  0  0  0  0  3  0  0  0  0  0  0
  161.9990  209.2170  150.9940 C   0  0  0  0  0  0  0  0  0  0  0  0
  161.9210  209.8710  148.3110 N   0  0  0  0  0  0  0  0  0  0  0  0
  162.7050  214.3350  147.6450 C   0  0  0  0  0  1  0  0  0  0  0  0
  163.8550  212.2650  147.5020 O   0  0  0  0  0  0  0  0  0  0  0  0
  161.8850  212.2380  148.7830 N   0  0  0  0  0  2  0  0  0  0  0  0
  162.8690  212.8930  147.9690 C   0  0  0  0  0  0  0  0  0  0  0  0
  1  3  1  0  0  0  0
  3  4  1  0  0  0  0
  3  2  2  0  0  0  0
  5  4  1  0  0  0  0
  6  1  1  0  0  0  0
  7  6  1  0  0  0  0
  8 11  1  0  0  0  0
  9 12  1  0  0  0  0
 10  8  1  0  0  0  0
 11  7  1  6  0  0  0
 12 17  1  1  0  0  0
 12 11  1  0  0  0  0
 13 10  2  0  0  0  0
 14  9  2  0  0  0  0
 15  9  1  0  0  0  0
 15 10  1  0  0  0  0
 16 17  1  0  0  0  0
 16 18  1  0  0  0  0
 17 18  1  0  0  0  0
 19  1  1  0  0  0  0
 19 20  1  0  0  0  0
 22 20  1  0  0  0  0
 22 26  1  0  0  0  0
 23 22  2  0  0  0  0
 24 25  1  0  0  0  0
 25 26  2  0  0  0  0
 26 21  1  0  0  0  0
 27 23  1  0  0  0  0
 27 24  2  0  0  0  0
 28 31  1  0  0  0  0
 29 31  2  0  0  0  0
 30 24  1  0  0  0  0
 31 30  1  0  0  0  0
M  END
>  <MODEL>
3

>  <REMARK>
 VINA RESULT:      -7.2      3.768      9.213
  Name = 
  9 active torsions:
  status: ('A' for Active; 'I' for Inactive)
    1  A    between atoms: N_2  and  N_3
    2  A    between atoms: N_2  and  N_9
    3  A    between atoms: N_3  and  C_15
    4  A    between atoms: C_7  and  C_27
    5  A    between atoms: N_9  and  C_25
    6  A    between atoms: C_10  and  C_14
    7  A    between atoms: C_14  and  C_25
    8  A    between atoms: N_17  and  C_19
    9  A    between atoms: C_18  and  C_26
                            x       y       z     vdW  Elec       q    Type
                         _______ _______ _______ _____ _____    ______ ____

>  <TORSDO>
F 9

$$$$
=
 OpenBabel11042420293D

 31 33  0  0  1  0  0  0  0  0999 V2000
  161.5330  208.3330  153.1630 N   0  0  0  0  0  0  0  0  0  0  0  0
  161.1760  206.1520  153.9470 O   0  0  0  0  0  0  0  0  0  0  0  0
  161.1410  207.3910  154.1790 C   0  0  0  0  0  0  0  0  0  0  0  0
  160.7170  207.8610  155.5320 C   0  0  0  0  0  2  0  0  0  0  0  0
  159.6120  206.9700  156.0650 C   0  0  0  0  0  1  0  0  0  0  0  0
  161.6120  209.7030  153.4600 N   0  0  0  0  0  2  0  0  0  0  0  0
  160.3180  210.2280  153.3390 N   0  0  0  0  0  2  0  0  0  0  0  0
  160.7050  211.6610  155.2780 C   0  0  0  0  0  2  0  0  0  0  0  0
  157.9210  211.7710  154.3620 C   0  0  0  0  0  0  0  0  0  0  0  0
  159.5730  211.1390  156.1180 C   0  0  0  0  0  0  0  0  0  0  0  0
  160.3660  211.6140  153.7860 C   0  0  2  0  0  3  0  0  0  0  0  0
  159.0330  212.3370  153.5130 C   0  0  1  0  0  3  0  0  0  0  0  0
  159.8100  210.6680  157.2610 O   0  0  0  0  0  0  0  0  0  0  0  0
  156.7180  211.8440  153.9870 O   0  0  0  0  0  0  0  0  0  0  0  0
  158.2240  211.2170  155.6470 N   0  0  0  0  0  2  0  0  0  0  0  0
  158.2130  213.7300  151.6280 C   0  0  0  0  0  2  0  0  0  0  0  0
  158.6880  212.3440  152.0230 C   0  0  0  0  0  3  0  0  0  0  0  0
  159.6180  213.2890  151.2830 C   0  0  0  0  0  2  0  0  0  0  0  0
  161.9930  207.8790  151.8540 C   0  0  0  0  0  2  0  0  0  0  0  0
  160.8220  207.6680  150.8980 C   0  0  0  0  0  2  0  0  0  0  0  0
  161.1720  207.6920  148.0430 F   0  0  0  0  0  0  0  0  0  0  0  0
  161.0010  206.4330  150.0770 C   0  0  0  0  0  0  0  0  0  0  0  0
  160.9920  205.1840  150.7040 C   0  0  0  0  0  2  0  0  0  0  0  0
  161.2950  204.0830  148.6140 C   0  0  0  0  0  0  0  0  0  0  0  0
  161.3010  205.3180  147.9530 C   0  0  0  0  0  2  0  0  0  0  0  0
  161.1580  206.4970  148.6870 C   0  0  0  0  0  0  0  0  0  0  0  0
  161.1390  204.0500  149.9680 N   0  0  0  0  0  0  0  0  0  0  0  0
  161.2910  200.3640  147.4830 C   0  0  0  0  0  1  0  0  0  0  0  0
  160.3190  201.4120  149.3770 O   0  0  0  0  0  0  0  0  0  0  0  0
  161.4480  202.8470  147.8980 N   0  0  0  0  0  2  0  0  0  0  0  0
  160.9910  201.5550  148.3220 C   0  0  0  0  0  0  0  0  0  0  0  0
  1  6  1  0  0  0  0
  1  3  1  0  0  0  0
  2  3  2  0  0  0  0
  3  4  1  0  0  0  0
  4  5  1  0  0  0  0
  7  6  1  0  0  0  0
  8 10  1  0  0  0  0
  9 15  1  0  0  0  0
 10 13  2  0  0  0  0
 11  7  1  1  0  0  0
 11  8  1  0  0  0  0
 12 17  1  6  0  0  0
 12 11  1  0  0  0  0
 12  9  1  0  0  0  0
 14  9  2  0  0  0  0
 15 10  1  0  0  0  0
 16 17  1  0  0  0  0
 18 16  1  0  0  0  0
 18 17  1  0  0  0  0
 19  1  1  0  0  0  0
 20 19  1  0  0  0  0
 21 26  1  0  0  0  0
 22 23  1  0  0  0  0
 22 20  1  0  0  0  0
 24 27  2  0  0  0  0
 25 24  1  0  0  0  0
 25 26  1  0  0  0  0
 26 22  2  0  0  0  0
 27 23  1  0  0  0  0
 28 31  1  0  0  0  0
 30 31  1  0  0  0  0
 30 24  1  0  0  0  0
 31 29  2  0  0  0  0
M  END
>  <MODEL>
4

>  <REMARK>
 VINA RESULT:      -7.1      2.260      4.172
  Name = 
  9 active torsions:
  status: ('A' for Active; 'I' for Inactive)
    1  A    between atoms: N_2  and  N_3
    2  A    between atoms: N_2  and  N_9
    3  A    between atoms: N_3  and  C_15
    4  A    between atoms: C_7  and  C_27
    5  A    between atoms: N_9  and  C_25
    6  A    between atoms: C_10  and  C_14
    7  A    between atoms: C_14  and  C_25
    8  A    between atoms: N_17  and  C_19
    9  A    between atoms: C_18  and  C_26
                            x       y       z     vdW  Elec       q    Type
                         _______ _______ _______ _____ _____    ______ ____

>  <TORSDO>
F 9

$$$$
=
 OpenBabel11042420293D

 31 33  0  0  1  0  0  0  0  0999 V2000
  162.2620  208.8470  150.9600 N   0  0  0  0  0  0  0  0  0  0  0  0
  161.8750  208.9010  148.6470 O   0  0  0  0  0  0  0  0  0  0  0  0
  162.0270  209.5440  149.7220 C   0  0  0  0  0  0  0  0  0  0  0  0
  161.9270  211.0340  149.6930 C   0  0  0  0  0  2  0  0  0  0  0  0
  161.9830  211.5270  148.2600 C   0  0  0  0  0  1  0  0  0  0  0  0
  162.3060  209.5530  152.1730 N   0  0  0  0  0  2  0  0  0  0  0  0
  160.9940  209.9530  152.4670 N   0  0  0  0  0  2  0  0  0  0  0  0
  161.6610  210.8440  154.6390 C   0  0  0  0  0  2  0  0  0  0  0  0
  158.7600  210.9890  154.2290 C   0  0  0  0  0  0  0  0  0  0  0  0
  160.7020  210.0360  155.4690 C   0  0  0  0  0  0  0  0  0  0  0  0
  161.0770  211.1700  153.2630 C   0  0  2  0  0  3  0  0  0  0  0  0
  159.6980  211.8400  153.4070 C   0  0  1  0  0  3  0  0  0  0  0  0
  161.1400  209.2980  156.3880 O   0  0  0  0  0  0  0  0  0  0  0  0
  157.5100  211.0710  154.0780 O   0  0  0  0  0  0  0  0  0  0  0  0
  159.2910  210.1380  155.2510 N   0  0  0  0  0  2  0  0  0  0  0  0
  158.3990  213.5540  152.1650 C   0  0  0  0  0  2  0  0  0  0  0  0
  159.1070  212.2170  152.0480 C   0  0  0  0  0  3  0  0  0  0  0  0
  159.7700  213.4810  151.5300 C   0  0  0  0  0  2  0  0  0  0  0  0
  162.3130  207.3890  151.0040 C   0  0  0  0  0  2  0  0  0  0  0  0
  160.9110  206.7840  150.9550 C   0  0  0  0  0  2  0  0  0  0  0  0
  160.6640  204.2790  152.3460 F   0  0  0  0  0  0  0  0  0  0  0  0
  160.9120  205.4560  150.2710 C   0  0  0  0  0  0  0  0  0  0  0  0
  161.0480  205.3980  148.8820 C   0  0  0  0  0  3  0  0  0  0  0  0
  160.9560  203.0200  148.9270 C   0  0  0  0  0  0  0  0  0  0  0  0
  160.8250  203.0410  150.3210 C   0  0  0  0  0  3  0  0  0  0  0  0
  160.7990  204.2630  150.9950 C   0  0  0  0  0  0  0  0  0  0  0  0
  161.0660  204.1960  148.2470 N   0  0  0  0  0  0  0  0  0  0  0  0
  160.9510  200.2800  146.1680 C   0  0  0  0  0  1  0  0  0  0  0  0
  161.0640  202.6450  146.0080 O   0  0  0  0  0  0  0  0  0  0  0  0
  160.9780  201.7840  148.1930 N   0  0  0  0  0  2  0  0  0  0  0  0
  160.9910  201.6410  146.7660 C   0  0  0  0  0  0  0  0  0  0  0  0
  1 19  1  0  0  0  0
  1  6  1  0  0  0  0
  2  3  2  0  0  0  0
  3  1  1  0  0  0  0
  4  3  1  0  0  0  0
  5  4  1  0  0  0  0
  6  7  1  0  0  0  0
  8 10  1  0  0  0  0
  9 15  1  0  0  0  0
 10 13  2  0  0  0  0
 11  7  1  6  0  0  0
 11 12  1  0  0  0  0
 11  8  1  0  0  0  0
 12 17  1  6  0  0  0
 12  9  1  0  0  0  0
 14  9  2  0  0  0  0
 15 10  1  0  0  0  0
 17 16  1  0  0  0  0
 18 17  1  0  0  0  0
 18 16  1  0  0  0  0
 20 19  1  0  0  0  0
 22 20  1  0  0  0  0
 22 26  1  0  0  0  0
 23 22  2  0  0  0  0
 24 25  1  0  0  0  0
 25 26  2  0  0  0  0
 26 21  1  0  0  0  0
 27 23  1  0  0  0  0
 27 24  2  0  0  0  0
 28 31  1  0  0  0  0
 29 31  2  0  0  0  0
 30 24  1  0  0  0  0
 31 30  1  0  0  0  0
M  END
>  <MODEL>
5

>  <REMARK>
 VINA RESULT:      -7.1      1.586      2.947
  Name = 
  9 active torsions:
  status: ('A' for Active; 'I' for Inactive)
    1  A    between atoms: N_2  and  N_3
    2  A    between atoms: N_2  and  N_9
    3  A    between atoms: N_3  and  C_15
    4  A    between atoms: C_7  and  C_27
    5  A    between atoms: N_9  and  C_25
    6  A    between atoms: C_10  and  C_14
    7  A    between atoms: C_14  and  C_25
    8  A    between atoms: N_17  and  C_19
    9  A    between atoms: C_18  and  C_26
                            x       y       z     vdW  Elec       q    Type
                         _______ _______ _______ _____ _____    ______ ____

>  <TORSDO>
F 9

$$$$
=
 OpenBabel11042420293D

 31 33  0  0  1  0  0  0  0  0999 V2000
  160.7220  204.5540  150.3700 N   0  0  0  0  0  0  0  0  0  0  0  0
  161.0760  204.8030  152.6750 O   0  0  0  0  0  0  0  0  0  0  0  0
  160.9420  204.0250  151.6910 C   0  0  0  0  0  0  0  0  0  0  0  0
  160.9830  202.5510  151.9250 C   0  0  0  0  0  2  0  0  0  0  0  0
  162.3850  202.0280  151.6780 C   0  0  0  0  0  1  0  0  0  0  0  0
  160.4490  203.6900  149.2980 N   0  0  0  0  0  2  0  0  0  0  0  0
  160.8050  204.3650  148.1220 N   0  0  0  0  0  2  0  0  0  0  0  0
  162.8050  204.6870  146.7590 C   0  0  0  0  0  2  0  0  0  0  0  0
  160.8410  202.9520  145.4430 C   0  0  0  0  0  0  0  0  0  0  0  0
  162.1010  205.1020  145.4980 C   0  0  0  0  0  0  0  0  0  0  0  0
  161.9710  203.6900  147.5670 C   0  0  2  0  0  3  0  0  0  0  0  0
  161.5600  202.4940  146.6890 C   0  0  1  0  0  3  0  0  0  0  0  0
  162.3760  206.2080  144.9650 O   0  0  0  0  0  0  0  0  0  0  0  0
  160.0180  202.1970  144.8550 O   0  0  0  0  0  0  0  0  0  0  0  0
  161.1560  204.2280  144.8740 N   0  0  0  0  0  2  0  0  0  0  0  0
  161.2110  200.0670  147.0780 C   0  0  0  0  0  2  0  0  0  0  0  0
  160.7610  201.4580  147.4800 C   0  0  0  0  0  3  0  0  0  0  0  0
  161.6920  200.6660  148.3810 C   0  0  0  0  0  2  0  0  0  0  0  0
  160.6320  205.9930  150.1410 C   0  0  0  0  0  2  0  0  0  0  0  0
  161.9100  206.7040  150.5820 C   0  0  0  0  0  2  0  0  0  0  0  0
  162.3190  209.3740  149.5930 F   0  0  0  0  0  0  0  0  0  0  0  0
  161.6070  207.9340  151.3740 C   0  0  0  0  0  0  0  0  0  0  0  0
  161.1060  207.8090  152.6720 C   0  0  0  0  0  3  0  0  0  0  0  0
  161.0490  210.1760  152.9250 C   0  0  0  0  0  0  0  0  0  0  0  0
  161.5570  210.3370  151.6300 C   0  0  0  0  0  3  0  0  0  0  0  0
  161.8330  209.2130  150.8500 C   0  0  0  0  0  0  0  0  0  0  0  0
  160.8400  208.9200  153.4110 N   0  0  0  0  0  0  0  0  0  0  0  0
  159.3440  213.1620  154.7400 C   0  0  0  0  0  1  0  0  0  0  0  0
  158.4520  211.5220  153.2760 O   0  0  0  0  0  0  0  0  0  0  0  0
  160.7420  211.3060  153.7580 N   0  0  0  0  0  2  0  0  0  0  0  0
  159.4710  211.9610  153.8730 C   0  0  0  0  0  0  0  0  0  0  0  0
  1  3  1  0  0  0  0
  3  4  1  0  0  0  0
  3  2  2  0  0  0  0
  5  4  1  0  0  0  0
  6  1  1  0  0  0  0
  7  6  1  0  0  0  0
  8 11  1  0  0  0  0
  9 12  1  0  0  0  0
 10  8  1  0  0  0  0
 11  7  1  6  0  0  0
 12 17  1  1  0  0  0
 12 11  1  0  0  0  0
 13 10  2  0  0  0  0
 14  9  2  0  0  0  0
 15  9  1  0  0  0  0
 15 10  1  0  0  0  0
 16 17  1  0  0  0  0
 16 18  1  0  0  0  0
 17 18  1  0  0  0  0
 19  1  1  0  0  0  0
 19 20  1  0  0  0  0
 20 22  1  0  0  0  0
 21 26  1  0  0  0  0
 22 23  2  0  0  0  0
 23 27  1  0  0  0  0
 24 27  2  0  0  0  0
 24 30  1  0  0  0  0
 25 24  1  0  0  0  0
 26 22  1  0  0  0  0
 26 25  2  0  0  0  0
 29 31  2  0  0  0  0
 30 31  1  0  0  0  0
 31 28  1  0  0  0  0
M  END
>  <MODEL>
6

>  <REMARK>
 VINA RESULT:      -6.8      2.575      9.354
  Name = 
  9 active torsions:
  status: ('A' for Active; 'I' for Inactive)
    1  A    between atoms: N_2  and  N_3
    2  A    between atoms: N_2  and  N_9
    3  A    between atoms: N_3  and  C_15
    4  A    between atoms: C_7  and  C_27
    5  A    between atoms: N_9  and  C_25
    6  A    between atoms: C_10  and  C_14
    7  A    between atoms: C_14  and  C_25
    8  A    between atoms: N_17  and  C_19
    9  A    between atoms: C_18  and  C_26
                            x       y       z     vdW  Elec       q    Type
                         _______ _______ _______ _____ _____    ______ ____

>  <TORSDO>
F 9

$$$$
=
 OpenBabel11042420293D

 31 33  0  0  1  0  0  0  0  0999 V2000
  161.3540  205.4210  146.7630 N   0  0  0  0  0  0  0  0  0  0  0  0
  160.1110  206.7750  145.3060 O   0  0  0  0  0  0  0  0  0  0  0  0
  160.8400  205.7560  145.4610 C   0  0  0  0  0  0  0  0  0  0  0  0
  161.1850  204.9280  144.2680 C   0  0  0  0  0  2  0  0  0  0  0  0
  161.5800  205.8270  143.1110 C   0  0  0  0  0  1  0  0  0  0  0  0
  162.2650  204.3630  146.9130 N   0  0  0  0  0  2  0  0  0  0  0  0
  162.0460  203.8060  148.1820 N   0  0  0  0  0  2  0  0  0  0  0  0
  160.1610  203.3840  149.6730 C   0  0  0  0  0  2  0  0  0  0  0  0
  161.2060  200.9130  148.4890 C   0  0  0  0  0  0  0  0  0  0  0  0
  160.8230  202.3240  150.5080 C   0  0  0  0  0  0  0  0  0  0  0  0
  160.6610  203.3560  148.2280 C   0  0  2  0  0  3  0  0  0  0  0  0
  160.5120  201.9430  147.6320 C   0  0  1  0  0  3  0  0  0  0  0  0
  160.9090  202.4740  151.7540 O   0  0  0  0  0  0  0  0  0  0  0  0
  161.6290  199.8340  147.9890 O   0  0  0  0  0  0  0  0  0  0  0  0
  161.3130  201.1240  149.9010 N   0  0  0  0  0  2  0  0  0  0  0  0
  160.4600  200.6120  145.5370 C   0  0  0  0  0  2  0  0  0  0  0  0
  160.9650  201.8930  146.1720 C   0  0  0  0  0  3  0  0  0  0  0  0
  159.7550  201.9190  145.2550 C   0  0  0  0  0  2  0  0  0  0  0  0
  161.0610  206.2530  147.9250 C   0  0  0  0  0  2  0  0  0  0  0  0
  162.2220  207.1960  148.2380 C   0  0  0  0  0  2  0  0  0  0  0  0
  161.9930  205.7400  150.7090 F   0  0  0  0  0  0  0  0  0  0  0  0
  162.0510  207.8500  149.5700 C   0  0  0  0  0  0  0  0  0  0  0  0
  161.9860  209.2440  149.6480 C   0  0  0  0  0  3  0  0  0  0  0  0
  161.7010  209.1440  152.0100 C   0  0  0  0  0  0  0  0  0  0  0  0
  161.7550  207.7440  151.9670 C   0  0  0  0  0  3  0  0  0  0  0  0
  161.9350  207.0960  150.7440 C   0  0  0  0  0  0  0  0  0  0  0  0
  161.8160  209.8530  150.8520 N   0  0  0  0  0  0  0  0  0  0  0  0
  160.4690  211.4570  154.8810 C   0  0  0  0  0  1  0  0  0  0  0  0
  159.5090  210.9570  152.7700 O   0  0  0  0  0  0  0  0  0  0  0  0
  161.5270  209.8510  153.2480 N   0  0  0  0  0  2  0  0  0  0  0  0
  160.4630  210.7590  153.5680 C   0  0  0  0  0  0  0  0  0  0  0  0
  1  6  1  0  0  0  0
  1 19  1  0  0  0  0
  2  3  2  0  0  0  0
  3  1  1  0  0  0  0
  4  3  1  0  0  0  0
  5  4  1  0  0  0  0
  6  7  1  0  0  0  0
  8 10  1  0  0  0  0
  9 15  1  0  0  0  0
 10 13  2  0  0  0  0
 11  7  1  1  0  0  0
 11  8  1  0  0  0  0
 12 17  1  6  0  0  0
 12 11  1  0  0  0  0
 12  9  1  0  0  0  0
 14  9  2  0  0  0  0
 15 10  1  0  0  0  0
 16 17  1  0  0  0  0
 18 16  1  0  0  0  0
 18 17  1  0  0  0  0
 19 20  1  0  0  0  0
 20 22  1  0  0  0  0
 21 26  1  0  0  0  0
 22 23  2  0  0  0  0
 22 26  1  0  0  0  0
 23 27  1  0  0  0  0
 24 30  1  0  0  0  0
 25 24  1  0  0  0  0
 26 25  2  0  0  0  0
 27 24  2  0  0  0  0
 29 31  2  0  0  0  0
 30 31  1  0  0  0  0
 31 28  1  0  0  0  0
M  END
>  <MODEL>
7

>  <REMARK>
 VINA RESULT:      -6.6      2.397      8.772
  Name = 
  9 active torsions:
  status: ('A' for Active; 'I' for Inactive)
    1  A    between atoms: N_2  and  N_3
    2  A    between atoms: N_2  and  N_9
    3  A    between atoms: N_3  and  C_15
    4  A    between atoms: C_7  and  C_27
    5  A    between atoms: N_9  and  C_25
    6  A    between atoms: C_10  and  C_14
    7  A    between atoms: C_14  and  C_25
    8  A    between atoms: N_17  and  C_19
    9  A    between atoms: C_18  and  C_26
                            x       y       z     vdW  Elec       q    Type
                         _______ _______ _______ _____ _____    ______ ____

>  <TORSDO>
F 9

$$$$
=
 OpenBabel11042420293D

 31 33  0  0  1  0  0  0  0  0999 V2000
  161.7380  211.0570  149.9990 N   0  0  0  0  0  0  0  0  0  0  0  0
  162.6890  211.7500  147.9700 O   0  0  0  0  0  0  0  0  0  0  0  0
  161.9640  212.0320  148.9640 C   0  0  0  0  0  0  0  0  0  0  0  0
  161.3220  213.3780  149.0300 C   0  0  0  0  0  2  0  0  0  0  0  0
  159.9420  213.3230  148.4040 C   0  0  0  0  0  1  0  0  0  0  0  0
  160.8340  211.3260  151.0390 N   0  0  0  0  0  2  0  0  0  0  0  0
  161.2500  210.5800  152.1510 N   0  0  0  0  0  2  0  0  0  0  0  0
  158.9560  211.1570  152.7550 C   0  0  0  0  0  2  0  0  0  0  0  0
  160.6920  210.9260  155.1080 C   0  0  0  0  0  0  0  0  0  0  0  0
  159.2880  212.3450  153.6150 C   0  0  0  0  0  0  0  0  0  0  0  0
  160.0520  210.0910  152.8210 C   0  0  2  0  0  3  0  0  0  0  0  0
  160.3460  209.7090  154.2840 C   0  0  1  0  0  3  0  0  0  0  0  0
  158.7890  213.4680  153.3470 O   0  0  0  0  0  0  0  0  0  0  0  0
  161.4130  210.8260  156.1390 O   0  0  0  0  0  0  0  0  0  0  0  0
  160.1300  212.1960  154.7630 N   0  0  0  0  0  2  0  0  0  0  0  0
  161.0000  207.6160  155.4490 C   0  0  0  0  0  2  0  0  0  0  0  0
  161.4080  208.6140  154.3810 C   0  0  0  0  0  3  0  0  0  0  0  0
  160.8070  207.2760  153.9880 C   0  0  0  0  0  2  0  0  0  0  0  0
  162.3240  209.7230  149.9170 C   0  0  0  0  0  2  0  0  0  0  0  0
  161.8000  208.9620  148.7000 C   0  0  0  0  0  2  0  0  0  0  0  0
  160.9790  207.0160  146.7480 F   0  0  0  0  0  0  0  0  0  0  0  0
  161.5270  207.5300  149.0250 C   0  0  0  0  0  0  0  0  0  0  0  0
  161.6620  207.0870  150.3440 C   0  0  0  0  0  2  0  0  0  0  0  0
  161.0060  204.8850  149.7180 C   0  0  0  0  0  0  0  0  0  0  0  0
  160.8540  205.2970  148.3880 C   0  0  0  0  0  2  0  0  0  0  0  0
  161.1200  206.6230  148.0400 C   0  0  0  0  0  0  0  0  0  0  0  0
  161.4020  205.7890  150.6580 N   0  0  0  0  0  0  0  0  0  0  0  0
  160.4660  201.0370  149.8450 C   0  0  0  0  0  1  0  0  0  0  0  0
  161.2090  202.4430  148.0840 O   0  0  0  0  0  0  0  0  0  0  0  0
  160.7520  203.5290  150.1180 N   0  0  0  0  0  2  0  0  0  0  0  0
  160.8230  202.3660  149.2810 C   0  0  0  0  0  0  0  0  0  0  0  0
  1  6  1  0  0  0  0
  2  3  2  0  0  0  0
  3  4  1  0  0  0  0
  3  1  1  0  0  0  0
  5  4  1  0  0  0  0
  6  7  1  0  0  0  0
  8 11  1  0  0  0  0
  8 10  1  0  0  0  0
  9 14  2  0  0  0  0
 10 15  1  0  0  0  0
 11  7  1  1  0  0  0
 11 12  1  0  0  0  0
 12 17  1  6  0  0  0
 12  9  1  0  0  0  0
 13 10  2  0  0  0  0
 15  9  1  0  0  0  0
 17 16  1  0  0  0  0
 18 17  1  0  0  0  0
 18 16  1  0  0  0  0
 19  1  1  0  0  0  0
 20 22  1  0  0  0  0
 20 19  1  0  0  0  0
 21 26  1  0  0  0  0
 22 23  1  0  0  0  0
 23 27  1  0  0  0  0
 24 30  1  0  0  0  0
 24 27  2  0  0  0  0
 25 24  1  0  0  0  0
 26 25  1  0  0  0  0
 26 22  2  0  0  0  0
 29 31  2  0  0  0  0
 31 28  1  0  0  0  0
 31 30  1  0  0  0  0
M  END
>  <MODEL>
8

>  <REMARK>
 VINA RESULT:      -6.5      1.730      2.074
  Name = 
  9 active torsions:
  status: ('A' for Active; 'I' for Inactive)
    1  A    between atoms: N_2  and  N_3
    2  A    between atoms: N_2  and  N_9
    3  A    between atoms: N_3  and  C_15
    4  A    between atoms: C_7  and  C_27
    5  A    between atoms: N_9  and  C_25
    6  A    between atoms: C_10  and  C_14
    7  A    between atoms: C_14  and  C_25
    8  A    between atoms: N_17  and  C_19
    9  A    between atoms: C_18  and  C_26
                            x       y       z     vdW  Elec       q    Type
                         _______ _______ _______ _____ _____    ______ ____

>  <TORSDO>
F 9

$$$$
=
 OpenBabel11042420293D

 31 33  0  0  1  0  0  0  0  0999 V2000
  160.8420  208.6410  153.4490 N   0  0  0  0  0  0  0  0  0  0  0  0
  160.9920  206.3530  153.9430 O   0  0  0  0  0  0  0  0  0  0  0  0
  160.9060  207.5370  154.3710 C   0  0  0  0  0  0  0  0  0  0  0  0
  160.9050  207.7730  155.8450 C   0  0  0  0  0  2  0  0  0  0  0  0
  159.7060  207.0930  156.4770 C   0  0  0  0  0  1  0  0  0  0  0  0
  160.8720  209.9620  153.9230 N   0  0  0  0  0  2  0  0  0  0  0  0
  159.8190  210.6480  153.3030 N   0  0  0  0  0  2  0  0  0  0  0  0
  160.1740  211.9560  155.3330 C   0  0  0  0  0  2  0  0  0  0  0  0
  157.3620  211.9540  154.5000 C   0  0  0  0  0  0  0  0  0  0  0  0
  159.1040  211.3010  156.1600 C   0  0  0  0  0  0  0  0  0  0  0  0
  159.7940  211.9980  153.8520 C   0  0  2  0  0  3  0  0  0  0  0  0
  158.4110  212.6510  153.6680 C   0  0  1  0  0  3  0  0  0  0  0  0
  159.4040  210.7640  157.2580 O   0  0  0  0  0  0  0  0  0  0  0  0
  156.1460  211.9760  154.1620 O   0  0  0  0  0  0  0  0  0  0  0  0
  157.7380  211.3270  155.7310 N   0  0  0  0  0  2  0  0  0  0  0  0
  157.3600  214.0870  151.9370 C   0  0  0  0  0  2  0  0  0  0  0  0
  158.0210  212.7460  152.1920 C   0  0  0  0  0  3  0  0  0  0  0  0
  158.7980  213.8660  151.5240 C   0  0  0  0  0  2  0  0  0  0  0  0
  160.8910  208.4200  152.0070 C   0  0  0  0  0  2  0  0  0  0  0  0
  162.1980  207.7470  151.5940 C   0  0  0  0  0  2  0  0  0  0  0  0
  161.0990  205.1600  150.9820 F   0  0  0  0  0  0  0  0  0  0  0  0
  162.1140  207.1910  150.2100 C   0  0  0  0  0  0  0  0  0  0  0  0
  162.5980  207.9440  149.1370 C   0  0  0  0  0  2  0  0  0  0  0  0
  162.0240  206.2120  147.6060 C   0  0  0  0  0  0  0  0  0  0  0  0
  161.5380  205.4280  148.6600 C   0  0  0  0  0  2  0  0  0  0  0  0
  161.5790  205.9200  149.9650 C   0  0  0  0  0  0  0  0  0  0  0  0
  162.5420  207.4440  147.8730 N   0  0  0  0  0  0  0  0  0  0  0  0
  160.9790  205.1420  144.0180 C   0  0  0  0  0  1  0  0  0  0  0  0
  159.7400  206.1900  145.7480 O   0  0  0  0  0  0  0  0  0  0  0  0
  161.9930  205.7470  146.2470 N   0  0  0  0  0  2  0  0  0  0  0  0
  160.8480  205.7160  145.3830 C   0  0  0  0  0  0  0  0  0  0  0  0
  1  6  1  0  0  0  0
  1  3  1  0  0  0  0
  2  3  2  0  0  0  0
  3  4  1  0  0  0  0
  4  5  1  0  0  0  0
  7  6  1  0  0  0  0
  8 10  1  0  0  0  0
  9 15  1  0  0  0  0
 10 13  2  0  0  0  0
 11  7  1  1  0  0  0
 11  8  1  0  0  0  0
 12 17  1  6  0  0  0
 12 11  1  0  0  0  0
 12  9  1  0  0  0  0
 14  9  2  0  0  0  0
 15 10  1  0  0  0  0
 16 17  1  0  0  0  0
 18 16  1  0  0  0  0
 18 17  1  0  0  0  0
 19  1  1  0  0  0  0
 20 19  1  0  0  0  0
 22 20  1  0  0  0  0
 23 22  1  0  0  0  0
 24 27  2  0  0  0  0
 24 25  1  0  0  0  0
 25 26  1  0  0  0  0
 26 22  2  0  0  0  0
 26 21  1  0  0  0  0
 27 23  1  0  0  0  0
 28 31  1  0  0  0  0
 30 24  1  0  0  0  0
 31 29  2  0  0  0  0
 31 30  1  0  0  0  0
M  END
>  <MODEL>
9

>  <REMARK>
 VINA RESULT:      -6.5      2.692      4.672
  Name = 
  9 active torsions:
  status: ('A' for Active; 'I' for Inactive)
    1  A    between atoms: N_2  and  N_3
    2  A    between atoms: N_2  and  N_9
    3  A    between atoms: N_3  and  C_15
    4  A    between atoms: C_7  and  C_27
    5  A    between atoms: N_9  and  C_25
    6  A    between atoms: C_10  and  C_14
    7  A    between atoms: C_14  and  C_25
    8  A    between atoms: N_17  and  C_19
    9  A    between atoms: C_18  and  C_26
                            x       y       z     vdW  Elec       q    Type
                         _______ _______ _______ _____ _____    ______ ____

>  <TORSDO>
F 9

$$$$
