=
 OpenBabel11052409503D

 26 29  0  0  0  0  0  0  0  0999 V2000
  160.8100  204.8890  148.1660 C   0  0  0  0  0  3  0  0  0  0  0  0
  161.4330  206.7610  149.5960 C   0  0  0  0  0  0  0  0  0  0  0  0
  162.2230  210.2260  149.0960 C   0  0  0  0  0  0  0  0  0  0  0  0
  161.6670  203.5250  151.5900 C   0  0  0  0  0  1  0  0  0  0  0  0
  160.2140  209.2550  154.2630 C   0  0  0  0  0  3  0  0  0  0  0  0
  161.7310  208.1640  149.7030 N   0  0  0  0  0  0  0  0  0  0  0  0
  162.5930  211.3080  148.3070 O   0  0  0  0  0  1  0  0  0  0  0  0
  161.4420  204.4840  150.4660 C   0  0  0  0  0  0  0  0  0  0  0  0
  160.8090  202.6430  149.0150 O   0  0  0  0  0  1  0  0  0  0  0  0
  160.4800  207.9940  154.7940 C   0  0  0  0  0  0  0  0  0  0  0  0
  161.0240  206.2520  148.3520 C   0  0  0  0  0  3  0  0  0  0  0  0
  161.0970  207.0270  153.9900 C   0  0  0  0  0  3  0  0  0  0  0  0
  161.6140  208.9800  150.7770 C   0  0  0  0  0  0  0  0  0  0  0  0
  161.0200  204.0020  149.2190 C   0  0  0  0  0  0  0  0  0  0  0  0
  161.6340  205.8640  150.6680 C   0  0  0  0  0  0  0  0  0  0  0  0
  160.5650  209.5470  152.9450 C   0  0  0  0  0  3  0  0  0  0  0  0
  162.1010  208.9320  148.6550 C   0  0  0  0  0  3  0  0  0  0  0  0
  161.1730  208.5810  152.1270 C   0  0  0  0  0  0  0  0  0  0  0  0
  161.4330  207.3030  152.6600 C   0  0  0  0  0  0  0  0  0  0  0  0
  162.0520  206.2890  151.9310 O   0  0  0  0  0  0  0  0  0  0  0  0
  161.9130  210.2930  150.4360 C   0  0  0  0  0  3  0  0  0  0  0  0
  160.1230  207.7150  156.1490 N   0  0  0  0  0  2  0  0  0  0  0  0
  160.5070  208.5730  157.2610 C   0  0  0  0  0  2  0  0  0  0  0  0
  161.9650  208.9690  157.1260 C   0  0  0  0  0  2  0  0  0  0  0  0
  162.0890  210.3570  157.2050 O   0  0  0  0  0  0  0  0  0  0  0  0
  163.0480  210.6770  156.2450 C   0  0  0  0  0  1  0  0  0  0  0  0
  1 11  2  0  0  0  0
  1 14  1  0  0  0  0
  2  6  1  0  0  0  0
  2 15  2  0  0  0  0
  3 21  1  0  0  0  0
  5 10  1  0  0  0  0
  6 13  1  0  0  0  0
  7  3  1  0  0  0  0
  8 15  1  0  0  0  0
  8  4  1  0  0  0  0
  9 14  1  0  0  0  0
 10 22  1  0  0  0  0
 11  2  1  0  0  0  0
 12 10  2  0  0  0  0
 13 18  1  0  0  0  0
 14  8  2  0  0  0  0
 15 20  1  0  0  0  0
 16  5  2  0  0  0  0
 17  3  2  0  0  0  0
 17  6  1  0  0  0  0
 18 19  2  0  0  0  0
 18 16  1  0  0  0  0
 19 12  1  0  0  0  0
 20 19  1  0  0  0  0
 21 13  2  0  0  0  0
 22 23  1  0  0  0  0
 24 25  1  0  0  0  0
 24 23  1  0  0  0  0
 26 25  1  0  0  0  0
M  END
>  <MODEL>
1

>  <REMARK>
 VINA RESULT:      -8.4      0.000      0.000
  Name = 
  4 active torsions:
  status: ('A' for Active; 'I' for Inactive)
    1  A    between atoms: C_8  and  O_12
    2  A    between atoms: C_8  and  C_18
    3  A    between atoms: C_11  and  N_20
    4  A    between atoms: C_18  and  N_20
                            x       y       z     vdW  Elec       q    Type
                         _______ _______ _______ _____ _____    ______ ____

>  <TORSDO>
F 4

$$$$
=
 OpenBabel11052409503D

 26 29  0  0  0  0  0  0  0  0999 V2000
  160.0900  212.4120  151.7100 C   0  0  0  0  0  3  0  0  0  0  0  0
  160.8920  210.1250  151.9580 C   0  0  0  0  0  0  0  0  0  0  0  0
  160.9960  207.7100  154.6110 C   0  0  0  0  0  0  0  0  0  0  0  0
  162.2070  211.5700  148.6890 C   0  0  0  0  0  1  0  0  0  0  0  0
  160.9600  205.2610  149.5440 C   0  0  0  0  0  3  0  0  0  0  0  0
  161.0160  208.9630  152.7970 N   0  0  0  0  0  0  0  0  0  0  0  0
  160.9350  207.3400  155.9490 O   0  0  0  0  0  1  0  0  0  0  0  0
  161.4950  211.4410  149.9970 C   0  0  0  0  0  0  0  0  0  0  0  0
  160.6730  213.7150  149.7790 O   0  0  0  0  0  1  0  0  0  0  0  0
  161.5540  205.9850  148.5120 C   0  0  0  0  0  0  0  0  0  0  0  0
  160.1670  211.2280  152.4390 C   0  0  0  0  0  3  0  0  0  0  0  0
  161.9950  207.2920  148.7560 C   0  0  0  0  0  3  0  0  0  0  0  0
  161.1520  207.6640  152.4380 C   0  0  0  0  0  0  0  0  0  0  0  0
  160.7540  212.5240  150.4910 C   0  0  0  0  0  0  0  0  0  0  0  0
  161.5550  210.2320  150.7160 C   0  0  0  0  0  0  0  0  0  0  0  0
  160.8120  205.8350  150.8070 C   0  0  0  0  0  3  0  0  0  0  0  0
  160.9120  208.9970  154.1430 C   0  0  0  0  0  3  0  0  0  0  0  0
  161.2400  207.1490  151.0590 C   0  0  0  0  0  0  0  0  0  0  0  0
  161.8320  207.8850  150.0140 C   0  0  0  0  0  0  0  0  0  0  0  0
  162.3060  209.1850  150.1750 O   0  0  0  0  0  0  0  0  0  0  0  0
  161.1410  206.8390  153.5550 C   0  0  0  0  0  3  0  0  0  0  0  0
  161.7060  205.3780  147.2280 N   0  0  0  0  0  2  0  0  0  0  0  0
  161.5970  203.9420  147.0140 C   0  0  0  0  0  2  0  0  0  0  0  0
  161.5440  203.6450  145.5270 C   0  0  0  0  0  2  0  0  0  0  0  0
  160.7710  202.5050  145.2980 O   0  0  0  0  0  0  0  0  0  0  0  0
  160.8710  201.7730  146.4800 C   0  0  0  0  0  1  0  0  0  0  0  0
  1 11  1  0  0  0  0
  2 11  2  0  0  0  0
  2  6  1  0  0  0  0
  3  7  1  0  0  0  0
  4  8  1  0  0  0  0
  5 16  1  0  0  0  0
  6 17  1  0  0  0  0
  8 14  1  0  0  0  0
  8 15  2  0  0  0  0
  9 14  1  0  0  0  0
 10 12  1  0  0  0  0
 10  5  2  0  0  0  0
 12 19  2  0  0  0  0
 13  6  1  0  0  0  0
 13 21  2  0  0  0  0
 14  1  2  0  0  0  0
 15  2  1  0  0  0  0
 16 18  2  0  0  0  0
 17  3  2  0  0  0  0
 18 13  1  0  0  0  0
 19 20  1  0  0  0  0
 19 18  1  0  0  0  0
 20 15  1  0  0  0  0
 21  3  1  0  0  0  0
 22 10  1  0  0  0  0
 23 22  1  0  0  0  0
 24 23  1  0  0  0  0
 25 24  1  0  0  0  0
 25 26  1  0  0  0  0
M  END
>  <MODEL>
2

>  <REMARK>
 VINA RESULT:      -7.5      2.218      7.764
  Name = 
  4 active torsions:
  status: ('A' for Active; 'I' for Inactive)
    1  A    between atoms: C_8  and  O_12
    2  A    between atoms: C_8  and  C_18
    3  A    between atoms: C_11  and  N_20
    4  A    between atoms: C_18  and  N_20
                            x       y       z     vdW  Elec       q    Type
                         _______ _______ _______ _____ _____    ______ ____

>  <TORSDO>
F 4

$$$$
=
 OpenBabel11052409503D

 26 29  0  0  0  0  0  0  0  0999 V2000
  159.9560  212.2540  151.9990 C   0  0  0  0  0  3  0  0  0  0  0  0
  160.7910  209.9870  152.3130 C   0  0  0  0  0  0  0  0  0  0  0  0
  160.9400  207.6540  155.0370 C   0  0  0  0  0  0  0  0  0  0  0  0
  162.0730  211.3510  148.9960 C   0  0  0  0  0  1  0  0  0  0  0  0
  160.9180  205.0540  150.0460 C   0  0  0  0  0  3  0  0  0  0  0  0
  160.9350  208.8520  153.1850 N   0  0  0  0  0  0  0  0  0  0  0  0
  160.8890  207.3240  156.3850 O   0  0  0  0  0  1  0  0  0  0  0  0
  161.3680  211.2520  150.3100 C   0  0  0  0  0  0  0  0  0  0  0  0
  160.5130  213.5060  150.0280 O   0  0  0  0  0  1  0  0  0  0  0  0
  161.4980  205.7550  148.9900 C   0  0  0  0  0  0  0  0  0  0  0  0
  160.0520  211.0940  152.7630 C   0  0  0  0  0  3  0  0  0  0  0  0
  161.9220  207.0740  149.1930 C   0  0  0  0  0  3  0  0  0  0  0  0
  161.0880  207.5450  152.8650 C   0  0  0  0  0  0  0  0  0  0  0  0
  160.6140  212.3380  150.7750 C   0  0  0  0  0  0  0  0  0  0  0  0
  161.4480  210.0660  151.0650 C   0  0  0  0  0  0  0  0  0  0  0  0
  160.7680  205.6640  151.2910 C   0  0  0  0  0  3  0  0  0  0  0  0
  160.8360  208.9260  154.5300 C   0  0  0  0  0  3  0  0  0  0  0  0
  161.1770  206.9900  151.5010 C   0  0  0  0  0  0  0  0  0  0  0  0
  161.7550  207.7020  150.4320 C   0  0  0  0  0  0  0  0  0  0  0  0
  162.2110  209.0140  150.5520 O   0  0  0  0  0  0  0  0  0  0  0  0
  161.0930  206.7540  154.0070 C   0  0  0  0  0  3  0  0  0  0  0  0
  161.6530  205.1120  147.7230 N   0  0  0  0  0  2  0  0  0  0  0  0
  161.8940  205.8450  146.4890 C   0  0  0  0  0  2  0  0  0  0  0  0
  160.5720  206.2290  145.8510 C   0  0  0  0  0  2  0  0  0  0  0  0
  160.2840  205.3620  144.7970 O   0  0  0  0  0  0  0  0  0  0  0  0
  161.4190  205.4050  143.9890 C   0  0  0  0  0  1  0  0  0  0  0  0
  1 11  1  0  0  0  0
  2 11  2  0  0  0  0
  2  6  1  0  0  0  0
  3  7  1  0  0  0  0
  4  8  1  0  0  0  0
  5 16  1  0  0  0  0
  6 17  1  0  0  0  0
  8 14  1  0  0  0  0
  8 15  2  0  0  0  0
  9 14  1  0  0  0  0
 10 12  1  0  0  0  0
 10  5  2  0  0  0  0
 12 19  2  0  0  0  0
 13  6  1  0  0  0  0
 13 21  2  0  0  0  0
 14  1  2  0  0  0  0
 15  2  1  0  0  0  0
 16 18  2  0  0  0  0
 17  3  2  0  0  0  0
 18 13  1  0  0  0  0
 19 20  1  0  0  0  0
 19 18  1  0  0  0  0
 20 15  1  0  0  0  0
 21  3  1  0  0  0  0
 22 10  1  0  0  0  0
 23 22  1  0  0  0  0
 24 23  1  0  0  0  0
 25 24  1  0  0  0  0
 26 25  1  0  0  0  0
M  END
>  <MODEL>
3

>  <REMARK>
 VINA RESULT:      -7.4      2.321      7.606
  Name = 
  4 active torsions:
  status: ('A' for Active; 'I' for Inactive)
    1  A    between atoms: C_8  and  O_12
    2  A    between atoms: C_8  and  C_18
    3  A    between atoms: C_11  and  N_20
    4  A    between atoms: C_18  and  N_20
                            x       y       z     vdW  Elec       q    Type
                         _______ _______ _______ _____ _____    ______ ____

>  <TORSDO>
F 4

$$$$
=
 OpenBabel11052409503D

 26 29  0  0  0  0  0  0  0  0999 V2000
  161.6280  203.0930  146.1910 C   0  0  0  0  0  3  0  0  0  0  0  0
  161.1870  204.3060  148.2580 C   0  0  0  0  0  0  0  0  0  0  0  0
  160.8620  203.4440  151.7260 C   0  0  0  0  0  0  0  0  0  0  0  0
  160.4630  206.5780  145.2870 C   0  0  0  0  0  1  0  0  0  0  0  0
  162.5140  208.7790  151.0360 C   0  0  0  0  0  3  0  0  0  0  0  0
  161.0640  204.2660  149.6900 N   0  0  0  0  0  0  0  0  0  0  0  0
  160.6640  202.5390  152.7610 O   0  0  0  0  0  1  0  0  0  0  0  0
  160.8550  205.3830  146.0960 C   0  0  0  0  0  0  0  0  0  0  0  0
  161.3110  204.1470  144.0570 O   0  0  0  0  0  1  0  0  0  0  0  0
  162.0690  209.4100  149.8750 C   0  0  0  0  0  0  0  0  0  0  0  0
  161.5810  203.1390  147.5820 C   0  0  0  0  0  3  0  0  0  0  0  0
  161.3690  208.6680  148.9160 C   0  0  0  0  0  3  0  0  0  0  0  0
  161.2370  205.2640  150.5890 C   0  0  0  0  0  0  0  0  0  0  0  0
  161.2640  204.2110  145.4450 C   0  0  0  0  0  0  0  0  0  0  0  0
  160.8290  205.4450  147.5020 C   0  0  0  0  0  0  0  0  0  0  0  0
  162.2580  207.4230  151.2360 C   0  0  0  0  0  3  0  0  0  0  0  0
  160.8380  203.1330  150.3890 C   0  0  0  0  0  3  0  0  0  0  0  0
  161.5680  206.6670  150.2750 C   0  0  0  0  0  0  0  0  0  0  0  0
  161.1260  207.3020  149.0970 C   0  0  0  0  0  0  0  0  0  0  0  0
  160.4160  206.6390  148.0980 O   0  0  0  0  0  0  0  0  0  0  0  0
  161.1210  204.7860  151.8870 C   0  0  0  0  0  3  0  0  0  0  0  0
  162.3310  210.8030  149.6910 N   0  0  0  0  0  2  0  0  0  0  0  0
  161.9070  211.5370  148.5070 C   0  0  0  0  0  2  0  0  0  0  0  0
  163.0530  212.3850  147.9880 C   0  0  0  0  0  2  0  0  0  0  0  0
  162.7060  212.9530  146.7620 O   0  0  0  0  0  0  0  0  0  0  0  0
  161.3130  212.9180  146.7430 C   0  0  0  0  0  1  0  0  0  0  0  0
  1 11  1  0  0  0  0
  2  6  1  0  0  0  0
  3 21  1  0  0  0  0
  3  7  1  0  0  0  0
  4  8  1  0  0  0  0
  5 16  1  0  0  0  0
  6 17  1  0  0  0  0
  6 13  1  0  0  0  0
  8 15  2  0  0  0  0
  9 14  1  0  0  0  0
 10  5  2  0  0  0  0
 11  2  2  0  0  0  0
 12 19  2  0  0  0  0
 12 10  1  0  0  0  0
 13 21  2  0  0  0  0
 14  8  1  0  0  0  0
 14  1  2  0  0  0  0
 15 20  1  0  0  0  0
 15  2  1  0  0  0  0
 17  3  2  0  0  0  0
 18 13  1  0  0  0  0
 18 16  2  0  0  0  0
 19 18  1  0  0  0  0
 20 19  1  0  0  0  0
 22 10  1  0  0  0  0
 23 22  1  0  0  0  0
 24 23  1  0  0  0  0
 25 24  1  0  0  0  0
 26 25  1  0  0  0  0
M  END
>  <MODEL>
4

>  <REMARK>
 VINA RESULT:      -7.2      3.688      6.142
  Name = 
  4 active torsions:
  status: ('A' for Active; 'I' for Inactive)
    1  A    between atoms: C_8  and  O_12
    2  A    between atoms: C_8  and  C_18
    3  A    between atoms: C_11  and  N_20
    4  A    between atoms: C_18  and  N_20
                            x       y       z     vdW  Elec       q    Type
                         _______ _______ _______ _____ _____    ______ ____

>  <TORSDO>
F 4

$$$$
=
 OpenBabel11052409503D

 26 29  0  0  0  0  0  0  0  0999 V2000
  158.0650  212.2840  153.9780 C   0  0  0  0  0  3  0  0  0  0  0  0
  159.6830  210.4670  153.8380 C   0  0  0  0  0  0  0  0  0  0  0  0
  160.7470  207.7990  155.9890 C   0  0  0  0  0  0  0  0  0  0  0  0
  160.2900  212.9150  150.9840 C   0  0  0  0  0  1  0  0  0  0  0  0
  161.5590  206.5670  150.5580 C   0  0  0  0  0  3  0  0  0  0  0  0
  160.2550  209.2970  154.4480 N   0  0  0  0  0  0  0  0  0  0  0  0
  160.8550  207.1780  157.2260 O   0  0  0  0  0  1  0  0  0  0  0  0
  159.7040  212.2730  152.1990 C   0  0  0  0  0  0  0  0  0  0  0  0
  158.0730  214.0630  152.3660 O   0  0  0  0  0  1  0  0  0  0  0  0
  161.8140  207.6500  149.7180 C   0  0  0  0  0  0  0  0  0  0  0  0
  158.6000  211.0970  154.4740 C   0  0  0  0  0  3  0  0  0  0  0  0
  161.7280  208.9510  150.2300 C   0  0  0  0  0  3  0  0  0  0  0  0
  160.8710  208.2440  153.8590 C   0  0  0  0  0  0  0  0  0  0  0  0
  158.6140  212.8750  152.8440 C   0  0  0  0  0  0  0  0  0  0  0  0
  160.2330  211.0600  152.6800 C   0  0  0  0  0  0  0  0  0  0  0  0
  161.2260  206.7830  151.8950 C   0  0  0  0  0  3  0  0  0  0  0  0
  160.1700  209.0240  155.7680 C   0  0  0  0  0  3  0  0  0  0  0  0
  161.1240  208.0830  152.4150 C   0  0  0  0  0  0  0  0  0  0  0  0
  161.3730  209.1780  151.5650 C   0  0  0  0  0  0  0  0  0  0  0  0
  161.3170  210.5020  151.9970 O   0  0  0  0  0  0  0  0  0  0  0  0
  161.1950  207.2730  154.7980 C   0  0  0  0  0  3  0  0  0  0  0  0
  162.1640  207.4120  148.3530 N   0  0  0  0  0  2  0  0  0  0  0  0
  161.4190  206.5020  147.4940 C   0  0  0  0  0  2  0  0  0  0  0  0
  162.3370  205.4080  146.9830 C   0  0  0  0  0  2  0  0  0  0  0  0
  161.5980  204.2560  146.7120 O   0  0  0  0  0  0  0  0  0  0  0  0
  161.5810  203.5610  147.9210 C   0  0  0  0  0  1  0  0  0  0  0  0
  1 11  1  0  0  0  0
  2  6  1  0  0  0  0
  2 11  2  0  0  0  0
  3  7  1  0  0  0  0
  4  8  1  0  0  0  0
  5 16  1  0  0  0  0
  6 17  1  0  0  0  0
  8 15  2  0  0  0  0
  8 14  1  0  0  0  0
  9 14  1  0  0  0  0
 10 12  1  0  0  0  0
 10  5  2  0  0  0  0
 12 19  2  0  0  0  0
 13  6  1  0  0  0  0
 13 21  2  0  0  0  0
 14  1  2  0  0  0  0
 15  2  1  0  0  0  0
 16 18  2  0  0  0  0
 17  3  2  0  0  0  0
 18 13  1  0  0  0  0
 19 20  1  0  0  0  0
 19 18  1  0  0  0  0
 20 15  1  0  0  0  0
 21  3  1  0  0  0  0
 22 10  1  0  0  0  0
 23 22  1  0  0  0  0
 24 23  1  0  0  0  0
 25 24  1  0  0  0  0
 25 26  1  0  0  0  0
M  END
>  <MODEL>
5

>  <REMARK>
 VINA RESULT:      -7.1      2.501      7.749
  Name = 
  4 active torsions:
  status: ('A' for Active; 'I' for Inactive)
    1  A    between atoms: C_8  and  O_12
    2  A    between atoms: C_8  and  C_18
    3  A    between atoms: C_11  and  N_20
    4  A    between atoms: C_18  and  N_20
                            x       y       z     vdW  Elec       q    Type
                         _______ _______ _______ _____ _____    ______ ____

>  <TORSDO>
F 4

$$$$
=
 OpenBabel11052409503D

 26 29  0  0  0  0  0  0  0  0999 V2000
  159.7460  207.7270  155.8100 C   0  0  0  0  0  3  0  0  0  0  0  0
  160.8920  207.1170  153.7480 C   0  0  0  0  0  0  0  0  0  0  0  0
  161.5080  204.0720  151.9530 C   0  0  0  0  0  0  0  0  0  0  0  0
  161.7860  210.7030  154.6700 C   0  0  0  0  0  1  0  0  0  0  0  0
  161.5430  208.5560  148.5530 C   0  0  0  0  0  3  0  0  0  0  0  0
  161.2360  206.0860  152.8060 N   0  0  0  0  0  0  0  0  0  0  0  0
  161.5800  202.6880  151.8550 O   0  0  0  0  0  1  0  0  0  0  0  0
  161.1780  209.3380  154.7130 C   0  0  0  0  0  0  0  0  0  0  0  0
  160.0160  209.9140  156.7650 O   0  0  0  0  0  1  0  0  0  0  0  0
  161.9620  209.7550  149.1280 C   0  0  0  0  0  0  0  0  0  0  0  0
  160.0400  206.7950  154.8180 C   0  0  0  0  0  3  0  0  0  0  0  0
  162.2170  209.8030  150.5040 C   0  0  0  0  0  3  0  0  0  0  0  0
  161.5430  206.2010  151.4920 C   0  0  0  0  0  0  0  0  0  0  0  0
  160.3140  208.9970  155.7630 C   0  0  0  0  0  0  0  0  0  0  0  0
  161.4590  208.4100  153.6920 C   0  0  0  0  0  0  0  0  0  0  0  0
  161.3850  207.4180  149.3440 C   0  0  0  0  0  3  0  0  0  0  0  0
  161.2060  204.7680  153.0960 C   0  0  0  0  0  3  0  0  0  0  0  0
  161.6260  207.4590  150.7270 C   0  0  0  0  0  0  0  0  0  0  0  0
  162.0410  208.6730  151.3100 C   0  0  0  0  0  0  0  0  0  0  0  0
  162.3240  208.8040  152.6680 O   0  0  0  0  0  0  0  0  0  0  0  0
  161.7190  204.9510  150.9150 C   0  0  0  0  0  3  0  0  0  0  0  0
  162.1280  210.9080  148.3010 N   0  0  0  0  0  2  0  0  0  0  0  0
  161.5890  212.2150  148.6500 C   0  0  0  0  0  2  0  0  0  0  0  0
  161.5180  213.0900  147.4130 C   0  0  0  0  0  2  0  0  0  0  0  0
  162.6890  212.9530  146.6660 O   0  0  0  0  0  0  0  0  0  0  0  0
  162.3310  213.3520  145.3790 C   0  0  0  0  0  1  0  0  0  0  0  0
  2 11  1  0  0  0  0
  3 17  2  0  0  0  0
  4  8  1  0  0  0  0
  5 10  2  0  0  0  0
  5 16  1  0  0  0  0
  6 17  1  0  0  0  0
  6  2  1  0  0  0  0
  7  3  1  0  0  0  0
  8 14  2  0  0  0  0
 10 12  1  0  0  0  0
 11  1  2  0  0  0  0
 12 19  2  0  0  0  0
 13  6  1  0  0  0  0
 14  1  1  0  0  0  0
 14  9  1  0  0  0  0
 15  2  2  0  0  0  0
 15  8  1  0  0  0  0
 16 18  2  0  0  0  0
 18 19  1  0  0  0  0
 18 13  1  0  0  0  0
 19 20  1  0  0  0  0
 20 15  1  0  0  0  0
 21 13  2  0  0  0  0
 21  3  1  0  0  0  0
 22 23  1  0  0  0  0
 22 10  1  0  0  0  0
 24 23  1  0  0  0  0
 25 24  1  0  0  0  0
 26 25  1  0  0  0  0
M  END
>  <MODEL>
6

>  <REMARK>
 VINA RESULT:      -6.9      2.072      7.065
  Name = 
  4 active torsions:
  status: ('A' for Active; 'I' for Inactive)
    1  A    between atoms: C_8  and  O_12
    2  A    between atoms: C_8  and  C_18
    3  A    between atoms: C_11  and  N_20
    4  A    between atoms: C_18  and  N_20
                            x       y       z     vdW  Elec       q    Type
                         _______ _______ _______ _____ _____    ______ ____

>  <TORSDO>
F 4

$$$$
=
 OpenBabel11052409503D

 26 29  0  0  0  0  0  0  0  0999 V2000
  161.7680  203.6370  145.2620 C   0  0  0  0  0  3  0  0  0  0  0  0
  161.1850  203.8430  147.6190 C   0  0  0  0  0  0  0  0  0  0  0  0
  160.7070  201.5740  150.3580 C   0  0  0  0  0  0  0  0  0  0  0  0
  160.5510  207.1680  145.8720 C   0  0  0  0  0  1  0  0  0  0  0  0
  162.2380  206.6950  152.1190 C   0  0  0  0  0  3  0  0  0  0  0  0
  160.9900  203.1910  148.8860 N   0  0  0  0  0  0  0  0  0  0  0  0
  160.4830  200.3110  150.8910 O   0  0  0  0  0  1  0  0  0  0  0  0
  160.9340  205.7430  146.1120 C   0  0  0  0  0  0  0  0  0  0  0  0
  161.5300  205.5040  143.7700 O   0  0  0  0  0  1  0  0  0  0  0  0
  161.8350  207.7620  151.3160 C   0  0  0  0  0  0  0  0  0  0  0  0
  161.6470  203.0810  146.5330 C   0  0  0  0  0  3  0  0  0  0  0  0
  161.2070  207.5010  150.0920 C   0  0  0  0  0  3  0  0  0  0  0  0
  161.0880  203.7080  150.1340 C   0  0  0  0  0  0  0  0  0  0  0  0
  161.4100  204.9650  145.0470 C   0  0  0  0  0  0  0  0  0  0  0  0
  160.8350  205.1950  147.4050 C   0  0  0  0  0  0  0  0  0  0  0  0
  162.0110  205.3830  151.7030 C   0  0  0  0  0  3  0  0  0  0  0  0
  160.7610  201.8670  149.0180 C   0  0  0  0  0  3  0  0  0  0  0  0
  161.3940  205.1110  150.4710 C   0  0  0  0  0  0  0  0  0  0  0  0
  160.9950  206.1880  149.6560 C   0  0  0  0  0  0  0  0  0  0  0  0
  160.3570  206.0150  148.4290 O   0  0  0  0  0  0  0  0  0  0  0  0
  160.9190  202.7180  151.0930 C   0  0  0  0  0  3  0  0  0  0  0  0
  162.0660  209.1000  151.7620 N   0  0  0  0  0  2  0  0  0  0  0  0
  160.9890  210.0090  152.1270 C   0  0  0  0  0  2  0  0  0  0  0  0
  160.4660  209.6590  153.5080 C   0  0  0  0  0  2  0  0  0  0  0  0
  161.5230  209.6150  154.4190 O   0  0  0  0  0  0  0  0  0  0  0  0
  161.2050  208.5600  155.2720 C   0  0  0  0  0  1  0  0  0  0  0  0
  1 11  1  0  0  0  0
  2  6  1  0  0  0  0
  3  7  1  0  0  0  0
  3 21  1  0  0  0  0
  4  8  1  0  0  0  0
  6 17  1  0  0  0  0
  6 13  1  0  0  0  0
  8 15  2  0  0  0  0
  9 14  1  0  0  0  0
 10 22  1  0  0  0  0
 10  5  2  0  0  0  0
 11  2  2  0  0  0  0
 12 10  1  0  0  0  0
 13 18  1  0  0  0  0
 13 21  2  0  0  0  0
 14  1  2  0  0  0  0
 14  8  1  0  0  0  0
 15  2  1  0  0  0  0
 15 20  1  0  0  0  0
 16  5  1  0  0  0  0
 17  3  2  0  0  0  0
 18 16  2  0  0  0  0
 19 12  2  0  0  0  0
 19 18  1  0  0  0  0
 20 19  1  0  0  0  0
 22 23  1  0  0  0  0
 23 24  1  0  0  0  0
 24 25  1  0  0  0  0
 25 26  1  0  0  0  0
M  END
>  <MODEL>
7

>  <REMARK>
 VINA RESULT:      -6.9      2.489      5.337
  Name = 
  4 active torsions:
  status: ('A' for Active; 'I' for Inactive)
    1  A    between atoms: C_8  and  O_12
    2  A    between atoms: C_8  and  C_18
    3  A    between atoms: C_11  and  N_20
    4  A    between atoms: C_18  and  N_20
                            x       y       z     vdW  Elec       q    Type
                         _______ _______ _______ _____ _____    ______ ____

>  <TORSDO>
F 4

$$$$
=
 OpenBabel11052409503D

 26 29  0  0  0  0  0  0  0  0999 V2000
  160.7040  205.1680  148.7330 C   0  0  0  0  0  3  0  0  0  0  0  0
  161.3480  207.2270  149.8660 C   0  0  0  0  0  0  0  0  0  0  0  0
  162.3160  210.5290  148.8460 C   0  0  0  0  0  0  0  0  0  0  0  0
  161.3440  204.3600  152.3740 C   0  0  0  0  0  1  0  0  0  0  0  0
  160.0350  210.5050  153.9910 C   0  0  0  0  0  3  0  0  0  0  0  0
  161.7040  208.6160  149.7570 N   0  0  0  0  0  0  0  0  0  0  0  0
  162.7700  211.4490  147.9110 O   0  0  0  0  0  1  0  0  0  0  0  0
  161.2130  205.1270  151.0980 C   0  0  0  0  0  0  0  0  0  0  0  0
  160.5630  203.0950  149.9380 O   0  0  0  0  0  1  0  0  0  0  0  0
  160.2190  209.3410  154.7350 C   0  0  0  0  0  0  0  0  0  0  0  0
  160.9710  206.5340  148.7030 C   0  0  0  0  0  3  0  0  0  0  0  0
  160.8270  208.2310  154.1340 C   0  0  0  0  0  3  0  0  0  0  0  0
  161.5760  209.6030  150.6750 C   0  0  0  0  0  0  0  0  0  0  0  0
  160.8260  204.4600  149.9260 C   0  0  0  0  0  0  0  0  0  0  0  0
  161.4590  206.5130  151.0800 C   0  0  0  0  0  0  0  0  0  0  0  0
  160.4580  210.5610  152.6630 C   0  0  0  0  0  3  0  0  0  0  0  0
  162.1550  209.1840  148.6180 C   0  0  0  0  0  3  0  0  0  0  0  0
  161.0570  209.4500  152.0470 C   0  0  0  0  0  0  0  0  0  0  0  0
  161.2350  208.2700  152.7960 C   0  0  0  0  0  0  0  0  0  0  0  0
  161.8380  207.1260  152.2770 O   0  0  0  0  0  0  0  0  0  0  0  0
  161.9490  210.8280  150.1390 C   0  0  0  0  0  3  0  0  0  0  0  0
  159.7890  209.3040  156.0970 N   0  0  0  0  0  2  0  0  0  0  0  0
  160.3290  210.1880  157.1210 C   0  0  0  0  0  2  0  0  0  0  0  0
  159.4460  211.4140  157.2610 C   0  0  0  0  0  2  0  0  0  0  0  0
  158.1590  211.1270  156.8040 O   0  0  0  0  0  0  0  0  0  0  0  0
  157.6540  212.3570  156.3860 C   0  0  0  0  0  1  0  0  0  0  0  0
  1 14  1  0  0  0  0
  2 15  2  0  0  0  0
  3 21  1  0  0  0  0
  5 10  1  0  0  0  0
  6  2  1  0  0  0  0
  6 13  1  0  0  0  0
  7  3  1  0  0  0  0
  8  4  1  0  0  0  0
 10 22  1  0  0  0  0
 11  1  2  0  0  0  0
 11  2  1  0  0  0  0
 12 10  2  0  0  0  0
 13 18  1  0  0  0  0
 14  9  1  0  0  0  0
 14  8  2  0  0  0  0
 15  8  1  0  0  0  0
 15 20  1  0  0  0  0
 16  5  2  0  0  0  0
 17  3  2  0  0  0  0
 17  6  1  0  0  0  0
 18 16  1  0  0  0  0
 18 19  2  0  0  0  0
 19 12  1  0  0  0  0
 20 19  1  0  0  0  0
 21 13  2  0  0  0  0
 22 23  1  0  0  0  0
 23 24  1  0  0  0  0
 25 24  1  0  0  0  0
 26 25  1  0  0  0  0
M  END
>  <MODEL>
8

>  <REMARK>
 VINA RESULT:      -6.7      1.572      1.773
  Name = 
  4 active torsions:
  status: ('A' for Active; 'I' for Inactive)
    1  A    between atoms: C_8  and  O_12
    2  A    between atoms: C_8  and  C_18
    3  A    between atoms: C_11  and  N_20
    4  A    between atoms: C_18  and  N_20
                            x       y       z     vdW  Elec       q    Type
                         _______ _______ _______ _____ _____    ______ ____

>  <TORSDO>
F 4

$$$$
=
 OpenBabel11052409503D

 26 29  0  0  0  0  0  0  0  0999 V2000
  161.8810  203.6270  145.3510 C   0  0  0  0  0  3  0  0  0  0  0  0
  161.2090  203.7690  147.6890 C   0  0  0  0  0  0  0  0  0  0  0  0
  160.7610  201.4400  150.3820 C   0  0  0  0  0  0  0  0  0  0  0  0
  160.4570  207.0790  145.9610 C   0  0  0  0  0  1  0  0  0  0  0  0
  161.9550  206.6110  152.2560 C   0  0  0  0  0  3  0  0  0  0  0  0
  161.0070  203.0900  148.9400 N   0  0  0  0  0  0  0  0  0  0  0  0
  160.5870  200.1600  150.8920 O   0  0  0  0  0  1  0  0  0  0  0  0
  160.9080  205.6740  146.1960 C   0  0  0  0  0  0  0  0  0  0  0  0
  161.5950  205.4990  143.8740 O   0  0  0  0  0  1  0  0  0  0  0  0
  161.5230  207.6650  151.4530 C   0  0  0  0  0  0  0  0  0  0  0  0
  161.7480  203.0470  146.6100 C   0  0  0  0  0  3  0  0  0  0  0  0
  160.9520  207.3880  150.2040 C   0  0  0  0  0  3  0  0  0  0  0  0
  161.0350  203.5940  150.1970 C   0  0  0  0  0  0  0  0  0  0  0  0
  161.4610  204.9370  145.1390 C   0  0  0  0  0  0  0  0  0  0  0  0
  160.7950  205.1030  147.4790 C   0  0  0  0  0  0  0  0  0  0  0  0
  161.8130  205.2940  151.8170 C   0  0  0  0  0  3  0  0  0  0  0  0
  160.8450  201.7540  149.0480 C   0  0  0  0  0  3  0  0  0  0  0  0
  161.2540  205.0060  150.5620 C   0  0  0  0  0  0  0  0  0  0  0  0
  160.8250  206.0720  149.7460 C   0  0  0  0  0  0  0  0  0  0  0  0
  160.2390  205.8830  148.4960 O   0  0  0  0  0  0  0  0  0  0  0  0
  160.8870  202.5830  151.1380 C   0  0  0  0  0  3  0  0  0  0  0  0
  161.6670  209.0070  151.9220 N   0  0  0  0  0  2  0  0  0  0  0  0
  162.5820  209.9630  151.3150 C   0  0  0  0  0  2  0  0  0  0  0  0
  161.8380  210.8160  150.3040 C   0  0  0  0  0  2  0  0  0  0  0  0
  162.2450  210.4830  149.0110 O   0  0  0  0  0  0  0  0  0  0  0  0
  161.9990  211.6320  148.2600 C   0  0  0  0  0  1  0  0  0  0  0  0
  1 11  1  0  0  0  0
  2  6  1  0  0  0  0
  3  7  1  0  0  0  0
  3 21  1  0  0  0  0
  4  8  1  0  0  0  0
  6 17  1  0  0  0  0
  6 13  1  0  0  0  0
  8 15  2  0  0  0  0
  9 14  1  0  0  0  0
 10 22  1  0  0  0  0
 10  5  2  0  0  0  0
 11  2  2  0  0  0  0
 12 10  1  0  0  0  0
 13 18  1  0  0  0  0
 13 21  2  0  0  0  0
 14  1  2  0  0  0  0
 14  8  1  0  0  0  0
 15  2  1  0  0  0  0
 15 20  1  0  0  0  0
 16  5  1  0  0  0  0
 17  3  2  0  0  0  0
 18 16  2  0  0  0  0
 19 12  2  0  0  0  0
 19 18  1  0  0  0  0
 20 19  1  0  0  0  0
 23 22  1  0  0  0  0
 24 23  1  0  0  0  0
 25 24  1  0  0  0  0
 26 25  1  0  0  0  0
M  END
>  <MODEL>
9

>  <REMARK>
 VINA RESULT:      -6.6      3.162      5.894
  Name = 
  4 active torsions:
  status: ('A' for Active; 'I' for Inactive)
    1  A    between atoms: C_8  and  O_12
    2  A    between atoms: C_8  and  C_18
    3  A    between atoms: C_11  and  N_20
    4  A    between atoms: C_18  and  N_20
                            x       y       z     vdW  Elec       q    Type
                         _______ _______ _______ _____ _____    ______ ____

>  <TORSDO>
F 4

$$$$
