=
 OpenBabel11042423053D

 48 53  0  0  1  0  0  0  0  0999 V2000
  161.8160  209.3190  153.9670 N   0  0  2  0  0  0  0  0  0  0  0  0
  161.8600  209.7860  152.5670 C   0  0  2  0  0  3  0  0  0  0  0  0
  160.3430  213.7260  149.1050 O   0  0  0  0  0  0  0  0  0  0  0  0
  160.6150  210.4140  152.1540 N   0  0  0  0  0  2  0  0  0  0  0  0
  159.5270  212.8450  153.5120 C   0  0  0  0  0  3  0  0  0  0  0  0
  160.9980  212.4950  149.2300 C   0  0  0  0  0  0  0  0  0  0  0  0
  160.8350  208.3120  154.3890 C   0  0  2  0  0  3  0  0  0  0  0  0
  159.4100  208.6200  153.9440 C   0  0  0  0  0  1  0  0  0  0  0  0
  159.6230  214.3990  150.1300 C   0  0  0  0  0  3  0  0  0  0  0  0
  161.3370  209.7190  156.2890 C   0  0  0  0  0  2  0  0  0  0  0  0
  160.9270  211.9170  150.3740 C   0  0  0  0  0  0  0  0  0  0  0  0
  161.4060  211.7250  154.7260 C   0  0  0  0  0  2  0  0  0  0  0  0
  159.4130  214.0370  151.4230 C   0  0  0  0  0  3  0  0  0  0  0  0
  161.9560  210.3180  155.0370 C   0  0  2  0  0  3  0  0  0  0  0  0
  160.6140  211.7250  151.6020 C   0  0  0  0  0  0  0  0  0  0  0  0
  159.8900  211.7820  154.5180 C   0  0  1  0  0  3  0  0  0  0  0  0
  159.8430  212.8350  152.2100 C   0  0  0  0  0  0  0  0  0  0  0  0
  160.8730  208.3260  155.9030 C   0  0  0  0  0  2  0  0  0  0  0  0
  161.7350  211.8900  148.1220 C   0  0  0  0  0  3  0  0  0  0  0  0
  162.9940  212.1280  147.9620 N   0  0  0  0  0  2  0  0  0  0  0  0
  162.2640  208.6740  151.6050 C   0  0  0  0  0  2  0  0  0  0  0  0
  161.1360  208.1140  150.9970 O   0  0  0  0  0  0  0  0  0  0  0  0
  161.5880  206.9900  150.3850 N   0  0  0  0  0  0  0  0  0  0  0  0
  160.8590  205.8830  150.9920 C   0  0  0  0  0  1  0  0  0  0  0  0
  160.7510  205.7580  148.5050 N   0  0  0  0  0  0  0  0  0  0  0  0
  161.5050  205.3690  147.5380 C   0  0  0  0  0  0  0  0  0  0  0  0
  162.5370  206.2740  147.1960 N   0  0  0  0  0  0  0  0  0  0  0  0
  162.3980  207.4100  148.0910 C   0  0  0  0  0  3  0  0  0  0  0  0
  161.1900  207.0670  148.9770 C   0  0  2  0  0  3  0  0  0  0  0  0
  161.2270  203.9630  145.5810 N   0  0  0  0  0  0  0  0  0  0  0  0
  161.1880  202.8730  147.5210 O   0  0  0  0  0  0  0  0  0  0  0  0
  161.3090  204.0860  146.8600 C   0  0  0  0  0  0  0  0  0  0  0  0
  161.0400  202.6110  145.2830 N   0  0  0  0  0  0  0  0  0  0  0  0
  161.0070  201.8660  146.5370 C   0  0  0  0  0  3  0  0  0  0  0  0
  159.1530  212.0040  155.8460 C   0  0  1  0  0  3  0  0  0  0  0  0
  156.8890  210.8430  155.7140 C   0  0  0  0  0  0  0  0  0  0  0  0
  158.2540  210.8920  156.1430 N   0  0  0  0  0  2  0  0  0  0  0  0
  156.3410  209.7180  155.5650 O   0  0  0  0  0  0  0  0  0  0  0  0
  155.2830  213.8950  153.9020 C   0  0  0  0  0  0  0  0  0  0  0  0
  154.5570  214.4530  154.9960 N   0  0  0  0  0  2  0  0  0  0  0  0
  156.2530  212.7680  154.1230 C   0  0  0  0  0  2  0  0  0  0  0  0
  155.2120  214.4520  152.7400 N   0  0  0  0  0  2  0  0  0  0  0  0
  153.9950  214.3390  157.2510 O   0  0  0  0  0  0  0  0  0  0  0  0
  154.6200  213.8380  156.2800 C   0  0  0  0  0  0  0  0  0  0  0  0
  155.3980  212.6090  156.4630 C   0  0  0  0  0  3  0  0  0  0  0  0
  156.1120  212.0750  155.4620 C   0  0  0  0  0  0  0  0  0  0  0  0
  160.0990  213.5240  157.1450 C   0  0  0  0  0  1  0  0  0  0  0  0
  160.0770  212.1510  156.8830 O   0  0  0  0  0  0  0  0  0  0  0  0
  1  7  1  0  0  0  0
  1 14  1  0  0  0  0
  2  1  1  0  0  0  0
  3  6  1  0  0  0  0
  3  9  1  0  0  0  0
  4  2  1  0  0  0  0
  5 16  1  0  0  0  0
  6 11  2  0  0  0  0
  7 18  1  0  0  0  0
  8  7  1  0  0  0  0
  9 13  2  0  0  0  0
 11 15  2  0  0  0  0
 12 14  1  0  0  0  0
 13 17  1  0  0  0  0
 14 10  1  0  0  0  0
 15  4  1  0  0  0  0
 15 17  1  0  0  0  0
 16 12  1  0  0  0  0
 16 35  1  0  0  0  0
 17  5  2  0  0  0  0
 18 10  1  0  0  0  0
 19  6  1  0  0  0  0
 20 19  2  0  0  0  0
 21  2  1  0  0  0  0
 22 21  1  0  0  0  0
 23 24  1  0  0  0  0
 23 22  1  0  0  0  0
 25 29  1  0  0  0  0
 26 25  2  0  0  0  0
 27 26  1  0  0  0  0
 27 28  2  0  0  0  0
 28 29  1  0  0  0  0
 29 23  1  0  0  0  0
 30 32  2  0  0  0  0
 32 31  1  0  0  0  0
 32 26  1  0  0  0  0
 33 30  1  0  0  0  0
 33 34  2  0  0  0  0
 34 31  1  0  0  0  0
 35 37  1  0  0  0  0
 35 48  1  0  0  0  0
 36 37  1  0  0  0  0
 38 36  2  0  0  0  0
 39 41  1  0  0  0  0
 39 40  1  0  0  0  0
 40 44  1  0  0  0  0
 41 46  1  0  0  0  0
 42 39  2  0  0  0  0
 44 45  1  0  0  0  0
 44 43  2  0  0  0  0
 46 36  1  0  0  0  0
 46 45  2  0  0  0  0
 48 47  1  0  0  0  0
M  END
>  <MODEL>
1

>  <REMARK>
 VINA RESULT:      -5.1      0.000      0.000
  Name = 
  10 active torsions:
  status: ('A' for Active; 'I' for Inactive)
    1  A    between atoms: C_2  and  C_6
    2  A    between atoms: C_6  and  O_10
    3  A    between atoms: C_7  and  C_15
    4  A    between atoms: O_10  and  N_19
    5  A    between atoms: C_14  and  C_40
    6  A    between atoms: C_18  and  N_29
    7  A    between atoms: C_18  and  O_33
    8  A    between atoms: C_18  and  C_43
    9  A    between atoms: N_19  and  C_45
   10  A    between atoms: C_21  and  C_30
                            x       y       z     vdW  Elec       q    Type
                         _______ _______ _______ _____ _____    ______ ____

>  <TORSDO>
F 10

$$$$
=
 OpenBabel11042423053D

 48 53  0  0  1  0  0  0  0  0999 V2000
  160.8110  205.7790  151.8080 N   0  0  2  0  0  0  0  0  0  0  0  0
  160.7750  207.2230  152.1170 C   0  0  2  0  0  3  0  0  0  0  0  0
  161.3340  212.2590  150.0830 O   0  0  0  0  0  0  0  0  0  0  0  0
  161.7950  207.9690  151.3950 N   0  0  0  0  0  2  0  0  0  0  0  0
  161.8970  208.0470  148.4080 C   0  0  0  0  0  3  0  0  0  0  0  0
  161.0940  211.5060  151.2390 C   0  0  0  0  0  0  0  0  0  0  0  0
  162.0100  204.9810  152.0990 C   0  0  2  0  0  3  0  0  0  0  0  0
  163.3020  205.6100  151.5920 C   0  0  0  0  0  1  0  0  0  0  0  0
  161.6850  211.7430  148.8060 C   0  0  0  0  0  3  0  0  0  0  0  0
  160.8800  203.9860  150.2070 C   0  0  0  0  0  2  0  0  0  0  0  0
  161.2190  210.2330  151.1350 C   0  0  0  0  0  0  0  0  0  0  0  0
  160.3490  206.3240  149.3540 C   0  0  0  0  0  2  0  0  0  0  0  0
  161.8550  210.4550  148.4080 C   0  0  0  0  0  3  0  0  0  0  0  0
  160.2440  205.3290  150.5280 C   0  0  2  0  0  3  0  0  0  0  0  0
  161.4390  209.0910  150.5960 C   0  0  0  0  0  0  0  0  0  0  0  0
  161.7820  206.6290  148.9070 C   0  0  1  0  0  3  0  0  0  0  0  0
  161.7460  209.1540  149.1470 C   0  0  0  0  0  0  0  0  0  0  0  0
  161.8020  203.6700  151.3710 C   0  0  0  0  0  2  0  0  0  0  0  0
  160.7150  212.1270  152.5070 C   0  0  0  0  0  3  0  0  0  0  0  0
  159.5070  212.5390  152.7010 N   0  0  0  0  0  2  0  0  0  0  0  0
  160.8540  207.4890  153.6160 C   0  0  0  0  0  2  0  0  0  0  0  0
  160.6920  208.8530  153.8850 O   0  0  0  0  0  0  0  0  0  0  0  0
  161.1880  209.0260  155.1350 N   0  0  0  0  0  0  0  0  0  0  0  0
  161.9010  210.2980  155.1110 C   0  0  0  0  0  1  0  0  0  0  0  0
  158.9790  209.9240  155.3930 N   0  0  0  0  0  0  0  0  0  0  0  0
  158.7390  211.0000  156.0530 C   0  0  0  0  0  0  0  0  0  0  0  0
  159.5510  211.1820  157.1980 N   0  0  0  0  0  0  0  0  0  0  0  0
  160.4320  210.0290  157.2600 C   0  0  0  0  0  3  0  0  0  0  0  0
  160.0480  209.1730  156.0430 C   0  0  2  0  0  3  0  0  0  0  0  0
  157.6470  213.1660  156.0880 N   0  0  0  0  0  0  0  0  0  0  0  0
  156.7110  211.6760  154.7250 O   0  0  0  0  0  0  0  0  0  0  0  0
  157.7140  211.9610  155.6390 C   0  0  0  0  0  0  0  0  0  0  0  0
  156.5550  213.7970  155.4850 N   0  0  0  0  0  0  0  0  0  0  0  0
  155.9160  212.8440  154.5850 C   0  0  0  0  0  3  0  0  0  0  0  0
  162.2590  205.6300  147.8440 C   0  0  1  0  0  3  0  0  0  0  0  0
  160.8030  205.1280  145.8150 C   0  0  0  0  0  0  0  0  0  0  0  0
  161.7210  205.9630  146.5270 N   0  0  0  0  0  2  0  0  0  0  0  0
  160.0280  205.6590  144.9740 O   0  0  0  0  0  0  0  0  0  0  0  0
  161.0770  201.6310  147.5080 C   0  0  0  0  0  0  0  0  0  0  0  0
  160.6230  200.8180  146.4270 N   0  0  0  0  0  2  0  0  0  0  0  0
  161.3430  203.0970  147.3040 C   0  0  0  0  0  2  0  0  0  0  0  0
  161.3950  201.0790  148.6300 N   0  0  0  0  0  2  0  0  0  0  0  0
  159.8750  200.7030  144.2270 O   0  0  0  0  0  0  0  0  0  0  0  0
  160.2580  201.4200  145.1880 C   0  0  0  0  0  0  0  0  0  0  0  0
  160.3110  202.8780  145.0420 C   0  0  0  0  0  3  0  0  0  0  0  0
  160.7580  203.6660  146.0290 C   0  0  0  0  0  0  0  0  0  0  0  0
  163.9620  204.8870  146.6440 C   0  0  0  0  0  1  0  0  0  0  0  0
  163.6540  205.6220  147.7930 O   0  0  0  0  0  0  0  0  0  0  0  0
  1  7  1  0  0  0  0
  1  2  1  0  0  0  0
  2 21  1  0  0  0  0
  3  6  1  0  0  0  0
  4  2  1  0  0  0  0
  5 16  1  0  0  0  0
  5 17  2  0  0  0  0
  6 19  1  0  0  0  0
  8  7  1  0  0  0  0
  9  3  1  0  0  0  0
 10 14  1  0  0  0  0
 10 18  1  0  0  0  0
 11  6  2  0  0  0  0
 12 14  1  0  0  0  0
 13  9  2  0  0  0  0
 13 17  1  0  0  0  0
 14  1  1  0  0  0  0
 15 11  2  0  0  0  0
 15  4  1  0  0  0  0
 16 12  1  0  0  0  0
 17 15  1  0  0  0  0
 18  7  1  0  0  0  0
 19 20  2  0  0  0  0
 21 22  1  0  0  0  0
 22 23  1  0  0  0  0
 23 29  1  0  0  0  0
 24 23  1  0  0  0  0
 25 29  1  0  0  0  0
 25 26  2  0  0  0  0
 26 27  1  0  0  0  0
 27 28  2  0  0  0  0
 29 28  1  0  0  0  0
 31 32  1  0  0  0  0
 32 26  1  0  0  0  0
 32 30  2  0  0  0  0
 33 30  1  0  0  0  0
 34 31  1  0  0  0  0
 34 33  2  0  0  0  0
 35 16  1  0  0  0  0
 36 46  1  0  0  0  0
 36 37  1  0  0  0  0
 37 35  1  0  0  0  0
 38 36  2  0  0  0  0
 39 42  2  0  0  0  0
 40 39  1  0  0  0  0
 41 39  1  0  0  0  0
 43 44  2  0  0  0  0
 44 40  1  0  0  0  0
 45 44  1  0  0  0  0
 45 46  2  0  0  0  0
 46 41  1  0  0  0  0
 47 48  1  0  0  0  0
 48 35  1  0  0  0  0
M  END
>  <MODEL>
2

>  <REMARK>
 VINA RESULT:      -4.7      2.127     10.202
  Name = 
  10 active torsions:
  status: ('A' for Active; 'I' for Inactive)
    1  A    between atoms: C_2  and  C_6
    2  A    between atoms: C_6  and  O_10
    3  A    between atoms: C_7  and  C_15
    4  A    between atoms: O_10  and  N_19
    5  A    between atoms: C_14  and  C_40
    6  A    between atoms: C_18  and  N_29
    7  A    between atoms: C_18  and  O_33
    8  A    between atoms: C_18  and  C_43
    9  A    between atoms: N_19  and  C_45
   10  A    between atoms: C_21  and  C_30
                            x       y       z     vdW  Elec       q    Type
                         _______ _______ _______ _____ _____    ______ ____

>  <TORSDO>
F 10

$$$$
=
 OpenBabel11042423053D

 48 53  0  0  1  0  0  0  0  0999 V2000
  161.0100  209.9330  150.2810 N   0  0  2  0  0  0  0  0  0  0  0  0
  161.0500  208.4950  149.9450 C   0  0  2  0  0  3  0  0  0  0  0  0
  161.0660  203.4200  151.9560 O   0  0  0  0  0  0  0  0  0  0  0  0
  161.8530  207.7300  150.8850 N   0  0  0  0  0  2  0  0  0  0  0  0
  161.2000  207.5970  153.8000 C   0  0  0  0  0  3  0  0  0  0  0  0
  161.1270  204.1960  150.7920 C   0  0  0  0  0  0  0  0  0  0  0  0
  162.2450  210.7280  150.3160 C   0  0  2  0  0  3  0  0  0  0  0  0
  163.3670  210.0810  151.1190 C   0  0  0  0  0  1  0  0  0  0  0  0
  161.0870  203.9100  153.2900 C   0  0  0  0  0  3  0  0  0  0  0  0
  160.6780  211.6970  151.8810 C   0  0  0  0  0  2  0  0  0  0  0  0
  161.2240  205.4660  150.9490 C   0  0  0  0  0  0  0  0  0  0  0  0
  159.9450  209.3480  152.5290 C   0  0  0  0  0  2  0  0  0  0  0  0
  161.1540  205.1900  153.7430 C   0  0  0  0  0  3  0  0  0  0  0  0
  160.1410  210.3640  151.3850 C   0  0  2  0  0  3  0  0  0  0  0  0
  161.3050  206.5960  151.5480 C   0  0  0  0  0  0  0  0  0  0  0  0
  161.2180  209.0250  153.3160 C   0  0  1  0  0  3  0  0  0  0  0  0
  161.2370  206.5040  153.0250 C   0  0  0  0  0  0  0  0  0  0  0  0
  161.8650  212.0280  150.9930 C   0  0  0  0  0  2  0  0  0  0  0  0
  161.0770  203.6000  149.4580 C   0  0  0  0  0  3  0  0  0  0  0  0
  160.3580  202.5520  149.2320 N   0  0  0  0  0  2  0  0  0  0  0  0
  161.5020  208.2560  148.5090 C   0  0  0  0  0  2  0  0  0  0  0  0
  160.8800  207.1200  147.9780 O   0  0  0  0  0  0  0  0  0  0  0  0
  161.5580  206.8510  146.8340 N   0  0  0  0  0  0  0  0  0  0  0  0
  162.5710  205.8660  147.1910 C   0  0  0  0  0  1  0  0  0  0  0  0
  160.4000  204.8200  146.2970 N   0  0  0  0  0  0  0  0  0  0  0  0
  160.7720  204.0380  145.3460 C   0  0  0  0  0  0  0  0  0  0  0  0
  161.2910  204.7010  144.2090 N   0  0  0  0  0  0  0  0  0  0  0  0
  161.2250  206.1230  144.4990 C   0  0  0  0  0  3  0  0  0  0  0  0
  160.6200  206.2090  145.9090 C   0  0  2  0  0  3  0  0  0  0  0  0
  159.9260  201.8640  144.6830 N   0  0  0  0  0  0  0  0  0  0  0  0
  161.3710  201.8220  146.3750 O   0  0  0  0  0  0  0  0  0  0  0  0
  160.6750  202.5800  145.4480 C   0  0  0  0  0  0  0  0  0  0  0  0
  160.0740  200.5260  145.0570 N   0  0  0  0  0  0  0  0  0  0  0  0
  161.0160  200.4620  146.1690 C   0  0  0  0  0  3  0  0  0  0  0  0
  161.4150  210.0010  154.4830 C   0  0  1  0  0  3  0  0  0  0  0  0
  159.8930  209.5380  156.4740 C   0  0  0  0  0  0  0  0  0  0  0  0
  161.1220  209.3590  155.7630 N   0  0  0  0  0  2  0  0  0  0  0  0
  159.5110  208.6310  157.2600 O   0  0  0  0  0  0  0  0  0  0  0  0
  157.0070  211.9590  155.4830 C   0  0  0  0  0  0  0  0  0  0  0  0
  157.5040  213.1590  156.0720 N   0  0  0  0  0  2  0  0  0  0  0  0
  157.8640  210.7250  155.4210 C   0  0  0  0  0  2  0  0  0  0  0  0
  155.8680  211.9710  154.8770 N   0  0  0  0  0  2  0  0  0  0  0  0
  159.2050  214.2150  157.2580 O   0  0  0  0  0  0  0  0  0  0  0  0
  158.7550  213.1530  156.7540 C   0  0  0  0  0  0  0  0  0  0  0  0
  159.5080  211.9010  156.8840 C   0  0  0  0  0  3  0  0  0  0  0  0
  159.0810  210.7640  156.3210 C   0  0  0  0  0  0  0  0  0  0  0  0
  162.9970  210.7600  155.8290 C   0  0  0  0  0  1  0  0  0  0  0  0
  162.7260  210.4780  154.4870 O   0  0  0  0  0  0  0  0  0  0  0  0
  1  7  1  0  0  0  0
  1 14  1  0  0  0  0
  2  1  1  0  0  0  0
  2  4  1  0  0  0  0
  3  9  1  0  0  0  0
  4 15  1  0  0  0  0
  6 11  2  0  0  0  0
  6  3  1  0  0  0  0
  7 18  1  0  0  0  0
  7  8  1  0  0  0  0
  9 13  2  0  0  0  0
 11 15  2  0  0  0  0
 12 16  1  0  0  0  0
 14 10  1  0  0  0  0
 14 12  1  0  0  0  0
 15 17  1  0  0  0  0
 16  5  1  0  0  0  0
 16 35  1  0  0  0  0
 17 13  1  0  0  0  0
 17  5  2  0  0  0  0
 18 10  1  0  0  0  0
 19  6  1  0  0  0  0
 20 19  2  0  0  0  0
 21  2  1  0  0  0  0
 22 21  1  0  0  0  0
 23 24  1  0  0  0  0
 23 22  1  0  0  0  0
 26 32  1  0  0  0  0
 26 25  2  0  0  0  0
 27 28  2  0  0  0  0
 27 26  1  0  0  0  0
 28 29  1  0  0  0  0
 29 25  1  0  0  0  0
 29 23  1  0  0  0  0
 30 33  1  0  0  0  0
 30 32  2  0  0  0  0
 32 31  1  0  0  0  0
 33 34  2  0  0  0  0
 34 31  1  0  0  0  0
 35 48  1  0  0  0  0
 35 37  1  0  0  0  0
 36 38  2  0  0  0  0
 37 36  1  0  0  0  0
 39 40  1  0  0  0  0
 40 44  1  0  0  0  0
 41 39  1  0  0  0  0
 41 46  1  0  0  0  0
 42 39  2  0  0  0  0
 44 45  1  0  0  0  0
 44 43  2  0  0  0  0
 46 36  1  0  0  0  0
 46 45  2  0  0  0  0
 48 47  1  0  0  0  0
M  END
>  <MODEL>
3

>  <REMARK>
 VINA RESULT:      -2.3      2.341      5.029
  Name = 
  10 active torsions:
  status: ('A' for Active; 'I' for Inactive)
    1  A    between atoms: C_2  and  C_6
    2  A    between atoms: C_6  and  O_10
    3  A    between atoms: C_7  and  C_15
    4  A    between atoms: O_10  and  N_19
    5  A    between atoms: C_14  and  C_40
    6  A    between atoms: C_18  and  N_29
    7  A    between atoms: C_18  and  O_33
    8  A    between atoms: C_18  and  C_43
    9  A    between atoms: N_19  and  C_45
   10  A    between atoms: C_21  and  C_30
                            x       y       z     vdW  Elec       q    Type
                         _______ _______ _______ _____ _____    ______ ____

>  <TORSDO>
F 10

$$$$
=
 OpenBabel11042423053D

 48 53  0  0  1  0  0  0  0  0999 V2000
  160.7190  205.4880  152.3040 N   0  0  2  0  0  0  0  0  0  0  0  0
  160.8540  206.9520  152.4450 C   0  0  2  0  0  3  0  0  0  0  0  0
  161.6410  211.6580  149.7910 O   0  0  0  0  0  0  0  0  0  0  0  0
  161.8480  207.5050  151.5380 N   0  0  0  0  0  2  0  0  0  0  0  0
  161.6080  207.2560  148.5680 C   0  0  0  0  0  3  0  0  0  0  0  0
  161.4680  211.0600  151.0450 C   0  0  0  0  0  0  0  0  0  0  0  0
  161.8630  204.6030  152.5590 C   0  0  2  0  0  3  0  0  0  0  0  0
  163.1410  205.0330  151.8490 C   0  0  0  0  0  1  0  0  0  0  0  0
  161.7920  210.9760  148.5520 C   0  0  0  0  0  3  0  0  0  0  0  0
  160.4320  203.5390  150.9260 C   0  0  0  0  0  2  0  0  0  0  0  0
  161.4600  209.7770  151.0770 C   0  0  0  0  0  0  0  0  0  0  0  0
  160.0270  205.8170  149.8660 C   0  0  0  0  0  2  0  0  0  0  0  0
  161.7930  209.6410  148.2910 C   0  0  0  0  0  3  0  0  0  0  0  0
  159.9670  204.9680  151.1530 C   0  0  2  0  0  3  0  0  0  0  0  0
  161.5080  208.5680  150.6550 C   0  0  0  0  0  0  0  0  0  0  0  0
  161.4200  205.9190  149.2380 C   0  0  1  0  0  3  0  0  0  0  0  0
  161.6490  208.4450  149.1850 C   0  0  0  0  0  0  0  0  0  0  0  0
  161.4500  203.2510  152.0150 C   0  0  0  0  0  2  0  0  0  0  0  0
  161.2990  211.8480  152.2640 C   0  0  0  0  0  3  0  0  0  0  0  0
  160.2290  212.5470  152.4520 N   0  0  0  0  0  2  0  0  0  0  0  0
  161.1320  207.3650  153.8870 C   0  0  0  0  0  2  0  0  0  0  0  0
  160.4530  208.5480  154.2010 O   0  0  0  0  0  0  0  0  0  0  0  0
  159.7020  208.2430  155.2890 N   0  0  0  0  0  0  0  0  0  0  0  0
  160.3990  207.1550  155.9640 C   0  0  0  0  0  1  0  0  0  0  0  0
  158.5240  210.2130  155.9860 N   0  0  0  0  0  0  0  0  0  0  0  0
  158.8500  211.3930  155.5920 C   0  0  0  0  0  0  0  0  0  0  0  0
  160.2410  211.6000  155.4410 N   0  0  0  0  0  0  0  0  0  0  0  0
  160.8820  210.3480  155.8050 C   0  0  0  0  0  3  0  0  0  0  0  0
  159.7260  209.4070  156.1780 C   0  0  2  0  0  3  0  0  0  0  0  0
  156.5900  212.1900  155.2170 N   0  0  0  0  0  0  0  0  0  0  0  0
  158.1590  213.7660  155.1220 O   0  0  0  0  0  0  0  0  0  0  0  0
  157.8520  212.4280  155.3130 C   0  0  0  0  0  0  0  0  0  0  0  0
  155.9380  213.3960  154.9450 N   0  0  0  0  0  0  0  0  0  0  0  0
  156.9410  214.4530  154.8730 C   0  0  0  0  0  3  0  0  0  0  0  0
  161.6750  204.7690  148.2550 C   0  0  1  0  0  3  0  0  0  0  0  0
  162.0900  205.0610  145.7580 C   0  0  0  0  0  0  0  0  0  0  0  0
  162.4880  205.2110  147.1250 N   0  0  0  0  0  2  0  0  0  0  0  0
  162.5560  205.8580  144.9010 O   0  0  0  0  0  0  0  0  0  0  0  0
  160.4660  201.5510  145.2980 C   0  0  0  0  0  0  0  0  0  0  0  0
  159.3290  201.9260  144.5210 N   0  0  0  0  0  2  0  0  0  0  0  0
  161.5520  202.5470  145.5950 C   0  0  0  0  0  2  0  0  0  0  0  0
  160.6310  200.3140  145.6290 N   0  0  0  0  0  2  0  0  0  0  0  0
  158.1400  203.6210  143.4600 O   0  0  0  0  0  0  0  0  0  0  0  0
  159.1320  203.2900  144.1610 C   0  0  0  0  0  0  0  0  0  0  0  0
  160.0770  204.3110  144.6250 C   0  0  0  0  0  3  0  0  0  0  0  0
  161.1670  203.9870  145.3330 C   0  0  0  0  0  0  0  0  0  0  0  0
  161.5430  202.5900  148.6110 C   0  0  0  0  0  1  0  0  0  0  0  0
  162.3150  203.7160  148.9110 O   0  0  0  0  0  0  0  0  0  0  0  0
  1  2  1  0  0  0  0
  1  7  1  0  0  0  0
  2 21  1  0  0  0  0
  3  6  1  0  0  0  0
  4  2  1  0  0  0  0
  5 17  2  0  0  0  0
  5 16  1  0  0  0  0
  6 11  2  0  0  0  0
  6 19  1  0  0  0  0
  8  7  1  0  0  0  0
  9  3  1  0  0  0  0
 10 14  1  0  0  0  0
 10 18  1  0  0  0  0
 12 14  1  0  0  0  0
 13  9  2  0  0  0  0
 13 17  1  0  0  0  0
 14  1  1  0  0  0  0
 15 11  2  0  0  0  0
 15  4  1  0  0  0  0
 16 12  1  0  0  0  0
 17 15  1  0  0  0  0
 18  7  1  0  0  0  0
 19 20  2  0  0  0  0
 21 22  1  0  0  0  0
 22 23  1  0  0  0  0
 23 24  1  0  0  0  0
 23 29  1  0  0  0  0
 25 29  1  0  0  0  0
 26 25  2  0  0  0  0
 27 26  1  0  0  0  0
 27 28  2  0  0  0  0
 28 29  1  0  0  0  0
 30 32  2  0  0  0  0
 31 32  1  0  0  0  0
 32 26  1  0  0  0  0
 33 30  1  0  0  0  0
 34 33  2  0  0  0  0
 34 31  1  0  0  0  0
 35 48  1  0  0  0  0
 35 16  1  0  0  0  0
 36 37  1  0  0  0  0
 37 35  1  0  0  0  0
 38 36  2  0  0  0  0
 39 41  1  0  0  0  0
 39 42  2  0  0  0  0
 40 39  1  0  0  0  0
 43 44  2  0  0  0  0
 44 40  1  0  0  0  0
 44 45  1  0  0  0  0
 45 46  2  0  0  0  0
 46 41  1  0  0  0  0
 46 36  1  0  0  0  0
 47 48  1  0  0  0  0
M  END
>  <MODEL>
4

>  <REMARK>
 VINA RESULT:      -2.1      2.260     10.254
  Name = 
  10 active torsions:
  status: ('A' for Active; 'I' for Inactive)
    1  A    between atoms: C_2  and  C_6
    2  A    between atoms: C_6  and  O_10
    3  A    between atoms: C_7  and  C_15
    4  A    between atoms: O_10  and  N_19
    5  A    between atoms: C_14  and  C_40
    6  A    between atoms: C_18  and  N_29
    7  A    between atoms: C_18  and  O_33
    8  A    between atoms: C_18  and  C_43
    9  A    between atoms: N_19  and  C_45
   10  A    between atoms: C_21  and  C_30
                            x       y       z     vdW  Elec       q    Type
                         _______ _______ _______ _____ _____    ______ ____

>  <TORSDO>
F 10

$$$$
