=
 OpenBabel11042420593D

 46 50  0  0  1  0  0  0  0  0999 V2000
  160.9050  211.7640  151.6410 C   0  0  2  0  0  3  0  0  0  0  0  0
  163.2880  210.5160  156.5620 N   0  0  0  0  0  1  0  0  0  0  0  0
  158.4780  211.8600  154.0900 N   0  0  0  0  0  0  0  0  0  0  0  0
  161.8510  210.6390  154.5900 C   0  0  0  0  0  2  0  0  0  0  0  0
  160.1440  210.8660  152.6340 C   0  0  2  0  0  3  0  0  0  0  0  0
  159.8870  211.8520  156.1630 C   0  0  0  0  0  0  0  0  0  0  0  0
  161.0850  211.4920  156.7040 N   0  0  0  0  0  0  0  0  0  0  0  0
  162.0590  210.8940  155.9530 C   0  0  0  0  0  0  0  0  0  0  0  0
  159.6650  211.6070  154.8090 C   0  0  0  0  0  0  0  0  0  0  0  0
  158.6770  211.3600  152.7300 C   0  0  0  0  0  3  0  0  0  0  0  0
  160.6300  211.0310  154.0380 C   0  0  0  0  0  0  0  0  0  0  0  0
  159.0000  212.3850  156.8780 O   0  0  0  0  0  0  0  0  0  0  0  0
  160.8650  212.6190  148.8380 N   0  0  0  0  0  2  0  0  0  0  0  0
  160.0720  213.3010  149.8170 C   0  0  0  0  0  0  0  0  0  0  0  0
  159.4010  214.3200  149.4990 O   0  0  0  0  0  0  0  0  0  0  0  0
  160.0320  212.8280  151.1630 N   0  0  0  0  0  2  0  0  0  0  0  0
  160.2340  212.4200  146.6250 F   0  0  0  0  0  0  0  0  0  0  0  0
  160.7970  214.4530  147.4020 F   0  0  0  0  0  0  0  0  0  0  0  0
  161.0860  213.1010  147.4740 C   0  0  0  0  0  0  0  0  0  0  0  0
  163.3330  212.3160  147.8170 O   0  0  0  0  0  0  0  0  0  0  0  0
  162.5060  212.8520  147.0310 C   0  0  0  0  0  0  0  0  0  0  0  0
  162.9290  213.1630  145.7080 N   0  0  0  0  0  2  0  0  0  0  0  0
  162.1230  213.9270  144.7710 C   0  0  0  0  0  2  0  0  0  0  0  0
  162.8030  213.9950  143.4890 N   0  0  0  0  0  0  0  0  0  0  0  0
  161.0140  212.8040  142.2620 C   0  0  0  0  0  0  0  0  0  0  0  0
  160.9630  210.9750  140.4810 C   0  0  0  0  0  2  0  0  0  0  0  0
  160.9640  211.6800  143.0740 F   0  0  0  0  0  0  0  0  0  0  0  0
  162.9550  213.5570  141.1940 O   0  0  0  0  0  0  0  0  0  0  0  0
  162.3080  213.4940  142.4010 C   0  0  0  0  0  0  0  0  0  0  0  0
  161.0070  212.4670  140.7570 C   0  0  2  0  0  3  0  0  0  0  0  0
  162.2410  213.0110  140.1480 N   0  0  2  0  0  0  0  0  0  0  0  0
  159.9700  213.6600  142.5610 F   0  0  0  0  0  0  0  0  0  0  0  0
  163.0070  211.8750  139.6410 C   0  0  0  0  0  2  0  0  0  0  0  0
  162.3860  210.6020  140.1720 C   0  0  0  0  0  2  0  0  0  0  0  0
  161.3940  211.0030  150.4980 N   0  0  0  0  0  2  0  0  0  0  0  0
  162.0640  209.8810  151.0110 N   0  0  0  0  0  2  0  0  0  0  0  0
  161.9960  208.8270  150.0080 C   0  0  0  0  0  2  0  0  0  0  0  0
  161.6530  207.5230  150.6410 C   0  0  0  0  0  0  0  0  0  0  0  0
  161.4860  206.3900  149.8430 C   0  0  0  0  0  3  0  0  0  0  0  0
  161.0600  205.0620  151.8200 C   0  0  0  0  0  3  0  0  0  0  0  0
  160.9950  203.7370  149.4340 Cl  0  0  0  0  0  0  0  0  0  0  0  0
  161.1900  205.1590  150.4350 C   0  0  0  0  0  0  0  0  0  0  0  0
  161.2170  206.1930  152.6250 C   0  0  0  0  0  0  0  0  0  0  0  0
  161.5200  207.4270  152.0280 C   0  0  0  0  0  3  0  0  0  0  0  0
  161.0620  206.0650  154.0090 O   0  0  0  0  0  0  0  0  0  0  0  0
  160.6940  207.1530  154.8450 C   0  0  0  0  0  1  0  0  0  0  0  0
  1 35  1  6  0  0  0
  3  9  1  0  0  0  0
  4  8  1  0  0  0  0
  5  1  1  6  0  0  0
  5 10  1  0  0  0  0
  5 11  1  0  0  0  0
  6  7  1  0  0  0  0
  6 12  2  0  0  0  0
  8  2  1  0  0  0  0
  8  7  2  0  0  0  0
  9  6  1  0  0  0  0
 10  3  2  0  0  0  0
 11  4  1  0  0  0  0
 11  9  2  0  0  0  0
 13 14  1  0  0  0  0
 14 16  1  0  0  0  0
 15 14  2  0  0  0  0
 16  1  1  0  0  0  0
 17 19  1  0  0  0  0
 18 19  1  0  0  0  0
 19 13  1  0  0  0  0
 21 19  1  0  0  0  0
 21 20  2  0  0  0  0
 22 21  1  0  0  0  0
 23 22  1  0  0  0  0
 24 23  1  0  0  0  0
 25 29  1  0  0  0  0
 25 32  1  0  0  0  0
 25 27  1  0  0  0  0
 28 29  1  0  0  0  0
 29 24  2  0  0  0  0
 30 26  1  1  0  0  0
 30 25  1  0  0  0  0
 31 33  1  1  0  0  0
 31 30  1  0  0  0  0
 31 28  1  0  0  0  0
 33 34  1  0  0  0  0
 34 26  1  0  0  0  0
 35 36  1  0  0  0  0
 37 38  1  0  0  0  0
 37 36  1  0  0  0  0
 38 44  1  0  0  0  0
 39 42  1  0  0  0  0
 39 38  2  0  0  0  0
 40 43  1  0  0  0  0
 41 42  1  0  0  0  0
 42 40  2  0  0  0  0
 43 45  1  0  0  0  0
 44 43  2  0  0  0  0
 45 46  1  0  0  0  0
M  END
>  <MODEL>
1

>  <REMARK>
 VINA RESULT:      -7.7      0.000      0.000
  Name = 
  11 active torsions:
  status: ('A' for Active; 'I' for Inactive)
    1  A    between atoms: N_1  and  C_19
    2  A    between atoms: N_1  and  N_30
    3  A    between atoms: N_2  and  C_11
    4  A    between atoms: N_6  and  C_29
    5  A    between atoms: C_10  and  C_19
    6  A    between atoms: C_11  and  N_42
    7  A    between atoms: C_14  and  C_29
    8  A    between atoms: O_15  and  C_41
    9  A    between atoms: C_20  and  C_35
   10  A    between atoms: N_30  and  C_35
   11  A    between atoms: N_34  and  C_35
                            x       y       z     vdW  Elec       q    Type
                         _______ _______ _______ _____ _____    ______ ____

>  <TORSDO>
F 11

$$$$
=
 OpenBabel11042420593D

 46 50  0  0  1  0  0  0  0  0999 V2000
  159.6550  211.3290  153.3650 C   0  0  2  0  0  3  0  0  0  0  0  0
  154.7620  214.0670  153.4530 N   0  0  0  0  0  1  0  0  0  0  0  0
  158.3770  211.1870  156.5660 N   0  0  0  0  0  0  0  0  0  0  0  0
  157.0090  213.2180  153.8980 C   0  0  0  0  0  2  0  0  0  0  0  0
  159.3160  212.2140  154.5790 C   0  0  2  0  0  3  0  0  0  0  0  0
  156.0180  211.9390  156.1740 C   0  0  0  0  0  0  0  0  0  0  0  0
  155.1910  212.6650  155.3710 N   0  0  0  0  0  0  0  0  0  0  0  0
  155.6560  213.3020  154.2530 C   0  0  0  0  0  0  0  0  0  0  0  0
  157.3670  211.8440  155.8340 C   0  0  0  0  0  0  0  0  0  0  0  0
  159.6440  211.4290  155.8760 C   0  0  0  0  0  3  0  0  0  0  0  0
  157.8460  212.4550  154.7130 C   0  0  0  0  0  0  0  0  0  0  0  0
  155.5710  211.3760  157.2070 O   0  0  0  0  0  0  0  0  0  0  0  0
  160.9080  209.3320  151.6230 N   0  0  0  0  0  2  0  0  0  0  0  0
  161.7130  210.1940  152.4370 C   0  0  0  0  0  0  0  0  0  0  0  0
  162.9660  210.0580  152.4660 O   0  0  0  0  0  0  0  0  0  0  0  0
  161.1000  211.2190  153.2190 N   0  0  0  0  0  2  0  0  0  0  0  0
  160.8970  208.1840  149.6190 F   0  0  0  0  0  0  0  0  0  0  0  0
  162.7990  208.2350  150.8160 F   0  0  0  0  0  0  0  0  0  0  0  0
  161.4190  208.1670  150.8990 C   0  0  0  0  0  0  0  0  0  0  0  0
  160.6290  206.8870  152.7750 O   0  0  0  0  0  0  0  0  0  0  0  0
  161.0040  206.8830  151.5720 C   0  0  0  0  0  0  0  0  0  0  0  0
  160.9730  205.6540  150.8530 N   0  0  0  0  0  2  0  0  0  0  0  0
  161.5320  205.4920  149.5220 C   0  0  0  0  0  2  0  0  0  0  0  0
  161.2410  204.1560  149.0330 N   0  0  0  0  0  0  0  0  0  0  0  0
  161.8140  204.6860  146.6840 C   0  0  0  0  0  0  0  0  0  0  0  0
  160.7730  204.1540  144.4130 C   0  0  0  0  0  2  0  0  0  0  0  0
  160.9750  205.7810  146.5430 F   0  0  0  0  0  0  0  0  0  0  0  0
  161.0840  202.5580  147.3280 O   0  0  0  0  0  0  0  0  0  0  0  0
  161.3640  203.8190  147.7860 C   0  0  0  0  0  0  0  0  0  0  0  0
  161.7520  203.7150  145.4860 C   0  0  2  0  0  3  0  0  0  0  0  0
  161.3250  202.3870  145.9810 N   0  0  2  0  0  0  0  0  0  0  0  0
  163.1170  205.1010  146.8900 F   0  0  0  0  0  0  0  0  0  0  0  0
  160.0470  202.0810  145.3440 C   0  0  0  0  0  2  0  0  0  0  0  0
  159.5400  203.3320  144.6600 C   0  0  0  0  0  2  0  0  0  0  0  0
  159.0950  211.8720  152.1340 N   0  0  0  0  0  2  0  0  0  0  0  0
  159.9000  212.9630  151.7660 N   0  0  0  0  0  2  0  0  0  0  0  0
  159.1060  213.8280  150.9040 C   0  0  0  0  0  2  0  0  0  0  0  0
  159.2970  213.4590  149.4740 C   0  0  0  0  0  0  0  0  0  0  0  0
  158.1930  213.4080  148.6200 C   0  0  0  0  0  3  0  0  0  0  0  0
  159.6470  212.8170  146.7780 C   0  0  0  0  0  3  0  0  0  0  0  0
  156.9880  213.0400  146.2000 Cl  0  0  0  0  0  0  0  0  0  0  0  0
  158.3700  213.0890  147.2710 C   0  0  0  0  0  0  0  0  0  0  0  0
  160.7550  212.8580  147.6280 C   0  0  0  0  0  0  0  0  0  0  0  0
  160.5740  213.1850  148.9810 C   0  0  0  0  0  3  0  0  0  0  0  0
  162.0180  212.5630  147.1060 O   0  0  0  0  0  0  0  0  0  0  0  0
  163.1780  212.4490  147.9180 C   0  0  0  0  0  1  0  0  0  0  0  0
  1 35  1  6  0  0  0
  2  8  1  0  0  0  0
  4  8  1  0  0  0  0
  4 11  1  0  0  0  0
  5  1  1  6  0  0  0
  5 11  1  0  0  0  0
  5 10  1  0  0  0  0
  6 12  2  0  0  0  0
  7  6  1  0  0  0  0
  8  7  2  0  0  0  0
  9  6  1  0  0  0  0
  9  3  1  0  0  0  0
 10  3  2  0  0  0  0
 11  9  2  0  0  0  0
 13 14  1  0  0  0  0
 14 15  2  0  0  0  0
 14 16  1  0  0  0  0
 16  1  1  0  0  0  0
 17 19  1  0  0  0  0
 18 19  1  0  0  0  0
 19 21  1  0  0  0  0
 19 13  1  0  0  0  0
 21 20  2  0  0  0  0
 22 21  1  0  0  0  0
 23 22  1  0  0  0  0
 24 23  1  0  0  0  0
 25 32  1  0  0  0  0
 25 29  1  0  0  0  0
 26 34  1  0  0  0  0
 27 25  1  0  0  0  0
 28 29  1  0  0  0  0
 29 24  2  0  0  0  0
 30 26  1  6  0  0  0
 30 31  1  0  0  0  0
 30 25  1  0  0  0  0
 31 33  1  6  0  0  0
 31 28  1  0  0  0  0
 34 33  1  0  0  0  0
 36 35  1  0  0  0  0
 37 36  1  0  0  0  0
 38 37  1  0  0  0  0
 39 38  2  0  0  0  0
 40 42  2  0  0  0  0
 40 43  1  0  0  0  0
 41 42  1  0  0  0  0
 42 39  1  0  0  0  0
 43 44  2  0  0  0  0
 44 38  1  0  0  0  0
 45 43  1  0  0  0  0
 45 46  1  0  0  0  0
M  END
>  <MODEL>
2

>  <REMARK>
 VINA RESULT:      -7.6      4.649      7.657
  Name = 
  11 active torsions:
  status: ('A' for Active; 'I' for Inactive)
    1  A    between atoms: N_1  and  C_19
    2  A    between atoms: N_1  and  N_30
    3  A    between atoms: N_2  and  C_11
    4  A    between atoms: N_6  and  C_29
    5  A    between atoms: C_10  and  C_19
    6  A    between atoms: C_11  and  N_42
    7  A    between atoms: C_14  and  C_29
    8  A    between atoms: O_15  and  C_41
    9  A    between atoms: C_20  and  C_35
   10  A    between atoms: N_30  and  C_35
   11  A    between atoms: N_34  and  C_35
                            x       y       z     vdW  Elec       q    Type
                         _______ _______ _______ _____ _____    ______ ____

>  <TORSDO>
F 11

$$$$
=
 OpenBabel11042420593D

 46 50  0  0  1  0  0  0  0  0999 V2000
  161.6920  209.4860  149.6010 C   0  0  2  0  0  3  0  0  0  0  0  0
  161.3670  205.4090  153.4390 N   0  0  0  0  0  1  0  0  0  0  0  0
  161.6400  206.4460  147.9700 N   0  0  0  0  0  0  0  0  0  0  0  0
  161.9620  206.8470  151.5550 C   0  0  0  0  0  3  0  0  0  0  0  0
  162.5160  208.2010  149.3980 C   0  0  2  0  0  3  0  0  0  0  0  0
  160.9200  204.9200  149.8230 C   0  0  0  0  0  0  0  0  0  0  0  0
  160.8910  204.7290  151.1720 N   0  0  0  0  0  0  0  0  0  0  0  0
  161.3990  205.6580  152.0380 C   0  0  0  0  0  0  0  0  0  0  0  0
  161.4760  206.0980  149.3270 C   0  0  0  0  0  0  0  0  0  0  0  0
  162.3480  207.7260  147.9310 C   0  0  0  0  0  2  0  0  0  0  0  0
  161.9690  207.0460  150.1730 C   0  0  0  0  0  0  0  0  0  0  0  0
  160.4620  204.0430  149.0450 O   0  0  0  0  0  0  0  0  0  0  0  0
  161.0400  211.7430  147.8480 N   0  0  0  0  0  2  0  0  0  0  0  0
  162.2800  211.7140  148.5650 C   0  0  0  0  0  0  0  0  0  0  0  0
  163.1360  212.6250  148.3980 O   0  0  0  0  0  0  0  0  0  0  0  0
  162.5550  210.6530  149.4800 N   0  0  0  0  0  2  0  0  0  0  0  0
  160.8810  213.9780  147.2910 F   0  0  0  0  0  0  0  0  0  0  0  0
  161.5920  212.5300  145.7250 F   0  0  0  0  0  0  0  0  0  0  0  0
  160.7220  212.7010  146.7880 C   0  0  0  0  0  0  0  0  0  0  0  0
  158.3920  212.2160  147.1340 O   0  0  0  0  0  0  0  0  0  0  0  0
  159.2970  212.5420  146.3200 C   0  0  0  0  0  0  0  0  0  0  0  0
  158.9330  212.8090  144.9690 N   0  0  0  0  0  2  0  0  0  0  0  0
  159.9020  213.0300  143.9100 C   0  0  0  0  0  2  0  0  0  0  0  0
  159.8120  211.9550  142.9380 N   0  0  0  0  0  0  0  0  0  0  0  0
  162.0220  212.4270  141.9270 C   0  0  0  0  0  0  0  0  0  0  0  0
  162.9240  212.5320  139.5410 C   0  0  0  0  0  2  0  0  0  0  0  0
  161.8020  213.7670  141.6470 F   0  0  0  0  0  0  0  0  0  0  0  0
  160.6550  210.6920  141.1550 O   0  0  0  0  0  0  0  0  0  0  0  0
  160.7450  211.7060  142.0730 C   0  0  0  0  0  0  0  0  0  0  0  0
  162.6740  211.6610  140.7580 C   0  0  2  0  0  3  0  0  0  0  0  0
  161.7720  210.5590  140.3570 N   0  0  2  0  0  0  0  0  0  0  0  0
  162.7900  212.2930  143.0690 F   0  0  0  0  0  0  0  0  0  0  0  0
  161.3590  210.8210  138.9800 C   0  0  0  0  0  2  0  0  0  0  0  0
  161.7850  212.2250  138.6110 C   0  0  0  0  0  2  0  0  0  0  0  0
  161.0470  209.5060  150.9070 N   0  0  0  0  0  2  0  0  0  0  0  0
  161.5660  210.6110  151.6020 N   0  0  0  0  0  2  0  0  0  0  0  0
  162.1750  210.1170  152.8300 C   0  0  0  0  0  2  0  0  0  0  0  0
  161.1590  210.0140  153.9130 C   0  0  0  0  0  0  0  0  0  0  0  0
  160.9820  208.8010  154.5820 C   0  0  0  0  0  3  0  0  0  0  0  0
  159.2910  209.8210  155.9810 C   0  0  0  0  0  3  0  0  0  0  0  0
  159.8380  207.1900  156.4630 Cl  0  0  0  0  0  0  0  0  0  0  0  0
  160.0480  208.7060  155.6170 C   0  0  0  0  0  0  0  0  0  0  0  0
  159.4560  211.0350  155.3110 C   0  0  0  0  0  0  0  0  0  0  0  0
  160.3990  211.1280  154.2750 C   0  0  0  0  0  3  0  0  0  0  0  0
  158.6690  212.1280  155.6880 O   0  0  0  0  0  0  0  0  0  0  0  0
  157.3980  211.9810  156.3050 C   0  0  0  0  0  1  0  0  0  0  0  0
  1 16  1  1  0  0  0
  1 35  1  0  0  0  0
  3  9  2  0  0  0  0
  4  8  1  0  0  0  0
  5  1  1  6  0  0  0
  5 11  1  0  0  0  0
  6  7  1  0  0  0  0
  7  8  2  0  0  0  0
  8  2  1  0  0  0  0
  9  6  1  0  0  0  0
  9 11  1  0  0  0  0
 10  3  1  0  0  0  0
 10  5  1  0  0  0  0
 11  4  2  0  0  0  0
 12  6  2  0  0  0  0
 13 14  1  0  0  0  0
 14 16  1  0  0  0  0
 15 14  2  0  0  0  0
 18 19  1  0  0  0  0
 19 17  1  0  0  0  0
 19 13  1  0  0  0  0
 21 19  1  0  0  0  0
 21 20  2  0  0  0  0
 22 21  1  0  0  0  0
 23 22  1  0  0  0  0
 24 23  1  0  0  0  0
 25 29  1  0  0  0  0
 25 32  1  0  0  0  0
 27 25  1  0  0  0  0
 28 29  1  0  0  0  0
 29 24  2  0  0  0  0
 30 26  1  6  0  0  0
 30 25  1  0  0  0  0
 31 33  1  6  0  0  0
 31 30  1  0  0  0  0
 31 28  1  0  0  0  0
 34 33  1  0  0  0  0
 34 26  1  0  0  0  0
 35 36  1  0  0  0  0
 36 37  1  0  0  0  0
 37 38  1  0  0  0  0
 38 44  2  0  0  0  0
 38 39  1  0  0  0  0
 39 42  2  0  0  0  0
 42 40  1  0  0  0  0
 42 41  1  0  0  0  0
 43 45  1  0  0  0  0
 43 40  2  0  0  0  0
 44 43  1  0  0  0  0
 45 46  1  0  0  0  0
M  END
>  <MODEL>
3

>  <REMARK>
 VINA RESULT:      -7.6      2.567      5.091
  Name = 
  11 active torsions:
  status: ('A' for Active; 'I' for Inactive)
    1  A    between atoms: N_1  and  C_19
    2  A    between atoms: N_1  and  N_30
    3  A    between atoms: N_2  and  C_11
    4  A    between atoms: N_6  and  C_29
    5  A    between atoms: C_10  and  C_19
    6  A    between atoms: C_11  and  N_42
    7  A    between atoms: C_14  and  C_29
    8  A    between atoms: O_15  and  C_41
    9  A    between atoms: C_20  and  C_35
   10  A    between atoms: N_30  and  C_35
   11  A    between atoms: N_34  and  C_35
                            x       y       z     vdW  Elec       q    Type
                         _______ _______ _______ _____ _____    ______ ____

>  <TORSDO>
F 11

$$$$
=
 OpenBabel11042420593D

 46 50  0  0  1  0  0  0  0  0999 V2000
  159.3100  210.5350  153.2420 C   0  0  2  0  0  3  0  0  0  0  0  0
  159.9270  206.6040  157.1940 N   0  0  0  0  0  1  0  0  0  0  0  0
  161.5630  211.6830  155.5880 N   0  0  0  0  0  0  0  0  0  0  0  0
  159.5760  208.6770  155.9500 C   0  0  0  0  0  2  0  0  0  0  0  0
  159.4160  210.9670  154.7160 C   0  0  2  0  0  3  0  0  0  0  0  0
  162.0660  209.5730  156.8440 C   0  0  0  0  0  0  0  0  0  0  0  0
  161.6010  208.3430  157.2030 N   0  0  0  0  0  0  0  0  0  0  0  0
  160.3830  207.8860  156.7790 C   0  0  0  0  0  0  0  0  0  0  0  0
  161.2750  210.3710  156.0180 C   0  0  0  0  0  0  0  0  0  0  0  0
  160.4110  212.1520  154.8180 C   0  0  0  0  0  3  0  0  0  0  0  0
  160.0680  209.9260  155.5680 C   0  0  0  0  0  0  0  0  0  0  0  0
  163.1820  209.9780  157.2600 O   0  0  0  0  0  0  0  0  0  0  0  0
  161.0090  208.2300  152.6120 N   0  0  0  0  0  2  0  0  0  0  0  0
  161.4690  209.5630  152.3580 C   0  0  0  0  0  0  0  0  0  0  0  0
  162.6360  209.7650  151.9250 O   0  0  0  0  0  0  0  0  0  0  0  0
  160.6050  210.6760  152.5890 N   0  0  0  0  0  2  0  0  0  0  0  0
  162.5550  207.0650  151.3530 F   0  0  0  0  0  0  0  0  0  0  0  0
  162.7620  207.0470  153.5910 F   0  0  0  0  0  0  0  0  0  0  0  0
  161.8560  207.0380  152.5450 C   0  0  0  0  0  0  0  0  0  0  0  0
  160.8340  205.1820  153.6830 O   0  0  0  0  0  0  0  0  0  0  0  0
  161.0280  205.7780  152.5890 C   0  0  0  0  0  0  0  0  0  0  0  0
  160.4040  205.2680  151.4160 N   0  0  0  0  0  2  0  0  0  0  0  0
  160.6830  205.7680  150.0810 C   0  0  0  0  0  2  0  0  0  0  0  0
  161.1770  204.6830  149.2500 N   0  0  0  0  0  0  0  0  0  0  0  0
  161.4810  206.1030  147.2460 C   0  0  0  0  0  0  0  0  0  0  0  0
  160.9920  205.8280  144.7540 C   0  0  0  0  0  2  0  0  0  0  0  0
  160.1930  206.6130  147.1970 F   0  0  0  0  0  0  0  0  0  0  0  0
  161.9800  203.8170  147.2280 O   0  0  0  0  0  0  0  0  0  0  0  0
  161.5180  204.8440  148.0090 C   0  0  0  0  0  0  0  0  0  0  0  0
  162.0050  205.6410  145.8690 C   0  0  2  0  0  3  0  0  0  0  0  0
  162.3360  204.2010  145.9530 N   0  0  2  0  0  0  0  0  0  0  0  0
  162.3470  207.0310  147.7940 F   0  0  0  0  0  0  0  0  0  0  0  0
  161.4530  203.5020  145.0230 C   0  0  0  0  0  2  0  0  0  0  0  0
  160.3850  204.4670  144.5580 C   0  0  0  0  0  2  0  0  0  0  0  0
  158.3260  211.3310  152.5200 N   0  0  0  0  0  2  0  0  0  0  0  0
  158.4950  212.6620  152.9340 N   0  0  0  0  0  2  0  0  0  0  0  0
  157.7450  213.5100  152.0170 C   0  0  0  0  0  2  0  0  0  0  0  0
  158.3530  213.4780  150.6590 C   0  0  0  0  0  0  0  0  0  0  0  0
  157.5380  213.2860  149.5410 C   0  0  0  0  0  3  0  0  0  0  0  0
  159.4740  213.4650  148.1000 C   0  0  0  0  0  3  0  0  0  0  0  0
  157.0750  213.0560  146.8620 Cl  0  0  0  0  0  0  0  0  0  0  0  0
  158.1000  213.2820  148.2610 C   0  0  0  0  0  0  0  0  0  0  0  0
  160.2970  213.6480  149.2140 C   0  0  0  0  0  0  0  0  0  0  0  0
  159.7280  213.6580  150.4970 C   0  0  0  0  0  3  0  0  0  0  0  0
  161.6720  213.8110  149.0180 O   0  0  0  0  0  0  0  0  0  0  0  0
  162.2760  213.7580  147.7340 C   0  0  0  0  0  1  0  0  0  0  0  0
  1 35  1  6  0  0  0
  3  9  1  0  0  0  0
  4  8  1  0  0  0  0
  5  1  1  6  0  0  0
  5 10  1  0  0  0  0
  5 11  1  0  0  0  0
  6  7  1  0  0  0  0
  6 12  2  0  0  0  0
  8  2  1  0  0  0  0
  8  7  2  0  0  0  0
  9  6  1  0  0  0  0
 10  3  2  0  0  0  0
 11  4  1  0  0  0  0
 11  9  2  0  0  0  0
 14 16  1  0  0  0  0
 14 13  1  0  0  0  0
 15 14  2  0  0  0  0
 16  1  1  0  0  0  0
 17 19  1  0  0  0  0
 19 21  1  0  0  0  0
 19 13  1  0  0  0  0
 19 18  1  0  0  0  0
 21 20  2  0  0  0  0
 22 21  1  0  0  0  0
 23 22  1  0  0  0  0
 24 23  1  0  0  0  0
 25 32  1  0  0  0  0
 25 29  1  0  0  0  0
 27 25  1  0  0  0  0
 28 29  1  0  0  0  0
 29 24  2  0  0  0  0
 30 26  1  6  0  0  0
 30 31  1  0  0  0  0
 30 25  1  0  0  0  0
 31 33  1  6  0  0  0
 31 28  1  0  0  0  0
 34 26  1  0  0  0  0
 34 33  1  0  0  0  0
 35 36  1  0  0  0  0
 37 36  1  0  0  0  0
 38 37  1  0  0  0  0
 39 38  2  0  0  0  0
 40 42  2  0  0  0  0
 40 43  1  0  0  0  0
 41 42  1  0  0  0  0
 42 39  1  0  0  0  0
 43 44  2  0  0  0  0
 44 38  1  0  0  0  0
 45 43  1  0  0  0  0
 46 45  1  0  0  0  0
M  END
>  <MODEL>
4

>  <REMARK>
 VINA RESULT:      -7.5      4.762      7.417
  Name = 
  11 active torsions:
  status: ('A' for Active; 'I' for Inactive)
    1  A    between atoms: N_1  and  C_19
    2  A    between atoms: N_1  and  N_30
    3  A    between atoms: N_2  and  C_11
    4  A    between atoms: N_6  and  C_29
    5  A    between atoms: C_10  and  C_19
    6  A    between atoms: C_11  and  N_42
    7  A    between atoms: C_14  and  C_29
    8  A    between atoms: O_15  and  C_41
    9  A    between atoms: C_20  and  C_35
   10  A    between atoms: N_30  and  C_35
   11  A    between atoms: N_34  and  C_35
                            x       y       z     vdW  Elec       q    Type
                         _______ _______ _______ _____ _____    ______ ____

>  <TORSDO>
F 11

$$$$
=
 OpenBabel11042420593D

 46 50  0  0  1  0  0  0  0  0999 V2000
  161.6370  207.6790  151.2400 C   0  0  2  0  0  3  0  0  0  0  0  0
  160.5770  206.3860  145.8870 N   0  0  0  0  0  1  0  0  0  0  0  0
  161.3160  204.2540  150.9820 N   0  0  0  0  0  0  0  0  0  0  0  0
  160.5620  206.5920  148.3210 C   0  0  0  0  0  2  0  0  0  0  0  0
  160.6110  206.5750  150.9270 C   0  0  2  0  0  3  0  0  0  0  0  0
  161.4380  203.9460  148.4980 C   0  0  0  0  0  0  0  0  0  0  0  0
  161.2320  204.5290  147.2830 N   0  0  0  0  0  0  0  0  0  0  0  0
  160.8000  205.8230  147.1740 C   0  0  0  0  0  0  0  0  0  0  0  0
  161.2080  204.6990  149.6480 C   0  0  0  0  0  0  0  0  0  0  0  0
  160.8930  205.3570  151.8450 C   0  0  0  0  0  3  0  0  0  0  0  0
  160.7970  205.9960  149.5610 C   0  0  0  0  0  0  0  0  0  0  0  0
  161.8190  202.7490  148.5730 O   0  0  0  0  0  0  0  0  0  0  0  0
  160.9730  207.9790  154.0790 N   0  0  0  0  0  2  0  0  0  0  0  0
  160.5580  208.9660  153.1270 C   0  0  0  0  0  0  0  0  0  0  0  0
  159.8430  209.9400  153.4880 O   0  0  0  0  0  0  0  0  0  0  0  0
  160.9560  208.8570  151.7610 N   0  0  0  0  0  2  0  0  0  0  0  0
  159.2510  208.4980  155.5280 F   0  0  0  0  0  0  0  0  0  0  0  0
  160.4070  206.6010  155.8720 F   0  0  0  0  0  0  0  0  0  0  0  0
  160.5050  207.9210  155.4650 C   0  0  0  0  0  0  0  0  0  0  0  0
  162.5860  208.2370  156.6290 O   0  0  0  0  0  0  0  0  0  0  0  0
  161.4310  208.6780  156.3840 C   0  0  0  0  0  0  0  0  0  0  0  0
  161.0460  209.9270  156.9490 N   0  0  0  0  0  2  0  0  0  0  0  0
  159.6940  210.4540  156.8750 C   0  0  0  0  0  2  0  0  0  0  0  0
  159.7280  211.8020  156.3360 N   0  0  0  0  0  0  0  0  0  0  0  0
  157.2860  211.9140  155.9490 C   0  0  0  0  0  0  0  0  0  0  0  0
  155.8010  212.7730  154.0570 C   0  0  0  0  0  2  0  0  0  0  0  0
  157.1780  210.7610  155.1880 F   0  0  0  0  0  0  0  0  0  0  0  0
  158.7050  213.6990  155.4190 O   0  0  0  0  0  0  0  0  0  0  0  0
  158.6670  212.4270  155.9300 C   0  0  0  0  0  0  0  0  0  0  0  0
  156.5090  213.1090  155.3570 C   0  0  2  0  0  3  0  0  0  0  0  0
  157.4650  214.2060  155.0900 N   0  0  2  0  0  0  0  0  0  0  0  0
  156.8730  211.6760  157.2470 F   0  0  0  0  0  0  0  0  0  0  0  0
  157.4570  214.4410  153.6480 C   0  0  0  0  0  2  0  0  0  0  0  0
  156.7020  213.3130  152.9820 C   0  0  0  0  0  2  0  0  0  0  0  0
  162.3950  208.0560  150.0540 N   0  0  0  0  0  2  0  0  0  0  0  0
  162.4160  209.4600  150.0120 N   0  0  0  0  0  2  0  0  0  0  0  0
  162.1270  209.8670  148.6430 C   0  0  0  0  0  2  0  0  0  0  0  0
  161.8010  211.3180  148.5860 C   0  0  0  0  0  0  0  0  0  0  0  0
  161.1430  211.9210  149.6610 C   0  0  0  0  0  3  0  0  0  0  0  0
  161.2260  214.0510  148.5160 C   0  0  0  0  0  3  0  0  0  0  0  0
  160.0460  214.0440  150.9770 Cl  0  0  0  0  0  0  0  0  0  0  0  0
  160.8580  213.2880  149.6250 C   0  0  0  0  0  0  0  0  0  0  0  0
  161.8770  213.4530  147.4330 C   0  0  0  0  0  0  0  0  0  0  0  0
  162.1670  212.0810  147.4750 C   0  0  0  0  0  3  0  0  0  0  0  0
  162.2160  214.2430  146.3300 O   0  0  0  0  0  0  0  0  0  0  0  0
  162.6960  213.6930  145.1110 C   0  0  0  0  0  1  0  0  0  0  0  0
  1 35  1  6  0  0  0
  1 16  1  0  0  0  0
  2  8  1  0  0  0  0
  3 10  2  0  0  0  0
  4 11  1  0  0  0  0
  5  1  1  1  0  0  0
  5 10  1  0  0  0  0
  6 12  2  0  0  0  0
  6  9  1  0  0  0  0
  7  6  1  0  0  0  0
  8  7  2  0  0  0  0
  8  4  1  0  0  0  0
  9  3  1  0  0  0  0
 11  9  2  0  0  0  0
 11  5  1  0  0  0  0
 13 19  1  0  0  0  0
 14 15  2  0  0  0  0
 14 13  1  0  0  0  0
 16 14  1  0  0  0  0
 19 17  1  0  0  0  0
 19 18  1  0  0  0  0
 19 21  1  0  0  0  0
 21 20  2  0  0  0  0
 21 22  1  0  0  0  0
 23 22  1  0  0  0  0
 24 23  1  0  0  0  0
 25 32  1  0  0  0  0
 27 25  1  0  0  0  0
 28 29  1  0  0  0  0
 29 25  1  0  0  0  0
 29 24  2  0  0  0  0
 30 26  1  6  0  0  0
 30 25  1  0  0  0  0
 31 33  1  6  0  0  0
 31 30  1  0  0  0  0
 31 28  1  0  0  0  0
 34 33  1  0  0  0  0
 34 26  1  0  0  0  0
 36 35  1  0  0  0  0
 37 36  1  0  0  0  0
 38 37  1  0  0  0  0
 38 39  1  0  0  0  0
 40 42  1  0  0  0  0
 42 39  2  0  0  0  0
 42 41  1  0  0  0  0
 43 44  1  0  0  0  0
 43 40  2  0  0  0  0
 44 38  2  0  0  0  0
 45 43  1  0  0  0  0
 46 45  1  0  0  0  0
M  END
>  <MODEL>
5

>  <REMARK>
 VINA RESULT:      -7.4      4.903     10.439
  Name = 
  11 active torsions:
  status: ('A' for Active; 'I' for Inactive)
    1  A    between atoms: N_1  and  C_19
    2  A    between atoms: N_1  and  N_30
    3  A    between atoms: N_2  and  C_11
    4  A    between atoms: N_6  and  C_29
    5  A    between atoms: C_10  and  C_19
    6  A    between atoms: C_11  and  N_42
    7  A    between atoms: C_14  and  C_29
    8  A    between atoms: O_15  and  C_41
    9  A    between atoms: C_20  and  C_35
   10  A    between atoms: N_30  and  C_35
   11  A    between atoms: N_34  and  C_35
                            x       y       z     vdW  Elec       q    Type
                         _______ _______ _______ _____ _____    ______ ____

>  <TORSDO>
F 11

$$$$
=
 OpenBabel11042420593D

 46 50  0  0  1  0  0  0  0  0999 V2000
  160.9750  210.2640  153.0380 C   0  0  2  0  0  3  0  0  0  0  0  0
  157.0920  213.8870  151.2360 N   0  0  0  0  0  1  0  0  0  0  0  0
  159.5060  211.7510  155.7820 N   0  0  0  0  0  0  0  0  0  0  0  0
  158.9620  212.7810  152.3530 C   0  0  0  0  0  2  0  0  0  0  0  0
  160.8290  211.6200  153.7530 C   0  0  2  0  0  3  0  0  0  0  0  0
  157.4980  212.8200  154.7310 C   0  0  0  0  0  0  0  0  0  0  0  0
  156.9700  213.3310  153.5820 N   0  0  0  0  0  0  0  0  0  0  0  0
  157.6710  213.3240  152.4080 C   0  0  0  0  0  0  0  0  0  0  0  0
  158.7800  212.2740  154.6920 C   0  0  0  0  0  0  0  0  0  0  0  0
  160.8300  211.3790  155.2850 C   0  0  0  0  0  3  0  0  0  0  0  0
  159.4870  212.2400  153.5280 C   0  0  0  0  0  0  0  0  0  0  0  0
  156.8400  212.8530  155.8030 O   0  0  0  0  0  0  0  0  0  0  0  0
  160.9870  207.4180  152.3370 N   0  0  0  0  0  2  0  0  0  0  0  0
  161.2230  207.8350  153.6870 C   0  0  0  0  0  0  0  0  0  0  0  0
  161.3700  206.9810  154.6030 O   0  0  0  0  0  0  0  0  0  0  0  0
  161.2990  209.2240  154.0060 N   0  0  0  0  0  2  0  0  0  0  0  0
  160.0880  205.3820  152.9550 F   0  0  0  0  0  0  0  0  0  0  0  0
  159.9550  206.0030  150.7980 F   0  0  0  0  0  0  0  0  0  0  0  0
  160.7510  206.0320  151.9310 C   0  0  0  0  0  0  0  0  0  0  0  0
  163.1270  205.7410  152.1630 O   0  0  0  0  0  0  0  0  0  0  0  0
  162.0510  205.3130  151.6660 C   0  0  0  0  0  0  0  0  0  0  0  0
  162.0850  204.1130  150.9020 N   0  0  0  0  0  2  0  0  0  0  0  0
  160.9480  203.6140  150.1470 C   0  0  0  0  0  2  0  0  0  0  0  0
  161.3910  203.1790  148.8340 N   0  0  0  0  0  0  0  0  0  0  0  0
  161.3940  205.4580  147.8690 C   0  0  0  0  0  0  0  0  0  0  0  0
  160.6310  206.4770  145.6550 C   0  0  0  0  0  2  0  0  0  0  0  0
  160.0860  205.7870  148.1950 F   0  0  0  0  0  0  0  0  0  0  0  0
  161.9920  203.5810  146.6060 O   0  0  0  0  0  0  0  0  0  0  0  0
  161.5770  203.9970  147.8450 C   0  0  0  0  0  0  0  0  0  0  0  0
  161.7740  205.8380  146.4230 C   0  0  2  0  0  3  0  0  0  0  0  0
  162.1790  204.6090  145.7050 N   0  0  2  0  0  0  0  0  0  0  0  0
  162.2740  206.0450  148.7600 F   0  0  0  0  0  0  0  0  0  0  0  0
  161.2260  204.4130  144.6160 C   0  0  0  0  0  2  0  0  0  0  0  0
  160.0680  205.3660  144.8150 C   0  0  0  0  0  2  0  0  0  0  0  0
  162.0180  210.3050  152.0210 N   0  0  0  0  0  2  0  0  0  0  0  0
  161.3940  210.6470  150.8100 N   0  0  0  0  0  2  0  0  0  0  0  0
  162.4380  211.0130  149.8610 C   0  0  0  0  0  2  0  0  0  0  0  0
  161.9280  212.0150  148.8850 C   0  0  0  0  0  0  0  0  0  0  0  0
  162.5950  212.1990  147.6720 C   0  0  0  0  0  3  0  0  0  0  0  0
  160.9540  213.8550  147.0220 C   0  0  0  0  0  3  0  0  0  0  0  0
  162.9350  213.3380  145.2160 Cl  0  0  0  0  0  0  0  0  0  0  0  0
  162.1060  213.1190  146.7400 C   0  0  0  0  0  0  0  0  0  0  0  0
  160.2860  213.6820  148.2370 C   0  0  0  0  0  0  0  0  0  0  0  0
  160.7770  212.7530  149.1670 C   0  0  0  0  0  3  0  0  0  0  0  0
  159.1450  214.4480  148.4950 O   0  0  0  0  0  0  0  0  0  0  0  0
  157.9760  214.3800  147.6900 C   0  0  0  0  0  1  0  0  0  0  0  0
  1 35  1  6  0  0  0
  1 16  1  0  0  0  0
  2  8  1  0  0  0  0
  4  8  1  0  0  0  0
  4 11  1  0  0  0  0
  5  1  1  6  0  0  0
  5 10  1  0  0  0  0
  6 12  2  0  0  0  0
  7  6  1  0  0  0  0
  8  7  2  0  0  0  0
  9  6  1  0  0  0  0
  9  3  1  0  0  0  0
 10  3  2  0  0  0  0
 11  5  1  0  0  0  0
 11  9  2  0  0  0  0
 13 14  1  0  0  0  0
 14 16  1  0  0  0  0
 14 15  2  0  0  0  0
 18 19  1  0  0  0  0
 19 13  1  0  0  0  0
 19 17  1  0  0  0  0
 21 19  1  0  0  0  0
 21 20  2  0  0  0  0
 22 21  1  0  0  0  0
 23 22  1  0  0  0  0
 24 23  1  0  0  0  0
 25 27  1  0  0  0  0
 25 32  1  0  0  0  0
 28 29  1  0  0  0  0
 29 25  1  0  0  0  0
 29 24  2  0  0  0  0
 30 26  1  6  0  0  0
 30 25  1  0  0  0  0
 31 33  1  6  0  0  0
 31 30  1  0  0  0  0
 31 28  1  0  0  0  0
 33 34  1  0  0  0  0
 34 26  1  0  0  0  0
 36 35  1  0  0  0  0
 37 36  1  0  0  0  0
 38 44  1  0  0  0  0
 38 37  1  0  0  0  0
 39 38  2  0  0  0  0
 40 43  1  0  0  0  0
 41 42  1  0  0  0  0
 42 40  2  0  0  0  0
 42 39  1  0  0  0  0
 43 45  1  0  0  0  0
 43 44  2  0  0  0  0
 46 45  1  0  0  0  0
M  END
>  <MODEL>
6

>  <REMARK>
 VINA RESULT:      -7.2      4.661      7.702
  Name = 
  11 active torsions:
  status: ('A' for Active; 'I' for Inactive)
    1  A    between atoms: N_1  and  C_19
    2  A    between atoms: N_1  and  N_30
    3  A    between atoms: N_2  and  C_11
    4  A    between atoms: N_6  and  C_29
    5  A    between atoms: C_10  and  C_19
    6  A    between atoms: C_11  and  N_42
    7  A    between atoms: C_14  and  C_29
    8  A    between atoms: O_15  and  C_41
    9  A    between atoms: C_20  and  C_35
   10  A    between atoms: N_30  and  C_35
   11  A    between atoms: N_34  and  C_35
                            x       y       z     vdW  Elec       q    Type
                         _______ _______ _______ _____ _____    ______ ____

>  <TORSDO>
F 11

$$$$
=
 OpenBabel11042420593D

 46 50  0  0  1  0  0  0  0  0999 V2000
  159.8420  211.3480  152.4650 C   0  0  2  0  0  3  0  0  0  0  0  0
  155.1650  214.4110  152.0190 N   0  0  0  0  0  1  0  0  0  0  0  0
  158.7790  212.1960  155.6350 N   0  0  0  0  0  0  0  0  0  0  0  0
  157.3740  213.5290  152.5760 C   0  0  0  0  0  2  0  0  0  0  0  0
  159.6480  212.5560  153.4000 C   0  0  2  0  0  3  0  0  0  0  0  0
  156.4570  213.0100  155.1620 C   0  0  0  0  0  0  0  0  0  0  0  0
  155.6280  213.5560  154.2280 N   0  0  0  0  0  0  0  0  0  0  0  0
  156.0570  213.8210  152.9570 C   0  0  0  0  0  0  0  0  0  0  0  0
  157.7690  212.7110  154.7980 C   0  0  0  0  0  0  0  0  0  0  0  0
  160.0100  212.1310  154.8470 C   0  0  0  0  0  3  0  0  0  0  0  0
  158.2110  212.9490  153.5310 C   0  0  0  0  0  0  0  0  0  0  0  0
  156.0430  212.7910  156.3300 O   0  0  0  0  0  0  0  0  0  0  0  0
  161.2520  209.0670  151.2830 N   0  0  0  0  0  2  0  0  0  0  0  0
  160.8240  209.0270  152.6500 C   0  0  0  0  0  0  0  0  0  0  0  0
  160.9870  207.9860  153.3410 O   0  0  0  0  0  0  0  0  0  0  0  0
  160.2120  210.1730  153.2430 N   0  0  0  0  0  2  0  0  0  0  0  0
  163.0020  207.5770  151.0460 F   0  0  0  0  0  0  0  0  0  0  0  0
  160.9060  206.8310  150.7210 F   0  0  0  0  0  0  0  0  0  0  0  0
  161.7570  207.9090  150.5440 C   0  0  0  0  0  0  0  0  0  0  0  0
  161.5810  209.3570  148.6320 O   0  0  0  0  0  0  0  0  0  0  0  0
  161.8980  208.2200  149.0740 C   0  0  0  0  0  0  0  0  0  0  0  0
  162.4390  207.2630  148.1690 N   0  0  0  0  0  2  0  0  0  0  0  0
  162.6840  205.8760  148.5260 C   0  0  0  0  0  2  0  0  0  0  0  0
  162.3000  205.0170  147.4200 N   0  0  0  0  0  0  0  0  0  0  0  0
  160.9700  203.4770  148.8300 C   0  0  0  0  0  0  0  0  0  0  0  0
  160.7060  200.9410  148.9720 C   0  0  0  0  0  2  0  0  0  0  0  0
  161.9640  203.1840  149.7520 F   0  0  0  0  0  0  0  0  0  0  0  0
  161.1960  203.1560  146.5230 O   0  0  0  0  0  0  0  0  0  0  0  0
  161.5530  203.9670  147.5690 C   0  0  0  0  0  0  0  0  0  0  0  0
  160.2020  202.2290  148.3470 C   0  0  2  0  0  3  0  0  0  0  0  0
  160.3580  202.1200  146.8800 N   0  0  2  0  0  0  0  0  0  0  0  0
  160.0870  204.4050  149.3520 F   0  0  0  0  0  0  0  0  0  0  0  0
  161.0680  200.8720  146.6140 C   0  0  0  0  0  2  0  0  0  0  0  0
  161.5970  200.3330  147.9250 C   0  0  0  0  0  2  0  0  0  0  0  0
  160.8750  211.6020  151.4700 N   0  0  0  0  0  2  0  0  0  0  0  0
  160.3980  212.6290  150.6380 N   0  0  0  0  0  2  0  0  0  0  0  0
  161.2270  212.6510  149.4410 C   0  0  0  0  0  2  0  0  0  0  0  0
  160.4000  212.9420  148.2370 C   0  0  0  0  0  0  0  0  0  0  0  0
  160.9050  212.6610  146.9660 C   0  0  0  0  0  3  0  0  0  0  0  0
  158.8390  213.4380  145.9740 C   0  0  0  0  0  3  0  0  0  0  0  0
  160.7520  212.5420  144.2450 Cl  0  0  0  0  0  0  0  0  0  0  0  0
  160.1230  212.9080  145.8350 C   0  0  0  0  0  0  0  0  0  0  0  0
  158.3300  213.7300  147.2420 C   0  0  0  0  0  0  0  0  0  0  0  0
  159.1160  213.4750  148.3760 C   0  0  0  0  0  3  0  0  0  0  0  0
  157.0470  214.2770  147.3450 O   0  0  0  0  0  0  0  0  0  0  0  0
  156.3230  214.3130  148.5670 C   0  0  0  0  0  1  0  0  0  0  0  0
  1 35  1  6  0  0  0
  1 16  1  0  0  0  0
  2  8  1  0  0  0  0
  4  8  1  0  0  0  0
  4 11  1  0  0  0  0
  5  1  1  6  0  0  0
  5 11  1  0  0  0  0
  5 10  1  0  0  0  0
  6 12  2  0  0  0  0
  7  6  1  0  0  0  0
  8  7  2  0  0  0  0
  9  6  1  0  0  0  0
  9  3  1  0  0  0  0
 10  3  2  0  0  0  0
 11  9  2  0  0  0  0
 13 14  1  0  0  0  0
 14 16  1  0  0  0  0
 14 15  2  0  0  0  0
 19 18  1  0  0  0  0
 19 17  1  0  0  0  0
 19 13  1  0  0  0  0
 20 21  2  0  0  0  0
 21 19  1  0  0  0  0
 22 23  1  0  0  0  0
 22 21  1  0  0  0  0
 24 29  2  0  0  0  0
 24 23  1  0  0  0  0
 25 32  1  0  0  0  0
 25 27  1  0  0  0  0
 28 31  1  0  0  0  0
 28 29  1  0  0  0  0
 29 25  1  0  0  0  0
 30 25  1  0  0  0  0
 30 26  1  1  0  0  0
 31 33  1  1  0  0  0
 31 30  1  0  0  0  0
 33 34  1  0  0  0  0
 34 26  1  0  0  0  0
 36 35  1  0  0  0  0
 37 36  1  0  0  0  0
 38 44  1  0  0  0  0
 38 37  1  0  0  0  0
 39 38  2  0  0  0  0
 40 43  1  0  0  0  0
 41 42  1  0  0  0  0
 42 40  2  0  0  0  0
 42 39  1  0  0  0  0
 43 45  1  0  0  0  0
 43 44  2  0  0  0  0
 45 46  1  0  0  0  0
M  END
>  <MODEL>
7

>  <REMARK>
 VINA RESULT:      -7.2      4.660      8.187
  Name = 
  11 active torsions:
  status: ('A' for Active; 'I' for Inactive)
    1  A    between atoms: N_1  and  C_19
    2  A    between atoms: N_1  and  N_30
    3  A    between atoms: N_2  and  C_11
    4  A    between atoms: N_6  and  C_29
    5  A    between atoms: C_10  and  C_19
    6  A    between atoms: C_11  and  N_42
    7  A    between atoms: C_14  and  C_29
    8  A    between atoms: O_15  and  C_41
    9  A    between atoms: C_20  and  C_35
   10  A    between atoms: N_30  and  C_35
   11  A    between atoms: N_34  and  C_35
                            x       y       z     vdW  Elec       q    Type
                         _______ _______ _______ _____ _____    ______ ____

>  <TORSDO>
F 11

$$$$
=
 OpenBabel11042420593D

 46 50  0  0  1  0  0  0  0  0999 V2000
  161.6920  209.4200  149.5730 C   0  0  2  0  0  3  0  0  0  0  0  0
  161.2110  205.4410  153.4950 N   0  0  0  0  0  1  0  0  0  0  0  0
  161.6880  206.3420  148.0170 N   0  0  0  0  0  0  0  0  0  0  0  0
  161.8810  206.8300  151.6000 C   0  0  0  0  0  3  0  0  0  0  0  0
  162.5180  208.1290  149.4320 C   0  0  2  0  0  3  0  0  0  0  0  0
  160.8950  204.8640  149.8790 C   0  0  0  0  0  0  0  0  0  0  0  0
  160.8160  204.7060  151.2300 N   0  0  0  0  0  0  0  0  0  0  0  0
  161.2950  205.6550  152.0910 C   0  0  0  0  0  0  0  0  0  0  0  0
  161.4730  206.0280  149.3750 C   0  0  0  0  0  0  0  0  0  0  0  0
  162.4020  207.6180  147.9720 C   0  0  0  0  0  2  0  0  0  0  0  0
  161.9380  206.9950  150.2150 C   0  0  0  0  0  0  0  0  0  0  0  0
  160.4620  203.9690  149.1070 O   0  0  0  0  0  0  0  0  0  0  0  0
  161.1090  212.2870  149.3890 N   0  0  0  0  0  2  0  0  0  0  0  0
  161.2900  211.5050  148.2020 C   0  0  0  0  0  0  0  0  0  0  0  0
  161.1320  212.0240  147.0640 O   0  0  0  0  0  0  0  0  0  0  0  0
  161.6560  210.1280  148.3000 N   0  0  0  0  0  2  0  0  0  0  0  0
  160.7080  214.1540  150.6880 F   0  0  0  0  0  0  0  0  0  0  0  0
  161.3570  214.4500  148.5560 F   0  0  0  0  0  0  0  0  0  0  0  0
  160.5990  213.6590  149.4020 C   0  0  0  0  0  0  0  0  0  0  0  0
  158.8320  214.0140  147.8100 O   0  0  0  0  0  0  0  0  0  0  0  0
  159.1480  213.7050  148.9900 C   0  0  0  0  0  0  0  0  0  0  0  0
  158.1140  213.3490  149.9010 N   0  0  0  0  0  2  0  0  0  0  0  0
  158.3380  213.1360  151.3210 C   0  0  0  0  0  2  0  0  0  0  0  0
  157.2700  213.7630  152.0800 N   0  0  0  0  0  0  0  0  0  0  0  0
  158.1660  213.0660  154.2790 C   0  0  0  0  0  0  0  0  0  0  0  0
  157.1450  212.1230  156.4220 C   0  0  0  0  0  2  0  0  0  0  0  0
  158.2530  211.7090  154.0090 F   0  0  0  0  0  0  0  0  0  0  0  0
  156.1930  214.3100  154.0860 O   0  0  0  0  0  0  0  0  0  0  0  0
  157.2050  213.7200  153.3740 C   0  0  0  0  0  0  0  0  0  0  0  0
  157.5440  213.3730  155.6580 C   0  0  2  0  0  3  0  0  0  0  0  0
  156.3300  214.1940  155.4530 N   0  0  2  0  0  0  0  0  0  0  0  0
  159.4110  213.6590  154.1790 F   0  0  0  0  0  0  0  0  0  0  0  0
  155.1960  213.4140  155.9420 C   0  0  0  0  0  2  0  0  0  0  0  0
  155.6630  211.9990  156.2020 C   0  0  0  0  0  2  0  0  0  0  0  0
  162.2500  210.3030  150.5900 N   0  0  0  0  0  2  0  0  0  0  0  0
  161.4500  210.1630  151.7350 N   0  0  0  0  0  2  0  0  0  0  0  0
  162.3360  209.9430  152.8710 C   0  0  0  0  0  2  0  0  0  0  0  0
  161.5740  210.0050  154.1480 C   0  0  0  0  0  0  0  0  0  0  0  0
  161.5870  211.1790  154.9050 C   0  0  0  0  0  3  0  0  0  0  0  0
  160.1080  210.1520  156.5220 C   0  0  0  0  0  3  0  0  0  0  0  0
  160.8590  212.7270  157.0300 Cl  0  0  0  0  0  0  0  0  0  0  0  0
  160.8520  211.2510  156.0910 C   0  0  0  0  0  0  0  0  0  0  0  0
  160.0970  208.9710  155.7750 C   0  0  0  0  0  0  0  0  0  0  0  0
  160.8310  208.9040  154.5810 C   0  0  0  0  0  3  0  0  0  0  0  0
  159.3550  207.8830  156.2440 O   0  0  0  0  0  0  0  0  0  0  0  0
  159.9600  206.6890  156.7190 C   0  0  0  0  0  1  0  0  0  0  0  0
  1 16  1  6  0  0  0
  1 35  1  0  0  0  0
  3  9  2  0  0  0  0
  4  8  1  0  0  0  0
  5  1  1  6  0  0  0
  5 11  1  0  0  0  0
  6  7  1  0  0  0  0
  7  8  2  0  0  0  0
  8  2  1  0  0  0  0
  9  6  1  0  0  0  0
  9 11  1  0  0  0  0
 10  3  1  0  0  0  0
 10  5  1  0  0  0  0
 11  4  2  0  0  0  0
 12  6  2  0  0  0  0
 13 19  1  0  0  0  0
 14 16  1  0  0  0  0
 14 13  1  0  0  0  0
 15 14  2  0  0  0  0
 18 19  1  0  0  0  0
 19 17  1  0  0  0  0
 20 21  2  0  0  0  0
 21 19  1  0  0  0  0
 21 22  1  0  0  0  0
 22 23  1  0  0  0  0
 23 24  1  0  0  0  0
 24 29  2  0  0  0  0
 25 30  1  0  0  0  0
 27 25  1  0  0  0  0
 28 31  1  0  0  0  0
 29 28  1  0  0  0  0
 29 25  1  0  0  0  0
 30 26  1  6  0  0  0
 31 30  1  0  0  0  0
 31 33  1  6  0  0  0
 32 25  1  0  0  0  0
 33 34  1  0  0  0  0
 34 26  1  0  0  0  0
 35 36  1  0  0  0  0
 36 37  1  0  0  0  0
 37 38  1  0  0  0  0
 38 44  2  0  0  0  0
 38 39  1  0  0  0  0
 39 42  2  0  0  0  0
 42 40  1  0  0  0  0
 42 41  1  0  0  0  0
 43 45  1  0  0  0  0
 43 40  2  0  0  0  0
 44 43  1  0  0  0  0
 45 46  1  0  0  0  0
M  END
>  <MODEL>
8

>  <REMARK>
 VINA RESULT:      -7.2      4.424      8.763
  Name = 
  11 active torsions:
  status: ('A' for Active; 'I' for Inactive)
    1  A    between atoms: N_1  and  C_19
    2  A    between atoms: N_1  and  N_30
    3  A    between atoms: N_2  and  C_11
    4  A    between atoms: N_6  and  C_29
    5  A    between atoms: C_10  and  C_19
    6  A    between atoms: C_11  and  N_42
    7  A    between atoms: C_14  and  C_29
    8  A    between atoms: O_15  and  C_41
    9  A    between atoms: C_20  and  C_35
   10  A    between atoms: N_30  and  C_35
   11  A    between atoms: N_34  and  C_35
                            x       y       z     vdW  Elec       q    Type
                         _______ _______ _______ _____ _____    ______ ____

>  <TORSDO>
F 11

$$$$
=
 OpenBabel11042420593D

 46 50  0  0  1  0  0  0  0  0999 V2000
  161.5920  206.6260  150.2190 C   0  0  2  0  0  3  0  0  0  0  0  0
  161.6010  205.7450  144.6810 N   0  0  0  0  0  1  0  0  0  0  0  0
  160.7580  203.3310  149.6320 N   0  0  0  0  0  0  0  0  0  0  0  0
  161.0560  205.8620  147.0590 C   0  0  0  0  0  2  0  0  0  0  0  0
  160.4930  205.7420  149.6020 C   0  0  2  0  0  3  0  0  0  0  0  0
  161.4010  203.0960  147.2210 C   0  0  0  0  0  0  0  0  0  0  0  0
  161.5850  203.7500  146.0400 N   0  0  0  0  0  0  0  0  0  0  0  0
  161.4180  205.1040  145.9380 C   0  0  0  0  0  0  0  0  0  0  0  0
  161.0420  203.8360  148.3460 C   0  0  0  0  0  0  0  0  0  0  0  0
  160.3410  204.4610  150.4620 C   0  0  0  0  0  3  0  0  0  0  0  0
  160.8900  205.1890  148.2710 C   0  0  0  0  0  0  0  0  0  0  0  0
  161.5430  201.8470  147.2860 O   0  0  0  0  0  0  0  0  0  0  0  0
  160.7330  208.3970  152.3920 N   0  0  0  0  0  2  0  0  0  0  0  0
  161.4340  207.1800  152.6800 C   0  0  0  0  0  0  0  0  0  0  0  0
  161.7500  206.8900  153.8650 O   0  0  0  0  0  0  0  0  0  0  0  0
  161.7750  206.2820  151.6230 N   0  0  0  0  0  2  0  0  0  0  0  0
  159.5130  210.3020  152.8540 F   0  0  0  0  0  0  0  0  0  0  0  0
  159.9630  208.8820  154.5370 F   0  0  0  0  0  0  0  0  0  0  0  0
  160.4640  209.4450  153.3760 C   0  0  0  0  0  0  0  0  0  0  0  0
  162.7070  210.1780  152.9150 O   0  0  0  0  0  0  0  0  0  0  0  0
  161.7100  210.2380  153.6830 C   0  0  0  0  0  0  0  0  0  0  0  0
  161.7680  211.1090  154.8080 N   0  0  0  0  0  2  0  0  0  0  0  0
  160.7550  211.1390  155.8480 C   0  0  0  0  0  2  0  0  0  0  0  0
  160.1430  212.4560  155.8910 N   0  0  0  0  0  0  0  0  0  0  0  0
  157.8360  211.5860  156.1060 C   0  0  0  0  0  0  0  0  0  0  0  0
  155.5810  212.1870  155.0680 C   0  0  0  0  0  2  0  0  0  0  0  0
  157.8570  210.7590  154.9940 F   0  0  0  0  0  0  0  0  0  0  0  0
  158.2900  213.8800  156.0360 O   0  0  0  0  0  0  0  0  0  0  0  0
  158.8630  212.6360  155.9990 C   0  0  0  0  0  0  0  0  0  0  0  0
  156.5480  212.4290  156.2130 C   0  0  2  0  0  3  0  0  0  0  0  0
  156.9210  213.8610  156.2040 N   0  0  2  0  0  0  0  0  0  0  0  0
  158.0140  210.8450  157.2610 F   0  0  0  0  0  0  0  0  0  0  0  0
  156.3250  214.4530  155.0090 C   0  0  0  0  0  2  0  0  0  0  0  0
  155.8070  213.3380  154.1280 C   0  0  0  0  0  2  0  0  0  0  0  0
  161.2600  208.0410  150.1180 N   0  0  0  0  0  2  0  0  0  0  0  0
  162.4160  208.7010  149.6700 N   0  0  0  0  0  2  0  0  0  0  0  0
  162.0690  209.4280  148.4560 C   0  0  0  0  0  2  0  0  0  0  0  0
  161.8180  210.8640  148.7600 C   0  0  0  0  0  0  0  0  0  0  0  0
  162.2960  211.8480  147.8920 C   0  0  0  0  0  3  0  0  0  0  0  0
  161.3100  213.5590  149.2910 C   0  0  0  0  0  3  0  0  0  0  0  0
  162.6280  214.4260  147.0640 Cl  0  0  0  0  0  0  0  0  0  0  0  0
  162.0400  213.1960  148.1590 C   0  0  0  0  0  0  0  0  0  0  0  0
  160.8350  212.5800  150.1690 C   0  0  0  0  0  0  0  0  0  0  0  0
  161.0890  211.2280  149.8950 C   0  0  0  0  0  3  0  0  0  0  0  0
  160.1230  212.9790  151.3040 O   0  0  0  0  0  0  0  0  0  0  0  0
  158.8010  213.4950  151.2390 C   0  0  0  0  0  1  0  0  0  0  0  0
  1 35  1  1  0  0  0
  1 16  1  0  0  0  0
  2  8  1  0  0  0  0
  3 10  2  0  0  0  0
  4 11  1  0  0  0  0
  5  1  1  1  0  0  0
  5 10  1  0  0  0  0
  6 12  2  0  0  0  0
  6  9  1  0  0  0  0
  7  6  1  0  0  0  0
  8  7  2  0  0  0  0
  8  4  1  0  0  0  0
  9  3  1  0  0  0  0
 11  9  2  0  0  0  0
 11  5  1  0  0  0  0
 13 14  1  0  0  0  0
 13 19  1  0  0  0  0
 14 15  2  0  0  0  0
 16 14  1  0  0  0  0
 17 19  1  0  0  0  0
 19 21  1  0  0  0  0
 19 18  1  0  0  0  0
 20 21  2  0  0  0  0
 21 22  1  0  0  0  0
 22 23  1  0  0  0  0
 23 24  1  0  0  0  0
 24 29  2  0  0  0  0
 25 30  1  0  0  0  0
 25 32  1  0  0  0  0
 27 25  1  0  0  0  0
 28 31  1  0  0  0  0
 29 28  1  0  0  0  0
 29 25  1  0  0  0  0
 30 26  1  6  0  0  0
 31 33  1  6  0  0  0
 31 30  1  0  0  0  0
 34 33  1  0  0  0  0
 34 26  1  0  0  0  0
 36 35  1  0  0  0  0
 37 38  1  0  0  0  0
 37 36  1  0  0  0  0
 38 44  1  0  0  0  0
 39 42  1  0  0  0  0
 39 38  2  0  0  0  0
 40 43  1  0  0  0  0
 41 42  1  0  0  0  0
 42 40  2  0  0  0  0
 43 45  1  0  0  0  0
 44 43  2  0  0  0  0
 46 45  1  0  0  0  0
M  END
>  <MODEL>
9

>  <REMARK>
 VINA RESULT:      -7.1      5.051     10.445
  Name = 
  11 active torsions:
  status: ('A' for Active; 'I' for Inactive)
    1  A    between atoms: N_1  and  C_19
    2  A    between atoms: N_1  and  N_30
    3  A    between atoms: N_2  and  C_11
    4  A    between atoms: N_6  and  C_29
    5  A    between atoms: C_10  and  C_19
    6  A    between atoms: C_11  and  N_42
    7  A    between atoms: C_14  and  C_29
    8  A    between atoms: O_15  and  C_41
    9  A    between atoms: C_20  and  C_35
   10  A    between atoms: N_30  and  C_35
   11  A    between atoms: N_34  and  C_35
                            x       y       z     vdW  Elec       q    Type
                         _______ _______ _______ _____ _____    ______ ____

>  <TORSDO>
F 11

$$$$
