=
 OpenBabel11052409383D

 38 40  0  0  1  0  0  0  0  0999 V2000
  160.8630  207.0610  147.7670 O   0  0  0  0  0  0  0  0  0  0  0  0
  161.0060  206.6200  148.9360 C   0  0  0  0  0  0  0  0  0  0  0  0
  161.0740  207.4640  150.1750 C   0  0  1  0  0  3  0  0  0  0  0  0
  160.9620  204.0890  148.4220 N   0  0  0  0  0  0  0  0  0  0  0  0
  161.0970  205.2170  149.2880 C   0  0  0  0  0  0  0  0  0  0  0  0
  161.1870  206.5810  152.5480 C   0  0  0  0  0  2  0  0  0  0  0  0
  161.1830  202.7920  148.9320 N   0  0  0  0  0  2  0  0  0  0  0  0
  161.1670  206.3870  151.2300 C   0  0  0  0  0  0  0  0  0  0  0  0
  161.1660  205.0730  150.5910 C   0  0  0  0  0  0  0  0  0  0  0  0
  160.5660  202.6860  150.2620 C   0  0  0  0  0  2  0  0  0  0  0  0
  161.1740  203.7180  151.2310 C   0  0  0  0  0  2  0  0  0  0  0  0
  161.1310  207.9450  153.1500 C   0  0  0  0  0  2  0  0  0  0  0  0
  160.3520  206.5180  155.0420 C   0  0  0  0  0  1  0  0  0  0  0  0
  160.3280  207.9130  154.4430 C   0  0  1  0  0  3  0  0  0  0  0  0
  160.8180  208.9380  155.4740 C   0  0  1  0  0  3  0  0  0  0  0  0
  161.6060  208.3350  156.6320 C   0  0  0  0  0  1  0  0  0  0  0  0
  161.5260  210.1430  154.8500 C   0  0  0  0  0  2  0  0  0  0  0  0
  160.7480  211.4480  154.9930 C   0  0  2  0  0  3  0  0  0  0  0  0
  157.8400  211.7100  154.2270 C   0  0  2  0  0  3  0  0  0  0  0  0
  158.3720  212.0810  155.6190 C   0  0  0  0  0  2  0  0  0  0  0  0
  158.9420  211.3580  153.2130 C   0  0  0  0  0  2  0  0  0  0  0  0
  159.5890  211.2310  155.9760 C   0  0  0  0  0  2  0  0  0  0  0  0
  160.2920  211.9520  153.6130 C   0  0  0  0  0  2  0  0  0  0  0  0
  155.6660  213.0130  154.2720 N   0  0  0  0  0  2  0  0  0  0  0  0
  157.3660  213.5110  152.7460 O   0  0  0  0  0  0  0  0  0  0  0  0
  156.9570  212.7910  153.6970 C   0  0  0  0  0  0  0  0  0  0  0  0
  154.7720  214.0470  153.7800 C   0  0  0  0  0  1  0  0  0  0  0  0
  162.2980  208.2560  150.1700 N   0  0  0  0  0  2  0  0  0  0  0  0
  161.8130  211.1780  148.2490 C   0  0  0  0  0  3  0  0  0  0  0  0
  162.3070  209.6760  150.3200 C   0  0  0  0  0  0  0  0  0  0  0  0
  162.0610  210.4290  149.2850 C   0  0  0  0  0  0  0  0  0  0  0  0
  162.6080  210.3170  151.6340 C   0  0  0  0  0  1  0  0  0  0  0  0
  161.1870  212.4470  148.4170 N   0  0  0  0  0  2  0  0  0  0  0  0
  160.1500  212.8940  147.4980 C   0  0  2  0  0  3  0  0  0  0  0  0
  160.7850  213.7290  146.3960 C   0  0  0  0  0  1  0  0  0  0  0  0
  159.3430  213.6690  149.7420 C   0  0  0  0  0  1  0  0  0  0  0  0
  157.7020  213.1510  147.9850 C   0  0  0  0  0  1  0  0  0  0  0  0
  159.0920  213.7070  148.2450 C   0  0  0  0  0  3  0  0  0  0  0  0
  1  2  2  0  0  0  0
  2  5  1  0  0  0  0
  2  3  1  0  0  0  0
  3 28  1  6  0  0  0
  3  8  1  0  0  0  0
  4  7  1  0  0  0  0
  4  5  2  0  0  0  0
  5  9  1  0  0  0  0
  6 12  1  0  0  0  0
  7 10  1  0  0  0  0
  8  6  1  0  0  0  0
  9  8  2  0  0  0  0
  9 11  1  0  0  0  0
 10 11  1  0  0  0  0
 12 14  1  0  0  0  0
 14 13  1  1  0  0  0
 14 15  1  0  0  0  0
 15 16  1  1  0  0  0
 17 15  1  0  0  0  0
 18 17  1  6  0  0  0
 18 22  1  0  0  0  0
 19 26  1  6  0  0  0
 19 20  1  0  0  0  0
 20 22  1  0  0  0  0
 21 23  1  0  0  0  0
 21 19  1  0  0  0  0
 23 18  1  0  0  0  0
 25 26  2  0  0  0  0
 26 24  1  0  0  0  0
 27 24  1  0  0  0  0
 28 30  1  0  0  0  0
 29 33  1  0  0  0  0
 29 31  2  0  0  0  0
 30 32  1  0  0  0  0
 31 30  2  0  0  0  0
 34 35  1  6  0  0  0
 34 38  1  0  0  0  0
 34 33  1  0  0  0  0
 37 38  1  0  0  0  0
 38 36  1  0  0  0  0
M  END
>  <MODEL>
1

>  <REMARK>
 VINA RESULT:      -7.6      0.000      0.000
  Name = 
  11 active torsions:
  status: ('A' for Active; 'I' for Inactive)
    1  A    between atoms: C_1  and  C_34
    2  A    between atoms: C_3  and  C_34
    3  A    between atoms: C_3  and  C_37
    4  A    between atoms: C_4  and  N_32
    5  A    between atoms: C_7  and  N_32
    6  A    between atoms: C_7  and  C_38
    7  A    between atoms: C_9  and  N_29
    8  A    between atoms: C_12  and  C_14
    9  A    between atoms: C_13  and  N_29
   10  A    between atoms: C_19  and  C_25
   11  A    between atoms: C_25  and  C_37
                            x       y       z     vdW  Elec       q    Type
                         _______ _______ _______ _____ _____    ______ ____

>  <TORSDO>
F 11

$$$$
=
 OpenBabel11052409383D

 38 40  0  0  1  0  0  0  0  0999 V2000
  162.3530  210.4600  152.5970 O   0  0  0  0  0  0  0  0  0  0  0  0
  161.8760  209.3290  152.8760 C   0  0  0  0  0  0  0  0  0  0  0  0
  162.0800  208.0830  152.0660 C   0  0  1  0  0  3  0  0  0  0  0  0
  160.7470  209.9100  155.1250 N   0  0  0  0  0  2  0  0  0  0  0  0
  161.0750  209.0330  154.0470 C   0  0  0  0  0  0  0  0  0  0  0  0
  161.2730  205.7680  152.7070 C   0  0  0  0  0  3  0  0  0  0  0  0
  159.8660  209.4680  156.1360 N   0  0  0  0  0  2  0  0  0  0  0  0
  161.3530  207.0800  152.9280 C   0  0  0  0  0  0  0  0  0  0  0  0
  160.7910  207.7530  154.0970 C   0  0  0  0  0  0  0  0  0  0  0  0
  160.1910  208.0780  156.4850 C   0  0  0  0  0  2  0  0  0  0  0  0
  160.0510  207.1580  155.2570 C   0  0  0  0  0  2  0  0  0  0  0  0
  161.9120  205.1240  151.5230 C   0  0  0  0  0  2  0  0  0  0  0  0
  160.6030  203.2750  152.5680 C   0  0  0  0  0  1  0  0  0  0  0  0
  161.6870  203.6180  151.5620 C   0  0  1  0  0  3  0  0  0  0  0  0
  161.3350  203.0330  150.1890 C   0  0  1  0  0  3  0  0  0  0  0  0
  160.8270  201.5960  150.2300 C   0  0  0  0  0  1  0  0  0  0  0  0
  160.4410  203.9450  149.3450 C   0  0  0  0  0  2  0  0  0  0  0  0
  161.2190  204.9510  148.5030 C   0  0  2  0  0  3  0  0  0  0  0  0
  160.8690  205.1970  145.5150 C   0  0  2  0  0  3  0  0  0  0  0  0
  160.7140  206.3870  146.4730 C   0  0  0  0  0  2  0  0  0  0  0  0
  161.3830  203.9160  146.1920 C   0  0  0  0  0  2  0  0  0  0  0  0
  160.2270  205.9180  147.8410 C   0  0  0  0  0  2  0  0  0  0  0  0
  162.1220  204.2200  147.4950 C   0  0  0  0  0  2  0  0  0  0  0  0
  161.1560  205.7450  143.0560 N   0  0  0  0  0  2  0  0  0  0  0  0
  162.9690  205.7300  144.5320 O   0  0  0  0  0  0  0  0  0  0  0  0
  161.7310  205.5670  144.3540 C   0  0  0  0  0  0  0  0  0  0  0  0
  161.9610  206.0950  141.8980 C   0  0  0  0  0  1  0  0  0  0  0  0
  161.4050  208.2100  150.7810 N   0  0  0  0  0  2  0  0  0  0  0  0
  161.7930  211.2680  149.0580 C   0  0  0  0  0  3  0  0  0  0  0  0
  162.0410  208.7350  149.6140 C   0  0  0  0  0  0  0  0  0  0  0  0
  161.9180  210.0010  149.3340 C   0  0  0  0  0  0  0  0  0  0  0  0
  162.8340  207.8590  148.7010 C   0  0  0  0  0  1  0  0  0  0  0  0
  162.8360  211.9570  148.3760 N   0  0  0  0  0  2  0  0  0  0  0  0
  162.5830  213.2340  147.7240 C   0  0  2  0  0  3  0  0  0  0  0  0
  161.5960  214.0360  148.5590 C   0  0  0  0  0  1  0  0  0  0  0  0
  162.5160  214.1020  145.3720 C   0  0  0  0  0  1  0  0  0  0  0  0
  160.5160  213.0270  146.3170 C   0  0  0  0  0  1  0  0  0  0  0  0
  162.0350  213.0120  146.3130 C   0  0  0  0  0  3  0  0  0  0  0  0
  1  2  2  0  0  0  0
  2  5  1  0  0  0  0
  3 28  1  6  0  0  0
  3  2  1  0  0  0  0
  3  8  1  0  0  0  0
  4  7  1  0  0  0  0
  5  9  2  0  0  0  0
  5  4  1  0  0  0  0
  6  8  2  0  0  0  0
  7 10  1  0  0  0  0
  8  9  1  0  0  0  0
  9 11  1  0  0  0  0
 11 10  1  0  0  0  0
 12 14  1  0  0  0  0
 12  6  1  0  0  0  0
 14 13  1  1  0  0  0
 15 16  1  1  0  0  0
 15 14  1  0  0  0  0
 17 15  1  0  0  0  0
 18 17  1  6  0  0  0
 19 26  1  6  0  0  0
 19 21  1  0  0  0  0
 19 20  1  0  0  0  0
 20 22  1  0  0  0  0
 21 23  1  0  0  0  0
 22 18  1  0  0  0  0
 23 18  1  0  0  0  0
 24 26  1  0  0  0  0
 26 25  2  0  0  0  0
 27 24  1  0  0  0  0
 29 31  2  0  0  0  0
 30 28  1  0  0  0  0
 31 30  2  0  0  0  0
 32 30  1  0  0  0  0
 33 29  1  0  0  0  0
 34 33  1  0  0  0  0
 34 35  1  1  0  0  0
 36 38  1  0  0  0  0
 38 37  1  0  0  0  0
 38 34  1  0  0  0  0
M  END
>  <MODEL>
2

>  <REMARK>
 VINA RESULT:      -7.1      3.097      7.590
  Name = 
  11 active torsions:
  status: ('A' for Active; 'I' for Inactive)
    1  A    between atoms: C_1  and  C_34
    2  A    between atoms: C_3  and  C_34
    3  A    between atoms: C_3  and  C_37
    4  A    between atoms: C_4  and  N_32
    5  A    between atoms: C_7  and  N_32
    6  A    between atoms: C_7  and  C_38
    7  A    between atoms: C_9  and  N_29
    8  A    between atoms: C_12  and  C_14
    9  A    between atoms: C_13  and  N_29
   10  A    between atoms: C_19  and  C_25
   11  A    between atoms: C_25  and  C_37
                            x       y       z     vdW  Elec       q    Type
                         _______ _______ _______ _____ _____    ______ ____

>  <TORSDO>
F 11

$$$$
=
 OpenBabel11052409383D

 38 40  0  0  1  0  0  0  0  0999 V2000
  159.9420  212.0220  155.0590 O   0  0  0  0  0  0  0  0  0  0  0  0
  160.3180  210.9760  154.4700 C   0  0  0  0  0  0  0  0  0  0  0  0
  160.9380  210.9290  153.1050 C   0  0  1  0  0  3  0  0  0  0  0  0
  159.8280  209.2610  156.3380 N   0  0  0  0  0  2  0  0  0  0  0  0
  160.2460  209.6400  155.0260 C   0  0  0  0  0  0  0  0  0  0  0  0
  161.8580  208.8530  151.9810 C   0  0  0  0  0  3  0  0  0  0  0  0
  159.7280  207.8920  156.6680 N   0  0  0  0  0  2  0  0  0  0  0  0
  161.2330  209.4530  152.9930 C   0  0  0  0  0  0  0  0  0  0  0  0
  160.7830  208.7690  154.2040 C   0  0  0  0  0  0  0  0  0  0  0  0
  160.8830  207.1770  156.1060 C   0  0  0  0  0  2  0  0  0  0  0  0
  160.9250  207.3240  154.5730 C   0  0  0  0  0  2  0  0  0  0  0  0
  162.3450  209.6080  150.7900 C   0  0  0  0  0  2  0  0  0  0  0  0
  161.7970  210.2360  148.4390 C   0  0  0  0  0  1  0  0  0  0  0  0
  161.4910  209.2750  149.5740 C   0  0  1  0  0  3  0  0  0  0  0  0
  161.6680  207.8270  149.1010 C   0  0  1  0  0  3  0  0  0  0  0  0
  162.9170  207.5900  148.2570 C   0  0  0  0  0  1  0  0  0  0  0  0
  161.5140  206.7940  150.2200 C   0  0  0  0  0  2  0  0  0  0  0  0
  160.5850  205.6390  149.8600 C   0  0  2  0  0  3  0  0  0  0  0  0
  161.5690  203.0910  148.5730 C   0  0  2  0  0  3  0  0  0  0  0  0
  160.7540  203.1070  149.8750 C   0  0  0  0  0  2  0  0  0  0  0  0
  161.6890  204.4680  147.8980 C   0  0  0  0  0  2  0  0  0  0  0  0
  161.0080  204.3940  150.6540 C   0  0  0  0  0  2  0  0  0  0  0  0
  160.5740  205.4150  148.3380 C   0  0  0  0  0  2  0  0  0  0  0  0
  160.8310  202.4140  146.2440 N   0  0  0  0  0  2  0  0  0  0  0  0
  160.7310  200.9280  148.0460 O   0  0  0  0  0  0  0  0  0  0  0  0
  161.0180  202.0800  147.6220 C   0  0  0  0  0  0  0  0  0  0  0  0
  160.2890  201.4630  145.2880 C   0  0  0  0  0  1  0  0  0  0  0  0
  159.9550  211.3140  152.0990 N   0  0  0  0  0  2  0  0  0  0  0  0
  160.8340  213.3890  149.3810 C   0  0  0  0  0  3  0  0  0  0  0  0
  159.7840  212.6590  151.6510 C   0  0  0  0  0  0  0  0  0  0  0  0
  160.3090  213.0260  150.5170 C   0  0  0  0  0  0  0  0  0  0  0  0
  159.0290  213.6590  152.4630 C   0  0  0  0  0  1  0  0  0  0  0  0
  160.2120  214.4020  148.5970 N   0  0  0  0  0  2  0  0  0  0  0  0
  159.6290  214.0870  147.3000 C   0  0  2  0  0  3  0  0  0  0  0  0
  158.2720  213.4320  147.5070 C   0  0  0  0  0  1  0  0  0  0  0  0
  161.7170  213.9410  145.9180 C   0  0  0  0  0  1  0  0  0  0  0  0
  159.8080  212.4910  145.3720 C   0  0  0  0  0  1  0  0  0  0  0  0
  160.5570  213.1610  146.5110 C   0  0  0  0  0  3  0  0  0  0  0  0
  2  5  1  0  0  0  0
  2  1  2  0  0  0  0
  3 28  1  6  0  0  0
  3  2  1  0  0  0  0
  4  7  1  0  0  0  0
  5  4  1  0  0  0  0
  6  8  2  0  0  0  0
  8  3  1  0  0  0  0
  8  9  1  0  0  0  0
  9 11  1  0  0  0  0
  9  5  2  0  0  0  0
 10  7  1  0  0  0  0
 11 10  1  0  0  0  0
 12  6  1  0  0  0  0
 14 13  1  6  0  0  0
 14 12  1  0  0  0  0
 15 16  1  1  0  0  0
 15 14  1  0  0  0  0
 15 17  1  0  0  0  0
 18 17  1  6  0  0  0
 18 22  1  0  0  0  0
 19 26  1  6  0  0  0
 19 20  1  0  0  0  0
 20 22  1  0  0  0  0
 21 23  1  0  0  0  0
 21 19  1  0  0  0  0
 23 18  1  0  0  0  0
 24 26  1  0  0  0  0
 26 25  2  0  0  0  0
 27 24  1  0  0  0  0
 29 31  2  0  0  0  0
 30 28  1  0  0  0  0
 30 32  1  0  0  0  0
 31 30  2  0  0  0  0
 33 29  1  0  0  0  0
 34 35  1  1  0  0  0
 34 33  1  0  0  0  0
 36 38  1  0  0  0  0
 37 38  1  0  0  0  0
 38 34  1  0  0  0  0
M  END
>  <MODEL>
3

>  <REMARK>
 VINA RESULT:      -6.6      2.575      7.668
  Name = 
  11 active torsions:
  status: ('A' for Active; 'I' for Inactive)
    1  A    between atoms: C_1  and  C_34
    2  A    between atoms: C_3  and  C_34
    3  A    between atoms: C_3  and  C_37
    4  A    between atoms: C_4  and  N_32
    5  A    between atoms: C_7  and  N_32
    6  A    between atoms: C_7  and  C_38
    7  A    between atoms: C_9  and  N_29
    8  A    between atoms: C_12  and  C_14
    9  A    between atoms: C_13  and  N_29
   10  A    between atoms: C_19  and  C_25
   11  A    between atoms: C_25  and  C_37
                            x       y       z     vdW  Elec       q    Type
                         _______ _______ _______ _____ _____    ______ ____

>  <TORSDO>
F 11

$$$$
=
 OpenBabel11052409383D

 38 40  0  0  1  0  0  0  0  0999 V2000
  161.9740  205.2690  151.6090 O   0  0  0  0  0  0  0  0  0  0  0  0
  161.8310  206.1470  150.7190 C   0  0  0  0  0  0  0  0  0  0  0  0
  161.8910  207.6280  150.9500 C   0  0  1  0  0  3  0  0  0  0  0  0
  161.6070  204.6040  148.6600 N   0  0  0  0  0  2  0  0  0  0  0  0
  161.6150  205.8750  149.3120 C   0  0  0  0  0  0  0  0  0  0  0  0
  161.7780  209.4020  149.1430 C   0  0  0  0  0  3  0  0  0  0  0  0
  161.2790  204.5290  147.2890 N   0  0  0  0  0  2  0  0  0  0  0  0
  161.7320  208.1290  149.5350 C   0  0  0  0  0  0  0  0  0  0  0  0
  161.5800  206.9940  148.6270 C   0  0  0  0  0  0  0  0  0  0  0  0
  161.9300  205.6370  146.5770 C   0  0  0  0  0  2  0  0  0  0  0  0
  161.4620  206.9960  147.1330 C   0  0  0  0  0  2  0  0  0  0  0  0
  161.9900  210.5200  150.1070 C   0  0  0  0  0  2  0  0  0  0  0  0
  162.7910  211.5400  147.9760 C   0  0  0  0  0  1  0  0  0  0  0  0
  162.2200  211.8230  149.3540 C   0  0  1  0  0  3  0  0  0  0  0  0
  160.9500  212.6740  149.2340 C   0  0  1  0  0  3  0  0  0  0  0  0
  160.2300  212.9180  150.5560 C   0  0  0  0  0  1  0  0  0  0  0  0
  161.1500  213.9620  148.4310 C   0  0  0  0  0  2  0  0  0  0  0  0
  160.1900  214.1030  147.2540 C   0  0  2  0  0  3  0  0  0  0  0  0
  160.2760  212.2810  144.8490 C   0  0  2  0  0  3  0  0  0  0  0  0
  159.0050  212.5010  145.6820 C   0  0  0  0  0  2  0  0  0  0  0  0
  161.4460  213.1970  145.2440 C   0  0  0  0  0  2  0  0  0  0  0  0
  159.3590  212.8160  147.1330 C   0  0  0  0  0  2  0  0  0  0  0  0
  160.9630  214.4510  145.9710 C   0  0  0  0  0  2  0  0  0  0  0  0
  160.8930  211.8920  142.4210 N   0  0  0  0  0  2  0  0  0  0  0  0
  158.8980  212.9490  143.0280 O   0  0  0  0  0  0  0  0  0  0  0  0
  159.9740  212.4020  143.3920 C   0  0  0  0  0  0  0  0  0  0  0  0
  160.6430  211.9990  140.9930 C   0  0  0  0  0  1  0  0  0  0  0  0
  160.7510  208.0520  151.7540 N   0  0  0  0  0  2  0  0  0  0  0  0
  161.2390  210.8820  153.8090 C   0  0  0  0  0  3  0  0  0  0  0  0
  160.8580  208.3940  153.1370 C   0  0  0  0  0  0  0  0  0  0  0  0
  161.0490  209.6370  153.4750 C   0  0  0  0  0  0  0  0  0  0  0  0
  160.7690  207.3530  154.2040 C   0  0  0  0  0  1  0  0  0  0  0  0
  160.7270  211.3770  155.0430 N   0  0  0  0  0  2  0  0  0  0  0  0
  159.8430  212.5340  155.0720 C   0  0  2  0  0  3  0  0  0  0  0  0
  160.0220  213.2670  156.3930 C   0  0  0  0  0  1  0  0  0  0  0  0
  158.1320  210.7830  155.6170 C   0  0  0  0  0  1  0  0  0  0  0  0
  158.0580  211.8980  153.4260 C   0  0  0  0  0  1  0  0  0  0  0  0
  158.3880  212.0950  154.8960 C   0  0  0  0  0  3  0  0  0  0  0  0
  2  3  1  0  0  0  0
  2  1  2  0  0  0  0
  3 28  1  1  0  0  0
  4  5  1  0  0  0  0
  5  2  1  0  0  0  0
  6  8  2  0  0  0  0
  6 12  1  0  0  0  0
  7  4  1  0  0  0  0
  8  3  1  0  0  0  0
  9  5  2  0  0  0  0
  9  8  1  0  0  0  0
 10 11  1  0  0  0  0
 10  7  1  0  0  0  0
 11  9  1  0  0  0  0
 14 13  1  6  0  0  0
 14 12  1  0  0  0  0
 15 14  1  0  0  0  0
 15 16  1  1  0  0  0
 17 15  1  0  0  0  0
 18 17  1  1  0  0  0
 19 26  1  6  0  0  0
 19 21  1  0  0  0  0
 19 20  1  0  0  0  0
 20 22  1  0  0  0  0
 21 23  1  0  0  0  0
 22 18  1  0  0  0  0
 23 18  1  0  0  0  0
 24 26  1  0  0  0  0
 25 26  2  0  0  0  0
 27 24  1  0  0  0  0
 28 30  1  0  0  0  0
 29 33  1  0  0  0  0
 30 31  2  0  0  0  0
 30 32  1  0  0  0  0
 31 29  2  0  0  0  0
 33 34  1  0  0  0  0
 34 35  1  1  0  0  0
 37 38  1  0  0  0  0
 38 34  1  0  0  0  0
 38 36  1  0  0  0  0
M  END
>  <MODEL>
4

>  <REMARK>
 VINA RESULT:      -6.5      2.629      7.080
  Name = 
  11 active torsions:
  status: ('A' for Active; 'I' for Inactive)
    1  A    between atoms: C_1  and  C_34
    2  A    between atoms: C_3  and  C_34
    3  A    between atoms: C_3  and  C_37
    4  A    between atoms: C_4  and  N_32
    5  A    between atoms: C_7  and  N_32
    6  A    between atoms: C_7  and  C_38
    7  A    between atoms: C_9  and  N_29
    8  A    between atoms: C_12  and  C_14
    9  A    between atoms: C_13  and  N_29
   10  A    between atoms: C_19  and  C_25
   11  A    between atoms: C_25  and  C_37
                            x       y       z     vdW  Elec       q    Type
                         _______ _______ _______ _____ _____    ______ ____

>  <TORSDO>
F 11

$$$$
=
 OpenBabel11052409383D

 38 40  0  0  1  0  0  0  0  0999 V2000
  160.7230  206.6610  147.5550 O   0  0  0  0  0  0  0  0  0  0  0  0
  160.9040  206.3220  148.7540 C   0  0  0  0  0  0  0  0  0  0  0  0
  160.9840  207.2680  149.9150 C   0  0  1  0  0  3  0  0  0  0  0  0
  160.9020  203.7570  148.4540 N   0  0  0  0  0  0  0  0  0  0  0  0
  161.0340  204.9560  149.2190 C   0  0  0  0  0  0  0  0  0  0  0  0
  161.1730  206.5910  152.3500 C   0  0  0  0  0  2  0  0  0  0  0  0
  161.1640  202.5110  149.0650 N   0  0  0  0  0  2  0  0  0  0  0  0
  161.1250  206.2860  151.0530 C   0  0  0  0  0  0  0  0  0  0  0  0
  161.1380  204.9230  150.5270 C   0  0  0  0  0  0  0  0  0  0  0  0
  160.5820  202.5060  150.4150 C   0  0  0  0  0  2  0  0  0  0  0  0
  161.1910  203.6270  151.2780 C   0  0  0  0  0  2  0  0  0  0  0  0
  161.1020  207.9990  152.8360 C   0  0  0  0  0  2  0  0  0  0  0  0
  160.7280  206.7070  154.9380 C   0  0  0  0  0  1  0  0  0  0  0  0
  160.5120  208.0380  154.2400 C   0  0  1  0  0  3  0  0  0  0  0  0
  161.0800  209.1790  155.0930 C   0  0  1  0  0  3  0  0  0  0  0  0
  161.8040  210.2590  154.2960 C   0  0  0  0  0  1  0  0  0  0  0  0
  160.0710  209.7620  156.0850 C   0  0  0  0  0  2  0  0  0  0  0  0
  159.6490  211.1910  155.7570 C   0  0  2  0  0  3  0  0  0  0  0  0
  156.8440  212.2110  156.2050 C   0  0  2  0  0  3  0  0  0  0  0  0
  158.0850  212.9000  156.7910 C   0  0  0  0  0  2  0  0  0  0  0  0
  157.1700  211.0620  155.2360 C   0  0  0  0  0  2  0  0  0  0  0  0
  159.1940  211.8850  157.0490 C   0  0  0  0  0  2  0  0  0  0  0  0
  158.5770  211.1920  154.6550 C   0  0  0  0  0  2  0  0  0  0  0  0
  155.6280  213.1060  154.1690 N   0  0  0  0  0  2  0  0  0  0  0  0
  155.4560  214.1430  156.2570 O   0  0  0  0  0  0  0  0  0  0  0  0
  155.9430  213.2110  155.5600 C   0  0  0  0  0  0  0  0  0  0  0  0
  154.7640  214.0640  153.5000 C   0  0  0  0  0  1  0  0  0  0  0  0
  162.1890  208.0810  149.8120 N   0  0  0  0  0  2  0  0  0  0  0  0
  161.5220  210.9680  147.8920 C   0  0  0  0  0  3  0  0  0  0  0  0
  162.1840  209.5040  149.9430 C   0  0  0  0  0  0  0  0  0  0  0  0
  161.8540  210.2380  148.9190 C   0  0  0  0  0  0  0  0  0  0  0  0
  162.5630  210.1680  151.2250 C   0  0  0  0  0  1  0  0  0  0  0  0
  160.8870  212.2280  148.0870 N   0  0  0  0  0  2  0  0  0  0  0  0
  160.5960  213.0990  146.9570 C   0  0  2  0  0  3  0  0  0  0  0  0
  160.3290  212.2470  145.7250 C   0  0  0  0  0  1  0  0  0  0  0  0
  162.5400  213.6390  145.4680 C   0  0  0  0  0  1  0  0  0  0  0  0
  162.7230  214.0550  147.8850 C   0  0  0  0  0  1  0  0  0  0  0  0
  161.7650  214.0540  146.7060 C   0  0  0  0  0  3  0  0  0  0  0  0
  1  2  2  0  0  0  0
  2  5  1  0  0  0  0
  2  3  1  0  0  0  0
  3 28  1  6  0  0  0
  3  8  1  0  0  0  0
  4  7  1  0  0  0  0
  4  5  2  0  0  0  0
  5  9  1  0  0  0  0
  6 12  1  0  0  0  0
  7 10  1  0  0  0  0
  8  6  1  0  0  0  0
  9  8  2  0  0  0  0
  9 11  1  0  0  0  0
 10 11  1  0  0  0  0
 12 14  1  0  0  0  0
 14 13  1  1  0  0  0
 14 15  1  0  0  0  0
 15 16  1  6  0  0  0
 15 17  1  0  0  0  0
 18 17  1  1  0  0  0
 18 22  1  0  0  0  0
 19 26  1  6  0  0  0
 19 20  1  0  0  0  0
 20 22  1  0  0  0  0
 21 19  1  0  0  0  0
 23 21  1  0  0  0  0
 23 18  1  0  0  0  0
 24 26  1  0  0  0  0
 26 25  2  0  0  0  0
 27 24  1  0  0  0  0
 28 30  1  0  0  0  0
 29 33  1  0  0  0  0
 29 31  2  0  0  0  0
 30 32  1  0  0  0  0
 31 30  2  0  0  0  0
 34 35  1  6  0  0  0
 34 33  1  0  0  0  0
 36 38  1  0  0  0  0
 38 34  1  0  0  0  0
 38 37  1  0  0  0  0
M  END
>  <MODEL>
5

>  <REMARK>
 VINA RESULT:      -6.4      1.297      1.830
  Name = 
  11 active torsions:
  status: ('A' for Active; 'I' for Inactive)
    1  A    between atoms: C_1  and  C_34
    2  A    between atoms: C_3  and  C_34
    3  A    between atoms: C_3  and  C_37
    4  A    between atoms: C_4  and  N_32
    5  A    between atoms: C_7  and  N_32
    6  A    between atoms: C_7  and  C_38
    7  A    between atoms: C_9  and  N_29
    8  A    between atoms: C_12  and  C_14
    9  A    between atoms: C_13  and  N_29
   10  A    between atoms: C_19  and  C_25
   11  A    between atoms: C_25  and  C_37
                            x       y       z     vdW  Elec       q    Type
                         _______ _______ _______ _____ _____    ______ ____

>  <TORSDO>
F 11

$$$$
=
 OpenBabel11052409383D

 38 40  0  0  1  0  0  0  0  0999 V2000
  161.7570  206.6690  152.6020 O   0  0  0  0  0  0  0  0  0  0  0  0
  161.6830  207.2050  151.4660 C   0  0  0  0  0  0  0  0  0  0  0  0
  161.9130  208.6600  151.1810 C   0  0  1  0  0  3  0  0  0  0  0  0
  161.2250  205.0930  150.0510 N   0  0  0  0  0  2  0  0  0  0  0  0
  161.3940  206.5000  150.2340 C   0  0  0  0  0  0  0  0  0  0  0  0
  161.9380  209.7180  148.8790 C   0  0  0  0  0  3  0  0  0  0  0  0
  160.8460  204.5970  148.7850 N   0  0  0  0  0  2  0  0  0  0  0  0
  161.7640  208.6670  149.6790 C   0  0  0  0  0  0  0  0  0  0  0  0
  161.4590  207.3170  149.2090 C   0  0  0  0  0  0  0  0  0  0  0  0
  161.5920  205.3170  147.7430 C   0  0  0  0  0  2  0  0  0  0  0  0
  161.2950  206.8280  147.8020 C   0  0  0  0  0  2  0  0  0  0  0  0
  162.3020  211.0650  149.4070 C   0  0  0  0  0  2  0  0  0  0  0  0
  160.6300  212.9030  149.6310 C   0  0  0  0  0  1  0  0  0  0  0  0
  161.5250  212.1450  148.6670 C   0  0  1  0  0  3  0  0  0  0  0  0
  162.4360  213.1230  147.9140 C   0  0  1  0  0  3  0  0  0  0  0  0
  163.8360  212.5890  147.6340 C   0  0  0  0  0  1  0  0  0  0  0  0
  161.7830  213.7330  146.6710 C   0  0  0  0  0  2  0  0  0  0  0  0
  161.6460  212.7510  145.5110 C   0  0  2  0  0  3  0  0  0  0  0  0
  160.5430  213.5490  142.8170 C   0  0  2  0  0  3  0  0  0  0  0  0
  161.9130  212.8760  142.9900 C   0  0  0  0  0  2  0  0  0  0  0  0
  159.7170  213.6230  144.1120 C   0  0  0  0  0  2  0  0  0  0  0  0
  162.5200  213.2330  144.3440 C   0  0  0  0  0  2  0  0  0  0  0  0
  160.1660  212.5770  145.1310 C   0  0  0  0  0  2  0  0  0  0  0  0
  160.3560  211.8300  140.9630 N   0  0  0  0  0  2  0  0  0  0  0  0
  158.5840  213.2570  141.4990 O   0  0  0  0  0  0  0  0  0  0  0  0
  159.7670  212.8850  141.7280 C   0  0  0  0  0  0  0  0  0  0  0  0
  159.6390  211.1630  139.8890 C   0  0  0  0  0  1  0  0  0  0  0  0
  160.8540  209.4580  151.7860 N   0  0  0  0  0  2  0  0  0  0  0  0
  159.3960  212.3570  153.1770 C   0  0  0  0  0  3  0  0  0  0  0  0
  161.0910  210.4100  152.8230 C   0  0  0  0  0  0  0  0  0  0  0  0
  160.2450  211.3850  153.0010 C   0  0  0  0  0  0  0  0  0  0  0  0
  162.2970  210.3210  153.6990 C   0  0  0  0  0  1  0  0  0  0  0  0
  159.1940  212.9030  154.4770 N   0  0  0  0  0  2  0  0  0  0  0  0
  158.0730  212.4720  155.3000 C   0  0  2  0  0  3  0  0  0  0  0  0
  158.4840  211.2470  156.1040 C   0  0  0  0  0  1  0  0  0  0  0  0
  155.9520  213.3670  154.3050 C   0  0  0  0  0  1  0  0  0  0  0  0
  156.0500  211.0140  155.0140 C   0  0  0  0  0  1  0  0  0  0  0  0
  156.8600  212.1560  154.4230 C   0  0  0  0  0  3  0  0  0  0  0  0
  2  1  2  0  0  0  0
  3  2  1  0  0  0  0
  3 28  1  1  0  0  0
  4  5  1  0  0  0  0
  5  2  1  0  0  0  0
  6 12  1  0  0  0  0
  6  8  2  0  0  0  0
  7  4  1  0  0  0  0
  8  3  1  0  0  0  0
  9  8  1  0  0  0  0
  9  5  2  0  0  0  0
 10 11  1  0  0  0  0
 10  7  1  0  0  0  0
 11  9  1  0  0  0  0
 14 12  1  0  0  0  0
 14 13  1  1  0  0  0
 15 16  1  6  0  0  0
 15 14  1  0  0  0  0
 17 15  1  0  0  0  0
 18 17  1  1  0  0  0
 19 26  1  6  0  0  0
 19 20  1  0  0  0  0
 19 21  1  0  0  0  0
 20 22  1  0  0  0  0
 21 23  1  0  0  0  0
 22 18  1  0  0  0  0
 23 18  1  0  0  0  0
 24 26  1  0  0  0  0
 25 26  2  0  0  0  0
 27 24  1  0  0  0  0
 28 30  1  0  0  0  0
 29 33  1  0  0  0  0
 30 31  2  0  0  0  0
 30 32  1  0  0  0  0
 31 29  2  0  0  0  0
 33 34  1  0  0  0  0
 34 35  1  6  0  0  0
 36 38  1  0  0  0  0
 38 37  1  0  0  0  0
 38 34  1  0  0  0  0
M  END
>  <MODEL>
6

>  <REMARK>
 VINA RESULT:      -6.2      3.031      7.885
  Name = 
  11 active torsions:
  status: ('A' for Active; 'I' for Inactive)
    1  A    between atoms: C_1  and  C_34
    2  A    between atoms: C_3  and  C_34
    3  A    between atoms: C_3  and  C_37
    4  A    between atoms: C_4  and  N_32
    5  A    between atoms: C_7  and  N_32
    6  A    between atoms: C_7  and  C_38
    7  A    between atoms: C_9  and  N_29
    8  A    between atoms: C_12  and  C_14
    9  A    between atoms: C_13  and  N_29
   10  A    between atoms: C_19  and  C_25
   11  A    between atoms: C_25  and  C_37
                            x       y       z     vdW  Elec       q    Type
                         _______ _______ _______ _____ _____    ______ ____

>  <TORSDO>
F 11

$$$$
=
 OpenBabel11052409383D

 38 40  0  0  1  0  0  0  0  0999 V2000
  160.8210  206.7460  153.4710 O   0  0  0  0  0  0  0  0  0  0  0  0
  160.9470  207.9940  153.5710 C   0  0  0  0  0  0  0  0  0  0  0  0
  160.8670  208.9640  152.4290 C   0  0  1  0  0  3  0  0  0  0  0  0
  161.1850  208.1730  156.1360 N   0  0  0  0  0  2  0  0  0  0  0  0
  161.1610  208.7090  154.8130 C   0  0  0  0  0  0  0  0  0  0  0  0
  160.9460  211.4880  152.6390 C   0  0  0  0  0  3  0  0  0  0  0  0
  161.5090  209.0160  157.2220 N   0  0  0  0  0  2  0  0  0  0  0  0
  161.0130  210.2690  153.1730 C   0  0  0  0  0  0  0  0  0  0  0  0
  161.1780  210.0040  154.6010 C   0  0  0  0  0  0  0  0  0  0  0  0
  160.8390  210.3120  157.0410 C   0  0  0  0  0  2  0  0  0  0  0  0
  161.2890  210.9840  155.7300 C   0  0  0  0  0  2  0  0  0  0  0  0
  160.7220  211.7020  151.1800 C   0  0  0  0  0  2  0  0  0  0  0  0
  159.1280  213.3670  152.1340 C   0  0  0  0  0  1  0  0  0  0  0  0
  159.4170  212.4540  150.9560 C   0  0  1  0  0  3  0  0  0  0  0  0
  159.4090  213.2590  149.6500 C   0  0  1  0  0  3  0  0  0  0  0  0
  158.3940  214.3960  149.6200 C   0  0  0  0  0  1  0  0  0  0  0  0
  160.8020  213.7060  149.1990 C   0  0  0  0  0  2  0  0  0  0  0  0
  161.3750  212.8640  148.0640 C   0  0  2  0  0  3  0  0  0  0  0  0
  161.3060  213.7490  145.1780 C   0  0  2  0  0  3  0  0  0  0  0  0
  162.6030  213.3440  145.8950 C   0  0  0  0  0  2  0  0  0  0  0  0
  160.0340  213.5000  146.0060 C   0  0  0  0  0  2  0  0  0  0  0  0
  162.5100  213.6470  147.3880 C   0  0  0  0  0  2  0  0  0  0  0  0
  160.2590  212.4480  147.0910 C   0  0  0  0  0  2  0  0  0  0  0  0
  162.3490  213.0400  142.9790 N   0  0  0  0  0  2  0  0  0  0  0  0
  160.1240  212.5450  143.5010 O   0  0  0  0  0  0  0  0  0  0  0  0
  161.2120  213.0810  143.8470 C   0  0  0  0  0  0  0  0  0  0  0  0
  162.2970  212.4080  141.6710 C   0  0  0  0  0  1  0  0  0  0  0  0
  162.0030  208.7750  151.5360 N   0  0  0  0  0  2  0  0  0  0  0  0
  161.7940  205.5420  150.1330 C   0  0  0  0  0  3  0  0  0  0  0  0
  161.8950  208.1420  150.2600 C   0  0  0  0  0  0  0  0  0  0  0  0
  161.8450  206.8420  150.1940 C   0  0  0  0  0  0  0  0  0  0  0  0
  161.8520  208.9390  148.9980 C   0  0  0  0  0  1  0  0  0  0  0  0
  161.0720  204.9030  149.0830 N   0  0  0  0  0  2  0  0  0  0  0  0
  161.7150  203.9110  148.2330 C   0  0  2  0  0  3  0  0  0  0  0  0
  161.1560  204.0230  146.8220 C   0  0  0  0  0  1  0  0  0  0  0  0
  160.8650  201.6050  147.7370 C   0  0  0  0  0  1  0  0  0  0  0  0
  160.5520  202.5450  149.9880 C   0  0  0  0  0  1  0  0  0  0  0  0
  161.4860  202.5050  148.7910 C   0  0  0  0  0  3  0  0  0  0  0  0
  1  2  2  0  0  0  0
  2  5  1  0  0  0  0
  3 28  1  6  0  0  0
  3  8  1  0  0  0  0
  3  2  1  0  0  0  0
  4  7  1  0  0  0  0
  5  4  1  0  0  0  0
  6  8  2  0  0  0  0
  8  9  1  0  0  0  0
  9  5  2  0  0  0  0
  9 11  1  0  0  0  0
 10  7  1  0  0  0  0
 11 10  1  0  0  0  0
 12  6  1  0  0  0  0
 14 12  1  0  0  0  0
 14 13  1  1  0  0  0
 15 16  1  1  0  0  0
 15 14  1  0  0  0  0
 17 15  1  0  0  0  0
 18 17  1  1  0  0  0
 19 26  1  6  0  0  0
 19 20  1  0  0  0  0
 19 21  1  0  0  0  0
 20 22  1  0  0  0  0
 21 23  1  0  0  0  0
 22 18  1  0  0  0  0
 23 18  1  0  0  0  0
 24 26  1  0  0  0  0
 25 26  2  0  0  0  0
 27 24  1  0  0  0  0
 29 31  2  0  0  0  0
 30 28  1  0  0  0  0
 31 30  2  0  0  0  0
 32 30  1  0  0  0  0
 33 29  1  0  0  0  0
 34 35  1  6  0  0  0
 34 38  1  0  0  0  0
 34 33  1  0  0  0  0
 36 38  1  0  0  0  0
 38 37  1  0  0  0  0
M  END
>  <MODEL>
7

>  <REMARK>
 VINA RESULT:      -5.9      2.839      8.272
  Name = 
  11 active torsions:
  status: ('A' for Active; 'I' for Inactive)
    1  A    between atoms: C_1  and  C_34
    2  A    between atoms: C_3  and  C_34
    3  A    between atoms: C_3  and  C_37
    4  A    between atoms: C_4  and  N_32
    5  A    between atoms: C_7  and  N_32
    6  A    between atoms: C_7  and  C_38
    7  A    between atoms: C_9  and  N_29
    8  A    between atoms: C_12  and  C_14
    9  A    between atoms: C_13  and  N_29
   10  A    between atoms: C_19  and  C_25
   11  A    between atoms: C_25  and  C_37
                            x       y       z     vdW  Elec       q    Type
                         _______ _______ _______ _____ _____    ______ ____

>  <TORSDO>
F 11

$$$$
=
 OpenBabel11052409383D

 38 40  0  0  1  0  0  0  0  0999 V2000
  161.4070  213.2040  147.0450 O   0  0  0  0  0  0  0  0  0  0  0  0
  160.4700  213.2190  147.8840 C   0  0  0  0  0  0  0  0  0  0  0  0
  160.6440  213.1890  149.3740 C   0  0  1  0  0  3  0  0  0  0  0  0
  158.4760  213.4580  146.2600 N   0  0  0  0  0  0  0  0  0  0  0  0
  159.0610  213.2990  147.5530 C   0  0  0  0  0  0  0  0  0  0  0  0
  158.7770  213.3930  151.0750 C   0  0  0  0  0  2  0  0  0  0  0  0
  157.0720  213.4150  146.1230 N   0  0  0  0  0  2  0  0  0  0  0  0
  159.2050  213.3040  149.8160 C   0  0  0  0  0  0  0  0  0  0  0  0
  158.3350  213.3700  148.6440 C   0  0  0  0  0  0  0  0  0  0  0  0
  156.4570  214.1640  147.2280 C   0  0  0  0  0  2  0  0  0  0  0  0
  156.8490  213.5560  148.5870 C   0  0  0  0  0  2  0  0  0  0  0  0
  159.7150  213.3740  152.2340 C   0  0  0  0  0  2  0  0  0  0  0  0
  157.4450  213.3740  153.2690 C   0  0  0  0  0  1  0  0  0  0  0  0
  158.9350  213.4710  153.5390 C   0  0  1  0  0  3  0  0  0  0  0  0
  159.3550  212.4110  154.5650 C   0  0  1  0  0  3  0  0  0  0  0  0
  158.1920  211.6540  155.1970 C   0  0  0  0  0  1  0  0  0  0  0  0
  160.4570  211.4750  154.0610 C   0  0  0  0  0  2  0  0  0  0  0  0
  159.9700  210.0570  153.7770 C   0  0  2  0  0  3  0  0  0  0  0  0
  161.8540  207.7340  153.3710 C   0  0  2  0  0  3  0  0  0  0  0  0
  160.7270  207.7210  154.4150 C   0  0  0  0  0  2  0  0  0  0  0  0
  161.8270  208.9590  152.4420 C   0  0  0  0  0  2  0  0  0  0  0  0
  160.4370  209.1340  154.9120 C   0  0  0  0  0  2  0  0  0  0  0  0
  160.4410  209.5990  152.3860 C   0  0  0  0  0  2  0  0  0  0  0  0
  161.2070  205.2980  153.0940 N   0  0  0  0  0  2  0  0  0  0  0  0
  162.4120  206.4440  151.4510 O   0  0  0  0  0  0  0  0  0  0  0  0
  161.8510  206.4670  152.5800 C   0  0  0  0  0  0  0  0  0  0  0  0
  161.1900  204.0430  152.3620 C   0  0  0  0  0  1  0  0  0  0  0  0
  161.1850  211.8990  149.7850 N   0  0  0  0  0  2  0  0  0  0  0  0
  161.8450  208.5300  148.9610 C   0  0  0  0  0  3  0  0  0  0  0  0
  162.0640  211.1260  148.9660 C   0  0  0  0  0  0  0  0  0  0  0  0
  161.9570  209.8280  148.9630 C   0  0  0  0  0  0  0  0  0  0  0  0
  163.1140  211.7740  148.1250 C   0  0  0  0  0  1  0  0  0  0  0  0
  162.1720  207.7860  147.7910 N   0  0  0  0  0  2  0  0  0  0  0  0
  161.4080  206.6030  147.4220 C   0  0  2  0  0  3  0  0  0  0  0  0
  160.4640  206.2420  148.5600 C   0  0  0  0  0  1  0  0  0  0  0  0
  162.6810  205.3890  145.6350 C   0  0  0  0  0  1  0  0  0  0  0  0
  161.7080  204.1120  147.4980 C   0  0  0  0  0  1  0  0  0  0  0  0
  162.3480  205.4360  147.1160 C   0  0  0  0  0  3  0  0  0  0  0  0
  1  2  2  0  0  0  0
  2  3  1  0  0  0  0
  3 28  1  6  0  0  0
  3  8  1  0  0  0  0
  4  5  2  0  0  0  0
  5  2  1  0  0  0  0
  5  9  1  0  0  0  0
  6 12  1  0  0  0  0
  7  4  1  0  0  0  0
  7 10  1  0  0  0  0
  8  6  1  0  0  0  0
  9  8  2  0  0  0  0
 10 11  1  0  0  0  0
 11  9  1  0  0  0  0
 12 14  1  0  0  0  0
 14 13  1  6  0  0  0
 14 15  1  0  0  0  0
 15 16  1  6  0  0  0
 17 15  1  0  0  0  0
 18 17  1  1  0  0  0
 18 22  1  0  0  0  0
 19 26  1  6  0  0  0
 19 20  1  0  0  0  0
 20 22  1  0  0  0  0
 21 19  1  0  0  0  0
 23 21  1  0  0  0  0
 23 18  1  0  0  0  0
 25 26  2  0  0  0  0
 26 24  1  0  0  0  0
 27 24  1  0  0  0  0
 29 31  2  0  0  0  0
 30 28  1  0  0  0  0
 31 30  2  0  0  0  0
 32 30  1  0  0  0  0
 33 29  1  0  0  0  0
 34 33  1  0  0  0  0
 34 35  1  1  0  0  0
 36 38  1  0  0  0  0
 38 34  1  0  0  0  0
 38 37  1  0  0  0  0
M  END
>  <MODEL>
8

>  <REMARK>
 VINA RESULT:      -5.7      2.425      7.204
  Name = 
  11 active torsions:
  status: ('A' for Active; 'I' for Inactive)
    1  A    between atoms: C_1  and  C_34
    2  A    between atoms: C_3  and  C_34
    3  A    between atoms: C_3  and  C_37
    4  A    between atoms: C_4  and  N_32
    5  A    between atoms: C_7  and  N_32
    6  A    between atoms: C_7  and  C_38
    7  A    between atoms: C_9  and  N_29
    8  A    between atoms: C_12  and  C_14
    9  A    between atoms: C_13  and  N_29
   10  A    between atoms: C_19  and  C_25
   11  A    between atoms: C_25  and  C_37
                            x       y       z     vdW  Elec       q    Type
                         _______ _______ _______ _____ _____    ______ ____

>  <TORSDO>
F 11

$$$$
=
 OpenBabel11052409383D

 38 40  0  0  1  0  0  0  0  0999 V2000
  161.2840  211.5060  154.5550 O   0  0  0  0  0  0  0  0  0  0  0  0
  161.2120  210.2880  154.2460 C   0  0  0  0  0  0  0  0  0  0  0  0
  161.6480  209.7030  152.9350 C   0  0  1  0  0  3  0  0  0  0  0  0
  160.3200  209.3550  156.4830 N   0  0  0  0  0  2  0  0  0  0  0  0
  160.7230  209.2390  155.1170 C   0  0  0  0  0  0  0  0  0  0  0  0
  161.6700  207.2340  152.3650 C   0  0  0  0  0  3  0  0  0  0  0  0
  159.7740  208.2330  157.1440 N   0  0  0  0  0  2  0  0  0  0  0  0
  161.3910  208.2380  153.1950 C   0  0  0  0  0  0  0  0  0  0  0  0
  160.8410  208.0670  154.5380 C   0  0  0  0  0  0  0  0  0  0  0  0
  160.5450  207.0370  156.7780 C   0  0  0  0  0  2  0  0  0  0  0  0
  160.4970  206.7980  155.2570 C   0  0  0  0  0  2  0  0  0  0  0  0
  162.2820  207.4610  151.0230 C   0  0  0  0  0  2  0  0  0  0  0  0
  161.5770  208.1180  148.7220 C   0  0  0  0  0  1  0  0  0  0  0  0
  161.2370  207.2670  149.9320 C   0  0  1  0  0  3  0  0  0  0  0  0
  161.0770  205.7990  149.5160 C   0  0  1  0  0  3  0  0  0  0  0  0
  160.1180  204.9990  150.3920 C   0  0  0  0  0  1  0  0  0  0  0  0
  160.7970  205.6140  148.0230 C   0  0  0  0  0  2  0  0  0  0  0  0
  161.6290  204.5090  147.3780 C   0  0  2  0  0  3  0  0  0  0  0  0
  160.4820  201.8140  146.6500 C   0  0  2  0  0  3  0  0  0  0  0  0
  161.2130  202.7100  145.6380 C   0  0  0  0  0  2  0  0  0  0  0  0
  160.5370  202.3340  148.0960 C   0  0  0  0  0  2  0  0  0  0  0  0
  161.0390  204.1820  145.9990 C   0  0  0  0  0  2  0  0  0  0  0  0
  161.7110  203.2890  148.3110 C   0  0  0  0  0  2  0  0  0  0  0  0
  160.8050  199.6460  145.3750 N   0  0  0  0  0  2  0  0  0  0  0  0
  161.5860  199.9140  147.5620 O   0  0  0  0  0  0  0  0  0  0  0  0
  160.9880  200.4120  146.5700 C   0  0  0  0  0  0  0  0  0  0  0  0
  161.2730  198.2750  145.2600 C   0  0  0  0  0  1  0  0  0  0  0  0
  160.7770  210.1750  151.8660 N   0  0  0  0  0  2  0  0  0  0  0  0
  158.0500  211.8320  153.3770 C   0  0  0  0  0  3  0  0  0  0  0  0
  160.1500  211.4580  151.8810 C   0  0  0  0  0  0  0  0  0  0  0  0
  159.0990  211.6470  152.6270 C   0  0  0  0  0  0  0  0  0  0  0  0
  160.6640  212.5840  151.0460 C   0  0  0  0  0  1  0  0  0  0  0  0
  157.7870  213.1160  153.9350 N   0  0  0  0  0  2  0  0  0  0  0  0
  157.5030  213.2680  155.3550 C   0  0  2  0  0  3  0  0  0  0  0  0
  158.2220  212.1740  156.1290 C   0  0  0  0  0  1  0  0  0  0  0  0
  155.5780  211.7890  155.9840 C   0  0  0  0  0  1  0  0  0  0  0  0
  155.2230  213.6010  154.3600 C   0  0  0  0  0  1  0  0  0  0  0  0
  155.9950  213.1990  155.6050 C   0  0  0  0  0  3  0  0  0  0  0  0
  2  1  2  0  0  0  0
  2  5  1  0  0  0  0
  3 28  1  6  0  0  0
  3  8  1  0  0  0  0
  3  2  1  0  0  0  0
  4  7  1  0  0  0  0
  5  4  1  0  0  0  0
  6  8  2  0  0  0  0
  8  9  1  0  0  0  0
  9  5  2  0  0  0  0
  9 11  1  0  0  0  0
 10  7  1  0  0  0  0
 11 10  1  0  0  0  0
 12  6  1  0  0  0  0
 14 13  1  6  0  0  0
 14 12  1  0  0  0  0
 15 14  1  0  0  0  0
 15 16  1  1  0  0  0
 17 15  1  0  0  0  0
 18 17  1  1  0  0  0
 18 23  1  0  0  0  0
 19 26  1  1  0  0  0
 19 21  1  0  0  0  0
 20 22  1  0  0  0  0
 20 19  1  0  0  0  0
 21 23  1  0  0  0  0
 22 18  1  0  0  0  0
 24 26  1  0  0  0  0
 26 25  2  0  0  0  0
 27 24  1  0  0  0  0
 28 30  1  0  0  0  0
 29 33  1  0  0  0  0
 30 31  2  0  0  0  0
 31 29  2  0  0  0  0
 32 30  1  0  0  0  0
 33 34  1  0  0  0  0
 34 38  1  0  0  0  0
 34 35  1  1  0  0  0
 37 38  1  0  0  0  0
 38 36  1  0  0  0  0
M  END
>  <MODEL>
9

>  <REMARK>
 VINA RESULT:      -5.6      3.092      9.065
  Name = 
  11 active torsions:
  status: ('A' for Active; 'I' for Inactive)
    1  A    between atoms: C_1  and  C_34
    2  A    between atoms: C_3  and  C_34
    3  A    between atoms: C_3  and  C_37
    4  A    between atoms: C_4  and  N_32
    5  A    between atoms: C_7  and  N_32
    6  A    between atoms: C_7  and  C_38
    7  A    between atoms: C_9  and  N_29
    8  A    between atoms: C_12  and  C_14
    9  A    between atoms: C_13  and  N_29
   10  A    between atoms: C_19  and  C_25
   11  A    between atoms: C_25  and  C_37
                            x       y       z     vdW  Elec       q    Type
                         _______ _______ _______ _____ _____    ______ ____

>  <TORSDO>
F 11

$$$$
