=
 OpenBabel11052411033D

 67 70  0  0  1  0  0  0  0  0999 V2000
  162.7860  212.6300  145.9010 N   0  0  0  0  0  0  0  0  0  0  0  0
  162.9610  214.0390  145.4930 C   0  0  0  0  0  2  0  0  0  0  0  0
  162.8920  214.0890  144.0350 N   0  0  0  0  0  0  0  0  0  0  0  0
  162.6460  211.9590  144.6750 N   0  0  0  0  0  2  0  0  0  0  0  0
  162.7140  212.8900  143.6280 C   0  0  0  0  0  0  0  0  0  0  0  0
  162.5780  212.5220  142.1920 C   0  0  0  0  0  2  0  0  0  0  0  0
  162.8680  213.7270  141.3100 C   0  0  0  0  0  2  0  0  0  0  0  0
  161.6460  214.0820  140.4690 C   0  0  0  0  0  2  0  0  0  0  0  0
  160.6920  213.0620  140.5550 O   0  0  0  0  0  0  0  0  0  0  0  0
  159.5060  213.7000  140.9350 C   0  0  0  0  0  2  0  0  0  0  0  0
  158.4460  212.6850  141.2270 C   0  0  0  0  0  0  0  0  0  0  0  0
  157.7570  212.7940  142.2310 O   0  0  0  0  0  0  0  0  0  0  0  0
  158.2220  211.5310  140.2950 C   0  0  0  0  0  2  0  0  0  0  0  0
  157.0250  211.7220  139.3530 C   0  0  1  0  0  3  0  0  0  0  0  0
  157.1480  208.6660  137.3340 O   0  0  0  0  0  0  0  0  0  0  0  0
  156.6410  210.4770  138.6960 N   0  0  0  0  0  2  0  0  0  0  0  0
  157.5390  209.7400  137.8600 C   0  0  0  0  0  0  0  0  0  0  0  0
  158.9310  210.2240  137.6050 C   0  0  0  0  0  2  0  0  0  0  0  0
  159.9060  209.0570  137.6520 C   0  0  0  0  0  2  0  0  0  0  0  0
  162.2720  210.1880  137.0130 O   0  0  0  0  0  0  0  0  0  0  0  0
  161.5180  209.6030  138.1800 S   0  0  0  0  0  0  0  0  0  0  0  0
  161.3560  210.6480  139.2490 O   0  0  0  0  0  0  0  0  0  0  0  0
  161.6110  207.7000  139.9260 C   0  0  0  0  0  1  0  0  0  0  0  0
  162.3920  208.2470  138.8240 N   0  0  0  0  0  2  0  0  0  0  0  0
  154.6180  211.8230  139.8960 C   0  0  0  0  0  3  0  0  0  0  0  0
  155.8260  212.3950  139.9700 C   0  0  0  0  0  0  0  0  0  0  0  0
  155.9850  213.6360  140.6680 N   0  0  0  0  0  2  0  0  0  0  0  0
  154.8720  214.4490  141.1410 C   0  0  0  0  0  2  0  0  0  0  0  0
  153.5400  213.8300  143.1430 C   0  0  0  0  0  1  0  0  0  0  0  0
  152.4820  213.8640  140.9100 C   0  0  0  0  0  1  0  0  0  0  0  0
  153.7580  213.5590  141.6650 C   0  0  0  0  0  3  0  0  0  0  0  0
  154.3640  210.5300  139.1920 C   0  0  0  0  0  2  0  0  0  0  0  0
  153.3670  208.5790  139.4280 C   0  0  0  0  0  1  0  0  0  0  0  0
  154.1160  209.5240  140.1270 O   0  0  0  0  0  0  0  0  0  0  0  0
  161.5090  212.5150  146.6200 C   0  0  1  0  0  3  0  0  0  0  0  0
  160.3780  212.2800  145.6990 C   0  0  0  0  0  0  0  0  0  0  0  0
  159.4540  212.0910  144.9500 C   0  0  0  0  0  3  0  0  0  0  0  0
  161.5680  211.4840  147.6640 N   0  0  0  0  0  2  0  0  0  0  0  0
  162.7040  210.5880  147.4430 C   0  0  0  0  0  2  0  0  0  0  0  0
  164.2090  209.4570  148.8850 O   0  0  0  0  0  0  0  0  0  0  0  0
  163.0400  209.8940  148.7170 C   0  0  0  0  0  0  0  0  0  0  0  0
  161.2120  207.4350  151.2870 C   0  0  1  0  0  3  0  0  0  0  0  0
  161.8460  208.3890  150.3250 N   0  0  0  0  0  0  0  0  0  0  0  0
  162.0210  209.6820  149.7530 C   0  0  0  0  0  0  0  0  0  0  0  0
  161.2890  210.6350  150.1290 O   0  0  0  0  0  0  0  0  0  0  0  0
  162.1320  206.9240  150.3840 C   0  0  2  0  0  3  0  0  0  0  0  0
  160.3510  210.0950  153.5570 C   0  0  0  0  0  0  0  0  0  0  0  0
  161.5580  210.2010  152.9750 C   0  0  0  0  0  3  0  0  0  0  0  0
  162.4870  209.0310  152.7730 C   0  0  0  0  0  2  0  0  0  0  0  0
  158.2470  211.1270  154.5270 C   0  0  0  0  0  0  0  0  0  0  0  0
  160.2700  212.3610  154.2900 O   0  0  0  0  0  1  0  0  0  0  0  0
  161.7450  207.6970  152.7120 C   0  0  1  0  0  3  0  0  0  0  0  0
  159.5050  211.3400  153.7090 C   0  0  1  0  0  3  0  0  0  0  0  0
  159.7390  208.7380  153.8380 C   0  0  2  0  0  3  0  0  0  0  0  0
  158.9100  208.7840  155.1030 C   0  0  0  0  0  2  0  0  0  0  0  0
  157.7590  209.7530  154.8980 C   0  0  0  0  0  2  0  0  0  0  0  0
  160.7540  207.5950  153.8830 C   0  0  0  0  0  2  0  0  0  0  0  0
  157.3880  212.1380  154.6370 C   0  0  0  0  0  2  0  0  0  0  0  0
  160.1880  206.0250  149.2310 C   0  0  0  0  0  2  0  0  0  0  0  0
  161.5020  206.2390  149.2000 C   0  0  0  0  0  0  0  0  0  0  0  0
  162.3160  205.6030  148.1010 C   0  0  0  0  0  2  0  0  0  0  0  0
  162.1440  206.3360  146.7730 C   0  0  0  0  0  2  0  0  0  0  0  0
  161.9980  205.3780  145.6320 C   0  0  0  0  0  0  0  0  0  0  0  0
  162.9810  204.8130  145.1750 O   0  0  0  0  0  0  0  0  0  0  0  0
  160.6400  205.1280  145.0490 C   0  0  2  0  0  3  0  0  0  0  0  0
  159.6810  205.8590  145.7470 O   0  0  0  0  0  1  0  0  0  0  0  0
  160.2960  203.6500  145.1040 C   0  0  0  0  0  1  0  0  0  0  0  0
  1 35  1  0  0  0  0
  2  1  1  0  0  0  0
  3  2  1  0  0  0  0
  4  1  1  0  0  0  0
  5  3  2  0  0  0  0
  5  4  1  0  0  0  0
  6  5  1  0  0  0  0
  7  6  1  0  0  0  0
  8  9  1  0  0  0  0
  8  7  1  0  0  0  0
  9 10  1  0  0  0  0
 10 11  1  0  0  0  0
 11 12  2  0  0  0  0
 13 11  1  0  0  0  0
 14 26  1  0  0  0  0
 14 13  1  1  0  0  0
 15 17  2  0  0  0  0
 16 14  1  0  0  0  0
 17 16  1  0  0  0  0
 18 19  1  0  0  0  0
 18 17  1  0  0  0  0
 19 21  1  0  0  0  0
 20 21  2  0  0  0  0
 21 24  1  0  0  0  0
 21 22  2  0  0  0  0
 24 23  1  0  0  0  0
 25 26  2  0  0  0  0
 26 27  1  0  0  0  0
 27 28  1  0  0  0  0
 28 31  1  0  0  0  0
 30 31  1  0  0  0  0
 31 29  1  0  0  0  0
 32 25  1  0  0  0  0
 32 34  1  0  0  0  0
 33 34  1  0  0  0  0
 35 36  1  6  0  0  0
 35 38  1  0  0  0  0
 37 36  3  0  0  0  0
 39 38  1  0  0  0  0
 39 41  1  0  0  0  0
 41 40  2  0  0  0  0
 41 44  1  0  0  0  0
 42 43  1  6  0  0  0
 42 52  1  0  0  0  0
 43 46  1  0  0  0  0
 44 45  2  0  0  0  0
 44 43  1  0  0  0  0
 46 60  1  6  0  0  0
 46 42  1  0  0  0  0
 47 53  1  0  0  0  0
 47 54  1  0  0  0  0
 48 47  2  0  0  0  0
 49 48  1  0  0  0  0
 50 58  2  0  0  0  0
 50 56  1  0  0  0  0
 52 49  1  6  0  0  0
 52 57  1  0  0  0  0
 53 51  1  1  0  0  0
 53 50  1  0  0  0  0
 54 57  1  1  0  0  0
 54 55  1  0  0  0  0
 56 55  1  0  0  0  0
 60 59  2  0  0  0  0
 61 60  1  0  0  0  0
 62 61  1  0  0  0  0
 63 62  1  0  0  0  0
 64 63  2  0  0  0  0
 65 67  1  1  0  0  0
 65 63  1  0  0  0  0
 65 66  1  0  0  0  0
M  END
>  <MODEL>
1

>  <REMARK>
 VINA RESULT:       2.8      0.000      0.000
  Name = 
  31 active torsions:
  status: ('A' for Active; 'I' for Inactive)
    1  A    between atoms: C_3  and  C_5
    2  A    between atoms: C_5  and  C_46
    3  A    between atoms: N_6  and  C_20
    4  A    between atoms: C_7  and  C_37
    5  A    between atoms: O_11  and  C_40
    6  A    between atoms: O_11  and  C_50
    7  A    between atoms: N_13  and  C_63
    8  A    between atoms: C_14  and  S_22
    9  A    between atoms: C_14  and  C_64
   10  A    between atoms: C_15  and  C_32
   11  A    between atoms: C_15  and  C_46
   12  A    between atoms: C_17  and  C_57
   13  A    between atoms: C_18  and  C_38
   14  A    between atoms: C_18  and  C_50
   15  A    between atoms: C_19  and  C_39
   16  A    between atoms: C_19  and  N_62
   17  A    between atoms: C_20  and  C_24
   18  A    between atoms: C_20  and  N_28
   19  A    between atoms: S_22  and  N_65
   20  A    between atoms: C_23  and  C_40
   21  A    between atoms: C_23  and  C_42
   22  A    between atoms: C_26  and  N_62
   23  A    between atoms: C_26  and  C_63
   24  A    between atoms: N_28  and  C_60
   25  A    between atoms: C_31  and  C_44
   26  A    between atoms: C_32  and  C_48
   27  A    between atoms: C_38  and  C_67
   28  A    between atoms: C_42  and  C_63
   29  A    between atoms: C_44  and  C_60
   30  A    between atoms: C_47  and  C_64
   31  A    between atoms: O_55  and  C_57
                            x       y       z     vdW  Elec       q    Type
                         _______ _______ _______ _____ _____    ______ ____

>  <TORSDO>
F 31

$$$$
