=
 OpenBabel11052411273D

 43 45  0  0  1  0  0  0  0  0999 V2000
  162.9350  205.0340  146.5800 C   0  0  0  0  0  3  0  0  0  0  0  0
  159.6940  207.4970  150.4070 C   0  0  0  0  0  2  0  0  0  0  0  0
  162.0850  208.3780  150.0980 C   0  0  0  0  0  0  0  0  0  0  0  0
  162.3510  206.1900  153.2410 C   0  0  0  0  0  3  0  0  0  0  0  0
  160.9600  208.1860  153.6070 C   0  0  0  0  0  0  0  0  0  0  0  0
  160.8340  203.7100  147.2340 C   0  0  0  0  0  0  0  0  0  0  0  0
  159.9350  202.9140  146.8550 O   0  0  0  0  0  0  0  0  0  0  0  0
  161.8440  204.1430  146.3000 N   0  0  0  0  0  0  0  0  0  0  0  0
  159.9030  206.0110  150.0570 C   0  0  0  0  0  2  0  0  0  0  0  0
  160.6610  205.6760  148.7350 C   0  0  2  0  0  3  0  0  0  0  0  0
  162.7000  204.0590  151.7760 C   0  0  0  0  0  3  0  0  0  0  0  0
  160.8000  204.1610  148.6530 C   0  0  2  0  0  3  0  0  0  0  0  0
  161.5820  203.5310  150.9470 C   0  0  0  0  0  2  0  0  0  0  0  0
  159.5820  209.6330  152.2770 O   0  0  0  0  0  1  0  0  0  0  0  0
  162.5210  205.1190  152.5150 C   0  0  0  0  0  0  0  0  0  0  0  0
  160.8000  208.9500  152.3040 C   0  0  2  0  0  3  0  0  0  0  0  0
  161.9520  203.5750  149.4730 C   0  0  0  0  0  2  0  0  0  0  0  0
  160.9660  208.0760  151.0590 C   0  0  1  0  0  3  0  0  0  0  0  0
  162.2200  207.4290  149.2330 C   0  0  0  0  0  0  0  0  0  0  0  0
  163.0020  205.9820  147.5200 C   0  0  0  0  0  3  0  0  0  0  0  0
  161.9930  206.3790  148.5140 C   0  0  0  0  0  0  0  0  0  0  0  0
  161.1280  208.8490  154.7850 C   0  0  0  0  0  0  0  0  0  0  0  0
  161.8750  203.5200  144.9870 C   0  0  0  0  0  1  0  0  0  0  0  0
  160.9750  206.6790  153.5500 C   0  0  0  0  0  2  0  0  0  0  0  0
  160.0530  207.4620  156.5540 O   0  0  0  0  0  0  0  0  0  0  0  0
  162.2150  208.1400  156.8040 O   0  0  0  0  0  1  0  0  0  0  0  0
  161.1730  208.1460  156.0960 C   0  0  0  0  0  0  0  0  0  0  0  0
  162.6100  209.7170  149.7940 C   0  0  0  0  0  3  0  0  0  0  0  0
  162.0620  210.5180  148.8910 C   0  0  0  0  0  3  0  0  0  0  0  0
  162.6540  211.8510  148.6040 C   0  0  0  0  0  2  0  0  0  0  0  0
  161.6340  212.9230  148.9300 C   0  0  0  0  0  2  0  0  0  0  0  0
  161.0740  213.4970  147.6760 C   0  0  0  0  0  0  0  0  0  0  0  0
  159.4630  213.8110  147.5950 S   0  0  0  0  0  0  0  0  0  0  0  0
  161.9560  213.6960  146.5590 N   0  0  0  0  0  2  0  0  0  0  0  0
  160.7870  212.5460  144.8750 O   0  0  0  0  0  0  0  0  0  0  0  0
  161.8240  213.1640  145.2340 C   0  0  0  0  0  0  0  0  0  0  0  0
  162.9190  213.3860  144.2500 C   0  0  0  0  0  2  0  0  0  0  0  0
  162.5790  212.7090  142.9400 C   0  0  0  0  0  1  0  0  0  0  0  0
  161.2890  210.3240  154.8220 C   0  0  0  0  0  0  0  0  0  0  0  0
  162.4050  210.8520  154.5560 O   0  0  0  0  0  0  0  0  0  0  0  0
  160.2050  211.1270  155.1900 O   0  0  0  0  0  0  0  0  0  0  0  0
  158.3310  212.3060  154.2290 C   0  0  0  0  0  1  0  0  0  0  0  0
  159.8300  212.2880  154.4590 C   0  0  0  0  0  2  0  0  0  0  0  0
  1 20  2  0  0  0  0
  3 18  1  0  0  0  0
  4 24  1  0  0  0  0
  5 22  2  0  0  0  0
  6 12  1  0  0  0  0
  7  6  2  0  0  0  0
  8  1  1  0  0  0  0
  8  6  1  0  0  0  0
  9  2  1  0  0  0  0
 10  9  1  1  0  0  0
 11 15  2  0  0  0  0
 12 10  1  0  0  0  0
 12 17  1  6  0  0  0
 13 11  1  0  0  0  0
 15  4  2  0  0  0  0
 16 14  1  1  0  0  0
 16  5  1  0  0  0  0
 17 13  1  0  0  0  0
 18  2  1  6  0  0  0
 18 16  1  0  0  0  0
 19  3  2  0  0  0  0
 20 21  1  0  0  0  0
 21 10  1  0  0  0  0
 21 19  2  0  0  0  0
 22 39  1  0  0  0  0
 22 27  1  0  0  0  0
 23  8  1  0  0  0  0
 24  5  1  0  0  0  0
 27 25  2  0  0  0  0
 27 26  1  0  0  0  0
 28  3  1  0  0  0  0
 29 28  2  0  0  0  0
 30 29  1  0  0  0  0
 30 31  1  0  0  0  0
 32 31  1  0  0  0  0
 33 32  2  0  0  0  0
 34 32  1  0  0  0  0
 35 36  2  0  0  0  0
 36 34  1  0  0  0  0
 37 36  1  0  0  0  0
 38 37  1  0  0  0  0
 39 41  1  0  0  0  0
 40 39  2  0  0  0  0
 42 43  1  0  0  0  0
 43 41  1  0  0  0  0
M  END
>  <MODEL>
1

>  <REMARK>
 VINA RESULT:      -1.6      0.000      0.000
  Name = 
  10 active torsions:
  status: ('A' for Active; 'I' for Inactive)
    1  A    between atoms: C_1  and  C_6
    2  A    between atoms: C_5  and  C_15
    3  A    between atoms: N_10  and  C_24
    4  A    between atoms: C_13  and  O_40
    5  A    between atoms: C_14  and  C_15
    6  A    between atoms: C_14  and  C_24
    7  A    between atoms: C_19  and  C_34
    8  A    between atoms: C_23  and  C_38
    9  A    between atoms: C_23  and  O_40
   10  A    between atoms: C_27  and  C_38
                            x       y       z     vdW  Elec       q    Type
                         _______ _______ _______ _____ _____    ______ ____

>  <TORSDO>
F 10

$$$$
=
 OpenBabel11052411273D

 43 45  0  0  1  0  0  0  0  0999 V2000
  162.9350  205.0440  146.5950 C   0  0  0  0  0  3  0  0  0  0  0  0
  159.7200  207.5640  150.4070 C   0  0  0  0  0  2  0  0  0  0  0  0
  162.1270  208.4070  150.1050 C   0  0  0  0  0  0  0  0  0  0  0  0
  162.3460  206.2200  153.2520 C   0  0  0  0  0  3  0  0  0  0  0  0
  160.9860  208.2390  153.6100 C   0  0  0  0  0  0  0  0  0  0  0  0
  160.8120  203.7550  147.2440 C   0  0  0  0  0  0  0  0  0  0  0  0
  159.9010  202.9720  146.8630 O   0  0  0  0  0  0  0  0  0  0  0  0
  161.8310  204.1700  146.3130 N   0  0  0  0  0  0  0  0  0  0  0  0
  159.9070  206.0750  150.0600 C   0  0  0  0  0  2  0  0  0  0  0  0
  160.6640  205.7260  148.7410 C   0  0  2  0  0  3  0  0  0  0  0  0
  162.6660  204.0810  151.7920 C   0  0  0  0  0  3  0  0  0  0  0  0
  160.7790  204.2080  148.6620 C   0  0  2  0  0  3  0  0  0  0  0  0
  161.5430  203.5700  150.9600 C   0  0  0  0  0  2  0  0  0  0  0  0
  159.6360  209.7050  152.2740 O   0  0  0  0  0  1  0  0  0  0  0  0
  162.5020  205.1450  152.5290 C   0  0  0  0  0  0  0  0  0  0  0  0
  160.8430  209.0030  152.3060 C   0  0  2  0  0  3  0  0  0  0  0  0
  161.9190  203.6050  149.4870 C   0  0  0  0  0  2  0  0  0  0  0  0
  160.9990  208.1240  151.0630 C   0  0  1  0  0  3  0  0  0  0  0  0
  162.2490  207.4540  149.2420 C   0  0  0  0  0  0  0  0  0  0  0  0
  163.0140  205.9930  147.5340 C   0  0  0  0  0  3  0  0  0  0  0  0
  162.0090  206.4070  148.5240 C   0  0  0  0  0  0  0  0  0  0  0  0
  161.1600  208.9000  154.7880 C   0  0  0  0  0  0  0  0  0  0  0  0
  161.8570  203.5450  145.0010 C   0  0  0  0  0  1  0  0  0  0  0  0
  160.9770  206.7320  153.5560 C   0  0  0  0  0  2  0  0  0  0  0  0
  160.0620  207.5190  156.5480 O   0  0  0  0  0  0  0  0  0  0  0  0
  162.2240  208.1910  156.8190 O   0  0  0  0  0  1  0  0  0  0  0  0
  161.1900  208.1990  156.1010 C   0  0  0  0  0  0  0  0  0  0  0  0
  162.6730  209.7370  149.8010 C   0  0  0  0  0  3  0  0  0  0  0  0
  162.1950  210.5100  148.8360 C   0  0  0  0  0  3  0  0  0  0  0  0
  162.8080  211.8340  148.5550 C   0  0  0  0  0  2  0  0  0  0  0  0
  161.7580  212.9120  148.7370 C   0  0  0  0  0  2  0  0  0  0  0  0
  161.2430  213.3560  147.4130 C   0  0  0  0  0  0  0  0  0  0  0  0
  162.2850  214.0430  146.3450 S   0  0  0  0  0  0  0  0  0  0  0  0
  159.8380  213.2240  147.1440 N   0  0  0  0  0  2  0  0  0  0  0  0
  159.8920  211.8880  145.2110 O   0  0  0  0  0  0  0  0  0  0  0  0
  159.2180  212.5660  146.0310 C   0  0  0  0  0  0  0  0  0  0  0  0
  157.7410  212.6510  145.8680 C   0  0  0  0  0  2  0  0  0  0  0  0
  157.0860  212.8810  147.2140 C   0  0  0  0  0  1  0  0  0  0  0  0
  161.3450  210.3730  154.8230 C   0  0  0  0  0  0  0  0  0  0  0  0
  162.4950  210.8760  154.6860 O   0  0  0  0  0  0  0  0  0  0  0  0
  160.2400  211.2010  155.0470 O   0  0  0  0  0  0  0  0  0  0  0  0
  159.4060  213.3840  155.6510 C   0  0  0  0  0  1  0  0  0  0  0  0
  160.2120  212.1740  156.0840 C   0  0  0  0  0  2  0  0  0  0  0  0
  1 20  2  0  0  0  0
  3 18  1  0  0  0  0
  4 24  1  0  0  0  0
  5 22  2  0  0  0  0
  6 12  1  0  0  0  0
  7  6  2  0  0  0  0
  8  1  1  0  0  0  0
  8  6  1  0  0  0  0
  9  2  1  0  0  0  0
 10  9  1  1  0  0  0
 11 15  2  0  0  0  0
 12 10  1  0  0  0  0
 12 17  1  6  0  0  0
 13 11  1  0  0  0  0
 15  4  2  0  0  0  0
 16 14  1  1  0  0  0
 16  5  1  0  0  0  0
 17 13  1  0  0  0  0
 18  2  1  6  0  0  0
 18 16  1  0  0  0  0
 19  3  2  0  0  0  0
 20 21  1  0  0  0  0
 21 10  1  0  0  0  0
 21 19  2  0  0  0  0
 22 39  1  0  0  0  0
 22 27  1  0  0  0  0
 23  8  1  0  0  0  0
 24  5  1  0  0  0  0
 27 25  2  0  0  0  0
 27 26  1  0  0  0  0
 28  3  1  0  0  0  0
 29 28  2  0  0  0  0
 30 31  1  0  0  0  0
 30 29  1  0  0  0  0
 32 31  1  0  0  0  0
 33 32  2  0  0  0  0
 34 32  1  0  0  0  0
 35 36  2  0  0  0  0
 36 34  1  0  0  0  0
 37 36  1  0  0  0  0
 37 38  1  0  0  0  0
 39 41  1  0  0  0  0
 40 39  2  0  0  0  0
 41 43  1  0  0  0  0
 42 43  1  0  0  0  0
M  END
>  <MODEL>
2

>  <REMARK>
 VINA RESULT:      -1.6      1.203      1.597
  Name = 
  10 active torsions:
  status: ('A' for Active; 'I' for Inactive)
    1  A    between atoms: C_1  and  C_6
    2  A    between atoms: C_5  and  C_15
    3  A    between atoms: N_10  and  C_24
    4  A    between atoms: C_13  and  O_40
    5  A    between atoms: C_14  and  C_15
    6  A    between atoms: C_14  and  C_24
    7  A    between atoms: C_19  and  C_34
    8  A    between atoms: C_23  and  C_38
    9  A    between atoms: C_23  and  O_40
   10  A    between atoms: C_27  and  C_38
                            x       y       z     vdW  Elec       q    Type
                         _______ _______ _______ _____ _____    ______ ____

>  <TORSDO>
F 10

$$$$
=
 OpenBabel11052411273D

 43 45  0  0  1  0  0  0  0  0999 V2000
  160.7450  211.7570  145.7770 C   0  0  0  0  0  3  0  0  0  0  0  0
  163.0260  210.2810  150.6590 C   0  0  0  0  0  2  0  0  0  0  0  0
  161.0320  208.9150  149.7930 C   0  0  0  0  0  0  0  0  0  0  0  0
  159.4450  211.2250  152.4150 C   0  0  0  0  0  3  0  0  0  0  0  0
  160.9760  209.5820  153.4210 C   0  0  0  0  0  0  0  0  0  0  0  0
  162.2850  213.5210  146.8300 C   0  0  0  0  0  0  0  0  0  0  0  0
  163.1070  214.4530  146.6260 O   0  0  0  0  0  0  0  0  0  0  0  0
  161.7000  212.8270  145.7100 N   0  0  0  0  0  0  0  0  0  0  0  0
  162.6830  211.6640  150.0750 C   0  0  0  0  0  2  0  0  0  0  0  0
  162.3220  211.7440  148.5590 C   0  0  2  0  0  3  0  0  0  0  0  0
  159.2030  213.1300  150.6490 C   0  0  0  0  0  3  0  0  0  0  0  0
  161.9580  213.1900  148.2450 C   0  0  2  0  0  3  0  0  0  0  0  0
  160.4140  213.8120  150.1160 C   0  0  0  0  0  2  0  0  0  0  0  0
  162.9220  208.3520  152.7430 O   0  0  0  0  0  1  0  0  0  0  0  0
  159.3250  212.1840  151.5400 C   0  0  0  0  0  0  0  0  0  0  0  0
  161.6560  208.7740  152.3290 C   0  0  2  0  0  3  0  0  0  0  0  0
  160.5280  213.5890  148.6170 C   0  0  0  0  0  2  0  0  0  0  0  0
  161.7330  209.5050  150.9880 C   0  0  1  0  0  3  0  0  0  0  0  0
  161.0090  209.7530  148.8100 C   0  0  0  0  0  0  0  0  0  0  0  0
  160.5550  210.8840  146.7720 C   0  0  0  0  0  3  0  0  0  0  0  0
  161.2630  210.7720  148.0570 C   0  0  0  0  0  0  0  0  0  0  0  0
  160.5700  208.9860  154.5760 C   0  0  0  0  0  0  0  0  0  0  0  0
  161.9670  213.3340  144.3740 C   0  0  0  0  0  1  0  0  0  0  0  0
  160.7210  211.0470  153.1680 C   0  0  0  0  0  2  0  0  0  0  0  0
  158.6350  209.9910  155.7830 O   0  0  0  0  0  0  0  0  0  0  0  0
  160.7370  210.1940  156.6430 O   0  0  0  0  0  1  0  0  0  0  0  0
  160.0050  209.7570  155.7170 C   0  0  0  0  0  0  0  0  0  0  0  0
  160.8630  207.4790  149.5260 C   0  0  0  0  0  3  0  0  0  0  0  0
  161.2460  206.9060  148.3940 C   0  0  0  0  0  3  0  0  0  0  0  0
  161.0230  205.4540  148.1690 C   0  0  0  0  0  2  0  0  0  0  0  0
  162.1140  204.9220  147.2620 C   0  0  0  0  0  2  0  0  0  0  0  0
  161.5390  203.9800  146.2640 C   0  0  0  0  0  0  0  0  0  0  0  0
  160.6770  204.5860  145.0030 S   0  0  0  0  0  0  0  0  0  0  0  0
  161.7060  202.5690  146.4760 N   0  0  0  0  0  2  0  0  0  0  0  0
  160.1270  202.1990  148.1770 O   0  0  0  0  0  0  0  0  0  0  0  0
  161.0580  201.7490  147.4580 C   0  0  0  0  0  0  0  0  0  0  0  0
  161.4660  200.3240  147.5980 C   0  0  0  0  0  2  0  0  0  0  0  0
  161.2450  199.5940  146.2910 C   0  0  0  0  0  1  0  0  0  0  0  0
  160.6600  207.5150  154.7560 C   0  0  0  0  0  0  0  0  0  0  0  0
  160.8910  207.0230  155.8960 O   0  0  0  0  0  0  0  0  0  0  0  0
  160.5250  206.6750  153.6450 O   0  0  0  0  0  0  0  0  0  0  0  0
  161.2780  204.9660  152.1160 C   0  0  0  0  0  1  0  0  0  0  0  0
  161.1650  205.4070  153.5630 C   0  0  0  0  0  2  0  0  0  0  0  0
  1 20  2  0  0  0  0
  3 18  1  0  0  0  0
  4 24  1  0  0  0  0
  5 22  2  0  0  0  0
  6 12  1  0  0  0  0
  7  6  2  0  0  0  0
  8  1  1  0  0  0  0
  8  6  1  0  0  0  0
  9  2  1  0  0  0  0
 10  9  1  1  0  0  0
 11 15  2  0  0  0  0
 12 10  1  0  0  0  0
 12 17  1  6  0  0  0
 13 11  1  0  0  0  0
 15  4  2  0  0  0  0
 16 14  1  1  0  0  0
 16  5  1  0  0  0  0
 17 13  1  0  0  0  0
 18  2  1  6  0  0  0
 18 16  1  0  0  0  0
 19  3  2  0  0  0  0
 20 21  1  0  0  0  0
 21 10  1  0  0  0  0
 21 19  2  0  0  0  0
 22 39  1  0  0  0  0
 22 27  1  0  0  0  0
 23  8  1  0  0  0  0
 24  5  1  0  0  0  0
 27 25  2  0  0  0  0
 27 26  1  0  0  0  0
 28  3  1  0  0  0  0
 29 28  2  0  0  0  0
 30 29  1  0  0  0  0
 31 30  1  0  0  0  0
 32 34  1  0  0  0  0
 32 31  1  0  0  0  0
 33 32  2  0  0  0  0
 34 36  1  0  0  0  0
 36 37  1  0  0  0  0
 36 35  2  0  0  0  0
 38 37  1  0  0  0  0
 39 40  2  0  0  0  0
 41 39  1  0  0  0  0
 42 43  1  0  0  0  0
 43 41  1  0  0  0  0
M  END
>  <MODEL>
3

>  <REMARK>
 VINA RESULT:      -0.4      2.388      7.467
  Name = 
  10 active torsions:
  status: ('A' for Active; 'I' for Inactive)
    1  A    between atoms: C_1  and  C_6
    2  A    between atoms: C_5  and  C_15
    3  A    between atoms: N_10  and  C_24
    4  A    between atoms: C_13  and  O_40
    5  A    between atoms: C_14  and  C_15
    6  A    between atoms: C_14  and  C_24
    7  A    between atoms: C_19  and  C_34
    8  A    between atoms: C_23  and  C_38
    9  A    between atoms: C_23  and  O_40
   10  A    between atoms: C_27  and  C_38
                            x       y       z     vdW  Elec       q    Type
                         _______ _______ _______ _____ _____    ______ ____

>  <TORSDO>
F 10

$$$$
=
 OpenBabel11052411273D

 43 45  0  0  1  0  0  0  0  0999 V2000
  160.1590  209.6130  154.0940 C   0  0  0  0  0  3  0  0  0  0  0  0
  163.3980  206.6080  150.6740 C   0  0  0  0  0  2  0  0  0  0  0  0
  161.3940  207.8540  149.6600 C   0  0  0  0  0  0  0  0  0  0  0  0
  160.1310  204.2410  149.9490 C   0  0  0  0  0  3  0  0  0  0  0  0
  161.9450  204.4680  148.3020 C   0  0  0  0  0  0  0  0  0  0  0  0
  161.7190  207.9450  155.2670 C   0  0  0  0  0  0  0  0  0  0  0  0
  162.4140  207.6970  156.2890 O   0  0  0  0  0  0  0  0  0  0  0  0
  160.9980  209.1900  155.1810 N   0  0  0  0  0  0  0  0  0  0  0  0
  162.8460  206.3030  152.0800 C   0  0  0  0  0  2  0  0  0  0  0  0
  162.2110  207.4800  152.8820 C   0  0  2  0  0  3  0  0  0  0  0  0
  159.4230  204.6450  152.4280 C   0  0  0  0  0  3  0  0  0  0  0  0
  161.6820  206.9140  154.1940 C   0  0  2  0  0  3  0  0  0  0  0  0
  160.4590  204.8500  153.4760 C   0  0  0  0  0  2  0  0  0  0  0  0
  163.8270  205.9160  147.9520 O   0  0  0  0  0  1  0  0  0  0  0  0
  159.7780  204.4340  151.1900 C   0  0  0  0  0  0  0  0  0  0  0  0
  162.4770  205.8900  148.3130 C   0  0  2  0  0  3  0  0  0  0  0  0
  160.3150  206.2310  154.0960 C   0  0  0  0  0  2  0  0  0  0  0  0
  162.2520  206.6160  149.6410 C   0  0  1  0  0  3  0  0  0  0  0  0
  161.1280  208.2120  150.8720 C   0  0  0  0  0  0  0  0  0  0  0  0
  160.2230  209.2400  152.8120 C   0  0  0  0  0  3  0  0  0  0  0  0
  161.1580  208.3110  152.1600 C   0  0  0  0  0  0  0  0  0  0  0  0
  161.8040  203.7880  147.1300 C   0  0  0  0  0  0  0  0  0  0  0  0
  160.9770  210.0540  156.3500 C   0  0  0  0  0  1  0  0  0  0  0  0
  161.5330  203.8520  149.6150 C   0  0  0  0  0  2  0  0  0  0  0  0
  161.5810  201.5460  148.1960 O   0  0  0  0  0  1  0  0  0  0  0  0
  160.8650  201.8590  146.0540 O   0  0  0  0  0  0  0  0  0  0  0  0
  161.3950  202.3570  147.0820 C   0  0  0  0  0  0  0  0  0  0  0  0
  161.2950  208.8390  148.5730 C   0  0  0  0  0  3  0  0  0  0  0  0
  161.7470  210.0810  148.6820 C   0  0  0  0  0  3  0  0  0  0  0  0
  161.5920  211.0420  147.5590 C   0  0  0  0  0  2  0  0  0  0  0  0
  161.7880  212.4500  148.0850 C   0  0  0  0  0  2  0  0  0  0  0  0
  161.4060  213.4440  147.0460 C   0  0  0  0  0  0  0  0  0  0  0  0
  160.1120  214.4200  147.3160 S   0  0  0  0  0  0  0  0  0  0  0  0
  162.1480  213.4700  145.8160 N   0  0  0  0  0  2  0  0  0  0  0  0
  160.5510  212.5960  144.3300 O   0  0  0  0  0  0  0  0  0  0  0  0
  161.7310  212.9880  144.5320 C   0  0  0  0  0  0  0  0  0  0  0  0
  162.7020  212.9920  143.4040 C   0  0  0  0  0  2  0  0  0  0  0  0
  162.1370  212.2140  142.2340 C   0  0  0  0  0  1  0  0  0  0  0  0
  162.0410  204.4500  145.8230 C   0  0  0  0  0  0  0  0  0  0  0  0
  163.2100  204.7840  145.4780 O   0  0  0  0  0  0  0  0  0  0  0  0
  160.9560  204.7370  144.9880 O   0  0  0  0  0  0  0  0  0  0  0  0
  160.0700  206.6550  146.1550 C   0  0  0  0  0  1  0  0  0  0  0  0
  160.4530  206.0560  144.8150 C   0  0  0  0  0  2  0  0  0  0  0  0
  1  8  1  0  0  0  0
  2  9  1  0  0  0  0
  3 19  2  0  0  0  0
  4 15  2  0  0  0  0
  5 16  1  0  0  0  0
  5 24  1  0  0  0  0
  6  7  2  0  0  0  0
  8  6  1  0  0  0  0
  8 23  1  0  0  0  0
 10  9  1  6  0  0  0
 10 12  1  0  0  0  0
 11 13  1  0  0  0  0
 12 17  1  6  0  0  0
 12  6  1  0  0  0  0
 13 17  1  0  0  0  0
 15 11  2  0  0  0  0
 16 14  1  1  0  0  0
 16 18  1  0  0  0  0
 18  3  1  0  0  0  0
 18  2  1  6  0  0  0
 19 21  2  0  0  0  0
 20  1  2  0  0  0  0
 21 20  1  0  0  0  0
 21 10  1  0  0  0  0
 22  5  2  0  0  0  0
 24  4  1  0  0  0  0
 26 27  2  0  0  0  0
 27 22  1  0  0  0  0
 27 25  1  0  0  0  0
 28 29  2  0  0  0  0
 28  3  1  0  0  0  0
 30 31  1  0  0  0  0
 30 29  1  0  0  0  0
 32 33  2  0  0  0  0
 32 31  1  0  0  0  0
 34 32  1  0  0  0  0
 35 36  2  0  0  0  0
 36 34  1  0  0  0  0
 37 36  1  0  0  0  0
 38 37  1  0  0  0  0
 39 22  1  0  0  0  0
 40 39  2  0  0  0  0
 41 39  1  0  0  0  0
 43 41  1  0  0  0  0
 43 42  1  0  0  0  0
M  END
>  <MODEL>
4

>  <REMARK>
 VINA RESULT:       0.1      2.283      6.897
  Name = 
  10 active torsions:
  status: ('A' for Active; 'I' for Inactive)
    1  A    between atoms: C_1  and  C_6
    2  A    between atoms: C_5  and  C_15
    3  A    between atoms: N_10  and  C_24
    4  A    between atoms: C_13  and  O_40
    5  A    between atoms: C_14  and  C_15
    6  A    between atoms: C_14  and  C_24
    7  A    between atoms: C_19  and  C_34
    8  A    between atoms: C_23  and  C_38
    9  A    between atoms: C_23  and  O_40
   10  A    between atoms: C_27  and  C_38
                            x       y       z     vdW  Elec       q    Type
                         _______ _______ _______ _____ _____    ______ ____

>  <TORSDO>
F 10

$$$$
=
 OpenBabel11052411273D

 43 45  0  0  1  0  0  0  0  0999 V2000
  160.1440  209.6080  154.0840 C   0  0  0  0  0  3  0  0  0  0  0  0
  163.3890  206.5930  150.6780 C   0  0  0  0  0  2  0  0  0  0  0  0
  161.3850  207.8340  149.6580 C   0  0  0  0  0  0  0  0  0  0  0  0
  160.1250  204.2210  149.9590 C   0  0  0  0  0  3  0  0  0  0  0  0
  161.9400  204.4430  148.3120 C   0  0  0  0  0  0  0  0  0  0  0  0
  161.7040  207.9460  155.2650 C   0  0  0  0  0  0  0  0  0  0  0  0
  162.3990  207.7020  156.2880 O   0  0  0  0  0  0  0  0  0  0  0  0
  160.9820  209.1900  155.1730 N   0  0  0  0  0  0  0  0  0  0  0  0
  162.8360  206.2930  152.0840 C   0  0  0  0  0  2  0  0  0  0  0  0
  162.1990  207.4730  152.8820 C   0  0  2  0  0  3  0  0  0  0  0  0
  159.4140  204.6330  152.4350 C   0  0  0  0  0  3  0  0  0  0  0  0
  161.6700  206.9100  154.1960 C   0  0  2  0  0  3  0  0  0  0  0  0
  160.4490  204.8430  153.4840 C   0  0  0  0  0  2  0  0  0  0  0  0
  163.8210  205.8910  147.9590 O   0  0  0  0  0  1  0  0  0  0  0  0
  159.7710  204.4170  151.1980 C   0  0  0  0  0  0  0  0  0  0  0  0
  162.4710  205.8660  148.3190 C   0  0  2  0  0  3  0  0  0  0  0  0
  160.3040  206.2250  154.0990 C   0  0  0  0  0  2  0  0  0  0  0  0
  162.2440  206.5960  149.6440 C   0  0  1  0  0  3  0  0  0  0  0  0
  161.1170  208.1960  150.8680 C   0  0  0  0  0  0  0  0  0  0  0  0
  160.2100  209.2300  152.8030 C   0  0  0  0  0  3  0  0  0  0  0  0
  161.1460  208.2990  152.1560 C   0  0  0  0  0  0  0  0  0  0  0  0
  161.8010  203.7580  147.1430 C   0  0  0  0  0  0  0  0  0  0  0  0
  160.9600  210.0580  156.3390 C   0  0  0  0  0  1  0  0  0  0  0  0
  161.5280  203.8320  149.6280 C   0  0  0  0  0  2  0  0  0  0  0  0
  161.5260  201.5350  148.2350 O   0  0  0  0  0  1  0  0  0  0  0  0
  160.9140  201.8120  146.0570 O   0  0  0  0  0  0  0  0  0  0  0  0
  161.3950  202.3270  147.1000 C   0  0  0  0  0  0  0  0  0  0  0  0
  161.2860  208.8150  148.5670 C   0  0  0  0  0  3  0  0  0  0  0  0
  161.7310  210.0590  148.6740 C   0  0  0  0  0  3  0  0  0  0  0  0
  161.5760  211.0160  147.5470 C   0  0  0  0  0  2  0  0  0  0  0  0
  161.9200  212.4090  148.0330 C   0  0  0  0  0  2  0  0  0  0  0  0
  161.1170  213.4230  147.2970 C   0  0  0  0  0  0  0  0  0  0  0  0
  161.7170  214.0520  145.9030 S   0  0  0  0  0  0  0  0  0  0  0  0
  159.8730  213.8600  147.8680 N   0  0  0  0  0  2  0  0  0  0  0  0
  158.3510  212.5600  146.6360 O   0  0  0  0  0  0  0  0  0  0  0  0
  158.5480  213.4760  147.4780 C   0  0  0  0  0  0  0  0  0  0  0  0
  157.3810  214.1430  148.1170 C   0  0  0  0  0  2  0  0  0  0  0  0
  156.8010  213.2490  149.1920 C   0  0  0  0  0  1  0  0  0  0  0  0
  162.0400  204.4160  145.8340 C   0  0  0  0  0  0  0  0  0  0  0  0
  163.2070  204.7580  145.4930 O   0  0  0  0  0  0  0  0  0  0  0  0
  160.9560  204.6900  144.9920 O   0  0  0  0  0  0  0  0  0  0  0  0
  160.1060  206.6640  146.0880 C   0  0  0  0  0  1  0  0  0  0  0  0
  160.4740  206.0090  144.7710 C   0  0  0  0  0  2  0  0  0  0  0  0
  1  8  1  0  0  0  0
  2  9  1  0  0  0  0
  3 19  2  0  0  0  0
  4 15  2  0  0  0  0
  5 16  1  0  0  0  0
  5 24  1  0  0  0  0
  6  7  2  0  0  0  0
  8  6  1  0  0  0  0
  8 23  1  0  0  0  0
 10  9  1  6  0  0  0
 10 12  1  0  0  0  0
 11 13  1  0  0  0  0
 12 17  1  6  0  0  0
 12  6  1  0  0  0  0
 13 17  1  0  0  0  0
 15 11  2  0  0  0  0
 16 14  1  1  0  0  0
 16 18  1  0  0  0  0
 18  3  1  0  0  0  0
 18  2  1  6  0  0  0
 19 21  2  0  0  0  0
 20  1  2  0  0  0  0
 21 20  1  0  0  0  0
 21 10  1  0  0  0  0
 22  5  2  0  0  0  0
 24  4  1  0  0  0  0
 26 27  2  0  0  0  0
 27 22  1  0  0  0  0
 27 25  1  0  0  0  0
 28 29  2  0  0  0  0
 28  3  1  0  0  0  0
 30 31  1  0  0  0  0
 30 29  1  0  0  0  0
 32 34  1  0  0  0  0
 32 31  1  0  0  0  0
 33 32  2  0  0  0  0
 35 36  2  0  0  0  0
 36 34  1  0  0  0  0
 36 37  1  0  0  0  0
 37 38  1  0  0  0  0
 39 22  1  0  0  0  0
 40 39  2  0  0  0  0
 41 39  1  0  0  0  0
 43 41  1  0  0  0  0
 43 42  1  0  0  0  0
M  END
>  <MODEL>
5

>  <REMARK>
 VINA RESULT:       0.3      2.599      7.156
  Name = 
  10 active torsions:
  status: ('A' for Active; 'I' for Inactive)
    1  A    between atoms: C_1  and  C_6
    2  A    between atoms: C_5  and  C_15
    3  A    between atoms: N_10  and  C_24
    4  A    between atoms: C_13  and  O_40
    5  A    between atoms: C_14  and  C_15
    6  A    between atoms: C_14  and  C_24
    7  A    between atoms: C_19  and  C_34
    8  A    between atoms: C_23  and  C_38
    9  A    between atoms: C_23  and  O_40
   10  A    between atoms: C_27  and  C_38
                            x       y       z     vdW  Elec       q    Type
                         _______ _______ _______ _____ _____    ______ ____

>  <TORSDO>
F 10

$$$$
=
 OpenBabel11052411273D

 43 45  0  0  1  0  0  0  0  0999 V2000
  160.6050  211.3520  145.7380 C   0  0  0  0  0  3  0  0  0  0  0  0
  162.8960  211.1540  150.8300 C   0  0  0  0  0  2  0  0  0  0  0  0
  161.1260  209.3930  150.2290 C   0  0  0  0  0  0  0  0  0  0  0  0
  159.1670  211.9270  152.3440 C   0  0  0  0  0  3  0  0  0  0  0  0
  160.8640  210.7270  153.6600 C   0  0  0  0  0  0  0  0  0  0  0  0
  161.8670  213.4750  146.4410 C   0  0  0  0  0  0  0  0  0  0  0  0
  162.5680  214.4530  146.0660 O   0  0  0  0  0  0  0  0  0  0  0  0
  161.4150  212.5080  145.4720 N   0  0  0  0  0  0  0  0  0  0  0  0
  162.3960  212.3420  149.9860 C   0  0  0  0  0  2  0  0  0  0  0  0
  162.0780  212.0810  148.4810 C   0  0  2  0  0  3  0  0  0  0  0  0
  158.7380  213.4110  150.2410 C   0  0  0  0  0  3  0  0  0  0  0  0
  161.5400  213.3790  147.8900 C   0  0  2  0  0  3  0  0  0  0  0  0
  159.8670  214.1340  149.5940 C   0  0  0  0  0  2  0  0  0  0  0  0
  162.9750  209.6610  153.2470 O   0  0  0  0  0  1  0  0  0  0  0  0
  158.9520  212.6770  151.2980 C   0  0  0  0  0  0  0  0  0  0  0  0
  161.6790  209.8240  152.7500 C   0  0  2  0  0  3  0  0  0  0  0  0
  160.0580  213.6460  148.1670 C   0  0  0  0  0  2  0  0  0  0  0  0
  161.7050  210.2890  151.2930 C   0  0  1  0  0  3  0  0  0  0  0  0
  161.0280  210.0170  149.1030 C   0  0  0  0  0  0  0  0  0  0  0  0
  160.4980  210.6680  146.8820 C   0  0  0  0  0  3  0  0  0  0  0  0
  161.1710  210.8990  148.1690 C   0  0  0  0  0  0  0  0  0  0  0  0
  160.5020  210.3130  154.9050 C   0  0  0  0  0  0  0  0  0  0  0  0
  161.6580  212.7820  144.0650 C   0  0  0  0  0  1  0  0  0  0  0  0
  160.4300  212.0690  153.1260 C   0  0  0  0  0  2  0  0  0  0  0  0
  160.5450  212.0010  156.7390 O   0  0  0  0  0  1  0  0  0  0  0  0
  158.5480  211.2730  155.9150 O   0  0  0  0  0  0  0  0  0  0  0  0
  159.8040  211.2050  155.8710 C   0  0  0  0  0  0  0  0  0  0  0  0
  161.1550  207.9230  150.2450 C   0  0  0  0  0  3  0  0  0  0  0  0
  162.2510  207.2260  150.5060 C   0  0  0  0  0  3  0  0  0  0  0  0
  162.2260  205.7400  150.4780 C   0  0  0  0  0  2  0  0  0  0  0  0
  160.9100  205.2810  149.8830 C   0  0  0  0  0  2  0  0  0  0  0  0
  161.0270  203.8770  149.4010 C   0  0  0  0  0  0  0  0  0  0  0  0
  160.7390  202.6490  150.4550 S   0  0  0  0  0  0  0  0  0  0  0  0
  161.4490  203.6490  148.0480 N   0  0  0  0  0  2  0  0  0  0  0  0
  161.3850  205.8400  147.2000 O   0  0  0  0  0  0  0  0  0  0  0  0
  161.5450  204.6090  146.9870 C   0  0  0  0  0  0  0  0  0  0  0  0
  161.8850  204.1430  145.6150 C   0  0  0  0  0  2  0  0  0  0  0  0
  160.8730  204.6780  144.6240 C   0  0  0  0  0  1  0  0  0  0  0  0
  160.7760  208.9290  155.3670 C   0  0  0  0  0  0  0  0  0  0  0  0
  161.8440  208.6610  155.9860 O   0  0  0  0  0  0  0  0  0  0  0  0
  159.8600  207.9110  155.0780 O   0  0  0  0  0  0  0  0  0  0  0  0
  161.2060  206.3820  153.7850 C   0  0  0  0  0  1  0  0  0  0  0  0
  160.2470  206.5490  154.9480 C   0  0  0  0  0  2  0  0  0  0  0  0
  1 20  2  0  0  0  0
  3 28  1  0  0  0  0
  3 18  1  0  0  0  0
  4 24  1  0  0  0  0
  5 22  2  0  0  0  0
  6 12  1  0  0  0  0
  7  6  2  0  0  0  0
  8  1  1  0  0  0  0
  8  6  1  0  0  0  0
  9  2  1  0  0  0  0
 10  9  1  1  0  0  0
 11 15  2  0  0  0  0
 12 17  1  6  0  0  0
 12 10  1  0  0  0  0
 13 11  1  0  0  0  0
 15  4  2  0  0  0  0
 16 14  1  1  0  0  0
 16  5  1  0  0  0  0
 17 13  1  0  0  0  0
 18  2  1  6  0  0  0
 18 16  1  0  0  0  0
 19  3  2  0  0  0  0
 20 21  1  0  0  0  0
 21 10  1  0  0  0  0
 21 19  2  0  0  0  0
 22 39  1  0  0  0  0
 22 27  1  0  0  0  0
 23  8  1  0  0  0  0
 24  5  1  0  0  0  0
 27 26  2  0  0  0  0
 27 25  1  0  0  0  0
 28 29  2  0  0  0  0
 30 29  1  0  0  0  0
 31 30  1  0  0  0  0
 32 31  1  0  0  0  0
 32 33  2  0  0  0  0
 34 32  1  0  0  0  0
 36 35  2  0  0  0  0
 36 34  1  0  0  0  0
 37 36  1  0  0  0  0
 38 37  1  0  0  0  0
 39 40  2  0  0  0  0
 41 39  1  0  0  0  0
 42 43  1  0  0  0  0
 43 41  1  0  0  0  0
M  END
>  <MODEL>
6

>  <REMARK>
 VINA RESULT:       0.5      2.450      6.981
  Name = 
  10 active torsions:
  status: ('A' for Active; 'I' for Inactive)
    1  A    between atoms: C_1  and  C_6
    2  A    between atoms: C_5  and  C_15
    3  A    between atoms: N_10  and  C_24
    4  A    between atoms: C_13  and  O_40
    5  A    between atoms: C_14  and  C_15
    6  A    between atoms: C_14  and  C_24
    7  A    between atoms: C_19  and  C_34
    8  A    between atoms: C_23  and  C_38
    9  A    between atoms: C_23  and  O_40
   10  A    between atoms: C_27  and  C_38
                            x       y       z     vdW  Elec       q    Type
                         _______ _______ _______ _____ _____    ______ ____

>  <TORSDO>
F 10

$$$$
