=
 OpenBabel11042420133D

 25 26  0  0  1  0  0  0  0  0999 V2000
  160.4080  203.6570  150.6320 C   0  0  1  0  0  3  0  0  0  0  0  0
  161.3720  205.3110  152.2200 C   0  0  1  0  0  3  0  0  0  0  0  0
  160.7550  203.9070  152.1160 C   0  0  0  0  0  2  0  0  0  0  0  0
  160.8610  204.8910  149.9450 C   0  0  0  0  0  0  0  0  0  0  0  0
  161.8860  207.0400  150.3790 C   0  0  0  0  0  0  0  0  0  0  0  0
  161.8110  207.3360  148.9900 C   0  0  0  0  0  0  0  0  0  0  0  0
  161.3920  205.8050  150.8200 C   0  0  0  0  0  0  0  0  0  0  0  0
  161.2470  206.3880  148.1110 C   0  0  0  0  0  3  0  0  0  0  0  0
  160.7690  205.1620  148.5830 C   0  0  0  0  0  3  0  0  0  0  0  0
  160.1130  201.7240  149.3890 N   0  0  0  0  0  1  0  0  0  0  0  0
  161.5290  201.6940  151.0970 O   0  0  0  0  0  1  0  0  0  0  0  0
  161.0760  202.4720  150.0810 N   0  0  0  0  0  0  0  0  0  0  0  0
  160.9640  206.7710  154.2430 C   0  0  0  0  0  0  0  0  0  0  0  0
  162.1460  206.5930  154.6450 O   0  0  0  0  0  0  0  0  0  0  0  0
  160.5150  206.1650  153.0300 N   0  0  0  0  0  2  0  0  0  0  0  0
  160.0300  207.6680  155.0020 C   0  0  1  0  0  3  0  0  0  0  0  0
  159.9350  207.3100  156.3540 O   0  0  0  0  0  1  0  0  0  0  0  0
  160.3300  209.0370  154.8340 O   0  0  0  0  0  0  0  0  0  0  0  0
  162.0350  210.5170  155.5990 C   0  0  0  0  0  1  0  0  0  0  0  0
  160.9780  209.5060  155.9890 C   0  0  0  0  0  2  0  0  0  0  0  0
  162.3010  208.6070  148.4390 C   0  0  0  0  0  3  0  0  0  0  0  0
  161.6460  209.6750  148.5650 O   0  0  0  0  0  0  0  0  0  0  0  0
  162.4250  207.9150  151.3350 O   0  0  0  0  0  0  0  0  0  0  0  0
  161.7230  208.9060  151.9010 O   0  0  0  0  0  0  0  0  0  0  0  0
  162.5860  210.0010  151.8790 C   0  0  0  0  0  1  0  0  0  0  0  0
  1 12  1  6  0  0  0
  1  3  1  0  0  0  0
  2 15  1  1  0  0  0
  3  2  1  0  0  0  0
  4  1  1  0  0  0  0
  4  7  1  0  0  0  0
  5  7  2  0  0  0  0
  5 23  1  0  0  0  0
  6  5  1  0  0  0  0
  7  2  1  0  0  0  0
  8  9  1  0  0  0  0
  8  6  2  0  0  0  0
  9  4  2  0  0  0  0
 10 12  1  0  0  0  0
 12 11  1  0  0  0  0
 13 14  2  0  0  0  0
 13 16  1  0  0  0  0
 15 13  1  0  0  0  0
 16 17  1  1  0  0  0
 18 16  1  0  0  0  0
 18 20  1  0  0  0  0
 19 20  1  0  0  0  0
 21 22  2  0  0  0  0
 21  6  1  0  0  0  0
 23 24  1  0  0  0  0
 25 24  1  0  0  0  0
M  END
>  <MODEL>
1

>  <REMARK>
 VINA RESULT:      -6.0      0.000      0.000
  Name = 
  8 active torsions:
  status: ('A' for Active; 'I' for Inactive)
    1  A    between atoms: C_1  and  C_7
    2  A    between atoms: C_1  and  O_8
    3  A    between atoms: C_2  and  N_12
    4  A    between atoms: C_4  and  N_24
    5  A    between atoms: O_8  and  C_19
    6  A    between atoms: O_11  and  O_17
    7  A    between atoms: C_13  and  O_17
    8  A    between atoms: C_15  and  C_18
                            x       y       z     vdW  Elec       q    Type
                         _______ _______ _______ _____ _____    ______ ____

>  <TORSDO>
F 8

$$$$
=
 OpenBabel11042420133D

 25 26  0  0  1  0  0  0  0  0999 V2000
  161.6300  205.3980  146.3670 C   0  0  1  0  0  3  0  0  0  0  0  0
  160.6800  205.9950  148.5860 C   0  0  1  0  0  3  0  0  0  0  0  0
  161.1320  206.5730  147.2350 C   0  0  0  0  0  2  0  0  0  0  0  0
  161.4180  204.2050  147.2210 C   0  0  0  0  0  0  0  0  0  0  0  0
  160.6130  203.5530  149.4090 C   0  0  0  0  0  0  0  0  0  0  0  0
  160.8960  202.1970  149.0890 C   0  0  0  0  0  0  0  0  0  0  0  0
  160.8950  204.5330  148.4470 C   0  0  0  0  0  0  0  0  0  0  0  0
  161.4470  201.8840  147.8290 C   0  0  0  0  0  3  0  0  0  0  0  0
  161.7110  202.8850  146.8890 C   0  0  0  0  0  3  0  0  0  0  0  0
  161.7970  205.5530  144.0610 N   0  0  0  0  0  1  0  0  0  0  0  0
  159.9240  206.2180  145.0460 O   0  0  0  0  0  1  0  0  0  0  0  0
  160.8980  205.2750  145.1000 N   0  0  0  0  0  0  0  0  0  0  0  0
  161.7200  207.9160  149.8580 C   0  0  0  0  0  0  0  0  0  0  0  0
  161.1400  208.7570  149.1200 O   0  0  0  0  0  0  0  0  0  0  0  0
  161.5250  206.5160  149.6510 N   0  0  0  0  0  2  0  0  0  0  0  0
  162.5790  208.3730  151.0010 C   0  0  1  0  0  3  0  0  0  0  0  0
  162.5010  209.7590  151.2000 O   0  0  0  0  0  1  0  0  0  0  0  0
  162.3370  207.6510  152.1900 O   0  0  0  0  0  0  0  0  0  0  0  0
  160.8960  207.3820  154.0700 C   0  0  0  0  0  1  0  0  0  0  0  0
  161.2030  208.1870  152.8250 C   0  0  0  0  0  2  0  0  0  0  0  0
  160.6340  201.1050  150.0360 C   0  0  0  0  0  3  0  0  0  0  0  0
  159.4680  200.6760  150.2420 O   0  0  0  0  0  0  0  0  0  0  0  0
  160.0670  203.9690  150.6340 O   0  0  0  0  0  0  0  0  0  0  0  0
  160.4990  203.5200  151.8190 O   0  0  0  0  0  0  0  0  0  0  0  0
  161.6390  204.2780  152.0840 C   0  0  0  0  0  1  0  0  0  0  0  0
  1 12  1  6  0  0  0
  1  4  1  0  0  0  0
  1  3  1  0  0  0  0
  2 15  1  1  0  0  0
  3  2  1  0  0  0  0
  4  7  1  0  0  0  0
  5 23  1  0  0  0  0
  6  5  1  0  0  0  0
  6 21  1  0  0  0  0
  7  2  1  0  0  0  0
  7  5  2  0  0  0  0
  8  6  2  0  0  0  0
  9  4  2  0  0  0  0
  9  8  1  0  0  0  0
 10 12  1  0  0  0  0
 11 12  1  0  0  0  0
 13 16  1  0  0  0  0
 14 13  2  0  0  0  0
 15 13  1  0  0  0  0
 16 17  1  1  0  0  0
 16 18  1  0  0  0  0
 18 20  1  0  0  0  0
 20 19  1  0  0  0  0
 21 22  2  0  0  0  0
 23 24  1  0  0  0  0
 24 25  1  0  0  0  0
M  END
>  <MODEL>
2

>  <REMARK>
 VINA RESULT:      -5.9      2.773      5.289
  Name = 
  8 active torsions:
  status: ('A' for Active; 'I' for Inactive)
    1  A    between atoms: C_1  and  C_7
    2  A    between atoms: C_1  and  O_8
    3  A    between atoms: C_2  and  N_12
    4  A    between atoms: C_4  and  N_24
    5  A    between atoms: O_8  and  C_19
    6  A    between atoms: O_11  and  O_17
    7  A    between atoms: C_13  and  O_17
    8  A    between atoms: C_15  and  C_18
                            x       y       z     vdW  Elec       q    Type
                         _______ _______ _______ _____ _____    ______ ____

>  <TORSDO>
F 8

$$$$
=
 OpenBabel11042420133D

 25 26  0  0  1  0  0  0  0  0999 V2000
  161.4360  208.4200  150.4830 C   0  0  1  0  0  3  0  0  0  0  0  0
  162.0090  206.6790  148.8030 C   0  0  1  0  0  3  0  0  0  0  0  0
  161.9480  208.1950  149.0440 C   0  0  0  0  0  2  0  0  0  0  0  0
  161.2570  207.0480  151.0190 C   0  0  0  0  0  0  0  0  0  0  0  0
  161.4760  204.7200  150.3920 C   0  0  0  0  0  0  0  0  0  0  0  0
  161.0280  204.3480  151.6890 C   0  0  0  0  0  0  0  0  0  0  0  0
  161.5710  206.0860  150.0920 C   0  0  0  0  0  0  0  0  0  0  0  0
  160.6960  205.3530  152.6220 C   0  0  0  0  0  3  0  0  0  0  0  0
  160.8080  206.7080  152.2910 C   0  0  0  0  0  3  0  0  0  0  0  0
  161.7100  209.5380  152.4940 N   0  0  0  0  0  1  0  0  0  0  0  0
  162.6920  210.3460  150.6760 O   0  0  0  0  0  1  0  0  0  0  0  0
  162.3750  209.1890  151.3100 N   0  0  0  0  0  0  0  0  0  0  0  0
  161.4980  205.7550  146.5060 C   0  0  0  0  0  0  0  0  0  0  0  0
  162.7220  205.5460  146.2860 O   0  0  0  0  0  0  0  0  0  0  0  0
  161.0720  206.3110  147.7500 N   0  0  0  0  0  2  0  0  0  0  0  0
  160.4660  205.3680  145.4860 C   0  0  1  0  0  3  0  0  0  0  0  0
  159.9550  206.4810  144.8040 O   0  0  0  0  0  1  0  0  0  0  0  0
  160.9190  204.3650  144.6030 O   0  0  0  0  0  0  0  0  0  0  0  0
  159.9910  202.1930  144.9280 C   0  0  0  0  0  1  0  0  0  0  0  0
  161.0820  203.1670  145.3200 C   0  0  0  0  0  2  0  0  0  0  0  0
  160.8960  202.9410  152.0910 C   0  0  0  0  0  3  0  0  0  0  0  0
  161.8830  202.1590  152.0860 O   0  0  0  0  0  0  0  0  0  0  0  0
  161.8280  203.7990  149.3940 O   0  0  0  0  0  0  0  0  0  0  0  0
  160.9310  203.1960  148.6030 O   0  0  0  0  0  0  0  0  0  0  0  0
  161.2320  201.8380  148.7080 C   0  0  0  0  0  1  0  0  0  0  0  0
  1  4  1  0  0  0  0
  1 12  1  1  0  0  0
  2 15  1  6  0  0  0
  2  3  1  0  0  0  0
  2  7  1  0  0  0  0
  3  1  1  0  0  0  0
  4  9  1  0  0  0  0
  5  6  2  0  0  0  0
  6 21  1  0  0  0  0
  6  8  1  0  0  0  0
  7  5  1  0  0  0  0
  7  4  2  0  0  0  0
  9  8  2  0  0  0  0
 11 12  1  0  0  0  0
 12 10  1  0  0  0  0
 13 15  1  0  0  0  0
 14 13  2  0  0  0  0
 16 17  1  6  0  0  0
 16 13  1  0  0  0  0
 18 20  1  0  0  0  0
 18 16  1  0  0  0  0
 19 20  1  0  0  0  0
 22 21  2  0  0  0  0
 23  5  1  0  0  0  0
 24 25  1  0  0  0  0
 24 23  1  0  0  0  0
M  END
>  <MODEL>
3

>  <REMARK>
 VINA RESULT:      -5.6      3.186      7.618
  Name = 
  8 active torsions:
  status: ('A' for Active; 'I' for Inactive)
    1  A    between atoms: C_1  and  C_7
    2  A    between atoms: C_1  and  O_8
    3  A    between atoms: C_2  and  N_12
    4  A    between atoms: C_4  and  N_24
    5  A    between atoms: O_8  and  C_19
    6  A    between atoms: O_11  and  O_17
    7  A    between atoms: C_13  and  O_17
    8  A    between atoms: C_15  and  C_18
                            x       y       z     vdW  Elec       q    Type
                         _______ _______ _______ _____ _____    ______ ____

>  <TORSDO>
F 8

$$$$
=
 OpenBabel11042420133D

 25 26  0  0  1  0  0  0  0  0999 V2000
  161.6080  205.5150  152.4970 C   0  0  1  0  0  3  0  0  0  0  0  0
  160.5520  204.8390  150.3500 C   0  0  1  0  0  3  0  0  0  0  0  0
  160.8300  204.3840  151.7910 C   0  0  0  0  0  2  0  0  0  0  0  0
  161.7170  206.5740  151.4640 C   0  0  0  0  0  0  0  0  0  0  0  0
  161.1220  207.0580  149.1680 C   0  0  0  0  0  0  0  0  0  0  0  0
  161.7440  208.3300  149.2940 C   0  0  0  0  0  0  0  0  0  0  0  0
  161.1360  206.2020  150.2780 C   0  0  0  0  0  0  0  0  0  0  0  0
  162.3490  208.6870  150.5180 C   0  0  0  0  0  3  0  0  0  0  0  0
  162.3390  207.8110  151.6080 C   0  0  0  0  0  3  0  0  0  0  0  0
  160.3720  207.2660  153.3780 N   0  0  0  0  0  1  0  0  0  0  0  0
  161.8330  206.2240  154.6810 O   0  0  0  0  0  1  0  0  0  0  0  0
  160.9250  206.0170  153.6950 N   0  0  0  0  0  0  0  0  0  0  0  0
  160.7510  202.6600  149.0840 C   0  0  0  0  0  0  0  0  0  0  0  0
  159.6760  202.2350  149.5880 O   0  0  0  0  0  0  0  0  0  0  0  0
  161.2410  203.9600  149.4160 N   0  0  0  0  0  2  0  0  0  0  0  0
  161.5010  201.8290  148.0840 C   0  0  1  0  0  3  0  0  0  0  0  0
  161.3450  200.4550  148.3140 O   0  0  0  0  0  1  0  0  0  0  0  0
  161.2060  202.1810  146.7490 O   0  0  0  0  0  0  0  0  0  0  0  0
  159.8810  201.5220  144.8800 C   0  0  0  0  0  1  0  0  0  0  0  0
  160.6640  201.0630  146.0920 C   0  0  0  0  0  2  0  0  0  0  0  0
  161.7800  209.2910  148.1830 C   0  0  0  0  0  3  0  0  0  0  0  0
  162.0710  210.5020  148.3690 O   0  0  0  0  0  0  0  0  0  0  0  0
  160.4960  206.6080  147.9950 O   0  0  0  0  0  0  0  0  0  0  0  0
  161.1660  206.0790  146.9630 O   0  0  0  0  0  0  0  0  0  0  0  0
  160.3530  206.3250  145.8570 C   0  0  0  0  0  1  0  0  0  0  0  0
  1 12  1  1  0  0  0
  2 15  1  6  0  0  0
  2  3  1  0  0  0  0
  3  1  1  0  0  0  0
  4  9  1  0  0  0  0
  4  1  1  0  0  0  0
  5  6  2  0  0  0  0
  5  7  1  0  0  0  0
  6  8  1  0  0  0  0
  7  2  1  0  0  0  0
  7  4  2  0  0  0  0
  8  9  2  0  0  0  0
 10 12  1  0  0  0  0
 12 11  1  0  0  0  0
 13 15  1  0  0  0  0
 13 14  2  0  0  0  0
 16 17  1  6  0  0  0
 16 13  1  0  0  0  0
 18 16  1  0  0  0  0
 19 20  1  0  0  0  0
 20 18  1  0  0  0  0
 21 22  2  0  0  0  0
 21  6  1  0  0  0  0
 23  5  1  0  0  0  0
 24 23  1  0  0  0  0
 25 24  1  0  0  0  0
M  END
>  <MODEL>
4

>  <REMARK>
 VINA RESULT:      -5.5      2.437      6.507
  Name = 
  8 active torsions:
  status: ('A' for Active; 'I' for Inactive)
    1  A    between atoms: C_1  and  C_7
    2  A    between atoms: C_1  and  O_8
    3  A    between atoms: C_2  and  N_12
    4  A    between atoms: C_4  and  N_24
    5  A    between atoms: O_8  and  C_19
    6  A    between atoms: O_11  and  O_17
    7  A    between atoms: C_13  and  O_17
    8  A    between atoms: C_15  and  C_18
                            x       y       z     vdW  Elec       q    Type
                         _______ _______ _______ _____ _____    ______ ____

>  <TORSDO>
F 8

$$$$
=
 OpenBabel11042420133D

 25 26  0  0  1  0  0  0  0  0999 V2000
  160.6190  208.3660  155.1910 C   0  0  1  0  0  3  0  0  0  0  0  0
  160.7260  210.0680  153.3810 C   0  0  1  0  0  3  0  0  0  0  0  0
  160.5200  209.8780  154.8920 C   0  0  0  0  0  2  0  0  0  0  0  0
  160.9060  207.7570  153.8690 C   0  0  0  0  0  0  0  0  0  0  0  0
  161.2290  208.3350  151.5410 C   0  0  0  0  0  0  0  0  0  0  0  0
  161.4250  206.9580  151.2450 C   0  0  0  0  0  0  0  0  0  0  0  0
  160.9640  208.6950  152.8690 C   0  0  0  0  0  0  0  0  0  0  0  0
  161.3460  206.0080  152.2860 C   0  0  0  0  0  3  0  0  0  0  0  0
  161.0860  206.4030  153.6030 C   0  0  0  0  0  3  0  0  0  0  0  0
  161.0650  207.4230  157.2590 N   0  0  0  0  0  1  0  0  0  0  0  0
  162.2390  209.1900  156.6130 O   0  0  0  0  0  1  0  0  0  0  0  0
  161.6740  208.0430  156.1600 N   0  0  0  0  0  0  0  0  0  0  0  0
  159.2630  212.0140  152.7000 C   0  0  0  0  0  0  0  0  0  0  0  0
  160.1120  212.8410  153.1310 O   0  0  0  0  0  0  0  0  0  0  0  0
  159.5130  210.6100  152.7850 N   0  0  0  0  0  2  0  0  0  0  0  0
  158.0040  212.4940  152.0380 C   0  0  1  0  0  3  0  0  0  0  0  0
  157.2740  213.3650  152.8580 O   0  0  0  0  0  1  0  0  0  0  0  0
  158.2340  213.0370  150.7550 O   0  0  0  0  0  0  0  0  0  0  0  0
  156.4060  213.7330  149.3920 C   0  0  0  0  0  1  0  0  0  0  0  0
  157.3280  214.0900  150.5380 C   0  0  0  0  0  2  0  0  0  0  0  0
  161.7040  206.4880  149.8820 C   0  0  0  0  0  3  0  0  0  0  0  0
  160.9800  205.6230  149.3210 O   0  0  0  0  0  0  0  0  0  0  0  0
  161.2840  209.3550  150.5780 O   0  0  0  0  0  0  0  0  0  0  0  0
  162.3440  210.1570  150.4200 O   0  0  0  0  0  0  0  0  0  0  0  0
  162.0270  210.9380  149.3090 C   0  0  0  0  0  1  0  0  0  0  0  0
  1 12  1  1  0  0  0
  2 15  1  6  0  0  0
  2  3  1  0  0  0  0
  3  1  1  0  0  0  0
  4  1  1  0  0  0  0
  5  7  1  0  0  0  0
  6  5  2  0  0  0  0
  6  8  1  0  0  0  0
  7  2  1  0  0  0  0
  7  4  2  0  0  0  0
  8  9  2  0  0  0  0
  9  4  1  0  0  0  0
 12 11  1  0  0  0  0
 12 10  1  0  0  0  0
 13 15  1  0  0  0  0
 13 14  2  0  0  0  0
 16 13  1  0  0  0  0
 16 17  1  1  0  0  0
 18 16  1  0  0  0  0
 19 20  1  0  0  0  0
 20 18  1  0  0  0  0
 21  6  1  0  0  0  0
 22 21  2  0  0  0  0
 23  5  1  0  0  0  0
 24 23  1  0  0  0  0
 25 24  1  0  0  0  0
M  END
>  <MODEL>
5

>  <REMARK>
 VINA RESULT:      -5.2      3.640      5.880
  Name = 
  8 active torsions:
  status: ('A' for Active; 'I' for Inactive)
    1  A    between atoms: C_1  and  C_7
    2  A    between atoms: C_1  and  O_8
    3  A    between atoms: C_2  and  N_12
    4  A    between atoms: C_4  and  N_24
    5  A    between atoms: O_8  and  C_19
    6  A    between atoms: O_11  and  O_17
    7  A    between atoms: C_13  and  O_17
    8  A    between atoms: C_15  and  C_18
                            x       y       z     vdW  Elec       q    Type
                         _______ _______ _______ _____ _____    ______ ____

>  <TORSDO>
F 8

$$$$
=
 OpenBabel11042420133D

 25 26  0  0  1  0  0  0  0  0999 V2000
  161.4790  208.0680  154.2430 C   0  0  1  0  0  3  0  0  0  0  0  0
  160.6410  206.5160  152.4900 C   0  0  1  0  0  3  0  0  0  0  0  0
  160.7780  206.7120  154.0080 C   0  0  0  0  0  2  0  0  0  0  0  0
  161.6860  208.6070  152.8770 C   0  0  0  0  0  0  0  0  0  0  0  0
  161.3180  208.0680  150.5460 C   0  0  0  0  0  0  0  0  0  0  0  0
  161.9190  209.3050  150.1840 C   0  0  0  0  0  0  0  0  0  0  0  0
  161.2250  207.7510  151.9080 C   0  0  0  0  0  0  0  0  0  0  0  0
  162.4000  210.1630  151.1960 C   0  0  0  0  0  3  0  0  0  0  0  0
  162.2860  209.8180  152.5470 C   0  0  0  0  0  3  0  0  0  0  0  0
  161.5430  209.6020  155.9780 N   0  0  0  0  0  1  0  0  0  0  0  0
  159.7680  208.2870  155.7760 O   0  0  0  0  0  1  0  0  0  0  0  0
  160.6800  208.9910  155.0580 N   0  0  0  0  0  0  0  0  0  0  0  0
  160.8560  204.2840  151.3230 C   0  0  0  0  0  0  0  0  0  0  0  0
  159.6430  204.3140  150.9800 O   0  0  0  0  0  0  0  0  0  0  0  0
  161.4220  205.3600  152.0720 N   0  0  0  0  0  2  0  0  0  0  0  0
  161.7370  203.1450  150.8990 C   0  0  1  0  0  3  0  0  0  0  0  0
  161.7300  202.0970  151.8290 O   0  0  0  0  0  1  0  0  0  0  0  0
  161.4580  202.6960  149.5900 O   0  0  0  0  0  0  0  0  0  0  0  0
  161.3360  200.6620  148.3520 C   0  0  0  0  0  1  0  0  0  0  0  0
  161.0060  201.3670  149.6510 C   0  0  0  0  0  2  0  0  0  0  0  0
  162.0610  209.7190  148.7820 C   0  0  0  0  0  3  0  0  0  0  0  0
  162.0800  210.9340  148.4520 O   0  0  0  0  0  0  0  0  0  0  0  0
  160.8120  207.1450  149.6170 O   0  0  0  0  0  0  0  0  0  0  0  0
  161.5920  206.3920  148.8320 O   0  0  0  0  0  0  0  0  0  0  0  0
  160.7780  206.0570  147.7510 C   0  0  0  0  0  1  0  0  0  0  0  0
  1 12  1  1  0  0  0
  2 15  1  6  0  0  0
  2  3  1  0  0  0  0
  3  1  1  0  0  0  0
  4  1  1  0  0  0  0
  5  7  1  0  0  0  0
  6  5  2  0  0  0  0
  6  8  1  0  0  0  0
  7  2  1  0  0  0  0
  7  4  2  0  0  0  0
  8  9  2  0  0  0  0
  9  4  1  0  0  0  0
 12 11  1  0  0  0  0
 12 10  1  0  0  0  0
 13 15  1  0  0  0  0
 14 13  2  0  0  0  0
 16 13  1  0  0  0  0
 16 17  1  1  0  0  0
 18 20  1  0  0  0  0
 18 16  1  0  0  0  0
 19 20  1  0  0  0  0
 21  6  1  0  0  0  0
 22 21  2  0  0  0  0
 23  5  1  0  0  0  0
 24 23  1  0  0  0  0
 25 24  1  0  0  0  0
M  END
>  <MODEL>
6

>  <REMARK>
 VINA RESULT:      -5.2      2.123      6.032
  Name = 
  8 active torsions:
  status: ('A' for Active; 'I' for Inactive)
    1  A    between atoms: C_1  and  C_7
    2  A    between atoms: C_1  and  O_8
    3  A    between atoms: C_2  and  N_12
    4  A    between atoms: C_4  and  N_24
    5  A    between atoms: O_8  and  C_19
    6  A    between atoms: O_11  and  O_17
    7  A    between atoms: C_13  and  O_17
    8  A    between atoms: C_15  and  C_18
                            x       y       z     vdW  Elec       q    Type
                         _______ _______ _______ _____ _____    ______ ____

>  <TORSDO>
F 8

$$$$
=
 OpenBabel11042420133D

 25 26  0  0  1  0  0  0  0  0999 V2000
  161.4780  209.9510  149.4570 C   0  0  1  0  0  3  0  0  0  0  0  0
  162.2950  207.6080  149.6200 C   0  0  1  0  0  3  0  0  0  0  0  0
  162.1160  208.7940  148.6590 C   0  0  0  0  0  2  0  0  0  0  0  0
  161.3470  209.4090  150.8320 C   0  0  0  0  0  0  0  0  0  0  0  0
  161.7680  207.4140  152.1350 C   0  0  0  0  0  0  0  0  0  0  0  0
  161.2440  208.0740  153.2810 C   0  0  0  0  0  0  0  0  0  0  0  0
  161.7960  208.1160  150.9230 C   0  0  0  0  0  0  0  0  0  0  0  0
  160.7730  209.3980  153.1610 C   0  0  0  0  0  3  0  0  0  0  0  0
  160.8220  210.0730  151.9370 C   0  0  0  0  0  3  0  0  0  0  0  0
  161.4220  212.2670  149.4310 N   0  0  0  0  0  1  0  0  0  0  0  0
  163.0190  211.2220  148.3010 O   0  0  0  0  0  1  0  0  0  0  0  0
  162.2950  211.1710  149.4480 N   0  0  0  0  0  0  0  0  0  0  0  0
  161.7880  205.7140  148.0250 C   0  0  0  0  0  0  0  0  0  0  0  0
  162.8220  205.9670  147.3490 O   0  0  0  0  0  0  0  0  0  0  0  0
  161.4710  206.4910  149.1800 N   0  0  0  0  0  2  0  0  0  0  0  0
  160.9070  204.5550  147.6590 C   0  0  1  0  0  3  0  0  0  0  0  0
  161.2520  204.0000  146.4190 O   0  0  0  0  0  1  0  0  0  0  0  0
  160.8350  203.5800  148.6770 O   0  0  0  0  0  0  0  0  0  0  0  0
  160.8630  201.2460  149.1630 C   0  0  0  0  0  1  0  0  0  0  0  0
  161.0900  202.3170  148.1170 C   0  0  0  0  0  2  0  0  0  0  0  0
  161.1720  207.4150  154.5920 C   0  0  0  0  0  3  0  0  0  0  0  0
  160.0820  206.9870  155.0550 O   0  0  0  0  0  0  0  0  0  0  0  0
  162.2580  206.0990  152.1490 O   0  0  0  0  0  0  0  0  0  0  0  0
  161.5280  205.0480  152.5450 O   0  0  0  0  0  0  0  0  0  0  0  0
  161.8810  204.0260  151.6650 C   0  0  0  0  0  1  0  0  0  0  0  0
  1 12  1  1  0  0  0
  1  4  1  0  0  0  0
  2 15  1  6  0  0  0
  2  7  1  0  0  0  0
  3  1  1  0  0  0  0
  3  2  1  0  0  0  0
  4  7  2  0  0  0  0
  4  9  1  0  0  0  0
  5 23  1  0  0  0  0
  5  6  2  0  0  0  0
  6 21  1  0  0  0  0
  7  5  1  0  0  0  0
  8  6  1  0  0  0  0
  9  8  2  0  0  0  0
 10 12  1  0  0  0  0
 11 12  1  0  0  0  0
 13 15  1  0  0  0  0
 14 13  2  0  0  0  0
 16 17  1  6  0  0  0
 16 13  1  0  0  0  0
 16 18  1  0  0  0  0
 20 18  1  0  0  0  0
 20 19  1  0  0  0  0
 21 22  2  0  0  0  0
 23 24  1  0  0  0  0
 25 24  1  0  0  0  0
M  END
>  <MODEL>
7

>  <REMARK>
 VINA RESULT:      -5.1      2.985      7.065
  Name = 
  8 active torsions:
  status: ('A' for Active; 'I' for Inactive)
    1  A    between atoms: C_1  and  C_7
    2  A    between atoms: C_1  and  O_8
    3  A    between atoms: C_2  and  N_12
    4  A    between atoms: C_4  and  N_24
    5  A    between atoms: O_8  and  C_19
    6  A    between atoms: O_11  and  O_17
    7  A    between atoms: C_13  and  O_17
    8  A    between atoms: C_15  and  C_18
                            x       y       z     vdW  Elec       q    Type
                         _______ _______ _______ _____ _____    ______ ____

>  <TORSDO>
F 8

$$$$
=
 OpenBabel11042420133D

 25 26  0  0  1  0  0  0  0  0999 V2000
  160.6340  205.6900  152.2390 C   0  0  1  0  0  3  0  0  0  0  0  0
  161.6480  207.9040  151.7360 C   0  0  1  0  0  3  0  0  0  0  0  0
  161.1860  206.9830  152.8770 C   0  0  0  0  0  2  0  0  0  0  0  0
  160.8260  205.8970  150.7830 C   0  0  0  0  0  0  0  0  0  0  0  0
  161.6560  207.5160  149.1880 C   0  0  0  0  0  0  0  0  0  0  0  0
  161.3240  206.6210  148.1340 C   0  0  0  0  0  0  0  0  0  0  0  0
  161.3840  207.1180  150.5040 C   0  0  0  0  0  0  0  0  0  0  0  0
  160.7370  205.3760  148.4430 C   0  0  0  0  0  3  0  0  0  0  0  0
  160.4840  205.0080  149.7680 C   0  0  0  0  0  3  0  0  0  0  0  0
  162.3450  204.2010  151.7670 N   0  0  0  0  0  1  0  0  0  0  0  0
  160.4780  203.4310  152.6850 O   0  0  0  0  0  1  0  0  0  0  0  0
  161.3340  204.4830  152.6960 N   0  0  0  0  0  0  0  0  0  0  0  0
  161.1440  210.2430  152.5520 C   0  0  0  0  0  0  0  0  0  0  0  0
  162.1480  210.2250  153.3140 O   0  0  0  0  0  0  0  0  0  0  0  0
  160.8420  209.1160  151.7270 N   0  0  0  0  0  2  0  0  0  0  0  0
  160.2840  211.4700  152.4570 C   0  0  1  0  0  3  0  0  0  0  0  0
  160.4280  212.1230  151.2250 O   0  0  0  0  0  1  0  0  0  0  0  0
  158.9310  211.2150  152.7690 O   0  0  0  0  0  0  0  0  0  0  0  0
  159.3210  212.3800  154.8120 C   0  0  0  0  0  1  0  0  0  0  0  0
  158.7960  211.1170  154.1640 C   0  0  0  0  0  2  0  0  0  0  0  0
  161.5700  206.9550  146.7240 C   0  0  0  0  0  3  0  0  0  0  0  0
  161.3300  206.1330  145.8010 O   0  0  0  0  0  0  0  0  0  0  0  0
  162.2400  208.7770  148.9860 O   0  0  0  0  0  0  0  0  0  0  0  0
  161.5860  209.8080  148.4360 O   0  0  0  0  0  0  0  0  0  0  0  0
  162.3680  210.9210  148.7450 C   0  0  0  0  0  1  0  0  0  0  0  0
  1 12  1  1  0  0  0
  1  3  1  0  0  0  0
  2 15  1  6  0  0  0
  2  3  1  0  0  0  0
  4  1  1  0  0  0  0
  5  7  2  0  0  0  0
  6  8  2  0  0  0  0
  6  5  1  0  0  0  0
  7  4  1  0  0  0  0
  7  2  1  0  0  0  0
  8  9  1  0  0  0  0
  9  4  2  0  0  0  0
 10 12  1  0  0  0  0
 11 12  1  0  0  0  0
 13 14  2  0  0  0  0
 15 13  1  0  0  0  0
 16 17  1  6  0  0  0
 16 13  1  0  0  0  0
 16 18  1  0  0  0  0
 18 20  1  0  0  0  0
 20 19  1  0  0  0  0
 21  6  1  0  0  0  0
 22 21  2  0  0  0  0
 23  5  1  0  0  0  0
 24 25  1  0  0  0  0
 24 23  1  0  0  0  0
M  END
>  <MODEL>
8

>  <REMARK>
 VINA RESULT:      -5.0      2.286      3.278
  Name = 
  8 active torsions:
  status: ('A' for Active; 'I' for Inactive)
    1  A    between atoms: C_1  and  C_7
    2  A    between atoms: C_1  and  O_8
    3  A    between atoms: C_2  and  N_12
    4  A    between atoms: C_4  and  N_24
    5  A    between atoms: O_8  and  C_19
    6  A    between atoms: O_11  and  O_17
    7  A    between atoms: C_13  and  O_17
    8  A    between atoms: C_15  and  C_18
                            x       y       z     vdW  Elec       q    Type
                         _______ _______ _______ _____ _____    ______ ____

>  <TORSDO>
F 8

$$$$
=
 OpenBabel11042420133D

 25 26  0  0  1  0  0  0  0  0999 V2000
  161.2310  207.3730  149.5800 C   0  0  1  0  0  3  0  0  0  0  0  0
  162.1280  206.0180  147.6980 C   0  0  1  0  0  3  0  0  0  0  0  0
  161.9980  207.4490  148.2420 C   0  0  0  0  0  2  0  0  0  0  0  0
  160.9820  205.9230  149.7690 C   0  0  0  0  0  0  0  0  0  0  0  0
  161.3520  203.7780  148.7110 C   0  0  0  0  0  0  0  0  0  0  0  0
  160.6840  203.1480  149.7970 C   0  0  0  0  0  0  0  0  0  0  0  0
  161.4760  205.1740  148.7310 C   0  0  0  0  0  0  0  0  0  0  0  0
  160.1720  203.9380  150.8470 C   0  0  0  0  0  3  0  0  0  0  0  0
  160.3180  205.3290  150.8380 C   0  0  0  0  0  3  0  0  0  0  0  0
  161.1110  208.0640  151.7880 N   0  0  0  0  0  1  0  0  0  0  0  0
  162.4270  209.1730  150.3890 O   0  0  0  0  0  1  0  0  0  0  0  0
  161.9920  207.9280  150.7070 N   0  0  0  0  0  0  0  0  0  0  0  0
  162.0100  205.4020  145.2490 C   0  0  0  0  0  0  0  0  0  0  0  0
  163.2110  205.0210  145.2570 O   0  0  0  0  0  0  0  0  0  0  0  0
  161.4020  205.9030  146.4410 N   0  0  0  0  0  2  0  0  0  0  0  0
  161.1830  205.2810  144.0020 C   0  0  1  0  0  3  0  0  0  0  0  0
  159.8270  205.0650  144.2850 O   0  0  0  0  0  1  0  0  0  0  0  0
  161.3750  206.3590  143.1110 O   0  0  0  0  0  0  0  0  0  0  0  0
  161.9390  206.9610  140.8750 C   0  0  0  0  0  1  0  0  0  0  0  0
  161.9590  205.8750  141.9290 C   0  0  0  0  0  2  0  0  0  0  0  0
  160.5060  201.6900  149.8590 C   0  0  0  0  0  3  0  0  0  0  0  0
  161.3330  200.9500  150.4550 O   0  0  0  0  0  0  0  0  0  0  0  0
  161.8940  203.0820  147.6190 O   0  0  0  0  0  0  0  0  0  0  0  0
  161.1750  202.7240  146.5480 O   0  0  0  0  0  0  0  0  0  0  0  0
  161.1130  201.3330  146.6190 C   0  0  0  0  0  1  0  0  0  0  0  0
  1  4  1  0  0  0  0
  1 12  1  1  0  0  0
  2 15  1  6  0  0  0
  2  3  1  0  0  0  0
  2  7  1  0  0  0  0
  3  1  1  0  0  0  0
  4  9  1  0  0  0  0
  5  7  1  0  0  0  0
  5  6  2  0  0  0  0
  6 21  1  0  0  0  0
  6  8  1  0  0  0  0
  7  4  2  0  0  0  0
  9  8  2  0  0  0  0
 11 12  1  0  0  0  0
 12 10  1  0  0  0  0
 13 14  2  0  0  0  0
 13 15  1  0  0  0  0
 16 17  1  1  0  0  0
 16 13  1  0  0  0  0
 18 16  1  0  0  0  0
 19 20  1  0  0  0  0
 20 18  1  0  0  0  0
 21 22  2  0  0  0  0
 23  5  1  0  0  0  0
 24 25  1  0  0  0  0
 24 23  1  0  0  0  0
M  END
>  <MODEL>
9

>  <REMARK>
 VINA RESULT:      -5.0      3.750      8.218
  Name = 
  8 active torsions:
  status: ('A' for Active; 'I' for Inactive)
    1  A    between atoms: C_1  and  C_7
    2  A    between atoms: C_1  and  O_8
    3  A    between atoms: C_2  and  N_12
    4  A    between atoms: C_4  and  N_24
    5  A    between atoms: O_8  and  C_19
    6  A    between atoms: O_11  and  O_17
    7  A    between atoms: C_13  and  O_17
    8  A    between atoms: C_15  and  C_18
                            x       y       z     vdW  Elec       q    Type
                         _______ _______ _______ _____ _____    ______ ____

>  <TORSDO>
F 8

$$$$
