=
 OpenBabel11042423143D

 35 43  0  0  1  0  0  0  0  0999 V2000
  161.0850  209.1770  151.6500 C   0  0  0  0  0  0  0  0  0  0  0  0
  162.4080  209.7170  151.9840 C   0  0  0  0  0  0  0  0  0  0  0  0
  159.9740  209.2370  152.4250 C   0  0  0  0  0  3  0  0  0  0  0  0
  162.5870  211.1310  149.2490 C   0  0  2  0  0  3  0  0  0  0  0  0
  162.4370  208.8320  148.3770 O   0  0  0  0  0  0  0  0  0  0  0  0
  162.1670  209.0600  150.7740 C   0  0  2  0  0  0  0  0  0  0  0  0
  160.2640  209.9240  153.6620 C   0  0  0  0  0  0  0  0  0  0  0  0
  161.5990  210.4680  153.9880 C   0  0  0  0  0  0  0  0  0  0  0  0
  162.0860  209.7140  149.4230 C   0  0  1  0  0  0  0  0  0  0  0  0
  161.5410  212.0960  149.7750 C   0  0  0  0  0  2  0  0  0  0  0  0
  162.6450  207.7220  150.4800 C   0  0  0  0  0  0  0  0  0  0  0  0
  161.1050  210.8160  149.0890 C   0  0  1  0  0  3  0  0  0  0  0  0
  162.7840  207.5890  148.9940 C   0  0  1  0  0  3  0  0  0  0  0  0
  162.7460  210.3680  153.1240 C   0  0  0  0  0  3  0  0  0  0  0  0
  162.9270  206.8610  151.2980 O   0  0  0  0  0  0  0  0  0  0  0  0
  161.3990  205.5420  146.2470 C   0  0  2  0  0  3  0  0  0  0  0  0
  162.1550  204.3770  146.9070 C   0  0  1  0  0  3  0  0  0  0  0  0
  162.5460  205.8310  147.2100 C   0  0  2  0  0  3  0  0  0  0  0  0
  161.9190  206.4470  148.4570 C   0  0  2  0  0  3  0  0  0  0  0  0
  160.5270  206.9070  148.0690 C   0  0  0  0  0  2  0  0  0  0  0  0
  160.1160  205.9910  146.9430 C   0  0  0  0  0  2  0  0  0  0  0  0
  160.2410  202.1630  150.0760 C   0  0  0  0  0  3  0  0  0  0  0  0
  160.8220  202.3970  147.7380 C   0  0  0  0  0  3  0  0  0  0  0  0
  161.4780  204.1040  149.3260 C   0  0  0  0  0  3  0  0  0  0  0  0
  161.4300  203.6320  148.0050 C   0  0  0  0  0  0  0  0  0  0  0  0
  160.8740  203.3770  150.3560 C   0  0  0  0  0  3  0  0  0  0  0  0
  160.2190  201.6710  148.7680 C   0  0  0  0  0  3  0  0  0  0  0  0
  158.2340  211.1410  154.6080 C   0  0  0  0  0  0  0  0  0  0  0  0
  157.2160  211.4700  155.4200 N   0  0  0  0  0  0  0  0  0  0  0  0
  156.8640  212.5820  154.5690 C   0  0  0  0  0  2  0  0  0  0  0  0
  159.2150  210.1000  154.6260 N   0  0  0  0  0  2  0  0  0  0  0  0
  157.9110  212.2850  153.6890 C   0  0  0  0  0  2  0  0  0  0  0  0
  161.8060  211.1480  155.3000 C   0  0  0  0  0  2  0  0  0  0  0  0
  162.6670  210.3510  156.1300 N   0  0  0  0  0  0  0  0  0  0  0  0
  162.2120  209.3580  156.7240 N   0  0  0  0  0  2  0  0  0  0  0  0
  1  2  2  0  0  0  0
  1  3  1  0  0  0  0
  2 14  1  0  0  0  0
  3  7  2  0  0  0  0
  4  9  1  0  0  0  0
  4 10  1  1  0  0  0
  5  9  1  0  0  0  0
  6 11  1  6  0  0  0
  6  1  1  0  0  0  0
  6  2  1  0  0  0  0
  7  8  1  0  0  0  0
  7 31  1  0  0  0  0
  8 33  1  0  0  0  0
  9  6  1  0  0  0  0
 11 15  2  0  0  0  0
 12  4  1  0  0  0  0
 12  9  1  0  0  0  0
 12 10  1  1  0  0  0
 13  5  1  6  0  0  0
 13 11  1  0  0  0  0
 14  8  2  0  0  0  0
 16 17  1  0  0  0  0
 16 21  1  1  0  0  0
 16 18  1  0  0  0  0
 17 18  1  0  0  0  0
 17 25  1  1  0  0  0
 18 19  1  0  0  0  0
 19 13  1  0  0  0  0
 20 19  1  0  0  0  0
 21 20  1  0  0  0  0
 22 26  1  0  0  0  0
 23 25  2  0  0  0  0
 23 27  1  0  0  0  0
 24 26  2  0  0  0  0
 25 24  1  0  0  0  0
 27 22  2  0  0  0  0
 28 31  1  0  0  0  0
 28 29  2  0  0  0  0
 30 29  1  0  0  0  0
 32 30  1  0  0  0  0
 32 28  1  0  0  0  0
 33 34  1  0  0  0  0
 34 35  2  0  0  0  0
M  END
>  <MODEL>
1

>  <REMARK>
 VINA RESULT:      -6.9      0.000      0.000
  Name = 
  5 active torsions:
  status: ('A' for Active; 'I' for Inactive)
    1  A    between atoms: C_11  and  C_25
    2  A    between atoms: C_13  and  N_31
    3  A    between atoms: C_15  and  C_27
    4  A    between atoms: C_16  and  C_17
    5  A    between atoms: C_17  and  N_28
                            x       y       z     vdW  Elec       q    Type
                         _______ _______ _______ _____ _____    ______ ____

>  <TORSDO>
F 5

$$$$
=
 OpenBabel11042423143D

 35 43  0  0  1  0  0  0  0  0999 V2000
  160.6000  209.4140  152.4180 C   0  0  0  0  0  0  0  0  0  0  0  0
  161.8860  209.9290  152.9010 C   0  0  0  0  0  0  0  0  0  0  0  0
  159.4080  209.5000  153.0590 C   0  0  0  0  0  3  0  0  0  0  0  0
  162.4080  211.3240  150.2010 C   0  0  2  0  0  3  0  0  0  0  0  0
  162.3130  209.0240  149.3240 O   0  0  0  0  0  0  0  0  0  0  0  0
  161.7730  209.2700  151.6730 C   0  0  2  0  0  0  0  0  0  0  0  0
  159.5670  210.1870  154.3200 C   0  0  0  0  0  0  0  0  0  0  0  0
  160.8660  210.7070  154.7950 C   0  0  0  0  0  0  0  0  0  0  0  0
  161.8620  209.9180  150.3200 C   0  0  1  0  0  0  0  0  0  0  0  0
  161.3280  212.3130  150.5990 C   0  0  0  0  0  2  0  0  0  0  0  0
  162.2550  207.9220  151.4410 C   0  0  0  0  0  0  0  0  0  0  0  0
  160.9480  211.0370  149.8710 C   0  0  1  0  0  3  0  0  0  0  0  0
  162.5620  207.7770  149.9810 C   0  0  1  0  0  3  0  0  0  0  0  0
  162.1040  210.5800  154.0700 C   0  0  0  0  0  3  0  0  0  0  0  0
  162.4230  207.0590  152.2890 O   0  0  0  0  0  0  0  0  0  0  0  0
  161.2220  205.9320  147.0730 C   0  0  2  0  0  3  0  0  0  0  0  0
  162.0450  204.7490  147.6090 C   0  0  1  0  0  3  0  0  0  0  0  0
  162.3730  206.1860  148.0420 C   0  0  2  0  0  3  0  0  0  0  0  0
  161.7410  206.6500  149.3510 C   0  0  2  0  0  3  0  0  0  0  0  0
  160.3230  207.0750  149.0290 C   0  0  0  0  0  2  0  0  0  0  0  0
  159.9330  206.2500  147.8280 C   0  0  0  0  0  2  0  0  0  0  0  0
  160.2990  202.1500  150.5770 C   0  0  0  0  0  3  0  0  0  0  0  0
  160.7810  202.6600  148.2590 C   0  0  0  0  0  3  0  0  0  0  0  0
  161.4720  204.1900  150.0050 C   0  0  0  0  0  3  0  0  0  0  0  0
  161.3790  203.8690  148.6420 C   0  0  0  0  0  0  0  0  0  0  0  0
  160.9230  203.3380  150.9690 C   0  0  0  0  0  3  0  0  0  0  0  0
  160.2320  201.8090  149.2230 C   0  0  0  0  0  3  0  0  0  0  0  0
  157.4320  211.4120  154.9830 C   0  0  0  0  0  0  0  0  0  0  0  0
  156.3290  211.7600  155.6630 N   0  0  0  0  0  0  0  0  0  0  0  0
  156.0580  212.8270  154.7290 C   0  0  0  0  0  2  0  0  0  0  0  0
  158.4180  210.3900  155.1550 N   0  0  0  0  0  2  0  0  0  0  0  0
  157.1980  212.5080  153.9810 C   0  0  0  0  0  2  0  0  0  0  0  0
  160.9340  211.3910  156.1200 C   0  0  0  0  0  2  0  0  0  0  0  0
  160.5590  212.7710  155.9750 N   0  0  0  0  0  0  0  0  0  0  0  0
  159.7980  213.2980  156.8050 N   0  0  0  0  0  2  0  0  0  0  0  0
  1  2  2  0  0  0  0
  1  3  1  0  0  0  0
  2 14  1  0  0  0  0
  3  7  2  0  0  0  0
  4  9  1  0  0  0  0
  4 10  1  1  0  0  0
  5  9  1  0  0  0  0
  6 11  1  1  0  0  0
  6  1  1  0  0  0  0
  6  2  1  0  0  0  0
  7  8  1  0  0  0  0
  7 31  1  0  0  0  0
  8 33  1  0  0  0  0
  9  6  1  0  0  0  0
 11 15  2  0  0  0  0
 12  4  1  0  0  0  0
 12  9  1  0  0  0  0
 12 10  1  1  0  0  0
 13  5  1  6  0  0  0
 13 11  1  0  0  0  0
 14  8  2  0  0  0  0
 16 17  1  0  0  0  0
 16 21  1  1  0  0  0
 16 18  1  0  0  0  0
 17 18  1  0  0  0  0
 17 25  1  1  0  0  0
 18 19  1  0  0  0  0
 19 13  1  0  0  0  0
 20 19  1  0  0  0  0
 21 20  1  0  0  0  0
 22 26  1  0  0  0  0
 23 25  2  0  0  0  0
 23 27  1  0  0  0  0
 24 26  2  0  0  0  0
 25 24  1  0  0  0  0
 27 22  2  0  0  0  0
 28 31  1  0  0  0  0
 28 29  2  0  0  0  0
 30 29  1  0  0  0  0
 32 30  1  0  0  0  0
 32 28  1  0  0  0  0
 34 33  1  0  0  0  0
 34 35  2  0  0  0  0
M  END
>  <MODEL>
2

>  <REMARK>
 VINA RESULT:      -4.7      1.182      1.306
  Name = 
  5 active torsions:
  status: ('A' for Active; 'I' for Inactive)
    1  A    between atoms: C_11  and  C_25
    2  A    between atoms: C_13  and  N_31
    3  A    between atoms: C_15  and  C_27
    4  A    between atoms: C_16  and  C_17
    5  A    between atoms: C_17  and  N_28
                            x       y       z     vdW  Elec       q    Type
                         _______ _______ _______ _____ _____    ______ ____

>  <TORSDO>
F 5

$$$$
