=
 OpenBabel11052410453D

 35 42  0  0  1  0  0  0  0  0999 V2000
  160.2560  211.2380  151.2200 O   0  0  0  0  0  0  0  0  0  0  0  0
  161.8440  205.0650  152.2500 C   0  0  0  0  0  2  0  0  0  0  0  0
  160.5630  208.5870  154.4000 C   0  0  0  0  0  0  0  0  0  0  0  0
  160.9210  208.0790  152.3660 C   0  0  0  0  0  0  0  0  0  0  0  0
  161.1920  206.7140  148.0070 C   0  0  0  0  0  2  0  0  0  0  0  0
  160.1910  205.9160  148.8490 C   0  0  0  0  0  2  0  0  0  0  0  0
  161.4750  202.9890  150.9560 C   0  0  0  0  0  2  0  0  0  0  0  0
  161.3140  207.3260  151.1390 C   0  0  0  0  0  0  0  0  0  0  0  0
  161.3860  210.4420  151.3840 C   0  0  2  0  0  0  0  0  0  0  0  0
  160.8150  210.6850  150.0980 C   0  0  1  0  0  0  0  0  0  0  0  0
  160.9310  209.4750  152.4780 C   0  0  0  0  0  0  0  0  0  0  0  0
  160.8490  203.7790  149.9480 O   0  0  0  0  0  0  0  0  0  0  0  0
  161.2790  205.8400  151.0870 C   0  0  0  0  0  0  0  0  0  0  0  0
  160.6840  207.5280  153.5710 N   0  0  0  0  0  0  0  0  0  0  0  0
  161.2830  203.6470  152.3150 C   0  0  0  0  0  2  0  0  0  0  0  0
  162.2500  207.4720  148.8180 C   0  0  0  0  0  2  0  0  0  0  0  0
  161.6370  209.4660  150.2680 N   0  0  0  0  0  0  0  0  0  0  0  0
  161.7120  208.0630  150.0850 C   0  0  0  0  0  0  0  0  0  0  0  0
  160.7000  209.7840  153.7740 N   0  0  0  0  0  0  0  0  0  0  0  0
  160.8200  205.1810  149.9970 C   0  0  0  0  0  0  0  0  0  0  0  0
  161.5780  211.7170  149.3080 C   0  0  0  0  0  0  0  0  0  0  0  0
  162.7060  211.2940  148.5940 C   0  0  0  0  0  3  0  0  0  0  0  0
  163.4510  212.2060  147.8410 C   0  0  0  0  0  3  0  0  0  0  0  0
  163.0740  213.5490  147.7930 C   0  0  0  0  0  0  0  0  0  0  0  0
  161.9440  213.9810  148.4920 C   0  0  0  0  0  3  0  0  0  0  0  0
  161.1990  213.0720  149.2480 C   0  0  0  0  0  3  0  0  0  0  0  0
  163.8150  214.4530  147.0440 O   0  0  0  0  0  1  0  0  0  0  0  0
  160.9270  211.0730  154.4410 C   0  0  2  0  0  3  0  0  0  0  0  0
  158.5220  210.8590  154.8250 O   0  0  0  0  0  1  0  0  0  0  0  0
  159.6520  211.6360  155.0890 C   0  0  2  0  0  3  0  0  0  0  0  0
  160.1550  212.2050  153.7860 C   0  0  0  0  0  2  0  0  0  0  0  0
  160.4500  208.4260  155.8790 C   0  0  0  0  0  2  0  0  0  0  0  0
  161.8170  208.1560  156.4870 C   0  0  0  0  0  2  0  0  0  0  0  0
  162.2860  209.3440  157.2590 C   0  0  0  0  0  3  0  0  0  0  0  0
  163.0830  210.1940  156.7260 N   0  0  0  0  0  2  0  0  0  0  0  0
  2 15  1  0  0  0  0
  3 32  1  0  0  0  0
  4 11  2  0  0  0  0
  4 14  1  0  0  0  0
  5 16  1  0  0  0  0
  5  6  1  0  0  0  0
  6 20  1  0  0  0  0
  7 15  1  0  0  0  0
  8  4  1  0  0  0  0
  9  1  1  1  0  0  0
  9 11  1  0  0  0  0
 10 21  1  6  0  0  0
 10 17  1  0  0  0  0
 10  1  1  0  0  0  0
 10  9  1  0  0  0  0
 11 19  1  0  0  0  0
 12 20  1  0  0  0  0
 12  7  1  0  0  0  0
 13  8  1  0  0  0  0
 13  2  1  0  0  0  0
 14  3  2  0  0  0  0
 16 18  1  0  0  0  0
 17  9  1  0  0  0  0
 18 17  1  0  0  0  0
 18  8  2  0  0  0  0
 19  3  1  0  0  0  0
 20 13  2  0  0  0  0
 22 21  2  0  0  0  0
 23 22  1  0  0  0  0
 24 23  2  0  0  0  0
 24 25  1  0  0  0  0
 25 26  2  0  0  0  0
 26 21  1  0  0  0  0
 27 24  1  0  0  0  0
 28 19  1  6  0  0  0
 28 30  1  0  0  0  0
 30 29  1  6  0  0  0
 31 28  1  0  0  0  0
 31 30  1  0  0  0  0
 32 33  1  0  0  0  0
 33 34  1  0  0  0  0
 35 34  2  0  0  0  0
M  END
>  <MODEL>
1

>  <REMARK>
 VINA RESULT:      -5.9      0.000      0.000
  Name = 
  5 active torsions:
  status: ('A' for Active; 'I' for Inactive)
    1  A    between atoms: C_3  and  C_16
    2  A    between atoms: C_4  and  C_32
    3  A    between atoms: C_5  and  N_29
    4  A    between atoms: C_23  and  C_34
    5  A    between atoms: C_32  and  C_34
                            x       y       z     vdW  Elec       q    Type
                         _______ _______ _______ _____ _____    ______ ____

>  <TORSDO>
F 5

$$$$
=
 OpenBabel11052410453D

 35 42  0  0  1  0  0  0  0  0999 V2000
  162.0020  206.8800  153.3230 O   0  0  0  0  0  0  0  0  0  0  0  0
  160.2110  212.5140  150.7250 C   0  0  0  0  0  2  0  0  0  0  0  0
  160.4610  210.5330  154.5560 C   0  0  0  0  0  0  0  0  0  0  0  0
  160.9680  210.0540  152.5480 C   0  0  0  0  0  0  0  0  0  0  0  0
  162.5120  209.3590  148.2960 C   0  0  0  0  0  2  0  0  0  0  0  0
  163.0940  210.6030  148.9750 C   0  0  0  0  0  2  0  0  0  0  0  0
  161.1010  213.8700  148.8570 C   0  0  0  0  0  2  0  0  0  0  0  0
  161.1180  210.1280  151.0640 C   0  0  0  0  0  0  0  0  0  0  0  0
  160.9130  207.4560  152.6740 C   0  0  2  0  0  0  0  0  0  0  0  0
  161.9550  206.7940  151.9570 C   0  0  1  0  0  0  0  0  0  0  0  0
  160.8960  208.8610  153.2780 C   0  0  0  0  0  0  0  0  0  0  0  0
  162.0730  212.8500  148.6360 O   0  0  0  0  0  0  0  0  0  0  0  0
  161.1910  211.4310  150.3500 C   0  0  0  0  0  0  0  0  0  0  0  0
  160.7020  211.0980  153.3530 N   0  0  0  0  0  0  0  0  0  0  0  0
  160.7150  213.8990  150.3290 C   0  0  0  0  0  2  0  0  0  0  0  0
  161.2060  208.8440  148.9140 C   0  0  0  0  0  2  0  0  0  0  0  0
  161.1500  207.8020  151.2300 N   0  0  0  0  0  0  0  0  0  0  0  0
  161.1750  208.9550  150.4080 C   0  0  0  0  0  0  0  0  0  0  0  0
  160.5760  209.1800  154.5520 N   0  0  0  0  0  0  0  0  0  0  0  0
  162.0610  211.6330  149.3330 C   0  0  0  0  0  0  0  0  0  0  0  0
  161.5660  205.4070  151.5140 C   0  0  0  0  0  0  0  0  0  0  0  0
  161.2060  205.2220  150.1740 C   0  0  0  0  0  3  0  0  0  0  0  0
  160.8390  203.9570  149.7060 C   0  0  0  0  0  3  0  0  0  0  0  0
  160.8310  202.8640  150.5750 C   0  0  0  0  0  0  0  0  0  0  0  0
  161.1990  203.0330  151.9120 C   0  0  0  0  0  3  0  0  0  0  0  0
  161.5640  204.2980  152.3820 C   0  0  0  0  0  3  0  0  0  0  0  0
  160.4670  201.6080  150.1080 O   0  0  0  0  0  1  0  0  0  0  0  0
  160.0810  208.2800  155.6030 C   0  0  2  0  0  3  0  0  0  0  0  0
  162.3000  208.7510  156.5140 O   0  0  0  0  0  1  0  0  0  0  0  0
  161.0860  208.1030  156.7520 C   0  0  2  0  0  3  0  0  0  0  0  0
  160.9140  207.0160  155.7210 C   0  0  0  0  0  2  0  0  0  0  0  0
  159.9650  211.3260  155.7190 C   0  0  0  0  0  2  0  0  0  0  0  0
  158.6790  212.0490  155.3540 C   0  0  0  0  0  2  0  0  0  0  0  0
  157.5240  211.1040  155.3860 C   0  0  0  0  0  3  0  0  0  0  0  0
  156.5000  211.3020  154.6410 N   0  0  0  0  0  2  0  0  0  0  0  0
  3 32  1  0  0  0  0
  4 11  2  0  0  0  0
  4 14  1  0  0  0  0
  5 16  1  0  0  0  0
  5  6  1  0  0  0  0
  6 20  1  0  0  0  0
  7 15  1  0  0  0  0
  8  4  1  0  0  0  0
  9 11  1  6  0  0  0
  9  1  1  0  0  0  0
 10 21  1  6  0  0  0
 10  9  1  0  0  0  0
 10  1  1  0  0  0  0
 11 19  1  0  0  0  0
 12  7  1  0  0  0  0
 12 20  1  0  0  0  0
 13  2  1  0  0  0  0
 13  8  1  0  0  0  0
 14  3  2  0  0  0  0
 15  2  1  0  0  0  0
 16 18  1  0  0  0  0
 17 10  1  0  0  0  0
 17  9  1  0  0  0  0
 18  8  2  0  0  0  0
 18 17  1  0  0  0  0
 19  3  1  0  0  0  0
 20 13  2  0  0  0  0
 21 26  1  0  0  0  0
 22 21  2  0  0  0  0
 23 22  1  0  0  0  0
 23 24  2  0  0  0  0
 24 25  1  0  0  0  0
 25 26  2  0  0  0  0
 27 24  1  0  0  0  0
 28 19  1  6  0  0  0
 28 31  1  0  0  0  0
 28 30  1  0  0  0  0
 30 29  1  6  0  0  0
 31 30  1  0  0  0  0
 33 34  1  0  0  0  0
 33 32  1  0  0  0  0
 35 34  2  0  0  0  0
M  END
>  <MODEL>
2

>  <REMARK>
 VINA RESULT:      -5.1      1.832      6.498
  Name = 
  5 active torsions:
  status: ('A' for Active; 'I' for Inactive)
    1  A    between atoms: C_3  and  C_16
    2  A    between atoms: C_4  and  C_32
    3  A    between atoms: C_5  and  N_29
    4  A    between atoms: C_23  and  C_34
    5  A    between atoms: C_32  and  C_34
                            x       y       z     vdW  Elec       q    Type
                         _______ _______ _______ _____ _____    ______ ____

>  <TORSDO>
F 5

$$$$
=
 OpenBabel11052410453D

 35 42  0  0  1  0  0  0  0  0999 V2000
  161.9150  206.6900  153.2860 O   0  0  0  0  0  0  0  0  0  0  0  0
  160.1610  212.3760  150.7800 C   0  0  0  0  0  2  0  0  0  0  0  0
  160.3330  210.3070  154.5690 C   0  0  0  0  0  0  0  0  0  0  0  0
  160.8870  209.8770  152.5610 C   0  0  0  0  0  0  0  0  0  0  0  0
  162.5290  209.2870  148.3310 C   0  0  0  0  0  2  0  0  0  0  0  0
  163.0910  210.5170  149.0520 C   0  0  0  0  0  2  0  0  0  0  0  0
  161.0880  213.7780  148.9650 C   0  0  0  0  0  2  0  0  0  0  0  0
  161.0700  209.9860  151.0840 C   0  0  0  0  0  0  0  0  0  0  0  0
  160.8400  207.2770  152.6250 C   0  0  2  0  0  0  0  0  0  0  0  0
  161.9000  206.6350  151.9170 C   0  0  1  0  0  0  0  0  0  0  0  0
  160.8030  208.6670  153.2620 C   0  0  0  0  0  0  0  0  0  0  0  0
  162.0690  212.7670  148.7420 O   0  0  0  0  0  0  0  0  0  0  0  0
  161.1540  211.3060  150.4020 C   0  0  0  0  0  0  0  0  0  0  0  0
  160.5980  210.9010  153.3850 N   0  0  0  0  0  0  0  0  0  0  0  0
  160.6690  213.7720  150.4270 C   0  0  0  0  0  2  0  0  0  0  0  0
  161.2120  208.7540  148.9070 C   0  0  0  0  0  2  0  0  0  0  0  0
  161.1080  207.6570  151.1960 N   0  0  0  0  0  0  0  0  0  0  0  0
  161.1460  208.8290  150.4010 C   0  0  0  0  0  0  0  0  0  0  0  0
  160.4530  208.9550  154.5360 N   0  0  0  0  0  0  0  0  0  0  0  0
  162.0460  211.5340  149.4100 C   0  0  0  0  0  0  0  0  0  0  0  0
  161.5260  205.2570  151.4340 C   0  0  0  0  0  0  0  0  0  0  0  0
  161.5120  204.2150  152.3690 C   0  0  0  0  0  3  0  0  0  0  0  0
  161.1710  202.9170  151.9790 C   0  0  0  0  0  3  0  0  0  0  0  0
  160.8380  202.6490  150.6490 C   0  0  0  0  0  0  0  0  0  0  0  0
  160.8380  203.6830  149.7090 C   0  0  0  0  0  3  0  0  0  0  0  0
  161.1810  204.9810  150.0970 C   0  0  0  0  0  3  0  0  0  0  0  0
  160.4980  201.3600  150.2640 O   0  0  0  0  0  1  0  0  0  0  0  0
  159.9370  208.0290  155.5540 C   0  0  2  0  0  3  0  0  0  0  0  0
  162.2200  208.2900  156.3900 O   0  0  0  0  0  1  0  0  0  0  0  0
  160.9740  207.7140  156.6440 C   0  0  2  0  0  3  0  0  0  0  0  0
  160.6830  206.7060  155.5610 C   0  0  0  0  0  2  0  0  0  0  0  0
  159.8070  211.0710  155.7380 C   0  0  0  0  0  2  0  0  0  0  0  0
  160.8710  212.0150  156.2730 C   0  0  0  0  0  2  0  0  0  0  0  0
  161.7420  211.3110  157.2600 C   0  0  0  0  0  3  0  0  0  0  0  0
  163.0180  211.3930  157.1780 N   0  0  0  0  0  2  0  0  0  0  0  0
  3 32  1  0  0  0  0
  4 11  2  0  0  0  0
  4 14  1  0  0  0  0
  5 16  1  0  0  0  0
  5  6  1  0  0  0  0
  6 20  1  0  0  0  0
  7 15  1  0  0  0  0
  8  4  1  0  0  0  0
  9 11  1  6  0  0  0
  9  1  1  0  0  0  0
 10 21  1  6  0  0  0
 10  9  1  0  0  0  0
 10  1  1  0  0  0  0
 11 19  1  0  0  0  0
 12  7  1  0  0  0  0
 12 20  1  0  0  0  0
 13  2  1  0  0  0  0
 13  8  1  0  0  0  0
 14  3  2  0  0  0  0
 15  2  1  0  0  0  0
 16 18  1  0  0  0  0
 17 10  1  0  0  0  0
 17  9  1  0  0  0  0
 18  8  2  0  0  0  0
 18 17  1  0  0  0  0
 19  3  1  0  0  0  0
 20 13  2  0  0  0  0
 21 22  1  0  0  0  0
 23 22  2  0  0  0  0
 24 23  1  0  0  0  0
 25 26  1  0  0  0  0
 25 24  2  0  0  0  0
 26 21  2  0  0  0  0
 27 24  1  0  0  0  0
 28 19  1  6  0  0  0
 28 31  1  0  0  0  0
 28 30  1  0  0  0  0
 30 29  1  6  0  0  0
 31 30  1  0  0  0  0
 32 33  1  0  0  0  0
 33 34  1  0  0  0  0
 35 34  2  0  0  0  0
M  END
>  <MODEL>
3

>  <REMARK>
 VINA RESULT:      -4.5      1.726      6.353
  Name = 
  5 active torsions:
  status: ('A' for Active; 'I' for Inactive)
    1  A    between atoms: C_3  and  C_16
    2  A    between atoms: C_4  and  C_32
    3  A    between atoms: C_5  and  N_29
    4  A    between atoms: C_23  and  C_34
    5  A    between atoms: C_32  and  C_34
                            x       y       z     vdW  Elec       q    Type
                         _______ _______ _______ _____ _____    ______ ____

>  <TORSDO>
F 5

$$$$
=
 OpenBabel11052410453D

 35 42  0  0  1  0  0  0  0  0999 V2000
  158.9120  213.9080  154.1140 O   0  0  0  0  0  0  0  0  0  0  0  0
  160.9290  208.3090  151.6080 C   0  0  0  0  0  2  0  0  0  0  0  0
  160.6360  212.5020  150.6080 C   0  0  0  0  0  0  0  0  0  0  0  0
  160.1910  211.2960  152.3020 C   0  0  0  0  0  0  0  0  0  0  0  0
  159.7940  208.6970  156.0480 C   0  0  0  0  0  2  0  0  0  0  0  0
  161.2050  208.7220  155.4530 C   0  0  0  0  0  2  0  0  0  0  0  0
  162.0380  206.3250  152.5850 C   0  0  0  0  0  2  0  0  0  0  0  0
  160.0010  210.1140  153.1930 C   0  0  0  0  0  0  0  0  0  0  0  0
  158.4040  212.7870  153.4630 C   0  0  2  0  0  0  0  0  0  0  0  0
  158.5030  212.8530  154.8860 C   0  0  1  0  0  0  0  0  0  0  0  0
  159.4940  212.5040  152.4290 C   0  0  0  0  0  0  0  0  0  0  0  0
  161.9600  206.9620  153.8600 O   0  0  0  0  0  0  0  0  0  0  0  0
  160.7770  208.8590  153.0040 C   0  0  0  0  0  0  0  0  0  0  0  0
  160.9090  211.3020  151.1640 N   0  0  0  0  0  0  0  0  0  0  0  0
  162.1340  207.3790  151.4910 C   0  0  0  0  0  2  0  0  0  0  0  0
  158.6830  209.1180  155.0780 C   0  0  0  0  0  2  0  0  0  0  0  0
  158.4690  211.5130  154.2580 N   0  0  0  0  0  0  0  0  0  0  0  0
  159.0840  210.2400  154.1700 C   0  0  0  0  0  0  0  0  0  0  0  0
  159.7880  213.2620  151.3480 N   0  0  0  0  0  0  0  0  0  0  0  0
  161.2800  208.1730  154.0570 C   0  0  0  0  0  0  0  0  0  0  0  0
  157.1820  213.1470  155.5480 C   0  0  0  0  0  0  0  0  0  0  0  0
  156.3690  214.1370  154.9820 C   0  0  0  0  0  3  0  0  0  0  0  0
  155.1320  214.4500  155.5520 C   0  0  0  0  0  3  0  0  0  0  0  0
  154.6940  213.7740  156.6930 C   0  0  0  0  0  0  0  0  0  0  0  0
  155.4910  212.7770  157.2610 C   0  0  0  0  0  3  0  0  0  0  0  0
  156.7300  212.4640  156.6940 C   0  0  0  0  0  3  0  0  0  0  0  0
  153.4650  214.0860  157.2560 O   0  0  0  0  0  1  0  0  0  0  0  0
  159.0740  214.4530  150.8690 C   0  0  2  0  0  3  0  0  0  0  0  0
  157.4650  212.7410  150.1910 O   0  0  0  0  0  1  0  0  0  0  0  0
  157.7040  214.1150  150.2580 C   0  0  2  0  0  3  0  0  0  0  0  0
  158.8740  214.4410  149.3640 C   0  0  0  0  0  2  0  0  0  0  0  0
  161.1060  212.8660  149.2400 C   0  0  0  0  0  2  0  0  0  0  0  0
  161.9290  211.7350  148.6460 C   0  0  0  0  0  2  0  0  0  0  0  0
  163.1100  212.2800  147.9140 C   0  0  0  0  0  3  0  0  0  0  0  0
  162.9820  213.2800  147.1230 N   0  0  0  0  0  2  0  0  0  0  0  0
  1 10  1  0  0  0  0
  2 13  1  0  0  0  0
  3 14  2  0  0  0  0
  3 19  1  0  0  0  0
  4 11  2  0  0  0  0
  4  8  1  0  0  0  0
  6  5  1  0  0  0  0
  7 12  1  0  0  0  0
  8 18  2  0  0  0  0
  9 11  1  1  0  0  0
  9  1  1  0  0  0  0
  9 17  1  0  0  0  0
  9 10  1  0  0  0  0
 10 21  1  1  0  0  0
 12 20  1  0  0  0  0
 13  8  1  0  0  0  0
 13 20  2  0  0  0  0
 14  4  1  0  0  0  0
 15  2  1  0  0  0  0
 15  7  1  0  0  0  0
 16  5  1  0  0  0  0
 17 10  1  0  0  0  0
 18 17  1  0  0  0  0
 18 16  1  0  0  0  0
 19 11  1  0  0  0  0
 20  6  1  0  0  0  0
 21 26  1  0  0  0  0
 22 21  2  0  0  0  0
 22 23  1  0  0  0  0
 23 24  2  0  0  0  0
 24 27  1  0  0  0  0
 24 25  1  0  0  0  0
 26 25  2  0  0  0  0
 28 31  1  6  0  0  0
 28 19  1  0  0  0  0
 30 29  1  6  0  0  0
 30 28  1  0  0  0  0
 31 30  1  0  0  0  0
 32  3  1  0  0  0  0
 33 32  1  0  0  0  0
 34 33  1  0  0  0  0
 35 34  2  0  0  0  0
M  END
>  <MODEL>
4

>  <REMARK>
 VINA RESULT:      -4.1      3.068      7.184
  Name = 
  5 active torsions:
  status: ('A' for Active; 'I' for Inactive)
    1  A    between atoms: C_3  and  C_16
    2  A    between atoms: C_4  and  C_32
    3  A    between atoms: C_5  and  N_29
    4  A    between atoms: C_23  and  C_34
    5  A    between atoms: C_32  and  C_34
                            x       y       z     vdW  Elec       q    Type
                         _______ _______ _______ _____ _____    ______ ____

>  <TORSDO>
F 5

$$$$
=
 OpenBabel11052410453D

 35 42  0  0  1  0  0  0  0  0999 V2000
  162.2700  207.8930  151.4270 O   0  0  0  0  0  0  0  0  0  0  0  0
  160.3040  202.6180  148.2630 C   0  0  0  0  0  2  0  0  0  0  0  0
  161.4650  206.7150  147.5290 C   0  0  0  0  0  0  0  0  0  0  0  0
  161.3350  205.4400  149.2250 C   0  0  0  0  0  0  0  0  0  0  0  0
  161.5370  202.4580  152.6900 C   0  0  0  0  0  2  0  0  0  0  0  0
  162.3930  202.0670  151.4810 C   0  0  0  0  0  2  0  0  0  0  0  0
  160.7380  200.2030  148.5750 C   0  0  0  0  0  2  0  0  0  0  0  0
  161.0620  204.2590  150.0970 C   0  0  0  0  0  0  0  0  0  0  0  0
  161.0950  207.2160  151.1100 C   0  0  2  0  0  0  0  0  0  0  0  0
  161.8280  206.9360  152.3020 C   0  0  1  0  0  0  0  0  0  0  0  0
  161.3720  206.7660  149.6750 C   0  0  0  0  0  0  0  0  0  0  0  0
  161.5160  200.5350  149.7240 O   0  0  0  0  0  0  0  0  0  0  0  0
  161.0400  202.8750  149.5540 C   0  0  0  0  0  0  0  0  0  0  0  0
  161.4000  205.4130  147.8820 N   0  0  0  0  0  0  0  0  0  0  0  0
  160.7920  201.3470  147.5730 C   0  0  0  0  0  2  0  0  0  0  0  0
  160.4220  203.4660  152.3870 C   0  0  0  0  0  2  0  0  0  0  0  0
  160.9400  205.8770  151.7740 N   0  0  0  0  0  0  0  0  0  0  0  0
  160.8280  204.5150  151.3970 C   0  0  0  0  0  0  0  0  0  0  0  0
  161.4570  207.5650  148.5870 N   0  0  0  0  0  0  0  0  0  0  0  0
  161.5980  201.8410  150.2280 C   0  0  0  0  0  0  0  0  0  0  0  0
  161.2120  207.5630  153.5260 C   0  0  0  0  0  0  0  0  0  0  0  0
  161.1950  208.9610  153.6100 C   0  0  0  0  0  3  0  0  0  0  0  0
  160.6340  209.5980  154.7200 C   0  0  0  0  0  3  0  0  0  0  0  0
  160.0810  208.8440  155.7560 C   0  0  0  0  0  0  0  0  0  0  0  0
  160.0810  207.4480  155.6790 C   0  0  0  0  0  3  0  0  0  0  0  0
  160.6440  206.8090  154.5710 C   0  0  0  0  0  3  0  0  0  0  0  0
  159.5230  209.4790  156.8570 O   0  0  0  0  0  1  0  0  0  0  0  0
  161.2060  209.0110  148.5170 C   0  0  2  0  0  3  0  0  0  0  0  0
  163.6370  209.0280  148.2510 O   0  0  0  0  0  1  0  0  0  0  0  0
  162.4870  209.8210  148.2630 C   0  0  2  0  0  3  0  0  0  0  0  0
  161.8850  209.7690  149.6440 C   0  0  0  0  0  2  0  0  0  0  0  0
  161.3910  207.1540  146.1040 C   0  0  0  0  0  2  0  0  0  0  0  0
  160.4540  206.2500  145.3210 C   0  0  0  0  0  2  0  0  0  0  0  0
  161.2330  205.2380  144.5490 C   0  0  0  0  0  3  0  0  0  0  0  0
  161.2040  204.0010  144.8820 N   0  0  0  0  0  2  0  0  0  0  0  0
  1 10  1  0  0  0  0
  2 13  1  0  0  0  0
  3 14  2  0  0  0  0
  3 19  1  0  0  0  0
  4 11  2  0  0  0  0
  4  8  1  0  0  0  0
  6  5  1  0  0  0  0
  7 12  1  0  0  0  0
  8 18  2  0  0  0  0
  9 11  1  6  0  0  0
  9  1  1  0  0  0  0
  9 17  1  0  0  0  0
  9 10  1  0  0  0  0
 10 21  1  1  0  0  0
 12 20  1  0  0  0  0
 13  8  1  0  0  0  0
 13 20  2  0  0  0  0
 14  4  1  0  0  0  0
 15  2  1  0  0  0  0
 15  7  1  0  0  0  0
 16  5  1  0  0  0  0
 17 10  1  0  0  0  0
 18 17  1  0  0  0  0
 18 16  1  0  0  0  0
 19 11  1  0  0  0  0
 20  6  1  0  0  0  0
 21 22  2  0  0  0  0
 21 26  1  0  0  0  0
 22 23  1  0  0  0  0
 23 24  2  0  0  0  0
 24 27  1  0  0  0  0
 25 24  1  0  0  0  0
 26 25  2  0  0  0  0
 28 19  1  1  0  0  0
 28 31  1  0  0  0  0
 30 29  1  1  0  0  0
 30 28  1  0  0  0  0
 30 31  1  0  0  0  0
 32  3  1  0  0  0  0
 33 32  1  0  0  0  0
 34 35  2  0  0  0  0
 34 33  1  0  0  0  0
M  END
>  <MODEL>
5

>  <REMARK>
 VINA RESULT:      -3.0      2.682      7.083
  Name = 
  5 active torsions:
  status: ('A' for Active; 'I' for Inactive)
    1  A    between atoms: C_3  and  C_16
    2  A    between atoms: C_4  and  C_32
    3  A    between atoms: C_5  and  N_29
    4  A    between atoms: C_23  and  C_34
    5  A    between atoms: C_32  and  C_34
                            x       y       z     vdW  Elec       q    Type
                         _______ _______ _______ _____ _____    ______ ____

>  <TORSDO>
F 5

$$$$
