=
 OpenBabel11042421183D

 39 44  0  0  1  0  0  0  0  0999 V2000
  162.1850  210.4470  150.5140 N   0  0  0  0  0  1  0  0  0  0  0  0
  161.7680  210.7130  149.1480 C   0  0  1  0  0  3  0  0  0  0  0  0
  162.6410  211.8100  148.5480 C   0  0  0  0  0  2  0  0  0  0  0  0
  162.7390  214.0510  147.8430 F   0  0  0  0  0  0  0  0  0  0  0  0
  161.8440  213.0210  148.0590 C   0  0  0  0  0  0  0  0  0  0  0  0
  160.9420  213.4320  149.0270 F   0  0  0  0  0  0  0  0  0  0  0  0
  161.1390  212.7320  146.7320 C   0  0  0  0  0  2  0  0  0  0  0  0
  159.5760  213.3950  144.0470 N   0  0  0  0  0  0  0  0  0  0  0  0
  159.1340  213.0670  142.7890 C   0  0  0  0  0  3  0  0  0  0  0  0
  161.6420  213.5980  145.5820 C   0  0  1  0  0  3  0  0  0  0  0  0
  163.0810  212.8820  144.0150 N   0  0  0  0  0  2  0  0  0  0  0  0
  163.0240  213.3080  145.3190 O   0  0  0  0  0  0  0  0  0  0  0  0
  160.0740  212.6200  141.8400 C   0  0  0  0  0  0  0  0  0  0  0  0
  159.8180  212.2500  140.5040 N   0  0  0  0  0  2  0  0  0  0  0  0
  161.4010  212.5180  142.1570 C   0  0  0  0  0  0  0  0  0  0  0  0
  161.8030  212.8550  143.4410 C   0  0  0  0  0  0  0  0  0  0  0  0
  162.1840  212.0460  140.9920 C   0  0  0  0  0  2  0  0  0  0  0  0
  160.9040  213.2700  144.3420 C   0  0  0  0  0  0  0  0  0  0  0  0
  161.1030  211.8840  139.8970 C   0  0  1  0  0  3  0  0  0  0  0  0
  161.0670  210.4650  139.4320 C   0  0  0  0  0  3  0  0  0  0  0  0
  161.9030  209.5630  139.9410 C   0  0  0  0  0  2  0  0  0  0  0  0
  161.8140  209.4250  148.3260 C   0  0  0  0  0  2  0  0  0  0  0  0
  161.0720  203.6540  150.3980 C   0  0  0  0  0  0  0  0  0  0  0  0
  161.4650  204.1650  145.9000 C   0  0  0  0  0  3  0  0  0  0  0  0
  161.3880  208.2710  149.1080 N   0  0  0  0  0  2  0  0  0  0  0  0
  161.2080  205.2440  152.1970 C   0  0  0  0  0  0  0  0  0  0  0  0
  160.9770  203.9460  151.7560 C   0  0  0  0  0  3  0  0  0  0  0  0
  161.4070  204.3170  148.1180 C   0  0  0  0  0  0  0  0  0  0  0  0
  161.6650  205.9570  149.9480 N   0  0  0  0  0  0  0  0  0  0  0  0
  161.1430  203.0300  147.7480 C   0  0  0  0  0  0  0  0  0  0  0  0
  161.6030  205.0510  146.9670 C   0  0  0  0  0  3  0  0  0  0  0  0
  160.8210  202.3850  149.9570 N   0  0  0  0  0  0  0  0  0  0  0  0
  160.8570  202.0710  148.6590 N   0  0  0  0  0  0  0  0  0  0  0  0
  161.1010  205.5710  153.6430 C   0  0  0  0  0  1  0  0  0  0  0  0
  161.5550  206.2340  151.2780 C   0  0  0  0  0  3  0  0  0  0  0  0
  161.4060  204.6860  149.4780 C   0  0  0  0  0  0  0  0  0  0  0  0
  161.1740  202.8940  146.3830 C   0  0  0  0  0  3  0  0  0  0  0  0
  163.1610  206.9110  148.4290 O   0  0  0  0  0  0  0  0  0  0  0  0
  162.1090  207.0360  149.1130 C   0  0  0  0  0  0  0  0  0  0  0  0
  2  1  1  1  0  0  0
  3  2  1  0  0  0  0
  4  5  1  0  0  0  0
  5  3  1  0  0  0  0
  5  6  1  0  0  0  0
  7  5  1  0  0  0  0
  8 18  1  0  0  0  0
  9  8  2  0  0  0  0
 10  7  1  1  0  0  0
 11 12  1  0  0  0  0
 12 10  1  0  0  0  0
 13 15  2  0  0  0  0
 13  9  1  0  0  0  0
 14 13  1  0  0  0  0
 15 16  1  0  0  0  0
 16 11  1  0  0  0  0
 16 18  2  0  0  0  0
 17 15  1  0  0  0  0
 18 10  1  0  0  0  0
 19 20  1  1  0  0  0
 19 14  1  0  0  0  0
 19 17  1  0  0  0  0
 20 21  2  0  0  0  0
 22 25  1  0  0  0  0
 22  2  1  0  0  0  0
 23 27  2  0  0  0  0
 24 37  1  0  0  0  0
 24 31  2  0  0  0  0
 25 39  1  0  0  0  0
 26 34  1  0  0  0  0
 27 26  1  0  0  0  0
 28 36  2  0  0  0  0
 29 35  1  0  0  0  0
 30 28  1  0  0  0  0
 30 33  1  0  0  0  0
 31 28  1  0  0  0  0
 32 23  1  0  0  0  0
 33 32  2  0  0  0  0
 35 26  2  0  0  0  0
 36 29  1  0  0  0  0
 36 23  1  0  0  0  0
 37 30  2  0  0  0  0
 38 39  2  0  0  0  0
 39 29  1  0  0  0  0
M  END
>  <MODEL>
1

>  <REMARK>
 VINA RESULT:      -9.3      0.000      0.000
  Name = 
  7 active torsions:
  status: ('A' for Active; 'I' for Inactive)
    1  A    between atoms: C_3  and  C_13
    2  A    between atoms: C_3  and  C_17
    3  A    between atoms: C_4  and  C_35
    4  A    between atoms: C_8  and  C_17
    5  A    between atoms: C_8  and  C_23
    6  A    between atoms: N_10  and  C_14
    7  A    between atoms: C_14  and  C_23
                            x       y       z     vdW  Elec       q    Type
                         _______ _______ _______ _____ _____    ______ ____

>  <TORSDO>
F 7

$$$$
=
 OpenBabel11042421183D

 39 44  0  0  1  0  0  0  0  0999 V2000
  163.0030  206.6710  151.3560 N   0  0  0  0  0  1  0  0  0  0  0  0
  161.9440  207.6320  151.0950 C   0  0  1  0  0  3  0  0  0  0  0  0
  161.9440  208.7040  152.1800 C   0  0  0  0  0  2  0  0  0  0  0  0
  160.4140  207.2700  153.2430 F   0  0  0  0  0  0  0  0  0  0  0  0
  160.7490  208.6050  153.1310 C   0  0  0  0  0  0  0  0  0  0  0  0
  159.6570  209.2800  152.6090 F   0  0  0  0  0  0  0  0  0  0  0  0
  161.0990  209.1160  154.5300 C   0  0  0  0  0  2  0  0  0  0  0  0
  159.4370  211.0610  156.4120 N   0  0  0  0  0  0  0  0  0  0  0  0
  158.2990  211.7620  156.7280 C   0  0  0  0  0  3  0  0  0  0  0  0
  161.2280  210.6330  154.6030 C   0  0  1  0  0  3  0  0  0  0  0  0
  160.3020  212.0390  153.1190 N   0  0  0  0  0  2  0  0  0  0  0  0
  161.3580  211.1770  153.2800 O   0  0  0  0  0  0  0  0  0  0  0  0
  157.7530  212.6300  155.7640 C   0  0  0  0  0  0  0  0  0  0  0  0
  156.6050  213.4380  155.9040 N   0  0  0  0  0  2  0  0  0  0  0  0
  158.3410  212.7810  154.5380 C   0  0  0  0  0  0  0  0  0  0  0  0
  159.4850  212.0500  154.2580 C   0  0  0  0  0  0  0  0  0  0  0  0
  157.5930  213.7570  153.7120 C   0  0  0  0  0  2  0  0  0  0  0  0
  159.9950  211.2180  155.1750 C   0  0  0  0  0  0  0  0  0  0  0  0
  156.4420  214.1890  154.6540 C   0  0  1  0  0  3  0  0  0  0  0  0
  155.1280  213.8620  154.0240 C   0  0  0  0  0  3  0  0  0  0  0  0
  154.8870  214.1790  152.7540 C   0  0  0  0  0  2  0  0  0  0  0  0
  162.1080  208.2260  149.6970 C   0  0  0  0  0  2  0  0  0  0  0  0
  161.0860  203.0430  146.4960 C   0  0  0  0  0  0  0  0  0  0  0  0
  160.9620  202.6950  151.0250 C   0  0  0  0  0  3  0  0  0  0  0  0
  162.1600  207.1890  148.6730 N   0  0  0  0  0  2  0  0  0  0  0  0
  161.3800  204.9470  145.0550 C   0  0  0  0  0  0  0  0  0  0  0  0
  161.2320  203.5740  145.2170 C   0  0  0  0  0  3  0  0  0  0  0  0
  161.0110  203.2830  148.8810 C   0  0  0  0  0  0  0  0  0  0  0  0
  161.2010  205.2740  147.4290 N   0  0  0  0  0  0  0  0  0  0  0  0
  160.8970  201.9260  148.9720 C   0  0  0  0  0  0  0  0  0  0  0  0
  161.0640  203.7860  150.1640 C   0  0  0  0  0  3  0  0  0  0  0  0
  160.9660  201.6920  146.6610 N   0  0  0  0  0  0  0  0  0  0  0  0
  160.8690  201.1370  147.8730 N   0  0  0  0  0  0  0  0  0  0  0  0
  161.5450  205.5240  143.6950 C   0  0  0  0  0  1  0  0  0  0  0  0
  161.3580  205.7790  146.1730 C   0  0  0  0  0  3  0  0  0  0  0  0
  161.0890  203.9120  147.6210 C   0  0  0  0  0  0  0  0  0  0  0  0
  160.8580  201.5230  150.2830 C   0  0  0  0  0  3  0  0  0  0  0  0
  160.0840  206.2700  149.2210 O   0  0  0  0  0  0  0  0  0  0  0  0
  161.1100  206.2350  148.4890 C   0  0  0  0  0  0  0  0  0  0  0  0
  2  1  1  1  0  0  0
  2  3  1  0  0  0  0
  3  5  1  0  0  0  0
  5  4  1  0  0  0  0
  5  7  1  0  0  0  0
  6  5  1  0  0  0  0
  8  9  1  0  0  0  0
 10  7  1  6  0  0  0
 10 18  1  0  0  0  0
 11 12  1  0  0  0  0
 11 16  1  0  0  0  0
 12 10  1  0  0  0  0
 13 14  1  0  0  0  0
 13  9  2  0  0  0  0
 15 13  1  0  0  0  0
 16 15  2  0  0  0  0
 16 18  1  0  0  0  0
 17 15  1  0  0  0  0
 17 19  1  0  0  0  0
 18  8  2  0  0  0  0
 19 20  1  6  0  0  0
 19 14  1  0  0  0  0
 21 20  2  0  0  0  0
 22  2  1  0  0  0  0
 23 32  1  0  0  0  0
 23 36  1  0  0  0  0
 25 22  1  0  0  0  0
 26 27  1  0  0  0  0
 26 35  2  0  0  0  0
 27 23  2  0  0  0  0
 28 30  1  0  0  0  0
 28 31  1  0  0  0  0
 29 36  1  0  0  0  0
 29 39  1  0  0  0  0
 30 37  2  0  0  0  0
 31 24  2  0  0  0  0
 32 33  2  0  0  0  0
 33 30  1  0  0  0  0
 34 26  1  0  0  0  0
 35 29  1  0  0  0  0
 36 28  2  0  0  0  0
 37 24  1  0  0  0  0
 39 25  1  0  0  0  0
 39 38  2  0  0  0  0
M  END
>  <MODEL>
2

>  <REMARK>
 VINA RESULT:      -9.0      5.126      8.790
  Name = 
  7 active torsions:
  status: ('A' for Active; 'I' for Inactive)
    1  A    between atoms: C_3  and  C_13
    2  A    between atoms: C_3  and  C_17
    3  A    between atoms: C_4  and  C_35
    4  A    between atoms: C_8  and  C_17
    5  A    between atoms: C_8  and  C_23
    6  A    between atoms: N_10  and  C_14
    7  A    between atoms: C_14  and  C_23
                            x       y       z     vdW  Elec       q    Type
                         _______ _______ _______ _____ _____    ______ ____

>  <TORSDO>
F 7

$$$$
=
 OpenBabel11042421183D

 39 44  0  0  1  0  0  0  0  0999 V2000
  158.9140  206.5920  155.7740 N   0  0  0  0  0  1  0  0  0  0  0  0
  160.0820  207.3540  155.3640 C   0  0  1  0  0  3  0  0  0  0  0  0
  160.5450  208.2430  156.5130 C   0  0  0  0  0  2  0  0  0  0  0  0
  161.6250  210.3240  156.3440 F   0  0  0  0  0  0  0  0  0  0  0  0
  160.3800  209.7370  156.2300 C   0  0  0  0  0  0  0  0  0  0  0  0
  159.5430  210.3190  157.1690 F   0  0  0  0  0  0  0  0  0  0  0  0
  159.8770  209.9890  154.8070 C   0  0  0  0  0  2  0  0  0  0  0  0
  158.1550  212.6500  154.5880 N   0  0  0  0  0  0  0  0  0  0  0  0
  157.1970  213.4270  153.9850 C   0  0  0  0  0  3  0  0  0  0  0  0
  160.3400  211.3220  154.2310 C   0  0  1  0  0  3  0  0  0  0  0  0
  160.4430  211.7640  152.0330 N   0  0  0  0  0  2  0  0  0  0  0  0
  161.1040  211.0990  153.0350 O   0  0  0  0  0  0  0  0  0  0  0  0
  157.3020  213.6750  152.6030 C   0  0  0  0  0  0  0  0  0  0  0  0
  156.4300  214.4530  151.8130 N   0  0  0  0  0  2  0  0  0  0  0  0
  158.3370  213.1600  151.8720 C   0  0  0  0  0  0  0  0  0  0  0  0
  159.2800  212.3750  152.5190 C   0  0  0  0  0  0  0  0  0  0  0  0
  158.2370  213.5750  150.4530 C   0  0  0  0  0  2  0  0  0  0  0  0
  159.1690  212.1340  153.8320 C   0  0  0  0  0  0  0  0  0  0  0  0
  156.9580  214.4480  150.4440 C   0  0  1  0  0  3  0  0  0  0  0  0
  155.9540  213.8580  149.5070 C   0  0  0  0  0  3  0  0  0  0  0  0
  155.6730  214.4530  148.3510 C   0  0  0  0  0  2  0  0  0  0  0  0
  161.1840  206.4090  154.8840 C   0  0  0  0  0  2  0  0  0  0  0  0
  161.1490  205.0630  148.8560 C   0  0  0  0  0  0  0  0  0  0  0  0
  162.0060  209.3840  149.9700 C   0  0  0  0  0  3  0  0  0  0  0  0
  160.8600  205.8170  153.5920 N   0  0  0  0  0  2  0  0  0  0  0  0
  160.7980  203.1100  150.2150 C   0  0  0  0  0  0  0  0  0  0  0  0
  160.8390  203.7100  148.9620 C   0  0  0  0  0  3  0  0  0  0  0  0
  161.6500  207.1930  149.8370 C   0  0  0  0  0  0  0  0  0  0  0  0
  161.4070  205.1870  151.2600 N   0  0  0  0  0  0  0  0  0  0  0  0
  161.6480  207.7260  148.5810 C   0  0  0  0  0  0  0  0  0  0  0  0
  161.8640  208.2230  150.7290 C   0  0  0  0  0  3  0  0  0  0  0  0
  161.1660  205.6620  147.6280 N   0  0  0  0  0  0  0  0  0  0  0  0
  161.4140  206.9670  147.4850 N   0  0  0  0  0  0  0  0  0  0  0  0
  160.4600  201.6680  150.3420 C   0  0  0  0  0  1  0  0  0  0  0  0
  161.0880  203.8650  151.3510 C   0  0  0  0  0  3  0  0  0  0  0  0
  161.4200  205.8160  150.0320 C   0  0  0  0  0  0  0  0  0  0  0  0
  161.8700  209.0790  148.6200 C   0  0  0  0  0  3  0  0  0  0  0  0
  162.9020  206.3730  152.6050 O   0  0  0  0  0  0  0  0  0  0  0  0
  161.7670  205.8360  152.4870 C   0  0  0  0  0  0  0  0  0  0  0  0
  2  1  1  1  0  0  0
  2  3  1  0  0  0  0
  5  4  1  0  0  0  0
  5  3  1  0  0  0  0
  5  6  1  0  0  0  0
  7  5  1  0  0  0  0
  9  8  1  0  0  0  0
 10  7  1  6  0  0  0
 11 16  1  0  0  0  0
 11 12  1  0  0  0  0
 12 10  1  0  0  0  0
 13  9  2  0  0  0  0
 14 13  1  0  0  0  0
 15 16  2  0  0  0  0
 15 13  1  0  0  0  0
 16 18  1  0  0  0  0
 17 15  1  0  0  0  0
 18 10  1  0  0  0  0
 18  8  2  0  0  0  0
 19 20  1  6  0  0  0
 19 17  1  0  0  0  0
 19 14  1  0  0  0  0
 21 20  2  0  0  0  0
 22  2  1  0  0  0  0
 23 27  2  0  0  0  0
 23 36  1  0  0  0  0
 24 31  2  0  0  0  0
 25 22  1  0  0  0  0
 26 34  1  0  0  0  0
 26 35  2  0  0  0  0
 27 26  1  0  0  0  0
 28 36  2  0  0  0  0
 28 31  1  0  0  0  0
 29 35  1  0  0  0  0
 29 39  1  0  0  0  0
 30 37  2  0  0  0  0
 30 28  1  0  0  0  0
 32 23  1  0  0  0  0
 33 32  2  0  0  0  0
 33 30  1  0  0  0  0
 36 29  1  0  0  0  0
 37 24  1  0  0  0  0
 39 38  2  0  0  0  0
 39 25  1  0  0  0  0
M  END
>  <MODEL>
3

>  <REMARK>
 VINA RESULT:      -8.5      5.351      7.841
  Name = 
  7 active torsions:
  status: ('A' for Active; 'I' for Inactive)
    1  A    between atoms: C_3  and  C_13
    2  A    between atoms: C_3  and  C_17
    3  A    between atoms: C_4  and  C_35
    4  A    between atoms: C_8  and  C_17
    5  A    between atoms: C_8  and  C_23
    6  A    between atoms: N_10  and  C_14
    7  A    between atoms: C_14  and  C_23
                            x       y       z     vdW  Elec       q    Type
                         _______ _______ _______ _____ _____    ______ ____

>  <TORSDO>
F 7

$$$$
=
 OpenBabel11042421183D

 39 44  0  0  1  0  0  0  0  0999 V2000
  161.1820  211.3330  147.6320 N   0  0  0  0  0  1  0  0  0  0  0  0
  161.5510  210.4990  148.7630 C   0  0  1  0  0  3  0  0  0  0  0  0
  162.5710  209.4550  148.3200 C   0  0  0  0  0  2  0  0  0  0  0  0
  160.9630  208.0190  149.2560 F   0  0  0  0  0  0  0  0  0  0  0  0
  162.2890  208.0570  148.8720 C   0  0  0  0  0  0  0  0  0  0  0  0
  163.0680  207.8110  149.9910 F   0  0  0  0  0  0  0  0  0  0  0  0
  162.4940  206.9780  147.8060 C   0  0  0  0  0  2  0  0  0  0  0  0
  161.0720  204.4600  149.1200 N   0  0  0  0  0  0  0  0  0  0  0  0
  160.9490  203.1080  149.3270 C   0  0  0  0  0  3  0  0  0  0  0  0
  161.1930  206.3310  147.3450 C   0  0  1  0  0  3  0  0  0  0  0  0
  161.0470  204.9180  145.6080 N   0  0  0  0  0  2  0  0  0  0  0  0
  161.1670  206.2510  145.9110 O   0  0  0  0  0  0  0  0  0  0  0  0
  160.8630  202.2610  148.2050 C   0  0  0  0  0  0  0  0  0  0  0  0
  160.7230  200.8570  148.2130 N   0  0  0  0  0  2  0  0  0  0  0  0
  160.8960  202.7670  146.9350 C   0  0  0  0  0  0  0  0  0  0  0  0
  161.0270  204.1380  146.7720 C   0  0  0  0  0  0  0  0  0  0  0  0
  160.7720  201.6830  145.9330 C   0  0  0  0  0  2  0  0  0  0  0  0
  161.1180  204.9390  147.8420 C   0  0  0  0  0  0  0  0  0  0  0  0
  160.6470  200.4170  146.8150 C   0  0  1  0  0  3  0  0  0  0  0  0
  161.7690  199.4800  146.5090 C   0  0  0  0  0  3  0  0  0  0  0  0
  161.6150  198.5080  145.6130 C   0  0  0  0  0  2  0  0  0  0  0  0
  162.0730  211.3660  149.9080 C   0  0  0  0  0  2  0  0  0  0  0  0
  159.9640  209.2730  155.3230 C   0  0  0  0  0  0  0  0  0  0  0  0
  161.7210  206.1830  152.4940 C   0  0  0  0  0  3  0  0  0  0  0  0
  161.2810  211.1910  151.1200 N   0  0  0  0  0  2  0  0  0  0  0  0
  159.7880  211.6660  155.1540 C   0  0  0  0  0  0  0  0  0  0  0  0
  159.5180  210.4870  155.8390 C   0  0  0  0  0  3  0  0  0  0  0  0
  161.0390  207.9770  153.6160 C   0  0  0  0  0  0  0  0  0  0  0  0
  160.9770  210.4420  153.4620 N   0  0  0  0  0  0  0  0  0  0  0  0
  160.7180  206.8550  154.3240 C   0  0  0  0  0  0  0  0  0  0  0  0
  161.6630  207.5750  152.4540 C   0  0  0  0  0  3  0  0  0  0  0  0
  159.6790  208.1100  155.9810 N   0  0  0  0  0  0  0  0  0  0  0  0
  160.0490  206.9200  155.4980 N   0  0  0  0  0  0  0  0  0  0  0  0
  159.3090  212.9670  155.6900 C   0  0  0  0  0  1  0  0  0  0  0  0
  160.5220  211.6230  153.9700 C   0  0  0  0  0  3  0  0  0  0  0  0
  160.6920  209.2540  154.1020 C   0  0  0  0  0  0  0  0  0  0  0  0
  161.1280  205.7240  153.6650 C   0  0  0  0  0  3  0  0  0  0  0  0
  162.9680  210.0840  152.2960 O   0  0  0  0  0  0  0  0  0  0  0  0
  161.7900  210.5340  152.2840 C   0  0  0  0  0  0  0  0  0  0  0  0
  2  1  1  6  0  0  0
  2 22  1  0  0  0  0
  3  2  1  0  0  0  0
  3  5  1  0  0  0  0
  5  4  1  0  0  0  0
  5  6  1  0  0  0  0
  7  5  1  0  0  0  0
  8  9  1  0  0  0  0
 10  7  1  6  0  0  0
 10 18  1  0  0  0  0
 11 12  1  0  0  0  0
 11 16  1  0  0  0  0
 12 10  1  0  0  0  0
 13 14  1  0  0  0  0
 13  9  2  0  0  0  0
 15 13  1  0  0  0  0
 16 15  2  0  0  0  0
 16 18  1  0  0  0  0
 17 19  1  0  0  0  0
 17 15  1  0  0  0  0
 18  8  2  0  0  0  0
 19 20  1  6  0  0  0
 19 14  1  0  0  0  0
 21 20  2  0  0  0  0
 22 25  1  0  0  0  0
 23 27  2  0  0  0  0
 23 32  1  0  0  0  0
 24 37  1  0  0  0  0
 25 39  1  0  0  0  0
 26 34  1  0  0  0  0
 26 27  1  0  0  0  0
 28 36  2  0  0  0  0
 28 30  1  0  0  0  0
 29 35  1  0  0  0  0
 29 36  1  0  0  0  0
 30 33  1  0  0  0  0
 31 24  2  0  0  0  0
 31 28  1  0  0  0  0
 33 32  2  0  0  0  0
 35 26  2  0  0  0  0
 36 23  1  0  0  0  0
 37 30  2  0  0  0  0
 39 38  2  0  0  0  0
 39 29  1  0  0  0  0
M  END
>  <MODEL>
4

>  <REMARK>
 VINA RESULT:      -8.2      4.541      8.250
  Name = 
  7 active torsions:
  status: ('A' for Active; 'I' for Inactive)
    1  A    between atoms: C_3  and  C_13
    2  A    between atoms: C_3  and  C_17
    3  A    between atoms: C_4  and  C_35
    4  A    between atoms: C_8  and  C_17
    5  A    between atoms: C_8  and  C_23
    6  A    between atoms: N_10  and  C_14
    7  A    between atoms: C_14  and  C_23
                            x       y       z     vdW  Elec       q    Type
                         _______ _______ _______ _____ _____    ______ ____

>  <TORSDO>
F 7

$$$$
=
 OpenBabel11042421183D

 39 44  0  0  1  0  0  0  0  0999 V2000
  162.5960  207.0780  151.5770 N   0  0  0  0  0  1  0  0  0  0  0  0
  161.6520  207.8020  150.7420 C   0  0  1  0  0  3  0  0  0  0  0  0
  161.0710  208.9760  151.5220 C   0  0  0  0  0  2  0  0  0  0  0  0
  162.9930  210.3280  151.4700 F   0  0  0  0  0  0  0  0  0  0  0  0
  161.6580  210.3280  151.1130 C   0  0  0  0  0  0  0  0  0  0  0  0
  161.0310  211.3570  151.7980 F   0  0  0  0  0  0  0  0  0  0  0  0
  161.5820  210.5410  149.6000 C   0  0  0  0  0  2  0  0  0  0  0  0
  159.9330  212.2510  147.4910 N   0  0  0  0  0  0  0  0  0  0  0  0
  159.6000  212.5940  146.2030 C   0  0  0  0  0  3  0  0  0  0  0  0
  161.8680  211.9780  149.1790 C   0  0  1  0  0  3  0  0  0  0  0  0
  163.4560  212.5540  147.7020 N   0  0  0  0  0  2  0  0  0  0  0  0
  163.2810  212.1650  149.0060 O   0  0  0  0  0  0  0  0  0  0  0  0
  160.6320  212.9460  145.3120 C   0  0  0  0  0  0  0  0  0  0  0  0
  160.4900  213.3350  143.9640 N   0  0  0  0  0  2  0  0  0  0  0  0
  161.9390  212.9530  145.7150 C   0  0  0  0  0  0  0  0  0  0  0  0
  162.2310  212.5950  147.0220 C   0  0  0  0  0  0  0  0  0  0  0  0
  162.8280  213.3730  144.6070 C   0  0  0  0  0  2  0  0  0  0  0  0
  161.2470  212.2510  147.8630 C   0  0  0  0  0  0  0  0  0  0  0  0
  161.8320  213.6320  143.4500 C   0  0  1  0  0  3  0  0  0  0  0  0
  162.1530  212.7350  142.3000 C   0  0  0  0  0  3  0  0  0  0  0  0
  161.2830  211.8130  141.8950 C   0  0  0  0  0  2  0  0  0  0  0  0
  162.3310  208.2490  149.4480 C   0  0  0  0  0  2  0  0  0  0  0  0
  161.0660  203.0480  146.3660 C   0  0  0  0  0  0  0  0  0  0  0  0
  160.9900  202.7940  150.9020 C   0  0  0  0  0  3  0  0  0  0  0  0
  162.3290  207.1900  148.4450 N   0  0  0  0  0  2  0  0  0  0  0  0
  161.4130  204.9100  144.8830 C   0  0  0  0  0  0  0  0  0  0  0  0
  161.2140  203.5470  145.0740 C   0  0  0  0  0  3  0  0  0  0  0  0
  161.0330  203.3370  148.7460 C   0  0  0  0  0  0  0  0  0  0  0  0
  161.2800  205.2900  147.2520 N   0  0  0  0  0  0  0  0  0  0  0  0
  160.8680  201.9880  148.8660 C   0  0  0  0  0  0  0  0  0  0  0  0
  161.1230  203.8630  150.0180 C   0  0  0  0  0  3  0  0  0  0  0  0
  160.8960  201.7060  146.5600 N   0  0  0  0  0  0  0  0  0  0  0  0
  160.7940  201.1790  147.7840 N   0  0  0  0  0  0  0  0  0  0  0  0
  161.5810  205.4530  143.5100 C   0  0  0  0  0  1  0  0  0  0  0  0
  161.4380  205.7650  145.9840 C   0  0  0  0  0  3  0  0  0  0  0  0
  161.1180  203.9380  147.4730 C   0  0  0  0  0  0  0  0  0  0  0  0
  160.8310  201.6120  150.1850 C   0  0  0  0  0  3  0  0  0  0  0  0
  160.2270  206.3650  149.0380 O   0  0  0  0  0  0  0  0  0  0  0  0
  161.2410  206.2750  148.2940 C   0  0  0  0  0  0  0  0  0  0  0  0
  2  3  1  0  0  0  0
  2  1  1  1  0  0  0
  5  4  1  0  0  0  0
  5  3  1  0  0  0  0
  5  6  1  0  0  0  0
  7  5  1  0  0  0  0
  8 18  1  0  0  0  0
  9  8  2  0  0  0  0
 10  7  1  6  0  0  0
 11 12  1  0  0  0  0
 12 10  1  0  0  0  0
 13 15  2  0  0  0  0
 13  9  1  0  0  0  0
 14 13  1  0  0  0  0
 15 16  1  0  0  0  0
 16 11  1  0  0  0  0
 16 18  2  0  0  0  0
 17 15  1  0  0  0  0
 18 10  1  0  0  0  0
 19 20  1  6  0  0  0
 19 14  1  0  0  0  0
 19 17  1  0  0  0  0
 21 20  2  0  0  0  0
 22  2  1  0  0  0  0
 23 32  1  0  0  0  0
 23 36  1  0  0  0  0
 25 22  1  0  0  0  0
 26 27  1  0  0  0  0
 26 35  2  0  0  0  0
 27 23  2  0  0  0  0
 28 30  1  0  0  0  0
 28 31  1  0  0  0  0
 29 36  1  0  0  0  0
 29 39  1  0  0  0  0
 30 37  2  0  0  0  0
 31 24  2  0  0  0  0
 32 33  2  0  0  0  0
 33 30  1  0  0  0  0
 34 26  1  0  0  0  0
 35 29  1  0  0  0  0
 36 28  2  0  0  0  0
 37 24  1  0  0  0  0
 39 25  1  0  0  0  0
 39 38  2  0  0  0  0
M  END
>  <MODEL>
5

>  <REMARK>
 VINA RESULT:      -8.1      2.173      4.083
  Name = 
  7 active torsions:
  status: ('A' for Active; 'I' for Inactive)
    1  A    between atoms: C_3  and  C_13
    2  A    between atoms: C_3  and  C_17
    3  A    between atoms: C_4  and  C_35
    4  A    between atoms: C_8  and  C_17
    5  A    between atoms: C_8  and  C_23
    6  A    between atoms: N_10  and  C_14
    7  A    between atoms: C_14  and  C_23
                            x       y       z     vdW  Elec       q    Type
                         _______ _______ _______ _____ _____    ______ ____

>  <TORSDO>
F 7

$$$$
=
 OpenBabel11042421183D

 39 44  0  0  1  0  0  0  0  0999 V2000
  162.6220  210.0160  148.2160 N   0  0  0  0  0  1  0  0  0  0  0  0
  162.3400  210.3090  149.6110 C   0  0  1  0  0  3  0  0  0  0  0  0
  161.2190  211.3380  149.7040 C   0  0  0  0  0  2  0  0  0  0  0  0
  162.7750  212.7400  148.6360 F   0  0  0  0  0  0  0  0  0  0  0  0
  161.4160  212.5360  148.7720 C   0  0  0  0  0  0  0  0  0  0  0  0
  160.8630  213.6790  149.3280 F   0  0  0  0  0  0  0  0  0  0  0  0
  160.8440  212.2650  147.3790 C   0  0  0  0  0  2  0  0  0  0  0  0
  159.4820  212.6730  144.5380 N   0  0  0  0  0  0  0  0  0  0  0  0
  159.3310  212.3570  143.2100 C   0  0  0  0  0  3  0  0  0  0  0  0
  161.1600  213.3670  146.3740 C   0  0  1  0  0  3  0  0  0  0  0  0
  162.9320  213.3320  144.9980 N   0  0  0  0  0  2  0  0  0  0  0  0
  162.5800  213.5720  146.3020 O   0  0  0  0  0  0  0  0  0  0  0  0
  160.4730  212.3460  142.3860 C   0  0  0  0  0  0  0  0  0  0  0  0
  160.5180  212.0600  141.0060 N   0  0  0  0  0  2  0  0  0  0  0  0
  161.7080  212.6470  142.8900 C   0  0  0  0  0  0  0  0  0  0  0  0
  161.8170  212.9540  144.2380 C   0  0  0  0  0  0  0  0  0  0  0  0
  162.7390  212.5840  141.8280 C   0  0  0  0  0  2  0  0  0  0  0  0
  160.7290  212.9530  145.0200 C   0  0  0  0  0  0  0  0  0  0  0  0
  161.9140  212.2000  140.5750 C   0  0  1  0  0  3  0  0  0  0  0  0
  162.4140  210.9060  140.0220 C   0  0  0  0  0  3  0  0  0  0  0  0
  161.6430  209.8210  140.0310 C   0  0  0  0  0  2  0  0  0  0  0  0
  162.0030  209.0200  150.3600 C   0  0  0  0  0  2  0  0  0  0  0  0
  161.3180  203.4020  147.8850 C   0  0  0  0  0  0  0  0  0  0  0  0
  160.8430  203.7100  152.3930 C   0  0  0  0  0  3  0  0  0  0  0  0
  162.1520  207.8470  149.5070 N   0  0  0  0  0  2  0  0  0  0  0  0
  161.6940  205.0840  146.2070 C   0  0  0  0  0  0  0  0  0  0  0  0
  161.5560  203.7460  146.5570 C   0  0  0  0  0  3  0  0  0  0  0  0
  161.0520  203.9830  150.1960 C   0  0  0  0  0  0  0  0  0  0  0  0
  161.3240  205.7470  148.4870 N   0  0  0  0  0  0  0  0  0  0  0  0
  160.9520  202.6510  150.4760 C   0  0  0  0  0  0  0  0  0  0  0  0
  160.9950  204.6680  151.3920 C   0  0  0  0  0  3  0  0  0  0  0  0
  161.2070  202.0870  148.2360 N   0  0  0  0  0  0  0  0  0  0  0  0
  161.0230  201.7110  149.5060 N   0  0  0  0  0  0  0  0  0  0  0  0
  161.9570  205.4630  144.7940 C   0  0  0  0  0  1  0  0  0  0  0  0
  161.5710  206.0690  147.1860 C   0  0  0  0  0  3  0  0  0  0  0  0
  161.2190  204.4250  148.8680 C   0  0  0  0  0  0  0  0  0  0  0  0
  160.8160  202.4400  151.8250 C   0  0  0  0  0  3  0  0  0  0  0  0
  160.0540  206.9620  150.0240 O   0  0  0  0  0  0  0  0  0  0  0  0
  161.1350  206.8480  149.3860 C   0  0  0  0  0  0  0  0  0  0  0  0
  2  1  1  6  0  0  0
  2  3  1  0  0  0  0
  2 22  1  0  0  0  0
  4  5  1  0  0  0  0
  5  6  1  0  0  0  0
  5  3  1  0  0  0  0
  7  5  1  0  0  0  0
  8 18  1  0  0  0  0
  9  8  2  0  0  0  0
 10  7  1  1  0  0  0
 11 12  1  0  0  0  0
 12 10  1  0  0  0  0
 13 15  2  0  0  0  0
 13  9  1  0  0  0  0
 14 13  1  0  0  0  0
 15 16  1  0  0  0  0
 16 11  1  0  0  0  0
 16 18  2  0  0  0  0
 17 15  1  0  0  0  0
 18 10  1  0  0  0  0
 19 20  1  1  0  0  0
 19 14  1  0  0  0  0
 19 17  1  0  0  0  0
 20 21  2  0  0  0  0
 23 32  1  0  0  0  0
 23 36  1  0  0  0  0
 25 22  1  0  0  0  0
 26 27  1  0  0  0  0
 26 35  2  0  0  0  0
 27 23  2  0  0  0  0
 28 30  1  0  0  0  0
 28 31  1  0  0  0  0
 29 36  1  0  0  0  0
 29 39  1  0  0  0  0
 30 37  2  0  0  0  0
 31 24  2  0  0  0  0
 32 33  2  0  0  0  0
 33 30  1  0  0  0  0
 34 26  1  0  0  0  0
 35 29  1  0  0  0  0
 36 28  2  0  0  0  0
 37 24  1  0  0  0  0
 39 25  1  0  0  0  0
 39 38  2  0  0  0  0
M  END
>  <MODEL>
6

>  <REMARK>
 VINA RESULT:      -8.0      1.198      2.879
  Name = 
  7 active torsions:
  status: ('A' for Active; 'I' for Inactive)
    1  A    between atoms: C_3  and  C_13
    2  A    between atoms: C_3  and  C_17
    3  A    between atoms: C_4  and  C_35
    4  A    between atoms: C_8  and  C_17
    5  A    between atoms: C_8  and  C_23
    6  A    between atoms: N_10  and  C_14
    7  A    between atoms: C_14  and  C_23
                            x       y       z     vdW  Elec       q    Type
                         _______ _______ _______ _____ _____    ______ ____

>  <TORSDO>
F 7

$$$$
=
 OpenBabel11042421183D

 39 44  0  0  1  0  0  0  0  0999 V2000
  160.0830  209.0550  156.0800 N   0  0  0  0  0  1  0  0  0  0  0  0
  160.3360  210.2220  155.2520 C   0  0  1  0  0  3  0  0  0  0  0  0
  159.8000  211.4700  155.9450 C   0  0  0  0  0  2  0  0  0  0  0  0
  158.1930  213.1830  155.8490 F   0  0  0  0  0  0  0  0  0  0  0  0
  158.3970  211.8670  155.4820 C   0  0  0  0  0  0  0  0  0  0  0  0
  157.4390  211.0910  156.1150 F   0  0  0  0  0  0  0  0  0  0  0  0
  158.2610  211.7830  153.9600 C   0  0  0  0  0  2  0  0  0  0  0  0
  156.6070  213.7920  152.1380 N   0  0  0  0  0  0  0  0  0  0  0  0
  155.9960  214.1350  150.9570 C   0  0  0  0  0  3  0  0  0  0  0  0
  158.8080  213.0100  153.2380 C   0  0  1  0  0  3  0  0  0  0  0  0
  159.9360  212.9190  151.3000 N   0  0  0  0  0  2  0  0  0  0  0  0
  160.0810  212.7030  152.6480 O   0  0  0  0  0  0  0  0  0  0  0  0
  156.7440  214.0600  149.7660 C   0  0  0  0  0  0  0  0  0  0  0  0
  156.3000  214.3790  148.4660 N   0  0  0  0  0  2  0  0  0  0  0  0
  158.0520  213.6600  149.7790 C   0  0  0  0  0  0  0  0  0  0  0  0
  158.6270  213.3170  150.9940 C   0  0  0  0  0  0  0  0  0  0  0  0
  158.6220  213.6810  148.4120 C   0  0  0  0  0  2  0  0  0  0  0  0
  157.9090  213.3810  152.1220 C   0  0  0  0  0  0  0  0  0  0  0  0
  157.4320  214.1750  147.5540 C   0  0  1  0  0  3  0  0  0  0  0  0
  157.0890  213.1440  146.5290 C   0  0  0  0  0  3  0  0  0  0  0  0
  158.0320  212.6280  145.7450 C   0  0  0  0  0  2  0  0  0  0  0  0
  161.8280  210.3310  154.9400 C   0  0  0  0  0  2  0  0  0  0  0  0
  161.7410  207.8570  149.2810 C   0  0  0  0  0  0  0  0  0  0  0  0
  161.1780  204.9920  152.7620 C   0  0  0  0  0  3  0  0  0  0  0  0
  162.1050  210.0610  153.5330 N   0  0  0  0  0  2  0  0  0  0  0  0
  161.9690  210.2500  149.2120 C   0  0  0  0  0  0  0  0  0  0  0  0
  161.9600  209.0250  148.5550 C   0  0  0  0  0  3  0  0  0  0  0  0
  161.3870  206.6950  151.3490 C   0  0  0  0  0  0  0  0  0  0  0  0
  161.5050  209.1630  151.3040 N   0  0  0  0  0  0  0  0  0  0  0  0
  161.4180  205.5240  150.6480 C   0  0  0  0  0  0  0  0  0  0  0  0
  161.2470  206.3810  152.6840 C   0  0  0  0  0  3  0  0  0  0  0  0
  161.7570  206.6480  148.6430 N   0  0  0  0  0  0  0  0  0  0  0  0
  161.5950  205.5000  149.3070 N   0  0  0  0  0  0  0  0  0  0  0  0
  162.2110  211.5030  148.4500 C   0  0  0  0  0  1  0  0  0  0  0  0
  161.7350  210.2980  150.5850 C   0  0  0  0  0  3  0  0  0  0  0  0
  161.5270  207.9310  150.6840 C   0  0  0  0  0  0  0  0  0  0  0  0
  161.2860  204.4460  151.4870 C   0  0  0  0  0  3  0  0  0  0  0  0
  160.0990  208.9270  153.1540 O   0  0  0  0  0  0  0  0  0  0  0  0
  161.1940  209.3470  152.6920 C   0  0  0  0  0  0  0  0  0  0  0  0
  2  3  1  0  0  0  0
  2  1  1  1  0  0  0
  5  4  1  0  0  0  0
  5  3  1  0  0  0  0
  5  6  1  0  0  0  0
  7  5  1  0  0  0  0
  9  8  2  0  0  0  0
 10  7  1  6  0  0  0
 11 12  1  0  0  0  0
 12 10  1  0  0  0  0
 13 15  2  0  0  0  0
 13  9  1  0  0  0  0
 14 13  1  0  0  0  0
 15 16  1  0  0  0  0
 16 11  1  0  0  0  0
 16 18  2  0  0  0  0
 17 15  1  0  0  0  0
 18  8  1  0  0  0  0
 18 10  1  0  0  0  0
 19 20  1  6  0  0  0
 19 17  1  0  0  0  0
 19 14  1  0  0  0  0
 21 20  2  0  0  0  0
 22  2  1  0  0  0  0
 23 36  1  0  0  0  0
 25 22  1  0  0  0  0
 26 35  2  0  0  0  0
 27 26  1  0  0  0  0
 27 23  2  0  0  0  0
 28 31  1  0  0  0  0
 29 39  1  0  0  0  0
 30 28  1  0  0  0  0
 30 37  2  0  0  0  0
 31 24  2  0  0  0  0
 32 23  1  0  0  0  0
 32 33  2  0  0  0  0
 33 30  1  0  0  0  0
 34 26  1  0  0  0  0
 35 29  1  0  0  0  0
 36 29  1  0  0  0  0
 36 28  2  0  0  0  0
 37 24  1  0  0  0  0
 39 38  2  0  0  0  0
 39 25  1  0  0  0  0
M  END
>  <MODEL>
7

>  <REMARK>
 VINA RESULT:      -7.8      4.630      6.987
  Name = 
  7 active torsions:
  status: ('A' for Active; 'I' for Inactive)
    1  A    between atoms: C_3  and  C_13
    2  A    between atoms: C_3  and  C_17
    3  A    between atoms: C_4  and  C_35
    4  A    between atoms: C_8  and  C_17
    5  A    between atoms: C_8  and  C_23
    6  A    between atoms: N_10  and  C_14
    7  A    between atoms: C_14  and  C_23
                            x       y       z     vdW  Elec       q    Type
                         _______ _______ _______ _____ _____    ______ ____

>  <TORSDO>
F 7

$$$$
=
 OpenBabel11042421183D

 39 44  0  0  1  0  0  0  0  0999 V2000
  161.1900  207.8330  152.8680 N   0  0  0  0  0  1  0  0  0  0  0  0
  161.5410  206.8340  153.8630 C   0  0  1  0  0  3  0  0  0  0  0  0
  160.4620  206.7780  154.9390 C   0  0  0  0  0  2  0  0  0  0  0  0
  161.8140  208.4820  155.8310 F   0  0  0  0  0  0  0  0  0  0  0  0
  160.5610  207.9140  155.9580 C   0  0  0  0  0  0  0  0  0  0  0  0
  160.4420  207.4210  157.2480 F   0  0  0  0  0  0  0  0  0  0  0  0
  159.5260  209.0070  155.6860 C   0  0  0  0  0  2  0  0  0  0  0  0
  157.9570  211.7160  155.1430 N   0  0  0  0  0  0  0  0  0  0  0  0
  157.3100  212.5960  154.3110 C   0  0  0  0  0  3  0  0  0  0  0  0
  160.1400  210.3970  155.5480 C   0  0  1  0  0  3  0  0  0  0  0  0
  161.1320  211.1440  153.6790 N   0  0  0  0  0  2  0  0  0  0  0  0
  161.3390  210.3260  154.7610 O   0  0  0  0  0  0  0  0  0  0  0  0
  157.9720  213.0350  153.1480 C   0  0  0  0  0  0  0  0  0  0  0  0
  157.4800  213.9400  152.1840 N   0  0  0  0  0  2  0  0  0  0  0  0
  159.2350  212.6030  152.8510 C   0  0  0  0  0  0  0  0  0  0  0  0
  159.8500  211.7100  153.7160 C   0  0  0  0  0  0  0  0  0  0  0  0
  159.7190  213.2180  151.5930 C   0  0  0  0  0  2  0  0  0  0  0  0
  159.2120  211.2870  154.8150 C   0  0  0  0  0  0  0  0  0  0  0  0
  158.5300  214.1150  151.1740 C   0  0  1  0  0  3  0  0  0  0  0  0
  158.0290  213.6910  149.8320 C   0  0  0  0  0  3  0  0  0  0  0  0
  156.7440  213.3980  149.6490 C   0  0  0  0  0  2  0  0  0  0  0  0
  161.7580  205.4780  153.1910 C   0  0  0  0  0  2  0  0  0  0  0  0
  161.2990  204.5990  147.0950 C   0  0  0  0  0  0  0  0  0  0  0  0
  161.1780  200.8790  149.7010 C   0  0  0  0  0  3  0  0  0  0  0  0
  161.9240  205.6130  151.7490 N   0  0  0  0  0  2  0  0  0  0  0  0
  161.4040  206.9340  147.6600 C   0  0  0  0  0  0  0  0  0  0  0  0
  161.3980  205.9300  146.6990 C   0  0  0  0  0  3  0  0  0  0  0  0
  161.1820  202.9070  148.7910 C   0  0  0  0  0  0  0  0  0  0  0  0
  161.1760  205.3000  149.4080 N   0  0  0  0  0  0  0  0  0  0  0  0
  161.2080  201.9700  147.7990 C   0  0  0  0  0  0  0  0  0  0  0  0
  161.1740  202.2410  149.9980 C   0  0  0  0  0  3  0  0  0  0  0  0
  161.3170  203.6080  146.1540 N   0  0  0  0  0  0  0  0  0  0  0  0
  161.2690  202.3160  146.4930 N   0  0  0  0  0  0  0  0  0  0  0  0
  161.5190  208.3580  147.2510 C   0  0  0  0  0  1  0  0  0  0  0  0
  161.2880  206.5990  149.0090 C   0  0  0  0  0  3  0  0  0  0  0  0
  161.2040  204.2820  148.4780 C   0  0  0  0  0  0  0  0  0  0  0  0
  161.2010  200.7010  148.3210 C   0  0  0  0  0  3  0  0  0  0  0  0
  159.9500  204.4840  151.2190 O   0  0  0  0  0  0  0  0  0  0  0  0
  160.9790  205.0860  150.8120 C   0  0  0  0  0  0  0  0  0  0  0  0
  2  1  1  6  0  0  0
  2  3  1  0  0  0  0
  3  5  1  0  0  0  0
  4  5  1  0  0  0  0
  5  6  1  0  0  0  0
  7  5  1  0  0  0  0
  9  8  2  0  0  0  0
 10  7  1  6  0  0  0
 11 16  1  0  0  0  0
 11 12  1  0  0  0  0
 12 10  1  0  0  0  0
 13  9  1  0  0  0  0
 14 13  1  0  0  0  0
 15 13  2  0  0  0  0
 15 16  1  0  0  0  0
 16 18  2  0  0  0  0
 17 15  1  0  0  0  0
 18  8  1  0  0  0  0
 18 10  1  0  0  0  0
 19 20  1  6  0  0  0
 19 17  1  0  0  0  0
 19 14  1  0  0  0  0
 21 20  2  0  0  0  0
 22  2  1  0  0  0  0
 23 36  1  0  0  0  0
 24 31  2  0  0  0  0
 25 22  1  0  0  0  0
 26 35  2  0  0  0  0
 27 23  2  0  0  0  0
 27 26  1  0  0  0  0
 28 31  1  0  0  0  0
 29 39  1  0  0  0  0
 30 37  2  0  0  0  0
 30 28  1  0  0  0  0
 32 33  2  0  0  0  0
 32 23  1  0  0  0  0
 33 30  1  0  0  0  0
 34 26  1  0  0  0  0
 35 29  1  0  0  0  0
 36 28  2  0  0  0  0
 36 29  1  0  0  0  0
 37 24  1  0  0  0  0
 39 38  2  0  0  0  0
 39 25  1  0  0  0  0
M  END
>  <MODEL>
8

>  <REMARK>
 VINA RESULT:      -7.7      5.445      8.029
  Name = 
  7 active torsions:
  status: ('A' for Active; 'I' for Inactive)
    1  A    between atoms: C_3  and  C_13
    2  A    between atoms: C_3  and  C_17
    3  A    between atoms: C_4  and  C_35
    4  A    between atoms: C_8  and  C_17
    5  A    between atoms: C_8  and  C_23
    6  A    between atoms: N_10  and  C_14
    7  A    between atoms: C_14  and  C_23
                            x       y       z     vdW  Elec       q    Type
                         _______ _______ _______ _____ _____    ______ ____

>  <TORSDO>
F 7

$$$$
=
 OpenBabel11042421183D

 39 44  0  0  1  0  0  0  0  0999 V2000
  159.0360  211.3360  156.8400 N   0  0  0  0  0  1  0  0  0  0  0  0
  158.9200  210.5770  155.6070 C   0  0  1  0  0  3  0  0  0  0  0  0
  157.9290  211.2630  154.6720 C   0  0  0  0  0  2  0  0  0  0  0  0
  159.7900  212.6820  154.4510 F   0  0  0  0  0  0  0  0  0  0  0  0
  158.4940  212.5170  154.0030 C   0  0  0  0  0  0  0  0  0  0  0  0
  157.7650  213.6360  154.3750 F   0  0  0  0  0  0  0  0  0  0  0  0
  158.5440  212.3690  152.4810 C   0  0  0  0  0  2  0  0  0  0  0  0
  157.0850  212.9870  149.7270 N   0  0  0  0  0  0  0  0  0  0  0  0
  157.0090  212.9350  148.3570 C   0  0  0  0  0  3  0  0  0  0  0  0
  158.5280  213.7040  151.7440 C   0  0  1  0  0  3  0  0  0  0  0  0
  160.2220  214.4510  150.4770 N   0  0  0  0  0  2  0  0  0  0  0  0
  159.8340  214.3000  151.7840 O   0  0  0  0  0  0  0  0  0  0  0  0
  158.0980  213.4130  147.6040 C   0  0  0  0  0  0  0  0  0  0  0  0
  158.2020  213.4540  146.1980 N   0  0  0  0  0  2  0  0  0  0  0  0
  159.2080  213.9260  148.2170 C   0  0  0  0  0  0  0  0  0  0  0  0
  159.2450  213.9540  149.6030 C   0  0  0  0  0  0  0  0  0  0  0  0
  160.2010  214.3770  147.2150 C   0  0  0  0  0  2  0  0  0  0  0  0
  158.2110  213.4890  150.3150 C   0  0  0  0  0  0  0  0  0  0  0  0
  159.4990  214.0590  145.8720 C   0  0  1  0  0  3  0  0  0  0  0  0
  160.3310  213.1010  145.0840 C   0  0  0  0  0  3  0  0  0  0  0  0
  159.8000  212.4080  144.0810 C   0  0  0  0  0  2  0  0  0  0  0  0
  160.2950  210.4060  154.9630 C   0  0  0  0  0  2  0  0  0  0  0  0
  161.6520  206.8880  150.0710 C   0  0  0  0  0  0  0  0  0  0  0  0
  161.9230  211.3850  149.4810 C   0  0  0  0  0  3  0  0  0  0  0  0
  160.3010  209.3250  153.9840 N   0  0  0  0  0  2  0  0  0  0  0  0
  161.1670  205.5660  152.0210 C   0  0  0  0  0  0  0  0  0  0  0  0
  161.4310  205.6460  150.6580 C   0  0  0  0  0  3  0  0  0  0  0  0
  161.7700  209.2810  150.1820 C   0  0  0  0  0  0  0  0  0  0  0  0
  161.3800  207.9520  152.2280 N   0  0  0  0  0  0  0  0  0  0  0  0
  161.9970  209.2910  148.8360 C   0  0  0  0  0  0  0  0  0  0  0  0
  161.7100  210.5920  150.6060 C   0  0  0  0  0  3  0  0  0  0  0  0
  161.8860  206.9720  148.7270 N   0  0  0  0  0  0  0  0  0  0  0  0
  162.0600  208.1480  148.1150 N   0  0  0  0  0  0  0  0  0  0  0  0
  160.9200  204.2470  152.6580 C   0  0  0  0  0  1  0  0  0  0  0  0
  161.1510  206.7300  152.7890 C   0  0  0  0  0  3  0  0  0  0  0  0
  161.6080  208.0620  150.8720 C   0  0  0  0  0  0  0  0  0  0  0  0
  162.1030  210.5750  148.3640 C   0  0  0  0  0  3  0  0  0  0  0  0
  162.4590  209.7740  153.2120 O   0  0  0  0  0  0  0  0  0  0  0  0
  161.4200  209.0640  153.1320 C   0  0  0  0  0  0  0  0  0  0  0  0
  2  1  1  1  0  0  0
  3  2  1  0  0  0  0
  5  6  1  0  0  0  0
  5  4  1  0  0  0  0
  5  3  1  0  0  0  0
  7  5  1  0  0  0  0
  8 18  1  0  0  0  0
  9  8  2  0  0  0  0
 10 12  1  0  0  0  0
 10  7  1  1  0  0  0
 11 12  1  0  0  0  0
 13 15  2  0  0  0  0
 13  9  1  0  0  0  0
 14 13  1  0  0  0  0
 15 16  1  0  0  0  0
 16 18  2  0  0  0  0
 16 11  1  0  0  0  0
 17 15  1  0  0  0  0
 18 10  1  0  0  0  0
 19 20  1  6  0  0  0
 19 14  1  0  0  0  0
 19 17  1  0  0  0  0
 21 20  2  0  0  0  0
 22  2  1  0  0  0  0
 23 27  2  0  0  0  0
 23 36  1  0  0  0  0
 24 31  2  0  0  0  0
 25 22  1  0  0  0  0
 26 34  1  0  0  0  0
 26 35  2  0  0  0  0
 27 26  1  0  0  0  0
 28 31  1  0  0  0  0
 28 36  2  0  0  0  0
 29 35  1  0  0  0  0
 29 39  1  0  0  0  0
 30 28  1  0  0  0  0
 32 23  1  0  0  0  0
 33 32  2  0  0  0  0
 33 30  1  0  0  0  0
 36 29  1  0  0  0  0
 37 30  2  0  0  0  0
 37 24  1  0  0  0  0
 39 38  2  0  0  0  0
 39 25  1  0  0  0  0
M  END
>  <MODEL>
9

>  <REMARK>
 VINA RESULT:      -7.2      3.886      6.010
  Name = 
  7 active torsions:
  status: ('A' for Active; 'I' for Inactive)
    1  A    between atoms: C_3  and  C_13
    2  A    between atoms: C_3  and  C_17
    3  A    between atoms: C_4  and  C_35
    4  A    between atoms: C_8  and  C_17
    5  A    between atoms: C_8  and  C_23
    6  A    between atoms: N_10  and  C_14
    7  A    between atoms: C_14  and  C_23
                            x       y       z     vdW  Elec       q    Type
                         _______ _______ _______ _____ _____    ______ ____

>  <TORSDO>
F 7

$$$$
