=
 OpenBabel11042422353D

 33 39  0  0  1  0  0  0  0  0999 V2000
  160.6770  207.2040  154.7290 O   0  0  0  0  0  0  0  0  0  0  0  0
  160.8830  208.1700  152.6300 N   0  0  0  0  0  2  0  0  0  0  0  0
  160.7880  208.2590  154.0520 C   0  0  0  0  0  0  0  0  0  0  0  0
  160.9560  209.3280  151.8360 N   0  0  0  0  0  0  0  0  0  0  0  0
  161.6440  209.0550  150.5450 C   0  0  1  0  0  3  0  0  0  0  0  0
  162.3860  209.6320  151.6610 C   0  0  0  0  0  2  0  0  0  0  0  0
  162.0540  207.5970  150.3300 C   0  0  2  0  0  3  0  0  0  0  0  0
  162.4680  207.3730  148.8950 C   0  0  1  0  0  3  0  0  0  0  0  0
  161.1180  206.9560  149.3310 C   0  0  2  0  0  0  0  0  0  0  0  0
  161.3250  207.4810  147.9750 N   0  0  0  0  0  2  0  0  0  0  0  0
  160.8210  202.6750  149.9430 C   0  0  0  0  0  3  0  0  0  0  0  0
  161.0470  205.4420  149.4470 C   0  0  0  0  0  0  0  0  0  0  0  0
  161.1960  204.5020  148.3860 C   0  0  0  0  0  0  0  0  0  0  0  0
  160.6570  203.5860  150.9840 C   0  0  0  0  0  3  0  0  0  0  0  0
  160.7650  204.9560  150.7350 C   0  0  0  0  0  3  0  0  0  0  0  0
  161.0900  203.1320  148.6520 C   0  0  0  0  0  3  0  0  0  0  0  0
  161.4690  204.8760  147.0190 C   0  0  0  0  0  0  0  0  0  0  0  0
  161.6950  205.1750  145.9240 N   0  0  0  0  0  0  0  0  0  0  0  0
  160.8090  209.5970  154.7350 C   0  0  2  0  0  3  0  0  0  0  0  0
  162.5020  209.5290  156.4650 N   0  0  0  0  0  2  0  0  0  0  0  0
  161.2550  209.4810  156.1630 C   0  0  0  0  0  0  0  0  0  0  0  0
  160.2400  209.3230  157.2440 C   0  0  0  0  0  1  0  0  0  0  0  0
  159.5030  210.2350  154.6550 N   0  0  0  0  0  2  0  0  0  0  0  0
  158.3970  211.8150  153.1730 C   0  0  2  0  0  0  0  0  0  0  0  0
  157.2920  212.2260  154.1210 C   0  0  0  0  0  2  0  0  0  0  0  0
  159.6730  211.4810  153.9230 C   0  0  1  0  0  3  0  0  0  0  0  0
  158.7320  212.5280  154.4780 C   0  0  1  0  0  3  0  0  0  0  0  0
  159.0850  214.4370  149.8810 C   0  0  0  0  0  3  0  0  0  0  0  0
  160.0870  213.6010  150.3650 C   0  0  0  0  0  3  0  0  0  0  0  0
  157.8450  214.4100  150.5120 C   0  0  0  0  0  3  0  0  0  0  0  0
  158.6270  212.7690  152.0330 C   0  0  0  0  0  0  0  0  0  0  0  0
  157.6350  213.5810  151.5690 N   0  0  0  0  0  0  0  0  0  0  0  0
  159.8430  212.7870  151.4260 N   0  0  0  0  0  0  0  0  0  0  0  0
  2  3  1  0  0  0  0
  3  1  2  0  0  0  0
  4  2  1  0  0  0  0
  5  6  1  1  0  0  0
  5  4  1  0  0  0  0
  6  4  1  0  0  0  0
  7  5  1  6  0  0  0
  8 10  1  6  0  0  0
  8  9  1  0  0  0  0
  8  7  1  0  0  0  0
  9 12  1  1  0  0  0
  9  7  1  0  0  0  0
 10  9  1  0  0  0  0
 11 14  1  0  0  0  0
 12 15  1  0  0  0  0
 13 16  1  0  0  0  0
 13 12  2  0  0  0  0
 15 14  2  0  0  0  0
 16 11  2  0  0  0  0
 17 13  1  0  0  0  0
 18 17  3  0  0  0  0
 19  3  1  1  0  0  0
 19 21  1  0  0  0  0
 21 20  2  0  0  0  0
 21 22  1  0  0  0  0
 23 19  1  0  0  0  0
 24 31  1  6  0  0  0
 24 26  1  0  0  0  0
 24 25  1  0  0  0  0
 24 27  1  0  0  0  0
 26 27  1  0  0  0  0
 26 23  1  1  0  0  0
 27 25  1  1  0  0  0
 28 29  1  0  0  0  0
 28 30  2  0  0  0  0
 29 33  2  0  0  0  0
 30 32  1  0  0  0  0
 32 31  2  0  0  0  0
 33 31  1  0  0  0  0
M  END
>  <MODEL>
1

>  <REMARK>
 VINA RESULT:      -8.1      0.000      0.000
  Name = 
  9 active torsions:
  status: ('A' for Active; 'I' for Inactive)
    1  A    between atoms: C_1  and  C_22
    2  A    between atoms: C_3  and  C_7
    3  A    between atoms: C_5  and  C_25
    4  A    between atoms: N_6  and  C_20
    5  A    between atoms: N_6  and  C_23
    6  A    between atoms: N_9  and  N_13
    7  A    between atoms: C_12  and  C_15
    8  A    between atoms: C_14  and  C_20
    9  A    between atoms: C_20  and  C_28
                            x       y       z     vdW  Elec       q    Type
                         _______ _______ _______ _____ _____    ______ ____

>  <TORSDO>
F 9

$$$$
=
 OpenBabel11042422353D

 33 39  0  0  1  0  0  0  0  0999 V2000
  160.7610  207.1120  154.8740 O   0  0  0  0  0  0  0  0  0  0  0  0
  160.8810  208.1300  152.7930 N   0  0  0  0  0  2  0  0  0  0  0  0
  160.8250  208.1840  154.2180 C   0  0  0  0  0  0  0  0  0  0  0  0
  160.9020  209.3070  152.0230 N   0  0  0  0  0  0  0  0  0  0  0  0
  161.5520  209.0790  150.7050 C   0  0  1  0  0  3  0  0  0  0  0  0
  162.3180  209.6470  151.8090 C   0  0  0  0  0  2  0  0  0  0  0  0
  161.9880  207.6360  150.4430 C   0  0  2  0  0  3  0  0  0  0  0  0
  162.5120  207.4930  149.0330 C   0  0  1  0  0  3  0  0  0  0  0  0
  161.1350  207.0490  149.3410 C   0  0  2  0  0  0  0  0  0  0  0  0
  161.4430  207.6490  148.0350 N   0  0  0  0  0  2  0  0  0  0  0  0
  160.8400  202.7400  149.6990 C   0  0  0  0  0  3  0  0  0  0  0  0
  161.0650  205.5310  149.3670 C   0  0  0  0  0  0  0  0  0  0  0  0
  161.2210  204.6550  148.2540 C   0  0  0  0  0  0  0  0  0  0  0  0
  160.6690  203.5880  150.7900 C   0  0  0  0  0  3  0  0  0  0  0  0
  160.7770  204.9700  150.6230 C   0  0  0  0  0  3  0  0  0  0  0  0
  161.1160  203.2720  148.4390 C   0  0  0  0  0  3  0  0  0  0  0  0
  161.5020  205.1080  146.9130 C   0  0  0  0  0  0  0  0  0  0  0  0
  161.7250  205.4670  145.8350 N   0  0  0  0  0  0  0  0  0  0  0  0
  160.8320  209.5070  154.9310 C   0  0  2  0  0  3  0  0  0  0  0  0
  161.9450  208.5980  156.8810 N   0  0  0  0  0  2  0  0  0  0  0  0
  161.8690  209.5430  156.0160 C   0  0  0  0  0  0  0  0  0  0  0  0
  162.8300  210.6830  156.0820 C   0  0  0  0  0  1  0  0  0  0  0  0
  159.5140  209.8070  155.4690 N   0  0  0  0  0  2  0  0  0  0  0  0
  157.6600  211.3680  155.2630 C   0  0  2  0  0  0  0  0  0  0  0  0
  157.4390  211.5990  156.7430 C   0  0  0  0  0  2  0  0  0  0  0  0
  159.1230  211.1130  154.9570 C   0  0  1  0  0  3  0  0  0  0  0  0
  158.7490  212.0180  156.1100 C   0  0  1  0  0  3  0  0  0  0  0  0
  155.9700  214.2830  152.6500 C   0  0  0  0  0  3  0  0  0  0  0  0
  157.2590  213.7950  152.4570 C   0  0  0  0  0  3  0  0  0  0  0  0
  155.2420  213.8050  153.7360 C   0  0  0  0  0  3  0  0  0  0  0  0
  157.0560  212.4190  154.3730 C   0  0  0  0  0  0  0  0  0  0  0  0
  155.7900  212.8860  154.5730 N   0  0  0  0  0  0  0  0  0  0  0  0
  157.7770  212.8780  153.3150 N   0  0  0  0  0  0  0  0  0  0  0  0
  2  3  1  0  0  0  0
  3  1  2  0  0  0  0
  4  2  1  0  0  0  0
  5  6  1  1  0  0  0
  5  4  1  0  0  0  0
  6  4  1  0  0  0  0
  7  5  1  6  0  0  0
  8 10  1  6  0  0  0
  8  9  1  0  0  0  0
  8  7  1  0  0  0  0
  9 12  1  1  0  0  0
  9  7  1  0  0  0  0
 10  9  1  0  0  0  0
 11 14  1  0  0  0  0
 12 15  1  0  0  0  0
 13 16  1  0  0  0  0
 13 12  2  0  0  0  0
 15 14  2  0  0  0  0
 16 11  2  0  0  0  0
 17 13  1  0  0  0  0
 18 17  3  0  0  0  0
 19  3  1  1  0  0  0
 19 23  1  0  0  0  0
 19 21  1  0  0  0  0
 21 22  1  0  0  0  0
 21 20  2  0  0  0  0
 24 31  1  6  0  0  0
 24 27  1  0  0  0  0
 24 25  1  0  0  0  0
 26 24  1  0  0  0  0
 26 23  1  1  0  0  0
 26 27  1  0  0  0  0
 27 25  1  1  0  0  0
 28 30  2  0  0  0  0
 29 28  1  0  0  0  0
 29 33  2  0  0  0  0
 30 32  1  0  0  0  0
 31 32  2  0  0  0  0
 33 31  1  0  0  0  0
M  END
>  <MODEL>
2

>  <REMARK>
 VINA RESULT:      -8.0      1.315      1.794
  Name = 
  9 active torsions:
  status: ('A' for Active; 'I' for Inactive)
    1  A    between atoms: C_1  and  C_22
    2  A    between atoms: C_3  and  C_7
    3  A    between atoms: C_5  and  C_25
    4  A    between atoms: N_6  and  C_20
    5  A    between atoms: N_6  and  C_23
    6  A    between atoms: N_9  and  N_13
    7  A    between atoms: C_12  and  C_15
    8  A    between atoms: C_14  and  C_20
    9  A    between atoms: C_20  and  C_28
                            x       y       z     vdW  Elec       q    Type
                         _______ _______ _______ _____ _____    ______ ____

>  <TORSDO>
F 9

$$$$
=
 OpenBabel11042422353D

 33 39  0  0  1  0  0  0  0  0999 V2000
  162.1370  206.7010  152.9420 O   0  0  0  0  0  0  0  0  0  0  0  0
  161.7770  207.0800  150.6820 N   0  0  0  0  0  2  0  0  0  0  0  0
  161.6530  207.4510  152.0550 C   0  0  0  0  0  0  0  0  0  0  0  0
  161.2060  207.8640  149.6650 N   0  0  0  0  0  0  0  0  0  0  0  0
  161.2130  207.1480  148.3620 C   0  0  1  0  0  3  0  0  0  0  0  0
  162.2660  208.1080  148.6730 C   0  0  0  0  0  2  0  0  0  0  0  0
  161.7620  205.7210  148.4140 C   0  0  2  0  0  3  0  0  0  0  0  0
  162.2790  205.3050  147.0570 C   0  0  1  0  0  3  0  0  0  0  0  0
  160.9470  204.8380  147.4970 C   0  0  2  0  0  0  0  0  0  0  0  0
  161.1890  205.1510  146.0820 N   0  0  0  0  0  2  0  0  0  0  0  0
  161.1900  200.5780  148.2600 C   0  0  0  0  0  3  0  0  0  0  0  0
  161.0020  203.3630  147.8630 C   0  0  0  0  0  0  0  0  0  0  0  0
  160.8740  202.8080  149.1690 C   0  0  0  0  0  0  0  0  0  0  0  0
  161.3330  201.1110  146.9810 C   0  0  0  0  0  3  0  0  0  0  0  0
  161.2440  202.4920  146.7880 C   0  0  0  0  0  3  0  0  0  0  0  0
  160.9610  201.4230  149.3460 C   0  0  0  0  0  3  0  0  0  0  0  0
  160.6420  203.5980  150.3540 C   0  0  0  0  0  0  0  0  0  0  0  0
  160.4520  204.2270  151.3070 N   0  0  0  0  0  0  0  0  0  0  0  0
  160.9440  208.7180  152.4400 C   0  0  2  0  0  3  0  0  0  0  0  0
  162.9420  210.0190  152.0100 N   0  0  0  0  0  2  0  0  0  0  0  0
  161.6640  209.9310  151.9270 C   0  0  0  0  0  0  0  0  0  0  0  0
  160.8880  211.0400  151.2990 C   0  0  0  0  0  1  0  0  0  0  0  0
  160.7740  208.7940  153.8830 N   0  0  0  0  0  2  0  0  0  0  0  0
  159.3810  209.9580  155.5020 C   0  0  2  0  0  0  0  0  0  0  0  0
  160.3500  209.9030  156.6630 C   0  0  0  0  0  2  0  0  0  0  0  0
  160.1120  210.0570  154.1770 C   0  0  1  0  0  3  0  0  0  0  0  0
  160.7250  210.6740  155.4150 C   0  0  1  0  0  3  0  0  0  0  0  0
  156.2400  212.8220  155.8480 C   0  0  0  0  0  3  0  0  0  0  0  0
  156.6310  212.3180  154.6110 C   0  0  0  0  0  3  0  0  0  0  0  0
  156.9160  212.3770  156.9810 C   0  0  0  0  0  3  0  0  0  0  0  0
  158.2970  210.9910  155.6440 C   0  0  0  0  0  0  0  0  0  0  0  0
  157.9240  211.4740  156.8640 N   0  0  0  0  0  0  0  0  0  0  0  0
  157.6450  211.4180  154.5290 N   0  0  0  0  0  0  0  0  0  0  0  0
  2  3  1  0  0  0  0
  3 19  1  0  0  0  0
  3  1  2  0  0  0  0
  4  2  1  0  0  0  0
  5  6  1  6  0  0  0
  5  4  1  0  0  0  0
  6  4  1  0  0  0  0
  7  5  1  6  0  0  0
  8 10  1  6  0  0  0
  8  9  1  0  0  0  0
  8  7  1  0  0  0  0
  9 12  1  1  0  0  0
  9  7  1  0  0  0  0
 10  9  1  0  0  0  0
 11 16  1  0  0  0  0
 12 13  1  0  0  0  0
 13 16  2  0  0  0  0
 13 17  1  0  0  0  0
 14 11  2  0  0  0  0
 15 14  1  0  0  0  0
 15 12  2  0  0  0  0
 17 18  3  0  0  0  0
 19 21  1  1  0  0  0
 19 23  1  0  0  0  0
 21 20  2  0  0  0  0
 22 21  1  0  0  0  0
 24 31  1  1  0  0  0
 24 25  1  0  0  0  0
 26 23  1  1  0  0  0
 26 27  1  0  0  0  0
 26 24  1  0  0  0  0
 27 24  1  0  0  0  0
 27 25  1  1  0  0  0
 28 30  2  0  0  0  0
 29 28  1  0  0  0  0
 31 32  2  0  0  0  0
 32 30  1  0  0  0  0
 33 29  2  0  0  0  0
 33 31  1  0  0  0  0
M  END
>  <MODEL>
3

>  <REMARK>
 VINA RESULT:      -7.5      2.111      3.913
  Name = 
  9 active torsions:
  status: ('A' for Active; 'I' for Inactive)
    1  A    between atoms: C_1  and  C_22
    2  A    between atoms: C_3  and  C_7
    3  A    between atoms: C_5  and  C_25
    4  A    between atoms: N_6  and  C_20
    5  A    between atoms: N_6  and  C_23
    6  A    between atoms: N_9  and  N_13
    7  A    between atoms: C_12  and  C_15
    8  A    between atoms: C_14  and  C_20
    9  A    between atoms: C_20  and  C_28
                            x       y       z     vdW  Elec       q    Type
                         _______ _______ _______ _____ _____    ______ ____

>  <TORSDO>
F 9

$$$$
=
 OpenBabel11042422353D

 33 39  0  0  1  0  0  0  0  0999 V2000
  161.4390  207.2110  152.6710 O   0  0  0  0  0  0  0  0  0  0  0  0
  161.3990  207.1870  150.3520 N   0  0  0  0  0  2  0  0  0  0  0  0
  161.2470  207.8520  151.6060 C   0  0  0  0  0  0  0  0  0  0  0  0
  161.1450  207.8550  149.1420 N   0  0  0  0  0  0  0  0  0  0  0  0
  161.4770  206.9990  147.9710 C   0  0  1  0  0  3  0  0  0  0  0  0
  162.4380  207.9860  148.4500 C   0  0  0  0  0  2  0  0  0  0  0  0
  161.9470  205.5860  148.3210 C   0  0  2  0  0  3  0  0  0  0  0  0
  162.3130  204.8280  147.0660 C   0  0  1  0  0  3  0  0  0  0  0  0
  161.0040  204.5790  147.7050 C   0  0  2  0  0  0  0  0  0  0  0  0
  161.1310  204.5350  146.2420 N   0  0  0  0  0  2  0  0  0  0  0  0
  161.0130  200.8800  149.9650 C   0  0  0  0  0  3  0  0  0  0  0  0
  161.0090  203.2290  148.4060 C   0  0  0  0  0  0  0  0  0  0  0  0
  160.8570  201.9530  147.7910 C   0  0  0  0  0  0  0  0  0  0  0  0
  161.1450  202.1240  150.5780 C   0  0  0  0  0  3  0  0  0  0  0  0
  161.1390  203.2860  149.8040 C   0  0  0  0  0  3  0  0  0  0  0  0
  160.8710  200.7970  148.5800 C   0  0  0  0  0  3  0  0  0  0  0  0
  160.6980  201.7640  146.3700 C   0  0  0  0  0  0  0  0  0  0  0  0
  160.5670  201.6170  145.2290 N   0  0  0  0  0  0  0  0  0  0  0  0
  160.8530  209.3010  151.6560 C   0  0  2  0  0  3  0  0  0  0  0  0
  163.0640  210.2070  152.0550 N   0  0  0  0  0  2  0  0  0  0  0  0
  162.0090  210.2000  151.3240 C   0  0  0  0  0  0  0  0  0  0  0  0
  161.9370  211.0810  150.1220 C   0  0  0  0  0  1  0  0  0  0  0  0
  160.2980  209.6380  152.9580 N   0  0  0  0  0  2  0  0  0  0  0  0
  158.7400  211.1810  154.0110 C   0  0  2  0  0  0  0  0  0  0  0  0
  159.5100  211.3820  155.2980 C   0  0  0  0  0  2  0  0  0  0  0  0
  159.6750  210.9480  152.8390 C   0  0  1  0  0  3  0  0  0  0  0  0
  160.1210  211.8280  153.9870 C   0  0  1  0  0  3  0  0  0  0  0  0
  155.8350  214.2240  153.3150 C   0  0  0  0  0  3  0  0  0  0  0  0
  155.7340  213.3580  154.4000 C   0  0  0  0  0  3  0  0  0  0  0  0
  156.9080  214.0630  152.4440 C   0  0  0  0  0  3  0  0  0  0  0  0
  157.7110  212.2410  153.7290 C   0  0  0  0  0  0  0  0  0  0  0  0
  157.8250  213.0840  152.6630 N   0  0  0  0  0  0  0  0  0  0  0  0
  156.6670  212.3870  154.5880 N   0  0  0  0  0  0  0  0  0  0  0  0
  2  3  1  0  0  0  0
  3 19  1  0  0  0  0
  3  1  2  0  0  0  0
  4  2  1  0  0  0  0
  5  6  1  1  0  0  0
  5  4  1  0  0  0  0
  6  4  1  0  0  0  0
  7  5  1  6  0  0  0
  8 10  1  6  0  0  0
  8  9  1  0  0  0  0
  8  7  1  0  0  0  0
  9  7  1  0  0  0  0
  9 12  1  1  0  0  0
 10  9  1  0  0  0  0
 11 14  1  0  0  0  0
 12 15  1  0  0  0  0
 13 12  2  0  0  0  0
 13 16  1  0  0  0  0
 15 14  2  0  0  0  0
 16 11  2  0  0  0  0
 17 13  1  0  0  0  0
 18 17  3  0  0  0  0
 19 21  1  1  0  0  0
 19 23  1  0  0  0  0
 21 20  2  0  0  0  0
 22 21  1  0  0  0  0
 24 31  1  6  0  0  0
 24 25  1  0  0  0  0
 26 23  1  1  0  0  0
 26 27  1  0  0  0  0
 26 24  1  0  0  0  0
 27 24  1  0  0  0  0
 27 25  1  1  0  0  0
 28 29  1  0  0  0  0
 29 33  2  0  0  0  0
 30 32  1  0  0  0  0
 30 28  2  0  0  0  0
 31 33  1  0  0  0  0
 32 31  2  0  0  0  0
M  END
>  <MODEL>
4

>  <REMARK>
 VINA RESULT:      -7.3      1.886      3.291
  Name = 
  9 active torsions:
  status: ('A' for Active; 'I' for Inactive)
    1  A    between atoms: C_1  and  C_22
    2  A    between atoms: C_3  and  C_7
    3  A    between atoms: C_5  and  C_25
    4  A    between atoms: N_6  and  C_20
    5  A    between atoms: N_6  and  C_23
    6  A    between atoms: N_9  and  N_13
    7  A    between atoms: C_12  and  C_15
    8  A    between atoms: C_14  and  C_20
    9  A    between atoms: C_20  and  C_28
                            x       y       z     vdW  Elec       q    Type
                         _______ _______ _______ _____ _____    ______ ____

>  <TORSDO>
F 9

$$$$
=
 OpenBabel11042422353D

 33 39  0  0  1  0  0  0  0  0999 V2000
  161.6110  206.5130  154.5740 O   0  0  0  0  0  0  0  0  0  0  0  0
  161.3340  207.4520  152.4710 N   0  0  0  0  0  2  0  0  0  0  0  0
  161.3580  207.5420  153.8950 C   0  0  0  0  0  0  0  0  0  0  0  0
  161.0060  208.5670  151.6800 N   0  0  0  0  0  0  0  0  0  0  0  0
  161.2720  208.3060  150.2400 C   0  0  1  0  0  3  0  0  0  0  0  0
  162.2550  209.0200  151.0460 C   0  0  0  0  0  2  0  0  0  0  0  0
  161.7680  206.8930  149.9230 C   0  0  2  0  0  3  0  0  0  0  0  0
  162.4540  206.8660  148.5780 C   0  0  1  0  0  3  0  0  0  0  0  0
  161.0620  206.3820  148.6880 C   0  0  2  0  0  0  0  0  0  0  0  0
  161.5050  207.0840  147.4760 N   0  0  0  0  0  2  0  0  0  0  0  0
  161.0470  202.0830  148.1320 C   0  0  0  0  0  3  0  0  0  0  0  0
  161.0240  204.8640  148.5920 C   0  0  0  0  0  0  0  0  0  0  0  0
  160.8230  203.9510  149.6680 C   0  0  0  0  0  0  0  0  0  0  0  0
  161.2610  202.9660  147.0760 C   0  0  0  0  0  3  0  0  0  0  0  0
  161.2540  204.3440  147.3080 C   0  0  0  0  0  3  0  0  0  0  0  0
  160.8280  202.5740  149.4190 C   0  0  0  0  0  3  0  0  0  0  0  0
  160.5950  204.3610  151.0320 C   0  0  0  0  0  0  0  0  0  0  0  0
  160.4100  204.6950  152.1250 N   0  0  0  0  0  0  0  0  0  0  0  0
  161.0750  208.8480  154.5810 C   0  0  2  0  0  3  0  0  0  0  0  0
  162.0620  209.2500  156.7560 N   0  0  0  0  0  2  0  0  0  0  0  0
  161.1190  208.7080  156.0750 C   0  0  0  0  0  0  0  0  0  0  0  0
  160.0460  207.9450  156.7770 C   0  0  0  0  0  1  0  0  0  0  0  0
  159.7920  209.3860  154.1520 N   0  0  0  0  0  2  0  0  0  0  0  0
  158.7360  211.3660  153.2140 C   0  0  2  0  0  0  0  0  0  0  0  0
  158.0460  211.8320  154.4780 C   0  0  0  0  0  2  0  0  0  0  0  0
  160.0490  210.6740  153.5250 C   0  0  1  0  0  3  0  0  0  0  0  0
  159.5590  211.7850  154.4270 C   0  0  1  0  0  3  0  0  0  0  0  0
  159.0970  214.4400  150.2810 C   0  0  0  0  0  3  0  0  0  0  0  0
  157.9270  214.2710  151.0170 C   0  0  0  0  0  3  0  0  0  0  0  0
  160.1520  213.5640  150.5160 C   0  0  0  0  0  3  0  0  0  0  0  0
  158.8740  212.4230  152.1530 C   0  0  0  0  0  0  0  0  0  0  0  0
  160.0270  212.5780  151.4430 N   0  0  0  0  0  0  0  0  0  0  0  0
  157.8350  213.2730  151.9330 N   0  0  0  0  0  0  0  0  0  0  0  0
  2  3  1  0  0  0  0
  3  1  2  0  0  0  0
  4  2  1  0  0  0  0
  5  6  1  1  0  0  0
  5  4  1  0  0  0  0
  6  4  1  0  0  0  0
  7  5  1  6  0  0  0
  8 10  1  6  0  0  0
  8  9  1  0  0  0  0
  8  7  1  0  0  0  0
  9 12  1  6  0  0  0
  9  7  1  0  0  0  0
 10  9  1  0  0  0  0
 11 16  1  0  0  0  0
 12 13  1  0  0  0  0
 13 17  1  0  0  0  0
 14 15  1  0  0  0  0
 14 11  2  0  0  0  0
 15 12  2  0  0  0  0
 16 13  2  0  0  0  0
 17 18  3  0  0  0  0
 19  3  1  6  0  0  0
 19 21  1  0  0  0  0
 21 20  2  0  0  0  0
 21 22  1  0  0  0  0
 23 19  1  0  0  0  0
 24 31  1  6  0  0  0
 24 26  1  0  0  0  0
 24 27  1  0  0  0  0
 24 25  1  0  0  0  0
 26 23  1  1  0  0  0
 26 27  1  0  0  0  0
 27 25  1  1  0  0  0
 28 30  2  0  0  0  0
 28 29  1  0  0  0  0
 29 33  2  0  0  0  0
 30 32  1  0  0  0  0
 32 31  2  0  0  0  0
 33 31  1  0  0  0  0
M  END
>  <MODEL>
5

>  <REMARK>
 VINA RESULT:      -6.8      1.032      2.004
  Name = 
  9 active torsions:
  status: ('A' for Active; 'I' for Inactive)
    1  A    between atoms: C_1  and  C_22
    2  A    between atoms: C_3  and  C_7
    3  A    between atoms: C_5  and  C_25
    4  A    between atoms: N_6  and  C_20
    5  A    between atoms: N_6  and  C_23
    6  A    between atoms: N_9  and  N_13
    7  A    between atoms: C_12  and  C_15
    8  A    between atoms: C_14  and  C_20
    9  A    between atoms: C_20  and  C_28
                            x       y       z     vdW  Elec       q    Type
                         _______ _______ _______ _____ _____    ______ ____

>  <TORSDO>
F 9

$$$$
=
 OpenBabel11042422353D

 33 39  0  0  1  0  0  0  0  0999 V2000
  161.3650  207.1400  155.1710 O   0  0  0  0  0  0  0  0  0  0  0  0
  161.1950  207.9780  153.0150 N   0  0  0  0  0  2  0  0  0  0  0  0
  161.1800  208.1420  154.4330 C   0  0  0  0  0  0  0  0  0  0  0  0
  160.9420  209.0630  152.1580 N   0  0  0  0  0  0  0  0  0  0  0  0
  161.2900  208.7330  150.7500 C   0  0  1  0  0  3  0  0  0  0  0  0
  162.2380  209.4620  151.5850 C   0  0  0  0  0  2  0  0  0  0  0  0
  161.7730  207.2980  150.5260 C   0  0  2  0  0  3  0  0  0  0  0  0
  162.7260  207.2400  149.3550 C   0  0  1  0  0  3  0  0  0  0  0  0
  161.3200  206.8260  149.1640 C   0  0  2  0  0  0  0  0  0  0  0  0
  162.0420  207.5080  148.0820 N   0  0  0  0  0  2  0  0  0  0  0  0
  161.1110  202.5440  148.5240 C   0  0  0  0  0  3  0  0  0  0  0  0
  161.2290  205.3130  149.0420 C   0  0  0  0  0  0  0  0  0  0  0  0
  161.1690  204.3780  150.1160 C   0  0  0  0  0  0  0  0  0  0  0  0
  161.1860  203.4480  147.4680 C   0  0  0  0  0  3  0  0  0  0  0  0
  161.2490  204.8190  147.7270 C   0  0  0  0  0  3  0  0  0  0  0  0
  161.1010  203.0070  149.8400 C   0  0  0  0  0  3  0  0  0  0  0  0
  161.1590  204.7580  151.5080 C   0  0  0  0  0  0  0  0  0  0  0  0
  161.1570  205.0640  152.6240 N   0  0  0  0  0  0  0  0  0  0  0  0
  160.9350  209.4940  155.0410 C   0  0  2  0  0  3  0  0  0  0  0  0
  162.0220  209.5040  157.2060 N   0  0  0  0  0  2  0  0  0  0  0  0
  162.0400  209.8840  155.9810 C   0  0  0  0  0  0  0  0  0  0  0  0
  163.1770  210.7100  155.4800 C   0  0  0  0  0  1  0  0  0  0  0  0
  159.6480  209.5270  155.7190 N   0  0  0  0  0  2  0  0  0  0  0  0
  158.3350  211.4500  156.4220 C   0  0  2  0  0  0  0  0  0  0  0  0
  159.4050  212.1170  157.2600 C   0  0  0  0  0  2  0  0  0  0  0  0
  158.9390  210.7060  155.2460 C   0  0  1  0  0  3  0  0  0  0  0  0
  159.6190  211.9520  155.7700 C   0  0  1  0  0  3  0  0  0  0  0  0
  155.0970  213.9440  155.2050 C   0  0  0  0  0  3  0  0  0  0  0  0
  155.9440  213.3480  154.2750 C   0  0  0  0  0  3  0  0  0  0  0  0
  155.3420  213.7180  156.5570 C   0  0  0  0  0  3  0  0  0  0  0  0
  157.2060  212.3580  156.0160 C   0  0  0  0  0  0  0  0  0  0  0  0
  156.3830  212.9320  156.9390 N   0  0  0  0  0  0  0  0  0  0  0  0
  156.9780  212.5710  154.6930 N   0  0  0  0  0  0  0  0  0  0  0  0
  2  3  1  0  0  0  0
  3  1  2  0  0  0  0
  4  2  1  0  0  0  0
  5  6  1  1  0  0  0
  5  4  1  0  0  0  0
  6  4  1  0  0  0  0
  7  5  1  6  0  0  0
  8 10  1  6  0  0  0
  8  7  1  0  0  0  0
  9 12  1  6  0  0  0
  9  8  1  0  0  0  0
  9  7  1  0  0  0  0
 10  9  1  0  0  0  0
 11 16  1  0  0  0  0
 12 13  1  0  0  0  0
 13 17  1  0  0  0  0
 14 15  1  0  0  0  0
 14 11  2  0  0  0  0
 15 12  2  0  0  0  0
 16 13  2  0  0  0  0
 17 18  3  0  0  0  0
 19  3  1  1  0  0  0
 19 23  1  0  0  0  0
 19 21  1  0  0  0  0
 21 20  2  0  0  0  0
 22 21  1  0  0  0  0
 24 31  1  6  0  0  0
 24 25  1  0  0  0  0
 26 23  1  1  0  0  0
 26 27  1  0  0  0  0
 26 24  1  0  0  0  0
 27 24  1  0  0  0  0
 27 25  1  1  0  0  0
 28 30  2  0  0  0  0
 29 33  2  0  0  0  0
 29 28  1  0  0  0  0
 30 32  1  0  0  0  0
 31 32  2  0  0  0  0
 33 31  1  0  0  0  0
M  END
>  <MODEL>
6

>  <REMARK>
 VINA RESULT:      -6.8      2.149      3.176
  Name = 
  9 active torsions:
  status: ('A' for Active; 'I' for Inactive)
    1  A    between atoms: C_1  and  C_22
    2  A    between atoms: C_3  and  C_7
    3  A    between atoms: C_5  and  C_25
    4  A    between atoms: N_6  and  C_20
    5  A    between atoms: N_6  and  C_23
    6  A    between atoms: N_9  and  N_13
    7  A    between atoms: C_12  and  C_15
    8  A    between atoms: C_14  and  C_20
    9  A    between atoms: C_20  and  C_28
                            x       y       z     vdW  Elec       q    Type
                         _______ _______ _______ _____ _____    ______ ____

>  <TORSDO>
F 9

$$$$
=
 OpenBabel11042422353D

 33 39  0  0  1  0  0  0  0  0999 V2000
  162.3080  206.1960  153.7910 O   0  0  0  0  0  0  0  0  0  0  0  0
  161.7900  207.0500  151.6980 N   0  0  0  0  0  2  0  0  0  0  0  0
  161.8210  207.1430  153.1220 C   0  0  0  0  0  0  0  0  0  0  0  0
  161.2080  208.0640  150.9180 N   0  0  0  0  0  0  0  0  0  0  0  0
  161.2040  207.7020  149.4750 C   0  0  1  0  0  3  0  0  0  0  0  0
  162.2570  208.5570  150.0110 C   0  0  0  0  0  2  0  0  0  0  0  0
  161.7580  206.3100  149.1600 C   0  0  2  0  0  3  0  0  0  0  0  0
  162.1010  206.2010  147.6930 C   0  0  1  0  0  3  0  0  0  0  0  0
  160.8360  205.6160  148.1840 C   0  0  2  0  0  0  0  0  0  0  0  0
  160.8980  206.2230  146.8470 N   0  0  0  0  0  2  0  0  0  0  0  0
  161.2090  201.3010  148.0060 C   0  0  0  0  0  3  0  0  0  0  0  0
  160.9380  204.0990  148.2220 C   0  0  0  0  0  0  0  0  0  0  0  0
  160.8550  203.2730  149.3800 C   0  0  0  0  0  0  0  0  0  0  0  0
  161.3090  202.1010  146.8710 C   0  0  0  0  0  3  0  0  0  0  0  0
  161.1790  203.4870  146.9810 C   0  0  0  0  0  3  0  0  0  0  0  0
  160.9820  201.8850  149.2530 C   0  0  0  0  0  3  0  0  0  0  0  0
  160.6280  203.7820  150.7110 C   0  0  0  0  0  0  0  0  0  0  0  0
  160.4430  204.1950  151.7770 N   0  0  0  0  0  0  0  0  0  0  0  0
  161.2660  208.3540  153.8180 C   0  0  2  0  0  3  0  0  0  0  0  0
  159.8070  207.3050  155.4420 N   0  0  0  0  0  2  0  0  0  0  0  0
  160.8390  208.0360  155.2220 C   0  0  0  0  0  0  0  0  0  0  0  0
  161.6310  208.5610  156.3720 C   0  0  0  0  0  1  0  0  0  0  0  0
  160.1610  208.9210  153.0610 N   0  0  0  0  0  2  0  0  0  0  0  0
  160.3280  211.2450  153.7610 C   0  0  2  0  0  0  0  0  0  0  0  0
  160.1340  211.8700  152.3960 C   0  0  0  0  0  2  0  0  0  0  0  0
  159.5490  209.9490  153.8900 C   0  0  1  0  0  3  0  0  0  0  0  0
  159.0140  211.0570  153.0100 C   0  0  1  0  0  3  0  0  0  0  0  0
  159.7660  213.9100  157.0420 C   0  0  0  0  0  3  0  0  0  0  0  0
  160.5770  212.7840  157.1510 C   0  0  0  0  0  3  0  0  0  0  0  0
  159.1220  214.1410  155.8290 C   0  0  0  0  0  3  0  0  0  0  0  0
  160.0910  212.1810  154.9140 C   0  0  0  0  0  0  0  0  0  0  0  0
  159.2950  213.2810  154.7900 N   0  0  0  0  0  0  0  0  0  0  0  0
  160.7250  211.9440  156.0930 N   0  0  0  0  0  0  0  0  0  0  0  0
  2  3  1  0  0  0  0
  3  1  2  0  0  0  0
  3 19  1  0  0  0  0
  4  2  1  0  0  0  0
  5  6  1  6  0  0  0
  5  4  1  0  0  0  0
  6  4  1  0  0  0  0
  7  5  1  6  0  0  0
  8 10  1  6  0  0  0
  8  9  1  0  0  0  0
  8  7  1  0  0  0  0
  9 12  1  1  0  0  0
  9  7  1  0  0  0  0
 10  9  1  0  0  0  0
 11 16  1  0  0  0  0
 12 13  1  0  0  0  0
 13 17  1  0  0  0  0
 14 15  1  0  0  0  0
 14 11  2  0  0  0  0
 15 12  2  0  0  0  0
 16 13  2  0  0  0  0
 17 18  3  0  0  0  0
 19 23  1  6  0  0  0
 19 21  1  0  0  0  0
 21 20  2  0  0  0  0
 21 22  1  0  0  0  0
 24 26  1  0  0  0  0
 24 31  1  1  0  0  0
 25 24  1  0  0  0  0
 26 23  1  6  0  0  0
 27 25  1  6  0  0  0
 27 24  1  0  0  0  0
 27 26  1  0  0  0  0
 28 29  1  0  0  0  0
 30 28  2  0  0  0  0
 31 33  1  0  0  0  0
 32 31  2  0  0  0  0
 32 30  1  0  0  0  0
 33 29  2  0  0  0  0
M  END
>  <MODEL>
7

>  <REMARK>
 VINA RESULT:      -6.6      1.931      3.303
  Name = 
  9 active torsions:
  status: ('A' for Active; 'I' for Inactive)
    1  A    between atoms: C_1  and  C_22
    2  A    between atoms: C_3  and  C_7
    3  A    between atoms: C_5  and  C_25
    4  A    between atoms: N_6  and  C_20
    5  A    between atoms: N_6  and  C_23
    6  A    between atoms: N_9  and  N_13
    7  A    between atoms: C_12  and  C_15
    8  A    between atoms: C_14  and  C_20
    9  A    between atoms: C_20  and  C_28
                            x       y       z     vdW  Elec       q    Type
                         _______ _______ _______ _____ _____    ______ ____

>  <TORSDO>
F 9

$$$$
=
 OpenBabel11042422353D

 33 39  0  0  1  0  0  0  0  0999 V2000
  162.6810  210.2880  153.1820 O   0  0  0  0  0  0  0  0  0  0  0  0
  160.6280  211.2840  152.7660 N   0  0  0  0  0  2  0  0  0  0  0  0
  161.4450  210.3090  153.4150 C   0  0  0  0  0  0  0  0  0  0  0  0
  159.2360  211.3080  152.9600 N   0  0  0  0  0  0  0  0  0  0  0  0
  158.5880  212.3350  152.1020 C   0  0  1  0  0  3  0  0  0  0  0  0
  158.9050  212.6400  153.4920 C   0  0  0  0  0  2  0  0  0  0  0  0
  159.5380  213.0820  151.1630 C   0  0  2  0  0  3  0  0  0  0  0  0
  158.9910  214.4530  150.8430 C   0  0  1  0  0  3  0  0  0  0  0  0
  158.8310  213.3630  149.8570 C   0  0  2  0  0  0  0  0  0  0  0  0
  157.7800  214.3770  150.0130 N   0  0  0  0  0  2  0  0  0  0  0  0
  161.7470  213.9990  146.7130 C   0  0  0  0  0  3  0  0  0  0  0  0
  159.7770  213.5720  148.6840 C   0  0  0  0  0  0  0  0  0  0  0  0
  159.4830  213.3500  147.3080 C   0  0  0  0  0  0  0  0  0  0  0  0
  162.0500  214.2020  148.0570 C   0  0  0  0  0  3  0  0  0  0  0  0
  161.0740  213.9860  149.0320 C   0  0  0  0  0  3  0  0  0  0  0  0
  160.4710  213.5760  146.3420 C   0  0  0  0  0  3  0  0  0  0  0  0
  158.1970  212.9080  146.8260 C   0  0  0  0  0  0  0  0  0  0  0  0
  157.1640  212.5500  146.4440 N   0  0  0  0  0  0  0  0  0  0  0  0
  160.8350  209.3110  154.3580 C   0  0  2  0  0  3  0  0  0  0  0  0
  160.5860  210.7890  156.2610 N   0  0  0  0  0  2  0  0  0  0  0  0
  161.0650  209.6950  155.7910 C   0  0  0  0  0  0  0  0  0  0  0  0
  161.8440  208.7880  156.6830 C   0  0  0  0  0  1  0  0  0  0  0  0
  161.3490  207.9760  154.0950 N   0  0  0  0  0  2  0  0  0  0  0  0
  161.9350  206.9030  151.9920 C   0  0  2  0  0  0  0  0  0  0  0  0
  162.3100  205.5520  152.5640 C   0  0  0  0  0  2  0  0  0  0  0  0
  160.8320  207.5580  152.8010 C   0  0  1  0  0  3  0  0  0  0  0  0
  160.8860  206.0490  152.6950 C   0  0  1  0  0  3  0  0  0  0  0  0
  161.2260  206.9010  147.7870 C   0  0  0  0  0  3  0  0  0  0  0  0
  161.8820  207.9570  148.4130 C   0  0  0  0  0  3  0  0  0  0  0  0
  160.7870  205.8410  148.5760 C   0  0  0  0  0  3  0  0  0  0  0  0
  161.6470  206.8960  150.5160 C   0  0  0  0  0  0  0  0  0  0  0  0
  161.0050  205.8530  149.9170 N   0  0  0  0  0  0  0  0  0  0  0  0
  162.0810  207.9380  149.7570 N   0  0  0  0  0  0  0  0  0  0  0  0
  1  3  2  0  0  0  0
  2  4  1  0  0  0  0
  2  3  1  0  0  0  0
  4  6  1  0  0  0  0
  5  4  1  0  0  0  0
  5  6  1  1  0  0  0
  7  5  1  1  0  0  0
  8 10  1  1  0  0  0
  8  7  1  0  0  0  0
  9 12  1  6  0  0  0
  9 10  1  0  0  0  0
  9  8  1  0  0  0  0
  9  7  1  0  0  0  0
 11 14  1  0  0  0  0
 12 15  1  0  0  0  0
 13 12  2  0  0  0  0
 14 15  2  0  0  0  0
 16 11  2  0  0  0  0
 16 13  1  0  0  0  0
 17 13  1  0  0  0  0
 18 17  3  0  0  0  0
 19  3  1  6  0  0  0
 19 21  1  0  0  0  0
 21 20  2  0  0  0  0
 21 22  1  0  0  0  0
 23 19  1  0  0  0  0
 24 31  1  6  0  0  0
 24 25  1  0  0  0  0
 24 27  1  0  0  0  0
 24 26  1  0  0  0  0
 26 23  1  1  0  0  0
 27 25  1  1  0  0  0
 27 26  1  0  0  0  0
 28 29  1  0  0  0  0
 28 30  2  0  0  0  0
 29 33  2  0  0  0  0
 30 32  1  0  0  0  0
 32 31  2  0  0  0  0
 33 31  1  0  0  0  0
M  END
>  <MODEL>
8

>  <REMARK>
 VINA RESULT:      -6.6      2.266      6.964
  Name = 
  9 active torsions:
  status: ('A' for Active; 'I' for Inactive)
    1  A    between atoms: C_1  and  C_22
    2  A    between atoms: C_3  and  C_7
    3  A    between atoms: C_5  and  C_25
    4  A    between atoms: N_6  and  C_20
    5  A    between atoms: N_6  and  C_23
    6  A    between atoms: N_9  and  N_13
    7  A    between atoms: C_12  and  C_15
    8  A    between atoms: C_14  and  C_20
    9  A    between atoms: C_20  and  C_28
                            x       y       z     vdW  Elec       q    Type
                         _______ _______ _______ _____ _____    ______ ____

>  <TORSDO>
F 9

$$$$
=
 OpenBabel11042422353D

 33 39  0  0  1  0  0  0  0  0999 V2000
  157.7470  211.0510  152.5100 O   0  0  0  0  0  0  0  0  0  0  0  0
  159.8760  210.1640  152.7540 N   0  0  0  0  0  2  0  0  0  0  0  0
  158.9600  211.2580  152.7710 C   0  0  0  0  0  0  0  0  0  0  0  0
  161.2480  210.3630  152.9900 N   0  0  0  0  0  0  0  0  0  0  0  0
  162.0350  209.1440  152.6640 C   0  0  1  0  0  3  0  0  0  0  0  0
  161.6390  209.4100  154.0420 C   0  0  0  0  0  2  0  0  0  0  0  0
  161.2180  207.9850  152.0900 C   0  0  2  0  0  3  0  0  0  0  0  0
  161.0720  206.8860  153.1160 C   0  0  1  0  0  3  0  0  0  0  0  0
  162.0780  206.7430  152.0430 C   0  0  2  0  0  0  0  0  0  0  0  0
  162.3530  206.2180  153.3880 N   0  0  0  0  0  2  0  0  0  0  0  0
  160.7180  203.6300  149.3510 C   0  0  0  0  0  3  0  0  0  0  0  0
  161.6150  205.7180  151.0200 C   0  0  0  0  0  0  0  0  0  0  0  0
  161.3470  205.9580  149.6410 C   0  0  0  0  0  0  0  0  0  0  0  0
  160.9600  203.3880  150.7010 C   0  0  0  0  0  3  0  0  0  0  0  0
  161.4000  204.4260  151.5270 C   0  0  0  0  0  3  0  0  0  0  0  0
  160.9120  204.9070  148.8250 C   0  0  0  0  0  3  0  0  0  0  0  0
  161.5120  207.2430  149.0060 C   0  0  0  0  0  0  0  0  0  0  0  0
  161.6380  208.2760  148.4980 N   0  0  0  0  0  0  0  0  0  0  0  0
  159.4380  212.6470  153.0870 C   0  0  2  0  0  3  0  0  0  0  0  0
  160.1660  212.4380  155.3880 N   0  0  0  0  0  2  0  0  0  0  0  0
  159.3330  212.9460  154.5550 C   0  0  0  0  0  0  0  0  0  0  0  0
  158.2580  213.8560  155.0470 C   0  0  0  0  0  1  0  0  0  0  0  0
  158.7060  213.6330  152.3080 N   0  0  0  0  0  2  0  0  0  0  0  0
  159.0320  212.9930  149.9840 C   0  0  2  0  0  0  0  0  0  0  0  0
  157.6550  213.3750  149.4850 C   0  0  0  0  0  2  0  0  0  0  0  0
  159.4840  213.9040  151.1080 C   0  0  1  0  0  3  0  0  0  0  0  0
  158.5770  214.4480  150.0260 C   0  0  1  0  0  3  0  0  0  0  0  0
  161.9300  212.6720  146.8720 C   0  0  0  0  0  3  0  0  0  0  0  0
  160.5740  212.8100  146.5900 C   0  0  0  0  0  3  0  0  0  0  0  0
  162.3220  212.6240  148.2070 C   0  0  0  0  0  3  0  0  0  0  0  0
  160.0670  212.8470  148.9030 C   0  0  0  0  0  0  0  0  0  0  0  0
  161.3920  212.7140  149.1950 N   0  0  0  0  0  0  0  0  0  0  0  0
  159.6710  212.8940  147.6030 N   0  0  0  0  0  0  0  0  0  0  0  0
  1  3  2  0  0  0  0
  2  3  1  0  0  0  0
  2  4  1  0  0  0  0
  3 19  1  0  0  0  0
  4  6  1  0  0  0  0
  5  4  1  0  0  0  0
  5  6  1  1  0  0  0
  7  5  1  1  0  0  0
  7  8  1  0  0  0  0
  8 10  1  1  0  0  0
  9 12  1  6  0  0  0
  9  7  1  0  0  0  0
  9  8  1  0  0  0  0
  9 10  1  0  0  0  0
 11 14  1  0  0  0  0
 12 15  1  0  0  0  0
 13 12  2  0  0  0  0
 14 15  2  0  0  0  0
 16 11  2  0  0  0  0
 16 13  1  0  0  0  0
 17 13  1  0  0  0  0
 18 17  3  0  0  0  0
 19 23  1  6  0  0  0
 19 21  1  0  0  0  0
 21 22  1  0  0  0  0
 21 20  2  0  0  0  0
 24 31  1  6  0  0  0
 24 27  1  0  0  0  0
 24 26  1  0  0  0  0
 25 24  1  0  0  0  0
 26 23  1  1  0  0  0
 27 25  1  1  0  0  0
 27 26  1  0  0  0  0
 28 30  2  0  0  0  0
 29 28  1  0  0  0  0
 29 33  2  0  0  0  0
 30 32  1  0  0  0  0
 31 32  2  0  0  0  0
 33 31  1  0  0  0  0
M  END
>  <MODEL>
9

>  <REMARK>
 VINA RESULT:      -6.6      2.087      3.655
  Name = 
  9 active torsions:
  status: ('A' for Active; 'I' for Inactive)
    1  A    between atoms: C_1  and  C_22
    2  A    between atoms: C_3  and  C_7
    3  A    between atoms: C_5  and  C_25
    4  A    between atoms: N_6  and  C_20
    5  A    between atoms: N_6  and  C_23
    6  A    between atoms: N_9  and  N_13
    7  A    between atoms: C_12  and  C_15
    8  A    between atoms: C_14  and  C_20
    9  A    between atoms: C_20  and  C_28
                            x       y       z     vdW  Elec       q    Type
                         _______ _______ _______ _____ _____    ______ ____

>  <TORSDO>
F 9

$$$$
