=
 OpenBabel11042420393D

 45 48  0  0  1  0  0  0  0  0999 V2000
  161.5330  209.4190  149.1050 C   0  0  0  0  0  0  0  0  0  0  0  0
  161.2590  209.5300  152.7540 N   0  0  0  0  0  2  0  0  0  0  0  0
  161.4470  213.7670  149.3040 C   0  0  1  0  0  3  0  0  0  0  0  0
  161.3870  212.6170  147.0460 C   0  0  0  0  0  0  0  0  0  0  0  0
  161.6160  208.0460  148.8560 C   0  0  0  0  0  3  0  0  0  0  0  0
  158.6750  212.1470  153.7860 O   0  0  0  0  0  0  0  0  0  0  0  0
  161.3380  212.1980  145.7800 C   0  0  0  0  0  3  0  0  0  0  0  0
  161.5120  212.3100  149.3230 N   0  0  0  0  0  0  0  0  0  0  0  0
  161.5890  207.1750  149.9000 N   0  0  0  0  0  0  0  0  0  0  0  0
  157.1300  214.1900  151.1620 C   0  0  0  0  0  2  0  0  0  0  0  0
  160.8440  209.6200  155.1880 N   0  0  0  0  0  0  0  0  0  0  0  0
  161.4340  209.8470  150.3910 N   0  0  0  0  0  0  0  0  0  0  0  0
  159.0260  210.8290  154.0940 C   0  0  0  0  0  0  0  0  0  0  0  0
  157.9610  213.7660  152.1140 C   0  0  0  0  0  0  0  0  0  0  0  0
  161.4820  211.7230  148.1750 C   0  0  0  0  0  0  0  0  0  0  0  0
  158.5350  209.8710  153.4340 O   0  0  0  0  0  0  0  0  0  0  0  0
  161.3060  214.3260  147.5600 S   0  0  0  0  0  0  0  0  0  0  0  0
  161.4140  208.9880  151.4400 C   0  0  0  0  0  0  0  0  0  0  0  0
  161.4840  207.6130  151.1850 C   0  0  0  0  0  3  0  0  0  0  0  0
  159.9350  210.5590  155.2250 C   0  0  0  0  0  0  0  0  0  0  0  0
  160.3100  213.7600  151.4710 N   0  0  0  0  0  2  0  0  0  0  0  0
  157.6930  212.4450  152.7960 C   0  0  2  0  0  3  0  0  0  0  0  0
  161.5350  210.3260  148.0360 O   0  0  0  0  0  0  0  0  0  0  0  0
  161.2380  208.8700  154.0300 C   0  0  0  0  0  0  0  0  0  0  0  0
  160.2450  214.2530  150.1000 C   0  0  0  0  0  2  0  0  0  0  0  0
  159.2900  214.4520  152.2470 C   0  0  0  0  0  2  0  0  0  0  0  0
  162.0110  207.4450  154.2590 S   0  0  0  0  0  0  0  0  0  0  0  0
  160.8850  211.7850  157.1440 C   0  0  0  0  0  1  0  0  0  0  0  0
  159.7800  211.3330  156.3760 O   0  0  0  0  0  0  0  0  0  0  0  0
  156.3170  212.5800  154.9150 C   0  0  0  0  0  1  0  0  0  0  0  0
  156.2910  212.3770  153.4080 C   0  0  0  0  0  2  0  0  0  0  0  0
  161.2380  213.1280  144.6130 C   0  0  0  0  0  2  0  0  0  0  0  0
  161.3920  212.1790  142.3460 C   0  0  0  0  0  3  0  0  0  0  0  0
  162.0140  212.6070  143.4450 C   0  0  0  0  0  3  0  0  0  0  0  0
  162.5250  212.7840  140.2420 C   0  0  0  0  0  2  0  0  0  0  0  0
  162.4840  211.1900  138.3130 C   0  0  0  0  0  2  0  0  0  0  0  0
  161.3490  210.5860  140.4530 C   0  0  0  0  0  2  0  0  0  0  0  0
  162.1700  211.6420  141.1920 C   0  0  2  0  0  3  0  0  0  0  0  0
  163.3050  212.2480  139.0440 C   0  0  0  0  0  2  0  0  0  0  0  0
  162.1350  210.0390  139.2590 C   0  0  1  0  0  3  0  0  0  0  0  0
  161.3220  208.9700  138.5240 C   0  0  1  0  0  3  0  0  0  0  0  0
  161.2800  209.2470  137.1550 O   0  0  0  0  0  1  0  0  0  0  0  0
  162.2420  206.9170  137.7820 O   0  0  0  0  0  0  0  0  0  0  0  0
  161.8920  207.5980  138.7340 C   0  0  0  0  0  0  0  0  0  0  0  0
  162.0310  207.0620  140.1170 C   0  0  0  0  0  1  0  0  0  0  0  0
  1 12  2  0  0  0  0
  2 24  1  0  0  0  0
  3  8  1  0  0  0  0
  3 25  1  1  0  0  0
  4 17  1  0  0  0  0
  4 15  1  0  0  0  0
  5  1  1  0  0  0  0
  5  9  2  0  0  0  0
  6 13  1  0  0  0  0
  7  4  2  0  0  0  0
  9 19  1  0  0  0  0
 10 14  2  0  0  0  0
 11 20  2  0  0  0  0
 12 18  1  0  0  0  0
 13 20  1  0  0  0  0
 14 26  1  0  0  0  0
 14 22  1  0  0  0  0
 15  8  2  0  0  0  0
 16 13  2  0  0  0  0
 17  3  1  0  0  0  0
 18  2  1  0  0  0  0
 19 18  2  0  0  0  0
 20 29  1  0  0  0  0
 21 26  1  0  0  0  0
 22 31  1  1  0  0  0
 22  6  1  0  0  0  0
 23 15  1  0  0  0  0
 23  1  1  0  0  0  0
 24 27  2  0  0  0  0
 24 11  1  0  0  0  0
 25 21  1  0  0  0  0
 29 28  1  0  0  0  0
 31 30  1  0  0  0  0
 32  7  1  0  0  0  0
 33 34  2  0  0  0  0
 34 32  1  0  0  0  0
 35 38  1  0  0  0  0
 36 39  1  0  0  0  0
 36 40  1  0  0  0  0
 37 38  1  0  0  0  0
 38 33  1  1  0  0  0
 39 35  1  0  0  0  0
 40 41  1  6  0  0  0
 40 37  1  0  0  0  0
 41 42  1  6  0  0  0
 41 44  1  0  0  0  0
 43 44  2  0  0  0  0
 44 45  1  0  0  0  0
M  END
>  <MODEL>
1

>  <REMARK>
 VINA RESULT:      -4.0      0.000      0.000
  Name = 
  7 active torsions:
  status: ('A' for Active; 'I' for Inactive)
    1  A    between atoms: C_2  and  C_7
    2  A    between atoms: C_2  and  C_14
    3  A    between atoms: C_3  and  C_25
    4  A    between atoms: C_17  and  C_29
    5  A    between atoms: C_17  and  C_45
    6  A    between atoms: O_33  and  C_34
    7  A    between atoms: C_37  and  C_39
                            x       y       z     vdW  Elec       q    Type
                         _______ _______ _______ _____ _____    ______ ____

>  <TORSDO>
F 7

$$$$
=
 OpenBabel11042420393D

 45 48  0  0  1  0  0  0  0  0999 V2000
  161.6040  209.5090  148.9420 C   0  0  0  0  0  0  0  0  0  0  0  0
  161.3750  209.5430  152.5960 N   0  0  0  0  0  2  0  0  0  0  0  0
  161.4740  213.8520  149.2310 C   0  0  1  0  0  3  0  0  0  0  0  0
  161.3970  212.7470  146.9500 C   0  0  0  0  0  0  0  0  0  0  0  0
  161.6980  208.1430  148.6650 C   0  0  0  0  0  3  0  0  0  0  0  0
  158.7760  212.1100  153.7130 O   0  0  0  0  0  0  0  0  0  0  0  0
  161.3360  212.3530  145.6780 C   0  0  0  0  0  3  0  0  0  0  0  0
  161.5540  212.3960  149.2200 N   0  0  0  0  0  0  0  0  0  0  0  0
  161.6930  207.2500  149.6910 N   0  0  0  0  0  0  0  0  0  0  0  0
  157.1760  214.1890  151.1500 C   0  0  0  0  0  2  0  0  0  0  0  0
  160.9890  209.5790  155.0360 N   0  0  0  0  0  0  0  0  0  0  0  0
  161.5160  209.9100  150.2380 N   0  0  0  0  0  0  0  0  0  0  0  0
  159.1450  210.7910  153.9890 C   0  0  0  0  0  0  0  0  0  0  0  0
  158.0240  213.7560  152.0830 C   0  0  0  0  0  0  0  0  0  0  0  0
  161.5160  211.8310  148.0600 C   0  0  0  0  0  0  0  0  0  0  0  0
  158.6560  209.8410  153.3170 O   0  0  0  0  0  0  0  0  0  0  0  0
  161.3050  214.4440  147.5000 S   0  0  0  0  0  0  0  0  0  0  0  0
  161.5180  209.0300  151.2690 C   0  0  0  0  0  0  0  0  0  0  0  0
  161.6000  207.6610  150.9850 C   0  0  0  0  0  3  0  0  0  0  0  0
  160.0710  210.5080  155.1030 C   0  0  0  0  0  0  0  0  0  0  0  0
  160.3640  213.7880  151.4110 N   0  0  0  0  0  2  0  0  0  0  0  0
  157.7780  212.4180  152.7420 C   0  0  2  0  0  3  0  0  0  0  0  0
  161.5820  210.4380  147.8920 O   0  0  0  0  0  0  0  0  0  0  0  0
  161.3770  208.8580  153.8580 C   0  0  0  0  0  0  0  0  0  0  0  0
  160.2760  214.3080  150.0520 C   0  0  0  0  0  2  0  0  0  0  0  0
  159.3460  214.4530  152.2140 C   0  0  0  0  0  2  0  0  0  0  0  0
  162.1680  207.4370  154.0480 S   0  0  0  0  0  0  0  0  0  0  0  0
  161.0300  211.6650  157.0610 C   0  0  0  0  0  1  0  0  0  0  0  0
  159.9220  211.2570  156.2720 O   0  0  0  0  0  0  0  0  0  0  0  0
  156.2050  213.3140  154.5090 C   0  0  0  0  0  1  0  0  0  0  0  0
  156.3850  212.3230  153.3700 C   0  0  0  0  0  2  0  0  0  0  0  0
  161.2120  213.3060  144.5310 C   0  0  0  0  0  2  0  0  0  0  0  0
  161.7640  212.0880  142.4630 C   0  0  0  0  0  3  0  0  0  0  0  0
  160.8320  212.5860  143.2750 C   0  0  0  0  0  3  0  0  0  0  0  0
  162.5110  211.5150  140.1850 C   0  0  0  0  0  2  0  0  0  0  0  0
  160.8420  211.4280  138.3210 C   0  0  0  0  0  2  0  0  0  0  0  0
  160.0980  211.9970  140.6360 C   0  0  0  0  0  2  0  0  0  0  0  0
  161.3800  211.3880  141.2020 C   0  0  2  0  0  3  0  0  0  0  0  0
  162.1260  210.8210  138.8810 C   0  0  0  0  0  2  0  0  0  0  0  0
  159.7030  211.2940  139.3350 C   0  0  1  0  0  3  0  0  0  0  0  0
  158.4120  211.8910  138.7700 C   0  0  1  0  0  3  0  0  0  0  0  0
  158.6530  212.4850  137.5290 O   0  0  0  0  0  1  0  0  0  0  0  0
  156.2740  210.9710  139.2110 O   0  0  0  0  0  0  0  0  0  0  0  0
  157.3390  210.8530  138.6230 C   0  0  0  0  0  0  0  0  0  0  0  0
  157.5740  209.6680  137.7520 C   0  0  0  0  0  1  0  0  0  0  0  0
  1 12  2  0  0  0  0
  2 24  1  0  0  0  0
  3 25  1  1  0  0  0
  4 17  1  0  0  0  0
  4 15  1  0  0  0  0
  5  1  1  0  0  0  0
  5  9  2  0  0  0  0
  6 13  1  0  0  0  0
  7  4  2  0  0  0  0
  8  3  1  0  0  0  0
  9 19  1  0  0  0  0
 10 14  2  0  0  0  0
 11 20  2  0  0  0  0
 12 18  1  0  0  0  0
 13 20  1  0  0  0  0
 14 26  1  0  0  0  0
 14 22  1  0  0  0  0
 15  8  2  0  0  0  0
 16 13  2  0  0  0  0
 17  3  1  0  0  0  0
 18  2  1  0  0  0  0
 19 18  2  0  0  0  0
 20 29  1  0  0  0  0
 21 26  1  0  0  0  0
 22 31  1  1  0  0  0
 22  6  1  0  0  0  0
 23 15  1  0  0  0  0
 23  1  1  0  0  0  0
 24 27  2  0  0  0  0
 24 11  1  0  0  0  0
 25 21  1  0  0  0  0
 29 28  1  0  0  0  0
 31 30  1  0  0  0  0
 32  7  1  0  0  0  0
 33 34  2  0  0  0  0
 34 32  1  0  0  0  0
 35 38  1  0  0  0  0
 36 39  1  0  0  0  0
 36 40  1  0  0  0  0
 37 38  1  0  0  0  0
 38 33  1  1  0  0  0
 39 35  1  0  0  0  0
 40 41  1  6  0  0  0
 40 37  1  0  0  0  0
 41 42  1  6  0  0  0
 44 41  1  0  0  0  0
 44 43  2  0  0  0  0
 45 44  1  0  0  0  0
M  END
>  <MODEL>
2

>  <REMARK>
 VINA RESULT:      -3.3      1.591      1.973
  Name = 
  7 active torsions:
  status: ('A' for Active; 'I' for Inactive)
    1  A    between atoms: C_2  and  C_7
    2  A    between atoms: C_2  and  C_14
    3  A    between atoms: C_3  and  C_25
    4  A    between atoms: C_17  and  C_29
    5  A    between atoms: C_17  and  C_45
    6  A    between atoms: O_33  and  C_34
    7  A    between atoms: C_37  and  C_39
                            x       y       z     vdW  Elec       q    Type
                         _______ _______ _______ _____ _____    ______ ____

>  <TORSDO>
F 7

$$$$
