=
 OpenBabel11052412043D

 40 45  0  0  1  0  0  0  0  0999 V2000
  161.6350  212.3560  148.4970 C   0  0  0  0  0  0  0  0  0  0  0  0
  160.1280  213.5060  150.0590 C   0  0  0  0  0  3  0  0  0  0  0  0
  162.2560  212.3250  147.2910 N   0  0  0  0  0  0  0  0  0  0  0  0
  160.4520  211.0410  152.6640 C   0  0  0  0  0  3  0  0  0  0  0  0
  161.1710  211.4060  150.6480 C   0  0  0  0  0  0  0  0  0  0  0  0
  160.3480  212.4580  150.9550 C   0  0  0  0  0  0  0  0  0  0  0  0
  161.8380  211.3190  149.4240 C   0  0  0  0  0  3  0  0  0  0  0  0
  161.2310  210.5390  151.6750 N   0  0  0  0  0  0  0  0  0  0  0  0
  160.6130  214.4530  147.8720 C   0  0  0  0  0  3  0  0  0  0  0  0
  159.8770  212.2380  152.2380 C   0  0  0  0  0  0  0  0  0  0  0  0
  162.0730  213.3230  146.3850 C   0  0  0  0  0  0  0  0  0  0  0  0
  161.2590  214.3730  146.6790 N   0  0  0  0  0  0  0  0  0  0  0  0
  162.7340  213.2690  145.1280 N   0  0  0  0  0  1  0  0  0  0  0  0
  160.7810  213.4450  148.8180 C   0  0  0  0  0  0  0  0  0  0  0  0
  156.0370  212.3760  156.1070 C   0  0  1  0  0  3  0  0  0  0  0  0
  157.6660  212.1820  156.8840 S   0  0  0  0  0  0  0  0  0  0  0  0
  159.2300  213.3470  154.2720 N   0  0  0  0  0  2  0  0  0  0  0  0
  156.2250  212.4710  154.6050 C   0  0  0  0  0  2  0  0  0  0  0  0
  158.1550  213.8780  156.4400 C   0  0  0  0  0  2  0  0  0  0  0  0
  157.3670  213.6360  152.4490 S   0  0  0  0  0  0  0  0  0  0  0  0
  156.8680  213.7970  154.1910 C   0  0  2  0  0  3  0  0  0  0  0  0
  155.1880  211.1640  156.4280 C   0  0  0  0  0  1  0  0  0  0  0  0
  158.1790  214.0980  154.9280 C   0  0  2  0  0  3  0  0  0  0  0  0
  158.9680  213.0790  153.0370 C   0  0  2  0  0  3  0  0  0  0  0  0
  162.2440  208.7110  150.3650 C   0  0  0  0  0  1  0  0  0  0  0  0
  162.0610  209.3330  151.7410 C   0  0  2  0  0  3  0  0  0  0  0  0
  161.5250  208.3210  152.7190 C   0  0  0  0  0  0  0  0  0  0  0  0
  161.7020  208.5020  153.9140 O   0  0  0  0  0  0  0  0  0  0  0  0
  160.7470  207.1180  152.2660 C   0  0  0  0  0  2  0  0  0  0  0  0
  161.4560  205.7980  152.5790 C   0  0  1  0  0  3  0  0  0  0  0  0
  161.0600  205.3010  153.8100 F   0  0  0  0  0  0  0  0  0  0  0  0
  161.0280  202.8480  149.4680 C   0  0  0  0  0  0  0  0  0  0  0  0
  161.0420  202.4670  150.8180 C   0  0  0  0  0  3  0  0  0  0  0  0
  161.2940  204.7820  151.4900 C   0  0  0  0  0  0  0  0  0  0  0  0
  161.2890  205.1660  150.1420 C   0  0  0  0  0  3  0  0  0  0  0  0
  161.1540  204.2040  149.1380 C   0  0  0  0  0  3  0  0  0  0  0  0
  161.1750  203.4290  151.8230 C   0  0  0  0  0  3  0  0  0  0  0  0
  160.8820  201.8340  148.4080 C   0  0  0  0  0  0  0  0  0  0  0  0
  160.8020  202.2270  147.0410 N   0  0  0  0  0  1  0  0  0  0  0  0
  160.8200  200.6110  148.7030 O   0  0  0  0  0  0  0  0  0  0  0  0
  1 14  2  0  0  0  0
  1  7  1  0  0  0  0
  2  6  2  0  0  0  0
  3  1  1  0  0  0  0
  5  6  1  0  0  0  0
  5  8  1  0  0  0  0
  6 10  1  0  0  0  0
  7  5  2  0  0  0  0
  8 26  1  0  0  0  0
  8  4  1  0  0  0  0
  9 14  1  0  0  0  0
 10  4  2  0  0  0  0
 11 12  1  0  0  0  0
 11  3  2  0  0  0  0
 12  9  2  0  0  0  0
 13 11  1  0  0  0  0
 14  2  1  0  0  0  0
 15 22  1  6  0  0  0
 15 16  1  0  0  0  0
 17 23  1  0  0  0  0
 18 15  1  0  0  0  0
 19 16  1  0  0  0  0
 20 24  1  0  0  0  0
 20 21  1  0  0  0  0
 21 18  1  1  0  0  0
 21 23  1  0  0  0  0
 23 19  1  1  0  0  0
 24 10  1  1  0  0  0
 24 17  1  0  0  0  0
 26 25  1  6  0  0  0
 26 27  1  0  0  0  0
 27 28  2  0  0  0  0
 29 30  1  0  0  0  0
 29 27  1  0  0  0  0
 30 31  1  1  0  0  0
 32 33  1  0  0  0  0
 33 37  2  0  0  0  0
 34 37  1  0  0  0  0
 34 30  1  0  0  0  0
 35 34  2  0  0  0  0
 36 32  2  0  0  0  0
 36 35  1  0  0  0  0
 38 40  2  0  0  0  0
 38 32  1  0  0  0  0
 39 38  1  0  0  0  0
M  END
>  <MODEL>
1

>  <REMARK>
 VINA RESULT:      -8.4      0.000      0.000
  Name = 
  7 active torsions:
  status: ('A' for Active; 'I' for Inactive)
    1  A    between atoms: C_1  and  C_5
    2  A    between atoms: C_7  and  C_21
    3  A    between atoms: C_7  and  C_23
    4  A    between atoms: C_14  and  N_20
    5  A    between atoms: C_14  and  C_23
    6  A    between atoms: C_16  and  C_21
    7  A    between atoms: C_27  and  C_40
                            x       y       z     vdW  Elec       q    Type
                         _______ _______ _______ _____ _____    ______ ____

>  <TORSDO>
F 7

$$$$
=
 OpenBabel11052412043D

 40 45  0  0  1  0  0  0  0  0999 V2000
  161.5470  207.1310  149.3230 C   0  0  0  0  0  0  0  0  0  0  0  0
  161.1730  207.9450  151.6110 C   0  0  0  0  0  3  0  0  0  0  0  0
  161.6100  206.0890  148.4560 N   0  0  0  0  0  0  0  0  0  0  0  0
  161.6660  211.4150  150.7840 C   0  0  0  0  0  3  0  0  0  0  0  0
  161.6960  209.4730  149.8110 C   0  0  0  0  0  0  0  0  0  0  0  0
  161.4070  209.2340  151.1300 C   0  0  0  0  0  0  0  0  0  0  0  0
  161.7730  208.4420  148.8720 C   0  0  0  0  0  3  0  0  0  0  0  0
  161.8640  210.7900  149.5960 N   0  0  0  0  0  0  0  0  0  0  0  0
  161.0260  205.5730  151.0940 C   0  0  0  0  0  3  0  0  0  0  0  0
  161.3880  210.4640  151.7650 C   0  0  0  0  0  0  0  0  0  0  0  0
  161.3900  204.8160  148.8770 C   0  0  0  0  0  0  0  0  0  0  0  0
  161.1000  204.5670  150.1830 N   0  0  0  0  0  0  0  0  0  0  0  0
  161.4610  203.7400  147.9500 N   0  0  0  0  0  1  0  0  0  0  0  0
  161.2480  206.8870  150.6910 C   0  0  0  0  0  0  0  0  0  0  0  0
  160.3660  208.4210  156.7160 C   0  0  1  0  0  3  0  0  0  0  0  0
  162.1420  208.2830  156.3650 S   0  0  0  0  0  0  0  0  0  0  0  0
  162.0320  210.6040  154.0780 N   0  0  0  0  0  2  0  0  0  0  0  0
  159.6880  209.0920  155.5370 C   0  0  0  0  0  2  0  0  0  0  0  0
  162.3720  210.0850  156.4770 C   0  0  0  0  0  2  0  0  0  0  0  0
  159.4850  211.1640  153.8110 S   0  0  0  0  0  0  0  0  0  0  0  0
  160.0480  210.5770  155.4380 C   0  0  2  0  0  3  0  0  0  0  0  0
  159.7880  207.0330  156.9000 C   0  0  0  0  0  1  0  0  0  0  0  0
  161.5590  210.8410  155.4270 C   0  0  2  0  0  3  0  0  0  0  0  0
  161.1160  210.7590  153.1830 C   0  0  2  0  0  3  0  0  0  0  0  0
  163.4570  212.1450  148.2900 C   0  0  0  0  0  1  0  0  0  0  0  0
  162.1150  211.4290  148.3020 C   0  0  2  0  0  3  0  0  0  0  0  0
  161.0060  212.3630  147.8980 C   0  0  0  0  0  0  0  0  0  0  0  0
  160.6810  213.2610  148.6580 O   0  0  0  0  0  0  0  0  0  0  0  0
  160.3150  212.2420  146.5680 C   0  0  0  0  0  2  0  0  0  0  0  0
  160.7210  213.3410  145.5840 C   0  0  1  0  0  3  0  0  0  0  0  0
  161.7470  214.1150  146.1000 F   0  0  0  0  0  0  0  0  0  0  0  0
  161.6670  211.7560  141.6910 C   0  0  0  0  0  0  0  0  0  0  0  0
  160.3980  211.5570  142.2560 C   0  0  0  0  0  3  0  0  0  0  0  0
  161.0550  212.8070  144.2260 C   0  0  0  0  0  0  0  0  0  0  0  0
  162.3270  213.0010  143.6690 C   0  0  0  0  0  3  0  0  0  0  0  0
  162.6290  212.4810  142.4070 C   0  0  0  0  0  3  0  0  0  0  0  0
  160.0960  212.0790  143.5160 C   0  0  0  0  0  3  0  0  0  0  0  0
  161.9850  211.2120  140.3590 C   0  0  0  0  0  0  0  0  0  0  0  0
  161.5180  209.9210  139.9770 N   0  0  0  0  0  1  0  0  0  0  0  0
  162.6790  211.8800  139.5480 O   0  0  0  0  0  0  0  0  0  0  0  0
  1 14  1  0  0  0  0
  3 11  2  0  0  0  0
  3  1  1  0  0  0  0
  4 10  2  0  0  0  0
  5  6  2  0  0  0  0
  6  2  1  0  0  0  0
  6 10  1  0  0  0  0
  7  1  2  0  0  0  0
  7  5  1  0  0  0  0
  8  5  1  0  0  0  0
  8  4  1  0  0  0  0
 11 12  1  0  0  0  0
 12  9  2  0  0  0  0
 13 11  1  0  0  0  0
 14  9  1  0  0  0  0
 14  2  2  0  0  0  0
 15 22  1  6  0  0  0
 16 19  1  0  0  0  0
 16 15  1  0  0  0  0
 17 23  1  0  0  0  0
 18 15  1  0  0  0  0
 20 21  1  0  0  0  0
 21 18  1  6  0  0  0
 23 21  1  0  0  0  0
 23 19  1  1  0  0  0
 24 10  1  1  0  0  0
 24 20  1  0  0  0  0
 24 17  1  0  0  0  0
 26 25  1  1  0  0  0
 26  8  1  0  0  0  0
 27 26  1  0  0  0  0
 27 28  2  0  0  0  0
 29 27  1  0  0  0  0
 30 31  1  1  0  0  0
 30 29  1  0  0  0  0
 32 33  2  0  0  0  0
 32 36  1  0  0  0  0
 33 37  1  0  0  0  0
 34 30  1  0  0  0  0
 35 34  1  0  0  0  0
 36 35  2  0  0  0  0
 37 34  2  0  0  0  0
 38 32  1  0  0  0  0
 39 38  1  0  0  0  0
 40 38  2  0  0  0  0
M  END
>  <MODEL>
2

>  <REMARK>
 VINA RESULT:      -8.4      4.432      7.905
  Name = 
  7 active torsions:
  status: ('A' for Active; 'I' for Inactive)
    1  A    between atoms: C_1  and  C_5
    2  A    between atoms: C_7  and  C_21
    3  A    between atoms: C_7  and  C_23
    4  A    between atoms: C_14  and  N_20
    5  A    between atoms: C_14  and  C_23
    6  A    between atoms: C_16  and  C_21
    7  A    between atoms: C_27  and  C_40
                            x       y       z     vdW  Elec       q    Type
                         _______ _______ _______ _____ _____    ______ ____

>  <TORSDO>
F 7

$$$$
=
 OpenBabel11052412043D

 40 45  0  0  1  0  0  0  0  0999 V2000
  161.6390  206.8420  148.4510 C   0  0  0  0  0  0  0  0  0  0  0  0
  161.4520  207.1770  150.8780 C   0  0  0  0  0  3  0  0  0  0  0  0
  161.6170  205.9980  147.3890 N   0  0  0  0  0  0  0  0  0  0  0  0
  161.9510  210.7400  150.7330 C   0  0  0  0  0  3  0  0  0  0  0  0
  161.8700  209.0350  149.3890 C   0  0  0  0  0  0  0  0  0  0  0  0
  161.6750  208.5360  150.6510 C   0  0  0  0  0  0  0  0  0  0  0  0
  161.8570  208.2170  148.2580 C   0  0  0  0  0  3  0  0  0  0  0  0
  162.0480  210.3680  149.4320 N   0  0  0  0  0  0  0  0  0  0  0  0
  161.2200  204.9590  149.9050 C   0  0  0  0  0  3  0  0  0  0  0  0
  161.7280  209.6110  151.5210 C   0  0  0  0  0  0  0  0  0  0  0  0
  161.4030  204.6660  147.5600 C   0  0  0  0  0  0  0  0  0  0  0  0
  161.2070  204.1590  148.8080 N   0  0  0  0  0  0  0  0  0  0  0  0
  161.3840  203.8000  146.4320 N   0  0  0  0  0  1  0  0  0  0  0  0
  161.4370  206.3270  149.7600 C   0  0  0  0  0  0  0  0  0  0  0  0
  159.5040  212.0780  155.8450 C   0  0  1  0  0  3  0  0  0  0  0  0
  158.2410  211.0770  155.0100 S   0  0  0  0  0  0  0  0  0  0  0  0
  160.4690  209.2120  153.5310 N   0  0  0  0  0  2  0  0  0  0  0  0
  160.8200  211.9130  155.1090 C   0  0  0  0  0  2  0  0  0  0  0  0
  159.0350  209.5220  155.5270 C   0  0  0  0  0  2  0  0  0  0  0  0
  162.7690  210.3280  154.1090 S   0  0  0  0  0  0  0  0  0  0  0  0
  161.4190  210.5190  155.3130 C   0  0  2  0  0  3  0  0  0  0  0  0
  159.0890  213.5340  155.8050 C   0  0  0  0  0  1  0  0  0  0  0  0
  160.4510  209.3800  154.9700 C   0  0  2  0  0  3  0  0  0  0  0  0
  161.5670  209.6130  152.9860 C   0  0  2  0  0  3  0  0  0  0  0  0
  163.5490  211.9850  148.3300 C   0  0  0  0  0  1  0  0  0  0  0  0
  162.2150  211.2550  148.2780 C   0  0  2  0  0  3  0  0  0  0  0  0
  161.0770  212.2300  148.1330 C   0  0  0  0  0  0  0  0  0  0  0  0
  160.8420  213.0060  149.0460 O   0  0  0  0  0  0  0  0  0  0  0  0
  160.2480  212.2980  146.8810 C   0  0  0  0  0  2  0  0  0  0  0  0
  160.6820  213.4240  145.9400 C   0  0  1  0  0  3  0  0  0  0  0  0
  161.7180  214.1600  146.4910 F   0  0  0  0  0  0  0  0  0  0  0  0
  161.6330  211.9610  142.0000 C   0  0  0  0  0  0  0  0  0  0  0  0
  160.3360  211.8270  142.5190 C   0  0  0  0  0  3  0  0  0  0  0  0
  161.0200  212.9310  144.5660 C   0  0  0  0  0  0  0  0  0  0  0  0
  162.3190  213.0580  144.0550 C   0  0  0  0  0  3  0  0  0  0  0  0
  162.6220  212.5780  142.7780 C   0  0  0  0  0  3  0  0  0  0  0  0
  160.0330  212.3090  143.7960 C   0  0  0  0  0  3  0  0  0  0  0  0
  161.9530  211.4580  140.6530 C   0  0  0  0  0  0  0  0  0  0  0  0
  161.9120  210.0610  140.3750 N   0  0  0  0  0  1  0  0  0  0  0  0
  162.2710  212.2590  139.7340 O   0  0  0  0  0  0  0  0  0  0  0  0
  1 14  1  0  0  0  0
  3 11  2  0  0  0  0
  3  1  1  0  0  0  0
  4 10  2  0  0  0  0
  5  8  1  0  0  0  0
  5  6  2  0  0  0  0
  6  2  1  0  0  0  0
  6 10  1  0  0  0  0
  7  1  2  0  0  0  0
  7  5  1  0  0  0  0
  8  4  1  0  0  0  0
 11 12  1  0  0  0  0
 12  9  2  0  0  0  0
 13 11  1  0  0  0  0
 14  9  1  0  0  0  0
 14  2  2  0  0  0  0
 15 22  1  6  0  0  0
 16 19  1  0  0  0  0
 16 15  1  0  0  0  0
 17 23  1  0  0  0  0
 18 15  1  0  0  0  0
 20 21  1  0  0  0  0
 21 18  1  6  0  0  0
 23 21  1  0  0  0  0
 23 19  1  6  0  0  0
 24 10  1  6  0  0  0
 24 17  1  0  0  0  0
 24 20  1  0  0  0  0
 26 25  1  1  0  0  0
 26  8  1  0  0  0  0
 27 26  1  0  0  0  0
 27 28  2  0  0  0  0
 29 27  1  0  0  0  0
 30 31  1  1  0  0  0
 30 29  1  0  0  0  0
 32 33  2  0  0  0  0
 32 36  1  0  0  0  0
 33 37  1  0  0  0  0
 34 30  1  0  0  0  0
 35 34  1  0  0  0  0
 36 35  2  0  0  0  0
 37 34  2  0  0  0  0
 38 32  1  0  0  0  0
 39 38  1  0  0  0  0
 40 38  2  0  0  0  0
M  END
>  <MODEL>
3

>  <REMARK>
 VINA RESULT:      -7.9      4.169      7.860
  Name = 
  7 active torsions:
  status: ('A' for Active; 'I' for Inactive)
    1  A    between atoms: C_1  and  C_5
    2  A    between atoms: C_7  and  C_21
    3  A    between atoms: C_7  and  C_23
    4  A    between atoms: C_14  and  N_20
    5  A    between atoms: C_14  and  C_23
    6  A    between atoms: C_16  and  C_21
    7  A    between atoms: C_27  and  C_40
                            x       y       z     vdW  Elec       q    Type
                         _______ _______ _______ _____ _____    ______ ____

>  <TORSDO>
F 7

$$$$
=
 OpenBabel11052412043D

 40 45  0  0  1  0  0  0  0  0999 V2000
  161.4020  205.9500  149.5470 C   0  0  0  0  0  0  0  0  0  0  0  0
  161.5800  208.2120  148.6060 C   0  0  0  0  0  3  0  0  0  0  0  0
  161.3120  204.6110  149.3460 N   0  0  0  0  0  0  0  0  0  0  0  0
  161.6810  209.8650  151.8020 C   0  0  0  0  0  3  0  0  0  0  0  0
  161.5130  207.8560  150.9960 C   0  0  0  0  0  0  0  0  0  0  0  0
  161.5910  208.6950  149.9150 C   0  0  0  0  0  0  0  0  0  0  0  0
  161.4190  206.4700  150.8520 C   0  0  0  0  0  3  0  0  0  0  0  0
  161.5570  208.5580  152.1420 N   0  0  0  0  0  0  0  0  0  0  0  0
  161.4680  206.2640  147.1530 C   0  0  0  0  0  3  0  0  0  0  0  0
  161.6940  209.9830  150.4130 C   0  0  0  0  0  0  0  0  0  0  0  0
  161.2980  204.0930  148.0890 C   0  0  0  0  0  0  0  0  0  0  0  0
  161.3760  204.9160  147.0080 N   0  0  0  0  0  0  0  0  0  0  0  0
  161.2020  202.6860  147.9030 N   0  0  0  0  0  1  0  0  0  0  0  0
  161.4830  206.8220  148.4280 C   0  0  0  0  0  0  0  0  0  0  0  0
  159.6370  213.1550  146.4840 C   0  0  1  0  0  3  0  0  0  0  0  0
  158.6310  213.3300  147.9850 S   0  0  0  0  0  0  0  0  0  0  0  0
  161.0250  212.2370  149.9100 N   0  0  0  0  0  2  0  0  0  0  0  0
  160.7760  212.1960  146.7720 C   0  0  0  0  0  2  0  0  0  0  0  0
  159.9640  214.2130  148.8570 C   0  0  0  0  0  2  0  0  0  0  0  0
  162.9100  211.4620  148.2610 S   0  0  0  0  0  0  0  0  0  0  0  0
  161.8180  212.8080  147.7120 C   0  0  2  0  0  3  0  0  0  0  0  0
  158.7770  212.5900  145.3740 C   0  0  0  0  0  1  0  0  0  0  0  0
  161.2210  213.3580  149.0130 C   0  0  2  0  0  3  0  0  0  0  0  0
  161.8160  211.2470  149.6660 C   0  0  2  0  0  3  0  0  0  0  0  0
  160.9280  206.6220  153.5340 C   0  0  0  0  0  1  0  0  0  0  0  0
  161.5680  208.0010  153.4970 C   0  0  2  0  0  3  0  0  0  0  0  0
  160.9210  208.9190  154.5000 C   0  0  0  0  0  0  0  0  0  0  0  0
  160.0090  208.4930  155.1910 O   0  0  0  0  0  0  0  0  0  0  0  0
  161.3940  210.3320  154.6990 C   0  0  0  0  0  2  0  0  0  0  0  0
  160.4290  211.1690  155.5420 C   0  0  1  0  0  3  0  0  0  0  0  0
  161.1190  212.0020  156.4080 F   0  0  0  0  0  0  0  0  0  0  0  0
  157.5600  213.3160  153.1490 C   0  0  0  0  0  0  0  0  0  0  0  0
  157.2090  212.8210  154.4140 C   0  0  0  0  0  3  0  0  0  0  0  0
  159.4440  211.9290  154.7070 C   0  0  0  0  0  0  0  0  0  0  0  0
  159.7960  212.4140  153.4400 C   0  0  0  0  0  3  0  0  0  0  0  0
  158.8600  213.1060  152.6670 C   0  0  0  0  0  3  0  0  0  0  0  0
  158.1460  212.1310  155.1870 C   0  0  0  0  0  3  0  0  0  0  0  0
  156.5750  214.0490  152.3340 C   0  0  0  0  0  0  0  0  0  0  0  0
  155.2670  214.3020  152.8400 N   0  0  0  0  0  1  0  0  0  0  0  0
  156.8780  214.4530  151.1810 O   0  0  0  0  0  0  0  0  0  0  0  0
  1  7  1  0  0  0  0
  2  6  2  0  0  0  0
  3  1  1  0  0  0  0
  4  8  1  0  0  0  0
  5  8  1  0  0  0  0
  6 10  1  0  0  0  0
  6  5  1  0  0  0  0
  7  5  2  0  0  0  0
  8 26  1  0  0  0  0
  9 14  1  0  0  0  0
 10  4  2  0  0  0  0
 11  3  2  0  0  0  0
 12  9  2  0  0  0  0
 12 11  1  0  0  0  0
 13 11  1  0  0  0  0
 14  2  1  0  0  0  0
 14  1  2  0  0  0  0
 15 22  1  6  0  0  0
 15 18  1  0  0  0  0
 15 16  1  0  0  0  0
 16 19  1  0  0  0  0
 20 24  1  0  0  0  0
 21 18  1  6  0  0  0
 21 20  1  0  0  0  0
 21 23  1  0  0  0  0
 23 19  1  6  0  0  0
 23 17  1  0  0  0  0
 24 17  1  0  0  0  0
 24 10  1  6  0  0  0
 26 25  1  6  0  0  0
 26 27  1  0  0  0  0
 27 29  1  0  0  0  0
 27 28  2  0  0  0  0
 29 30  1  0  0  0  0
 30 31  1  6  0  0  0
 32 33  1  0  0  0  0
 33 37  2  0  0  0  0
 34 37  1  0  0  0  0
 34 30  1  0  0  0  0
 35 34  2  0  0  0  0
 36 32  2  0  0  0  0
 36 35  1  0  0  0  0
 38 39  1  0  0  0  0
 38 32  1  0  0  0  0
 40 38  2  0  0  0  0
M  END
>  <MODEL>
4

>  <REMARK>
 VINA RESULT:      -7.4      3.246      8.129
  Name = 
  7 active torsions:
  status: ('A' for Active; 'I' for Inactive)
    1  A    between atoms: C_1  and  C_5
    2  A    between atoms: C_7  and  C_21
    3  A    between atoms: C_7  and  C_23
    4  A    between atoms: C_14  and  N_20
    5  A    between atoms: C_14  and  C_23
    6  A    between atoms: C_16  and  C_21
    7  A    between atoms: C_27  and  C_40
                            x       y       z     vdW  Elec       q    Type
                         _______ _______ _______ _____ _____    ______ ____

>  <TORSDO>
F 7

$$$$
=
 OpenBabel11052412043D

 40 45  0  0  1  0  0  0  0  0999 V2000
  161.3720  205.7940  149.7470 C   0  0  0  0  0  0  0  0  0  0  0  0
  161.5530  208.0370  148.7630 C   0  0  0  0  0  3  0  0  0  0  0  0
  161.2610  204.4530  149.5720 N   0  0  0  0  0  0  0  0  0  0  0  0
  161.7480  209.7440  151.9280 C   0  0  0  0  0  3  0  0  0  0  0  0
  161.5380  207.7230  151.1600 C   0  0  0  0  0  0  0  0  0  0  0  0
  161.6000  208.5430  150.0630 C   0  0  0  0  0  0  0  0  0  0  0  0
  161.4250  206.3360  151.0430 C   0  0  0  0  0  3  0  0  0  0  0  0
  161.6170  208.4450  152.2930 N   0  0  0  0  0  0  0  0  0  0  0  0
  161.3850  206.0660  147.3480 C   0  0  0  0  0  3  0  0  0  0  0  0
  161.7300  209.8370  150.5360 C   0  0  0  0  0  0  0  0  0  0  0  0
  161.2120  203.9140  148.3250 C   0  0  0  0  0  0  0  0  0  0  0  0
  161.2740  204.7170  147.2290 N   0  0  0  0  0  0  0  0  0  0  0  0
  161.0960  202.5050  148.1660 N   0  0  0  0  0  1  0  0  0  0  0  0
  161.4360  206.6460  148.6120 C   0  0  0  0  0  0  0  0  0  0  0  0
  159.4760  213.0970  146.7920 C   0  0  1  0  0  3  0  0  0  0  0  0
  158.6360  213.3410  148.3830 S   0  0  0  0  0  0  0  0  0  0  0  0
  161.1440  212.1240  150.0730 N   0  0  0  0  0  2  0  0  0  0  0  0
  160.5810  212.0750  146.9770 C   0  0  0  0  0  2  0  0  0  0  0  0
  160.0970  214.1510  149.1060 C   0  0  0  0  0  2  0  0  0  0  0  0
  162.8070  211.2280  148.2560 S   0  0  0  0  0  0  0  0  0  0  0  0
  161.7450  212.6320  147.8000 C   0  0  2  0  0  3  0  0  0  0  0  0
  158.4770  212.5750  145.7800 C   0  0  0  0  0  1  0  0  0  0  0  0
  161.3130  213.2250  149.1470 C   0  0  2  0  0  3  0  0  0  0  0  0
  161.8480  211.0870  149.7650 C   0  0  2  0  0  3  0  0  0  0  0  0
  160.8320  206.6360  153.7740 C   0  0  0  0  0  1  0  0  0  0  0  0
  161.6530  207.9110  153.6570 C   0  0  2  0  0  3  0  0  0  0  0  0
  161.2180  208.9250  154.6810 C   0  0  0  0  0  0  0  0  0  0  0  0
  161.9250  209.1210  155.6570 O   0  0  0  0  0  0  0  0  0  0  0  0
  159.9580  209.7270  154.5140 C   0  0  0  0  0  2  0  0  0  0  0  0
  160.0970  211.1650  155.0190 C   0  0  1  0  0  3  0  0  0  0  0  0
  161.1210  211.8260  154.3610 F   0  0  0  0  0  0  0  0  0  0  0  0
  156.3830  213.3370  154.7830 C   0  0  0  0  0  0  0  0  0  0  0  0
  156.4080  211.9430  154.6240 C   0  0  0  0  0  3  0  0  0  0  0  0
  158.8090  211.9280  154.9530 C   0  0  0  0  0  0  0  0  0  0  0  0
  158.7900  213.3220  155.1040 C   0  0  0  0  0  3  0  0  0  0  0  0
  157.5830  214.0210  155.0230 C   0  0  0  0  0  3  0  0  0  0  0  0
  157.6150  211.2440  154.7070 C   0  0  0  0  0  3  0  0  0  0  0  0
  155.1100  214.0740  154.7010 C   0  0  0  0  0  0  0  0  0  0  0  0
  154.5380  214.3870  153.4340 N   0  0  0  0  0  1  0  0  0  0  0  0
  154.5190  214.4400  155.7510 O   0  0  0  0  0  0  0  0  0  0  0  0
  1  7  1  0  0  0  0
  2  6  2  0  0  0  0
  3  1  1  0  0  0  0
  4  8  1  0  0  0  0
  5  8  1  0  0  0  0
  6 10  1  0  0  0  0
  6  5  1  0  0  0  0
  7  5  2  0  0  0  0
  8 26  1  0  0  0  0
  9 14  1  0  0  0  0
 10  4  2  0  0  0  0
 11  3  2  0  0  0  0
 12  9  2  0  0  0  0
 12 11  1  0  0  0  0
 13 11  1  0  0  0  0
 14  2  1  0  0  0  0
 14  1  2  0  0  0  0
 15 22  1  6  0  0  0
 15 18  1  0  0  0  0
 15 16  1  0  0  0  0
 16 19  1  0  0  0  0
 20 24  1  0  0  0  0
 21 18  1  1  0  0  0
 21 20  1  0  0  0  0
 21 23  1  0  0  0  0
 23 19  1  6  0  0  0
 23 17  1  0  0  0  0
 24 17  1  0  0  0  0
 24 10  1  6  0  0  0
 26 25  1  6  0  0  0
 26 27  1  0  0  0  0
 27 28  2  0  0  0  0
 29 27  1  0  0  0  0
 29 30  1  0  0  0  0
 30 31  1  6  0  0  0
 32 36  1  0  0  0  0
 33 37  1  0  0  0  0
 33 32  2  0  0  0  0
 34 30  1  0  0  0  0
 34 35  1  0  0  0  0
 36 35  2  0  0  0  0
 37 34  2  0  0  0  0
 38 32  1  0  0  0  0
 38 40  2  0  0  0  0
 39 38  1  0  0  0  0
M  END
>  <MODEL>
5

>  <REMARK>
 VINA RESULT:      -7.2      3.244      8.419
  Name = 
  7 active torsions:
  status: ('A' for Active; 'I' for Inactive)
    1  A    between atoms: C_1  and  C_5
    2  A    between atoms: C_7  and  C_21
    3  A    between atoms: C_7  and  C_23
    4  A    between atoms: C_14  and  N_20
    5  A    between atoms: C_14  and  C_23
    6  A    between atoms: C_16  and  C_21
    7  A    between atoms: C_27  and  C_40
                            x       y       z     vdW  Elec       q    Type
                         _______ _______ _______ _____ _____    ______ ____

>  <TORSDO>
F 7

$$$$
=
 OpenBabel11052412043D

 40 45  0  0  1  0  0  0  0  0999 V2000
  160.4840  210.7380  153.4920 C   0  0  0  0  0  0  0  0  0  0  0  0
  160.2650  212.4490  151.7440 C   0  0  0  0  0  3  0  0  0  0  0  0
  160.2450  210.3420  154.7680 N   0  0  0  0  0  0  0  0  0  0  0  0
  161.9520  210.5190  149.2150 C   0  0  0  0  0  3  0  0  0  0  0  0
  161.3850  210.3520  151.3050 C   0  0  0  0  0  0  0  0  0  0  0  0
  160.9500  211.5840  150.8890 C   0  0  0  0  0  0  0  0  0  0  0  0
  161.1680  209.8900  152.6050 C   0  0  0  0  0  3  0  0  0  0  0  0
  162.0010  209.7050  150.2990 N   0  0  0  0  0  0  0  0  0  0  0  0
  159.3570  212.8200  153.9690 C   0  0  0  0  0  3  0  0  0  0  0  0
  161.3090  211.7080  149.5580 C   0  0  0  0  0  0  0  0  0  0  0  0
  159.5810  211.1500  155.6370 C   0  0  0  0  0  0  0  0  0  0  0  0
  159.1440  212.3750  155.2350 N   0  0  0  0  0  0  0  0  0  0  0  0
  159.3420  210.7150  156.9690 N   0  0  0  0  0  1  0  0  0  0  0  0
  160.0350  212.0140  153.0590 C   0  0  0  0  0  0  0  0  0  0  0  0
  160.1830  213.2660  144.4550 C   0  0  1  0  0  3  0  0  0  0  0  0
  158.6630  212.6750  145.2520 S   0  0  0  0  0  0  0  0  0  0  0  0
  159.8690  213.1200  148.2480 N   0  0  0  0  0  2  0  0  0  0  0  0
  161.3210  213.1780  145.4550 C   0  0  0  0  0  2  0  0  0  0  0  0
  158.6060  214.1160  146.3630 C   0  0  0  0  0  2  0  0  0  0  0  0
  162.3770  213.7820  147.8690 S   0  0  0  0  0  0  0  0  0  0  0  0
  161.1880  214.2240  146.5660 C   0  0  2  0  0  3  0  0  0  0  0  0
  160.4960  212.3810  143.2660 C   0  0  0  0  0  1  0  0  0  0  0  0
  159.8290  214.1940  147.2760 C   0  0  2  0  0  3  0  0  0  0  0  0
  161.0640  212.8380  148.6450 C   0  0  2  0  0  3  0  0  0  0  0  0
  162.7060  207.7650  148.9500 C   0  0  0  0  0  1  0  0  0  0  0  0
  162.5340  208.3420  150.3470 C   0  0  2  0  0  3  0  0  0  0  0  0
  161.6990  207.4280  151.2040 C   0  0  0  0  0  0  0  0  0  0  0  0
  160.4860  207.5670  151.2100 O   0  0  0  0  0  0  0  0  0  0  0  0
  162.3150  206.3280  152.0220 C   0  0  0  0  0  2  0  0  0  0  0  0
  161.3420  205.1830  152.3090 C   0  0  1  0  0  3  0  0  0  0  0  0
  160.0840  205.6680  152.6290 F   0  0  0  0  0  0  0  0  0  0  0  0
  161.1390  202.3250  149.0900 C   0  0  0  0  0  0  0  0  0  0  0  0
  161.2150  203.7000  148.8220 C   0  0  0  0  0  3  0  0  0  0  0  0
  161.2850  204.1800  151.1970 C   0  0  0  0  0  0  0  0  0  0  0  0
  161.2000  202.8070  151.4690 C   0  0  0  0  0  3  0  0  0  0  0  0
  161.1300  201.8860  150.4210 C   0  0  0  0  0  3  0  0  0  0  0  0
  161.2860  204.6220  149.8710 C   0  0  0  0  0  3  0  0  0  0  0  0
  161.0690  201.3520  147.9860 C   0  0  0  0  0  0  0  0  0  0  0  0
  160.4270  201.6960  146.7610 N   0  0  0  0  0  1  0  0  0  0  0  0
  161.5710  200.2050  148.1170 O   0  0  0  0  0  0  0  0  0  0  0  0
  1  3  1  0  0  0  0
  2 14  2  0  0  0  0
  3 11  2  0  0  0  0
  4 10  2  0  0  0  0
  4  8  1  0  0  0  0
  5  7  1  0  0  0  0
  6  5  2  0  0  0  0
  6  2  1  0  0  0  0
  7  1  2  0  0  0  0
  8 26  1  0  0  0  0
  8  5  1  0  0  0  0
  9 12  2  0  0  0  0
 10  6  1  0  0  0  0
 11 13  1  0  0  0  0
 12 11  1  0  0  0  0
 14  1  1  0  0  0  0
 14  9  1  0  0  0  0
 15 22  1  6  0  0  0
 15 16  1  0  0  0  0
 15 18  1  0  0  0  0
 16 19  1  0  0  0  0
 17 24  1  0  0  0  0
 20 24  1  0  0  0  0
 21 18  1  6  0  0  0
 21 23  1  0  0  0  0
 21 20  1  0  0  0  0
 23 19  1  6  0  0  0
 23 17  1  0  0  0  0
 24 10  1  6  0  0  0
 26 25  1  6  0  0  0
 26 27  1  0  0  0  0
 27 28  2  0  0  0  0
 27 29  1  0  0  0  0
 29 30  1  0  0  0  0
 30 31  1  6  0  0  0
 32 36  1  0  0  0  0
 33 32  2  0  0  0  0
 33 37  1  0  0  0  0
 34 35  1  0  0  0  0
 34 30  1  0  0  0  0
 36 35  2  0  0  0  0
 37 34  2  0  0  0  0
 38 40  2  0  0  0  0
 38 32  1  0  0  0  0
 39 38  1  0  0  0  0
M  END
>  <MODEL>
6

>  <REMARK>
 VINA RESULT:      -7.0      2.678      6.206
  Name = 
  7 active torsions:
  status: ('A' for Active; 'I' for Inactive)
    1  A    between atoms: C_1  and  C_5
    2  A    between atoms: C_7  and  C_21
    3  A    between atoms: C_7  and  C_23
    4  A    between atoms: C_14  and  N_20
    5  A    between atoms: C_14  and  C_23
    6  A    between atoms: C_16  and  C_21
    7  A    between atoms: C_27  and  C_40
                            x       y       z     vdW  Elec       q    Type
                         _______ _______ _______ _____ _____    ______ ____

>  <TORSDO>
F 7

$$$$
=
 OpenBabel11052412043D

 40 45  0  0  1  0  0  0  0  0999 V2000
  161.2210  205.4540  150.2400 C   0  0  0  0  0  0  0  0  0  0  0  0
  161.1580  206.4810  152.4710 C   0  0  0  0  0  3  0  0  0  0  0  0
  161.1470  204.3380  149.4720 N   0  0  0  0  0  0  0  0  0  0  0  0
  161.6360  209.8430  151.2720 C   0  0  0  0  0  3  0  0  0  0  0  0
  161.4920  207.8230  150.4870 C   0  0  0  0  0  0  0  0  0  0  0  0
  161.3640  207.7130  151.8480 C   0  0  0  0  0  0  0  0  0  0  0  0
  161.4240  206.7110  149.6450 C   0  0  0  0  0  3  0  0  0  0  0  0
  161.6660  209.1080  150.1330 N   0  0  0  0  0  0  0  0  0  0  0  0
  160.8840  204.0800  152.1970 C   0  0  0  0  0  3  0  0  0  0  0  0
  161.4580  208.9940  152.3640 C   0  0  0  0  0  0  0  0  0  0  0  0
  160.9470  203.1160  150.0330 C   0  0  0  0  0  0  0  0  0  0  0  0
  160.8180  202.9950  151.3820 N   0  0  0  0  0  0  0  0  0  0  0  0
  160.8730  201.9610  149.2070 N   0  0  0  0  0  1  0  0  0  0  0  0
  161.0890  205.3440  151.6510 C   0  0  0  0  0  0  0  0  0  0  0  0
  159.1690  212.4110  155.9440 C   0  0  1  0  0  3  0  0  0  0  0  0
  158.0000  211.0790  155.5530 S   0  0  0  0  0  0  0  0  0  0  0  0
  160.3630  209.0940  154.5030 N   0  0  0  0  0  2  0  0  0  0  0  0
  160.4560  212.1670  155.1790 C   0  0  0  0  0  2  0  0  0  0  0  0
  159.0060  209.8450  156.4350 C   0  0  0  0  0  2  0  0  0  0  0  0
  162.5330  210.5640  154.5270 S   0  0  0  0  0  0  0  0  0  0  0  0
  161.2340  210.9700  155.7320 C   0  0  2  0  0  3  0  0  0  0  0  0
  158.5750  213.7350  155.5120 C   0  0  0  0  0  1  0  0  0  0  0  0
  160.3970  209.6870  155.8250 C   0  0  2  0  0  3  0  0  0  0  0  0
  161.3740  209.4230  153.7720 C   0  0  2  0  0  3  0  0  0  0  0  0
  162.7060  208.7660  147.9220 C   0  0  0  0  0  1  0  0  0  0  0  0
  161.7710  209.6210  148.7640 C   0  0  2  0  0  3  0  0  0  0  0  0
  162.1850  211.0680  148.7230 C   0  0  0  0  0  0  0  0  0  0  0  0
  163.3340  211.3460  148.4160 O   0  0  0  0  0  0  0  0  0  0  0  0
  161.2130  212.1770  149.0100 C   0  0  0  0  0  2  0  0  0  0  0  0
  161.3950  213.3830  148.0870 C   0  0  1  0  0  3  0  0  0  0  0  0
  162.6430  213.9580  148.2600 F   0  0  0  0  0  0  0  0  0  0  0  0
  160.6430  212.4900  143.9390 C   0  0  0  0  0  0  0  0  0  0  0  0
  161.8660  213.0470  144.3400 C   0  0  0  0  0  3  0  0  0  0  0  0
  161.1290  213.0560  146.6490 C   0  0  0  0  0  0  0  0  0  0  0  0
  159.9010  212.5070  146.2510 C   0  0  0  0  0  3  0  0  0  0  0  0
  159.6620  212.2240  144.9040 C   0  0  0  0  0  3  0  0  0  0  0  0
  162.1060  213.3290  145.6880 C   0  0  0  0  0  3  0  0  0  0  0  0
  160.3910  212.1870  142.5190 C   0  0  0  0  0  0  0  0  0  0  0  0
  161.3450  211.4530  141.7570 N   0  0  0  0  0  1  0  0  0  0  0  0
  159.3310  212.5800  141.9640 O   0  0  0  0  0  0  0  0  0  0  0  0
  1 14  1  0  0  0  0
  3 11  2  0  0  0  0
  3  1  1  0  0  0  0
  4 10  2  0  0  0  0
  5  6  2  0  0  0  0
  6 10  1  0  0  0  0
  6  2  1  0  0  0  0
  7  1  2  0  0  0  0
  7  5  1  0  0  0  0
  8  5  1  0  0  0  0
  8  4  1  0  0  0  0
 11 12  1  0  0  0  0
 12  9  2  0  0  0  0
 13 11  1  0  0  0  0
 14  9  1  0  0  0  0
 14  2  2  0  0  0  0
 15 22  1  6  0  0  0
 16 15  1  0  0  0  0
 16 19  1  0  0  0  0
 17 23  1  0  0  0  0
 18 15  1  0  0  0  0
 20 21  1  0  0  0  0
 21 18  1  6  0  0  0
 21 23  1  0  0  0  0
 23 19  1  6  0  0  0
 24 10  1  6  0  0  0
 24 17  1  0  0  0  0
 24 20  1  0  0  0  0
 26 25  1  6  0  0  0
 26  8  1  0  0  0  0
 27 26  1  0  0  0  0
 27 29  1  0  0  0  0
 28 27  2  0  0  0  0
 30 31  1  6  0  0  0
 30 29  1  0  0  0  0
 32 33  2  0  0  0  0
 32 36  1  0  0  0  0
 33 37  1  0  0  0  0
 34 30  1  0  0  0  0
 35 34  1  0  0  0  0
 36 35  2  0  0  0  0
 37 34  2  0  0  0  0
 38 32  1  0  0  0  0
 39 38  1  0  0  0  0
 40 38  2  0  0  0  0
M  END
>  <MODEL>
7

>  <REMARK>
 VINA RESULT:      -7.0      3.658      7.888
  Name = 
  7 active torsions:
  status: ('A' for Active; 'I' for Inactive)
    1  A    between atoms: C_1  and  C_5
    2  A    between atoms: C_7  and  C_21
    3  A    between atoms: C_7  and  C_23
    4  A    between atoms: C_14  and  N_20
    5  A    between atoms: C_14  and  C_23
    6  A    between atoms: C_16  and  C_21
    7  A    between atoms: C_27  and  C_40
                            x       y       z     vdW  Elec       q    Type
                         _______ _______ _______ _____ _____    ______ ____

>  <TORSDO>
F 7

$$$$
=
 OpenBabel11052412043D

 40 45  0  0  1  0  0  0  0  0999 V2000
  161.8880  206.6880  148.0030 C   0  0  0  0  0  0  0  0  0  0  0  0
  161.1500  206.7320  150.3450 C   0  0  0  0  0  3  0  0  0  0  0  0
  162.1300  205.9750  146.8730 N   0  0  0  0  0  0  0  0  0  0  0  0
  161.5680  210.2880  150.7280 C   0  0  0  0  0  3  0  0  0  0  0  0
  161.8400  208.7550  149.2140 C   0  0  0  0  0  0  0  0  0  0  0  0
  161.3800  208.1090  150.3330 C   0  0  0  0  0  0  0  0  0  0  0  0
  162.1060  208.0760  148.0230 C   0  0  0  0  0  3  0  0  0  0  0  0
  161.9660  210.0730  149.4500 N   0  0  0  0  0  0  0  0  0  0  0  0
  161.2060  204.6450  149.0970 C   0  0  0  0  0  3  0  0  0  0  0  0
  161.2050  209.0740  151.3100 C   0  0  0  0  0  0  0  0  0  0  0  0
  161.9210  204.6320  146.8370 C   0  0  0  0  0  0  0  0  0  0  0  0
  161.4630  203.9800  147.9400 N   0  0  0  0  0  0  0  0  0  0  0  0
  162.1810  203.9060  145.6420 N   0  0  0  0  0  1  0  0  0  0  0  0
  161.4120  206.0210  149.1630 C   0  0  0  0  0  0  0  0  0  0  0  0
  161.7570  210.5250  156.5370 C   0  0  1  0  0  3  0  0  0  0  0  0
  160.8640  211.8280  155.6430 S   0  0  0  0  0  0  0  0  0  0  0  0
  159.9800  209.8010  153.2480 N   0  0  0  0  0  2  0  0  0  0  0  0
  162.0660  209.3970  155.5700 C   0  0  0  0  0  2  0  0  0  0  0  0
  159.3900  210.7770  155.4480 C   0  0  0  0  0  2  0  0  0  0  0  0
  161.2440  207.5630  153.7620 S   0  0  0  0  0  0  0  0  0  0  0  0
  160.8070  208.6220  155.1740 C   0  0  2  0  0  3  0  0  0  0  0  0
  163.0560  211.0920  157.0720 C   0  0  0  0  0  1  0  0  0  0  0  0
  159.6820  209.5150  154.6360 C   0  0  2  0  0  3  0  0  0  0  0  0
  160.7190  208.9020  152.6900 C   0  0  2  0  0  3  0  0  0  0  0  0
  163.6020  211.8440  148.9340 C   0  0  0  0  0  1  0  0  0  0  0  0
  162.3640  211.0910  148.4740 C   0  0  2  0  0  3  0  0  0  0  0  0
  161.2450  212.0460  148.1520 C   0  0  0  0  0  0  0  0  0  0  0  0
  160.4560  211.7560  147.2660 O   0  0  0  0  0  0  0  0  0  0  0  0
  161.0510  213.3250  148.9170 C   0  0  0  0  0  2  0  0  0  0  0  0
  159.6010  213.8150  148.9000 C   0  0  1  0  0  3  0  0  0  0  0  0
  158.8660  213.1570  147.9280 F   0  0  0  0  0  0  0  0  0  0  0  0
  157.7380  213.5270  152.7740 C   0  0  0  0  0  0  0  0  0  0  0  0
  159.1010  213.2400  152.6130 C   0  0  0  0  0  3  0  0  0  0  0  0
  158.9470  213.7310  150.2450 C   0  0  0  0  0  0  0  0  0  0  0  0
  157.5810  214.0100  150.4000 C   0  0  0  0  0  3  0  0  0  0  0  0
  156.9820  213.9110  151.6580 C   0  0  0  0  0  3  0  0  0  0  0  0
  159.7010  213.3420  151.3550 C   0  0  0  0  0  3  0  0  0  0  0  0
  157.1050  213.4260  154.1010 C   0  0  0  0  0  0  0  0  0  0  0  0
  157.6440  214.1350  155.2130 N   0  0  0  0  0  1  0  0  0  0  0  0
  156.0860  212.7050  154.2660 O   0  0  0  0  0  0  0  0  0  0  0  0
  1  7  2  0  0  0  0
  1 14  1  0  0  0  0
  3  1  1  0  0  0  0
  4 10  2  0  0  0  0
  5  8  1  0  0  0  0
  5  6  2  0  0  0  0
  6  2  1  0  0  0  0
  6 10  1  0  0  0  0
  7  5  1  0  0  0  0
  8  4  1  0  0  0  0
  9 14  1  0  0  0  0
 11  3  2  0  0  0  0
 11 12  1  0  0  0  0
 12  9  2  0  0  0  0
 13 11  1  0  0  0  0
 14  2  2  0  0  0  0
 15 22  1  6  0  0  0
 16 15  1  0  0  0  0
 17 23  1  0  0  0  0
 18 15  1  0  0  0  0
 19 16  1  0  0  0  0
 20 21  1  0  0  0  0
 21 18  1  6  0  0  0
 23 21  1  0  0  0  0
 23 19  1  1  0  0  0
 24 10  1  1  0  0  0
 24 17  1  0  0  0  0
 24 20  1  0  0  0  0
 26 25  1  1  0  0  0
 26  8  1  0  0  0  0
 27 26  1  0  0  0  0
 27 29  1  0  0  0  0
 28 27  2  0  0  0  0
 30 31  1  6  0  0  0
 30 29  1  0  0  0  0
 30 34  1  0  0  0  0
 32 38  1  0  0  0  0
 33 32  1  0  0  0  0
 34 35  2  0  0  0  0
 34 37  1  0  0  0  0
 35 36  1  0  0  0  0
 36 32  2  0  0  0  0
 37 33  2  0  0  0  0
 38 40  2  0  0  0  0
 38 39  1  0  0  0  0
M  END
>  <MODEL>
8

>  <REMARK>
 VINA RESULT:      -6.9      3.511      7.973
  Name = 
  7 active torsions:
  status: ('A' for Active; 'I' for Inactive)
    1  A    between atoms: C_1  and  C_5
    2  A    between atoms: C_7  and  C_21
    3  A    between atoms: C_7  and  C_23
    4  A    between atoms: C_14  and  N_20
    5  A    between atoms: C_14  and  C_23
    6  A    between atoms: C_16  and  C_21
    7  A    between atoms: C_27  and  C_40
                            x       y       z     vdW  Elec       q    Type
                         _______ _______ _______ _____ _____    ______ ____

>  <TORSDO>
F 7

$$$$
=
 OpenBabel11052412043D

 40 45  0  0  1  0  0  0  0  0999 V2000
  158.2740  213.6180  148.3410 C   0  0  0  0  0  0  0  0  0  0  0  0
  158.7670  214.0490  145.9740 C   0  0  0  0  0  3  0  0  0  0  0  0
  157.3800  213.6210  149.3620 N   0  0  0  0  0  0  0  0  0  0  0  0
  162.2040  212.9950  146.1820 C   0  0  0  0  0  3  0  0  0  0  0  0
  160.4700  213.2120  147.4720 C   0  0  0  0  0  0  0  0  0  0  0  0
  160.0730  213.6240  146.2260 C   0  0  0  0  0  0  0  0  0  0  0  0
  159.5960  213.1920  148.5600 C   0  0  0  0  0  3  0  0  0  0  0  0
  161.7630  212.8390  147.4550 N   0  0  0  0  0  0  0  0  0  0  0  0
  156.5450  214.4530  146.8760 C   0  0  0  0  0  3  0  0  0  0  0  0
  161.1700  213.4960  145.3920 C   0  0  0  0  0  0  0  0  0  0  0  0
  156.0970  214.0270  149.1650 C   0  0  0  0  0  0  0  0  0  0  0  0
  155.6900  214.4370  147.9320 N   0  0  0  0  0  0  0  0  0  0  0  0
  155.1770  214.0220  150.2490 N   0  0  0  0  0  1  0  0  0  0  0  0
  157.8650  214.0450  147.0490 C   0  0  0  0  0  0  0  0  0  0  0  0
  161.6400  211.4740  140.3500 C   0  0  1  0  0  3  0  0  0  0  0  0
  159.9220  211.2990  140.9090 S   0  0  0  0  0  0  0  0  0  0  0  0
  160.2530  213.6220  143.1720 N   0  0  0  0  0  2  0  0  0  0  0  0
  162.4390  212.1590  141.4420 C   0  0  0  0  0  2  0  0  0  0  0  0
  159.6420  213.0960  140.8290 C   0  0  0  0  0  2  0  0  0  0  0  0
  162.8020  214.2350  143.1360 S   0  0  0  0  0  0  0  0  0  0  0  0
  162.0620  213.6360  141.5860 C   0  0  2  0  0  3  0  0  0  0  0  0
  162.2210  210.0990  140.0950 C   0  0  0  0  0  1  0  0  0  0  0  0
  160.5580  213.8690  141.7770 C   0  0  2  0  0  3  0  0  0  0  0  0
  161.2660  213.7960  143.9520 C   0  0  2  0  0  3  0  0  0  0  0  0
  163.9990  212.1790  148.2580 C   0  0  0  0  0  1  0  0  0  0  0  0
  162.5160  212.2790  148.5800 C   0  0  2  0  0  3  0  0  0  0  0  0
  161.9730  210.9470  149.0270 C   0  0  0  0  0  0  0  0  0  0  0  0
  161.9770  210.0120  148.2420 O   0  0  0  0  0  0  0  0  0  0  0  0
  161.4630  210.7300  150.4240 C   0  0  0  0  0  2  0  0  0  0  0  0
  162.3840  209.8400  151.2620 C   0  0  1  0  0  3  0  0  0  0  0  0
  162.4950  210.3190  152.5570 F   0  0  0  0  0  0  0  0  0  0  0  0
  161.2310  205.6880  151.2310 C   0  0  0  0  0  0  0  0  0  0  0  0
  160.9470  206.5010  152.3380 C   0  0  0  0  0  3  0  0  0  0  0  0
  161.9750  208.3980  151.2350 C   0  0  0  0  0  0  0  0  0  0  0  0
  162.2690  207.5870  150.1300 C   0  0  0  0  0  3  0  0  0  0  0  0
  161.8960  206.2410  150.1280 C   0  0  0  0  0  3  0  0  0  0  0  0
  161.3180  207.8480  152.3400 C   0  0  0  0  0  3  0  0  0  0  0  0
  160.8350  204.2690  151.2260 C   0  0  0  0  0  0  0  0  0  0  0  0
  160.9700  203.4780  152.4040 N   0  0  0  0  0  1  0  0  0  0  0  0
  160.3790  203.7400  150.1780 O   0  0  0  0  0  0  0  0  0  0  0  0
  1  7  1  0  0  0  0
  1  3  1  0  0  0  0
  2  6  2  0  0  0  0
  2 14  1  0  0  0  0
  4  8  1  0  0  0  0
  5  7  2  0  0  0  0
  6  5  1  0  0  0  0
  8  5  1  0  0  0  0
  8 26  1  0  0  0  0
  9 14  1  0  0  0  0
  9 12  2  0  0  0  0
 10  4  2  0  0  0  0
 10  6  1  0  0  0  0
 11  3  2  0  0  0  0
 11 13  1  0  0  0  0
 12 11  1  0  0  0  0
 14  1  2  0  0  0  0
 15 22  1  1  0  0  0
 15 16  1  0  0  0  0
 15 18  1  0  0  0  0
 17 24  1  0  0  0  0
 19 16  1  0  0  0  0
 20 24  1  0  0  0  0
 21 18  1  1  0  0  0
 21 23  1  0  0  0  0
 21 20  1  0  0  0  0
 23 19  1  6  0  0  0
 23 17  1  0  0  0  0
 24 10  1  6  0  0  0
 26 25  1  6  0  0  0
 26 27  1  0  0  0  0
 27 29  1  0  0  0  0
 28 27  2  0  0  0  0
 29 30  1  0  0  0  0
 30 31  1  1  0  0  0
 32 33  1  0  0  0  0
 33 37  2  0  0  0  0
 34 30  1  0  0  0  0
 34 37  1  0  0  0  0
 35 34  2  0  0  0  0
 36 35  1  0  0  0  0
 36 32  2  0  0  0  0
 38 32  1  0  0  0  0
 38 39  1  0  0  0  0
 40 38  2  0  0  0  0
M  END
>  <MODEL>
9

>  <REMARK>
 VINA RESULT:      -6.8      4.601      8.250
  Name = 
  7 active torsions:
  status: ('A' for Active; 'I' for Inactive)
    1  A    between atoms: C_1  and  C_5
    2  A    between atoms: C_7  and  C_21
    3  A    between atoms: C_7  and  C_23
    4  A    between atoms: C_14  and  N_20
    5  A    between atoms: C_14  and  C_23
    6  A    between atoms: C_16  and  C_21
    7  A    between atoms: C_27  and  C_40
                            x       y       z     vdW  Elec       q    Type
                         _______ _______ _______ _____ _____    ______ ____

>  <TORSDO>
F 7

$$$$
