=
 OpenBabel11042421073D

 36 39  0  0  1  0  0  0  0  0999 V2000
  161.8810  210.6070  151.0800 C   0  0  0  0  0  0  0  0  0  0  0  0
  161.3720  210.2970  154.2220 C   0  0  2  0  0  3  0  0  0  0  0  0
  159.7660  213.4300  147.7070 O   0  0  0  0  0  0  0  0  0  0  0  0
  162.6870  210.3650  153.4430 C   0  0  0  0  0  2  0  0  0  0  0  0
  160.2950  211.8950  150.0360 C   0  0  0  0  0  2  0  0  0  0  0  0
  160.3440  211.3040  153.6860 C   0  0  1  0  0  3  0  0  0  0  0  0
  162.4540  211.0280  149.8530 N   0  0  0  0  0  0  0  0  0  0  0  0
  159.7400  210.8090  152.3790 C   0  0  0  0  0  2  0  0  0  0  0  0
  160.9050  213.1620  147.2370 C   0  0  0  0  0  0  0  0  0  0  0  0
  161.5670  211.7540  149.2580 C   0  0  0  0  0  0  0  0  0  0  0  0
  162.6080  209.7280  152.0540 C   0  0  1  0  0  3  0  0  0  0  0  0
  159.3130  211.4750  154.5930 F   0  0  0  0  0  0  0  0  0  0  0  0
  160.6500  211.0770  151.2260 C   0  0  0  0  0  0  0  0  0  0  0  0
  161.8190  212.3400  147.9770 N   0  0  0  0  0  2  0  0  0  0  0  0
  161.2890  213.6810  145.9540 N   0  0  0  0  0  0  0  0  0  0  0  0
  160.3360  214.4290  145.1490 C   0  0  0  0  0  1  0  0  0  0  0  0
  163.0910  207.5730  150.2450 O   0  0  0  0  0  0  0  0  0  0  0  0
  162.2490  207.3730  151.1620 C   0  0  0  0  0  0  0  0  0  0  0  0
  162.0000  208.4030  152.1230 N   0  0  0  0  0  2  0  0  0  0  0  0
  160.6390  203.4650  151.6400 C   0  0  0  0  0  0  0  0  0  0  0  0
  160.8720  201.9410  150.1060 C   0  0  0  0  0  3  0  0  0  0  0  0
  161.5620  206.0560  151.2440 C   0  0  0  0  0  0  0  0  0  0  0  0
  160.5020  203.0120  149.4110 C   0  0  0  0  0  3  0  0  0  0  0  0
  161.4320  205.4530  152.6050 C   0  0  0  0  0  3  0  0  0  0  0  0
  160.2520  204.1300  150.3710 C   0  0  2  0  0  3  0  0  0  0  0  0
  160.9810  202.2330  151.4940 N   0  0  0  0  0  0  0  0  0  0  0  0
  161.0200  204.2310  152.7780 N   0  0  0  0  0  0  0  0  0  0  0  0
  161.2290  205.8790  148.7620 C   0  0  0  0  0  1  0  0  0  0  0  0
  161.0930  205.3690  150.1630 C   0  0  0  0  0  0  0  0  0  0  0  0
  162.4450  213.0390  143.9040 C   0  0  0  0  0  1  0  0  0  0  0  0
  162.5900  213.3800  145.3760 C   0  0  0  0  0  2  0  0  0  0  0  0
  161.6810  210.5550  155.6900 C   0  0  0  0  0  2  0  0  0  0  0  0
  161.4590  209.3160  156.4970 C   0  0  0  0  0  0  0  0  0  0  0  0
  162.3860  208.8100  157.1110 O   0  0  0  0  0  0  0  0  0  0  0  0
  160.0930  208.7240  156.5860 C   0  0  0  0  0  2  0  0  0  0  0  0
  160.1390  207.3190  156.2200 N   0  0  0  0  0  1  0  0  0  0  0  0
  1 13  2  0  0  0  0
  1 11  1  0  0  0  0
  2 32  1  1  0  0  0
  4  2  1  0  0  0  0
  5 13  1  0  0  0  0
  6  2  1  0  0  0  0
  6 12  1  1  0  0  0
  7  1  1  0  0  0  0
  8  6  1  0  0  0  0
  9  3  2  0  0  0  0
  9 14  1  0  0  0  0
 10  7  2  0  0  0  0
 10  5  1  0  0  0  0
 11 19  1  1  0  0  0
 11  4  1  0  0  0  0
 13  8  1  0  0  0  0
 14 10  1  0  0  0  0
 15  9  1  0  0  0  0
 16 15  1  0  0  0  0
 17 18  2  0  0  0  0
 18 22  1  0  0  0  0
 18 19  1  0  0  0  0
 20 27  1  0  0  0  0
 21 26  1  0  0  0  0
 22 24  1  0  0  0  0
 23 21  2  0  0  0  0
 24 27  2  0  0  0  0
 25 23  1  6  0  0  0
 25 20  1  0  0  0  0
 26 20  2  0  0  0  0
 28 29  1  0  0  0  0
 29 25  1  0  0  0  0
 29 22  2  0  0  0  0
 30 31  1  0  0  0  0
 31 15  1  0  0  0  0
 32 33  1  0  0  0  0
 33 35  1  0  0  0  0
 33 34  2  0  0  0  0
 36 35  1  0  0  0  0
M  END
>  <MODEL>
1

>  <REMARK>
 VINA RESULT:      -6.3      0.000      0.000
  Name = 
  6 active torsions:
  status: ('A' for Active; 'I' for Inactive)
    1  A    between atoms: C_4  and  C_11
    2  A    between atoms: C_5  and  C_21
    3  A    between atoms: C_6  and  C_27
    4  A    between atoms: C_11  and  C_21
    5  A    between atoms: C_28  and  N_34
    6  A    between atoms: N_29  and  C_30
                            x       y       z     vdW  Elec       q    Type
                         _______ _______ _______ _____ _____    ______ ____

>  <TORSDO>
F 6

$$$$
=
 OpenBabel11042421073D

 36 39  0  0  1  0  0  0  0  0999 V2000
  161.9670  208.5010  150.2150 C   0  0  0  0  0  0  0  0  0  0  0  0
  161.8820  206.9920  147.3970 C   0  0  2  0  0  3  0  0  0  0  0  0
  160.0560  207.3760  154.5640 O   0  0  0  0  0  0  0  0  0  0  0  0
  163.0450  207.6960  148.0990 C   0  0  0  0  0  2  0  0  0  0  0  0
  160.5720  207.5640  151.7770 C   0  0  0  0  0  2  0  0  0  0  0  0
  161.0380  206.1730  148.3830 C   0  0  1  0  0  3  0  0  0  0  0  0
  162.4270  208.9470  151.4800 N   0  0  0  0  0  0  0  0  0  0  0  0
  160.1480  207.0860  149.2150 C   0  0  0  0  0  2  0  0  0  0  0  0
  161.0220  208.1440  154.8230 C   0  0  0  0  0  0  0  0  0  0  0  0
  161.6470  208.4240  152.3660 C   0  0  0  0  0  0  0  0  0  0  0  0
  162.6160  208.9090  148.9260 C   0  0  1  0  0  3  0  0  0  0  0  0
  160.2210  205.2850  147.7040 F   0  0  0  0  0  0  0  0  0  0  0  0
  160.9100  207.7100  150.3370 C   0  0  0  0  0  0  0  0  0  0  0  0
  161.8280  208.6780  153.7630 N   0  0  0  0  0  2  0  0  0  0  0  0
  161.3140  208.4890  156.1860 N   0  0  0  0  0  0  0  0  0  0  0  0
  160.4430  208.0390  157.2610 C   0  0  0  0  0  1  0  0  0  0  0  0
  162.8440  211.7480  148.7340 O   0  0  0  0  0  0  0  0  0  0  0  0
  161.8810  211.2090  148.1250 C   0  0  0  0  0  0  0  0  0  0  0  0
  161.7430  209.7850  148.1510 N   0  0  0  0  0  2  0  0  0  0  0  0
  158.9060  213.2860  145.9060 C   0  0  0  0  0  0  0  0  0  0  0  0
  159.0910  213.5930  143.7610 C   0  0  0  0  0  3  0  0  0  0  0  0
  160.9310  212.0640  147.3640 C   0  0  0  0  0  0  0  0  0  0  0  0
  160.2960  213.9180  144.2160 C   0  0  0  0  0  3  0  0  0  0  0  0
  159.5010  212.0220  147.7920 C   0  0  0  0  0  3  0  0  0  0  0  0
  160.2820  213.8010  145.7060 C   0  0  2  0  0  3  0  0  0  0  0  0
  158.2320  213.1740  144.8140 N   0  0  0  0  0  0  0  0  0  0  0  0
  158.5560  212.5780  147.0910 N   0  0  0  0  0  0  0  0  0  0  0  0
  162.6840  212.8930  145.7700 C   0  0  0  0  0  1  0  0  0  0  0  0
  161.2840  212.8340  146.2940 C   0  0  0  0  0  0  0  0  0  0  0  0
  162.0160  210.8250  156.2460 C   0  0  0  0  0  1  0  0  0  0  0  0
  162.4110  209.3840  156.5200 C   0  0  0  0  0  2  0  0  0  0  0  0
  162.4590  206.1090  146.2990 C   0  0  0  0  0  2  0  0  0  0  0  0
  161.3970  205.7330  145.3170 C   0  0  0  0  0  0  0  0  0  0  0  0
  160.5290  206.5380  145.0150 O   0  0  0  0  0  0  0  0  0  0  0  0
  161.4260  204.3880  144.6730 C   0  0  0  0  0  2  0  0  0  0  0  0
  161.6200  203.3620  145.6830 N   0  0  0  0  0  1  0  0  0  0  0  0
  1 13  2  0  0  0  0
  1  7  1  0  0  0  0
  2 32  1  6  0  0  0
  2  4  1  0  0  0  0
  2  6  1  0  0  0  0
  3  9  2  0  0  0  0
  4 11  1  0  0  0  0
  5 10  1  0  0  0  0
  6 12  1  6  0  0  0
  6  8  1  0  0  0  0
  7 10  2  0  0  0  0
  8 13  1  0  0  0  0
  9 15  1  0  0  0  0
 10 14  1  0  0  0  0
 11 19  1  6  0  0  0
 11  1  1  0  0  0  0
 13  5  1  0  0  0  0
 14  9  1  0  0  0  0
 15 31  1  0  0  0  0
 15 16  1  0  0  0  0
 18 19  1  0  0  0  0
 18 17  2  0  0  0  0
 20 27  1  0  0  0  0
 21 23  2  0  0  0  0
 21 26  1  0  0  0  0
 22 24  1  0  0  0  0
 22 18  1  0  0  0  0
 25 23  1  6  0  0  0
 25 20  1  0  0  0  0
 25 29  1  0  0  0  0
 26 20  2  0  0  0  0
 27 24  2  0  0  0  0
 28 29  1  0  0  0  0
 29 22  2  0  0  0  0
 30 31  1  0  0  0  0
 33 32  1  0  0  0  0
 34 33  2  0  0  0  0
 35 33  1  0  0  0  0
 35 36  1  0  0  0  0
M  END
>  <MODEL>
2

>  <REMARK>
 VINA RESULT:      -4.3      3.126      9.169
  Name = 
  6 active torsions:
  status: ('A' for Active; 'I' for Inactive)
    1  A    between atoms: C_4  and  C_11
    2  A    between atoms: C_5  and  C_21
    3  A    between atoms: C_6  and  C_27
    4  A    between atoms: C_11  and  C_21
    5  A    between atoms: C_28  and  N_34
    6  A    between atoms: N_29  and  C_30
                            x       y       z     vdW  Elec       q    Type
                         _______ _______ _______ _____ _____    ______ ____

>  <TORSDO>
F 6

$$$$
=
 OpenBabel11042421073D

 36 39  0  0  1  0  0  0  0  0999 V2000
  160.8480  208.4470  152.4260 C   0  0  0  0  0  0  0  0  0  0  0  0
  161.9630  210.0530  154.9560 C   0  0  2  0  0  3  0  0  0  0  0  0
  162.8790  207.3310  148.1300 O   0  0  0  0  0  0  0  0  0  0  0  0
  161.1450  208.7620  154.8960 C   0  0  0  0  0  2  0  0  0  0  0  0
  162.2330  208.5730  150.6010 C   0  0  0  0  0  2  0  0  0  0  0  0
  163.0530  210.0840  153.8750 C   0  0  1  0  0  3  0  0  0  0  0  0
  160.4890  207.3690  151.5780 N   0  0  0  0  0  0  0  0  0  0  0  0
  162.4450  210.3840  152.5110 C   0  0  0  0  0  2  0  0  0  0  0  0
  161.9780  206.4650  148.2980 C   0  0  0  0  0  0  0  0  0  0  0  0
  161.2640  207.4320  150.5470 C   0  0  0  0  0  0  0  0  0  0  0  0
  160.1560  208.7180  153.7290 C   0  0  1  0  0  3  0  0  0  0  0  0
  163.9850  211.0680  154.1520 F   0  0  0  0  0  0  0  0  0  0  0  0
  161.8370  209.1610  151.9080 C   0  0  0  0  0  0  0  0  0  0  0  0
  161.1640  206.4840  149.4800 N   0  0  0  0  0  2  0  0  0  0  0  0
  161.7640  205.4550  147.2990 N   0  0  0  0  0  0  0  0  0  0  0  0
  162.5100  205.4850  146.0510 C   0  0  0  0  0  1  0  0  0  0  0  0
  158.5250  209.7690  155.8220 O   0  0  0  0  0  0  0  0  0  0  0  0
  158.5390  210.4050  154.7330 C   0  0  0  0  0  0  0  0  0  0  0  0
  159.3730  209.9480  153.6650 N   0  0  0  0  0  2  0  0  0  0  0  0
  155.8220  213.6590  154.3870 C   0  0  0  0  0  0  0  0  0  0  0  0
  155.2310  214.4490  152.4490 C   0  0  0  0  0  3  0  0  0  0  0  0
  157.7150  211.6360  154.5990 C   0  0  0  0  0  0  0  0  0  0  0  0
  156.5500  214.3330  152.3370 C   0  0  0  0  0  3  0  0  0  0  0  0
  156.6520  211.8460  155.6270 C   0  0  0  0  0  3  0  0  0  0  0  0
  157.0910  213.8460  153.6420 C   0  0  2  0  0  3  0  0  0  0  0  0
  154.7760  214.0030  153.7210 N   0  0  0  0  0  0  0  0  0  0  0  0
  155.7550  212.7820  155.5070 N   0  0  0  0  0  0  0  0  0  0  0  0
  158.8570  212.3790  152.4900 C   0  0  0  0  0  1  0  0  0  0  0  0
  157.8510  212.5400  153.5860 C   0  0  0  0  0  0  0  0  0  0  0  0
  161.3060  203.1780  148.0450 C   0  0  0  0  0  1  0  0  0  0  0  0
  160.7240  204.4490  147.4530 C   0  0  0  0  0  2  0  0  0  0  0  0
  162.5670  210.1630  156.3500 C   0  0  0  0  0  2  0  0  0  0  0  0
  162.2170  211.4770  156.9700 C   0  0  0  0  0  0  0  0  0  0  0  0
  163.0980  212.2720  157.2600 O   0  0  0  0  0  0  0  0  0  0  0  0
  160.7860  211.8340  157.1920 C   0  0  0  0  0  2  0  0  0  0  0  0
  160.4570  213.0370  156.4480 N   0  0  0  0  0  1  0  0  0  0  0  0
  1 11  1  0  0  0  0
  2 32  1  1  0  0  0
  3  9  2  0  0  0  0
  4  2  1  0  0  0  0
  5 13  1  0  0  0  0
  6 12  1  1  0  0  0
  6  2  1  0  0  0  0
  7  1  1  0  0  0  0
  8  6  1  0  0  0  0
  9 14  1  0  0  0  0
 10  5  1  0  0  0  0
 10  7  2  0  0  0  0
 11 19  1  6  0  0  0
 11  4  1  0  0  0  0
 13  1  2  0  0  0  0
 13  8  1  0  0  0  0
 14 10  1  0  0  0  0
 15 31  1  0  0  0  0
 15  9  1  0  0  0  0
 16 15  1  0  0  0  0
 18 17  2  0  0  0  0
 19 18  1  0  0  0  0
 20 27  1  0  0  0  0
 21 26  1  0  0  0  0
 22 18  1  0  0  0  0
 22 24  1  0  0  0  0
 23 21  2  0  0  0  0
 25 23  1  6  0  0  0
 25 20  1  0  0  0  0
 26 20  2  0  0  0  0
 27 24  2  0  0  0  0
 28 29  1  0  0  0  0
 29 25  1  0  0  0  0
 29 22  2  0  0  0  0
 31 30  1  0  0  0  0
 32 33  1  0  0  0  0
 33 35  1  0  0  0  0
 33 34  2  0  0  0  0
 36 35  1  0  0  0  0
M  END
>  <MODEL>
3

>  <REMARK>
 VINA RESULT:      -3.5      3.931      7.329
  Name = 
  6 active torsions:
  status: ('A' for Active; 'I' for Inactive)
    1  A    between atoms: C_4  and  C_11
    2  A    between atoms: C_5  and  C_21
    3  A    between atoms: C_6  and  C_27
    4  A    between atoms: C_11  and  C_21
    5  A    between atoms: C_28  and  N_34
    6  A    between atoms: N_29  and  C_30
                            x       y       z     vdW  Elec       q    Type
                         _______ _______ _______ _____ _____    ______ ____

>  <TORSDO>
F 6

$$$$
