=
 OpenBabel11052410483D

 28 31  0  0  1  0  0  0  0  0999 V2000
  161.3420  207.5600  151.3340 C   0  0  0  0  0  3  0  0  0  0  0  0
  161.6170  202.5140  147.0270 C   0  0  0  0  0  3  0  0  0  0  0  0
  161.0280  201.7180  149.1810 C   0  0  0  0  0  0  0  0  0  0  0  0
  160.8260  202.0520  150.5550 N   0  0  0  0  0  0  0  0  0  0  0  0
  162.2870  209.2710  149.9170 C   0  0  0  0  0  3  0  0  0  0  0  0
  159.7310  206.0530  147.5480 C   0  0  0  0  0  2  0  0  0  0  0  0
  161.9630  208.8030  151.1970 C   0  0  0  0  0  0  0  0  0  0  0  0
  161.4950  203.6480  145.6420 S   0  0  0  0  0  0  0  0  0  0  0  0
  161.9740  208.5100  148.7900 C   0  0  0  0  0  3  0  0  0  0  0  0
  161.1160  200.4690  148.8560 N   0  0  0  0  0  2  0  0  0  0  0  0
  161.0310  206.7840  150.2090 C   0  0  0  0  0  0  0  0  0  0  0  0
  161.3340  207.2680  148.9170 C   0  0  0  0  0  0  0  0  0  0  0  0
  161.0960  203.2100  151.0630 C   0  0  0  0  0  0  0  0  0  0  0  0
  161.5450  204.5100  150.9850 C   0  0  2  0  0  3  0  0  0  0  0  0
  161.9990  206.6360  146.2310 S   0  0  0  0  0  0  0  0  0  0  0  0
  161.1710  204.1270  152.2440 O   0  0  0  0  0  0  0  0  0  0  0  0
  160.9600  206.5360  147.6880 C   0  0  0  0  0  0  0  0  0  0  0  0
  161.0230  202.7270  148.1580 N   0  0  0  0  0  0  0  0  0  0  0  0
  160.4680  205.4140  150.4190 C   0  0  0  0  0  2  0  0  0  0  0  0
  163.6480  204.6630  146.7780 O   0  0  0  0  0  0  0  0  0  0  0  0
  162.5410  204.9300  146.3360 C   0  0  0  0  0  0  0  0  0  0  0  0
  162.2510  209.5460  152.3460 O   0  0  0  0  0  0  0  0  0  0  0  0
  161.3290  210.4630  152.9170 C   0  0  0  0  0  2  0  0  0  0  0  0
  160.4990  209.7560  153.9670 C   0  0  0  0  0  2  0  0  0  0  0  0
  161.3550  209.4860  155.1980 C   0  0  2  0  0  3  0  0  0  0  0  0
  161.3910  208.0660  155.6690 C   0  0  1  0  0  3  0  0  0  0  0  0
  160.5340  209.0250  156.2440 O   0  0  0  0  0  0  0  0  0  0  0  0
  160.5650  207.0770  154.8540 C   0  0  0  0  0  1  0  0  0  0  0  0
  2 18  2  0  0  0  0
  3  4  1  0  0  0  0
  4 13  2  0  0  0  0
  5  7  2  0  0  0  0
  6 17  2  0  0  0  0
  7  1  1  0  0  0  0
  7 22  1  0  0  0  0
  8 21  1  0  0  0  0
  8  2  1  0  0  0  0
  9 12  2  0  0  0  0
  9  5  1  0  0  0  0
 10  3  2  0  0  0  0
 11 19  1  0  0  0  0
 11  1  2  0  0  0  0
 12 11  1  0  0  0  0
 13 16  1  0  0  0  0
 14 19  1  6  0  0  0
 14 13  1  0  0  0  0
 14 16  1  0  0  0  0
 15 21  1  0  0  0  0
 15 17  1  0  0  0  0
 17 12  1  0  0  0  0
 18  3  1  0  0  0  0
 21 20  2  0  0  0  0
 22 23  1  0  0  0  0
 23 24  1  0  0  0  0
 25 24  1  6  0  0  0
 25 26  1  0  0  0  0
 25 27  1  0  0  0  0
 26 28  1  6  0  0  0
 26 27  1  0  0  0  0
M  END
>  <MODEL>
1

>  <REMARK>
 VINA RESULT:      -7.3      0.000      0.000
  Name = 
  4 active torsions:
  status: ('A' for Active; 'I' for Inactive)
    1  A    between atoms: C_7  and  O_28
    2  A    between atoms: C_15  and  C_26
    3  A    between atoms: C_15  and  O_28
    4  A    between atoms: C_17  and  C_26
                            x       y       z     vdW  Elec       q    Type
                         _______ _______ _______ _____ _____    ______ ____

>  <TORSDO>
F 4

$$$$
=
 OpenBabel11052410483D

 28 31  0  0  1  0  0  0  0  0999 V2000
  161.0880  205.4130  152.0160 C   0  0  0  0  0  3  0  0  0  0  0  0
  161.6800  203.0650  145.8330 C   0  0  0  0  0  3  0  0  0  0  0  0
  160.8850  201.3640  147.2800 C   0  0  0  0  0  0  0  0  0  0  0  0
  160.5630  201.0040  148.6250 N   0  0  0  0  0  0  0  0  0  0  0  0
  162.1830  207.5390  151.6810 C   0  0  0  0  0  3  0  0  0  0  0  0
  159.8060  206.0150  147.8680 C   0  0  0  0  0  2  0  0  0  0  0  0
  161.7360  206.5300  152.5450 C   0  0  0  0  0  0  0  0  0  0  0  0
  161.7010  204.7310  145.1680 S   0  0  0  0  0  0  0  0  0  0  0  0
  161.9630  207.4350  150.3070 C   0  0  0  0  0  3  0  0  0  0  0  0
  160.9840  200.4240  146.3960 N   0  0  0  0  0  2  0  0  0  0  0  0
  160.8690  205.2950  150.6360 C   0  0  0  0  0  0  0  0  0  0  0  0
  161.2960  206.3250  149.7680 C   0  0  0  0  0  0  0  0  0  0  0  0
  160.8020  201.7560  149.6490 C   0  0  0  0  0  0  0  0  0  0  0  0
  161.2760  202.9040  150.2450 C   0  0  2  0  0  3  0  0  0  0  0  0
  162.1940  207.0300  147.1690 S   0  0  0  0  0  0  0  0  0  0  0  0
  160.7840  201.9830  151.1290 O   0  0  0  0  0  0  0  0  0  0  0  0
  161.0250  206.2990  148.3150 C   0  0  0  0  0  0  0  0  0  0  0  0
  160.9880  202.7400  146.8780 N   0  0  0  0  0  0  0  0  0  0  0  0
  160.2690  204.0290  150.1130 C   0  0  0  0  0  2  0  0  0  0  0  0
  163.7560  204.9470  146.8070 O   0  0  0  0  0  0  0  0  0  0  0  0
  162.6990  205.4570  146.4720 C   0  0  0  0  0  0  0  0  0  0  0  0
  161.9300  206.6090  153.9270 O   0  0  0  0  0  0  0  0  0  0  0  0
  160.8890  206.9600  154.8290 C   0  0  0  0  0  2  0  0  0  0  0  0
  161.2380  208.2610  155.5200 C   0  0  0  0  0  2  0  0  0  0  0  0
  160.8430  209.4330  154.6290 C   0  0  2  0  0  3  0  0  0  0  0  0
  161.6360  210.6890  154.8150 C   0  0  1  0  0  3  0  0  0  0  0  0
  160.3850  210.4940  155.4340 O   0  0  0  0  0  0  0  0  0  0  0  0
  162.7340  210.6290  155.8700 C   0  0  0  0  0  1  0  0  0  0  0  0
  1  7  1  0  0  0  0
  2 18  2  0  0  0  0
  3  4  1  0  0  0  0
  4 13  2  0  0  0  0
  5  7  2  0  0  0  0
  6 17  2  0  0  0  0
  7 22  1  0  0  0  0
  8  2  1  0  0  0  0
  8 21  1  0  0  0  0
  9  5  1  0  0  0  0
 10  3  2  0  0  0  0
 11  1  2  0  0  0  0
 12  9  2  0  0  0  0
 12 11  1  0  0  0  0
 13 14  1  0  0  0  0
 13 16  1  0  0  0  0
 14 19  1  6  0  0  0
 14 16  1  0  0  0  0
 15 17  1  0  0  0  0
 17 12  1  0  0  0  0
 18  3  1  0  0  0  0
 19 11  1  0  0  0  0
 21 20  2  0  0  0  0
 21 15  1  0  0  0  0
 22 23  1  0  0  0  0
 23 24  1  0  0  0  0
 25 26  1  0  0  0  0
 25 27  1  0  0  0  0
 25 24  1  1  0  0  0
 26 27  1  0  0  0  0
 26 28  1  1  0  0  0
M  END
>  <MODEL>
2

>  <REMARK>
 VINA RESULT:      -7.0      1.360      2.111
  Name = 
  4 active torsions:
  status: ('A' for Active; 'I' for Inactive)
    1  A    between atoms: C_7  and  O_28
    2  A    between atoms: C_15  and  C_26
    3  A    between atoms: C_15  and  O_28
    4  A    between atoms: C_17  and  C_26
                            x       y       z     vdW  Elec       q    Type
                         _______ _______ _______ _____ _____    ______ ____

>  <TORSDO>
F 4

$$$$
=
 OpenBabel11052410483D

 28 31  0  0  1  0  0  0  0  0999 V2000
  161.3330  207.6560  151.2990 C   0  0  0  0  0  3  0  0  0  0  0  0
  161.6120  202.5110  147.1110 C   0  0  0  0  0  3  0  0  0  0  0  0
  161.0160  201.7660  149.2800 C   0  0  0  0  0  0  0  0  0  0  0  0
  160.8090  202.1320  150.6460 N   0  0  0  0  0  0  0  0  0  0  0  0
  162.2850  209.3320  149.8460 C   0  0  0  0  0  3  0  0  0  0  0  0
  159.7300  206.0640  147.5440 C   0  0  0  0  0  2  0  0  0  0  0  0
  161.9560  208.8940  151.1360 C   0  0  0  0  0  0  0  0  0  0  0  0
  161.4950  203.6130  145.7000 S   0  0  0  0  0  0  0  0  0  0  0  0
  161.9740  208.5460  148.7360 C   0  0  0  0  0  3  0  0  0  0  0  0
  161.1020  200.5100  148.9840 N   0  0  0  0  0  2  0  0  0  0  0  0
  161.0240  206.8540  150.1920 C   0  0  0  0  0  0  0  0  0  0  0  0
  161.3320  207.3080  148.8900 C   0  0  0  0  0  0  0  0  0  0  0  0
  161.0800  203.3010  151.1280 C   0  0  0  0  0  0  0  0  0  0  0  0
  161.5320  204.5980  151.0210 C   0  0  2  0  0  3  0  0  0  0  0  0
  162.0030  206.6140  146.2210 S   0  0  0  0  0  0  0  0  0  0  0  0
  161.1540  204.2450  152.2880 O   0  0  0  0  0  0  0  0  0  0  0  0
  160.9600  206.5490  147.6770 C   0  0  0  0  0  0  0  0  0  0  0  0
  161.0150  202.7520  148.2340 N   0  0  0  0  0  0  0  0  0  0  0  0
  160.4580  205.4900  150.4310 C   0  0  0  0  0  2  0  0  0  0  0  0
  163.6470  204.6500  146.8180 O   0  0  0  0  0  0  0  0  0  0  0  0
  162.5420  204.9090  146.3670 C   0  0  0  0  0  0  0  0  0  0  0  0
  162.2430  209.6630  152.2670 O   0  0  0  0  0  0  0  0  0  0  0  0
  161.4230  209.6560  153.4270 C   0  0  0  0  0  2  0  0  0  0  0  0
  161.0290  211.0750  153.7760 C   0  0  0  0  0  2  0  0  0  0  0  0
  160.1800  211.6590  152.6540 C   0  0  2  0  0  3  0  0  0  0  0  0
  158.9550  212.4050  153.0840 C   0  0  1  0  0  3  0  0  0  0  0  0
  158.9070  211.0580  152.6740 O   0  0  0  0  0  0  0  0  0  0  0  0
  158.7200  212.4820  154.5880 C   0  0  0  0  0  1  0  0  0  0  0  0
  2 18  2  0  0  0  0
  3  4  1  0  0  0  0
  4 13  2  0  0  0  0
  5  7  2  0  0  0  0
  6 17  2  0  0  0  0
  7  1  1  0  0  0  0
  7 22  1  0  0  0  0
  8 21  1  0  0  0  0
  8  2  1  0  0  0  0
  9 12  2  0  0  0  0
  9  5  1  0  0  0  0
 10  3  2  0  0  0  0
 11 19  1  0  0  0  0
 11  1  2  0  0  0  0
 12 11  1  0  0  0  0
 13 16  1  0  0  0  0
 14 19  1  6  0  0  0
 14 13  1  0  0  0  0
 14 16  1  0  0  0  0
 15 21  1  0  0  0  0
 15 17  1  0  0  0  0
 17 12  1  0  0  0  0
 18  3  1  0  0  0  0
 21 20  2  0  0  0  0
 22 23  1  0  0  0  0
 23 24  1  0  0  0  0
 25 27  1  0  0  0  0
 25 26  1  0  0  0  0
 25 24  1  1  0  0  0
 26 28  1  1  0  0  0
 27 26  1  0  0  0  0
M  END
>  <MODEL>
3

>  <REMARK>
 VINA RESULT:      -6.8      1.218      1.884
  Name = 
  4 active torsions:
  status: ('A' for Active; 'I' for Inactive)
    1  A    between atoms: C_7  and  O_28
    2  A    between atoms: C_15  and  C_26
    3  A    between atoms: C_15  and  O_28
    4  A    between atoms: C_17  and  C_26
                            x       y       z     vdW  Elec       q    Type
                         _______ _______ _______ _____ _____    ______ ____

>  <TORSDO>
F 4

$$$$
=
 OpenBabel11052410483D

 28 31  0  0  1  0  0  0  0  0999 V2000
  162.0560  206.6110  150.1390 C   0  0  0  0  0  3  0  0  0  0  0  0
  159.8720  210.4790  155.0740 C   0  0  0  0  0  3  0  0  0  0  0  0
  160.2890  208.2890  155.8770 C   0  0  0  0  0  0  0  0  0  0  0  0
  160.6720  206.9540  155.5410 N   0  0  0  0  0  0  0  0  0  0  0  0
  161.6500  208.1310  148.3080 C   0  0  0  0  0  3  0  0  0  0  0  0
  162.8510  210.3140  152.3450 C   0  0  0  0  0  2  0  0  0  0  0  0
  161.8750  206.8280  148.7720 C   0  0  0  0  0  0  0  0  0  0  0  0
  160.2810  211.9560  154.1410 S   0  0  0  0  0  0  0  0  0  0  0  0
  161.6260  209.2020  149.2020 C   0  0  0  0  0  3  0  0  0  0  0  0
  159.7740  208.5070  157.0440 N   0  0  0  0  0  2  0  0  0  0  0  0
  162.0260  207.6780  151.0470 C   0  0  0  0  0  0  0  0  0  0  0  0
  161.8240  208.9950  150.5750 C   0  0  0  0  0  0  0  0  0  0  0  0
  160.8310  206.5330  154.3280 C   0  0  0  0  0  0  0  0  0  0  0  0
  160.8340  206.7030  152.9610 C   0  0  2  0  0  3  0  0  0  0  0  0
  160.8310  211.5970  151.1240 S   0  0  0  0  0  0  0  0  0  0  0  0
  161.1330  205.4300  153.3630 O   0  0  0  0  0  0  0  0  0  0  0  0
  161.8620  210.1720  151.4700 C   0  0  0  0  0  0  0  0  0  0  0  0
  160.5690  209.3900  154.9980 N   0  0  0  0  0  0  0  0  0  0  0  0
  162.1140  207.3760  152.5100 C   0  0  0  0  0  2  0  0  0  0  0  0
  158.6570  210.8350  152.3910 O   0  0  0  0  0  0  0  0  0  0  0  0
  159.7610  211.3340  152.5400 C   0  0  0  0  0  0  0  0  0  0  0  0
  161.9180  205.7360  147.9010 O   0  0  0  0  0  0  0  0  0  0  0  0
  160.8680  204.7830  147.8140 C   0  0  0  0  0  2  0  0  0  0  0  0
  161.4240  203.3950  148.0520 C   0  0  0  0  0  2  0  0  0  0  0  0
  160.8310  202.8200  149.3320 C   0  0  2  0  0  3  0  0  0  0  0  0
  160.8500  201.3280  149.4460 C   0  0  1  0  0  3  0  0  0  0  0  0
  159.7100  202.0320  149.0110 O   0  0  0  0  0  0  0  0  0  0  0  0
  161.4590  200.5810  148.2650 C   0  0  0  0  0  1  0  0  0  0  0  0
  1 11  1  0  0  0  0
  3 10  2  0  0  0  0
  4  3  1  0  0  0  0
  5  7  1  0  0  0  0
  5  9  2  0  0  0  0
  7  1  2  0  0  0  0
  8  2  1  0  0  0  0
  9 12  1  0  0  0  0
 11 19  1  0  0  0  0
 12 11  2  0  0  0  0
 12 17  1  0  0  0  0
 13  4  2  0  0  0  0
 14 19  1  1  0  0  0
 14 16  1  0  0  0  0
 14 13  1  0  0  0  0
 15 17  1  0  0  0  0
 15 21  1  0  0  0  0
 16 13  1  0  0  0  0
 17  6  2  0  0  0  0
 18  2  2  0  0  0  0
 18  3  1  0  0  0  0
 20 21  2  0  0  0  0
 21  8  1  0  0  0  0
 22  7  1  0  0  0  0
 23 22  1  0  0  0  0
 23 24  1  0  0  0  0
 25 24  1  6  0  0  0
 25 26  1  0  0  0  0
 26 28  1  6  0  0  0
 27 25  1  0  0  0  0
 27 26  1  0  0  0  0
M  END
>  <MODEL>
4

>  <REMARK>
 VINA RESULT:      -6.2      3.940      7.414
  Name = 
  4 active torsions:
  status: ('A' for Active; 'I' for Inactive)
    1  A    between atoms: C_7  and  O_28
    2  A    between atoms: C_15  and  C_26
    3  A    between atoms: C_15  and  O_28
    4  A    between atoms: C_17  and  C_26
                            x       y       z     vdW  Elec       q    Type
                         _______ _______ _______ _____ _____    ______ ____

>  <TORSDO>
F 4

$$$$
=
 OpenBabel11052410483D

 28 31  0  0  1  0  0  0  0  0999 V2000
  162.2910  207.1600  149.7580 C   0  0  0  0  0  3  0  0  0  0  0  0
  159.7970  209.8300  155.3020 C   0  0  0  0  0  3  0  0  0  0  0  0
  160.2800  207.5360  155.6470 C   0  0  0  0  0  0  0  0  0  0  0  0
  160.7280  206.3150  155.0550 N   0  0  0  0  0  0  0  0  0  0  0  0
  161.8790  209.0160  148.2690 C   0  0  0  0  0  3  0  0  0  0  0  0
  162.8640  210.3430  152.7160 C   0  0  0  0  0  2  0  0  0  0  0  0
  162.1440  207.6530  148.4600 C   0  0  0  0  0  0  0  0  0  0  0  0
  160.1740  211.4830  154.7140 S   0  0  0  0  0  0  0  0  0  0  0  0
  161.7830  209.8740  149.3660 C   0  0  0  0  0  3  0  0  0  0  0  0
  159.7200  207.4870  156.8120 N   0  0  0  0  0  2  0  0  0  0  0  0
  162.1890  208.0120  150.8670 C   0  0  0  0  0  0  0  0  0  0  0  0
  161.9470  209.3900  150.6720 C   0  0  0  0  0  0  0  0  0  0  0  0
  160.9410  206.1640  153.7880 C   0  0  0  0  0  0  0  0  0  0  0  0
  160.9790  206.6160  152.4880 C   0  0  2  0  0  3  0  0  0  0  0  0
  160.8310  211.7840  151.7120 S   0  0  0  0  0  0  0  0  0  0  0  0
  161.3190  205.2980  152.6270 O   0  0  0  0  0  0  0  0  0  0  0  0
  161.9080  210.3540  151.7930 C   0  0  0  0  0  0  0  0  0  0  0  0
  160.5400  208.8060  155.0280 N   0  0  0  0  0  0  0  0  0  0  0  0
  162.2440  207.4130  152.2360 C   0  0  0  0  0  2  0  0  0  0  0  0
  158.6510  210.7000  152.7070 O   0  0  0  0  0  0  0  0  0  0  0  0
  159.7290  211.1940  152.9990 C   0  0  0  0  0  0  0  0  0  0  0  0
  162.2580  206.7700  147.3830 O   0  0  0  0  0  0  0  0  0  0  0  0
  162.6560  205.4150  147.5410 C   0  0  0  0  0  2  0  0  0  0  0  0
  161.5920  204.5060  146.9640 C   0  0  0  0  0  2  0  0  0  0  0  0
  161.9260  204.1890  145.5110 C   0  0  2  0  0  3  0  0  0  0  0  0
  161.1740  204.9730  144.4820 C   0  0  1  0  0  3  0  0  0  0  0  0
  160.7810  203.6770  144.8720 O   0  0  0  0  0  0  0  0  0  0  0  0
  160.1720  205.9860  145.0240 C   0  0  0  0  0  1  0  0  0  0  0  0
  1 11  1  0  0  0  0
  3 10  2  0  0  0  0
  4  3  1  0  0  0  0
  5  7  1  0  0  0  0
  5  9  2  0  0  0  0
  7  1  2  0  0  0  0
  8  2  1  0  0  0  0
  9 12  1  0  0  0  0
 11 19  1  0  0  0  0
 12 11  2  0  0  0  0
 12 17  1  0  0  0  0
 13  4  2  0  0  0  0
 14 19  1  1  0  0  0
 14 16  1  0  0  0  0
 14 13  1  0  0  0  0
 15 17  1  0  0  0  0
 15 21  1  0  0  0  0
 16 13  1  0  0  0  0
 17  6  2  0  0  0  0
 18  2  2  0  0  0  0
 18  3  1  0  0  0  0
 20 21  2  0  0  0  0
 21  8  1  0  0  0  0
 22 23  1  0  0  0  0
 22  7  1  0  0  0  0
 24 23  1  0  0  0  0
 25 24  1  1  0  0  0
 26 27  1  0  0  0  0
 26 28  1  1  0  0  0
 26 25  1  0  0  0  0
 27 25  1  0  0  0  0
M  END
>  <MODEL>
5

>  <REMARK>
 VINA RESULT:      -5.6      3.982      7.701
  Name = 
  4 active torsions:
  status: ('A' for Active; 'I' for Inactive)
    1  A    between atoms: C_7  and  O_28
    2  A    between atoms: C_15  and  C_26
    3  A    between atoms: C_15  and  O_28
    4  A    between atoms: C_17  and  C_26
                            x       y       z     vdW  Elec       q    Type
                         _______ _______ _______ _____ _____    ______ ____

>  <TORSDO>
F 4

$$$$
=
 OpenBabel11052410483D

 28 31  0  0  1  0  0  0  0  0999 V2000
  161.7020  209.3630  151.7930 C   0  0  0  0  0  3  0  0  0  0  0  0
  161.2060  203.5080  148.7010 C   0  0  0  0  0  3  0  0  0  0  0  0
  161.8740  205.1870  147.1670 C   0  0  0  0  0  0  0  0  0  0  0  0
  162.1350  206.5780  146.9690 N   0  0  0  0  0  0  0  0  0  0  0  0
  160.7170  208.7200  153.9020 C   0  0  0  0  0  3  0  0  0  0  0  0
  163.1450  205.2250  151.8060 C   0  0  0  0  0  2  0  0  0  0  0  0
  161.0880  209.7210  152.9940 C   0  0  0  0  0  0  0  0  0  0  0  0
  161.2830  202.6380  150.2680 S   0  0  0  0  0  0  0  0  0  0  0  0
  160.9770  207.3790  153.6140 C   0  0  0  0  0  3  0  0  0  0  0  0
  161.7610  204.4260  146.1270 N   0  0  0  0  0  2  0  0  0  0  0  0
  161.9610  208.0190  151.4910 C   0  0  0  0  0  0  0  0  0  0  0  0
  161.6090  207.0110  152.4180 C   0  0  0  0  0  0  0  0  0  0  0  0
  161.8960  207.4890  147.8550 C   0  0  0  0  0  0  0  0  0  0  0  0
  161.4560  207.9170  149.0880 C   0  0  2  0  0  3  0  0  0  0  0  0
  160.8310  204.3120  152.8220 S   0  0  0  0  0  0  0  0  0  0  0  0
  161.8770  208.9280  148.2690 O   0  0  0  0  0  0  0  0  0  0  0  0
  161.9270  205.5850  152.1960 C   0  0  0  0  0  0  0  0  0  0  0  0
  161.8470  204.6120  148.4840 N   0  0  0  0  0  0  0  0  0  0  0  0
  162.5180  207.6820  150.1440 C   0  0  0  0  0  2  0  0  0  0  0  0
  159.1870  204.1560  150.7760 O   0  0  0  0  0  0  0  0  0  0  0  0
  160.2780  203.8000  151.1950 C   0  0  0  0  0  0  0  0  0  0  0  0
  160.8530  211.0740  153.2570 O   0  0  0  0  0  0  0  0  0  0  0  0
  160.0390  211.8870  152.4250 C   0  0  0  0  0  2  0  0  0  0  0  0
  158.5810  211.6500  152.7590 C   0  0  0  0  0  2  0  0  0  0  0  0
  158.0450  212.8260  153.5660 C   0  0  2  0  0  3  0  0  0  0  0  0
  157.6510  212.5240  154.9770 C   0  0  1  0  0  3  0  0  0  0  0  0
  156.7100  212.5690  153.9310 O   0  0  0  0  0  0  0  0  0  0  0  0
  157.8390  211.0780  155.4220 C   0  0  0  0  0  1  0  0  0  0  0  0
  1  7  1  0  0  0  0
  2  8  1  0  0  0  0
  3 18  1  0  0  0  0
  4  3  1  0  0  0  0
  4 13  2  0  0  0  0
  6 17  2  0  0  0  0
  7 22  1  0  0  0  0
  7  5  2  0  0  0  0
  8 21  1  0  0  0  0
  9  5  1  0  0  0  0
 10  3  2  0  0  0  0
 11  1  2  0  0  0  0
 11 12  1  0  0  0  0
 12  9  2  0  0  0  0
 13 16  1  0  0  0  0
 13 14  1  0  0  0  0
 14 19  1  1  0  0  0
 16 14  1  0  0  0  0
 17 12  1  0  0  0  0
 17 15  1  0  0  0  0
 18  2  2  0  0  0  0
 19 11  1  0  0  0  0
 20 21  2  0  0  0  0
 21 15  1  0  0  0  0
 23 24  1  0  0  0  0
 23 22  1  0  0  0  0
 25 24  1  6  0  0  0
 25 27  1  0  0  0  0
 25 26  1  0  0  0  0
 26 28  1  6  0  0  0
 27 26  1  0  0  0  0
M  END
>  <MODEL>
6

>  <REMARK>
 VINA RESULT:      -5.3      2.941      4.514
  Name = 
  4 active torsions:
  status: ('A' for Active; 'I' for Inactive)
    1  A    between atoms: C_7  and  O_28
    2  A    between atoms: C_15  and  C_26
    3  A    between atoms: C_15  and  O_28
    4  A    between atoms: C_17  and  C_26
                            x       y       z     vdW  Elec       q    Type
                         _______ _______ _______ _____ _____    ______ ____

>  <TORSDO>
F 4

$$$$
=
 OpenBabel11052410483D

 28 31  0  0  1  0  0  0  0  0999 V2000
  161.4370  208.9840  151.8600 C   0  0  0  0  0  3  0  0  0  0  0  0
  161.2070  203.2840  148.4610 C   0  0  0  0  0  3  0  0  0  0  0  0
  161.7740  205.0750  147.0150 C   0  0  0  0  0  0  0  0  0  0  0  0
  161.9630  206.4860  146.8900 N   0  0  0  0  0  0  0  0  0  0  0  0
  160.5060  208.1800  153.9380 C   0  0  0  0  0  3  0  0  0  0  0  0
  163.0870  204.9290  151.6410 C   0  0  0  0  0  2  0  0  0  0  0  0
  160.8180  209.2460  153.0830 C   0  0  0  0  0  0  0  0  0  0  0  0
  161.3430  202.3370  149.9780 S   0  0  0  0  0  0  0  0  0  0  0  0
  160.8310  206.8720  153.5770 C   0  0  0  0  0  3  0  0  0  0  0  0
  161.6910  204.3660  145.9360 N   0  0  0  0  0  2  0  0  0  0  0  0
  161.7600  207.6730  151.4840 C   0  0  0  0  0  0  0  0  0  0  0  0
  161.4690  206.6010  152.3580 C   0  0  0  0  0  0  0  0  0  0  0  0
  161.6880  207.3350  147.8260 C   0  0  0  0  0  0  0  0  0  0  0  0
  161.2390  207.6730  149.0830 C   0  0  2  0  0  3  0  0  0  0  0  0
  160.8320  203.8470  152.6220 S   0  0  0  0  0  0  0  0  0  0  0  0
  161.6000  208.7470  148.3160 O   0  0  0  0  0  0  0  0  0  0  0  0
  161.8560  205.2060  152.0580 C   0  0  0  0  0  0  0  0  0  0  0  0
  161.7900  204.4290  148.2990 N   0  0  0  0  0  0  0  0  0  0  0  0
  162.3210  207.4370  150.1180 C   0  0  0  0  0  2  0  0  0  0  0  0
  159.1780  203.7170  150.5820 O   0  0  0  0  0  0  0  0  0  0  0  0
  160.2890  203.3950  150.9730 C   0  0  0  0  0  0  0  0  0  0  0  0
  160.5180  210.5690  153.4200 O   0  0  0  0  0  0  0  0  0  0  0  0
  159.7050  210.9120  154.5340 C   0  0  0  0  0  2  0  0  0  0  0  0
  160.4720  211.8410  155.4510 C   0  0  0  0  0  2  0  0  0  0  0  0
  160.5330  211.2400  156.8500 C   0  0  2  0  0  3  0  0  0  0  0  0
  161.8440  210.6370  157.2450 C   0  0  1  0  0  3  0  0  0  0  0  0
  160.7790  209.8580  156.7520 O   0  0  0  0  0  0  0  0  0  0  0  0
  162.9460  210.7030  156.1940 C   0  0  0  0  0  1  0  0  0  0  0  0
  1  7  1  0  0  0  0
  2  8  1  0  0  0  0
  3 18  1  0  0  0  0
  4  3  1  0  0  0  0
  4 13  2  0  0  0  0
  6 17  2  0  0  0  0
  7 22  1  0  0  0  0
  7  5  2  0  0  0  0
  8 21  1  0  0  0  0
  9  5  1  0  0  0  0
 10  3  2  0  0  0  0
 11  1  2  0  0  0  0
 11 12  1  0  0  0  0
 12  9  2  0  0  0  0
 13 16  1  0  0  0  0
 13 14  1  0  0  0  0
 14 19  1  1  0  0  0
 16 14  1  0  0  0  0
 17 12  1  0  0  0  0
 17 15  1  0  0  0  0
 18  2  2  0  0  0  0
 19 11  1  0  0  0  0
 20 21  2  0  0  0  0
 21 15  1  0  0  0  0
 22 23  1  0  0  0  0
 23 24  1  0  0  0  0
 25 24  1  6  0  0  0
 25 26  1  0  0  0  0
 26 28  1  6  0  0  0
 27 25  1  0  0  0  0
 27 26  1  0  0  0  0
M  END
>  <MODEL>
7

>  <REMARK>
 VINA RESULT:      -5.0      2.500      4.131
  Name = 
  4 active torsions:
  status: ('A' for Active; 'I' for Inactive)
    1  A    between atoms: C_7  and  O_28
    2  A    between atoms: C_15  and  C_26
    3  A    between atoms: C_15  and  O_28
    4  A    between atoms: C_17  and  C_26
                            x       y       z     vdW  Elec       q    Type
                         _______ _______ _______ _____ _____    ______ ____

>  <TORSDO>
F 4

$$$$
=
 OpenBabel11052410483D

 28 31  0  0  1  0  0  0  0  0999 V2000
  161.9680  209.3720  149.3710 C   0  0  0  0  0  3  0  0  0  0  0  0
  161.0090  202.8540  150.1960 C   0  0  0  0  0  3  0  0  0  0  0  0
  161.2780  203.3550  147.8950 C   0  0  0  0  0  0  0  0  0  0  0  0
  161.4460  204.3810  146.9150 N   0  0  0  0  0  0  0  0  0  0  0  0
  161.4790  210.0780  151.6270 C   0  0  0  0  0  3  0  0  0  0  0  0
  163.5120  205.7990  151.3840 C   0  0  0  0  0  2  0  0  0  0  0  0
  161.6150  210.3830  150.2660 C   0  0  0  0  0  0  0  0  0  0  0  0
  161.4470  202.9770  151.9310 S   0  0  0  0  0  0  0  0  0  0  0  0
  161.7140  208.7810  152.0840 C   0  0  0  0  0  3  0  0  0  0  0  0
  160.9690  202.1640  147.4940 N   0  0  0  0  0  2  0  0  0  0  0  0
  162.1990  208.0640  149.8180 C   0  0  0  0  0  0  0  0  0  0  0  0
  162.0870  207.7630  151.1940 C   0  0  0  0  0  0  0  0  0  0  0  0
  161.3740  205.6460  147.1760 C   0  0  0  0  0  0  0  0  0  0  0  0
  161.1950  206.7150  148.0260 C   0  0  2  0  0  3  0  0  0  0  0  0
  161.5000  205.8070  153.1650 S   0  0  0  0  0  0  0  0  0  0  0  0
  161.3970  207.0710  146.7210 O   0  0  0  0  0  0  0  0  0  0  0  0
  162.3940  206.4240  151.7400 C   0  0  0  0  0  0  0  0  0  0  0  0
  161.5530  203.5960  149.2850 N   0  0  0  0  0  0  0  0  0  0  0  0
  162.4650  206.9980  148.8030 C   0  0  0  0  0  2  0  0  0  0  0  0
  159.4620  204.7130  151.9150 O   0  0  0  0  0  0  0  0  0  0  0  0
  160.6270  204.5430  152.2380 C   0  0  0  0  0  0  0  0  0  0  0  0
  161.3990  211.6750  149.7780 O   0  0  0  0  0  0  0  0  0  0  0  0
  161.8110  212.0840  148.4820 C   0  0  0  0  0  2  0  0  0  0  0  0
  160.6900  212.8520  147.8140 C   0  0  0  0  0  2  0  0  0  0  0  0
  161.2760  213.8700  146.8440 C   0  0  2  0  0  3  0  0  0  0  0  0
  160.9370  213.6670  145.4010 C   0  0  1  0  0  3  0  0  0  0  0  0
  162.1510  213.2170  145.9560 O   0  0  0  0  0  0  0  0  0  0  0  0
  160.0500  212.4660  145.0920 C   0  0  0  0  0  1  0  0  0  0  0  0
  1 11  2  0  0  0  0
  1  7  1  0  0  0  0
  2  8  1  0  0  0  0
  3 18  1  0  0  0  0
  4 13  2  0  0  0  0
  4  3  1  0  0  0  0
  5  9  1  0  0  0  0
  6 17  2  0  0  0  0
  7  5  2  0  0  0  0
  8 21  1  0  0  0  0
 10  3  2  0  0  0  0
 11 12  1  0  0  0  0
 12 17  1  0  0  0  0
 12  9  2  0  0  0  0
 13 14  1  0  0  0  0
 14 19  1  1  0  0  0
 16 13  1  0  0  0  0
 16 14  1  0  0  0  0
 17 15  1  0  0  0  0
 18  2  2  0  0  0  0
 19 11  1  0  0  0  0
 20 21  2  0  0  0  0
 21 15  1  0  0  0  0
 22  7  1  0  0  0  0
 23 22  1  0  0  0  0
 24 23  1  0  0  0  0
 25 24  1  1  0  0  0
 26 28  1  1  0  0  0
 26 27  1  0  0  0  0
 26 25  1  0  0  0  0
 27 25  1  0  0  0  0
M  END
>  <MODEL>
8

>  <REMARK>
 VINA RESULT:      -4.7      3.451      5.786
  Name = 
  4 active torsions:
  status: ('A' for Active; 'I' for Inactive)
    1  A    between atoms: C_7  and  O_28
    2  A    between atoms: C_15  and  C_26
    3  A    between atoms: C_15  and  O_28
    4  A    between atoms: C_17  and  C_26
                            x       y       z     vdW  Elec       q    Type
                         _______ _______ _______ _____ _____    ______ ____

>  <TORSDO>
F 4

$$$$
