=
 OpenBabel11052411143D

 26 28  0  0  1  0  0  0  0  0999 V2000
  161.9390  206.5350  148.8150 O   0  0  0  0  0  0  0  0  0  0  0  0
  160.9270  203.6220  149.0230 C   0  0  1  0  0  3  0  0  0  0  0  0
  160.9400  207.0230  150.9430 C   0  0  0  0  0  2  0  0  0  0  0  0
  160.7770  205.0850  152.4880 C   0  0  0  0  0  3  0  0  0  0  0  0
  160.7430  204.2160  151.4740 C   0  0  0  0  0  3  0  0  0  0  0  0
  160.1080  206.2340  147.3870 F   0  0  0  0  0  0  0  0  0  0  0  0
  161.3700  204.5760  150.1460 C   0  0  2  0  0  3  0  0  0  0  0  0
  161.0270  206.0360  149.7610 C   0  0  2  0  0  3  0  0  0  0  0  0
  161.4160  206.4250  152.2710 C   0  0  2  0  0  3  0  0  0  0  0  0
  161.4950  206.2320  147.5070 C   0  0  0  0  0  0  0  0  0  0  0  0
  161.9850  207.2080  146.6570 F   0  0  0  0  0  0  0  0  0  0  0  0
  162.0400  204.8950  147.0880 C   0  0  0  0  0  0  0  0  0  0  0  0
  162.7160  204.8000  146.0300 O   0  0  0  0  0  0  0  0  0  0  0  0
  161.8220  203.7190  147.8740 N   0  0  0  0  0  2  0  0  0  0  0  0
  160.4810  207.6770  155.7110 C   0  0  0  0  0  0  0  0  0  0  0  0
  161.1450  207.3490  153.4150 C   0  0  0  0  0  0  0  0  0  0  0  0
  161.0300  209.5620  154.3760 C   0  0  0  0  0  0  0  0  0  0  0  0
  160.7350  206.8170  154.6390 C   0  0  0  0  0  3  0  0  0  0  0  0
  161.2940  208.7370  153.2810 C   0  0  0  0  0  3  0  0  0  0  0  0
  160.0640  207.1460  156.9620 N   0  0  0  0  0  1  0  0  0  0  0  0
  160.6310  209.0190  155.5590 N   0  0  0  0  0  0  0  0  0  0  0  0
  161.1760  210.9720  154.2540 N   0  0  0  0  0  1  0  0  0  0  0  0
  160.8940  202.1650  149.4830 C   0  0  0  0  0  2  0  0  0  0  0  0
  160.4730  201.2410  148.3510 C   0  0  0  0  0  2  0  0  0  0  0  0
  161.4440  199.8260  146.7060 O   0  0  0  0  0  1  0  0  0  0  0  0
  161.5880  200.2680  148.0200 C   0  0  0  0  0  2  0  0  0  0  0  0
  1  8  1  0  0  0  0
  2 23  1  1  0  0  0
  2  7  1  0  0  0  0
  3  9  1  0  0  0  0
  5  4  2  0  0  0  0
  6 10  1  0  0  0  0
  7  5  1  1  0  0  0
  8  7  1  0  0  0  0
  8  3  1  1  0  0  0
  9  4  1  0  0  0  0
  9 16  1  1  0  0  0
 10  1  1  0  0  0  0
 11 10  1  0  0  0  0
 12 10  1  0  0  0  0
 12 14  1  0  0  0  0
 13 12  2  0  0  0  0
 14  2  1  0  0  0  0
 15 20  1  0  0  0  0
 16 18  1  0  0  0  0
 17 21  2  0  0  0  0
 18 15  2  0  0  0  0
 19 16  2  0  0  0  0
 19 17  1  0  0  0  0
 21 15  1  0  0  0  0
 22 17  1  0  0  0  0
 24 23  1  0  0  0  0
 25 26  1  0  0  0  0
 26 24  1  0  0  0  0
M  END
>  <MODEL>
1

>  <REMARK>
 VINA RESULT:      -9.6      0.000      0.000
  Name = 
  4 active torsions:
  status: ('A' for Active; 'I' for Inactive)
    1  A    between atoms: C_3  and  C_17
    2  A    between atoms: C_3  and  C_26
    3  A    between atoms: C_5  and  C_16
    4  A    between atoms: C_6  and  C_17
                            x       y       z     vdW  Elec       q    Type
                         _______ _______ _______ _____ _____    ______ ____

>  <TORSDO>
F 4

$$$$
=
 OpenBabel11052411143D

 26 28  0  0  1  0  0  0  0  0999 V2000
  161.0900  208.7920  150.7480 O   0  0  0  0  0  0  0  0  0  0  0  0
  161.3650  207.7500  153.6450 C   0  0  1  0  0  3  0  0  0  0  0  0
  161.6940  206.6190  149.9210 C   0  0  0  0  0  2  0  0  0  0  0  0
  161.0900  204.7300  151.4150 C   0  0  0  0  0  3  0  0  0  0  0  0
  161.1470  205.5050  152.5020 C   0  0  0  0  0  3  0  0  0  0  0  0
  163.0710  209.6070  151.6930 F   0  0  0  0  0  0  0  0  0  0  0  0
  160.9140  206.9940  152.3830 C   0  0  2  0  0  3  0  0  0  0  0  0
  161.6460  207.5620  151.1420 C   0  0  2  0  0  3  0  0  0  0  0  0
  160.8240  205.3680  150.0840 C   0  0  2  0  0  3  0  0  0  0  0  0
  161.7260  209.8520  151.4350 C   0  0  0  0  0  0  0  0  0  0  0  0
  161.6570  210.9770  150.6330 F   0  0  0  0  0  0  0  0  0  0  0  0
  161.0020  210.1210  152.7250 C   0  0  0  0  0  0  0  0  0  0  0  0
  160.5630  211.2770  152.9660 O   0  0  0  0  0  0  0  0  0  0  0  0
  160.7810  209.0870  153.6890 N   0  0  0  0  0  2  0  0  0  0  0  0
  161.1280  202.1270  148.1680 C   0  0  0  0  0  0  0  0  0  0  0  0
  161.0410  204.4030  148.9630 C   0  0  0  0  0  0  0  0  0  0  0  0
  161.5540  203.9070  146.6550 C   0  0  0  0  0  0  0  0  0  0  0  0
  160.9260  203.0340  149.2120 C   0  0  0  0  0  3  0  0  0  0  0  0
  161.3590  204.8450  147.6710 C   0  0  0  0  0  3  0  0  0  0  0  0
  161.0120  200.7300  148.4090 N   0  0  0  0  0  1  0  0  0  0  0  0
  161.4350  202.5780  146.9230 N   0  0  0  0  0  0  0  0  0  0  0  0
  161.8770  204.3420  145.3400 N   0  0  0  0  0  1  0  0  0  0  0  0
  160.9760  207.0160  154.9270 C   0  0  0  0  0  2  0  0  0  0  0  0
  160.0340  207.8540  155.7770 C   0  0  0  0  0  2  0  0  0  0  0  0
  161.9110  208.5300  157.0700 O   0  0  0  0  0  1  0  0  0  0  0  0
  160.6070  208.0470  157.1680 C   0  0  0  0  0  2  0  0  0  0  0  0
  1  8  1  0  0  0  0
  1 10  1  0  0  0  0
  2 14  1  0  0  0  0
  2 23  1  1  0  0  0
  3  9  1  0  0  0  0
  4  5  2  0  0  0  0
  7  5  1  1  0  0  0
  7  2  1  0  0  0  0
  8  3  1  6  0  0  0
  8  7  1  0  0  0  0
  9 16  1  6  0  0  0
  9  4  1  0  0  0  0
 10  6  1  0  0  0  0
 10 12  1  0  0  0  0
 11 10  1  0  0  0  0
 12 13  2  0  0  0  0
 12 14  1  0  0  0  0
 15 20  1  0  0  0  0
 15 18  1  0  0  0  0
 16 18  2  0  0  0  0
 17 21  1  0  0  0  0
 17 19  2  0  0  0  0
 19 16  1  0  0  0  0
 21 15  2  0  0  0  0
 22 17  1  0  0  0  0
 23 24  1  0  0  0  0
 24 26  1  0  0  0  0
 25 26  1  0  0  0  0
M  END
>  <MODEL>
2

>  <REMARK>
 VINA RESULT:      -9.4      3.132      7.665
  Name = 
  4 active torsions:
  status: ('A' for Active; 'I' for Inactive)
    1  A    between atoms: C_3  and  C_17
    2  A    between atoms: C_3  and  C_26
    3  A    between atoms: C_5  and  C_16
    4  A    between atoms: C_6  and  C_17
                            x       y       z     vdW  Elec       q    Type
                         _______ _______ _______ _____ _____    ______ ____

>  <TORSDO>
F 4

$$$$
=
 OpenBabel11052411143D

 26 28  0  0  1  0  0  0  0  0999 V2000
  161.0930  208.7600  150.6800 O   0  0  0  0  0  0  0  0  0  0  0  0
  161.3640  207.7750  153.5960 C   0  0  1  0  0  3  0  0  0  0  0  0
  161.6890  206.5690  149.8950 C   0  0  0  0  0  2  0  0  0  0  0  0
  161.0780  204.7120  151.4270 C   0  0  0  0  0  3  0  0  0  0  0  0
  161.1380  205.5080  152.4980 C   0  0  0  0  0  3  0  0  0  0  0  0
  163.0770  209.5860  151.6080 F   0  0  0  0  0  0  0  0  0  0  0  0
  160.9110  206.9960  152.3500 C   0  0  2  0  0  3  0  0  0  0  0  0
  161.6440  207.5360  151.0980 C   0  0  2  0  0  3  0  0  0  0  0  0
  160.8140  205.3250  150.0840 C   0  0  2  0  0  3  0  0  0  0  0  0
  161.7330  209.8310  151.3460 C   0  0  0  0  0  0  0  0  0  0  0  0
  161.6680  210.9410  150.5210 F   0  0  0  0  0  0  0  0  0  0  0  0
  161.0090  210.1280  152.6300 C   0  0  0  0  0  0  0  0  0  0  0  0
  160.5750  211.2910  152.8470 O   0  0  0  0  0  0  0  0  0  0  0  0
  160.7850  209.1140  153.6140 N   0  0  0  0  0  2  0  0  0  0  0  0
  161.5460  203.8800  146.6700 C   0  0  0  0  0  0  0  0  0  0  0  0
  161.0280  204.3370  148.9820 C   0  0  0  0  0  0  0  0  0  0  0  0
  161.1230  202.0710  148.1490 C   0  0  0  0  0  0  0  0  0  0  0  0
  161.3450  204.8000  147.7030 C   0  0  0  0  0  3  0  0  0  0  0  0
  160.9150  202.9570  149.2080 C   0  0  0  0  0  3  0  0  0  0  0  0
  161.8710  204.3400  145.3640 N   0  0  0  0  0  1  0  0  0  0  0  0
  161.4320  202.5470  146.9120 N   0  0  0  0  0  0  0  0  0  0  0  0
  161.0120  200.6700  148.3640 N   0  0  0  0  0  1  0  0  0  0  0  0
  160.9730  207.0670  154.8930 C   0  0  0  0  0  2  0  0  0  0  0  0
  159.9820  207.8970  155.6940 C   0  0  0  0  0  2  0  0  0  0  0  0
  161.7740  208.5190  157.1270 O   0  0  0  0  0  1  0  0  0  0  0  0
  160.4600  208.0550  157.1250 C   0  0  0  0  0  2  0  0  0  0  0  0
  1  8  1  0  0  0  0
  1 10  1  0  0  0  0
  2 14  1  0  0  0  0
  2 23  1  1  0  0  0
  3  9  1  0  0  0  0
  4  5  2  0  0  0  0
  7  5  1  1  0  0  0
  7  2  1  0  0  0  0
  8  3  1  6  0  0  0
  8  7  1  0  0  0  0
  9 16  1  6  0  0  0
  9  4  1  0  0  0  0
 10  6  1  0  0  0  0
 10 12  1  0  0  0  0
 11 10  1  0  0  0  0
 12 13  2  0  0  0  0
 12 14  1  0  0  0  0
 15 21  2  0  0  0  0
 15 18  1  0  0  0  0
 16 19  1  0  0  0  0
 17 22  1  0  0  0  0
 17 19  2  0  0  0  0
 18 16  2  0  0  0  0
 20 15  1  0  0  0  0
 21 17  1  0  0  0  0
 23 24  1  0  0  0  0
 24 26  1  0  0  0  0
 26 25  1  0  0  0  0
M  END
>  <MODEL>
3

>  <REMARK>
 VINA RESULT:      -9.3      3.111      7.829
  Name = 
  4 active torsions:
  status: ('A' for Active; 'I' for Inactive)
    1  A    between atoms: C_3  and  C_17
    2  A    between atoms: C_3  and  C_26
    3  A    between atoms: C_5  and  C_16
    4  A    between atoms: C_6  and  C_17
                            x       y       z     vdW  Elec       q    Type
                         _______ _______ _______ _____ _____    ______ ____

>  <TORSDO>
F 4

$$$$
=
 OpenBabel11052411143D

 26 28  0  0  1  0  0  0  0  0999 V2000
  160.5670  204.5040  151.8680 O   0  0  0  0  0  0  0  0  0  0  0  0
  161.5840  205.0400  148.9990 C   0  0  1  0  0  3  0  0  0  0  0  0
  161.3000  206.6950  152.5260 C   0  0  0  0  0  2  0  0  0  0  0  0
  161.3030  208.3840  150.7040 C   0  0  0  0  0  3  0  0  0  0  0  0
  161.4680  207.4460  149.7670 C   0  0  0  0  0  3  0  0  0  0  0  0
  162.5580  203.3270  151.5070 F   0  0  0  0  0  0  0  0  0  0  0  0
  160.9990  206.0310  150.0200 C   0  0  2  0  0  3  0  0  0  0  0  0
  161.3670  205.5840  151.4560 C   0  0  2  0  0  3  0  0  0  0  0  0
  160.6770  207.9970  152.0110 C   0  0  2  0  0  3  0  0  0  0  0  0
  161.1670  203.2830  151.4830 C   0  0  0  0  0  0  0  0  0  0  0  0
  160.7690  202.3130  152.3870 F   0  0  0  0  0  0  0  0  0  0  0  0
  160.6930  202.9010  150.1090 C   0  0  0  0  0  0  0  0  0  0  0  0
  160.1480  201.7800  149.9250 O   0  0  0  0  0  0  0  0  0  0  0  0
  160.8310  203.7890  148.9960 N   0  0  0  0  0  2  0  0  0  0  0  0
  160.3110  211.3590  153.6960 C   0  0  0  0  0  0  0  0  0  0  0  0
  160.7980  209.0950  153.0200 C   0  0  0  0  0  0  0  0  0  0  0  0
  161.5870  209.9620  155.1320 C   0  0  0  0  0  0  0  0  0  0  0  0
  160.2010  210.3300  152.7580 C   0  0  0  0  0  3  0  0  0  0  0  0
  161.4990  208.9090  154.2200 C   0  0  0  0  0  3  0  0  0  0  0  0
  159.7060  212.6200  153.4400 N   0  0  0  0  0  1  0  0  0  0  0  0
  160.9960  211.1560  154.8530 N   0  0  0  0  0  0  0  0  0  0  0  0
  162.2950  209.7870  156.3520 N   0  0  0  0  0  1  0  0  0  0  0  0
  161.5800  205.6040  147.5790 C   0  0  0  0  0  2  0  0  0  0  0  0
  162.4450  204.7640  146.6520 C   0  0  0  0  0  2  0  0  0  0  0  0
  161.2050  202.9990  145.6520 O   0  0  0  0  0  1  0  0  0  0  0  0
  161.6410  204.3070  145.4500 C   0  0  0  0  0  2  0  0  0  0  0  0
  2 23  1  6  0  0  0
  2  7  1  0  0  0  0
  4  9  1  0  0  0  0
  5  4  2  0  0  0  0
  7  5  1  6  0  0  0
  7  8  1  0  0  0  0
  8  1  1  0  0  0  0
  8  3  1  1  0  0  0
  9  3  1  0  0  0  0
  9 16  1  1  0  0  0
 10  6  1  0  0  0  0
 10  1  1  0  0  0  0
 10 11  1  0  0  0  0
 12 10  1  0  0  0  0
 13 12  2  0  0  0  0
 14  2  1  0  0  0  0
 14 12  1  0  0  0  0
 15 21  1  0  0  0  0
 16 19  2  0  0  0  0
 17 22  1  0  0  0  0
 18 16  1  0  0  0  0
 18 15  2  0  0  0  0
 19 17  1  0  0  0  0
 20 15  1  0  0  0  0
 21 17  2  0  0  0  0
 24 23  1  0  0  0  0
 26 25  1  0  0  0  0
 26 24  1  0  0  0  0
M  END
>  <MODEL>
4

>  <REMARK>
 VINA RESULT:      -8.8      2.491      3.837
  Name = 
  4 active torsions:
  status: ('A' for Active; 'I' for Inactive)
    1  A    between atoms: C_3  and  C_17
    2  A    between atoms: C_3  and  C_26
    3  A    between atoms: C_5  and  C_16
    4  A    between atoms: C_6  and  C_17
                            x       y       z     vdW  Elec       q    Type
                         _______ _______ _______ _____ _____    ______ ____

>  <TORSDO>
F 4

$$$$
=
 OpenBabel11052411143D

 26 28  0  0  1  0  0  0  0  0999 V2000
  160.5490  204.4750  151.8560 O   0  0  0  0  0  0  0  0  0  0  0  0
  161.5810  204.9990  148.9900 C   0  0  1  0  0  3  0  0  0  0  0  0
  161.2730  206.6700  152.5070 C   0  0  0  0  0  2  0  0  0  0  0  0
  161.2800  208.3510  150.6780 C   0  0  0  0  0  3  0  0  0  0  0  0
  161.4530  207.4090  149.7450 C   0  0  0  0  0  3  0  0  0  0  0  0
  162.5460  203.3020  151.5110 F   0  0  0  0  0  0  0  0  0  0  0  0
  160.9870  205.9940  150.0030 C   0  0  2  0  0  3  0  0  0  0  0  0
  161.3480  205.5550  151.4430 C   0  0  2  0  0  3  0  0  0  0  0  0
  160.6480  207.9680  151.9830 C   0  0  2  0  0  3  0  0  0  0  0  0
  161.1560  203.2540  151.4800 C   0  0  0  0  0  0  0  0  0  0  0  0
  160.7560  202.2860  152.3860 F   0  0  0  0  0  0  0  0  0  0  0  0
  160.6900  202.8630  150.1050 C   0  0  0  0  0  0  0  0  0  0  0  0
  160.1500  201.7400  149.9240 O   0  0  0  0  0  0  0  0  0  0  0  0
  160.8320  203.7470  148.9880 N   0  0  0  0  0  2  0  0  0  0  0  0
  161.5750  209.8730  155.1110 C   0  0  0  0  0  0  0  0  0  0  0  0
  160.7600  209.0710  152.9870 C   0  0  0  0  0  0  0  0  0  0  0  0
  160.3010  211.3230  153.7290 C   0  0  0  0  0  0  0  0  0  0  0  0
  161.4670  208.8460  154.1700 C   0  0  0  0  0  3  0  0  0  0  0  0
  160.1700  210.3230  152.7630 C   0  0  0  0  0  3  0  0  0  0  0  0
  162.2930  209.6560  156.3190 N   0  0  0  0  0  1  0  0  0  0  0  0
  160.9950  211.0790  154.8730 N   0  0  0  0  0  0  0  0  0  0  0  0
  159.7070  212.5980  153.5150 N   0  0  0  0  0  1  0  0  0  0  0  0
  161.5830  205.5570  147.5670 C   0  0  0  0  0  2  0  0  0  0  0  0
  162.3980  204.6760  146.6330 C   0  0  0  0  0  2  0  0  0  0  0  0
  161.2060  202.8800  145.6310 O   0  0  0  0  0  1  0  0  0  0  0  0
  161.5490  204.2200  145.4620 C   0  0  0  0  0  2  0  0  0  0  0  0
  2 23  1  6  0  0  0
  2  7  1  0  0  0  0
  4  9  1  0  0  0  0
  5  4  2  0  0  0  0
  7  5  1  6  0  0  0
  7  8  1  0  0  0  0
  8  1  1  0  0  0  0
  8  3  1  1  0  0  0
  9  3  1  0  0  0  0
  9 16  1  1  0  0  0
 10  6  1  0  0  0  0
 10  1  1  0  0  0  0
 10 11  1  0  0  0  0
 12 10  1  0  0  0  0
 13 12  2  0  0  0  0
 14  2  1  0  0  0  0
 14 12  1  0  0  0  0
 15 20  1  0  0  0  0
 16 18  1  0  0  0  0
 17 21  2  0  0  0  0
 18 15  2  0  0  0  0
 19 16  2  0  0  0  0
 19 17  1  0  0  0  0
 21 15  1  0  0  0  0
 22 17  1  0  0  0  0
 24 23  1  0  0  0  0
 26 25  1  0  0  0  0
 26 24  1  0  0  0  0
M  END
>  <MODEL>
5

>  <REMARK>
 VINA RESULT:      -8.8      2.485      3.570
  Name = 
  4 active torsions:
  status: ('A' for Active; 'I' for Inactive)
    1  A    between atoms: C_3  and  C_17
    2  A    between atoms: C_3  and  C_26
    3  A    between atoms: C_5  and  C_16
    4  A    between atoms: C_6  and  C_17
                            x       y       z     vdW  Elec       q    Type
                         _______ _______ _______ _____ _____    ______ ____

>  <TORSDO>
F 4

$$$$
=
 OpenBabel11052411143D

 26 28  0  0  1  0  0  0  0  0999 V2000
  160.3350  203.7630  150.9000 O   0  0  0  0  0  0  0  0  0  0  0  0
  161.7650  204.5210  148.2670 C   0  0  1  0  0  3  0  0  0  0  0  0
  161.1650  205.7740  151.9180 C   0  0  0  0  0  2  0  0  0  0  0  0
  161.5580  207.6540  150.3430 C   0  0  0  0  0  3  0  0  0  0  0  0
  161.7620  206.8210  149.3190 C   0  0  0  0  0  3  0  0  0  0  0  0
  162.2440  202.4360  150.6310 F   0  0  0  0  0  0  0  0  0  0  0  0
  161.1400  205.4420  149.3290 C   0  0  2  0  0  3  0  0  0  0  0  0
  161.2740  204.7950  150.7290 C   0  0  2  0  0  3  0  0  0  0  0  0
  160.7330  207.1850  151.5050 C   0  0  2  0  0  3  0  0  0  0  0  0
  160.8700  202.5400  150.4350 C   0  0  0  0  0  0  0  0  0  0  0  0
  160.2720  201.5170  151.1520 F   0  0  0  0  0  0  0  0  0  0  0  0
  160.5500  202.3720  148.9760 C   0  0  0  0  0  0  0  0  0  0  0  0
  159.9370  201.3430  148.5850 O   0  0  0  0  0  0  0  0  0  0  0  0
  160.9120  203.3650  148.0120 N   0  0  0  0  0  2  0  0  0  0  0  0
  161.1710  208.5320  155.0070 C   0  0  0  0  0  0  0  0  0  0  0  0
  160.8160  208.1390  152.6530 C   0  0  0  0  0  0  0  0  0  0  0  0
  160.7090  210.3690  153.5750 C   0  0  0  0  0  0  0  0  0  0  0  0
  161.0920  207.6450  153.9300 C   0  0  0  0  0  3  0  0  0  0  0  0
  160.6210  209.5160  152.4730 C   0  0  0  0  0  3  0  0  0  0  0  0
  161.4530  208.0410  156.3120 N   0  0  0  0  0  1  0  0  0  0  0  0
  160.9790  209.8630  154.8090 N   0  0  0  0  0  0  0  0  0  0  0  0
  160.5140  211.7680  153.4070 N   0  0  0  0  0  1  0  0  0  0  0  0
  161.9990  205.2450  146.9410 C   0  0  0  0  0  2  0  0  0  0  0  0
  161.6380  204.3580  145.7600 C   0  0  0  0  0  2  0  0  0  0  0  0
  160.2440  206.2300  145.3090 O   0  0  0  0  0  1  0  0  0  0  0  0
  160.9000  205.1590  144.7050 C   0  0  0  0  0  2  0  0  0  0  0  0
  2 23  1  6  0  0  0
  2  7  1  0  0  0  0
  4  9  1  0  0  0  0
  5  4  2  0  0  0  0
  7  5  1  1  0  0  0
  7  8  1  0  0  0  0
  8  1  1  0  0  0  0
  8  3  1  1  0  0  0
  9  3  1  0  0  0  0
  9 16  1  1  0  0  0
 10  6  1  0  0  0  0
 10  1  1  0  0  0  0
 10 11  1  0  0  0  0
 12 10  1  0  0  0  0
 13 12  2  0  0  0  0
 14  2  1  0  0  0  0
 14 12  1  0  0  0  0
 15 20  1  0  0  0  0
 16 18  1  0  0  0  0
 17 21  2  0  0  0  0
 18 15  2  0  0  0  0
 19 16  2  0  0  0  0
 19 17  1  0  0  0  0
 21 15  1  0  0  0  0
 22 17  1  0  0  0  0
 24 23  1  0  0  0  0
 26 25  1  0  0  0  0
 26 24  1  0  0  0  0
M  END
>  <MODEL>
6

>  <REMARK>
 VINA RESULT:      -8.7      2.222      3.534
  Name = 
  4 active torsions:
  status: ('A' for Active; 'I' for Inactive)
    1  A    between atoms: C_3  and  C_17
    2  A    between atoms: C_3  and  C_26
    3  A    between atoms: C_5  and  C_16
    4  A    between atoms: C_6  and  C_17
                            x       y       z     vdW  Elec       q    Type
                         _______ _______ _______ _____ _____    ______ ____

>  <TORSDO>
F 4

$$$$
=
 OpenBabel11052411143D

 26 28  0  0  1  0  0  0  0  0999 V2000
  161.7000  207.4890  151.9730 O   0  0  0  0  0  0  0  0  0  0  0  0
  161.7750  209.7420  149.8580 C   0  0  1  0  0  3  0  0  0  0  0  0
  160.9010  205.9610  150.3010 C   0  0  0  0  0  2  0  0  0  0  0  0
  161.6220  206.4820  147.9820 C   0  0  0  0  0  3  0  0  0  0  0  0
  161.7440  207.7830  148.2590 C   0  0  0  0  0  3  0  0  0  0  0  0
  159.9000  208.9480  152.3120 F   0  0  0  0  0  0  0  0  0  0  0  0
  162.0200  208.2340  149.6750 C   0  0  2  0  0  3  0  0  0  0  0  0
  161.1520  207.4360  150.6790 C   0  0  2  0  0  3  0  0  0  0  0  0
  161.7320  205.4910  149.1030 C   0  0  2  0  0  3  0  0  0  0  0  0
  161.2070  208.6230  152.6600 C   0  0  0  0  0  0  0  0  0  0  0  0
  161.2140  208.3320  154.0140 F   0  0  0  0  0  0  0  0  0  0  0  0
  162.1090  209.7980  152.4040 C   0  0  0  0  0  0  0  0  0  0  0  0
  162.6240  210.4140  153.3760 O   0  0  0  0  0  0  0  0  0  0  0  0
  162.4140  210.2310  151.0750 N   0  0  0  0  0  2  0  0  0  0  0  0
  160.9460  202.5390  146.8800 C   0  0  0  0  0  0  0  0  0  0  0  0
  161.3260  204.1210  148.6610 C   0  0  0  0  0  0  0  0  0  0  0  0
  160.5750  201.8740  149.1290 C   0  0  0  0  0  0  0  0  0  0  0  0
  161.3240  203.8170  147.2990 C   0  0  0  0  0  3  0  0  0  0  0  0
  160.9460  203.1390  149.5880 C   0  0  0  0  0  3  0  0  0  0  0  0
  160.9410  202.2180  145.4950 N   0  0  0  0  0  1  0  0  0  0  0  0
  160.5810  201.6020  147.7960 N   0  0  0  0  0  0  0  0  0  0  0  0
  160.1870  200.8680  150.0580 N   0  0  0  0  0  1  0  0  0  0  0  0
  162.3030  210.5590  148.6790 C   0  0  0  0  0  2  0  0  0  0  0  0
  161.9980  212.0380  148.8550 C   0  0  0  0  0  2  0  0  0  0  0  0
  162.1980  213.0150  146.6980 O   0  0  0  0  0  1  0  0  0  0  0  0
  162.8530  212.8690  147.9190 C   0  0  0  0  0  2  0  0  0  0  0  0
  1 10  1  0  0  0  0
  2 23  1  6  0  0  0
  2 14  1  0  0  0  0
  4  5  2  0  0  0  0
  4  9  1  0  0  0  0
  6 10  1  0  0  0  0
  7  5  1  6  0  0  0
  7  2  1  0  0  0  0
  7  8  1  0  0  0  0
  8  3  1  6  0  0  0
  8  1  1  0  0  0  0
  9 16  1  6  0  0  0
  9  3  1  0  0  0  0
 10 11  1  0  0  0  0
 12 10  1  0  0  0  0
 12 13  2  0  0  0  0
 14 12  1  0  0  0  0
 15 18  2  0  0  0  0
 15 21  1  0  0  0  0
 16 19  2  0  0  0  0
 17 19  1  0  0  0  0
 17 22  1  0  0  0  0
 18 16  1  0  0  0  0
 20 15  1  0  0  0  0
 21 17  2  0  0  0  0
 23 24  1  0  0  0  0
 25 26  1  0  0  0  0
 26 24  1  0  0  0  0
M  END
>  <MODEL>
7

>  <REMARK>
 VINA RESULT:      -8.4      3.692      8.061
  Name = 
  4 active torsions:
  status: ('A' for Active; 'I' for Inactive)
    1  A    between atoms: C_3  and  C_17
    2  A    between atoms: C_3  and  C_26
    3  A    between atoms: C_5  and  C_16
    4  A    between atoms: C_6  and  C_17
                            x       y       z     vdW  Elec       q    Type
                         _______ _______ _______ _____ _____    ______ ____

>  <TORSDO>
F 4

$$$$
=
 OpenBabel11052411143D

 26 28  0  0  1  0  0  0  0  0999 V2000
  161.3390  206.6760  154.6350 O   0  0  0  0  0  0  0  0  0  0  0  0
  160.8560  209.5590  153.6320 C   0  0  1  0  0  3  0  0  0  0  0  0
  160.7230  205.8320  152.4730 C   0  0  0  0  0  2  0  0  0  0  0  0
  161.1770  207.3770  150.5820 C   0  0  0  0  0  3  0  0  0  0  0  0
  161.0770  208.4510  151.3700 C   0  0  0  0  0  3  0  0  0  0  0  0
  159.3290  207.4890  155.5180 F   0  0  0  0  0  0  0  0  0  0  0  0
  161.3600  208.3340  152.8500 C   0  0  2  0  0  3  0  0  0  0  0  0
  160.7240  207.0450  153.4260 C   0  0  2  0  0  3  0  0  0  0  0  0
  161.5440  206.0590  151.1990 C   0  0  2  0  0  3  0  0  0  0  0  0
  160.6950  207.3130  155.7200 C   0  0  0  0  0  0  0  0  0  0  0  0
  160.8460  206.5070  156.8350 F   0  0  0  0  0  0  0  0  0  0  0  0
  161.3450  208.6430  155.9820 C   0  0  0  0  0  0  0  0  0  0  0  0
  161.8030  208.9010  157.1270 O   0  0  0  0  0  0  0  0  0  0  0  0
  161.4750  209.6280  154.9520 N   0  0  0  0  0  2  0  0  0  0  0  0
  161.4180  204.1230  147.9570 C   0  0  0  0  0  0  0  0  0  0  0  0
  161.3670  204.9350  150.2280 C   0  0  0  0  0  0  0  0  0  0  0  0
  160.8380  202.6350  149.7150 C   0  0  0  0  0  0  0  0  0  0  0  0
  161.5810  205.1690  148.8690 C   0  0  0  0  0  3  0  0  0  0  0  0
  160.9900  203.6540  150.6570 C   0  0  0  0  0  3  0  0  0  0  0  0
  161.6340  204.3490  146.5700 N   0  0  0  0  0  1  0  0  0  0  0  0
  161.0520  202.8890  148.3950 N   0  0  0  0  0  0  0  0  0  0  0  0
  160.4560  201.3310  150.1360 N   0  0  0  0  0  1  0  0  0  0  0  0
  161.1430  210.8690  152.9000 C   0  0  0  0  0  2  0  0  0  0  0  0
  160.0950  211.9220  153.2260 C   0  0  0  0  0  2  0  0  0  0  0  0
  157.8370  211.5610  153.8750 O   0  0  0  0  0  1  0  0  0  0  0  0
  158.7190  211.4470  152.8020 C   0  0  0  0  0  2  0  0  0  0  0  0
  1 10  1  0  0  0  0
  2 23  1  6  0  0  0
  2 14  1  0  0  0  0
  4  9  1  0  0  0  0
  4  5  2  0  0  0  0
  6 10  1  0  0  0  0
  7  5  1  6  0  0  0
  7  8  1  0  0  0  0
  7  2  1  0  0  0  0
  8  3  1  6  0  0  0
  8  1  1  0  0  0  0
  9 16  1  6  0  0  0
  9  3  1  0  0  0  0
 10 12  1  0  0  0  0
 10 11  1  0  0  0  0
 12 13  2  0  0  0  0
 14 12  1  0  0  0  0
 15 21  2  0  0  0  0
 15 18  1  0  0  0  0
 16 19  1  0  0  0  0
 17 22  1  0  0  0  0
 17 19  2  0  0  0  0
 18 16  2  0  0  0  0
 20 15  1  0  0  0  0
 21 17  1  0  0  0  0
 23 24  1  0  0  0  0
 26 24  1  0  0  0  0
 26 25  1  0  0  0  0
M  END
>  <MODEL>
8

>  <REMARK>
 VINA RESULT:      -8.3      4.028      8.439
  Name = 
  4 active torsions:
  status: ('A' for Active; 'I' for Inactive)
    1  A    between atoms: C_3  and  C_17
    2  A    between atoms: C_3  and  C_26
    3  A    between atoms: C_5  and  C_16
    4  A    between atoms: C_6  and  C_17
                            x       y       z     vdW  Elec       q    Type
                         _______ _______ _______ _____ _____    ______ ____

>  <TORSDO>
F 4

$$$$
=
 OpenBabel11052411143D

 26 28  0  0  1  0  0  0  0  0999 V2000
  161.8330  206.6670  149.0550 O   0  0  0  0  0  0  0  0  0  0  0  0
  161.0200  203.7030  149.3790 C   0  0  1  0  0  3  0  0  0  0  0  0
  160.8750  207.1530  151.2040 C   0  0  0  0  0  2  0  0  0  0  0  0
  160.8900  205.2550  152.8060 C   0  0  0  0  0  3  0  0  0  0  0  0
  160.8800  204.3560  151.8180 C   0  0  0  0  0  3  0  0  0  0  0  0
  159.9790  206.2070  147.7020 F   0  0  0  0  0  0  0  0  0  0  0  0
  161.4370  204.7160  150.4590 C   0  0  2  0  0  3  0  0  0  0  0  0
  160.9870  206.1390  150.0460 C   0  0  2  0  0  3  0  0  0  0  0  0
  161.4340  206.6260  152.5300 C   0  0  2  0  0  3  0  0  0  0  0  0
  161.3660  206.2970  147.7730 C   0  0  0  0  0  0  0  0  0  0  0  0
  161.7620  207.2770  146.8790 F   0  0  0  0  0  0  0  0  0  0  0  0
  161.9820  204.9860  147.3720 C   0  0  0  0  0  0  0  0  0  0  0  0
  162.6280  204.9030  146.2930 O   0  0  0  0  0  0  0  0  0  0  0  0
  161.8670  203.8220  148.1960 N   0  0  0  0  0  2  0  0  0  0  0  0
  160.9270  209.8230  154.4770 C   0  0  0  0  0  0  0  0  0  0  0  0
  161.1420  207.5650  153.6560 C   0  0  0  0  0  0  0  0  0  0  0  0
  160.5490  208.0040  155.9560 C   0  0  0  0  0  0  0  0  0  0  0  0
  161.1990  208.9410  153.4280 C   0  0  0  0  0  3  0  0  0  0  0  0
  160.8150  207.0900  154.9350 C   0  0  0  0  0  3  0  0  0  0  0  0
  160.9810  211.2270  154.2560 N   0  0  0  0  0  1  0  0  0  0  0  0
  160.6110  209.3410  155.7090 N   0  0  0  0  0  0  0  0  0  0  0  0
  160.2160  207.5370  157.2570 N   0  0  0  0  0  1  0  0  0  0  0  0
  161.0970  202.2610  149.8790 C   0  0  0  0  0  2  0  0  0  0  0  0
  161.1440  201.2780  148.7190 C   0  0  0  0  0  2  0  0  0  0  0  0
  158.8120  201.1950  149.1720 O   0  0  0  0  0  1  0  0  0  0  0  0
  159.7540  201.0630  148.1530 C   0  0  0  0  0  2  0  0  0  0  0  0
  1  8  1  0  0  0  0
  2 23  1  1  0  0  0
  2  7  1  0  0  0  0
  3  9  1  0  0  0  0
  5  4  2  0  0  0  0
  6 10  1  0  0  0  0
  7  5  1  1  0  0  0
  8  7  1  0  0  0  0
  8  3  1  1  0  0  0
  9  4  1  0  0  0  0
  9 16  1  1  0  0  0
 10  1  1  0  0  0  0
 11 10  1  0  0  0  0
 12 10  1  0  0  0  0
 12 14  1  0  0  0  0
 13 12  2  0  0  0  0
 14  2  1  0  0  0  0
 15 21  1  0  0  0  0
 16 19  2  0  0  0  0
 17 22  1  0  0  0  0
 18 16  1  0  0  0  0
 18 15  2  0  0  0  0
 19 17  1  0  0  0  0
 20 15  1  0  0  0  0
 21 17  2  0  0  0  0
 24 23  1  0  0  0  0
 26 24  1  0  0  0  0
 26 25  1  0  0  0  0
M  END
>  <MODEL>
9

>  <REMARK>
 VINA RESULT:      -8.3      0.878      1.875
  Name = 
  4 active torsions:
  status: ('A' for Active; 'I' for Inactive)
    1  A    between atoms: C_3  and  C_17
    2  A    between atoms: C_3  and  C_26
    3  A    between atoms: C_5  and  C_16
    4  A    between atoms: C_6  and  C_17
                            x       y       z     vdW  Elec       q    Type
                         _______ _______ _______ _____ _____    ______ ____

>  <TORSDO>
F 4

$$$$
