=
 OpenBabel11052409583D

 39 43  0  0  1  0  0  0  0  0999 V2000
  160.8970  204.5770  149.8330 C   0  0  0  0  0  0  0  0  0  0  0  0
  160.7870  202.7890  151.2670 C   0  0  0  0  0  2  0  0  0  0  0  0
  161.1340  206.5880  151.7400 C   0  0  0  0  0  0  0  0  0  0  0  0
  160.7500  203.3490  149.0340 C   0  0  2  0  0  3  0  0  0  0  0  0
  161.2540  207.5760  152.7290 C   0  0  0  0  0  3  0  0  0  0  0  0
  160.9790  205.9000  149.4000 C   0  0  0  0  0  3  0  0  0  0  0  0
  160.7020  202.2600  149.9500 O   0  0  0  0  0  0  0  0  0  0  0  0
  161.0370  205.2260  152.1360 C   0  0  0  0  0  0  0  0  0  0  0  0
  161.0600  204.8840  153.4930 C   0  0  0  0  0  3  0  0  0  0  0  0
  160.9180  204.2520  151.1410 C   0  0  0  0  0  0  0  0  0  0  0  0
  161.1800  205.8840  154.4620 C   0  0  0  0  0  3  0  0  0  0  0  0
  161.2790  207.2240  154.0820 C   0  0  0  0  0  3  0  0  0  0  0  0
  161.1030  206.9240  150.3610 C   0  0  0  0  0  0  0  0  0  0  0  0
  161.8750  210.9050  148.9570 C   0  0  2  0  0  3  0  0  0  0  0  0
  161.2040  208.3540  149.9120 C   0  0  1  0  0  3  0  0  0  0  0  0
  162.1180  209.1650  150.8330 C   0  0  0  0  0  2  0  0  0  0  0  0
  161.6350  208.4450  148.4390 C   0  0  0  0  0  2  0  0  0  0  0  0
  162.1250  210.6500  150.4490 C   0  0  0  0  0  2  0  0  0  0  0  0
  162.3810  209.7420  148.1030 C   0  0  0  0  0  2  0  0  0  0  0  0
  162.5450  212.2070  148.5460 C   0  0  0  0  0  2  0  0  0  0  0  0
  161.6350  213.0370  147.6870 C   0  0  0  0  0  0  0  0  0  0  0  0
  160.6480  213.7500  148.2350 C   0  0  0  0  0  3  0  0  0  0  0  0
  162.9770  213.3610  145.7600 O   0  0  0  0  0  0  0  0  0  0  0  0
  161.8400  213.0740  146.2260 C   0  0  0  0  0  0  0  0  0  0  0  0
  160.7550  212.7880  145.3370 N   0  0  0  0  0  2  0  0  0  0  0  0
  160.9070  212.7890  143.8900 C   0  0  0  0  0  2  0  0  0  0  0  0
  160.0210  211.7980  143.3020 N   0  0  0  0  0  2  0  0  0  0  0  0
  160.5520  211.4940  141.9850 C   0  0  0  0  0  1  0  0  0  0  0  0
  160.4070  213.7480  149.6410 N   0  0  0  0  0  2  0  0  0  0  0  0
  159.0480  213.7620  150.1420 C   0  0  0  0  0  1  0  0  0  0  0  0
  161.9390  203.1870  148.0960 C   0  0  0  0  0  2  0  0  0  0  0  0
  163.5780  204.4790  146.9440 O   0  0  0  0  0  0  0  0  0  0  0  0
  162.2500  204.5030  147.4080 C   0  0  1  0  0  3  0  0  0  0  0  0
  162.5700  204.2550  145.9880 C   0  0  1  0  0  3  0  0  0  0  0  0
  162.3540  205.5290  145.1830 C   0  0  0  0  0  2  0  0  0  0  0  0
  161.0330  205.5160  144.4150 C   0  0  0  0  0  0  0  0  0  0  0  0
  161.2830  205.8520  143.0860 O   0  0  0  0  0  1  0  0  0  0  0  0
  160.1520  206.4500  144.9630 O   0  0  0  0  0  1  0  0  0  0  0  0
  160.4020  204.1350  144.4610 C   0  0  0  0  0  1  0  0  0  0  0  0
  1 10  1  0  0  0  0
  3  8  1  0  0  0  0
  3  5  1  0  0  0  0
  4 31  1  6  0  0  0
  4  1  1  0  0  0  0
  4  7  1  0  0  0  0
  5 12  2  0  0  0  0
  6  1  2  0  0  0  0
  6 13  1  0  0  0  0
  7  2  1  0  0  0  0
  8  9  1  0  0  0  0
  9 11  2  0  0  0  0
 10  2  1  0  0  0  0
 10  8  2  0  0  0  0
 12 11  1  0  0  0  0
 13  3  2  0  0  0  0
 14 20  1  6  0  0  0
 14 18  1  0  0  0  0
 15 13  1  1  0  0  0
 15 16  1  0  0  0  0
 17 15  1  0  0  0  0
 18 16  1  0  0  0  0
 19 17  1  0  0  0  0
 19 14  1  0  0  0  0
 21 22  2  0  0  0  0
 21 20  1  0  0  0  0
 22 29  1  0  0  0  0
 23 24  2  0  0  0  0
 24 21  1  0  0  0  0
 25 24  1  0  0  0  0
 26 25  1  0  0  0  0
 27 26  1  0  0  0  0
 28 27  1  0  0  0  0
 29 30  1  0  0  0  0
 32 33  1  0  0  0  0
 33 31  1  1  0  0  0
 34 35  1  6  0  0  0
 34 32  1  0  0  0  0
 34 33  1  0  0  0  0
 36 39  1  0  0  0  0
 36 38  1  0  0  0  0
 36 35  1  0  0  0  0
 37 36  1  0  0  0  0
M  END
>  <MODEL>
1

>  <REMARK>
 VINA RESULT:      -7.9      0.000      0.000
  Name = 
  11 active torsions:
  status: ('A' for Active; 'I' for Inactive)
    1  A    between atoms: C_1  and  C_2
    2  A    between atoms: C_1  and  C_28
    3  A    between atoms: C_3  and  C_30
    4  A    between atoms: C_6  and  C_38
    5  A    between atoms: C_9  and  C_18
    6  A    between atoms: C_9  and  C_30
    7  A    between atoms: C_11  and  C_25
    8  A    between atoms: N_13  and  C_26
    9  A    between atoms: C_17  and  C_25
   10  A    between atoms: C_20  and  N_29
   11  A    between atoms: C_20  and  N_37
                            x       y       z     vdW  Elec       q    Type
                         _______ _______ _______ _____ _____    ______ ____

>  <TORSDO>
F 11

$$$$
=
 OpenBabel11052409583D

 39 43  0  0  1  0  0  0  0  0999 V2000
  160.8840  204.6420  149.8260 C   0  0  0  0  0  0  0  0  0  0  0  0
  160.7450  202.8800  151.2910 C   0  0  0  0  0  2  0  0  0  0  0  0
  161.1510  206.6800  151.6990 C   0  0  0  0  0  0  0  0  0  0  0  0
  160.7190  203.4020  149.0480 C   0  0  2  0  0  3  0  0  0  0  0  0
  161.2860  207.6840  152.6720 C   0  0  0  0  0  3  0  0  0  0  0  0
  160.9880  205.9550  149.3710 C   0  0  0  0  0  3  0  0  0  0  0  0
  160.6530  202.3310  149.9820 O   0  0  0  0  0  0  0  0  0  0  0  0
  161.0320  205.3270  152.1180 C   0  0  0  0  0  0  0  0  0  0  0  0
  161.0480  205.0080  153.4800 C   0  0  0  0  0  3  0  0  0  0  0  0
  160.8980  204.3380  151.1400 C   0  0  0  0  0  0  0  0  0  0  0  0
  161.1830  206.0220  154.4330 C   0  0  0  0  0  3  0  0  0  0  0  0
  161.3030  207.3540  154.0300 C   0  0  0  0  0  3  0  0  0  0  0  0
  161.1270  206.9940  150.3150 C   0  0  0  0  0  0  0  0  0  0  0  0
  161.9660  210.9400  148.8550 C   0  0  2  0  0  3  0  0  0  0  0  0
  161.2510  208.4140  149.8410 C   0  0  1  0  0  3  0  0  0  0  0  0
  162.1500  209.2340  150.7690 C   0  0  0  0  0  2  0  0  0  0  0  0
  161.7170  208.4730  148.3780 C   0  0  0  0  0  2  0  0  0  0  0  0
  162.1790  210.7120  150.3570 C   0  0  0  0  0  2  0  0  0  0  0  0
  162.4810  209.7580  148.0350 C   0  0  0  0  0  2  0  0  0  0  0  0
  162.6570  212.2290  148.4360 C   0  0  0  0  0  2  0  0  0  0  0  0
  161.6760  213.2030  147.8460 C   0  0  0  0  0  0  0  0  0  0  0  0
  161.8210  213.6340  146.5910 C   0  0  0  0  0  3  0  0  0  0  0  0
  160.7470  214.1930  149.7880 O   0  0  0  0  0  0  0  0  0  0  0  0
  160.5380  213.6760  148.6570 C   0  0  0  0  0  0  0  0  0  0  0  0
  159.1990  213.5470  148.1670 N   0  0  0  0  0  2  0  0  0  0  0  0
  158.0420  214.0150  148.9160 C   0  0  0  0  0  2  0  0  0  0  0  0
  156.8470  213.3340  148.4490 N   0  0  0  0  0  2  0  0  0  0  0  0
  157.2280  212.5890  147.2620 C   0  0  0  0  0  1  0  0  0  0  0  0
  162.9030  213.2080  145.7660 N   0  0  0  0  0  2  0  0  0  0  0  0
  162.7770  213.2570  144.3240 C   0  0  0  0  0  1  0  0  0  0  0  0
  161.9050  203.2050  148.1150 C   0  0  0  0  0  2  0  0  0  0  0  0
  163.5840  204.5040  147.0280 O   0  0  0  0  0  0  0  0  0  0  0  0
  162.2240  204.4990  147.3880 C   0  0  1  0  0  3  0  0  0  0  0  0
  162.6620  204.1970  146.0100 C   0  0  1  0  0  3  0  0  0  0  0  0
  162.4650  205.4220  145.1290 C   0  0  0  0  0  2  0  0  0  0  0  0
  161.1030  205.4290  144.4370 C   0  0  0  0  0  0  0  0  0  0  0  0
  160.6070  204.1260  144.4070 O   0  0  0  0  0  1  0  0  0  0  0  0
  161.2340  205.8960  143.1270 O   0  0  0  0  0  1  0  0  0  0  0  0
  160.1240  206.3090  145.1940 C   0  0  0  0  0  1  0  0  0  0  0  0
  1 10  1  0  0  0  0
  3  8  1  0  0  0  0
  3  5  1  0  0  0  0
  4 31  1  6  0  0  0
  4  1  1  0  0  0  0
  4  7  1  0  0  0  0
  5 12  2  0  0  0  0
  6  1  2  0  0  0  0
  6 13  1  0  0  0  0
  7  2  1  0  0  0  0
  8  9  1  0  0  0  0
  9 11  2  0  0  0  0
 10  2  1  0  0  0  0
 10  8  2  0  0  0  0
 12 11  1  0  0  0  0
 13  3  2  0  0  0  0
 14 20  1  6  0  0  0
 14 18  1  0  0  0  0
 15 13  1  1  0  0  0
 15 16  1  0  0  0  0
 17 15  1  0  0  0  0
 18 16  1  0  0  0  0
 19 17  1  0  0  0  0
 19 14  1  0  0  0  0
 21 20  1  0  0  0  0
 21 24  1  0  0  0  0
 22 21  2  0  0  0  0
 24 23  2  0  0  0  0
 25 24  1  0  0  0  0
 25 26  1  0  0  0  0
 27 26  1  0  0  0  0
 28 27  1  0  0  0  0
 29 22  1  0  0  0  0
 30 29  1  0  0  0  0
 32 33  1  0  0  0  0
 33 31  1  1  0  0  0
 34 35  1  6  0  0  0
 34 32  1  0  0  0  0
 34 33  1  0  0  0  0
 36 35  1  0  0  0  0
 36 39  1  0  0  0  0
 37 36  1  0  0  0  0
 38 36  1  0  0  0  0
M  END
>  <MODEL>
2

>  <REMARK>
 VINA RESULT:      -7.9      1.386      2.502
  Name = 
  11 active torsions:
  status: ('A' for Active; 'I' for Inactive)
    1  A    between atoms: C_1  and  C_2
    2  A    between atoms: C_1  and  C_28
    3  A    between atoms: C_3  and  C_30
    4  A    between atoms: C_6  and  C_38
    5  A    between atoms: C_9  and  C_18
    6  A    between atoms: C_9  and  C_30
    7  A    between atoms: C_11  and  C_25
    8  A    between atoms: N_13  and  C_26
    9  A    between atoms: C_17  and  C_25
   10  A    between atoms: C_20  and  N_29
   11  A    between atoms: C_20  and  N_37
                            x       y       z     vdW  Elec       q    Type
                         _______ _______ _______ _____ _____    ______ ____

>  <TORSDO>
F 11

$$$$
=
 OpenBabel11052409583D

 39 43  0  0  1  0  0  0  0  0999 V2000
  160.6680  210.2970  152.3790 C   0  0  0  0  0  0  0  0  0  0  0  0
  160.5060  210.6190  154.6450 C   0  0  0  0  0  2  0  0  0  0  0  0
  161.0250  207.5390  152.4060 C   0  0  0  0  0  0  0  0  0  0  0  0
  160.4810  211.7360  152.6320 C   0  0  2  0  0  3  0  0  0  0  0  0
  161.2000  206.1470  152.4560 C   0  0  0  0  0  3  0  0  0  0  0  0
  160.8380  209.6360  151.1640 C   0  0  0  0  0  3  0  0  0  0  0  0
  160.3680  211.8990  154.0410 O   0  0  0  0  0  0  0  0  0  0  0  0
  160.8570  208.2570  153.6220 C   0  0  0  0  0  0  0  0  0  0  0  0
  160.8710  207.5790  154.8460 C   0  0  0  0  0  3  0  0  0  0  0  0
  160.6830  209.6410  153.5570 C   0  0  0  0  0  0  0  0  0  0  0  0
  161.0480  206.1930  154.8740 C   0  0  0  0  0  3  0  0  0  0  0  0
  161.2100  205.4800  153.6840 C   0  0  0  0  0  3  0  0  0  0  0  0
  161.0160  208.2370  151.1690 C   0  0  0  0  0  0  0  0  0  0  0  0
  161.7660  205.7990  147.7190 C   0  0  2  0  0  3  0  0  0  0  0  0
  161.1890  207.5060  149.8680 C   0  0  1  0  0  3  0  0  0  0  0  0
  162.6480  207.5230  149.4090 C   0  0  0  0  0  2  0  0  0  0  0  0
  160.6220  206.0790  149.9530 C   0  0  0  0  0  2  0  0  0  0  0  0
  162.8070  206.8850  148.0230 C   0  0  0  0  0  2  0  0  0  0  0  0
  161.3080  205.0960  148.9960 C   0  0  0  0  0  2  0  0  0  0  0  0
  162.3520  204.7990  146.7330 C   0  0  0  0  0  2  0  0  0  0  0  0
  161.2730  203.9590  146.1090 C   0  0  0  0  0  0  0  0  0  0  0  0
  160.5450  204.4340  145.0960 C   0  0  0  0  0  3  0  0  0  0  0  0
  160.5610  201.7150  145.8370 O   0  0  0  0  0  0  0  0  0  0  0  0
  161.0260  202.5950  146.6120 C   0  0  0  0  0  0  0  0  0  0  0  0
  161.3080  202.2670  147.9770 N   0  0  0  0  0  2  0  0  0  0  0  0
  161.1020  200.9330  148.5210 C   0  0  0  0  0  2  0  0  0  0  0  0
  161.1740  200.9770  149.9720 N   0  0  0  0  0  2  0  0  0  0  0  0
  160.7540  202.3090  150.3690 C   0  0  0  0  0  1  0  0  0  0  0  0
  160.7450  205.7460  144.5730 N   0  0  0  0  0  2  0  0  0  0  0  0
  161.4510  205.9270  143.3210 C   0  0  0  0  0  1  0  0  0  0  0  0
  159.2150  212.2300  151.9480 C   0  0  0  0  0  2  0  0  0  0  0  0
  157.4120  213.7830  152.1070 O   0  0  0  0  0  0  0  0  0  0  0  0
  158.6040  213.3750  152.7340 C   0  0  1  0  0  3  0  0  0  0  0  0
  157.2800  212.9720  153.2490 C   0  0  1  0  0  3  0  0  0  0  0  0
  156.9050  213.8430  154.4390 C   0  0  0  0  0  2  0  0  0  0  0  0
  156.8530  213.0540  155.7460 C   0  0  0  0  0  0  0  0  0  0  0  0
  155.8950  213.6280  156.5800 O   0  0  0  0  0  1  0  0  0  0  0  0
  158.0950  213.0990  156.3820 O   0  0  0  0  0  1  0  0  0  0  0  0
  156.4690  211.6080  155.4820 C   0  0  0  0  0  1  0  0  0  0  0  0
  1  4  1  0  0  0  0
  1 10  1  0  0  0  0
  3  5  1  0  0  0  0
  3  8  1  0  0  0  0
  4 31  1  6  0  0  0
  4  7  1  0  0  0  0
  5 12  2  0  0  0  0
  6 13  1  0  0  0  0
  6  1  2  0  0  0  0
  7  2  1  0  0  0  0
  8  9  1  0  0  0  0
  9 11  2  0  0  0  0
 10  8  2  0  0  0  0
 10  2  1  0  0  0  0
 12 11  1  0  0  0  0
 13  3  2  0  0  0  0
 14 20  1  6  0  0  0
 14 18  1  0  0  0  0
 14 19  1  0  0  0  0
 15 17  1  0  0  0  0
 15 13  1  1  0  0  0
 16 15  1  0  0  0  0
 18 16  1  0  0  0  0
 19 17  1  0  0  0  0
 21 24  1  0  0  0  0
 21 20  1  0  0  0  0
 22 21  2  0  0  0  0
 23 24  2  0  0  0  0
 24 25  1  0  0  0  0
 25 26  1  0  0  0  0
 26 27  1  0  0  0  0
 27 28  1  0  0  0  0
 29 22  1  0  0  0  0
 30 29  1  0  0  0  0
 32 33  1  0  0  0  0
 32 34  1  0  0  0  0
 33 31  1  6  0  0  0
 33 34  1  0  0  0  0
 34 35  1  1  0  0  0
 35 36  1  0  0  0  0
 36 38  1  0  0  0  0
 36 37  1  0  0  0  0
 39 36  1  0  0  0  0
M  END
>  <MODEL>
3

>  <REMARK>
 VINA RESULT:      -7.5      5.001      9.239
  Name = 
  11 active torsions:
  status: ('A' for Active; 'I' for Inactive)
    1  A    between atoms: C_1  and  C_2
    2  A    between atoms: C_1  and  C_28
    3  A    between atoms: C_3  and  C_30
    4  A    between atoms: C_6  and  C_38
    5  A    between atoms: C_9  and  C_18
    6  A    between atoms: C_9  and  C_30
    7  A    between atoms: C_11  and  C_25
    8  A    between atoms: N_13  and  C_26
    9  A    between atoms: C_17  and  C_25
   10  A    between atoms: C_20  and  N_29
   11  A    between atoms: C_20  and  N_37
                            x       y       z     vdW  Elec       q    Type
                         _______ _______ _______ _____ _____    ______ ____

>  <TORSDO>
F 11

$$$$
=
 OpenBabel11052409583D

 39 43  0  0  1  0  0  0  0  0999 V2000
  161.5920  206.5400  151.9050 C   0  0  0  0  0  0  0  0  0  0  0  0
  161.1490  204.2880  151.8980 C   0  0  0  0  0  2  0  0  0  0  0  0
  161.6990  206.9200  149.1520 C   0  0  0  0  0  0  0  0  0  0  0  0
  161.4990  206.0800  153.3010 C   0  0  2  0  0  3  0  0  0  0  0  0
  161.7440  207.0770  147.7570 C   0  0  0  0  0  3  0  0  0  0  0  0
  161.8680  207.8170  151.4190 C   0  0  0  0  0  3  0  0  0  0  0  0
  161.2080  204.6870  153.2610 O   0  0  0  0  0  0  0  0  0  0  0  0
  161.4300  205.6330  149.6920 C   0  0  0  0  0  0  0  0  0  0  0  0
  161.2170  204.5440  148.8400 C   0  0  0  0  0  3  0  0  0  0  0  0
  161.3880  205.4920  151.0810 C   0  0  0  0  0  0  0  0  0  0  0  0
  161.2660  204.7210  147.4550 C   0  0  0  0  0  3  0  0  0  0  0  0
  161.5270  205.9820  146.9160 C   0  0  0  0  0  3  0  0  0  0  0  0
  161.9210  208.0180  150.0240 C   0  0  0  0  0  0  0  0  0  0  0  0
  162.2740  212.0670  148.6470 C   0  0  2  0  0  3  0  0  0  0  0  0
  162.2060  209.3910  149.4830 C   0  0  1  0  0  3  0  0  0  0  0  0
  161.3260  209.7070  148.2720 C   0  0  0  0  0  2  0  0  0  0  0  0
  162.0870  210.4570  150.5840 C   0  0  0  0  0  2  0  0  0  0  0  0
  161.7010  211.0550  147.6450 C   0  0  0  0  0  2  0  0  0  0  0  0
  161.7050  211.8420  150.0470 C   0  0  0  0  0  2  0  0  0  0  0  0
  161.9790  213.4790  148.1650 C   0  0  0  0  0  2  0  0  0  0  0  0
  160.9520  213.4740  147.0680 C   0  0  0  0  0  0  0  0  0  0  0  0
  161.3110  213.6880  145.8010 C   0  0  0  0  0  3  0  0  0  0  0  0
  158.8100  212.5840  146.5810 O   0  0  0  0  0  0  0  0  0  0  0  0
  159.5360  213.2190  147.3940 C   0  0  0  0  0  0  0  0  0  0  0  0
  158.9820  213.6920  148.6270 N   0  0  0  0  0  2  0  0  0  0  0  0
  157.5990  213.4510  149.0090 C   0  0  0  0  0  2  0  0  0  0  0  0
  157.4150  213.7660  150.4150 N   0  0  0  0  0  2  0  0  0  0  0  0
  158.7410  213.8380  151.0030 C   0  0  0  0  0  1  0  0  0  0  0  0
  162.6660  213.9400  145.4330 N   0  0  0  0  0  2  0  0  0  0  0  0
  163.2320  213.2940  144.2660 C   0  0  0  0  0  1  0  0  0  0  0  0
  160.3860  206.8230  154.0260 C   0  0  0  0  0  2  0  0  0  0  0  0
  161.4270  208.9250  154.4540 O   0  0  0  0  0  0  0  0  0  0  0  0
  160.9680  207.7490  155.0770 C   0  0  1  0  0  3  0  0  0  0  0  0
  160.1890  209.0030  155.1190 C   0  0  1  0  0  3  0  0  0  0  0  0
  160.3860  209.6860  156.4640 C   0  0  0  0  0  2  0  0  0  0  0  0
  160.0950  211.1840  156.4060 C   0  0  0  0  0  0  0  0  0  0  0  0
  159.8260  211.5390  155.0850 O   0  0  0  0  0  1  0  0  0  0  0  0
  161.2040  211.9050  156.8540 O   0  0  0  0  0  1  0  0  0  0  0  0
  158.8870  211.5270  157.2610 C   0  0  0  0  0  1  0  0  0  0  0  0
  1  4  1  0  0  0  0
  2  7  1  0  0  0  0
  3  8  1  0  0  0  0
  3 13  1  0  0  0  0
  4 31  1  1  0  0  0
  5  3  2  0  0  0  0
  6  1  1  0  0  0  0
  7  4  1  0  0  0  0
  8 10  1  0  0  0  0
  9  8  2  0  0  0  0
 10  2  1  0  0  0  0
 10  1  2  0  0  0  0
 11  9  1  0  0  0  0
 12 11  2  0  0  0  0
 12  5  1  0  0  0  0
 13  6  2  0  0  0  0
 14 20  1  6  0  0  0
 14 19  1  0  0  0  0
 15 13  1  1  0  0  0
 15 17  1  0  0  0  0
 16 15  1  0  0  0  0
 18 16  1  0  0  0  0
 18 14  1  0  0  0  0
 19 17  1  0  0  0  0
 21 24  1  0  0  0  0
 21 20  1  0  0  0  0
 22 21  2  0  0  0  0
 23 24  2  0  0  0  0
 24 25  1  0  0  0  0
 25 26  1  0  0  0  0
 26 27  1  0  0  0  0
 27 28  1  0  0  0  0
 29 22  1  0  0  0  0
 30 29  1  0  0  0  0
 32 33  1  0  0  0  0
 32 34  1  0  0  0  0
 33 31  1  6  0  0  0
 33 34  1  0  0  0  0
 34 35  1  1  0  0  0
 36 35  1  0  0  0  0
 36 38  1  0  0  0  0
 36 39  1  0  0  0  0
 37 36  1  0  0  0  0
M  END
>  <MODEL>
4

>  <REMARK>
 VINA RESULT:      -7.0      3.440      6.779
  Name = 
  11 active torsions:
  status: ('A' for Active; 'I' for Inactive)
    1  A    between atoms: C_1  and  C_2
    2  A    between atoms: C_1  and  C_28
    3  A    between atoms: C_3  and  C_30
    4  A    between atoms: C_6  and  C_38
    5  A    between atoms: C_9  and  C_18
    6  A    between atoms: C_9  and  C_30
    7  A    between atoms: C_11  and  C_25
    8  A    between atoms: N_13  and  C_26
    9  A    between atoms: C_17  and  C_25
   10  A    between atoms: C_20  and  N_29
   11  A    between atoms: C_20  and  N_37
                            x       y       z     vdW  Elec       q    Type
                         _______ _______ _______ _____ _____    ______ ____

>  <TORSDO>
F 11

$$$$
=
 OpenBabel11052409583D

 39 43  0  0  1  0  0  0  0  0999 V2000
  159.7480  211.7300  153.4440 C   0  0  0  0  0  0  0  0  0  0  0  0
  159.6870  212.9240  155.4040 C   0  0  0  0  0  2  0  0  0  0  0  0
  160.6470  209.3160  154.4920 C   0  0  0  0  0  0  0  0  0  0  0  0
  159.2980  213.1000  153.1410 C   0  0  2  0  0  3  0  0  0  0  0  0
  161.0990  208.1110  155.0540 C   0  0  0  0  0  3  0  0  0  0  0  0
  159.9590  210.6640  152.5720 C   0  0  0  0  0  3  0  0  0  0  0  0
  159.2560  213.8060  154.3760 O   0  0  0  0  0  0  0  0  0  0  0  0
  160.4280  210.4340  155.3420 C   0  0  0  0  0  0  0  0  0  0  0  0
  160.6630  210.3280  156.7170 C   0  0  0  0  0  3  0  0  0  0  0  0
  159.9780  211.6260  154.7690 C   0  0  0  0  0  0  0  0  0  0  0  0
  161.1130  209.1200  157.2580 C   0  0  0  0  0  3  0  0  0  0  0  0
  161.3290  208.0160  156.4300 C   0  0  0  0  0  3  0  0  0  0  0  0
  160.4110  209.4350  153.0960 C   0  0  0  0  0  0  0  0  0  0  0  0
  161.4300  205.9800  150.7640 C   0  0  2  0  0  3  0  0  0  0  0  0
  160.6330  208.2710  152.1730 C   0  0  1  0  0  3  0  0  0  0  0  0
  161.9410  208.4200  151.3920 C   0  0  0  0  0  2  0  0  0  0  0  0
  160.5580  206.9370  152.9320 C   0  0  0  0  0  2  0  0  0  0  0  0
  162.1080  207.2970  150.3620 C   0  0  0  0  0  2  0  0  0  0  0  0
  161.3860  205.8210  152.2830 C   0  0  0  0  0  2  0  0  0  0  0  0
  162.1650  204.8140  150.1200 C   0  0  0  0  0  2  0  0  0  0  0  0
  161.4590  204.3490  148.8780 C   0  0  0  0  0  0  0  0  0  0  0  0
  160.6900  203.2590  148.9030 C   0  0  0  0  0  3  0  0  0  0  0  0
  162.6970  205.0610  146.9860 O   0  0  0  0  0  0  0  0  0  0  0  0
  161.6090  205.1110  147.6230 C   0  0  0  0  0  0  0  0  0  0  0  0
  160.5270  205.9080  147.1290 N   0  0  0  0  0  2  0  0  0  0  0  0
  160.6130  206.6620  145.8870 C   0  0  0  0  0  2  0  0  0  0  0  0
  160.0800  205.8690  144.7930 N   0  0  0  0  0  2  0  0  0  0  0  0
  161.2110  205.1990  144.1750 C   0  0  0  0  0  1  0  0  0  0  0  0
  160.5130  202.4870  150.0900 N   0  0  0  0  0  2  0  0  0  0  0  0
  160.5680  201.0410  150.0280 C   0  0  0  0  0  1  0  0  0  0  0  0
  157.9130  213.0700  152.5110 C   0  0  0  0  0  2  0  0  0  0  0  0
  155.6740  213.8580  152.7430 O   0  0  0  0  0  0  0  0  0  0  0  0
  156.9790  214.0110  153.2480 C   0  0  1  0  0  3  0  0  0  0  0  0
  155.9550  213.2280  153.9700 C   0  0  1  0  0  3  0  0  0  0  0  0
  155.3760  214.0630  155.1030 C   0  0  0  0  0  2  0  0  0  0  0  0
  155.6320  213.4410  156.4750 C   0  0  0  0  0  0  0  0  0  0  0  0
  154.4560  213.4960  157.2210 O   0  0  0  0  0  1  0  0  0  0  0  0
  156.6290  214.1540  157.1440 O   0  0  0  0  0  1  0  0  0  0  0  0
  156.0550  211.9890  156.3330 C   0  0  0  0  0  1  0  0  0  0  0  0
  1 10  1  0  0  0  0
  3  5  1  0  0  0  0
  3  8  1  0  0  0  0
  4 31  1  1  0  0  0
  4  1  1  0  0  0  0
  4  7  1  0  0  0  0
  5 12  2  0  0  0  0
  6 13  1  0  0  0  0
  6  1  2  0  0  0  0
  7  2  1  0  0  0  0
  8  9  1  0  0  0  0
  9 11  2  0  0  0  0
 10  8  2  0  0  0  0
 10  2  1  0  0  0  0
 12 11  1  0  0  0  0
 13  3  2  0  0  0  0
 14 20  1  6  0  0  0
 14 19  1  0  0  0  0
 15 17  1  0  0  0  0
 15 13  1  1  0  0  0
 16 15  1  0  0  0  0
 18 14  1  0  0  0  0
 18 16  1  0  0  0  0
 19 17  1  0  0  0  0
 21 22  2  0  0  0  0
 21 20  1  0  0  0  0
 22 29  1  0  0  0  0
 23 24  2  0  0  0  0
 24 21  1  0  0  0  0
 25 24  1  0  0  0  0
 26 25  1  0  0  0  0
 27 26  1  0  0  0  0
 28 27  1  0  0  0  0
 30 29  1  0  0  0  0
 32 33  1  0  0  0  0
 32 34  1  0  0  0  0
 33 31  1  6  0  0  0
 33 34  1  0  0  0  0
 34 35  1  1  0  0  0
 35 36  1  0  0  0  0
 36 38  1  0  0  0  0
 36 37  1  0  0  0  0
 39 36  1  0  0  0  0
M  END
>  <MODEL>
5

>  <REMARK>
 VINA RESULT:      -7.0      5.382      9.481
  Name = 
  11 active torsions:
  status: ('A' for Active; 'I' for Inactive)
    1  A    between atoms: C_1  and  C_2
    2  A    between atoms: C_1  and  C_28
    3  A    between atoms: C_3  and  C_30
    4  A    between atoms: C_6  and  C_38
    5  A    between atoms: C_9  and  C_18
    6  A    between atoms: C_9  and  C_30
    7  A    between atoms: C_11  and  C_25
    8  A    between atoms: N_13  and  C_26
    9  A    between atoms: C_17  and  C_25
   10  A    between atoms: C_20  and  N_29
   11  A    between atoms: C_20  and  N_37
                            x       y       z     vdW  Elec       q    Type
                         _______ _______ _______ _____ _____    ______ ____

>  <TORSDO>
F 11

$$$$
=
 OpenBabel11052409583D

 39 43  0  0  1  0  0  0  0  0999 V2000
  161.5740  206.4830  152.0680 C   0  0  0  0  0  0  0  0  0  0  0  0
  161.1700  204.2240  152.1140 C   0  0  0  0  0  2  0  0  0  0  0  0
  161.6590  206.8030  149.3060 C   0  0  0  0  0  0  0  0  0  0  0  0
  161.4960  206.0530  153.4740 C   0  0  2  0  0  3  0  0  0  0  0  0
  161.6930  206.9280  147.9080 C   0  0  0  0  0  3  0  0  0  0  0  0
  161.8250  207.7530  151.5520 C   0  0  0  0  0  3  0  0  0  0  0  0
  161.2300  204.6550  153.4680 O   0  0  0  0  0  0  0  0  0  0  0  0
  161.4150  205.5240  149.8770 C   0  0  0  0  0  0  0  0  0  0  0  0
  161.2150  204.4120  149.0510 C   0  0  0  0  0  3  0  0  0  0  0  0
  161.3830  205.4130  151.2690 C   0  0  0  0  0  0  0  0  0  0  0  0
  161.2540  204.5580  147.6620 C   0  0  0  0  0  3  0  0  0  0  0  0
  161.4900  205.8110  147.0930 C   0  0  0  0  0  3  0  0  0  0  0  0
  161.8660  207.9240  150.1520 C   0  0  0  0  0  0  0  0  0  0  0  0
  162.1410  211.9450  148.6800 C   0  0  2  0  0  3  0  0  0  0  0  0
  162.1250  209.2880  149.5780 C   0  0  1  0  0  3  0  0  0  0  0  0
  161.2340  209.5610  148.3650 C   0  0  0  0  0  2  0  0  0  0  0  0
  161.9910  210.3770  150.6550 C   0  0  0  0  0  2  0  0  0  0  0  0
  161.5820  210.9000  147.7040 C   0  0  0  0  0  2  0  0  0  0  0  0
  161.5830  211.7430  150.0880 C   0  0  0  0  0  2  0  0  0  0  0  0
  161.8190  213.3400  148.1670 C   0  0  0  0  0  2  0  0  0  0  0  0
  160.8910  213.2830  146.9870 C   0  0  0  0  0  0  0  0  0  0  0  0
  159.5700  213.3600  147.1600 C   0  0  0  0  0  3  0  0  0  0  0  0
  162.6740  213.3560  145.4280 O   0  0  0  0  0  0  0  0  0  0  0  0
  161.4450  213.1510  145.6270 C   0  0  0  0  0  0  0  0  0  0  0  0
  160.5940  212.7970  144.5310 N   0  0  0  0  0  2  0  0  0  0  0  0
  161.0920  212.6330  143.1730 C   0  0  0  0  0  2  0  0  0  0  0  0
  160.4830  211.4620  142.5650 N   0  0  0  0  0  2  0  0  0  0  0  0
  160.9930  211.3860  141.2070 C   0  0  0  0  0  1  0  0  0  0  0  0
  158.9840  213.4870  148.4540 N   0  0  0  0  0  2  0  0  0  0  0  0
  157.5440  213.4230  148.6060 C   0  0  0  0  0  1  0  0  0  0  0  0
  160.3750  206.7940  154.1890 C   0  0  0  0  0  2  0  0  0  0  0  0
  161.6120  208.7480  154.7670 O   0  0  0  0  0  0  0  0  0  0  0  0
  160.9370  207.6420  155.3150 C   0  0  1  0  0  3  0  0  0  0  0  0
  160.3220  208.9840  155.2780 C   0  0  1  0  0  3  0  0  0  0  0  0
  160.4390  209.6400  156.6460 C   0  0  0  0  0  2  0  0  0  0  0  0
  160.1720  211.1440  156.5960 C   0  0  0  0  0  0  0  0  0  0  0  0
  160.1200  211.5470  155.2630 O   0  0  0  0  0  1  0  0  0  0  0  0
  161.2020  211.8330  157.2400 O   0  0  0  0  0  1  0  0  0  0  0  0
  158.8470  211.4730  157.2610 C   0  0  0  0  0  1  0  0  0  0  0  0
  1  4  1  0  0  0  0
  2  7  1  0  0  0  0
  3  8  1  0  0  0  0
  3 13  1  0  0  0  0
  4 31  1  1  0  0  0
  5  3  2  0  0  0  0
  6  1  1  0  0  0  0
  7  4  1  0  0  0  0
  8 10  1  0  0  0  0
  9  8  2  0  0  0  0
 10  1  2  0  0  0  0
 10  2  1  0  0  0  0
 11  9  1  0  0  0  0
 12 11  2  0  0  0  0
 12  5  1  0  0  0  0
 13  6  2  0  0  0  0
 14 20  1  6  0  0  0
 14 19  1  0  0  0  0
 15 13  1  1  0  0  0
 15 17  1  0  0  0  0
 16 15  1  0  0  0  0
 18 16  1  0  0  0  0
 18 14  1  0  0  0  0
 19 17  1  0  0  0  0
 21 22  2  0  0  0  0
 21 20  1  0  0  0  0
 22 29  1  0  0  0  0
 23 24  2  0  0  0  0
 24 21  1  0  0  0  0
 25 24  1  0  0  0  0
 26 25  1  0  0  0  0
 27 26  1  0  0  0  0
 28 27  1  0  0  0  0
 29 30  1  0  0  0  0
 32 34  1  0  0  0  0
 32 33  1  0  0  0  0
 33 31  1  6  0  0  0
 34 33  1  0  0  0  0
 34 35  1  1  0  0  0
 36 35  1  0  0  0  0
 36 38  1  0  0  0  0
 36 39  1  0  0  0  0
 37 36  1  0  0  0  0
M  END
>  <MODEL>
6

>  <REMARK>
 VINA RESULT:      -6.9      3.354      6.236
  Name = 
  11 active torsions:
  status: ('A' for Active; 'I' for Inactive)
    1  A    between atoms: C_1  and  C_2
    2  A    between atoms: C_1  and  C_28
    3  A    between atoms: C_3  and  C_30
    4  A    between atoms: C_6  and  C_38
    5  A    between atoms: C_9  and  C_18
    6  A    between atoms: C_9  and  C_30
    7  A    between atoms: C_11  and  C_25
    8  A    between atoms: N_13  and  C_26
    9  A    between atoms: C_17  and  C_25
   10  A    between atoms: C_20  and  N_29
   11  A    between atoms: C_20  and  N_37
                            x       y       z     vdW  Elec       q    Type
                         _______ _______ _______ _____ _____    ______ ____

>  <TORSDO>
F 11

$$$$
=
 OpenBabel11052409583D

 39 43  0  0  1  0  0  0  0  0999 V2000
  160.3260  210.8410  152.7270 C   0  0  0  0  0  0  0  0  0  0  0  0
  159.7940  211.7090  154.7840 C   0  0  0  0  0  2  0  0  0  0  0  0
  160.7760  208.2140  153.5210 C   0  0  0  0  0  0  0  0  0  0  0  0
  160.0490  212.2790  152.5680 C   0  0  2  0  0  3  0  0  0  0  0  0
  160.9920  206.8970  153.9560 C   0  0  0  0  0  3  0  0  0  0  0  0
  160.7110  209.9110  151.7630 C   0  0  0  0  0  3  0  0  0  0  0  0
  159.7080  212.7810  153.8550 O   0  0  0  0  0  0  0  0  0  0  0  0
  160.3910  209.1990  154.4710 C   0  0  0  0  0  0  0  0  0  0  0  0
  160.2350  208.8530  155.8180 C   0  0  0  0  0  3  0  0  0  0  0  0
  160.1790  210.5050  154.0240 C   0  0  0  0  0  0  0  0  0  0  0  0
  160.4560  207.5370  156.2310 C   0  0  0  0  0  3  0  0  0  0  0  0
  160.8320  206.5620  155.3040 C   0  0  0  0  0  3  0  0  0  0  0  0
  160.9370  208.5760  152.1570 C   0  0  0  0  0  0  0  0  0  0  0  0
  162.1010  206.0510  148.8890 C   0  0  2  0  0  3  0  0  0  0  0  0
  161.3420  207.5570  151.1300 C   0  0  1  0  0  3  0  0  0  0  0  0
  160.2300  207.3280  150.1040 C   0  0  0  0  0  2  0  0  0  0  0  0
  162.6760  207.9360  150.4670 C   0  0  0  0  0  2  0  0  0  0  0  0
  160.5920  206.2020  149.1280 C   0  0  0  0  0  2  0  0  0  0  0  0
  162.8230  207.3880  149.0420 C   0  0  0  0  0  2  0  0  0  0  0  0
  162.3380  205.4640  147.5060 C   0  0  0  0  0  2  0  0  0  0  0  0
  161.3400  204.3850  147.1960 C   0  0  0  0  0  0  0  0  0  0  0  0
  160.5120  204.5050  146.1560 C   0  0  0  0  0  3  0  0  0  0  0  0
  161.5860  202.0550  147.5550 O   0  0  0  0  0  0  0  0  0  0  0  0
  161.2820  203.1780  148.0430 C   0  0  0  0  0  0  0  0  0  0  0  0
  160.8790  203.2760  149.4140 N   0  0  0  0  0  2  0  0  0  0  0  0
  160.8240  202.1220  150.2990 C   0  0  0  0  0  2  0  0  0  0  0  0
  161.3700  202.4740  151.5990 N   0  0  0  0  0  2  0  0  0  0  0  0
  160.9030  203.8160  151.8970 C   0  0  0  0  0  1  0  0  0  0  0  0
  160.5270  205.6510  145.3080 N   0  0  0  0  0  2  0  0  0  0  0  0
  161.2070  205.5970  144.0290 C   0  0  0  0  0  1  0  0  0  0  0  0
  158.8900  212.4870  151.6040 C   0  0  0  0  0  2  0  0  0  0  0  0
  160.5040  214.0890  150.8890 O   0  0  0  0  0  0  0  0  0  0  0  0
  159.2090  213.6040  150.6280 C   0  0  1  0  0  3  0  0  0  0  0  0
  160.3640  213.2170  149.7930 C   0  0  1  0  0  3  0  0  0  0  0  0
  160.3620  214.0290  148.5060 C   0  0  0  0  0  2  0  0  0  0  0  0
  161.3540  213.4920  147.4760 C   0  0  0  0  0  0  0  0  0  0  0  0
  162.4080  214.3960  147.3530 O   0  0  0  0  0  1  0  0  0  0  0  0
  160.7280  213.3530  146.2360 O   0  0  0  0  0  1  0  0  0  0  0  0
  161.9090  212.1490  147.9190 C   0  0  0  0  0  1  0  0  0  0  0  0
  1 10  1  0  0  0  0
  3  5  1  0  0  0  0
  3  8  1  0  0  0  0
  4 31  1  6  0  0  0
  4  1  1  0  0  0  0
  4  7  1  0  0  0  0
  5 12  2  0  0  0  0
  6 13  1  0  0  0  0
  6  1  2  0  0  0  0
  7  2  1  0  0  0  0
  8  9  1  0  0  0  0
  9 11  2  0  0  0  0
 10  8  2  0  0  0  0
 10  2  1  0  0  0  0
 12 11  1  0  0  0  0
 13  3  2  0  0  0  0
 14 20  1  6  0  0  0
 14 19  1  0  0  0  0
 14 18  1  0  0  0  0
 15 13  1  1  0  0  0
 16 15  1  0  0  0  0
 17 15  1  0  0  0  0
 18 16  1  0  0  0  0
 19 17  1  0  0  0  0
 21 20  1  0  0  0  0
 21 24  1  0  0  0  0
 22 21  2  0  0  0  0
 23 24  2  0  0  0  0
 24 25  1  0  0  0  0
 25 26  1  0  0  0  0
 26 27  1  0  0  0  0
 27 28  1  0  0  0  0
 29 22  1  0  0  0  0
 30 29  1  0  0  0  0
 33 32  1  0  0  0  0
 33 31  1  1  0  0  0
 34 35  1  6  0  0  0
 34 33  1  0  0  0  0
 34 32  1  0  0  0  0
 36 39  1  0  0  0  0
 36 35  1  0  0  0  0
 37 36  1  0  0  0  0
 38 36  1  0  0  0  0
M  END
>  <MODEL>
7

>  <REMARK>
 VINA RESULT:      -6.9      3.604      8.149
  Name = 
  11 active torsions:
  status: ('A' for Active; 'I' for Inactive)
    1  A    between atoms: C_1  and  C_2
    2  A    between atoms: C_1  and  C_28
    3  A    between atoms: C_3  and  C_30
    4  A    between atoms: C_6  and  C_38
    5  A    between atoms: C_9  and  C_18
    6  A    between atoms: C_9  and  C_30
    7  A    between atoms: C_11  and  C_25
    8  A    between atoms: N_13  and  C_26
    9  A    between atoms: C_17  and  C_25
   10  A    between atoms: C_20  and  N_29
   11  A    between atoms: C_20  and  N_37
                            x       y       z     vdW  Elec       q    Type
                         _______ _______ _______ _____ _____    ______ ____

>  <TORSDO>
F 11

$$$$
=
 OpenBabel11052409583D

 39 43  0  0  1  0  0  0  0  0999 V2000
  159.7150  211.9880  153.4180 C   0  0  0  0  0  0  0  0  0  0  0  0
  159.6170  213.1840  155.3750 C   0  0  0  0  0  2  0  0  0  0  0  0
  160.5910  209.5730  154.4860 C   0  0  0  0  0  0  0  0  0  0  0  0
  159.2730  213.3570  153.1050 C   0  0  2  0  0  3  0  0  0  0  0  0
  161.0300  208.3700  155.0580 C   0  0  0  0  0  3  0  0  0  0  0  0
  159.9430  210.9200  152.5520 C   0  0  0  0  0  3  0  0  0  0  0  0
  159.2060  214.0650  154.3380 O   0  0  0  0  0  0  0  0  0  0  0  0
  160.3560  210.6930  155.3300 C   0  0  0  0  0  0  0  0  0  0  0  0
  160.5640  210.5880  156.7100 C   0  0  0  0  0  3  0  0  0  0  0  0
  159.9190  211.8840  154.7470 C   0  0  0  0  0  0  0  0  0  0  0  0
  161.0020  209.3800  157.2610 C   0  0  0  0  0  3  0  0  0  0  0  0
  161.2330  208.2750  156.4380 C   0  0  0  0  0  3  0  0  0  0  0  0
  160.3830  209.6910  153.0860 C   0  0  0  0  0  0  0  0  0  0  0  0
  161.5040  206.2960  150.7140 C   0  0  2  0  0  3  0  0  0  0  0  0
  160.6220  208.5270  152.1680 C   0  0  1  0  0  3  0  0  0  0  0  0
  161.7760  208.8050  151.2030 C   0  0  0  0  0  2  0  0  0  0  0  0
  160.8290  207.2270  152.9620 C   0  0  0  0  0  2  0  0  0  0  0  0
  161.9410  207.6690  150.1860 C   0  0  0  0  0  2  0  0  0  0  0  0
  161.6960  206.1970  152.2270 C   0  0  0  0  0  2  0  0  0  0  0  0
  162.2860  205.2050  149.9980 C   0  0  0  0  0  2  0  0  0  0  0  0
  161.3750  204.3340  149.1800 C   0  0  0  0  0  0  0  0  0  0  0  0
  160.6630  203.3650  149.7600 C   0  0  0  0  0  3  0  0  0  0  0  0
  161.2440  205.7360  147.2740 O   0  0  0  0  0  0  0  0  0  0  0  0
  161.2600  204.5580  147.7270 C   0  0  0  0  0  0  0  0  0  0  0  0
  161.1620  203.4460  146.8300 N   0  0  0  0  0  2  0  0  0  0  0  0
  161.0670  203.6100  145.3870 C   0  0  0  0  0  2  0  0  0  0  0  0
  160.4540  202.4310  144.7990 N   0  0  0  0  0  2  0  0  0  0  0  0
  160.3600  201.4390  145.8550 C   0  0  0  0  0  1  0  0  0  0  0  0
  160.7390  203.1070  151.1600 N   0  0  0  0  0  2  0  0  0  0  0  0
  161.8110  202.2890  151.6880 C   0  0  0  0  0  1  0  0  0  0  0  0
  157.9000  213.3280  152.4480 C   0  0  0  0  0  2  0  0  0  0  0  0
  159.1400  214.4400  150.7410 O   0  0  0  0  0  0  0  0  0  0  0  0
  157.8510  214.3050  151.2870 C   0  0  1  0  0  3  0  0  0  0  0  0
  158.2400  213.6150  150.0410 C   0  0  1  0  0  3  0  0  0  0  0  0
  157.6950  214.3750  148.8410 C   0  0  0  0  0  2  0  0  0  0  0  0
  157.7930  213.5690  147.5470 C   0  0  0  0  0  0  0  0  0  0  0  0
  157.2250  214.3110  146.5120 O   0  0  0  0  0  1  0  0  0  0  0  0
  157.0970  212.3660  147.6790 O   0  0  0  0  0  1  0  0  0  0  0  0
  159.2440  213.2830  147.2050 C   0  0  0  0  0  1  0  0  0  0  0  0
  1 10  1  0  0  0  0
  3  5  1  0  0  0  0
  3  8  1  0  0  0  0
  4 31  1  1  0  0  0
  4  1  1  0  0  0  0
  4  7  1  0  0  0  0
  5 12  2  0  0  0  0
  6 13  1  0  0  0  0
  6  1  2  0  0  0  0
  7  2  1  0  0  0  0
  8  9  1  0  0  0  0
  9 11  2  0  0  0  0
 10  8  2  0  0  0  0
 10  2  1  0  0  0  0
 12 11  1  0  0  0  0
 13  3  2  0  0  0  0
 14 20  1  6  0  0  0
 14 19  1  0  0  0  0
 15 17  1  0  0  0  0
 15 13  1  1  0  0  0
 16 15  1  0  0  0  0
 18 14  1  0  0  0  0
 18 16  1  0  0  0  0
 19 17  1  0  0  0  0
 21 22  2  0  0  0  0
 21 20  1  0  0  0  0
 22 29  1  0  0  0  0
 23 24  2  0  0  0  0
 24 21  1  0  0  0  0
 25 24  1  0  0  0  0
 26 25  1  0  0  0  0
 27 26  1  0  0  0  0
 27 28  1  0  0  0  0
 29 30  1  0  0  0  0
 32 33  1  0  0  0  0
 33 31  1  1  0  0  0
 34 35  1  6  0  0  0
 34 32  1  0  0  0  0
 34 33  1  0  0  0  0
 36 38  1  0  0  0  0
 36 35  1  0  0  0  0
 37 36  1  0  0  0  0
 39 36  1  0  0  0  0
M  END
>  <MODEL>
8

>  <REMARK>
 VINA RESULT:      -6.5      4.237      8.488
  Name = 
  11 active torsions:
  status: ('A' for Active; 'I' for Inactive)
    1  A    between atoms: C_1  and  C_2
    2  A    between atoms: C_1  and  C_28
    3  A    between atoms: C_3  and  C_30
    4  A    between atoms: C_6  and  C_38
    5  A    between atoms: C_9  and  C_18
    6  A    between atoms: C_9  and  C_30
    7  A    between atoms: C_11  and  C_25
    8  A    between atoms: N_13  and  C_26
    9  A    between atoms: C_17  and  C_25
   10  A    between atoms: C_20  and  N_29
   11  A    between atoms: C_20  and  N_37
                            x       y       z     vdW  Elec       q    Type
                         _______ _______ _______ _____ _____    ______ ____

>  <TORSDO>
F 11

$$$$
=
 OpenBabel11052409583D

 39 43  0  0  1  0  0  0  0  0999 V2000
  161.3310  205.9100  151.8740 C   0  0  0  0  0  0  0  0  0  0  0  0
  161.1690  203.6220  151.9730 C   0  0  0  0  0  2  0  0  0  0  0  0
  161.3720  206.1740  149.1060 C   0  0  0  0  0  0  0  0  0  0  0  0
  161.3050  205.5060  153.2910 C   0  0  2  0  0  3  0  0  0  0  0  0
  161.3880  206.2710  147.7060 C   0  0  0  0  0  3  0  0  0  0  0  0
  161.4450  207.1870  151.3290 C   0  0  0  0  0  3  0  0  0  0  0  0
  161.1870  204.0880  153.3170 O   0  0  0  0  0  0  0  0  0  0  0  0
  161.2670  204.8900  149.7070 C   0  0  0  0  0  0  0  0  0  0  0  0
  161.1830  203.7440  148.9070 C   0  0  0  0  0  3  0  0  0  0  0  0
  161.2520  204.8080  151.1010 C   0  0  0  0  0  0  0  0  0  0  0  0
  161.2010  203.8620  147.5140 C   0  0  0  0  0  3  0  0  0  0  0  0
  161.3010  205.1200  146.9160 C   0  0  0  0  0  3  0  0  0  0  0  0
  161.4630  207.3300  149.9260 C   0  0  0  0  0  0  0  0  0  0  0  0
  162.2800  211.2080  148.2830 C   0  0  2  0  0  3  0  0  0  0  0  0
  161.5730  208.7000  149.3200 C   0  0  1  0  0  3  0  0  0  0  0  0
  161.9560  209.7440  150.3710 C   0  0  0  0  0  2  0  0  0  0  0  0
  162.5360  208.7010  148.1210 C   0  0  0  0  0  2  0  0  0  0  0  0
  161.9500  211.1600  149.7820 C   0  0  0  0  0  2  0  0  0  0  0  0
  163.2050  210.0600  147.8820 C   0  0  0  0  0  2  0  0  0  0  0  0
  162.9090  212.5520  147.9470 C   0  0  0  0  0  2  0  0  0  0  0  0
  161.9670  213.4050  147.1450 C   0  0  0  0  0  0  0  0  0  0  0  0
  161.1690  214.2870  147.7500 C   0  0  0  0  0  3  0  0  0  0  0  0
  162.9240  213.6510  144.9900 O   0  0  0  0  0  0  0  0  0  0  0  0
  161.9340  213.2750  145.6760 C   0  0  0  0  0  0  0  0  0  0  0  0
  160.7810  212.7280  145.0260 N   0  0  0  0  0  2  0  0  0  0  0  0
  160.7030  212.5570  143.5820 C   0  0  0  0  0  2  0  0  0  0  0  0
  159.3970  212.9830  143.1080 N   0  0  0  0  0  2  0  0  0  0  0  0
  159.3920  214.4350  143.1470 C   0  0  0  0  0  1  0  0  0  0  0  0
  161.1630  214.4510  149.1670 N   0  0  0  0  0  2  0  0  0  0  0  0
  159.9150  214.3740  149.8990 C   0  0  0  0  0  1  0  0  0  0  0  0
  160.1140  206.1390  153.9950 C   0  0  0  0  0  2  0  0  0  0  0  0
  161.8680  207.4960  154.8710 O   0  0  0  0  0  0  0  0  0  0  0  0
  160.5830  206.9980  155.1550 C   0  0  1  0  0  3  0  0  0  0  0  0
  160.7910  208.3850  154.6920 C   0  0  1  0  0  3  0  0  0  0  0  0
  160.7270  209.3370  155.8780 C   0  0  0  0  0  2  0  0  0  0  0  0
  161.1330  210.7620  155.5040 C   0  0  0  0  0  0  0  0  0  0  0  0
  162.4920  210.9260  155.7700 O   0  0  0  0  0  1  0  0  0  0  0  0
  160.4060  211.6810  156.2630 O   0  0  0  0  0  1  0  0  0  0  0  0
  160.8890  211.0160  154.0270 C   0  0  0  0  0  1  0  0  0  0  0  0
  1  4  1  0  0  0  0
  2  7  1  0  0  0  0
  3  8  1  0  0  0  0
  3 13  1  0  0  0  0
  4  7  1  0  0  0  0
  4 31  1  1  0  0  0
  5  3  2  0  0  0  0
  6  1  1  0  0  0  0
  8 10  1  0  0  0  0
  9  8  2  0  0  0  0
 10  1  2  0  0  0  0
 10  2  1  0  0  0  0
 11  9  1  0  0  0  0
 12 11  2  0  0  0  0
 12  5  1  0  0  0  0
 13  6  2  0  0  0  0
 14 20  1  1  0  0  0
 14 18  1  0  0  0  0
 15 13  1  1  0  0  0
 15 16  1  0  0  0  0
 17 15  1  0  0  0  0
 18 16  1  0  0  0  0
 19 17  1  0  0  0  0
 19 14  1  0  0  0  0
 21 22  2  0  0  0  0
 21 20  1  0  0  0  0
 22 29  1  0  0  0  0
 23 24  2  0  0  0  0
 24 21  1  0  0  0  0
 25 24  1  0  0  0  0
 26 25  1  0  0  0  0
 27 28  1  0  0  0  0
 27 26  1  0  0  0  0
 29 30  1  0  0  0  0
 32 33  1  0  0  0  0
 33 31  1  6  0  0  0
 34 32  1  0  0  0  0
 34 33  1  0  0  0  0
 34 35  1  1  0  0  0
 36 37  1  0  0  0  0
 36 35  1  0  0  0  0
 36 38  1  0  0  0  0
 39 36  1  0  0  0  0
M  END
>  <MODEL>
9

>  <REMARK>
 VINA RESULT:      -6.5      3.053      5.767
  Name = 
  11 active torsions:
  status: ('A' for Active; 'I' for Inactive)
    1  A    between atoms: C_1  and  C_2
    2  A    between atoms: C_1  and  C_28
    3  A    between atoms: C_3  and  C_30
    4  A    between atoms: C_6  and  C_38
    5  A    between atoms: C_9  and  C_18
    6  A    between atoms: C_9  and  C_30
    7  A    between atoms: C_11  and  C_25
    8  A    between atoms: N_13  and  C_26
    9  A    between atoms: C_17  and  C_25
   10  A    between atoms: C_20  and  N_29
   11  A    between atoms: C_20  and  N_37
                            x       y       z     vdW  Elec       q    Type
                         _______ _______ _______ _____ _____    ______ ____

>  <TORSDO>
F 11

$$$$
