=
 OpenBabel11042420483D

 48 51  0  0  1  0  0  0  0  0999 V2000
  160.0340  211.8870  151.4660 C   0  0  2  0  0  3  0  0  0  0  0  0
  160.6580  213.1690  147.0250 C   0  0  1  0  0  3  0  0  0  0  0  0
  159.7110  212.3000  147.8550 C   0  0  0  0  0  2  0  0  0  0  0  0
  160.0130  214.2400  151.1500 C   0  0  0  0  0  2  0  0  0  0  0  0
  161.4040  214.4530  149.0560 C   0  0  0  0  0  2  0  0  0  0  0  0
  160.8550  213.0250  151.0450 N   0  0  0  0  0  0  0  0  0  0  0  0
  161.8590  213.6010  147.8730 C   0  0  0  0  0  2  0  0  0  0  0  0
  159.1700  213.0710  149.0580 C   0  0  0  0  0  2  0  0  0  0  0  0
  160.3310  213.7080  149.8380 C   0  0  1  0  0  0  0  0  0  0  0  0
  161.1010  212.4420  145.9200 O   0  0  0  0  0  0  0  0  0  0  0  0
  162.1500  214.4460  144.5200 C   0  0  0  0  0  1  0  0  0  0  0  0
  161.1910  212.2480  143.3610 O   0  0  0  0  0  1  0  0  0  0  0  0
  160.6210  213.3870  144.5450 P   0  0  1  0  0  0  0  0  0  0  0  0
  159.6580  211.9130  155.0680 C   0  0  0  0  0  0  0  0  0  0  0  0
  158.2480  212.3230  154.7480 C   0  0  2  0  0  3  0  0  0  0  0  0
  157.3200  212.6790  152.3870 O   0  0  0  0  0  1  0  0  0  0  0  0
  160.3940  211.7480  154.0160 N   0  0  0  0  0  0  0  0  0  0  0  0
  158.3590  212.3820  153.2600 C   0  0  0  0  0  0  0  0  0  0  0  0
  159.5860  212.0580  152.8900 C   0  0  0  0  0  0  0  0  0  0  0  0
  157.8780  213.6880  155.3440 C   0  0  0  0  0  0  0  0  0  0  0  0
  157.3080  213.4990  156.5880 F   0  0  0  0  0  0  0  0  0  0  0  0
  159.0220  214.4520  155.4950 F   0  0  0  0  0  0  0  0  0  0  0  0
  156.9820  214.3640  154.5290 F   0  0  0  0  0  0  0  0  0  0  0  0
  160.1590  211.6240  156.4450 C   0  0  0  0  0  2  0  0  0  0  0  0
  159.7170  210.2320  156.8760 C   0  0  0  0  0  2  0  0  0  0  0  0
  159.7280  207.9740  156.3210 C   0  0  0  0  0  1  0  0  0  0  0  0
  160.4080  209.2310  156.0840 N   0  0  0  0  0  0  0  0  0  0  0  0
  161.7400  209.0960  156.6460 C   0  0  0  0  0  1  0  0  0  0  0  0
  161.2320  208.2580  152.2530 C   0  0  0  0  0  0  0  0  0  0  0  0
  161.6480  210.4990  150.3990 O   0  0  0  0  0  0  0  0  0  0  0  0
  160.5740  209.5320  152.2580 N   0  0  0  0  0  2  0  0  0  0  0  0
  160.8890  207.3900  153.0970 O   0  0  0  0  0  0  0  0  0  0  0  0
  160.8110  210.6120  151.3380 C   0  0  0  0  0  0  0  0  0  0  0  0
  162.3240  207.9380  151.2890 C   0  0  0  0  0  2  0  0  0  0  0  0
  162.2900  206.4650  150.9220 C   0  0  0  0  0  2  0  0  0  0  0  0
  161.0020  206.1410  150.1850 C   0  0  0  0  0  2  0  0  0  0  0  0
  160.8140  202.3720  150.6030 C   0  0  0  0  0  3  0  0  0  0  0  0
  161.0310  201.9970  149.3400 C   0  0  0  0  0  3  0  0  0  0  0  0
  160.5130  203.8020  150.9570 C   0  0  0  0  0  2  0  0  0  0  0  0
  161.0610  202.9750  148.2340 C   0  0  0  0  0  0  0  0  0  0  0  0
  160.9230  204.7200  149.8870 N   0  0  0  0  0  0  0  0  0  0  0  0
  161.0140  204.2790  148.5240 C   0  0  0  0  0  3  0  0  0  0  0  0
  160.9040  201.3230  146.5480 O   0  0  0  0  0  0  0  0  0  0  0  0
  161.3400  203.4410  145.7130 N   0  0  0  0  0  2  0  0  0  0  0  0
  161.0900  202.5470  146.8130 C   0  0  0  0  0  0  0  0  0  0  0  0
  161.3750  204.9010  145.6920 C   0  0  0  0  0  3  0  0  0  0  0  0
  160.2110  205.4810  144.9120 C   0  0  0  0  0  1  0  0  0  0  0  0
  162.7130  205.4420  145.2160 C   0  0  0  0  0  1  0  0  0  0  0  0
  1 33  1  1  0  0  0
  1 19  1  0  0  0  0
  2 10  1  6  0  0  0
  2  3  1  0  0  0  0
  2  7  1  0  0  0  0
  3  8  1  0  0  0  0
  6  4  1  0  0  0  0
  6  1  1  0  0  0  0
  7  5  1  0  0  0  0
  8  9  1  0  0  0  0
  9  5  1  6  0  0  0
  9  6  1  0  0  0  0
  9  4  1  0  0  0  0
 12 13  1  0  0  0  0
 13 11  1  6  0  0  0
 13 10  1  0  0  0  0
 14 24  1  0  0  0  0
 15 14  1  0  0  0  0
 15 20  1  1  0  0  0
 16 18  1  0  0  0  0
 17 14  2  0  0  0  0
 18 15  1  0  0  0  0
 19 18  2  0  0  0  0
 19 17  1  0  0  0  0
 20 22  1  0  0  0  0
 20 21  1  0  0  0  0
 23 20  1  0  0  0  0
 24 25  1  0  0  0  0
 27 26  1  0  0  0  0
 27 28  1  0  0  0  0
 27 25  1  0  0  0  0
 29 31  1  0  0  0  0
 29 32  2  0  0  0  0
 30 33  2  0  0  0  0
 33 31  1  0  0  0  0
 34 29  1  0  0  0  0
 35 34  1  0  0  0  0
 36 35  1  0  0  0  0
 37 39  1  0  0  0  0
 38 37  2  0  0  0  0
 40 42  2  0  0  0  0
 40 38  1  0  0  0  0
 41 36  1  0  0  0  0
 41 39  1  0  0  0  0
 42 41  1  0  0  0  0
 43 45  2  0  0  0  0
 44 45  1  0  0  0  0
 45 40  1  0  0  0  0
 46 44  1  0  0  0  0
 47 46  1  0  0  0  0
 48 46  1  0  0  0  0
M  END
>  <MODEL>
1

>  <REMARK>
 VINA RESULT:      -6.1      0.000      0.000
  Name = 
  15 active torsions:
  status: ('A' for Active; 'I' for Inactive)
    1  A    between atoms: C_1  and  O_36
    2  A    between atoms: C_2  and  N_22
    3  A    between atoms: C_2  and  C_39
    4  A    between atoms: C_2  and  C_42
    5  A    between atoms: C_4  and  C_5
    6  A    between atoms: C_5  and  C_33
    7  A    between atoms: C_9  and  C_13
    8  A    between atoms: C_10  and  C_14
    9  A    between atoms: C_14  and  C_26
   10  A    between atoms: C_17  and  C_26
   11  A    between atoms: C_17  and  N_29
   12  A    between atoms: C_19  and  N_35
   13  A    between atoms: N_25  and  C_33
   14  A    between atoms: C_28  and  C_44
   15  A    between atoms: O_36  and  P_43
                            x       y       z     vdW  Elec       q    Type
                         _______ _______ _______ _____ _____    ______ ____

>  <TORSDO>
F 15

$$$$
=
 OpenBabel11042420483D

 48 51  0  0  1  0  0  0  0  0999 V2000
  159.8340  211.8620  151.6420 C   0  0  2  0  0  3  0  0  0  0  0  0
  160.3280  213.2150  147.2050 C   0  0  1  0  0  3  0  0  0  0  0  0
  159.3980  212.3420  148.0520 C   0  0  0  0  0  2  0  0  0  0  0  0
  159.8320  214.2210  151.3670 C   0  0  0  0  0  2  0  0  0  0  0  0
  161.1550  214.4530  149.2320 C   0  0  0  0  0  2  0  0  0  0  0  0
  160.6550  212.9970  151.2140 N   0  0  0  0  0  0  0  0  0  0  0  0
  161.5610  213.6170  148.0210 C   0  0  0  0  0  2  0  0  0  0  0  0
  158.9060  213.0980  149.2840 C   0  0  0  0  0  2  0  0  0  0  0  0
  160.1000  213.7080  150.0360 C   0  0  1  0  0  0  0  0  0  0  0  0
  160.7260  212.5010  146.0740 O   0  0  0  0  0  0  0  0  0  0  0  0
  161.5040  212.7340  143.5410 C   0  0  0  0  0  1  0  0  0  0  0  0
  158.9370  212.6070  144.2360 O   0  0  0  0  0  1  0  0  0  0  0  0
  160.3220  213.5310  144.7350 P   0  0  1  0  0  0  0  0  0  0  0  0
  158.0300  212.6930  154.6700 C   0  0  0  0  0  0  0  0  0  0  0  0
  159.3320  212.3500  155.3380 C   0  0  2  0  0  3  0  0  0  0  0  0
  161.4420  211.5500  154.1240 O   0  0  0  0  0  1  0  0  0  0  0  0
  158.0600  212.5460  153.3840 N   0  0  0  0  0  0  0  0  0  0  0  0
  160.1090  211.9430  154.1290 C   0  0  0  0  0  0  0  0  0  0  0  0
  159.3530  212.0610  153.0510 C   0  0  0  0  0  0  0  0  0  0  0  0
  159.1980  211.1970  156.3410 C   0  0  0  0  0  0  0  0  0  0  0  0
  158.1960  211.4960  157.2440 F   0  0  0  0  0  0  0  0  0  0  0  0
  158.8540  210.0370  155.6690 F   0  0  0  0  0  0  0  0  0  0  0  0
  160.3860  210.9900  157.0290 F   0  0  0  0  0  0  0  0  0  0  0  0
  156.8380  213.2420  155.3830 C   0  0  0  0  0  2  0  0  0  0  0  0
  155.6270  212.3540  155.1290 C   0  0  0  0  0  2  0  0  0  0  0  0
  155.0690  210.0960  155.1650 C   0  0  0  0  0  1  0  0  0  0  0  0
  155.7360  211.1400  155.9170 N   0  0  0  0  0  0  0  0  0  0  0  0
  154.9530  211.3490  157.1220 C   0  0  0  0  0  1  0  0  0  0  0  0
  160.9570  208.2130  152.4490 C   0  0  0  0  0  0  0  0  0  0  0  0
  161.5560  210.5050  150.7110 O   0  0  0  0  0  0  0  0  0  0  0  0
  160.2980  209.4860  152.4210 N   0  0  0  0  0  2  0  0  0  0  0  0
  160.5320  207.3220  153.2300 O   0  0  0  0  0  0  0  0  0  0  0  0
  160.6250  210.5920  151.5610 C   0  0  0  0  0  0  0  0  0  0  0  0
  162.1450  207.9210  151.5950 C   0  0  0  0  0  2  0  0  0  0  0  0
  162.1850  206.4470  151.2330 C   0  0  0  0  0  2  0  0  0  0  0  0
  161.0960  206.1290  150.2230 C   0  0  0  0  0  2  0  0  0  0  0  0
  160.8130  202.4040  150.9000 C   0  0  0  0  0  3  0  0  0  0  0  0
  161.0250  201.9370  149.6670 C   0  0  0  0  0  3  0  0  0  0  0  0
  160.5470  203.8620  151.1520 C   0  0  0  0  0  2  0  0  0  0  0  0
  161.0820  202.8350  148.4960 C   0  0  0  0  0  0  0  0  0  0  0  0
  160.9830  204.6930  150.0230 N   0  0  0  0  0  0  0  0  0  0  0  0
  161.0670  204.1570  148.6950 C   0  0  0  0  0  3  0  0  0  0  0  0
  160.8410  201.0850  146.9230 O   0  0  0  0  0  0  0  0  0  0  0  0
  161.4300  203.1060  145.9550 N   0  0  0  0  0  2  0  0  0  0  0  0
  161.1040  202.3090  147.1080 C   0  0  0  0  0  0  0  0  0  0  0  0
  161.5620  204.5560  145.8360 C   0  0  0  0  0  3  0  0  0  0  0  0
  160.5770  205.1320  144.8370 C   0  0  0  0  0  1  0  0  0  0  0  0
  162.9920  204.9860  145.5470 C   0  0  0  0  0  1  0  0  0  0  0  0
  1 33  1  1  0  0  0
  1 19  1  0  0  0  0
  2 10  1  6  0  0  0
  2  7  1  0  0  0  0
  2  3  1  0  0  0  0
  3  8  1  0  0  0  0
  6  4  1  0  0  0  0
  6  1  1  0  0  0  0
  7  5  1  0  0  0  0
  8  9  1  0  0  0  0
  9  5  1  6  0  0  0
  9  6  1  0  0  0  0
  9  4  1  0  0  0  0
 12 13  1  0  0  0  0
 13 11  1  6  0  0  0
 13 10  1  0  0  0  0
 14 15  1  0  0  0  0
 14 24  1  0  0  0  0
 15 20  1  1  0  0  0
 16 18  1  0  0  0  0
 17 14  2  0  0  0  0
 18 15  1  0  0  0  0
 19 17  1  0  0  0  0
 19 18  2  0  0  0  0
 20 23  1  0  0  0  0
 20 21  1  0  0  0  0
 22 20  1  0  0  0  0
 25 24  1  0  0  0  0
 25 27  1  0  0  0  0
 26 27  1  0  0  0  0
 27 28  1  0  0  0  0
 29 32  2  0  0  0  0
 30 33  2  0  0  0  0
 31 29  1  0  0  0  0
 33 31  1  0  0  0  0
 34 29  1  0  0  0  0
 35 34  1  0  0  0  0
 36 35  1  0  0  0  0
 37 39  1  0  0  0  0
 38 37  2  0  0  0  0
 40 42  2  0  0  0  0
 40 38  1  0  0  0  0
 41 36  1  0  0  0  0
 41 39  1  0  0  0  0
 42 41  1  0  0  0  0
 43 45  2  0  0  0  0
 44 45  1  0  0  0  0
 45 40  1  0  0  0  0
 46 44  1  0  0  0  0
 47 46  1  0  0  0  0
 48 46  1  0  0  0  0
M  END
>  <MODEL>
2

>  <REMARK>
 VINA RESULT:      -6.1      1.714      2.315
  Name = 
  15 active torsions:
  status: ('A' for Active; 'I' for Inactive)
    1  A    between atoms: C_1  and  O_36
    2  A    between atoms: C_2  and  N_22
    3  A    between atoms: C_2  and  C_39
    4  A    between atoms: C_2  and  C_42
    5  A    between atoms: C_4  and  C_5
    6  A    between atoms: C_5  and  C_33
    7  A    between atoms: C_9  and  C_13
    8  A    between atoms: C_10  and  C_14
    9  A    between atoms: C_14  and  C_26
   10  A    between atoms: C_17  and  C_26
   11  A    between atoms: C_17  and  N_29
   12  A    between atoms: C_19  and  N_35
   13  A    between atoms: N_25  and  C_33
   14  A    between atoms: C_28  and  C_44
   15  A    between atoms: O_36  and  P_43
                            x       y       z     vdW  Elec       q    Type
                         _______ _______ _______ _____ _____    ______ ____

>  <TORSDO>
F 15

$$$$
=
 OpenBabel11042420483D

 48 51  0  0  1  0  0  0  0  0999 V2000
  161.5010  208.5210  150.0610 C   0  0  2  0  0  3  0  0  0  0  0  0
  160.5720  210.8240  154.0090 C   0  0  1  0  0  3  0  0  0  0  0  0
  159.8710  210.4330  152.7060 C   0  0  0  0  0  2  0  0  0  0  0  0
  161.8540  207.2230  152.0170 C   0  0  0  0  0  2  0  0  0  0  0  0
  162.3130  209.0330  153.7140 C   0  0  0  0  0  2  0  0  0  0  0  0
  162.3090  208.4260  151.2790 N   0  0  0  0  0  0  0  0  0  0  0  0
  162.0710  210.5280  153.9110 C   0  0  0  0  0  2  0  0  0  0  0  0
  160.0250  208.9390  152.4260 C   0  0  0  0  0  2  0  0  0  0  0  0
  161.5070  208.5390  152.5210 C   0  0  1  0  0  0  0  0  0  0  0  0
  160.3760  212.1850  154.2460 O   0  0  0  0  0  0  0  0  0  0  0  0
  158.7210  213.5810  155.7910 C   0  0  0  0  0  1  0  0  0  0  0  0
  158.9760  210.9390  156.0000 O   0  0  0  0  0  1  0  0  0  0  0  0
  160.0580  212.2980  155.9500 P   0  0  1  0  0  0  0  0  0  0  0  0
  162.2330  205.8430  147.7350 C   0  0  0  0  0  0  0  0  0  0  0  0
  161.0030  205.2190  148.3310 C   0  0  2  0  0  3  0  0  0  0  0  0
  159.5880  206.2490  150.2010 O   0  0  0  0  0  1  0  0  0  0  0  0
  162.5320  206.9880  148.2610 N   0  0  0  0  0  0  0  0  0  0  0  0
  160.6830  206.2650  149.3470 C   0  0  0  0  0  0  0  0  0  0  0  0
  161.5730  207.2400  149.2790 C   0  0  0  0  0  0  0  0  0  0  0  0
  161.2870  203.8600  148.9860 C   0  0  0  0  0  0  0  0  0  0  0  0
  160.0940  203.1890  149.1720 F   0  0  0  0  0  0  0  0  0  0  0  0
  162.0930  203.1040  148.1530 F   0  0  0  0  0  0  0  0  0  0  0  0
  161.9180  204.0170  150.2120 F   0  0  0  0  0  0  0  0  0  0  0  0
  162.9950  205.2710  146.5850 C   0  0  0  0  0  2  0  0  0  0  0  0
  162.0300  204.7980  145.5070 C   0  0  0  0  0  2  0  0  0  0  0  0
  160.1010  206.0580  145.1900 C   0  0  0  0  0  1  0  0  0  0  0  0
  161.4900  205.9430  144.7960 N   0  0  0  0  0  0  0  0  0  0  0  0
  161.4960  205.6030  143.3840 C   0  0  0  0  0  1  0  0  0  0  0  0
  161.9730  212.1800  148.7890 C   0  0  0  0  0  0  0  0  0  0  0  0
  162.7650  209.4040  148.2450 O   0  0  0  0  0  0  0  0  0  0  0  0
  161.5840  211.0020  149.5080 N   0  0  0  0  0  2  0  0  0  0  0  0
  161.5760  213.3030  149.1960 O   0  0  0  0  0  0  0  0  0  0  0  0
  161.9850  209.6540  149.2070 C   0  0  0  0  0  0  0  0  0  0  0  0
  162.8160  212.1120  147.5600 C   0  0  0  0  0  2  0  0  0  0  0  0
  162.4900  213.2680  146.6310 C   0  0  0  0  0  2  0  0  0  0  0  0
  161.3100  212.9060  145.7450 C   0  0  0  0  0  2  0  0  0  0  0  0
  163.1220  213.8540  142.5460 C   0  0  0  0  0  3  0  0  0  0  0  0
  162.2310  213.4220  141.6500 C   0  0  0  0  0  3  0  0  0  0  0  0
  163.0210  213.4760  143.9970 C   0  0  0  0  0  2  0  0  0  0  0  0
  161.0610  212.6130  142.0450 C   0  0  0  0  0  0  0  0  0  0  0  0
  161.6730  213.0070  144.3400 N   0  0  0  0  0  0  0  0  0  0  0  0
  160.8100  212.4340  143.3460 C   0  0  0  0  0  3  0  0  0  0  0  0
  159.0150  212.4000  140.8780 O   0  0  0  0  0  0  0  0  0  0  0  0
  160.5920  210.8230  140.2490 N   0  0  0  0  0  2  0  0  0  0  0  0
  160.1890  211.9560  141.0400 C   0  0  0  0  0  0  0  0  0  0  0  0
  161.9210  210.2430  140.0670 C   0  0  0  0  0  3  0  0  0  0  0  0
  162.7050  210.9580  138.9840 C   0  0  0  0  0  1  0  0  0  0  0  0
  161.8710  208.7400  139.8440 C   0  0  0  0  0  1  0  0  0  0  0  0
  1 33  1  6  0  0  0
  1  6  1  0  0  0  0
  2 10  1  6  0  0  0
  3  2  1  0  0  0  0
  5  7  1  0  0  0  0
  6  4  1  0  0  0  0
  6  9  1  0  0  0  0
  7  2  1  0  0  0  0
  8  9  1  0  0  0  0
  8  3  1  0  0  0  0
  9  4  1  1  0  0  0
  9  5  1  0  0  0  0
 10 13  1  0  0  0  0
 13 11  1  6  0  0  0
 13 12  1  0  0  0  0
 14 17  2  0  0  0  0
 14 15  1  0  0  0  0
 15 20  1  1  0  0  0
 15 18  1  0  0  0  0
 17 19  1  0  0  0  0
 18 16  1  0  0  0  0
 19 18  2  0  0  0  0
 19  1  1  0  0  0  0
 20 21  1  0  0  0  0
 20 23  1  0  0  0  0
 22 20  1  0  0  0  0
 24 14  1  0  0  0  0
 25 24  1  0  0  0  0
 27 26  1  0  0  0  0
 27 25  1  0  0  0  0
 28 27  1  0  0  0  0
 29 32  2  0  0  0  0
 29 31  1  0  0  0  0
 30 33  2  0  0  0  0
 33 31  1  0  0  0  0
 34 29  1  0  0  0  0
 35 34  1  0  0  0  0
 36 35  1  0  0  0  0
 37 39  1  0  0  0  0
 38 40  1  0  0  0  0
 38 37  2  0  0  0  0
 39 41  1  0  0  0  0
 40 42  2  0  0  0  0
 41 36  1  0  0  0  0
 42 41  1  0  0  0  0
 43 45  2  0  0  0  0
 44 45  1  0  0  0  0
 45 40  1  0  0  0  0
 46 44  1  0  0  0  0
 47 46  1  0  0  0  0
 48 46  1  0  0  0  0
M  END
>  <MODEL>
3

>  <REMARK>
 VINA RESULT:      -5.7      4.781      9.513
  Name = 
  15 active torsions:
  status: ('A' for Active; 'I' for Inactive)
    1  A    between atoms: C_1  and  O_36
    2  A    between atoms: C_2  and  N_22
    3  A    between atoms: C_2  and  C_39
    4  A    between atoms: C_2  and  C_42
    5  A    between atoms: C_4  and  C_5
    6  A    between atoms: C_5  and  C_33
    7  A    between atoms: C_9  and  C_13
    8  A    between atoms: C_10  and  C_14
    9  A    between atoms: C_14  and  C_26
   10  A    between atoms: C_17  and  C_26
   11  A    between atoms: C_17  and  N_29
   12  A    between atoms: C_19  and  N_35
   13  A    between atoms: N_25  and  C_33
   14  A    between atoms: C_28  and  C_44
   15  A    between atoms: O_36  and  P_43
                            x       y       z     vdW  Elec       q    Type
                         _______ _______ _______ _____ _____    ______ ____

>  <TORSDO>
F 15

$$$$
=
 OpenBabel11042420483D

 48 51  0  0  1  0  0  0  0  0999 V2000
  160.6360  208.7140  153.2770 C   0  0  2  0  0  3  0  0  0  0  0  0
  159.9520  211.2880  157.1060 C   0  0  1  0  0  3  0  0  0  0  0  0
  159.1620  210.7810  155.8970 C   0  0  0  0  0  2  0  0  0  0  0  0
  161.1820  207.5780  155.2890 C   0  0  0  0  0  2  0  0  0  0  0  0
  161.7180  209.5230  156.8040 C   0  0  0  0  0  2  0  0  0  0  0  0
  161.5400  208.7320  154.4300 N   0  0  0  0  0  0  0  0  0  0  0  0
  161.4470  211.0220  156.9090 C   0  0  0  0  0  2  0  0  0  0  0  0
  159.3400  209.2750  155.7160 C   0  0  0  0  0  2  0  0  0  0  0  0
  160.8350  208.9190  155.7210 C   0  0  1  0  0  0  0  0  0  0  0  0
  159.7350  212.6580  157.2570 O   0  0  0  0  0  0  0  0  0  0  0  0
  157.6980  214.3690  157.2460 C   0  0  0  0  0  1  0  0  0  0  0  0
  159.3300  214.0850  155.1610 O   0  0  0  0  0  1  0  0  0  0  0  0
  158.4160  213.0190  156.1860 P   0  0  1  0  0  0  0  0  0  0  0  0
  161.5690  205.8110  151.3220 C   0  0  0  0  0  0  0  0  0  0  0  0
  162.2940  206.8220  150.4800 C   0  0  2  0  0  3  0  0  0  0  0  0
  162.3160  209.3480  150.9070 O   0  0  0  0  0  1  0  0  0  0  0  0
  160.9320  206.3380  152.3190 N   0  0  0  0  0  0  0  0  0  0  0  0
  161.8970  208.0600  151.2150 C   0  0  0  0  0  0  0  0  0  0  0  0
  161.1240  207.7430  152.2390 C   0  0  0  0  0  0  0  0  0  0  0  0
  161.8030  206.8440  149.0260 C   0  0  0  0  0  0  0  0  0  0  0  0
  160.4340  207.0280  149.0130 F   0  0  0  0  0  0  0  0  0  0  0  0
  162.3960  207.8980  148.3530 F   0  0  0  0  0  0  0  0  0  0  0  0
  162.1110  205.6560  148.3760 F   0  0  0  0  0  0  0  0  0  0  0  0
  161.6390  204.3340  151.1110 C   0  0  0  0  0  2  0  0  0  0  0  0
  160.4810  203.8800  150.2330 C   0  0  0  0  0  2  0  0  0  0  0  0
  159.5750  201.9370  149.3310 C   0  0  0  0  0  1  0  0  0  0  0  0
  160.8230  202.6300  149.5780 N   0  0  0  0  0  0  0  0  0  0  0  0
  161.5570  201.8350  150.5460 C   0  0  0  0  0  1  0  0  0  0  0  0
  159.0120  212.0050  151.9490 C   0  0  0  0  0  0  0  0  0  0  0  0
  161.6050  210.6810  152.3480 O   0  0  0  0  0  0  0  0  0  0  0  0
  159.2550  210.7040  152.5020 N   0  0  0  0  0  2  0  0  0  0  0  0
  157.8310  212.4370  151.9000 O   0  0  0  0  0  0  0  0  0  0  0  0
  160.5410  210.0820  152.6730 C   0  0  0  0  0  0  0  0  0  0  0  0
  160.1160  212.8520  151.4120 C   0  0  0  0  0  2  0  0  0  0  0  0
  159.7510  213.3860  150.0390 C   0  0  0  0  0  2  0  0  0  0  0  0
  160.8840  214.2390  149.4930 C   0  0  0  0  0  2  0  0  0  0  0  0
  162.5740  213.9610  146.1050 C   0  0  0  0  0  3  0  0  0  0  0  0
  161.5290  213.5800  145.3660 C   0  0  0  0  0  3  0  0  0  0  0  0
  162.5170  213.9540  147.6070 C   0  0  0  0  0  2  0  0  0  0  0  0
  160.2410  213.2020  145.9790 C   0  0  0  0  0  0  0  0  0  0  0  0
  161.1320  213.9300  148.0940 N   0  0  0  0  0  0  0  0  0  0  0  0
  160.0720  213.3870  147.2930 C   0  0  0  0  0  3  0  0  0  0  0  0
  158.0750  212.2740  145.7800 O   0  0  0  0  0  0  0  0  0  0  0  0
  159.2510  212.2800  143.7840 N   0  0  0  0  0  2  0  0  0  0  0  0
  159.1510  212.5800  145.1880 C   0  0  0  0  0  0  0  0  0  0  0  0
  160.2590  212.7020  142.8140 C   0  0  0  0  0  3  0  0  0  0  0  0
  159.7200  213.7510  141.8610 C   0  0  0  0  0  1  0  0  0  0  0  0
  160.8860  211.5270  142.0810 C   0  0  0  0  0  1  0  0  0  0  0  0
  1 33  1  6  0  0  0
  1  6  1  0  0  0  0
  2 10  1  6  0  0  0
  3  2  1  0  0  0  0
  5  7  1  0  0  0  0
  6  4  1  0  0  0  0
  6  9  1  0  0  0  0
  7  2  1  0  0  0  0
  8  9  1  0  0  0  0
  8  3  1  0  0  0  0
  9  4  1  1  0  0  0
  9  5  1  0  0  0  0
 12 13  1  0  0  0  0
 13 11  1  1  0  0  0
 13 10  1  0  0  0  0
 14 17  2  0  0  0  0
 15 20  1  6  0  0  0
 15 18  1  0  0  0  0
 15 14  1  0  0  0  0
 16 18  1  0  0  0  0
 18 19  2  0  0  0  0
 19 17  1  0  0  0  0
 19  1  1  0  0  0  0
 21 20  1  0  0  0  0
 22 20  1  0  0  0  0
 23 20  1  0  0  0  0
 24 14  1  0  0  0  0
 25 24  1  0  0  0  0
 26 27  1  0  0  0  0
 27 25  1  0  0  0  0
 27 28  1  0  0  0  0
 29 31  1  0  0  0  0
 30 33  2  0  0  0  0
 31 33  1  0  0  0  0
 32 29  2  0  0  0  0
 34 29  1  0  0  0  0
 35 34  1  0  0  0  0
 36 35  1  0  0  0  0
 37 39  1  0  0  0  0
 38 40  1  0  0  0  0
 38 37  2  0  0  0  0
 39 41  1  0  0  0  0
 40 42  2  0  0  0  0
 41 36  1  0  0  0  0
 42 41  1  0  0  0  0
 44 45  1  0  0  0  0
 45 43  2  0  0  0  0
 45 40  1  0  0  0  0
 46 44  1  0  0  0  0
 47 46  1  0  0  0  0
 48 46  1  0  0  0  0
M  END
>  <MODEL>
4

>  <REMARK>
 VINA RESULT:      -5.2      3.865      8.835
  Name = 
  15 active torsions:
  status: ('A' for Active; 'I' for Inactive)
    1  A    between atoms: C_1  and  O_36
    2  A    between atoms: C_2  and  N_22
    3  A    between atoms: C_2  and  C_39
    4  A    between atoms: C_2  and  C_42
    5  A    between atoms: C_4  and  C_5
    6  A    between atoms: C_5  and  C_33
    7  A    between atoms: C_9  and  C_13
    8  A    between atoms: C_10  and  C_14
    9  A    between atoms: C_14  and  C_26
   10  A    between atoms: C_17  and  C_26
   11  A    between atoms: C_17  and  N_29
   12  A    between atoms: C_19  and  N_35
   13  A    between atoms: N_25  and  C_33
   14  A    between atoms: C_28  and  C_44
   15  A    between atoms: O_36  and  P_43
                            x       y       z     vdW  Elec       q    Type
                         _______ _______ _______ _____ _____    ______ ____

>  <TORSDO>
F 15

$$$$
=
 OpenBabel11042420483D

 48 51  0  0  1  0  0  0  0  0999 V2000
  160.4690  211.8290  150.4550 C   0  0  2  0  0  3  0  0  0  0  0  0
  161.5630  213.2000  146.1330 C   0  0  1  0  0  3  0  0  0  0  0  0
  160.4880  212.3770  146.8480 C   0  0  0  0  0  2  0  0  0  0  0  0
  160.6420  214.1860  150.2270 C   0  0  0  0  0  2  0  0  0  0  0  0
  162.2200  214.3600  148.2650 C   0  0  0  0  0  2  0  0  0  0  0  0
  161.4020  212.9160  150.1470 N   0  0  0  0  0  0  0  0  0  0  0  0
  162.7130  213.5140  147.0940 C   0  0  0  0  0  2  0  0  0  0  0  0
  159.9010  213.1480  148.0290 C   0  0  0  0  0  2  0  0  0  0  0  0
  161.0340  213.6730  148.9270 C   0  0  1  0  0  0  0  0  0  0  0  0
  162.0460  212.4760  145.0420 O   0  0  0  0  0  0  0  0  0  0  0  0
  162.9830  213.8870  142.9910 C   0  0  0  0  0  1  0  0  0  0  0  0
  161.3260  211.8280  142.6650 O   0  0  0  0  0  1  0  0  0  0  0  0
  161.3620  213.2590  143.6520 P   0  0  1  0  0  0  0  0  0  0  0  0
  159.7430  211.9070  154.0030 C   0  0  0  0  0  0  0  0  0  0  0  0
  158.3610  212.2730  153.5390 C   0  0  2  0  0  3  0  0  0  0  0  0
  157.6590  212.5640  151.0930 O   0  0  0  0  0  1  0  0  0  0  0  0
  160.5820  211.7430  153.0310 N   0  0  0  0  0  0  0  0  0  0  0  0
  158.6150  212.3100  152.0680 C   0  0  0  0  0  0  0  0  0  0  0  0
  159.8800  212.0130  151.8260 C   0  0  0  0  0  0  0  0  0  0  0  0
  157.9010  213.6370  154.0700 C   0  0  0  0  0  0  0  0  0  0  0  0
  156.9250  213.4450  155.0290 F   0  0  0  0  0  0  0  0  0  0  0  0
  158.9710  214.2920  154.6550 F   0  0  0  0  0  0  0  0  0  0  0  0
  157.3880  214.4250  153.0490 F   0  0  0  0  0  0  0  0  0  0  0  0
  160.1130  211.6540  155.4270 C   0  0  0  0  0  2  0  0  0  0  0  0
  161.4210  210.8770  155.4940 C   0  0  0  0  0  2  0  0  0  0  0  0
  162.5720  209.4140  156.8880 C   0  0  0  0  0  1  0  0  0  0  0  0
  161.2600  209.7190  156.3550 N   0  0  0  0  0  0  0  0  0  0  0  0
  160.8900  208.6070  155.4980 C   0  0  0  0  0  1  0  0  0  0  0  0
  161.4470  208.1720  151.4010 C   0  0  0  0  0  0  0  0  0  0  0  0
  162.0110  210.3090  149.4660 O   0  0  0  0  0  0  0  0  0  0  0  0
  160.8640  209.4810  151.3480 N   0  0  0  0  0  2  0  0  0  0  0  0
  161.0460  207.3600  152.2760 O   0  0  0  0  0  0  0  0  0  0  0  0
  161.1720  210.5080  150.3890 C   0  0  0  0  0  0  0  0  0  0  0  0
  162.5290  207.7520  150.4650 C   0  0  0  0  0  2  0  0  0  0  0  0
  162.1300  206.4830  149.7330 C   0  0  0  0  0  2  0  0  0  0  0  0
  161.1430  206.8090  148.6250 C   0  0  0  0  0  2  0  0  0  0  0  0
  162.0860  205.5890  145.1550 C   0  0  0  0  0  3  0  0  0  0  0  0
  161.5360  204.3730  145.1900 C   0  0  0  0  0  3  0  0  0  0  0  0
  162.2410  206.4160  146.4010 C   0  0  0  0  0  2  0  0  0  0  0  0
  160.9840  203.8060  146.4360 C   0  0  0  0  0  0  0  0  0  0  0  0
  161.3570  205.9460  147.4740 N   0  0  0  0  0  0  0  0  0  0  0  0
  160.9030  204.5850  147.5200 C   0  0  0  0  0  3  0  0  0  0  0  0
  160.2550  201.7760  145.4660 O   0  0  0  0  0  0  0  0  0  0  0  0
  160.4710  201.6590  147.7700 N   0  0  0  0  0  2  0  0  0  0  0  0
  160.5660  202.3850  146.5310 C   0  0  0  0  0  0  0  0  0  0  0  0
  160.9570  202.0220  149.0990 C   0  0  0  0  0  3  0  0  0  0  0  0
  161.3660  200.8030  149.9020 C   0  0  0  0  0  1  0  0  0  0  0  0
  159.9750  202.9050  149.8540 C   0  0  0  0  0  1  0  0  0  0  0  0
  1 33  1  1  0  0  0
  1 19  1  0  0  0  0
  2 10  1  6  0  0  0
  2  3  1  0  0  0  0
  2  7  1  0  0  0  0
  3  8  1  0  0  0  0
  5  9  1  0  0  0  0
  6  4  1  0  0  0  0
  6  1  1  0  0  0  0
  7  5  1  0  0  0  0
  9  8  1  6  0  0  0
  9  6  1  0  0  0  0
  9  4  1  0  0  0  0
 12 13  1  0  0  0  0
 13 11  1  6  0  0  0
 13 10  1  0  0  0  0
 14 24  1  0  0  0  0
 15 14  1  0  0  0  0
 15 20  1  1  0  0  0
 16 18  1  0  0  0  0
 17 14  2  0  0  0  0
 18 15  1  0  0  0  0
 19 18  2  0  0  0  0
 19 17  1  0  0  0  0
 20 22  1  0  0  0  0
 20 21  1  0  0  0  0
 23 20  1  0  0  0  0
 24 25  1  0  0  0  0
 25 27  1  0  0  0  0
 27 26  1  0  0  0  0
 28 27  1  0  0  0  0
 29 32  2  0  0  0  0
 30 33  2  0  0  0  0
 31 29  1  0  0  0  0
 33 31  1  0  0  0  0
 34 29  1  0  0  0  0
 35 34  1  0  0  0  0
 36 35  1  0  0  0  0
 37 38  2  0  0  0  0
 37 39  1  0  0  0  0
 38 40  1  0  0  0  0
 39 41  1  0  0  0  0
 40 45  1  0  0  0  0
 40 42  2  0  0  0  0
 41 42  1  0  0  0  0
 41 36  1  0  0  0  0
 43 45  2  0  0  0  0
 44 46  1  0  0  0  0
 45 44  1  0  0  0  0
 46 48  1  0  0  0  0
 46 47  1  0  0  0  0
M  END
>  <MODEL>
5

>  <REMARK>
 VINA RESULT:      -4.7      1.236      2.443
  Name = 
  15 active torsions:
  status: ('A' for Active; 'I' for Inactive)
    1  A    between atoms: C_1  and  O_36
    2  A    between atoms: C_2  and  N_22
    3  A    between atoms: C_2  and  C_39
    4  A    between atoms: C_2  and  C_42
    5  A    between atoms: C_4  and  C_5
    6  A    between atoms: C_5  and  C_33
    7  A    between atoms: C_9  and  C_13
    8  A    between atoms: C_10  and  C_14
    9  A    between atoms: C_14  and  C_26
   10  A    between atoms: C_17  and  C_26
   11  A    between atoms: C_17  and  N_29
   12  A    between atoms: C_19  and  N_35
   13  A    between atoms: N_25  and  C_33
   14  A    between atoms: C_28  and  C_44
   15  A    between atoms: O_36  and  P_43
                            x       y       z     vdW  Elec       q    Type
                         _______ _______ _______ _____ _____    ______ ____

>  <TORSDO>
F 15

$$$$
=
 OpenBabel11042420483D

 48 51  0  0  1  0  0  0  0  0999 V2000
  160.9690  211.4190  149.7870 C   0  0  2  0  0  3  0  0  0  0  0  0
  161.3300  213.3060  145.5370 C   0  0  1  0  0  3  0  0  0  0  0  0
  160.3890  212.3860  146.3180 C   0  0  0  0  0  2  0  0  0  0  0  0
  161.1050  213.7890  149.8150 C   0  0  0  0  0  2  0  0  0  0  0  0
  162.3350  214.2210  147.6540 C   0  0  0  0  0  2  0  0  0  0  0  0
  161.8390  212.5510  149.4600 N   0  0  0  0  0  0  0  0  0  0  0  0
  162.6250  213.5270  146.3250 C   0  0  0  0  0  2  0  0  0  0  0  0
  160.0070  213.0020  147.6620 C   0  0  0  0  0  2  0  0  0  0  0  0
  161.2740  213.4390  148.4160 C   0  0  1  0  0  0  0  0  0  0  0  0
  161.6250  212.7240  144.3040 O   0  0  0  0  0  0  0  0  0  0  0  0
  159.8810  213.9410  142.7060 C   0  0  0  0  0  1  0  0  0  0  0  0
  160.7240  211.4550  142.2620 O   0  0  0  0  0  1  0  0  0  0  0  0
  160.0790  212.3320  143.6170 P   0  0  1  0  0  0  0  0  0  0  0  0
  160.0320  211.7450  153.2710 C   0  0  0  0  0  0  0  0  0  0  0  0
  161.2150  210.8460  153.4970 C   0  0  2  0  0  3  0  0  0  0  0  0
  162.7100  209.8890  151.6500 O   0  0  0  0  0  1  0  0  0  0  0  0
  159.8210  212.0070  152.0210 N   0  0  0  0  0  0  0  0  0  0  0  0
  161.6150  210.6310  152.0740 C   0  0  0  0  0  0  0  0  0  0  0  0
  160.7990  211.2970  151.2760 C   0  0  0  0  0  0  0  0  0  0  0  0
  160.8350  209.5280  154.1840 C   0  0  0  0  0  0  0  0  0  0  0  0
  160.5780  208.5720  153.2200 F   0  0  0  0  0  0  0  0  0  0  0  0
  161.8900  209.0920  154.9670 F   0  0  0  0  0  0  0  0  0  0  0  0
  159.7100  209.6850  154.9820 F   0  0  0  0  0  0  0  0  0  0  0  0
  159.2250  212.3650  154.3640 C   0  0  0  0  0  2  0  0  0  0  0  0
  158.7030  213.7230  153.9170 C   0  0  0  0  0  2  0  0  0  0  0  0
  156.8730  212.5210  154.7020 C   0  0  0  0  0  1  0  0  0  0  0  0
  157.2680  213.7900  154.1260 N   0  0  0  0  0  0  0  0  0  0  0  0
  156.6550  213.8590  152.8110 C   0  0  0  0  0  1  0  0  0  0  0  0
  161.3290  207.6030  149.0550 C   0  0  0  0  0  0  0  0  0  0  0  0
  162.5910  210.2040  148.5370 O   0  0  0  0  0  0  0  0  0  0  0  0
  160.8970  208.8920  149.5120 N   0  0  0  0  0  2  0  0  0  0  0  0
  160.6320  206.5920  149.3310 O   0  0  0  0  0  0  0  0  0  0  0  0
  161.5480  210.1470  149.2460 C   0  0  0  0  0  0  0  0  0  0  0  0
  162.5900  207.4230  148.2790 C   0  0  0  0  0  2  0  0  0  0  0  0
  162.7660  205.9660  147.8900 C   0  0  0  0  0  2  0  0  0  0  0  0
  162.1270  205.7070  146.5350 C   0  0  0  0  0  2  0  0  0  0  0  0
  160.4520  202.5490  145.2570 C   0  0  0  0  0  3  0  0  0  0  0  0
  160.3960  201.8510  146.3940 C   0  0  0  0  0  3  0  0  0  0  0  0
  161.2830  203.7960  145.1420 C   0  0  0  0  0  2  0  0  0  0  0  0
  161.0850  202.3050  147.6180 C   0  0  0  0  0  0  0  0  0  0  0  0
  161.6110  204.3490  146.4620 N   0  0  0  0  0  0  0  0  0  0  0  0
  161.6570  203.5140  147.6270 C   0  0  0  0  0  3  0  0  0  0  0  0
  161.5800  200.2390  148.6580 O   0  0  0  0  0  0  0  0  0  0  0  0
  160.8920  201.8700  150.1530 N   0  0  0  0  0  2  0  0  0  0  0  0
  161.2030  201.4370  148.8160 C   0  0  0  0  0  0  0  0  0  0  0  0
  160.6470  203.2190  150.6580 C   0  0  0  0  0  3  0  0  0  0  0  0
  161.9380  203.9870  150.8650 C   0  0  0  0  0  1  0  0  0  0  0  0
  159.7710  203.2210  151.9010 C   0  0  0  0  0  1  0  0  0  0  0  0
  1 33  1  1  0  0  0
  1 19  1  0  0  0  0
  2 10  1  6  0  0  0
  2  3  1  0  0  0  0
  2  7  1  0  0  0  0
  3  8  1  0  0  0  0
  6  1  1  0  0  0  0
  6  4  1  0  0  0  0
  7  5  1  0  0  0  0
  8  9  1  0  0  0  0
  9  5  1  6  0  0  0
  9  6  1  0  0  0  0
  9  4  1  0  0  0  0
 12 13  1  0  0  0  0
 13 11  1  6  0  0  0
 13 10  1  0  0  0  0
 14 15  1  0  0  0  0
 14 24  1  0  0  0  0
 15 20  1  6  0  0  0
 16 18  1  0  0  0  0
 17 14  2  0  0  0  0
 18 15  1  0  0  0  0
 19 17  1  0  0  0  0
 19 18  2  0  0  0  0
 20 22  1  0  0  0  0
 20 23  1  0  0  0  0
 21 20  1  0  0  0  0
 25 27  1  0  0  0  0
 25 24  1  0  0  0  0
 27 26  1  0  0  0  0
 28 27  1  0  0  0  0
 29 32  2  0  0  0  0
 29 31  1  0  0  0  0
 30 33  2  0  0  0  0
 33 31  1  0  0  0  0
 34 29  1  0  0  0  0
 35 34  1  0  0  0  0
 36 35  1  0  0  0  0
 37 38  2  0  0  0  0
 38 40  1  0  0  0  0
 39 37  1  0  0  0  0
 39 41  1  0  0  0  0
 40 42  2  0  0  0  0
 40 45  1  0  0  0  0
 41 36  1  0  0  0  0
 41 42  1  0  0  0  0
 43 45  2  0  0  0  0
 44 46  1  0  0  0  0
 45 44  1  0  0  0  0
 46 47  1  0  0  0  0
 46 48  1  0  0  0  0
M  END
>  <MODEL>
6

>  <REMARK>
 VINA RESULT:      -4.6      2.389      3.936
  Name = 
  15 active torsions:
  status: ('A' for Active; 'I' for Inactive)
    1  A    between atoms: C_1  and  O_36
    2  A    between atoms: C_2  and  N_22
    3  A    between atoms: C_2  and  C_39
    4  A    between atoms: C_2  and  C_42
    5  A    between atoms: C_4  and  C_5
    6  A    between atoms: C_5  and  C_33
    7  A    between atoms: C_9  and  C_13
    8  A    between atoms: C_10  and  C_14
    9  A    between atoms: C_14  and  C_26
   10  A    between atoms: C_17  and  C_26
   11  A    between atoms: C_17  and  N_29
   12  A    between atoms: C_19  and  N_35
   13  A    between atoms: N_25  and  C_33
   14  A    between atoms: C_28  and  C_44
   15  A    between atoms: O_36  and  P_43
                            x       y       z     vdW  Elec       q    Type
                         _______ _______ _______ _____ _____    ______ ____

>  <TORSDO>
F 15

$$$$
=
 OpenBabel11042420483D

 48 51  0  0  1  0  0  0  0  0999 V2000
  160.8390  211.3290  150.0690 C   0  0  2  0  0  3  0  0  0  0  0  0
  161.1060  213.4330  145.9140 C   0  0  1  0  0  3  0  0  0  0  0  0
  160.2320  212.4040  146.6360 C   0  0  0  0  0  2  0  0  0  0  0  0
  160.7790  213.6990  150.2040 C   0  0  0  0  0  2  0  0  0  0  0  0
  162.0010  214.3280  148.0880 C   0  0  0  0  0  2  0  0  0  0  0  0
  161.6180  212.5420  149.8090 N   0  0  0  0  0  0  0  0  0  0  0  0
  162.3670  213.7230  146.7350 C   0  0  0  0  0  2  0  0  0  0  0  0
  159.7820  212.9250  147.9990 C   0  0  0  0  0  2  0  0  0  0  0  0
  160.9970  213.4290  148.7950 C   0  0  1  0  0  0  0  0  0  0  0  0
  161.4660  212.9340  144.6620 O   0  0  0  0  0  0  0  0  0  0  0  0
  160.7730  214.1060  142.3760 C   0  0  0  0  0  1  0  0  0  0  0  0
  160.2600  211.5410  142.8740 O   0  0  0  0  0  1  0  0  0  0  0  0
  160.0190  213.0470  143.7070 P   0  0  1  0  0  0  0  0  0  0  0  0
  161.0570  210.3710  153.5550 C   0  0  0  0  0  0  0  0  0  0  0  0
  159.6790  210.9680  153.6290 C   0  0  2  0  0  3  0  0  0  0  0  0
  158.4370  212.0490  151.6670 O   0  0  0  0  0  1  0  0  0  0  0  0
  161.5850  210.4490  152.3760 N   0  0  0  0  0  0  0  0  0  0  0  0
  159.5550  211.4340  152.2160 C   0  0  0  0  0  0  0  0  0  0  0  0
  160.6540  211.1290  151.5470 C   0  0  0  0  0  0  0  0  0  0  0  0
  159.5930  212.1350  154.6210 C   0  0  0  0  0  0  0  0  0  0  0  0
  159.3430  213.3030  153.9260 F   0  0  0  0  0  0  0  0  0  0  0  0
  158.5490  211.9160  155.5040 F   0  0  0  0  0  0  0  0  0  0  0  0
  160.7740  212.2730  155.3370 F   0  0  0  0  0  0  0  0  0  0  0  0
  161.7310  209.6660  154.6860 C   0  0  0  0  0  2  0  0  0  0  0  0
  160.6880  209.1190  155.6510 C   0  0  0  0  0  2  0  0  0  0  0  0
  159.9740  207.0260  154.9310 C   0  0  0  0  0  1  0  0  0  0  0  0
  160.8890  207.6930  155.8340 N   0  0  0  0  0  0  0  0  0  0  0  0
  160.4490  207.3760  157.1810 C   0  0  0  0  0  1  0  0  0  0  0  0
  161.7700  207.5850  149.4860 C   0  0  0  0  0  0  0  0  0  0  0  0
  162.3840  210.3080  148.5710 O   0  0  0  0  0  0  0  0  0  0  0  0
  161.1990  208.8140  149.9530 N   0  0  0  0  0  2  0  0  0  0  0  0
  161.3490  206.4970  149.9580 O   0  0  0  0  0  0  0  0  0  0  0  0
  161.5320  210.1340  149.4880 C   0  0  0  0  0  0  0  0  0  0  0  0
  162.8640  207.5580  148.4710 C   0  0  0  0  0  2  0  0  0  0  0  0
  162.9140  206.2040  147.7860 C   0  0  0  0  0  2  0  0  0  0  0  0
  161.6550  205.9900  146.9620 C   0  0  0  0  0  2  0  0  0  0  0  0
  160.8390  202.7080  145.2370 C   0  0  0  0  0  3  0  0  0  0  0  0
  160.7560  201.9100  146.3050 C   0  0  0  0  0  3  0  0  0  0  0  0
  161.4160  204.0920  145.3350 C   0  0  0  0  0  2  0  0  0  0  0  0
  161.1570  202.3690  147.6500 C   0  0  0  0  0  0  0  0  0  0  0  0
  161.4330  204.5730  146.7220 N   0  0  0  0  0  0  0  0  0  0  0  0
  161.4710  203.6570  147.8250 C   0  0  0  0  0  3  0  0  0  0  0  0
  161.4590  200.2040  148.5520 O   0  0  0  0  0  0  0  0  0  0  0  0
  161.1460  201.8320  150.1720 N   0  0  0  0  0  2  0  0  0  0  0  0
  161.2670  201.4310  148.7940 C   0  0  0  0  0  0  0  0  0  0  0  0
  161.1380  203.1720  150.7520 C   0  0  0  0  0  3  0  0  0  0  0  0
  161.2910  203.1350  152.2600 C   0  0  0  0  0  1  0  0  0  0  0  0
  159.9280  203.9840  150.3160 C   0  0  0  0  0  1  0  0  0  0  0  0
  1 33  1  1  0  0  0
  1 19  1  0  0  0  0
  2 10  1  6  0  0  0
  2  3  1  0  0  0  0
  2  7  1  0  0  0  0
  3  8  1  0  0  0  0
  5  9  1  0  0  0  0
  6  1  1  0  0  0  0
  6  4  1  0  0  0  0
  7  5  1  0  0  0  0
  9  8  1  6  0  0  0
  9  6  1  0  0  0  0
  9  4  1  0  0  0  0
 12 13  1  0  0  0  0
 13 11  1  6  0  0  0
 13 10  1  0  0  0  0
 14 15  1  0  0  0  0
 14 24  1  0  0  0  0
 15 20  1  1  0  0  0
 16 18  1  0  0  0  0
 17 14  2  0  0  0  0
 18 15  1  0  0  0  0
 19 18  2  0  0  0  0
 19 17  1  0  0  0  0
 20 23  1  0  0  0  0
 20 22  1  0  0  0  0
 21 20  1  0  0  0  0
 24 25  1  0  0  0  0
 25 27  1  0  0  0  0
 26 27  1  0  0  0  0
 27 28  1  0  0  0  0
 29 31  1  0  0  0  0
 29 32  2  0  0  0  0
 30 33  2  0  0  0  0
 33 31  1  0  0  0  0
 34 29  1  0  0  0  0
 35 34  1  0  0  0  0
 36 35  1  0  0  0  0
 37 39  1  0  0  0  0
 37 38  2  0  0  0  0
 38 40  1  0  0  0  0
 39 41  1  0  0  0  0
 40 42  2  0  0  0  0
 40 45  1  0  0  0  0
 41 36  1  0  0  0  0
 41 42  1  0  0  0  0
 43 45  2  0  0  0  0
 44 46  1  0  0  0  0
 45 44  1  0  0  0  0
 46 47  1  0  0  0  0
 48 46  1  0  0  0  0
M  END
>  <MODEL>
7

>  <REMARK>
 VINA RESULT:      -4.6      1.696      2.978
  Name = 
  15 active torsions:
  status: ('A' for Active; 'I' for Inactive)
    1  A    between atoms: C_1  and  O_36
    2  A    between atoms: C_2  and  N_22
    3  A    between atoms: C_2  and  C_39
    4  A    between atoms: C_2  and  C_42
    5  A    between atoms: C_4  and  C_5
    6  A    between atoms: C_5  and  C_33
    7  A    between atoms: C_9  and  C_13
    8  A    between atoms: C_10  and  C_14
    9  A    between atoms: C_14  and  C_26
   10  A    between atoms: C_17  and  C_26
   11  A    between atoms: C_17  and  N_29
   12  A    between atoms: C_19  and  N_35
   13  A    between atoms: N_25  and  C_33
   14  A    between atoms: C_28  and  C_44
   15  A    between atoms: O_36  and  P_43
                            x       y       z     vdW  Elec       q    Type
                         _______ _______ _______ _____ _____    ______ ____

>  <TORSDO>
F 15

$$$$
=
 OpenBabel11042420483D

 48 51  0  0  1  0  0  0  0  0999 V2000
  161.4110  209.9200  149.5050 C   0  0  2  0  0  3  0  0  0  0  0  0
  161.3500  213.1160  146.1070 C   0  0  1  0  0  3  0  0  0  0  0  0
  160.4430  212.0280  146.6890 C   0  0  0  0  0  2  0  0  0  0  0  0
  161.7790  212.1340  150.2830 C   0  0  0  0  0  2  0  0  0  0  0  0
  162.7270  213.2160  148.2100 C   0  0  0  0  0  2  0  0  0  0  0  0
  162.3330  211.0570  149.4270 N   0  0  0  0  0  0  0  0  0  0  0  0
  162.7580  213.0000  146.6990 C   0  0  0  0  0  2  0  0  0  0  0  0
  160.3170  212.1700  148.2050 C   0  0  0  0  0  2  0  0  0  0  0  0
  161.7140  212.2700  148.8390 C   0  0  1  0  0  0  0  0  0  0  0  0
  161.4090  212.9730  144.7210 O   0  0  0  0  0  0  0  0  0  0  0  0
  159.1950  214.0430  143.7060 C   0  0  0  0  0  1  0  0  0  0  0  0
  160.3180  211.8560  142.6840 O   0  0  0  0  0  1  0  0  0  0  0  0
  159.8380  212.3900  144.2670 P   0  0  1  0  0  0  0  0  0  0  0  0
  160.9600  209.2460  153.0350 C   0  0  0  0  0  0  0  0  0  0  0  0
  161.9590  208.1520  152.7800 C   0  0  2  0  0  3  0  0  0  0  0  0
  163.0140  207.6240  150.5060 O   0  0  0  0  0  1  0  0  0  0  0  0
  160.6650  209.9270  151.9740 N   0  0  0  0  0  0  0  0  0  0  0  0
  162.1440  208.3480  151.3110 C   0  0  0  0  0  0  0  0  0  0  0  0
  161.3910  209.3530  150.8960 C   0  0  0  0  0  0  0  0  0  0  0  0
  161.4050  206.7580  153.1000 C   0  0  0  0  0  0  0  0  0  0  0  0
  160.8020  206.7850  154.3430 F   0  0  0  0  0  0  0  0  0  0  0  0
  160.4540  206.4100  152.1570 F   0  0  0  0  0  0  0  0  0  0  0  0
  162.4140  205.8060  153.1030 F   0  0  0  0  0  0  0  0  0  0  0  0
  160.4230  209.5970  154.3830 C   0  0  0  0  0  2  0  0  0  0  0  0
  160.4550  211.1070  154.5780 C   0  0  0  0  0  2  0  0  0  0  0  0
  161.4900  211.2640  156.6550 C   0  0  0  0  0  1  0  0  0  0  0  0
  160.2210  211.4260  155.9750 N   0  0  0  0  0  0  0  0  0  0  0  0
  159.3340  210.4020  156.4970 C   0  0  0  0  0  1  0  0  0  0  0  0
  161.2110  206.6460  147.3910 C   0  0  0  0  0  0  0  0  0  0  0  0
  162.9240  208.9710  147.9300 O   0  0  0  0  0  0  0  0  0  0  0  0
  160.9540  207.7330  148.2910 N   0  0  0  0  0  2  0  0  0  0  0  0
  160.3350  205.7540  147.2460 O   0  0  0  0  0  0  0  0  0  0  0  0
  161.8230  208.8530  148.5380 C   0  0  0  0  0  0  0  0  0  0  0  0
  162.4930  206.5320  146.6380 C   0  0  0  0  0  2  0  0  0  0  0  0
  162.8370  205.0720  146.4000 C   0  0  0  0  0  2  0  0  0  0  0  0
  162.0060  204.5220  145.2530 C   0  0  0  0  0  2  0  0  0  0  0  0
  159.4920  201.6780  145.3430 C   0  0  0  0  0  3  0  0  0  0  0  0
  159.7140  201.2240  146.5790 C   0  0  0  0  0  3  0  0  0  0  0  0
  160.4280  202.6520  144.6850 C   0  0  0  0  0  2  0  0  0  0  0  0
  160.8480  201.7080  147.3920 C   0  0  0  0  0  0  0  0  0  0  0  0
  161.2770  203.3340  145.6700 N   0  0  0  0  0  0  0  0  0  0  0  0
  161.5800  202.7290  146.9350 C   0  0  0  0  0  3  0  0  0  0  0  0
  161.7750  199.9210  148.6340 O   0  0  0  0  0  0  0  0  0  0  0  0
  160.9780  201.6420  149.9670 N   0  0  0  0  0  2  0  0  0  0  0  0
  161.2240  201.0600  148.6730 C   0  0  0  0  0  0  0  0  0  0  0  0
  160.5660  203.0000  150.3110 C   0  0  0  0  0  3  0  0  0  0  0  0
  161.5800  204.0310  149.8530 C   0  0  0  0  0  1  0  0  0  0  0  0
  160.2240  203.1470  151.7850 C   0  0  0  0  0  1  0  0  0  0  0  0
  1 33  1  6  0  0  0
  1 19  1  0  0  0  0
  2 10  1  6  0  0  0
  2  3  1  0  0  0  0
  2  7  1  0  0  0  0
  3  8  1  0  0  0  0
  5  9  1  0  0  0  0
  6  1  1  0  0  0  0
  6  4  1  0  0  0  0
  7  5  1  0  0  0  0
  9  8  1  6  0  0  0
  9  6  1  0  0  0  0
  9  4  1  0  0  0  0
 12 13  1  0  0  0  0
 13 11  1  6  0  0  0
 13 10  1  0  0  0  0
 14 24  1  0  0  0  0
 15 14  1  0  0  0  0
 15 20  1  6  0  0  0
 16 18  1  0  0  0  0
 17 14  2  0  0  0  0
 18 15  1  0  0  0  0
 19 18  2  0  0  0  0
 19 17  1  0  0  0  0
 20 23  1  0  0  0  0
 20 21  1  0  0  0  0
 22 20  1  0  0  0  0
 24 25  1  0  0  0  0
 25 27  1  0  0  0  0
 27 28  1  0  0  0  0
 27 26  1  0  0  0  0
 29 31  1  0  0  0  0
 30 33  2  0  0  0  0
 31 33  1  0  0  0  0
 32 29  2  0  0  0  0
 34 29  1  0  0  0  0
 35 34  1  0  0  0  0
 36 41  1  0  0  0  0
 36 35  1  0  0  0  0
 37 38  2  0  0  0  0
 38 40  1  0  0  0  0
 39 37  1  0  0  0  0
 39 41  1  0  0  0  0
 40 45  1  0  0  0  0
 41 42  1  0  0  0  0
 42 40  2  0  0  0  0
 43 45  2  0  0  0  0
 44 46  1  0  0  0  0
 45 44  1  0  0  0  0
 46 48  1  0  0  0  0
 47 46  1  0  0  0  0
M  END
>  <MODEL>
8

>  <REMARK>
 VINA RESULT:      -4.4      2.974      4.579
  Name = 
  15 active torsions:
  status: ('A' for Active; 'I' for Inactive)
    1  A    between atoms: C_1  and  O_36
    2  A    between atoms: C_2  and  N_22
    3  A    between atoms: C_2  and  C_39
    4  A    between atoms: C_2  and  C_42
    5  A    between atoms: C_4  and  C_5
    6  A    between atoms: C_5  and  C_33
    7  A    between atoms: C_9  and  C_13
    8  A    between atoms: C_10  and  C_14
    9  A    between atoms: C_14  and  C_26
   10  A    between atoms: C_17  and  C_26
   11  A    between atoms: C_17  and  N_29
   12  A    between atoms: C_19  and  N_35
   13  A    between atoms: N_25  and  C_33
   14  A    between atoms: C_28  and  C_44
   15  A    between atoms: O_36  and  P_43
                            x       y       z     vdW  Elec       q    Type
                         _______ _______ _______ _____ _____    ______ ____

>  <TORSDO>
F 15

$$$$
=
 OpenBabel11042420483D

 48 51  0  0  1  0  0  0  0  0999 V2000
  160.6860  211.4850  152.0570 C   0  0  2  0  0  3  0  0  0  0  0  0
  159.7360  210.6550  156.5480 C   0  0  1  0  0  3  0  0  0  0  0  0
  160.9310  210.6160  155.5920 C   0  0  0  0  0  2  0  0  0  0  0  0
  159.7290  213.3460  153.1800 C   0  0  0  0  0  2  0  0  0  0  0  0
  158.4510  212.1860  155.0210 C   0  0  0  0  0  2  0  0  0  0  0  0
  159.4780  211.9510  152.7430 N   0  0  0  0  0  0  0  0  0  0  0  0
  158.4360  210.8510  155.7610 C   0  0  0  0  0  2  0  0  0  0  0  0
  161.0570  211.9260  154.8170 C   0  0  0  0  0  2  0  0  0  0  0  0
  159.7090  212.2840  154.1700 C   0  0  1  0  0  0  0  0  0  0  0  0
  159.6770  209.4570  157.2610 O   0  0  0  0  0  0  0  0  0  0  0  0
  161.9600  208.0910  157.2600 C   0  0  0  0  0  1  0  0  0  0  0  0
  159.5970  206.9160  156.9000 O   0  0  0  0  0  1  0  0  0  0  0  0
  160.4280  208.2850  156.2230 P   0  0  1  0  0  0  0  0  0  0  0  0
  160.2110  213.3070  148.9640 C   0  0  0  0  0  0  0  0  0  0  0  0
  161.2060  212.3170  148.4260 C   0  0  2  0  0  3  0  0  0  0  0  0
  162.3260  210.4650  149.7960 O   0  0  0  0  0  1  0  0  0  0  0  0
  159.9550  213.1430  150.2220 N   0  0  0  0  0  0  0  0  0  0  0  0
  161.4830  211.5630  149.6850 C   0  0  0  0  0  0  0  0  0  0  0  0
  160.7630  212.0660  150.6730 C   0  0  0  0  0  0  0  0  0  0  0  0
  162.4720  212.9880  147.8770 C   0  0  0  0  0  0  0  0  0  0  0  0
  163.5730  212.2240  148.2150 F   0  0  0  0  0  0  0  0  0  0  0  0
  162.3950  213.0630  146.4970 F   0  0  0  0  0  0  0  0  0  0  0  0
  162.6270  214.2660  148.3950 F   0  0  0  0  0  0  0  0  0  0  0  0
  159.5020  214.3240  148.1310 C   0  0  0  0  0  2  0  0  0  0  0  0
  158.1710  213.7630  147.6500 C   0  0  0  0  0  2  0  0  0  0  0  0
  156.7550  213.7910  145.8050 C   0  0  0  0  0  1  0  0  0  0  0  0
  158.1480  213.7300  146.1980 N   0  0  0  0  0  0  0  0  0  0  0  0
  158.6370  212.4220  145.8000 C   0  0  0  0  0  1  0  0  0  0  0  0
  162.0770  207.8590  151.6780 C   0  0  0  0  0  0  0  0  0  0  0  0
  159.5930  209.3690  152.1010 O   0  0  0  0  0  0  0  0  0  0  0  0
  161.9230  209.2820  151.7720 N   0  0  0  0  0  2  0  0  0  0  0  0
  163.2320  207.3770  151.5450 O   0  0  0  0  0  0  0  0  0  0  0  0
  160.6860  209.9890  151.9700 C   0  0  0  0  0  0  0  0  0  0  0  0
  160.9070  206.9350  151.7110 C   0  0  0  0  0  2  0  0  0  0  0  0
  161.3340  205.5280  151.3320 C   0  0  0  0  0  2  0  0  0  0  0  0
  161.3770  205.3870  149.8200 C   0  0  0  0  0  2  0  0  0  0  0  0
  160.8530  201.6290  149.9770 C   0  0  0  0  0  3  0  0  0  0  0  0
  160.9510  201.3370  148.6780 C   0  0  0  0  0  3  0  0  0  0  0  0
  160.7150  203.0480  150.4530 C   0  0  0  0  0  2  0  0  0  0  0  0
  161.0040  202.3910  147.6460 C   0  0  0  0  0  0  0  0  0  0  0  0
  161.1420  204.0060  149.4260 N   0  0  0  0  0  0  0  0  0  0  0  0
  161.1020  203.6680  148.0320 C   0  0  0  0  0  3  0  0  0  0  0  0
  160.5190  200.9170  145.8610 O   0  0  0  0  0  0  0  0  0  0  0  0
  161.2290  203.0060  145.1520 N   0  0  0  0  0  2  0  0  0  0  0  0
  160.9000  202.0760  146.2000 C   0  0  0  0  0  0  0  0  0  0  0  0
  161.4820  204.4420  145.2310 C   0  0  0  0  0  3  0  0  0  0  0  0
  161.1390  205.1480  143.9330 C   0  0  0  0  0  1  0  0  0  0  0  0
  162.8940  204.7570  145.7000 C   0  0  0  0  0  1  0  0  0  0  0  0
  1 33  1  6  0  0  0
  1  6  1  0  0  0  0
  2 10  1  6  0  0  0
  3  2  1  0  0  0  0
  5  7  1  0  0  0  0
  6  4  1  0  0  0  0
  6  9  1  0  0  0  0
  7  2  1  0  0  0  0
  8  3  1  0  0  0  0
  9  4  1  6  0  0  0
  9  8  1  0  0  0  0
  9  5  1  0  0  0  0
 13 12  1  0  0  0  0
 13 11  1  1  0  0  0
 13 10  1  0  0  0  0
 14 17  2  0  0  0  0
 15 20  1  1  0  0  0
 15 14  1  0  0  0  0
 15 18  1  0  0  0  0
 17 19  1  0  0  0  0
 18 16  1  0  0  0  0
 18 19  2  0  0  0  0
 19  1  1  0  0  0  0
 20 21  1  0  0  0  0
 20 23  1  0  0  0  0
 22 20  1  0  0  0  0
 24 14  1  0  0  0  0
 25 24  1  0  0  0  0
 26 27  1  0  0  0  0
 27 25  1  0  0  0  0
 28 27  1  0  0  0  0
 29 34  1  0  0  0  0
 29 31  1  0  0  0  0
 31 33  1  0  0  0  0
 32 29  2  0  0  0  0
 33 30  2  0  0  0  0
 35 34  1  0  0  0  0
 36 35  1  0  0  0  0
 37 39  1  0  0  0  0
 38 37  2  0  0  0  0
 40 42  2  0  0  0  0
 40 38  1  0  0  0  0
 41 36  1  0  0  0  0
 41 39  1  0  0  0  0
 42 41  1  0  0  0  0
 43 45  2  0  0  0  0
 44 46  1  0  0  0  0
 44 45  1  0  0  0  0
 45 40  1  0  0  0  0
 46 48  1  0  0  0  0
 47 46  1  0  0  0  0
M  END
>  <MODEL>
9

>  <REMARK>
 VINA RESULT:      -4.4      3.440      6.822
  Name = 
  15 active torsions:
  status: ('A' for Active; 'I' for Inactive)
    1  A    between atoms: C_1  and  O_36
    2  A    between atoms: C_2  and  N_22
    3  A    between atoms: C_2  and  C_39
    4  A    between atoms: C_2  and  C_42
    5  A    between atoms: C_4  and  C_5
    6  A    between atoms: C_5  and  C_33
    7  A    between atoms: C_9  and  C_13
    8  A    between atoms: C_10  and  C_14
    9  A    between atoms: C_14  and  C_26
   10  A    between atoms: C_17  and  C_26
   11  A    between atoms: C_17  and  N_29
   12  A    between atoms: C_19  and  N_35
   13  A    between atoms: N_25  and  C_33
   14  A    between atoms: C_28  and  C_44
   15  A    between atoms: O_36  and  P_43
                            x       y       z     vdW  Elec       q    Type
                         _______ _______ _______ _____ _____    ______ ____

>  <TORSDO>
F 15

$$$$
