=
 OpenBabel11052411533D

 32 34  0  0  1  0  0  0  0  0999 V2000
  161.5350  206.1790  152.7340 C   0  0  2  0  0  3  0  0  0  0  0  0
  160.4210  206.1780  154.8320 O   0  0  0  0  0  0  0  0  0  0  0  0
  161.0670  206.8500  153.9840 C   0  0  0  0  0  0  0  0  0  0  0  0
  161.3580  208.2380  154.2070 N   0  0  0  0  0  2  0  0  0  0  0  0
  159.9540  209.7540  155.4610 C   0  0  0  0  0  2  0  0  0  0  0  0
  161.0500  209.0080  155.3780 C   0  0  0  0  0  0  0  0  0  0  0  0
  161.8980  208.8450  156.5890 C   0  0  0  0  0  2  0  0  0  0  0  0
  162.7780  209.9210  156.6960 O   0  0  0  0  0  1  0  0  0  0  0  0
  161.0550  206.9240  151.4900 C   0  0  0  0  0  2  0  0  0  0  0  0
  162.1510  207.5110  150.7950 O   0  0  0  0  0  0  0  0  0  0  0  0
  162.0620  209.9400  151.0620 C   0  0  0  0  0  3  0  0  0  0  0  0
  162.0070  211.2120  150.4850 C   0  0  0  0  0  3  0  0  0  0  0  0
  162.0180  210.2110  148.2820 C   0  0  0  0  0  3  0  0  0  0  0  0
  162.0960  208.7960  150.2500 C   0  0  0  0  0  0  0  0  0  0  0  0
  161.9840  211.3560  149.0910 C   0  0  0  0  0  0  0  0  0  0  0  0
  162.0740  208.9400  148.8600 C   0  0  0  0  0  3  0  0  0  0  0  0
  161.9260  212.6630  148.4990 N   0  0  0  0  0  0  0  0  0  0  0  0
  160.9000  213.4970  148.7970 O   0  0  0  0  0  1  0  0  0  0  0  0
  162.8290  213.0350  147.5560 O   0  0  0  0  0  0  0  0  0  0  0  0
  162.0690  213.4960  146.4760 C   0  0  0  0  0  1  0  0  0  0  0  0
  161.1240  204.7100  152.7130 C   0  0  0  0  0  2  0  0  0  0  0  0
  161.7110  203.9850  151.5090 C   0  0  0  0  0  2  0  0  0  0  0  0
  160.5840  201.9480  150.6000 C   0  0  0  0  0  3  0  0  0  0  0  0
  160.9570  203.7880  149.1490 C   0  0  0  0  0  0  0  0  0  0  0  0
  161.0750  205.0310  148.5240 C   0  0  0  0  0  3  0  0  0  0  0  0
  161.5220  206.3110  146.4870 N   0  0  0  0  0  1  0  0  0  0  0  0
  161.5660  203.8610  146.4410 C   0  0  0  0  0  3  0  0  0  0  0  0
  160.6170  203.4920  150.5680 C   0  0  2  0  0  3  0  0  0  0  0  0
  161.3880  205.0620  147.1550 C   0  0  0  0  0  0  0  0  0  0  0  0
  160.9240  201.4850  149.2550 N   0  0  0  0  0  0  0  0  0  0  0  0
  161.1230  202.6260  148.4500 C   0  0  0  0  0  0  0  0  0  0  0  0
  161.4300  202.6240  147.0900 C   0  0  0  0  0  3  0  0  0  0  0  0
  1  9  1  6  0  0  0
  1  3  1  0  0  0  0
  3  4  1  0  0  0  0
  3  2  2  0  0  0  0
  4  6  1  0  0  0  0
  6  5  2  0  0  0  0
  6  7  1  0  0  0  0
  7  8  1  0  0  0  0
 10  9  1  0  0  0  0
 12 11  1  0  0  0  0
 13 16  2  0  0  0  0
 13 15  1  0  0  0  0
 14 10  1  0  0  0  0
 14 11  2  0  0  0  0
 15 12  2  0  0  0  0
 16 14  1  0  0  0  0
 17 18  1  0  0  0  0
 17 15  1  0  0  0  0
 19 17  1  0  0  0  0
 20 19  1  0  0  0  0
 21  1  1  0  0  0  0
 22 21  1  0  0  0  0
 24 28  1  0  0  0  0
 25 24  1  0  0  0  0
 26 29  1  0  0  0  0
 27 32  2  0  0  0  0
 27 29  1  0  0  0  0
 28 23  1  0  0  0  0
 28 22  1  1  0  0  0
 29 25  2  0  0  0  0
 30 23  2  0  0  0  0
 31 24  2  0  0  0  0
 31 30  1  0  0  0  0
 32 31  1  0  0  0  0
M  END
>  <MODEL>
1

>  <REMARK>
 VINA RESULT:      -7.8      0.000      0.000
  Name = 
  11 active torsions:
  status: ('A' for Active; 'I' for Inactive)
    1  A    between atoms: O_7  and  C_12
    2  A    between atoms: O_7  and  C_19
    3  A    between atoms: C_9  and  C_13
    4  A    between atoms: N_11  and  O_24
    5  A    between atoms: N_11  and  C_26
    6  A    between atoms: C_12  and  C_13
    7  A    between atoms: C_13  and  C_18
    8  A    between atoms: C_15  and  C_16
    9  A    between atoms: C_15  and  C_18
   10  A    between atoms: N_17  and  CA_31
   11  A    between atoms: C_25  and  CA_31
                            x       y       z     vdW  Elec       q    Type
                         _______ _______ _______ _____ _____    ______ ____

>  <TORSDO>
F 11

$$$$
=
 OpenBabel11052411533D

 32 34  0  0  1  0  0  0  0  0999 V2000
  161.3090  207.5670  149.3590 C   0  0  2  0  0  3  0  0  0  0  0  0
  163.1830  207.5320  147.9000 O   0  0  0  0  0  0  0  0  0  0  0  0
  162.0320  207.0840  148.1430 C   0  0  0  0  0  0  0  0  0  0  0  0
  161.4150  206.1190  147.2770 N   0  0  0  0  0  2  0  0  0  0  0  0
  163.1210  204.7950  146.1910 C   0  0  0  0  0  2  0  0  0  0  0  0
  161.9970  205.5000  146.1210 C   0  0  0  0  0  0  0  0  0  0  0  0
  161.2410  205.5170  144.8390 C   0  0  0  0  0  2  0  0  0  0  0  0
  160.0750  206.2650  144.9900 O   0  0  0  0  0  1  0  0  0  0  0  0
  162.2830  208.0960  150.4100 C   0  0  0  0  0  2  0  0  0  0  0  0
  161.8740  209.3750  150.8830 O   0  0  0  0  0  0  0  0  0  0  0  0
  161.1880  208.5190  153.0680 C   0  0  0  0  0  3  0  0  0  0  0  0
  160.5930  208.7400  154.3130 C   0  0  0  0  0  3  0  0  0  0  0  0
  160.1890  211.0470  153.7090 C   0  0  0  0  0  3  0  0  0  0  0  0
  161.2860  209.5630  152.1360 C   0  0  0  0  0  0  0  0  0  0  0  0
  160.0890  210.0060  154.6420 C   0  0  0  0  0  0  0  0  0  0  0  0
  160.7850  210.8260  152.4640 C   0  0  0  0  0  3  0  0  0  0  0  0
  159.4770  210.2320  155.9210 N   0  0  0  0  0  0  0  0  0  0  0  0
  158.2910  210.8830  156.0000 O   0  0  0  0  0  1  0  0  0  0  0  0
  160.1240  209.8970  157.0670 O   0  0  0  0  0  0  0  0  0  0  0  0
  161.0780  210.9010  157.2600 C   0  0  0  0  0  1  0  0  0  0  0  0
  160.3970  206.4810  149.9220 C   0  0  0  0  0  2  0  0  0  0  0  0
  161.2020  205.3340  150.5200 C   0  0  0  0  0  2  0  0  0  0  0  0
  160.6950  203.4840  152.1220 C   0  0  0  0  0  3  0  0  0  0  0  0
  160.6660  203.0180  149.7960 C   0  0  0  0  0  0  0  0  0  0  0  0
  160.4960  202.9980  148.4100 C   0  0  0  0  0  3  0  0  0  0  0  0
  160.7170  201.7880  146.2950 N   0  0  0  0  0  1  0  0  0  0  0  0
  161.3950  200.7310  148.4000 C   0  0  0  0  0  3  0  0  0  0  0  0
  160.3300  204.1050  150.7550 C   0  0  2  0  0  3  0  0  0  0  0  0
  160.8710  201.8400  147.7080 C   0  0  0  0  0  0  0  0  0  0  0  0
  161.2230  202.1460  151.8570 N   0  0  0  0  0  0  0  0  0  0  0  0
  161.1670  201.9360  150.4630 C   0  0  0  0  0  0  0  0  0  0  0  0
  161.5450  200.7720  149.7950 C   0  0  0  0  0  3  0  0  0  0  0  0
  1 21  1  1  0  0  0
  1  9  1  0  0  0  0
  2  3  2  0  0  0  0
  3  1  1  0  0  0  0
  4  3  1  0  0  0  0
  6  5  2  0  0  0  0
  6  4  1  0  0  0  0
  7  8  1  0  0  0  0
  7  6  1  0  0  0  0
  9 10  1  0  0  0  0
 10 14  1  0  0  0  0
 11 12  1  0  0  0  0
 12 15  2  0  0  0  0
 13 15  1  0  0  0  0
 14 16  1  0  0  0  0
 14 11  2  0  0  0  0
 15 17  1  0  0  0  0
 16 13  2  0  0  0  0
 17 18  1  0  0  0  0
 17 19  1  0  0  0  0
 19 20  1  0  0  0  0
 21 22  1  0  0  0  0
 24 31  1  0  0  0  0
 24 28  1  0  0  0  0
 25 24  2  0  0  0  0
 26 29  1  0  0  0  0
 27 32  1  0  0  0  0
 28 22  1  6  0  0  0
 28 23  1  0  0  0  0
 29 27  2  0  0  0  0
 29 25  1  0  0  0  0
 30 23  2  0  0  0  0
 31 30  1  0  0  0  0
 32 31  2  0  0  0  0
M  END
>  <MODEL>
2

>  <REMARK>
 VINA RESULT:      -7.7      2.807      6.307
  Name = 
  11 active torsions:
  status: ('A' for Active; 'I' for Inactive)
    1  A    between atoms: O_7  and  C_12
    2  A    between atoms: O_7  and  C_19
    3  A    between atoms: C_9  and  C_13
    4  A    between atoms: N_11  and  O_24
    5  A    between atoms: N_11  and  C_26
    6  A    between atoms: C_12  and  C_13
    7  A    between atoms: C_13  and  C_18
    8  A    between atoms: C_15  and  C_16
    9  A    between atoms: C_15  and  C_18
   10  A    between atoms: N_17  and  CA_31
   11  A    between atoms: C_25  and  CA_31
                            x       y       z     vdW  Elec       q    Type
                         _______ _______ _______ _____ _____    ______ ____

>  <TORSDO>
F 11

$$$$
=
 OpenBabel11052411533D

 32 34  0  0  1  0  0  0  0  0999 V2000
  161.6840  205.6070  152.0820 C   0  0  2  0  0  3  0  0  0  0  0  0
  160.2800  206.6870  150.4980 O   0  0  0  0  0  0  0  0  0  0  0  0
  161.3820  206.7000  151.1080 C   0  0  0  0  0  0  0  0  0  0  0  0
  162.3400  207.7460  150.8820 N   0  0  0  0  0  2  0  0  0  0  0  0
  162.1010  210.1280  150.5470 C   0  0  0  0  0  2  0  0  0  0  0  0
  162.1780  208.8990  150.0450 C   0  0  0  0  0  0  0  0  0  0  0  0
  162.2540  208.7330  148.5690 C   0  0  0  0  0  2  0  0  0  0  0  0
  162.6500  207.4320  148.2610 O   0  0  0  0  0  1  0  0  0  0  0  0
  160.5980  204.5320  152.0640 C   0  0  0  0  0  2  0  0  0  0  0  0
  161.1520  203.2570  151.7580 O   0  0  0  0  0  0  0  0  0  0  0  0
  161.0410  201.3270  150.2610 C   0  0  0  0  0  3  0  0  0  0  0  0
  161.0140  200.8120  148.9620 C   0  0  0  0  0  3  0  0  0  0  0  0
  161.1520  203.0580  148.0720 C   0  0  0  0  0  3  0  0  0  0  0  0
  161.1220  202.7110  150.4720 C   0  0  0  0  0  0  0  0  0  0  0  0
  161.0700  201.6740  147.8590 C   0  0  0  0  0  0  0  0  0  0  0  0
  161.1770  203.5720  149.3720 C   0  0  0  0  0  3  0  0  0  0  0  0
  161.0450  201.1460  146.5240 N   0  0  0  0  0  0  0  0  0  0  0  0
  161.3660  199.8470  146.3020 O   0  0  0  0  0  1  0  0  0  0  0  0
  160.8100  201.9590  145.4630 O   0  0  0  0  0  0  0  0  0  0  0  0
  159.6110  201.5030  144.9060 C   0  0  0  0  0  1  0  0  0  0  0  0
  161.9080  206.1690  153.4820 C   0  0  0  0  0  2  0  0  0  0  0  0
  160.7440  207.0470  153.9230 C   0  0  0  0  0  2  0  0  0  0  0  0
  161.0900  207.9720  156.2180 C   0  0  0  0  0  3  0  0  0  0  0  0
  160.3200  209.4240  154.5070 C   0  0  0  0  0  0  0  0  0  0  0  0
  160.0790  210.1490  153.3380 C   0  0  0  0  0  3  0  0  0  0  0  0
  158.9140  211.9880  152.2230 N   0  0  0  0  0  1  0  0  0  0  0  0
  158.5660  211.5740  154.6130 C   0  0  0  0  0  3  0  0  0  0  0  0
  161.2280  208.2620  154.7070 C   0  0  2  0  0  3  0  0  0  0  0  0
  159.1870  211.2320  153.3960 C   0  0  0  0  0  0  0  0  0  0  0  0
  160.1270  208.9340  156.7520 N   0  0  0  0  0  0  0  0  0  0  0  0
  159.7220  209.7650  155.6860 C   0  0  0  0  0  0  0  0  0  0  0  0
  158.8340  210.8370  155.7770 C   0  0  0  0  0  3  0  0  0  0  0  0
  1  9  1  1  0  0  0
  1 21  1  0  0  0  0
  2  3  2  0  0  0  0
  3  1  1  0  0  0  0
  4  3  1  0  0  0  0
  6  5  2  0  0  0  0
  6  4  1  0  0  0  0
  7  6  1  0  0  0  0
  8  7  1  0  0  0  0
 10  9  1  0  0  0  0
 11 14  1  0  0  0  0
 12 11  2  0  0  0  0
 13 16  1  0  0  0  0
 14 10  1  0  0  0  0
 15 13  2  0  0  0  0
 15 12  1  0  0  0  0
 16 14  2  0  0  0  0
 17 15  1  0  0  0  0
 18 17  1  0  0  0  0
 19 17  1  0  0  0  0
 20 19  1  0  0  0  0
 21 22  1  0  0  0  0
 23 30  2  0  0  0  0
 24 28  1  0  0  0  0
 24 31  1  0  0  0  0
 25 29  1  0  0  0  0
 25 24  2  0  0  0  0
 26 29  1  0  0  0  0
 27 32  1  0  0  0  0
 28 22  1  6  0  0  0
 28 23  1  0  0  0  0
 29 27  2  0  0  0  0
 31 32  2  0  0  0  0
 31 30  1  0  0  0  0
M  END
>  <MODEL>
3

>  <REMARK>
 VINA RESULT:      -7.7      2.890      8.253
  Name = 
  11 active torsions:
  status: ('A' for Active; 'I' for Inactive)
    1  A    between atoms: O_7  and  C_12
    2  A    between atoms: O_7  and  C_19
    3  A    between atoms: C_9  and  C_13
    4  A    between atoms: N_11  and  O_24
    5  A    between atoms: N_11  and  C_26
    6  A    between atoms: C_12  and  C_13
    7  A    between atoms: C_13  and  C_18
    8  A    between atoms: C_15  and  C_16
    9  A    between atoms: C_15  and  C_18
   10  A    between atoms: N_17  and  CA_31
   11  A    between atoms: C_25  and  CA_31
                            x       y       z     vdW  Elec       q    Type
                         _______ _______ _______ _____ _____    ______ ____

>  <TORSDO>
F 11

$$$$
=
 OpenBabel11052411533D

 32 34  0  0  1  0  0  0  0  0999 V2000
  162.0550  208.9370  151.1190 C   0  0  2  0  0  3  0  0  0  0  0  0
  162.2600  208.8920  148.7530 O   0  0  0  0  0  0  0  0  0  0  0  0
  162.1190  209.6030  149.7830 C   0  0  0  0  0  0  0  0  0  0  0  0
  162.0150  211.0320  149.6860 N   0  0  0  0  0  2  0  0  0  0  0  0
  160.8460  212.0780  147.8470 C   0  0  0  0  0  2  0  0  0  0  0  0
  161.9810  211.8160  148.4850 C   0  0  0  0  0  0  0  0  0  0  0  0
  163.2290  212.4840  148.0280 C   0  0  0  0  0  2  0  0  0  0  0  0
  163.0070  213.8530  147.8880 O   0  0  0  0  0  1  0  0  0  0  0  0
  162.4100  207.4550  151.0190 C   0  0  0  0  0  2  0  0  0  0  0  0
  161.2380  206.6620  150.8580 O   0  0  0  0  0  0  0  0  0  0  0  0
  160.9290  204.2590  150.5250 C   0  0  0  0  0  3  0  0  0  0  0  0
  160.8930  203.1600  149.6640 C   0  0  0  0  0  3  0  0  0  0  0  0
  161.3860  204.6110  147.7920 C   0  0  0  0  0  3  0  0  0  0  0  0
  161.1940  205.5430  150.0240 C   0  0  0  0  0  0  0  0  0  0  0  0
  161.1210  203.3280  148.2910 C   0  0  0  0  0  0  0  0  0  0  0  0
  161.4210  205.7110  148.6540 C   0  0  0  0  0  3  0  0  0  0  0  0
  161.0850  202.1980  147.4070 N   0  0  0  0  0  0  0  0  0  0  0  0
  161.1170  200.9400  147.9110 O   0  0  0  0  0  1  0  0  0  0  0  0
  161.1300  202.3720  146.0610 O   0  0  0  0  0  0  0  0  0  0  0  0
  160.2420  201.4280  145.5360 C   0  0  0  0  0  1  0  0  0  0  0  0
  160.6950  209.1550  151.7750 C   0  0  0  0  0  2  0  0  0  0  0  0
  160.8220  209.2800  153.2880 C   0  0  0  0  0  2  0  0  0  0  0  0
  162.0140  210.5050  155.1100 C   0  0  0  0  0  3  0  0  0  0  0  0
  160.3660  211.6570  153.8520 C   0  0  0  0  0  0  0  0  0  0  0  0
  159.5290  212.2080  152.8780 C   0  0  0  0  0  3  0  0  0  0  0  0
  157.7400  213.7740  152.3050 N   0  0  0  0  0  1  0  0  0  0  0  0
  158.5530  213.6180  154.6120 C   0  0  0  0  0  3  0  0  0  0  0  0
  161.4240  210.6230  153.6880 C   0  0  2  0  0  3  0  0  0  0  0  0
  158.6110  213.1960  153.2690 C   0  0  0  0  0  0  0  0  0  0  0  0
  161.2620  211.4240  155.9640 N   0  0  0  0  0  0  0  0  0  0  0  0
  160.3110  212.0760  155.1510 C   0  0  0  0  0  0  0  0  0  0  0  0
  159.4130  213.0570  155.5690 C   0  0  0  0  0  3  0  0  0  0  0  0
  1  9  1  6  0  0  0
  1 21  1  0  0  0  0
  2  3  2  0  0  0  0
  3  1  1  0  0  0  0
  4  3  1  0  0  0  0
  5  6  2  0  0  0  0
  6  4  1  0  0  0  0
  7  6  1  0  0  0  0
  8  7  1  0  0  0  0
 10  9  1  0  0  0  0
 12 11  2  0  0  0  0
 13 15  2  0  0  0  0
 13 16  1  0  0  0  0
 14 11  1  0  0  0  0
 14 10  1  0  0  0  0
 15 12  1  0  0  0  0
 16 14  2  0  0  0  0
 17 18  1  0  0  0  0
 17 15  1  0  0  0  0
 19 17  1  0  0  0  0
 20 19  1  0  0  0  0
 21 22  1  0  0  0  0
 23 30  2  0  0  0  0
 24 31  1  0  0  0  0
 25 29  1  0  0  0  0
 25 24  2  0  0  0  0
 26 29  1  0  0  0  0
 27 32  1  0  0  0  0
 28 22  1  1  0  0  0
 28 24  1  0  0  0  0
 28 23  1  0  0  0  0
 29 27  2  0  0  0  0
 31 32  2  0  0  0  0
 31 30  1  0  0  0  0
M  END
>  <MODEL>
4

>  <REMARK>
 VINA RESULT:      -7.4      2.940      8.651
  Name = 
  11 active torsions:
  status: ('A' for Active; 'I' for Inactive)
    1  A    between atoms: O_7  and  C_12
    2  A    between atoms: O_7  and  C_19
    3  A    between atoms: C_9  and  C_13
    4  A    between atoms: N_11  and  O_24
    5  A    between atoms: N_11  and  C_26
    6  A    between atoms: C_12  and  C_13
    7  A    between atoms: C_13  and  C_18
    8  A    between atoms: C_15  and  C_16
    9  A    between atoms: C_15  and  C_18
   10  A    between atoms: N_17  and  CA_31
   11  A    between atoms: C_25  and  CA_31
                            x       y       z     vdW  Elec       q    Type
                         _______ _______ _______ _____ _____    ______ ____

>  <TORSDO>
F 11

$$$$
=
 OpenBabel11052411533D

 32 34  0  0  1  0  0  0  0  0999 V2000
  160.9120  206.0080  152.5040 C   0  0  2  0  0  3  0  0  0  0  0  0
  163.0570  206.5830  151.6610 O   0  0  0  0  0  0  0  0  0  0  0  0
  161.8160  206.7860  151.6030 C   0  0  0  0  0  0  0  0  0  0  0  0
  161.2650  207.7450  150.6870 N   0  0  0  0  0  2  0  0  0  0  0  0
  162.3980  207.9830  148.5640 C   0  0  0  0  0  2  0  0  0  0  0  0
  161.9790  208.5140  149.7090 C   0  0  0  0  0  0  0  0  0  0  0  0
  162.1190  209.9810  149.9100 C   0  0  0  0  0  2  0  0  0  0  0  0
  162.0390  210.6350  148.6810 O   0  0  0  0  0  1  0  0  0  0  0  0
  160.9720  206.5320  153.9380 C   0  0  0  0  0  2  0  0  0  0  0  0
  161.4520  207.8710  153.9700 O   0  0  0  0  0  0  0  0  0  0  0  0
  159.9880  209.0820  155.5090 C   0  0  0  0  0  3  0  0  0  0  0  0
  159.1700  210.1840  155.7750 C   0  0  0  0  0  3  0  0  0  0  0  0
  159.6240  211.0520  153.5620 C   0  0  0  0  0  3  0  0  0  0  0  0
  160.6290  208.9610  154.2670 C   0  0  0  0  0  0  0  0  0  0  0  0
  158.9820  211.1760  154.8030 C   0  0  0  0  0  0  0  0  0  0  0  0
  160.4430  209.9500  153.2970 C   0  0  0  0  0  3  0  0  0  0  0  0
  158.1400  212.3070  155.0760 N   0  0  0  0  0  0  0  0  0  0  0  0
  158.2540  212.9690  156.2530 O   0  0  0  0  0  1  0  0  0  0  0  0
  157.1520  212.6570  154.2130 O   0  0  0  0  0  0  0  0  0  0  0  0
  155.9600  212.3040  154.8520 C   0  0  0  0  0  1  0  0  0  0  0  0
  161.2160  204.5150  152.4280 C   0  0  0  0  0  2  0  0  0  0  0  0
  161.7150  204.1190  151.0440 C   0  0  0  0  0  2  0  0  0  0  0  0
  160.3490  202.1380  150.3740 C   0  0  0  0  0  3  0  0  0  0  0  0
  160.9480  203.7240  148.7140 C   0  0  0  0  0  0  0  0  0  0  0  0
  161.2190  204.8570  147.9430 C   0  0  0  0  0  3  0  0  0  0  0  0
  161.8230  205.8110  145.7730 N   0  0  0  0  0  1  0  0  0  0  0  0
  161.5670  203.3870  146.0280 C   0  0  0  0  0  3  0  0  0  0  0  0
  160.5710  203.6500  150.1520 C   0  0  2  0  0  3  0  0  0  0  0  0
  161.5360  204.6800  146.5860 C   0  0  0  0  0  0  0  0  0  0  0  0
  160.6320  201.4730  149.1020 N   0  0  0  0  0  0  0  0  0  0  0  0
  160.9710  202.4730  148.1660 C   0  0  0  0  0  0  0  0  0  0  0  0
  161.2790  202.2650  146.8220 C   0  0  0  0  0  3  0  0  0  0  0  0
  1 21  1  1  0  0  0
  1  9  1  0  0  0  0
  3  2  2  0  0  0  0
  3  1  1  0  0  0  0
  4  3  1  0  0  0  0
  5  6  2  0  0  0  0
  6  7  1  0  0  0  0
  6  4  1  0  0  0  0
  8  7  1  0  0  0  0
  9 10  1  0  0  0  0
 10 14  1  0  0  0  0
 11 12  1  0  0  0  0
 13 15  1  0  0  0  0
 14 11  2  0  0  0  0
 15 17  1  0  0  0  0
 15 12  2  0  0  0  0
 16 13  2  0  0  0  0
 16 14  1  0  0  0  0
 17 18  1  0  0  0  0
 19 20  1  0  0  0  0
 19 17  1  0  0  0  0
 22 21  1  0  0  0  0
 24 28  1  0  0  0  0
 25 24  2  0  0  0  0
 26 29  1  0  0  0  0
 27 29  2  0  0  0  0
 27 32  1  0  0  0  0
 28 23  1  0  0  0  0
 28 22  1  1  0  0  0
 29 25  1  0  0  0  0
 30 23  2  0  0  0  0
 31 24  1  0  0  0  0
 31 30  1  0  0  0  0
 32 31  2  0  0  0  0
M  END
>  <MODEL>
5

>  <REMARK>
 VINA RESULT:      -7.3      2.345      4.821
  Name = 
  11 active torsions:
  status: ('A' for Active; 'I' for Inactive)
    1  A    between atoms: O_7  and  C_12
    2  A    between atoms: O_7  and  C_19
    3  A    between atoms: C_9  and  C_13
    4  A    between atoms: N_11  and  O_24
    5  A    between atoms: N_11  and  C_26
    6  A    between atoms: C_12  and  C_13
    7  A    between atoms: C_13  and  C_18
    8  A    between atoms: C_15  and  C_16
    9  A    between atoms: C_15  and  C_18
   10  A    between atoms: N_17  and  CA_31
   11  A    between atoms: C_25  and  CA_31
                            x       y       z     vdW  Elec       q    Type
                         _______ _______ _______ _____ _____    ______ ____

>  <TORSDO>
F 11

$$$$
=
 OpenBabel11052411533D

 32 34  0  0  1  0  0  0  0  0999 V2000
  162.3220  209.7730  149.2130 C   0  0  2  0  0  3  0  0  0  0  0  0
  163.0920  211.9580  148.6900 O   0  0  0  0  0  0  0  0  0  0  0  0
  162.1660  211.1130  148.5700 C   0  0  0  0  0  0  0  0  0  0  0  0
  160.9780  211.4180  147.8230 N   0  0  0  0  0  2  0  0  0  0  0  0
  159.8090  213.5080  147.4960 C   0  0  0  0  0  2  0  0  0  0  0  0
  160.7060  212.6180  147.0860 C   0  0  0  0  0  0  0  0  0  0  0  0
  161.5610  212.9520  145.9150 C   0  0  0  0  0  2  0  0  0  0  0  0
  162.5070  213.9090  146.2800 O   0  0  0  0  0  1  0  0  0  0  0  0
  161.5240  208.7040  148.4690 C   0  0  0  0  0  2  0  0  0  0  0  0
  162.3840  207.6830  147.9730 O   0  0  0  0  0  0  0  0  0  0  0  0
  162.3770  205.5150  146.8420 C   0  0  0  0  0  3  0  0  0  0  0  0
  161.9800  204.1750  146.8130 C   0  0  0  0  0  3  0  0  0  0  0  0
  160.8330  204.4710  148.9220 C   0  0  0  0  0  3  0  0  0  0  0  0
  162.0040  206.3400  147.9140 C   0  0  0  0  0  0  0  0  0  0  0  0
  161.2050  203.6440  147.8530 C   0  0  0  0  0  0  0  0  0  0  0  0
  161.2320  205.8100  148.9520 C   0  0  0  0  0  3  0  0  0  0  0  0
  160.7950  202.2680  147.8210 N   0  0  0  0  0  0  0  0  0  0  0  0
  160.8980  201.5560  146.6720 O   0  0  0  0  0  1  0  0  0  0  0  0
  160.2030  201.6990  148.9020 O   0  0  0  0  0  0  0  0  0  0  0  0
  161.2080  200.9540  149.5260 C   0  0  0  0  0  1  0  0  0  0  0  0
  161.9560  209.8310  150.6930 C   0  0  0  0  0  2  0  0  0  0  0  0
  161.2860  208.5410  151.1510 C   0  0  0  0  0  2  0  0  0  0  0  0
  161.9810  206.4020  152.2400 C   0  0  0  0  0  3  0  0  0  0  0  0
  161.2300  208.1880  153.6100 C   0  0  0  0  0  0  0  0  0  0  0  0
  160.9640  209.4040  154.2430 C   0  0  0  0  0  3  0  0  0  0  0  0
  159.9330  210.6070  156.1070 N   0  0  0  0  0  1  0  0  0  0  0  0
  159.7830  208.1650  155.9800 C   0  0  0  0  0  3  0  0  0  0  0  0
  161.9980  207.9420  152.3590 C   0  0  2  0  0  3  0  0  0  0  0  0
  160.2280  209.3870  155.4390 C   0  0  0  0  0  0  0  0  0  0  0  0
  161.2070  205.8940  153.3730 N   0  0  0  0  0  0  0  0  0  0  0  0
  160.8030  207.0050  154.1430 C   0  0  0  0  0  0  0  0  0  0  0  0
  160.0730  206.9540  155.3300 C   0  0  0  0  0  3  0  0  0  0  0  0
  1  9  1  6  0  0  0
  1 21  1  0  0  0  0
  3  2  2  0  0  0  0
  3  1  1  0  0  0  0
  4  3  1  0  0  0  0
  6  5  2  0  0  0  0
  6  4  1  0  0  0  0
  7  8  1  0  0  0  0
  7  6  1  0  0  0  0
 10  9  1  0  0  0  0
 11 14  1  0  0  0  0
 12 11  2  0  0  0  0
 12 15  1  0  0  0  0
 13 16  1  0  0  0  0
 14 10  1  0  0  0  0
 14 16  2  0  0  0  0
 15 13  2  0  0  0  0
 17 15  1  0  0  0  0
 17 19  1  0  0  0  0
 18 17  1  0  0  0  0
 19 20  1  0  0  0  0
 21 22  1  0  0  0  0
 23 28  1  0  0  0  0
 23 30  2  0  0  0  0
 24 31  2  0  0  0  0
 24 25  1  0  0  0  0
 25 29  2  0  0  0  0
 28 22  1  6  0  0  0
 28 24  1  0  0  0  0
 29 27  1  0  0  0  0
 29 26  1  0  0  0  0
 30 31  1  0  0  0  0
 31 32  1  0  0  0  0
 32 27  2  0  0  0  0
M  END
>  <MODEL>
6

>  <REMARK>
 VINA RESULT:      -7.2      2.536      8.108
  Name = 
  11 active torsions:
  status: ('A' for Active; 'I' for Inactive)
    1  A    between atoms: O_7  and  C_12
    2  A    between atoms: O_7  and  C_19
    3  A    between atoms: C_9  and  C_13
    4  A    between atoms: N_11  and  O_24
    5  A    between atoms: N_11  and  C_26
    6  A    between atoms: C_12  and  C_13
    7  A    between atoms: C_13  and  C_18
    8  A    between atoms: C_15  and  C_16
    9  A    between atoms: C_15  and  C_18
   10  A    between atoms: N_17  and  CA_31
   11  A    between atoms: C_25  and  CA_31
                            x       y       z     vdW  Elec       q    Type
                         _______ _______ _______ _____ _____    ______ ____

>  <TORSDO>
F 11

$$$$
=
 OpenBabel11052411533D

 32 34  0  0  1  0  0  0  0  0999 V2000
  162.3310  210.7020  149.0090 C   0  0  2  0  0  3  0  0  0  0  0  0
  163.1370  212.6190  147.8600 O   0  0  0  0  0  0  0  0  0  0  0  0
  162.1730  211.8280  148.0390 C   0  0  0  0  0  0  0  0  0  0  0  0
  160.9390  211.9930  147.3240 N   0  0  0  0  0  2  0  0  0  0  0  0
  160.2520  214.1980  146.6110 C   0  0  0  0  0  2  0  0  0  0  0  0
  160.6510  212.9670  146.3110 C   0  0  0  0  0  0  0  0  0  0  0  0
  160.9570  212.6400  144.8920 C   0  0  0  0  0  2  0  0  0  0  0  0
  161.8140  213.6030  144.3610 O   0  0  0  0  0  1  0  0  0  0  0  0
  161.5630  209.4630  148.5510 C   0  0  0  0  0  2  0  0  0  0  0  0
  162.4550  208.3910  148.2640 O   0  0  0  0  0  0  0  0  0  0  0  0
  162.1750  206.2080  147.1980 C   0  0  0  0  0  3  0  0  0  0  0  0
  161.7730  204.8720  147.2820 C   0  0  0  0  0  3  0  0  0  0  0  0
  161.1440  205.2060  149.5930 C   0  0  0  0  0  3  0  0  0  0  0  0
  162.0630  207.0510  148.3150 C   0  0  0  0  0  0  0  0  0  0  0  0
  161.2540  204.3620  148.4790 C   0  0  0  0  0  0  0  0  0  0  0  0
  161.5470  206.5420  149.5100 C   0  0  0  0  0  3  0  0  0  0  0  0
  160.8400  202.9900  148.5640 N   0  0  0  0  0  0  0  0  0  0  0  0
  160.1430  202.5570  149.6430 O   0  0  0  0  0  1  0  0  0  0  0  0
  161.2320  202.0910  147.6250 O   0  0  0  0  0  0  0  0  0  0  0  0
  161.2030  200.8490  148.2670 C   0  0  0  0  0  1  0  0  0  0  0  0
  161.9330  211.1320  150.4170 C   0  0  0  0  0  2  0  0  0  0  0  0
  162.0830  209.9870  151.4110 C   0  0  0  0  0  2  0  0  0  0  0  0
  160.6160  210.8820  153.2250 C   0  0  0  0  0  3  0  0  0  0  0  0
  160.8950  208.5330  153.0380 C   0  0  0  0  0  0  0  0  0  0  0  0
  161.0180  207.2010  152.6380 C   0  0  0  0  0  3  0  0  0  0  0  0
  161.2070  204.8420  153.2590 N   0  0  0  0  0  1  0  0  0  0  0  0
  161.0020  206.5630  154.9920 C   0  0  0  0  0  3  0  0  0  0  0  0
  160.7930  209.7510  152.1880 C   0  0  2  0  0  3  0  0  0  0  0  0
  161.0760  206.2090  153.6310 C   0  0  0  0  0  0  0  0  0  0  0  0
  160.6570  210.2590  154.5480 N   0  0  0  0  0  0  0  0  0  0  0  0
  160.8160  208.8700  154.3590 C   0  0  0  0  0  0  0  0  0  0  0  0
  160.8670  207.9090  155.3680 C   0  0  0  0  0  3  0  0  0  0  0  0
  1  9  1  6  0  0  0
  1 21  1  0  0  0  0
  2  3  2  0  0  0  0
  3  1  1  0  0  0  0
  4  3  1  0  0  0  0
  6  5  2  0  0  0  0
  6  4  1  0  0  0  0
  7  6  1  0  0  0  0
  8  7  1  0  0  0  0
 10 14  1  0  0  0  0
 10  9  1  0  0  0  0
 11 12  2  0  0  0  0
 11 14  1  0  0  0  0
 12 15  1  0  0  0  0
 14 16  2  0  0  0  0
 15 17  1  0  0  0  0
 15 13  2  0  0  0  0
 16 13  1  0  0  0  0
 17 18  1  0  0  0  0
 19 20  1  0  0  0  0
 19 17  1  0  0  0  0
 21 22  1  0  0  0  0
 23 30  2  0  0  0  0
 24 31  1  0  0  0  0
 25 24  2  0  0  0  0
 25 29  1  0  0  0  0
 26 29  1  0  0  0  0
 27 32  1  0  0  0  0
 28 22  1  1  0  0  0
 28 24  1  0  0  0  0
 28 23  1  0  0  0  0
 29 27  2  0  0  0  0
 31 30  1  0  0  0  0
 31 32  2  0  0  0  0
M  END
>  <MODEL>
7

>  <REMARK>
 VINA RESULT:      -7.1      2.514      8.262
  Name = 
  11 active torsions:
  status: ('A' for Active; 'I' for Inactive)
    1  A    between atoms: O_7  and  C_12
    2  A    between atoms: O_7  and  C_19
    3  A    between atoms: C_9  and  C_13
    4  A    between atoms: N_11  and  O_24
    5  A    between atoms: N_11  and  C_26
    6  A    between atoms: C_12  and  C_13
    7  A    between atoms: C_13  and  C_18
    8  A    between atoms: C_15  and  C_16
    9  A    between atoms: C_15  and  C_18
   10  A    between atoms: N_17  and  CA_31
   11  A    between atoms: C_25  and  CA_31
                            x       y       z     vdW  Elec       q    Type
                         _______ _______ _______ _____ _____    ______ ____

>  <TORSDO>
F 11

$$$$
=
 OpenBabel11052411533D

 32 34  0  0  1  0  0  0  0  0999 V2000
  161.2510  207.8480  149.9020 C   0  0  2  0  0  3  0  0  0  0  0  0
  162.8850  206.7030  151.1920 O   0  0  0  0  0  0  0  0  0  0  0  0
  161.6840  206.7470  150.8150 C   0  0  0  0  0  0  0  0  0  0  0  0
  160.7350  205.7620  151.2540 N   0  0  0  0  0  2  0  0  0  0  0  0
  161.2650  204.9200  153.4570 C   0  0  0  0  0  2  0  0  0  0  0  0
  160.9660  204.6930  152.1820 C   0  0  0  0  0  0  0  0  0  0  0  0
  160.7120  203.2940  151.7450 C   0  0  0  0  0  2  0  0  0  0  0  0
  161.8900  202.5530  151.8290 O   0  0  0  0  0  1  0  0  0  0  0  0
  161.1580  207.3660  148.4560 C   0  0  0  0  0  2  0  0  0  0  0  0
  162.1360  206.3660  148.1900 O   0  0  0  0  0  0  0  0  0  0  0  0
  161.7910  204.9390  146.2340 C   0  0  0  0  0  3  0  0  0  0  0  0
  161.4650  203.6900  145.7000 C   0  0  0  0  0  3  0  0  0  0  0  0
  161.1840  202.8090  147.9350 C   0  0  0  0  0  3  0  0  0  0  0  0
  161.8160  205.1300  147.6240 C   0  0  0  0  0  0  0  0  0  0  0  0
  161.1590  202.6160  146.5470 C   0  0  0  0  0  0  0  0  0  0  0  0
  161.5110  204.0590  148.4690 C   0  0  0  0  0  3  0  0  0  0  0  0
  160.8230  201.3330  145.9970 N   0  0  0  0  0  0  0  0  0  0  0  0
  160.0290  201.2510  144.9020 O   0  0  0  0  0  1  0  0  0  0  0  0
  161.2010  200.1910  146.6270 O   0  0  0  0  0  0  0  0  0  0  0  0
  161.1990  199.2040  145.6370 C   0  0  0  0  0  1  0  0  0  0  0  0
  162.1620  209.0640  150.0410 C   0  0  0  0  0  2  0  0  0  0  0  0
  162.1740  209.5890  151.4710 C   0  0  0  0  0  2  0  0  0  0  0  0
  160.5480  211.4450  151.8680 C   0  0  0  0  0  3  0  0  0  0  0  0
  160.6230  209.6440  153.4120 C   0  0  0  0  0  0  0  0  0  0  0  0
  160.6740  208.4170  154.0760 C   0  0  0  0  0  3  0  0  0  0  0  0
  160.5400  207.1710  156.1770 N   0  0  0  0  0  1  0  0  0  0  0  0
  160.2490  209.6040  156.1630 C   0  0  0  0  0  3  0  0  0  0  0  0
  160.7660  209.9180  151.9560 C   0  0  2  0  0  3  0  0  0  0  0  0
  160.4890  208.4030  155.4680 C   0  0  0  0  0  0  0  0  0  0  0  0
  160.3340  211.9250  153.2330 N   0  0  0  0  0  0  0  0  0  0  0  0
  160.3830  210.8060  154.0900 C   0  0  0  0  0  0  0  0  0  0  0  0
  160.1920  210.8240  155.4710 C   0  0  0  0  0  3  0  0  0  0  0  0
  1  9  1  6  0  0  0
  1 21  1  0  0  0  0
  1  3  1  0  0  0  0
  3  2  2  0  0  0  0
  3  4  1  0  0  0  0
  4  6  1  0  0  0  0
  6  5  2  0  0  0  0
  7  8  1  0  0  0  0
  7  6  1  0  0  0  0
 10  9  1  0  0  0  0
 11 14  1  0  0  0  0
 12 11  2  0  0  0  0
 12 15  1  0  0  0  0
 13 16  1  0  0  0  0
 14 10  1  0  0  0  0
 14 16  2  0  0  0  0
 15 13  2  0  0  0  0
 17 15  1  0  0  0  0
 17 19  1  0  0  0  0
 18 17  1  0  0  0  0
 20 19  1  0  0  0  0
 21 22  1  0  0  0  0
 23 28  1  0  0  0  0
 23 30  2  0  0  0  0
 24 25  2  0  0  0  0
 24 31  1  0  0  0  0
 25 29  1  0  0  0  0
 28 22  1  1  0  0  0
 28 24  1  0  0  0  0
 29 27  2  0  0  0  0
 29 26  1  0  0  0  0
 30 31  1  0  0  0  0
 31 32  2  0  0  0  0
 32 27  1  0  0  0  0
M  END
>  <MODEL>
8

>  <REMARK>
 VINA RESULT:      -7.0      3.032      8.315
  Name = 
  11 active torsions:
  status: ('A' for Active; 'I' for Inactive)
    1  A    between atoms: O_7  and  C_12
    2  A    between atoms: O_7  and  C_19
    3  A    between atoms: C_9  and  C_13
    4  A    between atoms: N_11  and  O_24
    5  A    between atoms: N_11  and  C_26
    6  A    between atoms: C_12  and  C_13
    7  A    between atoms: C_13  and  C_18
    8  A    between atoms: C_15  and  C_16
    9  A    between atoms: C_15  and  C_18
   10  A    between atoms: N_17  and  CA_31
   11  A    between atoms: C_25  and  CA_31
                            x       y       z     vdW  Elec       q    Type
                         _______ _______ _______ _____ _____    ______ ____

>  <TORSDO>
F 11

$$$$
=
 OpenBabel11052411533D

 32 34  0  0  1  0  0  0  0  0999 V2000
  162.2040  208.1090  149.8520 C   0  0  2  0  0  3  0  0  0  0  0  0
  163.3320  206.5220  151.2130 O   0  0  0  0  0  0  0  0  0  0  0  0
  162.2660  207.1590  151.0040 C   0  0  0  0  0  0  0  0  0  0  0  0
  161.1220  206.9880  151.8560 N   0  0  0  0  0  2  0  0  0  0  0  0
  160.7470  206.6990  154.2270 C   0  0  0  0  0  2  0  0  0  0  0  0
  161.0400  206.1800  153.0390 C   0  0  0  0  0  0  0  0  0  0  0  0
  161.1310  204.7010  152.9070 C   0  0  0  0  0  2  0  0  0  0  0  0
  160.5360  204.2970  151.7130 O   0  0  0  0  0  1  0  0  0  0  0  0
  161.9900  209.5450  150.3270 C   0  0  0  0  0  2  0  0  0  0  0  0
  162.3990  209.6980  151.6820 O   0  0  0  0  0  0  0  0  0  0  0  0
  161.9230  210.3330  153.9950 C   0  0  0  0  0  3  0  0  0  0  0  0
  161.1510  211.0550  154.9090 C   0  0  0  0  0  3  0  0  0  0  0  0
  159.8190  211.9310  153.0900 C   0  0  0  0  0  3  0  0  0  0  0  0
  161.6470  210.4080  152.6220 C   0  0  0  0  0  0  0  0  0  0  0  0
  160.0930  211.8590  154.4630 C   0  0  0  0  0  0  0  0  0  0  0  0
  160.5920  211.2100  152.1750 C   0  0  0  0  0  3  0  0  0  0  0  0
  159.2990  212.5990  155.4020 N   0  0  0  0  0  0  0  0  0  0  0  0
  159.8560  213.6070  156.1160 O   0  0  0  0  0  1  0  0  0  0  0  0
  158.0190  212.2310  155.6660 O   0  0  0  0  0  0  0  0  0  0  0  0
  157.4680  213.2950  156.3870 C   0  0  0  0  0  1  0  0  0  0  0  0
  161.1450  207.6780  148.8420 C   0  0  0  0  0  2  0  0  0  0  0  0
  160.9880  206.1630  148.8140 C   0  0  0  0  0  2  0  0  0  0  0  0
  162.0270  206.2540  146.5430 C   0  0  0  0  0  3  0  0  0  0  0  0
  161.6070  204.1330  147.5210 C   0  0  0  0  0  0  0  0  0  0  0  0
  161.4770  203.0090  148.3400 C   0  0  0  0  0  3  0  0  0  0  0  0
  160.9410  200.6320  148.5550 N   0  0  0  0  0  1  0  0  0  0  0  0
  160.8510  201.7250  146.3640 C   0  0  0  0  0  3  0  0  0  0  0  0
  162.0190  205.5130  147.8990 C   0  0  2  0  0  3  0  0  0  0  0  0
  161.0890  201.7950  147.7500 C   0  0  0  0  0  0  0  0  0  0  0  0
  161.6040  205.2910  145.5270 N   0  0  0  0  0  0  0  0  0  0  0  0
  161.3820  204.0580  146.1760 C   0  0  0  0  0  0  0  0  0  0  0  0
  161.0000  202.8670  145.5600 C   0  0  0  0  0  3  0  0  0  0  0  0
  1 21  1  6  0  0  0
  1  9  1  0  0  0  0
  1  3  1  0  0  0  0
  3  2  2  0  0  0  0
  3  4  1  0  0  0  0
  4  6  1  0  0  0  0
  6  5  2  0  0  0  0
  7  6  1  0  0  0  0
  8  7  1  0  0  0  0
  9 10  1  0  0  0  0
 10 14  1  0  0  0  0
 11 12  1  0  0  0  0
 13 15  1  0  0  0  0
 14 11  2  0  0  0  0
 15 12  2  0  0  0  0
 15 17  1  0  0  0  0
 16 14  1  0  0  0  0
 16 13  2  0  0  0  0
 17 19  1  0  0  0  0
 17 18  1  0  0  0  0
 19 20  1  0  0  0  0
 22 21  1  0  0  0  0
 23 28  1  0  0  0  0
 24 28  1  0  0  0  0
 24 25  1  0  0  0  0
 27 29  1  0  0  0  0
 28 22  1  1  0  0  0
 29 25  2  0  0  0  0
 29 26  1  0  0  0  0
 30 31  1  0  0  0  0
 30 23  2  0  0  0  0
 31 24  2  0  0  0  0
 32 31  1  0  0  0  0
 32 27  2  0  0  0  0
M  END
>  <MODEL>
9

>  <REMARK>
 VINA RESULT:      -7.0      2.690      5.024
  Name = 
  11 active torsions:
  status: ('A' for Active; 'I' for Inactive)
    1  A    between atoms: O_7  and  C_12
    2  A    between atoms: O_7  and  C_19
    3  A    between atoms: C_9  and  C_13
    4  A    between atoms: N_11  and  O_24
    5  A    between atoms: N_11  and  C_26
    6  A    between atoms: C_12  and  C_13
    7  A    between atoms: C_13  and  C_18
    8  A    between atoms: C_15  and  C_16
    9  A    between atoms: C_15  and  C_18
   10  A    between atoms: N_17  and  CA_31
   11  A    between atoms: C_25  and  CA_31
                            x       y       z     vdW  Elec       q    Type
                         _______ _______ _______ _____ _____    ______ ____

>  <TORSDO>
F 11

$$$$
