=
 OpenBabel11042423003D

 65 69  0  0  1  0  0  0  0  0999 V2000
  161.5130  209.2070  150.9260 C   0  0  1  0  0  3  0  0  0  0  0  0
  161.9330  207.9030  150.2380 C   0  0  2  0  0  3  0  0  0  0  0  0
  162.4340  208.1210  148.8140 C   0  0  0  0  0  2  0  0  0  0  0  0
  161.6650  207.2700  147.8130 C   0  0  0  0  0  2  0  0  0  0  0  0
  161.2770  206.2210  150.8010 C   0  0  0  0  0  0  0  0  0  0  0  0
  160.6360  202.0410  150.8370 O   0  0  0  0  0  1  0  0  0  0  0  0
  160.8880  203.4070  150.8160 C   0  0  0  0  0  0  0  0  0  0  0  0
  161.1840  203.6350  148.3450 N   0  0  0  0  0  0  0  0  0  0  0  0
  161.4390  205.8790  148.3180 C   0  0  0  0  0  0  0  0  0  0  0  0
  161.0780  205.5350  152.0100 C   0  0  0  0  0  3  0  0  0  0  0  0
  160.6630  203.4910  153.2300 O   0  0  0  0  0  1  0  0  0  0  0  0
  160.8680  200.6330  146.6050 C   0  0  0  0  0  0  0  0  0  0  0  0
  161.3610  204.7240  147.5520 C   0  0  0  0  0  0  0  0  0  0  0  0
  161.1250  204.1040  149.6180 C   0  0  0  0  0  0  0  0  0  0  0  0
  161.1680  202.2750  147.8790 C   0  0  0  0  0  0  0  0  0  0  0  0
  161.5680  200.1920  147.7150 C   0  0  0  0  0  3  0  0  0  0  0  0
  160.8790  204.1400  152.0200 C   0  0  0  0  0  0  0  0  0  0  0  0
  161.7530  201.2490  148.5300 N   0  0  0  0  0  0  0  0  0  0  0  0
  160.6470  201.9190  146.7310 O   0  0  0  0  0  0  0  0  0  0  0  0
  161.2840  205.4730  149.6250 C   0  0  0  0  0  0  0  0  0  0  0  0
  161.4020  198.6260  145.2780 C   0  0  0  0  0  1  0  0  0  0  0  0
  159.0430  199.3190  145.5370 C   0  0  0  0  0  1  0  0  0  0  0  0
  160.4720  199.8170  145.4050 C   0  0  0  0  0  0  0  0  0  0  0  0
  160.5730  200.6540  144.1410 C   0  0  0  0  0  1  0  0  0  0  0  0
  161.5780  204.6710  146.0740 C   0  0  0  0  0  2  0  0  0  0  0  0
  159.8960  204.3380  144.2930 C   0  0  0  0  0  1  0  0  0  0  0  0
  160.4000  205.2950  145.3530 C   0  0  0  0  0  2  0  0  0  0  0  0
  162.4420  209.5700  152.0830 C   0  0  0  0  0  2  0  0  0  0  0  0
  161.9720  210.7980  152.8630 C   0  0  0  0  0  2  0  0  0  0  0  0
  160.6280  210.5650  153.5510 C   0  0  2  0  0  3  0  0  0  0  0  0
  159.4930  210.7570  152.5500 C   0  0  0  0  0  1  0  0  0  0  0  0
  161.5570  211.3900  155.6260 O   0  0  0  0  0  1  0  0  0  0  0  0
  160.4420  211.4550  154.7860 C   0  0  2  0  0  3  0  0  0  0  0  0
  159.1980  211.1190  155.5590 C   0  0  0  0  0  0  0  0  0  0  0  0
  158.2210  212.1050  155.9180 N   0  0  0  0  0  2  0  0  0  0  0  0
  159.0170  209.9250  155.9150 O   0  0  0  0  0  0  0  0  0  0  0  0
  158.2930  213.5160  155.5580 C   0  0  2  0  0  3  0  0  0  0  0  0
  159.3500  214.1890  156.4150 C   0  0  0  0  0  1  0  0  0  0  0  0
  157.0550  214.1260  155.7800 O   0  0  0  0  0  0  0  0  0  0  0  0
  156.2000  213.0880  156.1550 C   0  0  0  0  0  1  0  0  0  0  0  0
  161.2900  210.3680  149.9610 C   0  0  0  0  0  2  0  0  0  0  0  0
  162.5200  210.6630  149.2410 N   0  0  0  0  0  2  0  0  0  0  0  0
  162.3730  211.9820  148.6410 C   0  0  0  0  0  2  0  0  0  0  0  0
  163.4070  212.2130  147.7310 O   0  0  0  0  0  0  0  0  0  0  0  0
  163.1110  213.4500  147.1590 C   0  0  0  0  0  2  0  0  0  0  0  0
  162.0770  214.2580  143.8650 N   0  0  0  0  0  2  0  0  0  0  0  0
  160.7210  213.9770  144.3140 C   0  0  2  0  0  3  0  0  0  0  0  0
  160.8340  212.9060  145.7630 S   0  0  0  0  0  0  0  0  0  0  0  0
  162.8310  214.4100  144.9840 O   0  0  0  0  0  0  0  0  0  0  0  0
  162.6110  213.2510  145.7390 C   0  0  1  0  0  3  0  0  0  0  0  0
  159.8910  213.3280  143.2050 C   0  0  2  0  0  3  0  0  0  0  0  0
  160.0720  211.6790  140.8960 O   0  0  0  0  0  0  0  0  0  0  0  0
  160.3580  213.7670  141.8940 N   0  0  0  0  0  2  0  0  0  0  0  0
  160.3600  212.8990  140.7580 C   0  0  0  0  0  0  0  0  0  0  0  0
  160.6720  213.4650  139.4020 C   0  0  2  0  0  3  0  0  0  0  0  0
  159.5200  211.8490  137.9040 C   0  0  0  0  0  1  0  0  0  0  0  0
  159.4830  213.2560  138.4770 C   0  0  0  0  0  2  0  0  0  0  0  0
  161.9230  212.8260  138.7990 C   0  0  0  0  0  2  0  0  0  0  0  0
  162.7370  213.8350  137.9990 C   0  0  0  0  0  2  0  0  0  0  0  0
  164.6370  212.7180  138.9260 O   0  0  0  0  0  1  0  0  0  0  0  0
  164.1490  213.9690  138.5450 C   0  0  0  0  0  2  0  0  0  0  0  0
  157.8990  214.3120  142.2530 O   0  0  0  0  0  1  0  0  0  0  0  0
  158.3980  213.6440  143.3730 C   0  0  2  0  0  3  0  0  0  0  0  0
  157.2300  213.6860  145.6150 C   0  0  0  0  0  1  0  0  0  0  0  0
  158.1070  214.4530  144.6370 C   0  0  0  0  0  2  0  0  0  0  0  0
  1 41  1  6  0  0  0
  1 28  1  0  0  0  0
  2  5  1  0  0  0  0
  2  1  1  6  0  0  0
  3  2  1  0  0  0  0
  4  9  1  0  0  0  0
  4  3  1  0  0  0  0
  5 10  1  0  0  0  0
  7  6  1  0  0  0  0
  7 17  1  0  0  0  0
  8 14  1  0  0  0  0
  9 20  1  0  0  0  0
 10 17  2  0  0  0  0
 12 19  1  0  0  0  0
 12 16  2  0  0  0  0
 13  9  2  0  0  0  0
 13  8  1  0  0  0  0
 14 20  1  0  0  0  0
 14  7  2  0  0  0  0
 15  8  1  0  0  0  0
 15 18  2  0  0  0  0
 16 18  1  0  0  0  0
 17 11  1  0  0  0  0
 19 15  1  0  0  0  0
 20  5  2  0  0  0  0
 21 23  1  0  0  0  0
 23 22  1  0  0  0  0
 23 12  1  0  0  0  0
 24 23  1  0  0  0  0
 25 13  1  0  0  0  0
 26 27  1  0  0  0  0
 27 25  1  0  0  0  0
 28 29  1  0  0  0  0
 29 30  1  0  0  0  0
 30 31  1  6  0  0  0
 30 33  1  0  0  0  0
 33 34  1  0  0  0  0
 33 32  1  1  0  0  0
 34 36  2  0  0  0  0
 34 35  1  0  0  0  0
 37 39  1  0  0  0  0
 37 35  1  0  0  0  0
 37 38  1  1  0  0  0
 39 40  1  0  0  0  0
 42 41  1  0  0  0  0
 43 42  1  0  0  0  0
 44 43  1  0  0  0  0
 45 44  1  0  0  0  0
 46 47  1  0  0  0  0
 46 49  1  0  0  0  0
 47 51  1  6  0  0  0
 47 48  1  0  0  0  0
 49 50  1  0  0  0  0
 50 48  1  0  0  0  0
 50 45  1  1  0  0  0
 51 53  1  6  0  0  0
 51 63  1  0  0  0  0
 54 52  2  0  0  0  0
 54 53  1  0  0  0  0
 55 57  1  6  0  0  0
 55 54  1  0  0  0  0
 56 57  1  0  0  0  0
 58 55  1  0  0  0  0
 59 61  1  0  0  0  0
 59 58  1  0  0  0  0
 61 60  1  0  0  0  0
 63 62  1  6  0  0  0
 63 65  1  0  0  0  0
 65 64  1  0  0  0  0
M  END
>  <MODEL>
1

>  <REMARK>
 VINA RESULT:      -3.1      0.000      0.000
  Name = 
  29 active torsions:
  status: ('A' for Active; 'I' for Inactive)
    1  A    between atoms: N_1  and  C_23
    2  A    between atoms: N_1  and  C_41
    3  A    between atoms: C_2  and  N_15
    4  A    between atoms: C_2  and  O_25
    5  A    between atoms: C_4  and  C_60
    6  A    between atoms: C_5  and  C_6
    7  A    between atoms: C_5  and  C_12
    8  A    between atoms: C_5  and  C_23
    9  A    between atoms: C_6  and  C_14
   10  A    between atoms: C_11  and  C_49
   11  A    between atoms: C_12  and  C_40
   12  A    between atoms: C_14  and  C_43
   13  A    between atoms: C_19  and  C_21
   14  A    between atoms: C_19  and  C_58
   15  A    between atoms: C_21  and  C_26
   16  A    between atoms: N_22  and  C_49
   17  A    between atoms: C_27  and  C_43
   18  A    between atoms: C_29  and  C_40
   19  A    between atoms: C_29  and  C_60
   20  A    between atoms: C_33  and  C_47
   21  A    between atoms: C_36  and  C_56
   22  A    between atoms: C_37  and  O_46
   23  A    between atoms: C_37  and  C_65
   24  A    between atoms: C_41  and  O_46
   25  A    between atoms: C_45  and  C_56
   26  A    between atoms: C_49  and  C_52
   27  A    between atoms: C_52  and  C_64
   28  A    between atoms: C_58  and  C_61
   29  A    between atoms: C_58  and  C_62
                            x       y       z     vdW  Elec       q    Type
                         _______ _______ _______ _____ _____    ______ ____

>  <TORSDO>
F 29

$$$$
=
 OpenBabel11042423003D

 65 68  0  0  1  0  0  0  0  0999 V2000
  162.5410  205.8150  148.9000 C   0  0  1  0  0  3  0  0  0  0  0  0
  162.8850  207.2880  149.1490 C   0  0  0  0  0  2  0  0  0  0  0  0
  161.7420  208.0600  149.8000 C   0  0  0  0  0  2  0  0  0  0  0  0
  162.2410  208.9640  150.9180 C   0  0  0  0  0  2  0  0  0  0  0  0
  161.7860  211.2410  148.7310 C   0  0  0  0  0  3  0  0  0  0  0  0
  159.2650  214.2770  150.2480 O   0  0  0  0  0  1  0  0  0  0  0  0
  160.1250  213.2950  149.7750 C   0  0  0  0  0  0  0  0  0  0  0  0
  160.1790  211.8990  151.8460 N   0  0  0  0  0  0  0  0  0  0  0  0
  161.4530  210.2330  151.0070 C   0  0  0  0  0  0  0  0  0  0  0  0
  161.4430  212.3500  147.9410 C   0  0  0  0  0  3  0  0  0  0  0  0
  160.2740  214.4440  147.6430 O   0  0  0  0  0  1  0  0  0  0  0  0
  158.2710  213.1840  154.4630 C   0  0  0  0  0  0  0  0  0  0  0  0
  160.7450  210.6920  152.1090 C   0  0  0  0  0  0  0  0  0  0  0  0
  160.5090  212.1960  150.5630 C   0  0  0  0  0  0  0  0  0  0  0  0
  159.4660  212.6960  152.8060 C   0  0  0  0  0  0  0  0  0  0  0  0
  158.8150  214.3570  153.9670 C   0  0  0  0  0  3  0  0  0  0  0  0
  160.6140  213.3680  148.4540 C   0  0  0  0  0  0  0  0  0  0  0  0
  159.5780  214.0370  152.9020 N   0  0  0  0  0  0  0  0  0  0  0  0
  158.6980  212.1820  153.7350 O   0  0  0  0  0  0  0  0  0  0  0  0
  161.2920  211.1940  150.0320 C   0  0  0  0  0  0  0  0  0  0  0  0
  156.9410  214.4140  156.1350 C   0  0  0  0  0  1  0  0  0  0  0  0
  156.1650  212.2010  155.3550 C   0  0  0  0  0  1  0  0  0  0  0  0
  157.3900  213.0410  155.6730 C   0  0  0  0  0  0  0  0  0  0  0  0
  158.1510  212.3680  156.8030 C   0  0  0  0  0  1  0  0  0  0  0  0
  160.7230  210.0160  153.4430 C   0  0  0  0  0  2  0  0  0  0  0  0
  161.7080  211.1420  155.4110 C   0  0  0  0  0  1  0  0  0  0  0  0
  162.0110  210.3000  154.1900 C   0  0  0  0  0  2  0  0  0  0  0  0
  161.2400  205.4040  149.5890 C   0  0  0  0  0  2  0  0  0  0  0  0
  160.6350  204.1260  149.0090 C   0  0  0  0  0  2  0  0  0  0  0  0
  160.0720  203.2100  150.0950 C   0  0  2  0  0  3  0  0  0  0  0  0
  160.9740  203.2490  151.3240 C   0  0  0  0  0  1  0  0  0  0  0  0
  159.3640  200.9570  150.6150 O   0  0  0  0  0  1  0  0  0  0  0  0
  159.8650  201.7740  149.5980 C   0  0  2  0  0  3  0  0  0  0  0  0
  161.1190  201.1720  149.0300 C   0  0  0  0  0  0  0  0  0  0  0  0
  161.3910  201.1380  147.6220 N   0  0  0  0  0  2  0  0  0  0  0  0
  161.9560  200.6670  149.8240 O   0  0  0  0  0  0  0  0  0  0  0  0
  160.5230  201.6990  146.5940 C   0  0  2  0  0  3  0  0  0  0  0  0
  159.0770  201.5120  147.0160 C   0  0  0  0  0  1  0  0  0  0  0  0
  160.7430  201.0430  145.3790 O   0  0  0  0  0  0  0  0  0  0  0  0
  159.6910  201.4430  144.5530 C   0  0  0  0  0  1  0  0  0  0  0  0
  162.5810  205.4140  147.4280 C   0  0  0  0  0  2  0  0  0  0  0  0
  161.6350  206.2150  146.6650 N   0  0  0  0  0  2  0  0  0  0  0  0
  160.9630  205.3270  145.7270 C   0  0  0  0  0  2  0  0  0  0  0  0
  160.6910  206.0040  144.5360 O   0  0  0  0  0  0  0  0  0  0  0  0
  161.7090  205.6170  143.6640 C   0  0  0  0  0  2  0  0  0  0  0  0
  162.1030  206.1920  140.1880 N   0  0  0  0  0  2  0  0  0  0  0  0
  162.5500  207.5300  140.5470 C   0  0  2  0  0  3  0  0  0  0  0  0
  161.9030  207.9020  142.1900 S   0  0  0  0  0  0  0  0  0  0  0  0
  162.1650  205.4470  141.3210 O   0  0  0  0  0  0  0  0  0  0  0  0
  161.4260  206.1580  142.2740 C   0  0  1  0  0  3  0  0  0  0  0  0
  162.0900  208.5660  139.5190 C   0  0  2  0  0  3  0  0  0  0  0  0
  162.9680  211.1970  140.1400 O   0  0  0  0  0  0  0  0  0  0  0  0
  161.2760  209.5930  140.1590 N   0  0  0  0  0  2  0  0  0  0  0  0
  161.7610  210.9190  140.3810 C   0  0  0  0  0  0  0  0  0  0  0  0
  160.8130  211.9770  140.8680 C   0  0  2  0  0  3  0  0  0  0  0  0
  161.2620  214.1210  139.6930 C   0  0  0  0  0  1  0  0  0  0  0  0
  161.5370  213.3120  140.9490 C   0  0  0  0  0  2  0  0  0  0  0  0
  160.2210  211.6190  142.2310 C   0  0  0  0  0  2  0  0  0  0  0  0
  160.5780  212.6580  143.2880 C   0  0  0  0  0  2  0  0  0  0  0  0
  158.5560  213.8510  142.8350 O   0  0  0  0  0  1  0  0  0  0  0  0
  159.3350  213.3170  143.8630 C   0  0  0  0  0  2  0  0  0  0  0  0
  162.0000  206.7940  137.8790 O   0  0  0  0  0  1  0  0  0  0  0  0
  161.3110  207.9020  138.3750 C   0  0  2  0  0  3  0  0  0  0  0  0
  162.1170  209.8750  137.0150 C   0  0  0  0  0  1  0  0  0  0  0  0
  160.9940  208.8730  137.2380 C   0  0  0  0  0  2  0  0  0  0  0  0
  1 41  1  6  0  0  0
  1  2  1  0  0  0  0
  1 28  1  0  0  0  0
  2  3  1  0  0  0  0
  3  4  1  0  0  0  0
  4  9  1  0  0  0  0
  5 20  1  0  0  0  0
  7  6  1  0  0  0  0
  7 14  1  0  0  0  0
  8 13  1  0  0  0  0
  8 15  1  0  0  0  0
  9 13  2  0  0  0  0
 10 17  1  0  0  0  0
 10  5  2  0  0  0  0
 11 17  1  0  0  0  0
 12 23  1  0  0  0  0
 13 25  1  0  0  0  0
 14  8  1  0  0  0  0
 15 18  2  0  0  0  0
 15 19  1  0  0  0  0
 16 12  2  0  0  0  0
 17  7  2  0  0  0  0
 18 16  1  0  0  0  0
 19 12  1  0  0  0  0
 20 14  2  0  0  0  0
 20  9  1  0  0  0  0
 22 23  1  0  0  0  0
 23 21  1  0  0  0  0
 23 24  1  0  0  0  0
 25 27  1  0  0  0  0
 27 26  1  0  0  0  0
 29 28  1  0  0  0  0
 29 30  1  0  0  0  0
 30 31  1  1  0  0  0
 33 30  1  0  0  0  0
 33 32  1  1  0  0  0
 34 33  1  0  0  0  0
 34 36  2  0  0  0  0
 35 34  1  0  0  0  0
 37 38  1  1  0  0  0
 37 35  1  0  0  0  0
 39 37  1  0  0  0  0
 40 39  1  0  0  0  0
 42 41  1  0  0  0  0
 43 42  1  0  0  0  0
 44 43  1  0  0  0  0
 45 44  1  0  0  0  0
 46 47  1  0  0  0  0
 46 49  1  0  0  0  0
 47 51  1  6  0  0  0
 47 48  1  0  0  0  0
 48 50  1  0  0  0  0
 49 50  1  0  0  0  0
 50 45  1  1  0  0  0
 51 53  1  1  0  0  0
 52 54  2  0  0  0  0
 53 54  1  0  0  0  0
 54 55  1  0  0  0  0
 55 57  1  1  0  0  0
 55 58  1  0  0  0  0
 56 57  1  0  0  0  0
 58 59  1  0  0  0  0
 59 61  1  0  0  0  0
 60 61  1  0  0  0  0
 63 62  1  6  0  0  0
 63 51  1  0  0  0  0
 64 65  1  0  0  0  0
 65 63  1  0  0  0  0
M  END
>  <MODEL>
2

>  <REMARK>
 VINA RESULT:      -3.0      2.831     10.124
  Name = 
  29 active torsions:
  status: ('A' for Active; 'I' for Inactive)
    1  A    between atoms: N_1  and  C_23
    2  A    between atoms: N_1  and  C_41
    3  A    between atoms: C_2  and  N_15
    4  A    between atoms: C_2  and  O_25
    5  A    between atoms: C_4  and  C_60
    6  A    between atoms: C_5  and  C_6
    7  A    between atoms: C_5  and  C_12
    8  A    between atoms: C_5  and  C_23
    9  A    between atoms: C_6  and  C_14
   10  A    between atoms: C_11  and  C_49
   11  A    between atoms: C_12  and  C_40
   12  A    between atoms: C_14  and  C_43
   13  A    between atoms: C_19  and  C_21
   14  A    between atoms: C_19  and  C_58
   15  A    between atoms: C_21  and  C_26
   16  A    between atoms: N_22  and  C_49
   17  A    between atoms: C_27  and  C_43
   18  A    between atoms: C_29  and  C_40
   19  A    between atoms: C_29  and  C_60
   20  A    between atoms: C_33  and  C_47
   21  A    between atoms: C_36  and  C_56
   22  A    between atoms: C_37  and  O_46
   23  A    between atoms: C_37  and  C_65
   24  A    between atoms: C_41  and  O_46
   25  A    between atoms: C_45  and  C_56
   26  A    between atoms: C_49  and  C_52
   27  A    between atoms: C_52  and  C_64
   28  A    between atoms: C_58  and  C_61
   29  A    between atoms: C_58  and  C_62
                            x       y       z     vdW  Elec       q    Type
                         _______ _______ _______ _____ _____    ______ ____

>  <TORSDO>
F 29

$$$$
=
 OpenBabel11042423003D

 65 69  0  0  1  0  0  0  0  0999 V2000
  161.6850  209.1290  150.8730 C   0  0  1  0  0  3  0  0  0  0  0  0
  162.0250  207.9540  149.9490 C   0  0  2  0  0  3  0  0  0  0  0  0
  162.0440  208.3470  148.4750 C   0  0  0  0  0  2  0  0  0  0  0  0
  161.1370  207.4510  147.6450 C   0  0  0  0  0  2  0  0  0  0  0  0
  161.0170  206.4330  150.6660 C   0  0  0  0  0  0  0  0  0  0  0  0
  160.8170  202.2110  150.8060 O   0  0  0  0  0  1  0  0  0  0  0  0
  160.9240  203.5950  150.7490 C   0  0  0  0  0  0  0  0  0  0  0  0
  161.0660  203.7980  148.2620 N   0  0  0  0  0  0  0  0  0  0  0  0
  161.0830  206.0550  148.1840 C   0  0  0  0  0  0  0  0  0  0  0  0
  160.9530  205.7570  151.8950 C   0  0  0  0  0  3  0  0  0  0  0  0
  160.8180  203.7090  153.1700 O   0  0  0  0  0  1  0  0  0  0  0  0
  160.9730  200.7420  146.5920 C   0  0  0  0  0  0  0  0  0  0  0  0
  161.0870  204.8810  147.4430 C   0  0  0  0  0  0  0  0  0  0  0  0
  161.0250  204.2860  149.5290 C   0  0  0  0  0  0  0  0  0  0  0  0
  161.1670  202.4340  147.8210 C   0  0  0  0  0  0  0  0  0  0  0  0
  161.7730  200.3990  147.6690 C   0  0  0  0  0  3  0  0  0  0  0  0
  160.9020  204.3500  151.9400 C   0  0  0  0  0  0  0  0  0  0  0  0
  161.8900  201.4880  148.4560 N   0  0  0  0  0  0  0  0  0  0  0  0
  160.6270  202.0000  146.7080 O   0  0  0  0  0  0  0  0  0  0  0  0
  161.0410  205.6640  149.5040 C   0  0  0  0  0  0  0  0  0  0  0  0
  161.8360  199.1250  144.9430 C   0  0  0  0  0  1  0  0  0  0  0  0
  159.5460  198.8490  145.8310 C   0  0  0  0  0  1  0  0  0  0  0  0
  160.6030  199.8630  145.4290 C   0  0  0  0  0  0  0  0  0  0  0  0
  160.0530  200.7010  144.2880 C   0  0  0  0  0  1  0  0  0  0  0  0
  161.2310  204.8180  145.9560 C   0  0  0  0  0  2  0  0  0  0  0  0
  163.1000  206.0230  144.8750 C   0  0  0  0  0  1  0  0  0  0  0  0
  162.6970  204.7440  145.5790 C   0  0  0  0  0  2  0  0  0  0  0  0
  162.7370  209.3250  151.9640 C   0  0  0  0  0  2  0  0  0  0  0  0
  162.3310  210.3700  153.0020 C   0  0  0  0  0  2  0  0  0  0  0  0
  161.4320  209.7840  154.0910 C   0  0  2  0  0  3  0  0  0  0  0  0
  160.3830  208.8730  153.4610 C   0  0  0  0  0  1  0  0  0  0  0  0
  161.6950  211.3850  155.8840 O   0  0  0  0  0  1  0  0  0  0  0  0
  160.7830  210.8680  154.9590 C   0  0  2  0  0  3  0  0  0  0  0  0
  159.5540  210.3800  155.6710 C   0  0  0  0  0  0  0  0  0  0  0  0
  158.2850  211.0380  155.5620 N   0  0  0  0  0  2  0  0  0  0  0  0
  159.6490  209.3590  156.4020 O   0  0  0  0  0  0  0  0  0  0  0  0
  158.0270  212.2150  154.7410 C   0  0  2  0  0  3  0  0  0  0  0  0
  158.9690  213.3270  155.1640 C   0  0  0  0  0  1  0  0  0  0  0  0
  156.7040  212.6330  154.9150 O   0  0  0  0  0  0  0  0  0  0  0  0
  156.0990  211.6250  155.6670 C   0  0  0  0  0  1  0  0  0  0  0  0
  161.3560  210.4210  150.1300 C   0  0  0  0  0  2  0  0  0  0  0  0
  162.5320  210.9030  149.4210 N   0  0  0  0  0  2  0  0  0  0  0  0
  162.1980  212.1980  148.8440 C   0  0  0  0  0  2  0  0  0  0  0  0
  163.1250  212.5360  147.8550 O   0  0  0  0  0  0  0  0  0  0  0  0
  162.5180  213.5620  147.1310 C   0  0  0  0  0  2  0  0  0  0  0  0
  161.8610  213.7230  143.6500 N   0  0  0  0  0  2  0  0  0  0  0  0
  160.4860  213.3800  143.9810 C   0  0  2  0  0  3  0  0  0  0  0  0
  160.4960  212.5710  145.5950 S   0  0  0  0  0  0  0  0  0  0  0  0
  162.4470  214.1280  144.8070 O   0  0  0  0  0  0  0  0  0  0  0  0
  162.2260  213.0880  145.7180 C   0  0  1  0  0  3  0  0  0  0  0  0
  159.8640  212.4790  142.9110 C   0  0  2  0  0  3  0  0  0  0  0  0
  159.9520  211.4370  140.2680 O   0  0  0  0  0  0  0  0  0  0  0  0
  160.8450  211.5180  142.4200 N   0  0  0  0  0  2  0  0  0  0  0  0
  160.8710  211.0860  141.0570 C   0  0  0  0  0  0  0  0  0  0  0  0
  162.0190  210.2460  140.5730 C   0  0  2  0  0  3  0  0  0  0  0  0
  162.8890  211.0220  138.3780 C   0  0  0  0  0  1  0  0  0  0  0  0
  163.0450  211.1330  139.8860 C   0  0  0  0  0  2  0  0  0  0  0  0
  161.5490  209.1490  139.6180 C   0  0  0  0  0  2  0  0  0  0  0  0
  162.6680  208.1620  139.3070 C   0  0  0  0  0  2  0  0  0  0  0  0
  162.2260  205.8980  138.6770 O   0  0  0  0  0  1  0  0  0  0  0  0
  162.3160  206.7580  139.7730 C   0  0  0  0  0  2  0  0  0  0  0  0
  160.2330  214.2510  141.3100 O   0  0  0  0  0  1  0  0  0  0  0  0
  159.3010  213.3090  141.7490 C   0  0  2  0  0  3  0  0  0  0  0  0
  157.9490  214.4410  143.5600 C   0  0  0  0  0  1  0  0  0  0  0  0
  157.9860  214.0020  142.1050 C   0  0  0  0  0  2  0  0  0  0  0  0
  1 41  1  6  0  0  0
  1 28  1  0  0  0  0
  2  5  1  0  0  0  0
  2  1  1  1  0  0  0
  3  2  1  0  0  0  0
  4  9  1  0  0  0  0
  4  3  1  0  0  0  0
  5 10  1  0  0  0  0
  7  6  1  0  0  0  0
  7 17  1  0  0  0  0
  8 14  1  0  0  0  0
  9 20  1  0  0  0  0
 10 17  2  0  0  0  0
 12 19  1  0  0  0  0
 12 16  2  0  0  0  0
 13  9  2  0  0  0  0
 13  8  1  0  0  0  0
 14  7  2  0  0  0  0
 15  8  1  0  0  0  0
 15 18  2  0  0  0  0
 16 18  1  0  0  0  0
 17 11  1  0  0  0  0
 19 15  1  0  0  0  0
 20 14  1  0  0  0  0
 20  5  2  0  0  0  0
 21 23  1  0  0  0  0
 23 22  1  0  0  0  0
 23 12  1  0  0  0  0
 24 23  1  0  0  0  0
 25 13  1  0  0  0  0
 26 27  1  0  0  0  0
 27 25  1  0  0  0  0
 28 29  1  0  0  0  0
 29 30  1  0  0  0  0
 30 31  1  6  0  0  0
 30 33  1  0  0  0  0
 33 34  1  0  0  0  0
 33 32  1  1  0  0  0
 34 36  2  0  0  0  0
 35 34  1  0  0  0  0
 37 39  1  0  0  0  0
 37 38  1  1  0  0  0
 37 35  1  0  0  0  0
 39 40  1  0  0  0  0
 42 41  1  0  0  0  0
 43 42  1  0  0  0  0
 44 43  1  0  0  0  0
 45 44  1  0  0  0  0
 46 47  1  0  0  0  0
 46 49  1  0  0  0  0
 47 51  1  6  0  0  0
 47 48  1  0  0  0  0
 48 50  1  0  0  0  0
 49 50  1  0  0  0  0
 50 45  1  1  0  0  0
 51 53  1  6  0  0  0
 52 54  2  0  0  0  0
 54 53  1  0  0  0  0
 55 58  1  6  0  0  0
 55 54  1  0  0  0  0
 56 57  1  0  0  0  0
 57 55  1  0  0  0  0
 59 58  1  0  0  0  0
 59 61  1  0  0  0  0
 60 61  1  0  0  0  0
 63 62  1  1  0  0  0
 63 65  1  0  0  0  0
 63 51  1  0  0  0  0
 65 64  1  0  0  0  0
M  END
>  <MODEL>
3

>  <REMARK>
 VINA RESULT:      -2.1      1.680      2.079
  Name = 
  29 active torsions:
  status: ('A' for Active; 'I' for Inactive)
    1  A    between atoms: N_1  and  C_23
    2  A    between atoms: N_1  and  C_41
    3  A    between atoms: C_2  and  N_15
    4  A    between atoms: C_2  and  O_25
    5  A    between atoms: C_4  and  C_60
    6  A    between atoms: C_5  and  C_6
    7  A    between atoms: C_5  and  C_12
    8  A    between atoms: C_5  and  C_23
    9  A    between atoms: C_6  and  C_14
   10  A    between atoms: C_11  and  C_49
   11  A    between atoms: C_12  and  C_40
   12  A    between atoms: C_14  and  C_43
   13  A    between atoms: C_19  and  C_21
   14  A    between atoms: C_19  and  C_58
   15  A    between atoms: C_21  and  C_26
   16  A    between atoms: N_22  and  C_49
   17  A    between atoms: C_27  and  C_43
   18  A    between atoms: C_29  and  C_40
   19  A    between atoms: C_29  and  C_60
   20  A    between atoms: C_33  and  C_47
   21  A    between atoms: C_36  and  C_56
   22  A    between atoms: C_37  and  O_46
   23  A    between atoms: C_37  and  C_65
   24  A    between atoms: C_41  and  O_46
   25  A    between atoms: C_45  and  C_56
   26  A    between atoms: C_49  and  C_52
   27  A    between atoms: C_52  and  C_64
   28  A    between atoms: C_58  and  C_61
   29  A    between atoms: C_58  and  C_62
                            x       y       z     vdW  Elec       q    Type
                         _______ _______ _______ _____ _____    ______ ____

>  <TORSDO>
F 29

$$$$
=
 OpenBabel11042423003D

 65 68  0  0  1  0  0  0  0  0999 V2000
  161.9700  210.4080  152.3780 C   0  0  1  0  0  3  0  0  0  0  0  0
  161.3250  211.7980  152.4270 C   0  0  0  0  0  2  0  0  0  0  0  0
  160.4170  212.0700  151.2310 C   0  0  0  0  0  2  0  0  0  0  0  0
  161.1220  211.7730  149.9150 C   0  0  0  0  0  2  0  0  0  0  0  0
  158.1520  212.9280  149.7560 C   0  0  0  0  0  3  0  0  0  0  0  0
  157.2610  214.2020  145.8240 O   0  0  0  0  0  1  0  0  0  0  0  0
  157.5510  213.7430  147.1020 C   0  0  0  0  0  0  0  0  0  0  0  0
  159.8570  212.9100  146.6230 N   0  0  0  0  0  0  0  0  0  0  0  0
  160.3660  212.3120  148.7410 C   0  0  0  0  0  0  0  0  0  0  0  0
  156.8980  213.4770  149.4460 C   0  0  0  0  0  3  0  0  0  0  0  0
  155.3550  214.4450  147.8580 O   0  0  0  0  0  1  0  0  0  0  0  0
  160.8430  213.3200  143.3060 C   0  0  0  0  0  0  0  0  0  0  0  0
  160.8240  212.4070  147.4350 C   0  0  0  0  0  0  0  0  0  0  0  0
  158.7880  213.1580  147.4230 C   0  0  0  0  0  0  0  0  0  0  0  0
  159.9700  213.0400  145.1960 C   0  0  0  0  0  0  0  0  0  0  0  0
  159.5250  212.9420  143.1170 C   0  0  0  0  0  3  0  0  0  0  0  0
  156.5980  213.8870  148.1320 C   0  0  0  0  0  0  0  0  0  0  0  0
  158.9690  212.7670  144.3330 N   0  0  0  0  0  0  0  0  0  0  0  0
  161.0890  213.3610  144.5930 O   0  0  0  0  0  0  0  0  0  0  0  0
  159.0750  212.7940  148.7210 C   0  0  0  0  0  0  0  0  0  0  0  0
  161.2090  214.2860  141.0680 C   0  0  0  0  0  1  0  0  0  0  0  0
  162.9950  214.4500  142.7680 C   0  0  0  0  0  1  0  0  0  0  0  0
  161.8680  213.5810  142.2370 C   0  0  0  0  0  0  0  0  0  0  0  0
  162.4630  212.2720  141.7470 C   0  0  0  0  0  1  0  0  0  0  0  0
  162.1490  211.9000  146.9630 C   0  0  0  0  0  2  0  0  0  0  0  0
  162.8350  214.0540  147.9620 C   0  0  0  0  0  1  0  0  0  0  0  0
  163.1430  213.0410  146.8800 C   0  0  0  0  0  2  0  0  0  0  0  0
  162.7600  210.0970  153.6490 C   0  0  0  0  0  2  0  0  0  0  0  0
  162.0470  209.1060  154.5670 C   0  0  0  0  0  2  0  0  0  0  0  0
  161.6960  209.7230  155.9210 C   0  0  2  0  0  3  0  0  0  0  0  0
  161.6020  208.6290  156.9800 C   0  0  0  0  0  1  0  0  0  0  0  0
  160.0070  210.7740  154.5460 O   0  0  0  0  0  1  0  0  0  0  0  0
  160.4120  210.5600  155.8660 C   0  0  2  0  0  3  0  0  0  0  0  0
  160.5490  211.8750  156.5790 C   0  0  0  0  0  0  0  0  0  0  0  0
  159.4400  212.5330  157.2070 N   0  0  0  0  0  2  0  0  0  0  0  0
  161.6810  212.4250  156.6140 O   0  0  0  0  0  0  0  0  0  0  0  0
  158.0820  212.0050  157.2600 C   0  0  2  0  0  3  0  0  0  0  0  0
  158.1420  210.4890  157.2170 C   0  0  0  0  0  1  0  0  0  0  0  0
  157.3490  212.4750  156.1660 O   0  0  0  0  0  0  0  0  0  0  0  0
  156.0140  212.2250  156.4890 C   0  0  0  0  0  1  0  0  0  0  0  0
  161.0010  209.2920  151.9980 C   0  0  0  0  0  2  0  0  0  0  0  0
  161.5800  208.4610  150.9530 N   0  0  0  0  0  2  0  0  0  0  0  0
  161.8380  207.1480  151.5280 C   0  0  0  0  0  2  0  0  0  0  0  0
  160.6450  206.4310  151.6410 O   0  0  0  0  0  0  0  0  0  0  0  0
  160.9720  205.3080  152.4000 C   0  0  0  0  0  2  0  0  0  0  0  0
  162.2420  202.5120  150.6270 N   0  0  0  0  0  2  0  0  0  0  0  0
  162.0550  203.3020  149.4190 C   0  0  2  0  0  3  0  0  0  0  0  0
  160.8240  204.5720  149.7800 S   0  0  0  0  0  0  0  0  0  0  0  0
  162.1900  203.3820  151.6690 O   0  0  0  0  0  0  0  0  0  0  0  0
  160.9840  204.0760  151.5130 C   0  0  1  0  0  3  0  0  0  0  0  0
  161.6210  202.4250  148.2420 C   0  0  2  0  0  3  0  0  0  0  0  0
  162.5130  204.3310  146.3310 O   0  0  0  0  0  0  0  0  0  0  0  0
  160.7560  203.1750  147.3380 N   0  0  0  0  0  2  0  0  0  0  0  0
  161.2790  204.0700  146.3540 C   0  0  0  0  0  0  0  0  0  0  0  0
  160.3510  204.6630  145.3320 C   0  0  2  0  0  3  0  0  0  0  0  0
  159.3830  202.4390  144.7890 C   0  0  0  0  0  1  0  0  0  0  0  0
  160.1010  203.6530  144.2240 C   0  0  0  0  0  2  0  0  0  0  0  0
  160.9130  205.9570  144.7450 C   0  0  0  0  0  2  0  0  0  0  0  0
  162.0270  205.6800  143.7440 C   0  0  0  0  0  2  0  0  0  0  0  0
  162.6440  206.0550  141.4640 O   0  0  0  0  0  1  0  0  0  0  0  0
  161.5510  205.8740  142.3130 C   0  0  0  0  0  2  0  0  0  0  0  0
  161.4380  200.0190  148.1110 O   0  0  0  0  0  1  0  0  0  0  0  0
  160.9110  201.1540  148.7300 C   0  0  2  0  0  3  0  0  0  0  0  0
  158.6380  200.6520  149.7170 C   0  0  0  0  0  1  0  0  0  0  0  0
  159.3990  201.2090  148.5230 C   0  0  0  0  0  2  0  0  0  0  0  0
  1 41  1  1  0  0  0
  1  2  1  0  0  0  0
  1 28  1  0  0  0  0
  3  2  1  0  0  0  0
  4  3  1  0  0  0  0
  6  7  1  0  0  0  0
  7 14  2  0  0  0  0
  7 17  1  0  0  0  0
  8 14  1  0  0  0  0
  8 13  1  0  0  0  0
  9  4  1  0  0  0  0
 10  5  1  0  0  0  0
 11 17  1  0  0  0  0
 12 19  1  0  0  0  0
 13  9  2  0  0  0  0
 14 20  1  0  0  0  0
 15  8  1  0  0  0  0
 16 12  2  0  0  0  0
 16 18  1  0  0  0  0
 17 10  2  0  0  0  0
 18 15  2  0  0  0  0
 19 15  1  0  0  0  0
 20  9  1  0  0  0  0
 20  5  2  0  0  0  0
 21 23  1  0  0  0  0
 23 22  1  0  0  0  0
 23 12  1  0  0  0  0
 24 23  1  0  0  0  0
 25 13  1  0  0  0  0
 27 25  1  0  0  0  0
 27 26  1  0  0  0  0
 28 29  1  0  0  0  0
 29 30  1  0  0  0  0
 30 31  1  1  0  0  0
 33 32  1  6  0  0  0
 33 30  1  0  0  0  0
 33 34  1  0  0  0  0
 34 36  2  0  0  0  0
 34 35  1  0  0  0  0
 35 37  1  0  0  0  0
 37 38  1  6  0  0  0
 39 40  1  0  0  0  0
 39 37  1  0  0  0  0
 42 43  1  0  0  0  0
 42 41  1  0  0  0  0
 43 44  1  0  0  0  0
 44 45  1  0  0  0  0
 46 49  1  0  0  0  0
 47 51  1  6  0  0  0
 47 48  1  0  0  0  0
 47 46  1  0  0  0  0
 48 50  1  0  0  0  0
 50 49  1  0  0  0  0
 50 45  1  1  0  0  0
 51 53  1  6  0  0  0
 51 63  1  0  0  0  0
 52 54  2  0  0  0  0
 54 53  1  0  0  0  0
 55 57  1  6  0  0  0
 55 54  1  0  0  0  0
 57 56  1  0  0  0  0
 58 55  1  0  0  0  0
 59 58  1  0  0  0  0
 60 61  1  0  0  0  0
 61 59  1  0  0  0  0
 63 62  1  6  0  0  0
 65 63  1  0  0  0  0
 65 64  1  0  0  0  0
M  END
>  <MODEL>
4

>  <REMARK>
 VINA RESULT:      -1.2      2.651      9.662
  Name = 
  29 active torsions:
  status: ('A' for Active; 'I' for Inactive)
    1  A    between atoms: N_1  and  C_23
    2  A    between atoms: N_1  and  C_41
    3  A    between atoms: C_2  and  N_15
    4  A    between atoms: C_2  and  O_25
    5  A    between atoms: C_4  and  C_60
    6  A    between atoms: C_5  and  C_6
    7  A    between atoms: C_5  and  C_12
    8  A    between atoms: C_5  and  C_23
    9  A    between atoms: C_6  and  C_14
   10  A    between atoms: C_11  and  C_49
   11  A    between atoms: C_12  and  C_40
   12  A    between atoms: C_14  and  C_43
   13  A    between atoms: C_19  and  C_21
   14  A    between atoms: C_19  and  C_58
   15  A    between atoms: C_21  and  C_26
   16  A    between atoms: N_22  and  C_49
   17  A    between atoms: C_27  and  C_43
   18  A    between atoms: C_29  and  C_40
   19  A    between atoms: C_29  and  C_60
   20  A    between atoms: C_33  and  C_47
   21  A    between atoms: C_36  and  C_56
   22  A    between atoms: C_37  and  O_46
   23  A    between atoms: C_37  and  C_65
   24  A    between atoms: C_41  and  O_46
   25  A    between atoms: C_45  and  C_56
   26  A    between atoms: C_49  and  C_52
   27  A    between atoms: C_52  and  C_64
   28  A    between atoms: C_58  and  C_61
   29  A    between atoms: C_58  and  C_62
                            x       y       z     vdW  Elec       q    Type
                         _______ _______ _______ _____ _____    ______ ____

>  <TORSDO>
F 29

$$$$
