=
 OpenBabel11042420073D

 30 34  0  0  1  0  0  0  0  0999 V2000
  160.9440  205.1140  150.2000 N   0  0  0  0  0  0  0  0  0  0  0  0
  161.1730  201.5730  148.7360 C   0  0  0  0  0  0  0  0  0  0  0  0
  161.0000  203.7330  149.8190 C   0  0  0  0  0  0  0  0  0  0  0  0
  161.5510  206.6490  152.0390 C   0  0  1  0  0  3  0  0  0  0  0  0
  161.0460  206.1640  149.1870 C   0  0  0  0  0  2  0  0  0  0  0  0
  161.3120  200.4510  147.8740 N   0  0  0  0  0  1  0  0  0  0  0  0
  161.2520  203.1760  148.2450 S   0  0  0  0  0  0  0  0  0  0  0  0
  161.0190  207.5380  149.8460 C   0  0  0  0  0  2  0  0  0  0  0  0
  160.6690  205.4720  151.5890 C   0  0  0  0  0  2  0  0  0  0  0  0
  161.9860  207.5640  150.9550 N   0  0  1  0  0  0  0  0  0  0  0  0
  161.2790  208.7350  152.8430 N   0  0  0  0  0  0  0  0  0  0  0  0
  162.0480  208.8730  151.6240 C   0  0  2  0  0  3  0  0  0  0  0  0
  160.8750  207.4180  153.0790 N   0  0  0  0  0  2  0  0  0  0  0  0
  160.9570  201.4990  150.1030 C   0  0  0  0  0  3  0  0  0  0  0  0
  160.8600  202.7170  150.7020 N   0  0  0  0  0  0  0  0  0  0  0  0
  160.2940  210.8080  153.7960 C   0  0  0  0  0  0  0  0  0  0  0  0
  161.2060  209.7450  153.8680 C   0  0  0  0  0  0  0  0  0  0  0  0
  158.6740  212.3790  153.2210 N   0  0  0  0  0  0  0  0  0  0  0  0
  159.2940  211.1490  152.7210 C   0  0  0  0  0  2  0  0  0  0  0  0
  161.9750  210.6870  155.9880 C   0  0  0  0  0  3  0  0  0  0  0  0
  162.0560  209.6960  154.9920 C   0  0  0  0  0  3  0  0  0  0  0  0
  160.2580  211.7510  154.7980 C   0  0  0  0  0  0  0  0  0  0  0  0
  157.6320  213.1240  152.5350 C   0  0  0  0  0  1  0  0  0  0  0  0
  161.0770  211.7060  155.8780 N   0  0  0  0  0  0  0  0  0  0  0  0
  158.9530  213.7430  155.1470 O   0  0  0  0  0  0  0  0  0  0  0  0
  159.2630  212.7310  154.4650 C   0  0  0  0  0  0  0  0  0  0  0  0
  161.5730  210.0670  150.7840 C   0  0  0  0  0  2  0  0  0  0  0  0
  162.4470  210.2410  149.6390 N   0  0  0  0  0  2  0  0  0  0  0  0
  162.1470  211.2050  148.6700 C   0  0  0  0  0  0  0  0  0  0  0  0
  161.8990  212.0040  147.8700 N   0  0  0  0  0  0  0  0  0  0  0  0
  1  9  1  0  0  0  0
  2 14  2  0  0  0  0
  3  1  1  0  0  0  0
  3 15  2  0  0  0  0
  4  9  1  6  0  0  0
  4 13  1  0  0  0  0
  5  8  1  0  0  0  0
  5  1  1  0  0  0  0
  6  2  1  0  0  0  0
  7  2  1  0  0  0  0
  7  3  1  0  0  0  0
 10  8  1  6  0  0  0
 10 12  1  0  0  0  0
 10  4  1  0  0  0  0
 11 13  1  0  0  0  0
 11 17  1  0  0  0  0
 12 27  1  6  0  0  0
 12 11  1  0  0  0  0
 14 15  1  0  0  0  0
 16 17  2  0  0  0  0
 16 22  1  0  0  0  0
 17 21  1  0  0  0  0
 18 26  1  0  0  0  0
 19 18  1  0  0  0  0
 19 16  1  0  0  0  0
 21 20  2  0  0  0  0
 22 24  2  0  0  0  0
 23 18  1  0  0  0  0
 24 20  1  0  0  0  0
 26 22  1  0  0  0  0
 26 25  2  0  0  0  0
 28 27  1  0  0  0  0
 29 28  1  0  0  0  0
 30 29  3  0  0  0  0
M  END
>  <MODEL>
1

>  <REMARK>
 VINA RESULT:      -7.4      0.000      0.000
  Name = 
  4 active torsions:
  status: ('A' for Active; 'I' for Inactive)
    1  A    between atoms: C_6  and  N_8
    2  A    between atoms: N_8  and  C_24
    3  A    between atoms: C_11  and  N_18
    4  A    between atoms: C_20  and  C_24
                            x       y       z     vdW  Elec       q    Type
                         _______ _______ _______ _____ _____    ______ ____

>  <TORSDO>
F 4

$$$$
=
 OpenBabel11042420073D

 30 34  0  0  1  0  0  0  0  0999 V2000
  160.9230  204.7150  149.1400 N   0  0  0  0  0  0  0  0  0  0  0  0
  161.2750  201.0760  147.9690 C   0  0  0  0  0  0  0  0  0  0  0  0
  161.0050  203.3090  148.8680 C   0  0  0  0  0  0  0  0  0  0  0  0
  161.3400  206.3780  150.9200 C   0  0  1  0  0  3  0  0  0  0  0  0
  161.1450  205.6880  148.0720 C   0  0  0  0  0  2  0  0  0  0  0  0
  161.4960  199.8940  147.2100 N   0  0  0  0  0  1  0  0  0  0  0  0
  161.4230  202.6390  147.3760 S   0  0  0  0  0  0  0  0  0  0  0  0
  161.0610  207.1060  148.6240 C   0  0  0  0  0  2  0  0  0  0  0  0
  160.5010  205.1730  150.4610 C   0  0  0  0  0  2  0  0  0  0  0  0
  161.9000  207.2110  149.8280 N   0  0  1  0  0  0  0  0  0  0  0  0
  161.0030  208.5170  151.5370 N   0  0  0  0  0  0  0  0  0  0  0  0
  161.9020  208.5650  150.4040 C   0  0  2  0  0  3  0  0  0  0  0  0
  160.5620  207.2210  151.8220 N   0  0  0  0  0  2  0  0  0  0  0  0
  160.9090  201.1020  149.3050 C   0  0  0  0  0  3  0  0  0  0  0  0
  160.7600  202.3600  149.8010 N   0  0  0  0  0  0  0  0  0  0  0  0
  160.9040  209.4000  153.8590 C   0  0  0  0  0  0  0  0  0  0  0  0
  160.8280  209.5990  152.4730 C   0  0  0  0  0  0  0  0  0  0  0  0
  161.0700  208.5810  156.0330 N   0  0  0  0  0  0  0  0  0  0  0  0
  161.1240  208.1300  154.6400 C   0  0  0  0  0  2  0  0  0  0  0  0
  160.4080  211.9610  152.9410 C   0  0  0  0  0  3  0  0  0  0  0  0
  160.5760  210.9100  152.0190 C   0  0  0  0  0  3  0  0  0  0  0  0
  160.7310  210.4630  154.7160 C   0  0  0  0  0  0  0  0  0  0  0  0
  161.2220  207.7200  157.1930 C   0  0  0  0  0  1  0  0  0  0  0  0
  160.4860  211.7240  154.2820 N   0  0  0  0  0  0  0  0  0  0  0  0
  160.7240  210.6690  157.1140 O   0  0  0  0  0  0  0  0  0  0  0  0
  160.8310  209.9810  156.0640 C   0  0  0  0  0  0  0  0  0  0  0  0
  161.5340  209.6960  149.4330 C   0  0  0  0  0  2  0  0  0  0  0  0
  162.5660  210.7160  149.4530 N   0  0  0  0  0  2  0  0  0  0  0  0
  162.4800  211.8140  148.5900 C   0  0  0  0  0  0  0  0  0  0  0  0
  162.4100  212.7230  147.8770 N   0  0  0  0  0  0  0  0  0  0  0  0
  1  9  1  0  0  0  0
  2 14  2  0  0  0  0
  3  1  1  0  0  0  0
  3 15  2  0  0  0  0
  4  9  1  6  0  0  0
  4 13  1  0  0  0  0
  5  8  1  0  0  0  0
  5  1  1  0  0  0  0
  6  2  1  0  0  0  0
  7  2  1  0  0  0  0
  7  3  1  0  0  0  0
 10  8  1  6  0  0  0
 10 12  1  0  0  0  0
 10  4  1  0  0  0  0
 11 13  1  0  0  0  0
 11 17  1  0  0  0  0
 12 27  1  6  0  0  0
 12 11  1  0  0  0  0
 14 15  1  0  0  0  0
 16 19  1  0  0  0  0
 16 22  1  0  0  0  0
 17 16  2  0  0  0  0
 18 26  1  0  0  0  0
 18 23  1  0  0  0  0
 19 18  1  0  0  0  0
 20 24  1  0  0  0  0
 21 17  1  0  0  0  0
 21 20  2  0  0  0  0
 22 26  1  0  0  0  0
 24 22  2  0  0  0  0
 26 25  2  0  0  0  0
 27 28  1  0  0  0  0
 29 28  1  0  0  0  0
 30 29  3  0  0  0  0
M  END
>  <MODEL>
2

>  <REMARK>
 VINA RESULT:      -7.2      1.564      2.549
  Name = 
  4 active torsions:
  status: ('A' for Active; 'I' for Inactive)
    1  A    between atoms: C_6  and  N_8
    2  A    between atoms: N_8  and  C_24
    3  A    between atoms: C_11  and  N_18
    4  A    between atoms: C_20  and  C_24
                            x       y       z     vdW  Elec       q    Type
                         _______ _______ _______ _____ _____    ______ ____

>  <TORSDO>
F 4

$$$$
=
 OpenBabel11042420073D

 30 34  0  0  1  0  0  0  0  0999 V2000
  161.8050  206.2010  149.6810 N   0  0  0  0  0  0  0  0  0  0  0  0
  161.6250  204.6410  146.1780 C   0  0  0  0  0  0  0  0  0  0  0  0
  161.7590  205.7840  148.3100 C   0  0  0  0  0  0  0  0  0  0  0  0
  161.1190  208.0460  151.1750 C   0  0  1  0  0  3  0  0  0  0  0  0
  161.7600  205.2100  150.7560 C   0  0  0  0  0  2  0  0  0  0  0  0
  161.5210  203.7460  145.0780 N   0  0  0  0  0  1  0  0  0  0  0  0
  161.5810  204.1860  147.7920 S   0  0  0  0  0  0  0  0  0  0  0  0
  161.7630  205.9030  152.1120 C   0  0  0  0  0  2  0  0  0  0  0  0
  162.0140  207.6100  150.0030 C   0  0  0  0  0  2  0  0  0  0  0  0
  160.7430  206.9640  152.1190 N   0  0  1  0  0  0  0  0  0  0  0  0
  161.3640  208.9130  153.2390 N   0  0  0  0  0  0  0  0  0  0  0  0
  160.6580  207.6620  153.4120 C   0  0  2  0  0  3  0  0  0  0  0  0
  161.7470  209.1360  151.9130 N   0  0  0  0  0  2  0  0  0  0  0  0
  161.7730  206.0150  146.0690 C   0  0  0  0  0  3  0  0  0  0  0  0
  161.8480  206.6470  147.2710 N   0  0  0  0  0  0  0  0  0  0  0  0
  160.3870  210.9390  154.2980 C   0  0  0  0  0  0  0  0  0  0  0  0
  161.3940  209.9650  154.2230 C   0  0  0  0  0  0  0  0  0  0  0  0
  158.5440  212.3300  154.0020 N   0  0  0  0  0  0  0  0  0  0  0  0
  159.1700  211.1350  153.4310 C   0  0  0  0  0  2  0  0  0  0  0  0
  162.4650  211.0780  156.1170 C   0  0  0  0  0  3  0  0  0  0  0  0
  162.4460  210.0480  155.1580 C   0  0  0  0  0  3  0  0  0  0  0  0
  160.4560  211.9250  155.2550 C   0  0  0  0  0  0  0  0  0  0  0  0
  157.3220  212.9440  153.5110 C   0  0  0  0  0  1  0  0  0  0  0  0
  161.4680  212.0080  156.1530 N   0  0  0  0  0  0  0  0  0  0  0  0
  159.0570  213.8100  155.7880 O   0  0  0  0  0  0  0  0  0  0  0  0
  159.3250  212.7950  155.0920 C   0  0  0  0  0  0  0  0  0  0  0  0
  161.1810  206.8750  154.6230 C   0  0  0  0  0  2  0  0  0  0  0  0
  160.1640  206.8310  155.6570 N   0  0  0  0  0  2  0  0  0  0  0  0
  160.0110  207.9090  156.5350 C   0  0  0  0  0  0  0  0  0  0  0  0
  159.8850  208.8020  157.2610 N   0  0  0  0  0  0  0  0  0  0  0  0
  1  9  1  0  0  0  0
  1  5  1  0  0  0  0
  2  7  1  0  0  0  0
  3  1  1  0  0  0  0
  4  9  1  6  0  0  0
  4 13  1  0  0  0  0
  4 10  1  0  0  0  0
  5  8  1  0  0  0  0
  6  2  1  0  0  0  0
  7  3  1  0  0  0  0
 10  8  1  1  0  0  0
 10 12  1  0  0  0  0
 11 12  1  0  0  0  0
 11 17  1  0  0  0  0
 12 27  1  1  0  0  0
 13 11  1  0  0  0  0
 14  2  2  0  0  0  0
 14 15  1  0  0  0  0
 15  3  2  0  0  0  0
 16 22  1  0  0  0  0
 17 16  2  0  0  0  0
 17 21  1  0  0  0  0
 18 26  1  0  0  0  0
 19 18  1  0  0  0  0
 19 16  1  0  0  0  0
 20 24  1  0  0  0  0
 21 20  2  0  0  0  0
 22 24  2  0  0  0  0
 23 18  1  0  0  0  0
 26 22  1  0  0  0  0
 26 25  2  0  0  0  0
 27 28  1  0  0  0  0
 28 29  1  0  0  0  0
 29 30  3  0  0  0  0
M  END
>  <MODEL>
3

>  <REMARK>
 VINA RESULT:      -7.0      2.141      3.710
  Name = 
  4 active torsions:
  status: ('A' for Active; 'I' for Inactive)
    1  A    between atoms: C_6  and  N_8
    2  A    between atoms: N_8  and  C_24
    3  A    between atoms: C_11  and  N_18
    4  A    between atoms: C_20  and  C_24
                            x       y       z     vdW  Elec       q    Type
                         _______ _______ _______ _____ _____    ______ ____

>  <TORSDO>
F 4

$$$$
=
 OpenBabel11042420073D

 30 34  0  0  1  0  0  0  0  0999 V2000
  161.1500  208.9960  153.7140 N   0  0  0  0  0  0  0  0  0  0  0  0
  160.1680  211.4880  156.4640 C   0  0  0  0  0  0  0  0  0  0  0  0
  160.7070  209.7880  154.8240 C   0  0  0  0  0  0  0  0  0  0  0  0
  160.4690  207.0980  152.2850 C   0  0  1  0  0  3  0  0  0  0  0  0
  161.9730  209.5930  152.6630 C   0  0  0  0  0  2  0  0  0  0  0  0
  159.9880  212.6520  157.2600 N   0  0  0  0  0  1  0  0  0  0  0  0
  160.9990  211.4410  155.0070 S   0  0  0  0  0  0  0  0  0  0  0  0
  162.2630  208.5670  151.5740 C   0  0  0  0  0  2  0  0  0  0  0  0
  160.8780  207.5610  153.6940 C   0  0  0  0  0  2  0  0  0  0  0  0
  161.0060  207.9170  151.1700 N   0  0  1  0  0  0  0  0  0  0  0  0
  161.1810  205.6340  150.7300 N   0  0  0  0  0  0  0  0  0  0  0  0
  161.1950  206.9330  150.0920 C   0  0  2  0  0  3  0  0  0  0  0  0
  160.8410  205.7020  152.0840 N   0  0  0  0  0  2  0  0  0  0  0  0
  159.6800  210.2300  156.7790 C   0  0  0  0  0  3  0  0  0  0  0  0
  159.9880  209.2830  155.8530 N   0  0  0  0  0  0  0  0  0  0  0  0
  161.2060  204.3350  148.6110 C   0  0  0  0  0  0  0  0  0  0  0  0
  161.1890  204.3840  150.0130 C   0  0  0  0  0  0  0  0  0  0  0  0
  161.1890  204.7570  146.3210 N   0  0  0  0  0  0  0  0  0  0  0  0
  161.1820  205.4590  147.6070 C   0  0  0  0  0  2  0  0  0  0  0  0
  161.1920  201.9400  149.9930 C   0  0  0  0  0  3  0  0  0  0  0  0
  161.1830  203.1550  150.7040 C   0  0  0  0  0  3  0  0  0  0  0  0
  161.2140  203.1190  147.9670 C   0  0  0  0  0  0  0  0  0  0  0  0
  161.1660  205.4020  145.0200 C   0  0  0  0  0  1  0  0  0  0  0  0
  161.2060  201.9360  148.6300 N   0  0  0  0  0  0  0  0  0  0  0  0
  161.2060  202.4780  145.6470 O   0  0  0  0  0  0  0  0  0  0  0  0
  161.2040  203.3550  146.5500 C   0  0  0  0  0  0  0  0  0  0  0  0
  162.4500  207.1310  149.2310 C   0  0  0  0  0  2  0  0  0  0  0  0
  162.1650  208.0600  148.1520 N   0  0  0  0  0  2  0  0  0  0  0  0
  162.0510  209.4280  148.4190 C   0  0  0  0  0  0  0  0  0  0  0  0
  161.9560  210.5610  148.6390 N   0  0  0  0  0  0  0  0  0  0  0  0
  1  3  1  0  0  0  0
  2 14  2  0  0  0  0
  2  6  1  0  0  0  0
  3  7  1  0  0  0  0
  3 15  2  0  0  0  0
  4  9  1  1  0  0  0
  5  1  1  0  0  0  0
  7  2  1  0  0  0  0
  8  5  1  0  0  0  0
  9  1  1  0  0  0  0
 10  8  1  1  0  0  0
 10  4  1  0  0  0  0
 11 13  1  0  0  0  0
 12 27  1  1  0  0  0
 12 11  1  0  0  0  0
 12 10  1  0  0  0  0
 13  4  1  0  0  0  0
 15 14  1  0  0  0  0
 16 17  1  0  0  0  0
 17 21  2  0  0  0  0
 17 11  1  0  0  0  0
 18 26  1  0  0  0  0
 18 19  1  0  0  0  0
 19 16  1  0  0  0  0
 20 21  1  0  0  0  0
 22 16  2  0  0  0  0
 22 24  1  0  0  0  0
 23 18  1  0  0  0  0
 24 20  2  0  0  0  0
 25 26  2  0  0  0  0
 26 22  1  0  0  0  0
 28 29  1  0  0  0  0
 28 27  1  0  0  0  0
 29 30  3  0  0  0  0
M  END
>  <MODEL>
4

>  <REMARK>
 VINA RESULT:      -6.0      3.840      8.412
  Name = 
  4 active torsions:
  status: ('A' for Active; 'I' for Inactive)
    1  A    between atoms: C_6  and  N_8
    2  A    between atoms: N_8  and  C_24
    3  A    between atoms: C_11  and  N_18
    4  A    between atoms: C_20  and  C_24
                            x       y       z     vdW  Elec       q    Type
                         _______ _______ _______ _____ _____    ______ ____

>  <TORSDO>
F 4

$$$$
=
 OpenBabel11042420073D

 30 34  0  0  1  0  0  0  0  0999 V2000
  161.3620  208.9960  152.7900 N   0  0  0  0  0  0  0  0  0  0  0  0
  160.2710  210.4580  156.1680 C   0  0  0  0  0  0  0  0  0  0  0  0
  160.9110  209.3750  154.0970 C   0  0  0  0  0  0  0  0  0  0  0  0
  160.8630  207.4380  150.9370 C   0  0  1  0  0  3  0  0  0  0  0  0
  161.9570  209.9890  151.8970 C   0  0  0  0  0  2  0  0  0  0  0  0
  159.9820  211.3200  157.2610 N   0  0  0  0  0  1  0  0  0  0  0  0
  160.9390  210.9490  154.7090 S   0  0  0  0  0  0  0  0  0  0  0  0
  162.2990  209.3550  150.5550 C   0  0  0  0  0  2  0  0  0  0  0  0
  161.3340  207.5900  152.3940 C   0  0  0  0  0  2  0  0  0  0  0  0
  161.1340  208.6040  150.0600 N   0  0  1  0  0  0  0  0  0  0  0  0
  161.6430  206.5890  149.0040 N   0  0  0  0  0  0  0  0  0  0  0  0
  161.3710  207.9870  148.7460 C   0  0  2  0  0  3  0  0  0  0  0  0
  161.4420  206.2390  150.3420 N   0  0  0  0  0  2  0  0  0  0  0  0
  160.0370  209.0920  156.1540 C   0  0  0  0  0  3  0  0  0  0  0  0
  160.4000  208.4930  154.9880 N   0  0  0  0  0  0  0  0  0  0  0  0
  161.4230  204.2540  148.1800 C   0  0  0  0  0  0  0  0  0  0  0  0
  161.7850  205.5930  147.9720 C   0  0  0  0  0  0  0  0  0  0  0  0
  160.7390  202.1850  149.0020 N   0  0  0  0  0  0  0  0  0  0  0  0
  160.8870  203.5820  149.4190 C   0  0  0  0  0  2  0  0  0  0  0  0
  162.4290  204.9550  145.7020 C   0  0  0  0  0  3  0  0  0  0  0  0
  162.2960  205.9360  146.7030 C   0  0  0  0  0  3  0  0  0  0  0  0
  161.5750  203.3360  147.1660 C   0  0  0  0  0  0  0  0  0  0  0  0
  160.2540  201.1100  149.8500 C   0  0  0  0  0  1  0  0  0  0  0  0
  162.0680  203.6630  145.9470 N   0  0  0  0  0  0  0  0  0  0  0  0
  161.1580  200.9710  147.0020 O   0  0  0  0  0  0  0  0  0  0  0  0
  161.1570  202.0500  147.6510 C   0  0  0  0  0  0  0  0  0  0  0  0
  162.4770  208.6370  147.9020 C   0  0  0  0  0  2  0  0  0  0  0  0
  162.6260  210.0310  148.2750 N   0  0  0  0  0  2  0  0  0  0  0  0
  161.6760  210.9710  147.8610 C   0  0  0  0  0  0  0  0  0  0  0  0
  160.8900  211.7490  147.5180 N   0  0  0  0  0  0  0  0  0  0  0  0
  1  3  1  0  0  0  0
  2  6  1  0  0  0  0
  3  7  1  0  0  0  0
  3 15  2  0  0  0  0
  4  9  1  1  0  0  0
  5  1  1  0  0  0  0
  7  2  1  0  0  0  0
  8  5  1  0  0  0  0
  9  1  1  0  0  0  0
 10  8  1  1  0  0  0
 10  4  1  0  0  0  0
 11 13  1  0  0  0  0
 12 27  1  1  0  0  0
 12 11  1  0  0  0  0
 12 10  1  0  0  0  0
 13  4  1  0  0  0  0
 14  2  2  0  0  0  0
 15 14  1  0  0  0  0
 16 19  1  0  0  0  0
 17 16  1  0  0  0  0
 17 11  1  0  0  0  0
 18 19  1  0  0  0  0
 18 23  1  0  0  0  0
 20 24  2  0  0  0  0
 20 21  1  0  0  0  0
 21 17  2  0  0  0  0
 22 26  1  0  0  0  0
 22 16  2  0  0  0  0
 24 22  1  0  0  0  0
 25 26  2  0  0  0  0
 26 18  1  0  0  0  0
 27 28  1  0  0  0  0
 29 28  1  0  0  0  0
 30 29  3  0  0  0  0
M  END
>  <MODEL>
5

>  <REMARK>
 VINA RESULT:      -5.1      3.859      8.476
  Name = 
  4 active torsions:
  status: ('A' for Active; 'I' for Inactive)
    1  A    between atoms: C_6  and  N_8
    2  A    between atoms: N_8  and  C_24
    3  A    between atoms: C_11  and  N_18
    4  A    between atoms: C_20  and  C_24
                            x       y       z     vdW  Elec       q    Type
                         _______ _______ _______ _____ _____    ______ ____

>  <TORSDO>
F 4

$$$$
=
 OpenBabel11042420073D

 30 34  0  0  1  0  0  0  0  0999 V2000
  161.3280  208.4300  152.9240 N   0  0  0  0  0  0  0  0  0  0  0  0
  160.6090  211.2650  155.4110 C   0  0  0  0  0  0  0  0  0  0  0  0
  161.0150  209.3610  153.9690 C   0  0  0  0  0  0  0  0  0  0  0  0
  160.6040  206.2700  151.9650 C   0  0  1  0  0  3  0  0  0  0  0  0
  161.8670  208.9040  151.6500 C   0  0  0  0  0  2  0  0  0  0  0  0
  160.4540  212.5290  156.0440 N   0  0  0  0  0  1  0  0  0  0  0  0
  161.1510  211.0390  153.8390 S   0  0  0  0  0  0  0  0  0  0  0  0
  162.0590  207.7350  150.6920 C   0  0  0  0  0  2  0  0  0  0  0  0
  161.2170  206.9950  153.1750 C   0  0  0  0  0  2  0  0  0  0  0  0
  160.8290  206.9290  150.6540 N   0  0  1  0  0  0  0  0  0  0  0  0
  161.1700  204.6260  150.5350 N   0  0  0  0  0  0  0  0  0  0  0  0
  160.9200  205.7960  149.7200 C   0  0  2  0  0  3  0  0  0  0  0  0
  161.0850  204.8940  151.9040 N   0  0  0  0  0  2  0  0  0  0  0  0
  160.3310  210.0430  156.0040 C   0  0  0  0  0  3  0  0  0  0  0  0
  160.5630  208.9810  155.1870 N   0  0  0  0  0  0  0  0  0  0  0  0
  161.1950  203.0050  148.6500 C   0  0  0  0  0  0  0  0  0  0  0  0
  161.1820  203.2780  150.0260 C   0  0  0  0  0  0  0  0  0  0  0  0
  161.1680  203.0550  146.3220 N   0  0  0  0  0  0  0  0  0  0  0  0
  161.1620  203.9530  147.4790 C   0  0  0  0  0  2  0  0  0  0  0  0
  161.1970  200.8620  150.3970 C   0  0  0  0  0  3  0  0  0  0  0  0
  161.1840  202.1750  150.9050 C   0  0  0  0  0  3  0  0  0  0  0  0
  161.2060  201.7010  148.2090 C   0  0  0  0  0  0  0  0  0  0  0  0
  161.1380  203.4840  144.9350 C   0  0  0  0  0  1  0  0  0  0  0  0
  161.2060  200.6400  149.0530 N   0  0  0  0  0  0  0  0  0  0  0  0
  161.1950  200.6980  146.0210 O   0  0  0  0  0  0  0  0  0  0  0  0
  161.1920  201.7080  146.7730 C   0  0  0  0  0  0  0  0  0  0  0  0
  161.9610  205.9440  148.6020 C   0  0  0  0  0  2  0  0  0  0  0  0
  161.5880  207.0380  147.7230 N   0  0  0  0  0  2  0  0  0  0  0  0
  160.8210  206.7860  146.5810 C   0  0  0  0  0  0  0  0  0  0  0  0
  160.1870  206.5780  145.6350 N   0  0  0  0  0  0  0  0  0  0  0  0
  1  9  1  0  0  0  0
  1  3  1  0  0  0  0
  2 14  2  0  0  0  0
  2  6  1  0  0  0  0
  3 15  2  0  0  0  0
  4  9  1  1  0  0  0
  5  1  1  0  0  0  0
  7  3  1  0  0  0  0
  7  2  1  0  0  0  0
  8  5  1  0  0  0  0
 10  8  1  1  0  0  0
 10  4  1  0  0  0  0
 11 13  1  0  0  0  0
 12 27  1  6  0  0  0
 12 11  1  0  0  0  0
 12 10  1  0  0  0  0
 13  4  1  0  0  0  0
 15 14  1  0  0  0  0
 16 17  1  0  0  0  0
 17 11  1  0  0  0  0
 17 21  2  0  0  0  0
 18 26  1  0  0  0  0
 18 19  1  0  0  0  0
 19 16  1  0  0  0  0
 20 21  1  0  0  0  0
 22 16  2  0  0  0  0
 22 24  1  0  0  0  0
 23 18  1  0  0  0  0
 24 20  2  0  0  0  0
 25 26  2  0  0  0  0
 26 22  1  0  0  0  0
 28 27  1  0  0  0  0
 29 28  1  0  0  0  0
 30 29  3  0  0  0  0
M  END
>  <MODEL>
6

>  <REMARK>
 VINA RESULT:      -5.0      3.980      8.831
  Name = 
  4 active torsions:
  status: ('A' for Active; 'I' for Inactive)
    1  A    between atoms: C_6  and  N_8
    2  A    between atoms: N_8  and  C_24
    3  A    between atoms: C_11  and  N_18
    4  A    between atoms: C_20  and  C_24
                            x       y       z     vdW  Elec       q    Type
                         _______ _______ _______ _____ _____    ______ ____

>  <TORSDO>
F 4

$$$$
=
 OpenBabel11042420073D

 30 34  0  0  1  0  0  0  0  0999 V2000
  161.6100  205.5000  149.9240 N   0  0  0  0  0  0  0  0  0  0  0  0
  160.5640  201.8070  150.0090 C   0  0  0  0  0  0  0  0  0  0  0  0
  161.2120  204.1300  149.7780 C   0  0  0  0  0  0  0  0  0  0  0  0
  161.2490  207.7430  148.9520 C   0  0  1  0  0  3  0  0  0  0  0  0
  161.9310  206.0390  151.2450 C   0  0  0  0  0  2  0  0  0  0  0  0
  160.2170  200.4880  150.4120 N   0  0  0  0  0  1  0  0  0  0  0  0
  161.0010  203.0460  151.0550 S   0  0  0  0  0  0  0  0  0  0  0  0
  162.2670  207.5210  151.1420 C   0  0  0  0  0  2  0  0  0  0  0  0
  161.8090  206.3270  148.7360 C   0  0  0  0  0  2  0  0  0  0  0  0
  161.2220  208.2040  150.3620 N   0  0  1  0  0  0  0  0  0  0  0  0
  162.0020  209.8650  148.9230 N   0  0  0  0  0  0  0  0  0  0  0  0
  161.4550  209.6530  150.2460 C   0  0  2  0  0  3  0  0  0  0  0  0
  161.9860  208.7070  148.1410 N   0  0  0  0  0  2  0  0  0  0  0  0
  160.5870  202.2550  148.6980 C   0  0  0  0  0  3  0  0  0  0  0  0
  160.9520  203.5600  148.5780 N   0  0  0  0  0  0  0  0  0  0  0  0
  161.3120  211.7710  147.4840 C   0  0  0  0  0  0  0  0  0  0  0  0
  162.2360  211.1650  148.3480 C   0  0  0  0  0  0  0  0  0  0  0  0
  159.5320  212.3330  146.0920 N   0  0  0  0  0  0  0  0  0  0  0  0
  159.9970  211.2510  146.9620 C   0  0  0  0  0  2  0  0  0  0  0  0
  163.6330  213.1520  148.0740 C   0  0  0  0  0  3  0  0  0  0  0  0
  163.4150  211.8820  148.6400 C   0  0  0  0  0  3  0  0  0  0  0  0
  161.5770  213.0140  146.9580 C   0  0  0  0  0  0  0  0  0  0  0  0
  158.2920  212.3190  145.3350 C   0  0  0  0  0  1  0  0  0  0  0  0
  162.7100  213.7040  147.2360 N   0  0  0  0  0  0  0  0  0  0  0  0
  160.3860  214.4530  145.4400 O   0  0  0  0  0  0  0  0  0  0  0  0
  160.4890  213.3830  146.0950 C   0  0  0  0  0  0  0  0  0  0  0  0
  162.3440  210.2680  151.3360 C   0  0  0  0  0  2  0  0  0  0  0  0
  161.5160  210.8670  152.3670 N   0  0  0  0  0  2  0  0  0  0  0  0
  160.9520  210.0650  153.3640 C   0  0  0  0  0  0  0  0  0  0  0  0
  160.4830  209.4000  154.1890 N   0  0  0  0  0  0  0  0  0  0  0  0
  1  5  1  0  0  0  0
  2  6  1  0  0  0  0
  2  7  1  0  0  0  0
  3  1  1  0  0  0  0
  3  7  1  0  0  0  0
  4  9  1  1  0  0  0
  4 10  1  0  0  0  0
  8  5  1  0  0  0  0
  9  1  1  0  0  0  0
 10  8  1  1  0  0  0
 11 12  1  0  0  0  0
 12 10  1  0  0  0  0
 12 27  1  1  0  0  0
 13 11  1  0  0  0  0
 13  4  1  0  0  0  0
 14  2  2  0  0  0  0
 15 14  1  0  0  0  0
 15  3  2  0  0  0  0
 16 17  1  0  0  0  0
 17 21  2  0  0  0  0
 17 11  1  0  0  0  0
 18 26  1  0  0  0  0
 18 19  1  0  0  0  0
 19 16  1  0  0  0  0
 20 21  1  0  0  0  0
 22 24  1  0  0  0  0
 22 16  2  0  0  0  0
 23 18  1  0  0  0  0
 24 20  2  0  0  0  0
 25 26  2  0  0  0  0
 26 22  1  0  0  0  0
 27 28  1  0  0  0  0
 28 29  1  0  0  0  0
 29 30  3  0  0  0  0
M  END
>  <MODEL>
7

>  <REMARK>
 VINA RESULT:      -4.7      2.695      5.274
  Name = 
  4 active torsions:
  status: ('A' for Active; 'I' for Inactive)
    1  A    between atoms: C_6  and  N_8
    2  A    between atoms: N_8  and  C_24
    3  A    between atoms: C_11  and  N_18
    4  A    between atoms: C_20  and  C_24
                            x       y       z     vdW  Elec       q    Type
                         _______ _______ _______ _____ _____    ______ ____

>  <TORSDO>
F 4

$$$$
