=
 OpenBabel11052409303D

 67 72  0  0  1  0  0  0  0  0999 V2000
  161.2780  211.4400  150.5110 O   0  0  0  0  0  0  0  0  0  0  0  0
  160.3220  212.4440  150.3180 C   0  0  2  0  0  3  0  0  0  0  0  0
  161.8680  213.1320  148.3710 C   0  0  2  0  0  3  0  0  0  0  0  0
  161.1060  212.3170  147.3420 C   0  0  2  0  0  3  0  0  0  0  0  0
  162.1020  211.6180  148.2510 C   0  0  2  0  0  3  0  0  0  0  0  0
  161.3430  210.7670  149.2810 C   0  0  1  0  0  3  0  0  0  0  0  0
  160.9450  213.5910  149.5150 C   0  0  0  0  0  2  0  0  0  0  0  0
  159.7580  212.9470  151.6540 C   0  0  0  0  0  0  0  0  0  0  0  0
  159.7960  214.3300  151.6480 F   0  0  0  0  0  0  0  0  0  0  0  0
  160.5520  212.5110  152.7140 F   0  0  0  0  0  0  0  0  0  0  0  0
  158.4040  212.5640  151.7950 O   0  0  0  0  0  0  0  0  0  0  0  0
  157.2680  214.1170  153.2010 C   0  0  0  0  0  1  0  0  0  0  0  0
  157.9810  212.7820  153.1150 C   0  0  0  0  0  2  0  0  0  0  0  0
  162.0410  209.4110  149.4370 C   0  0  2  0  0  3  0  0  0  0  0  0
  163.2250  209.3260  148.4810 C   0  0  0  0  0  2  0  0  0  0  0  0
  163.3260  208.0360  147.9550 O   0  0  0  0  0  1  0  0  0  0  0  0
  161.0930  208.2540  149.1560 C   0  0  0  0  0  2  0  0  0  0  0  0
  161.3810  207.6750  147.7850 C   0  0  0  0  0  2  0  0  0  0  0  0
  160.3390  206.6360  147.4440 C   0  0  0  0  0  2  0  0  0  0  0  0
  161.6670  204.5110  147.6880 C   0  0  0  0  0  0  0  0  0  0  0  0
  160.6480  205.4050  148.1410 N   0  0  0  0  0  2  0  0  0  0  0  0
  162.2660  204.7290  146.5990 O   0  0  0  0  0  0  0  0  0  0  0  0
  160.3710  202.6270  150.2360 C   0  0  0  0  0  3  0  0  0  0  0  0
  159.8620  201.5310  149.3400 C   0  0  0  0  0  2  0  0  0  0  0  0
  161.4140  203.4210  149.9380 C   0  0  0  0  0  0  0  0  0  0  0  0
  161.8390  202.0410  147.8540 C   0  0  0  0  0  2  0  0  0  0  0  0
  162.0760  203.3690  148.5750 C   0  0  1  0  0  3  0  0  0  0  0  0
  160.3510  201.6890  147.8990 C   0  0  1  0  0  3  0  0  0  0  0  0
  161.8800  204.4080  150.8720 N   0  0  0  0  0  2  0  0  0  0  0  0
  159.9870  205.8020  150.9420 O   0  0  0  0  0  0  0  0  0  0  0  0
  161.1610  205.5620  151.3340 C   0  0  0  0  0  0  0  0  0  0  0  0
  161.8050  206.4950  152.3030 C   0  0  0  0  0  2  0  0  0  0  0  0
  161.4170  207.1450  154.7250 N   0  0  0  0  0  2  0  0  0  0  0  0
  161.4690  206.1360  153.7150 C   0  0  0  0  0  0  0  0  0  0  0  0
  161.2790  204.9330  154.0330 O   0  0  0  0  0  0  0  0  0  0  0  0
  161.5880  208.4600  154.4350 O   0  0  0  0  0  0  0  0  0  0  0  0
  159.9980  209.6900  153.1330 C   0  0  0  0  0  1  0  0  0  0  0  0
  160.3050  209.0160  154.4600 C   0  0  2  0  0  3  0  0  0  0  0  0
  160.2460  209.3690  156.8350 O   0  0  0  0  0  1  0  0  0  0  0  0
  160.1950  210.0160  155.6020 C   0  0  0  0  0  2  0  0  0  0  0  0
  160.0040  200.5970  147.0720 O   0  0  0  0  0  0  0  0  0  0  0  0
  161.1580  199.8410  146.7950 C   0  0  0  0  0  2  0  0  0  0  0  0
  160.0510  198.0890  145.6160 O   0  0  0  0  0  1  0  0  0  0  0  0
  161.0060  199.0980  145.4780 C   0  0  0  0  0  0  0  0  0  0  0  0
  160.6070  199.9830  144.4750 O   0  0  0  0  0  1  0  0  0  0  0  0
  162.3360  198.4800  145.0980 C   0  0  0  0  0  1  0  0  0  0  0  0
  161.7090  212.4870  146.0300 N   0  0  0  0  0  2  0  0  0  0  0  0
  160.9830  213.5410  145.3300 C   0  0  0  0  0  2  0  0  0  0  0  0
  159.7460  212.9860  144.6380 C   0  0  0  0  0  2  0  0  0  0  0  0
  159.9820  211.6620  142.5550 C   0  0  0  0  0  2  0  0  0  0  0  0
  159.2140  212.8920  140.4810 C   0  0  1  0  0  3  0  0  0  0  0  0
  159.8850  213.0730  143.1300 C   0  0  2  0  0  3  0  0  0  0  0  0
  162.5170  212.2500  140.8130 C   0  0  0  0  0  2  0  0  0  0  0  0
  159.9420  211.6520  141.0260 C   0  0  1  0  0  3  0  0  0  0  0  0
  161.3250  211.3520  140.4200 C   0  0  1  0  0  3  0  0  0  0  0  0
  163.6340  214.4430  141.2200 C   0  0  0  0  0  1  0  0  0  0  0  0
  161.2910  210.9610  138.9560 C   0  0  0  0  0  1  0  0  0  0  0  0
  161.1790  214.3260  141.4030 C   0  0  1  0  0  3  0  0  0  0  0  0
  161.0780  213.8430  142.8000 N   0  0  0  0  0  2  0  0  0  0  0  0
  160.7360  214.2710  139.0420 C   0  0  0  0  0  2  0  0  0  0  0  0
  162.3820  213.7940  140.6580 C   0  0  2  0  0  0  0  0  0  0  0  0
  162.1800  214.2680  139.2810 N   0  0  0  0  0  0  0  0  0  0  0  0
  162.8560  213.4690  138.2640 C   0  0  0  0  0  1  0  0  0  0  0  0
  160.0210  214.1990  140.3980 C   0  0  1  0  0  3  0  0  0  0  0  0
  158.1900  213.4500  138.4040 O   0  0  0  0  0  0  0  0  0  0  0  0
  158.2450  212.6420  139.3680 C   0  0  0  0  0  0  0  0  0  0  0  0
  157.4360  211.5120  139.3640 O   0  0  0  0  0  1  0  0  0  0  0  0
  2  1  1  0  0  0  0
  2  8  1  1  0  0  0
  3  7  1  1  0  0  0
  4 47  1  6  0  0  0
  4  5  1  0  0  0  0
  4  3  1  0  0  0  0
  5  3  1  0  0  0  0
  5  6  1  0  0  0  0
  6 14  1  0  0  0  0
  6  1  1  0  0  0  0
  7  2  1  0  0  0  0
  8 11  1  0  0  0  0
  8 10  1  0  0  0  0
  9  8  1  0  0  0  0
 11 13  1  0  0  0  0
 13 12  1  0  0  0  0
 15 14  1  0  0  0  0
 16 15  1  0  0  0  0
 17 14  1  0  0  0  0
 18 17  1  0  0  0  0
 19 18  1  0  0  0  0
 19 21  1  0  0  0  0
 20 21  1  0  0  0  0
 20 27  1  0  0  0  0
 22 20  2  0  0  0  0
 24 23  1  0  0  0  0
 25 23  2  0  0  0  0
 25 29  1  0  0  0  0
 26 28  1  0  0  0  0
 26 27  1  0  0  0  0
 27 25  1  0  0  0  0
 28 24  1  0  0  0  0
 29 31  1  0  0  0  0
 30 31  2  0  0  0  0
 31 32  1  0  0  0  0
 32 34  1  0  0  0  0
 34 35  2  0  0  0  0
 34 33  1  0  0  0  0
 36 38  1  0  0  0  0
 36 33  1  0  0  0  0
 37 38  1  0  0  0  0
 38 40  1  0  0  0  0
 40 39  1  0  0  0  0
 41 28  1  0  0  0  0
 42 41  1  0  0  0  0
 44 43  1  0  0  0  0
 44 42  1  0  0  0  0
 45 44  1  0  0  0  0
 46 44  1  0  0  0  0
 48 47  1  0  0  0  0
 49 48  1  0  0  0  0
 50 52  1  0  0  0  0
 51 54  1  0  0  0  0
 52 49  1  0  0  0  0
 54 50  1  0  0  0  0
 55 53  1  0  0  0  0
 55 54  1  0  0  0  0
 57 55  1  0  0  0  0
 58 59  1  0  0  0  0
 59 52  1  0  0  0  0
 60 62  1  0  0  0  0
 60 64  1  0  0  0  0
 61 53  1  0  0  0  0
 61 56  1  0  0  0  0
 61 58  1  0  0  0  0
 62 61  1  0  0  0  0
 63 62  1  0  0  0  0
 64 51  1  0  0  0  0
 64 58  1  0  0  0  0
 65 66  2  0  0  0  0
 66 51  1  0  0  0  0
 67 66  1  0  0  0  0
M  END
>  <MODEL>
1

>  <REMARK>
 VINA RESULT:      -1.4      0.000      0.000
  Name = 
  24 active torsions:
  status: ('A' for Active; 'I' for Inactive)
    1  A    between atoms: C_4  and  C_8
    2  A    between atoms: N_5  and  O_43
    3  A    between atoms: C_7  and  C_25
    4  A    between atoms: N_9  and  C_15
    5  A    between atoms: N_9  and  C_29
    6  A    between atoms: C_10  and  C_54
    7  A    between atoms: C_11  and  C_20
    8  A    between atoms: C_13  and  C_62
    9  A    between atoms: C_15  and  C_20
   10  A    between atoms: C_16  and  C_66
   11  A    between atoms: C_16  and  C_67
   12  A    between atoms: C_17  and  C_51
   13  A    between atoms: C_17  and  C_60
   14  A    between atoms: C_17  and  C_66
   15  A    between atoms: N_19  and  C_27
   16  A    between atoms: O_22  and  C_39
   17  A    between atoms: O_22  and  C_55
   18  A    between atoms: C_24  and  C_39
   19  A    between atoms: C_25  and  O_49
   20  A    between atoms: N_30  and  C_67
   21  A    between atoms: C_38  and  C_41
   22  A    between atoms: C_38  and  O_43
   23  A    between atoms: O_49  and  C_59
   24  A    between atoms: C_58  and  C_62
                            x       y       z     vdW  Elec       q    Type
                         _______ _______ _______ _____ _____    ______ ____

>  <TORSDO>
F 24

$$$$
=
 OpenBabel11052409303D

 67 72  0  0  1  0  0  0  0  0999 V2000
  160.6460  204.3960  147.4270 O   0  0  0  0  0  0  0  0  0  0  0  0
  161.3950  203.3630  146.8510 C   0  0  2  0  0  3  0  0  0  0  0  0
  160.2200  204.1210  144.6830 C   0  0  2  0  0  3  0  0  0  0  0  0
  161.3450  205.0560  144.2790 C   0  0  2  0  0  3  0  0  0  0  0  0
  160.3350  205.5170  145.3150 C   0  0  2  0  0  3  0  0  0  0  0  0
  161.0000  205.5430  146.7000 C   0  0  1  0  0  3  0  0  0  0  0  0
  160.7460  202.9450  145.5270 C   0  0  0  0  0  2  0  0  0  0  0  0
  161.5280  202.1670  147.8040 C   0  0  0  0  0  0  0  0  0  0  0  0
  161.3530  202.6230  149.0990 F   0  0  0  0  0  0  0  0  0  0  0  0
  162.8070  201.6190  147.7230 F   0  0  0  0  0  0  0  0  0  0  0  0
  160.5110  201.2180  147.5520 O   0  0  0  0  0  0  0  0  0  0  0  0
  160.9380  199.4770  145.9820 C   0  0  0  0  0  1  0  0  0  0  0  0
  161.0740  199.9390  147.4200 C   0  0  0  0  0  2  0  0  0  0  0  0
  160.5790  206.8150  147.4450 C   0  0  2  0  0  3  0  0  0  0  0  0
  161.0750  208.0430  146.6930 C   0  0  0  0  0  2  0  0  0  0  0  0
  162.1960  208.5780  147.3340 O   0  0  0  0  0  1  0  0  0  0  0  0
  161.1300  206.8450  148.8640 C   0  0  0  0  0  2  0  0  0  0  0  0
  160.7660  205.5620  149.5840 C   0  0  0  0  0  2  0  0  0  0  0  0
  160.8240  205.7850  151.0760 C   0  0  0  0  0  2  0  0  0  0  0  0
  161.1200  207.7210  152.6600 C   0  0  0  0  0  0  0  0  0  0  0  0
  161.1380  207.1750  151.3390 N   0  0  0  0  0  2  0  0  0  0  0  0
  160.7300  207.0180  153.6330 O   0  0  0  0  0  0  0  0  0  0  0  0
  160.1680  210.9740  152.1780 C   0  0  0  0  0  3  0  0  0  0  0  0
  159.6120  211.1520  153.5650 C   0  0  0  0  0  2  0  0  0  0  0  0
  161.1430  210.1040  151.8640 C   0  0  0  0  0  0  0  0  0  0  0  0
  161.4040  209.5420  154.3220 C   0  0  0  0  0  2  0  0  0  0  0  0
  161.6620  209.1050  152.8790 C   0  0  1  0  0  3  0  0  0  0  0  0
  159.9430  209.9680  154.4770 C   0  0  1  0  0  3  0  0  0  0  0  0
  161.6640  210.0330  150.5270 N   0  0  0  0  0  2  0  0  0  0  0  0
  161.3100  212.2570  149.8510 O   0  0  0  0  0  0  0  0  0  0  0  0
  161.7230  211.1000  149.5680 C   0  0  0  0  0  0  0  0  0  0  0  0
  162.2900  210.8460  148.2130 C   0  0  0  0  0  2  0  0  0  0  0  0
  162.1450  212.9910  146.8650 N   0  0  0  0  0  2  0  0  0  0  0  0
  162.9200  212.0760  147.6420 C   0  0  0  0  0  0  0  0  0  0  0  0
  164.1500  212.2890  147.8020 O   0  0  0  0  0  0  0  0  0  0  0  0
  160.8100  212.8260  146.6820 O   0  0  0  0  0  0  0  0  0  0  0  0
  161.4300  214.3280  144.9230 C   0  0  0  0  0  1  0  0  0  0  0  0
  160.5780  213.1400  145.3390 C   0  0  2  0  0  3  0  0  0  0  0  0
  158.3170  212.3370  145.4430 O   0  0  0  0  0  1  0  0  0  0  0  0
  159.1020  213.4440  145.1250 C   0  0  0  0  0  2  0  0  0  0  0  0
  159.5540  210.1770  155.8200 O   0  0  0  0  0  0  0  0  0  0  0  0
  158.1530  210.2880  155.8840 C   0  0  0  0  0  2  0  0  0  0  0  0
  156.6070  211.4790  157.2530 O   0  0  0  0  0  1  0  0  0  0  0  0
  157.7510  211.6320  156.4690 C   0  0  0  0  0  0  0  0  0  0  0  0
  158.7880  212.1400  157.2530 O   0  0  0  0  0  1  0  0  0  0  0  0
  157.4590  212.5990  155.3400 C   0  0  0  0  0  1  0  0  0  0  0  0
  161.0310  205.6860  143.0060 N   0  0  0  0  0  2  0  0  0  0  0  0
  162.1210  206.5940  142.6680 C   0  0  0  0  0  2  0  0  0  0  0  0
  162.2520  206.7550  141.1600 C   0  0  0  0  0  2  0  0  0  0  0  0
  161.1360  207.9480  139.2940 C   0  0  0  0  0  2  0  0  0  0  0  0
  159.8450  209.9960  140.0300 C   0  0  1  0  0  3  0  0  0  0  0  0
  161.6920  208.0910  140.7090 C   0  0  2  0  0  3  0  0  0  0  0  0
  162.6250  210.4610  138.1620 C   0  0  0  0  0  2  0  0  0  0  0  0
  160.3890  209.2010  138.8320 C   0  0  1  0  0  3  0  0  0  0  0  0
  161.1990  209.9990  137.7940 C   0  0  1  0  0  3  0  0  0  0  0  0
  164.3330  211.4850  139.6650 C   0  0  0  0  0  1  0  0  0  0  0  0
  160.3860  211.0240  137.0270 C   0  0  0  0  0  1  0  0  0  0  0  0
  162.3110  210.5080  140.6820 C   0  0  1  0  0  3  0  0  0  0  0  0
  162.7490  209.0940  140.7460 N   0  0  0  0  0  2  0  0  0  0  0  0
  160.8240  212.3030  140.1000 C   0  0  0  0  0  2  0  0  0  0  0  0
  162.8430  211.2590  139.4810 C   0  0  2  0  0  0  0  0  0  0  0  0
  162.1560  212.5570  139.5470 N   0  0  0  0  0  0  0  0  0  0  0  0
  162.0460  213.2450  138.2650 C   0  0  0  0  0  1  0  0  0  0  0  0
  160.8310  210.9210  140.7640 C   0  0  1  0  0  3  0  0  0  0  0  0
  157.4960  209.6750  139.7970 O   0  0  0  0  0  0  0  0  0  0  0  0
  158.4430  210.5010  139.8940 C   0  0  0  0  0  0  0  0  0  0  0  0
  158.1670  211.8630  139.9130 O   0  0  0  0  0  1  0  0  0  0  0  0
  2  1  1  0  0  0  0
  2  8  1  1  0  0  0
  3  5  1  0  0  0  0
  3  7  1  1  0  0  0
  4 47  1  6  0  0  0
  4  3  1  0  0  0  0
  4  5  1  0  0  0  0
  5  6  1  0  0  0  0
  6  1  1  0  0  0  0
  6 14  1  0  0  0  0
  7  2  1  0  0  0  0
  8  9  1  0  0  0  0
 10  8  1  0  0  0  0
 11  8  1  0  0  0  0
 12 13  1  0  0  0  0
 13 11  1  0  0  0  0
 14 17  1  0  0  0  0
 15 16  1  0  0  0  0
 15 14  1  0  0  0  0
 17 18  1  0  0  0  0
 18 19  1  0  0  0  0
 19 21  1  0  0  0  0
 20 27  1  0  0  0  0
 20 22  2  0  0  0  0
 21 20  1  0  0  0  0
 23 24  1  0  0  0  0
 24 28  1  0  0  0  0
 25 23  2  0  0  0  0
 25 27  1  0  0  0  0
 26 28  1  0  0  0  0
 27 26  1  0  0  0  0
 28 41  1  0  0  0  0
 29 25  1  0  0  0  0
 31 30  2  0  0  0  0
 31 29  1  0  0  0  0
 32 31  1  0  0  0  0
 33 34  1  0  0  0  0
 34 35  2  0  0  0  0
 34 32  1  0  0  0  0
 36 33  1  0  0  0  0
 37 38  1  0  0  0  0
 38 36  1  0  0  0  0
 40 38  1  0  0  0  0
 40 39  1  0  0  0  0
 41 42  1  0  0  0  0
 42 44  1  0  0  0  0
 44 45  1  0  0  0  0
 44 43  1  0  0  0  0
 46 44  1  0  0  0  0
 48 47  1  0  0  0  0
 49 48  1  0  0  0  0
 50 52  1  0  0  0  0
 51 64  1  0  0  0  0
 52 59  1  0  0  0  0
 52 49  1  0  0  0  0
 53 61  1  0  0  0  0
 54 50  1  0  0  0  0
 54 51  1  0  0  0  0
 55 53  1  0  0  0  0
 55 54  1  0  0  0  0
 57 55  1  0  0  0  0
 58 59  1  0  0  0  0
 58 64  1  0  0  0  0
 60 64  1  0  0  0  0
 61 62  1  0  0  0  0
 61 56  1  0  0  0  0
 61 58  1  0  0  0  0
 62 60  1  0  0  0  0
 63 62  1  0  0  0  0
 65 66  2  0  0  0  0
 66 67  1  0  0  0  0
 66 51  1  0  0  0  0
M  END
>  <MODEL>
2

>  <REMARK>
 VINA RESULT:      -0.8      3.136      8.814
  Name = 
  24 active torsions:
  status: ('A' for Active; 'I' for Inactive)
    1  A    between atoms: C_4  and  C_8
    2  A    between atoms: N_5  and  O_43
    3  A    between atoms: C_7  and  C_25
    4  A    between atoms: N_9  and  C_15
    5  A    between atoms: N_9  and  C_29
    6  A    between atoms: C_10  and  C_54
    7  A    between atoms: C_11  and  C_20
    8  A    between atoms: C_13  and  C_62
    9  A    between atoms: C_15  and  C_20
   10  A    between atoms: C_16  and  C_66
   11  A    between atoms: C_16  and  C_67
   12  A    between atoms: C_17  and  C_51
   13  A    between atoms: C_17  and  C_60
   14  A    between atoms: C_17  and  C_66
   15  A    between atoms: N_19  and  C_27
   16  A    between atoms: O_22  and  C_39
   17  A    between atoms: O_22  and  C_55
   18  A    between atoms: C_24  and  C_39
   19  A    between atoms: C_25  and  O_49
   20  A    between atoms: N_30  and  C_67
   21  A    between atoms: C_38  and  C_41
   22  A    between atoms: C_38  and  O_43
   23  A    between atoms: O_49  and  C_59
   24  A    between atoms: C_58  and  C_62
                            x       y       z     vdW  Elec       q    Type
                         _______ _______ _______ _____ _____    ______ ____

>  <TORSDO>
F 24

$$$$
=
 OpenBabel11052409303D

 67 72  0  0  1  0  0  0  0  0999 V2000
  160.5250  205.2610  147.4700 O   0  0  0  0  0  0  0  0  0  0  0  0
  161.1910  204.1080  147.0380 C   0  0  2  0  0  3  0  0  0  0  0  0
  160.0770  204.6700  144.7800 C   0  0  2  0  0  3  0  0  0  0  0  0
  161.2710  205.4560  144.2700 C   0  0  2  0  0  3  0  0  0  0  0  0
  160.3000  206.1230  145.2290 C   0  0  2  0  0  3  0  0  0  0  0  0
  160.9660  206.2750  146.6050 C   0  0  1  0  0  3  0  0  0  0  0  0
  160.5120  203.5750  145.7720 C   0  0  0  0  0  2  0  0  0  0  0  0
  161.2320  203.0370  148.1370 C   0  0  0  0  0  0  0  0  0  0  0  0
  162.2860  202.1810  147.8670 F   0  0  0  0  0  0  0  0  0  0  0  0
  160.0630  202.2790  148.1230 F   0  0  0  0  0  0  0  0  0  0  0  0
  161.4830  203.6300  149.3960 O   0  0  0  0  0  0  0  0  0  0  0  0
  161.0080  203.5980  151.7310 C   0  0  0  0  0  1  0  0  0  0  0  0
  160.6100  203.0960  150.3570 C   0  0  0  0  0  2  0  0  0  0  0  0
  160.6440  207.6600  147.1780 C   0  0  2  0  0  3  0  0  0  0  0  0
  161.1500  208.7410  146.2310 C   0  0  0  0  0  2  0  0  0  0  0  0
  160.6180  209.9820  146.5910 O   0  0  0  0  0  1  0  0  0  0  0  0
  161.2760  207.8640  148.5470 C   0  0  0  0  0  2  0  0  0  0  0  0
  161.1620  206.5900  149.3610 C   0  0  0  0  0  2  0  0  0  0  0  0
  161.0750  206.9330  150.8290 C   0  0  0  0  0  2  0  0  0  0  0  0
  160.9160  209.0300  152.2140 C   0  0  0  0  0  0  0  0  0  0  0  0
  161.2510  208.3610  150.9970 N   0  0  0  0  0  2  0  0  0  0  0  0
  160.3590  208.3980  153.1540 O   0  0  0  0  0  0  0  0  0  0  0  0
  159.6910  212.1600  151.5640 C   0  0  0  0  0  3  0  0  0  0  0  0
  159.0760  212.3430  152.9250 C   0  0  0  0  0  2  0  0  0  0  0  0
  160.7510  211.3710  151.3160 C   0  0  0  0  0  0  0  0  0  0  0  0
  160.9800  210.9350  153.8030 C   0  0  0  0  0  2  0  0  0  0  0  0
  161.3240  210.4660  152.3890 C   0  0  1  0  0  3  0  0  0  0  0  0
  159.4820  211.2330  153.8960 C   0  0  1  0  0  3  0  0  0  0  0  0
  161.3200  211.2930  150.0000 N   0  0  0  0  0  2  0  0  0  0  0  0
  161.7490  213.5750  149.6240 O   0  0  0  0  0  0  0  0  0  0  0  0
  161.7890  212.3880  149.1980 C   0  0  0  0  0  0  0  0  0  0  0  0
  162.3440  212.1260  147.8400 C   0  0  0  0  0  2  0  0  0  0  0  0
  161.5170  213.7180  146.0450 N   0  0  0  0  0  2  0  0  0  0  0  0
  162.4790  213.3890  147.0490 C   0  0  0  0  0  0  0  0  0  0  0  0
  163.4680  214.1450  147.2290 O   0  0  0  0  0  0  0  0  0  0  0  0
  160.4170  212.9530  145.8260 O   0  0  0  0  0  0  0  0  0  0  0  0
  160.7940  214.2980  143.8800 C   0  0  0  0  0  1  0  0  0  0  0  0
  160.1800  213.0290  144.4500 C   0  0  2  0  0  3  0  0  0  0  0  0
  158.3290  213.9550  143.2300 O   0  0  0  0  0  1  0  0  0  0  0  0
  158.6830  212.9950  144.1770 C   0  0  0  0  0  2  0  0  0  0  0  0
  159.0330  211.4600  155.2170 O   0  0  0  0  0  0  0  0  0  0  0  0
  159.9580  212.2830  155.8850 C   0  0  0  0  0  2  0  0  0  0  0  0
  158.2460  213.4200  157.0940 O   0  0  0  0  0  1  0  0  0  0  0  0
  159.3270  213.6210  156.2340 C   0  0  0  0  0  0  0  0  0  0  0  0
  160.2670  214.4450  156.8530 O   0  0  0  0  0  1  0  0  0  0  0  0
  158.8380  214.2870  154.9640 C   0  0  0  0  0  1  0  0  0  0  0  0
  161.0050  205.9410  142.9240 N   0  0  0  0  0  2  0  0  0  0  0  0
  162.1660  206.7030  142.4790 C   0  0  0  0  0  2  0  0  0  0  0  0
  162.2670  206.7120  140.9600 C   0  0  0  0  0  2  0  0  0  0  0  0
  162.0650  208.1270  138.9340 C   0  0  0  0  0  2  0  0  0  0  0  0
  159.9340  209.4920  138.8620 C   0  0  1  0  0  3  0  0  0  0  0  0
  161.6130  207.9530  140.3830 C   0  0  2  0  0  3  0  0  0  0  0  0
  162.8610  211.1390  139.2570 C   0  0  0  0  0  2  0  0  0  0  0  0
  161.3120  209.2520  138.2210 C   0  0  1  0  0  3  0  0  0  0  0  0
  162.1980  210.4950  138.0210 C   0  0  1  0  0  3  0  0  0  0  0  0
  162.8770  212.0180  141.5920 C   0  0  0  0  0  1  0  0  0  0  0  0
  161.6550  211.4890  137.0120 C   0  0  0  0  0  1  0  0  0  0  0  0
  161.1810  210.3360  140.9830 C   0  0  1  0  0  3  0  0  0  0  0  0
  161.9930  209.1130  141.1810 N   0  0  0  0  0  2  0  0  0  0  0  0
  159.7520  211.8270  139.7570 C   0  0  0  0  0  2  0  0  0  0  0  0
  161.9730  211.5210  140.4780 C   0  0  2  0  0  0  0  0  0  0  0  0
  160.9470  212.5400  140.2100 N   0  0  0  0  0  0  0  0  0  0  0  0
  161.3390  213.5430  139.2260 C   0  0  0  0  0  1  0  0  0  0  0  0
  159.8950  210.3490  140.1390 C   0  0  1  0  0  3  0  0  0  0  0  0
  158.7420  210.7180  137.2040 O   0  0  0  0  0  0  0  0  0  0  0  0
  158.7960  209.6750  137.9080 C   0  0  0  0  0  0  0  0  0  0  0  0
  157.8210  208.6950  137.7600 O   0  0  0  0  0  1  0  0  0  0  0  0
  2  1  1  0  0  0  0
  2  8  1  1  0  0  0
  3  5  1  0  0  0  0
  3  7  1  1  0  0  0
  4 47  1  6  0  0  0
  4  3  1  0  0  0  0
  4  5  1  0  0  0  0
  5  6  1  0  0  0  0
  6 14  1  0  0  0  0
  6  1  1  0  0  0  0
  7  2  1  0  0  0  0
  8 11  1  0  0  0  0
  9  8  1  0  0  0  0
 10  8  1  0  0  0  0
 11 13  1  0  0  0  0
 13 12  1  0  0  0  0
 14 17  1  0  0  0  0
 15 16  1  0  0  0  0
 15 14  1  0  0  0  0
 17 18  1  0  0  0  0
 18 19  1  0  0  0  0
 19 21  1  0  0  0  0
 20 27  1  0  0  0  0
 20 22  2  0  0  0  0
 21 20  1  0  0  0  0
 23 24  1  0  0  0  0
 24 28  1  0  0  0  0
 25 23  2  0  0  0  0
 25 27  1  0  0  0  0
 26 28  1  0  0  0  0
 27 26  1  0  0  0  0
 28 41  1  0  0  0  0
 29 25  1  0  0  0  0
 31 30  2  0  0  0  0
 31 29  1  0  0  0  0
 32 31  1  0  0  0  0
 33 34  1  0  0  0  0
 34 35  2  0  0  0  0
 34 32  1  0  0  0  0
 36 33  1  0  0  0  0
 37 38  1  0  0  0  0
 38 36  1  0  0  0  0
 39 40  1  0  0  0  0
 40 38  1  0  0  0  0
 41 42  1  0  0  0  0
 42 44  1  0  0  0  0
 44 45  1  0  0  0  0
 44 43  1  0  0  0  0
 46 44  1  0  0  0  0
 48 47  1  0  0  0  0
 49 48  1  0  0  0  0
 50 52  1  0  0  0  0
 51 64  1  0  0  0  0
 52 49  1  0  0  0  0
 52 59  1  0  0  0  0
 53 61  1  0  0  0  0
 54 51  1  0  0  0  0
 54 50  1  0  0  0  0
 55 54  1  0  0  0  0
 55 53  1  0  0  0  0
 57 55  1  0  0  0  0
 58 59  1  0  0  0  0
 60 64  1  0  0  0  0
 60 62  1  0  0  0  0
 61 58  1  0  0  0  0
 61 56  1  0  0  0  0
 62 61  1  0  0  0  0
 63 62  1  0  0  0  0
 64 58  1  0  0  0  0
 65 66  2  0  0  0  0
 66 51  1  0  0  0  0
 67 66  1  0  0  0  0
M  END
>  <MODEL>
3

>  <REMARK>
 VINA RESULT:       1.0      3.300      9.013
  Name = 
  24 active torsions:
  status: ('A' for Active; 'I' for Inactive)
    1  A    between atoms: C_4  and  C_8
    2  A    between atoms: N_5  and  O_43
    3  A    between atoms: C_7  and  C_25
    4  A    between atoms: N_9  and  C_15
    5  A    between atoms: N_9  and  C_29
    6  A    between atoms: C_10  and  C_54
    7  A    between atoms: C_11  and  C_20
    8  A    between atoms: C_13  and  C_62
    9  A    between atoms: C_15  and  C_20
   10  A    between atoms: C_16  and  C_66
   11  A    between atoms: C_16  and  C_67
   12  A    between atoms: C_17  and  C_51
   13  A    between atoms: C_17  and  C_60
   14  A    between atoms: C_17  and  C_66
   15  A    between atoms: N_19  and  C_27
   16  A    between atoms: O_22  and  C_39
   17  A    between atoms: O_22  and  C_55
   18  A    between atoms: C_24  and  C_39
   19  A    between atoms: C_25  and  O_49
   20  A    between atoms: N_30  and  C_67
   21  A    between atoms: C_38  and  C_41
   22  A    between atoms: C_38  and  O_43
   23  A    between atoms: O_49  and  C_59
   24  A    between atoms: C_58  and  C_62
                            x       y       z     vdW  Elec       q    Type
                         _______ _______ _______ _____ _____    ______ ____

>  <TORSDO>
F 24

$$$$
