=
 OpenBabel11052411153D

 26 29  0  0  1  0  0  0  0  0999 V2000
  161.1820  207.6200  153.8830 C   0  0  0  0  0  0  0  0  0  0  0  0
  162.0570  207.7370  148.6940 C   0  0  1  0  0  3  0  0  0  0  0  0
  161.7680  205.5450  147.4980 N   0  0  0  0  0  2  0  0  0  0  0  0
  161.4660  207.0280  149.8380 N   0  0  0  0  0  0  0  0  0  0  0  0
  161.3780  207.3680  151.1470 C   0  0  0  0  0  0  0  0  0  0  0  0
  161.3020  204.9210  148.6990 C   0  0  0  0  0  0  0  0  0  0  0  0
  160.6800  203.8540  151.2600 C   0  0  0  0  0  3  0  0  0  0  0  0
  161.5630  208.6820  153.1040 N   0  0  0  0  0  0  0  0  0  0  0  0
  161.6790  208.5880  151.7460 C   0  0  0  0  0  3  0  0  0  0  0  0
  161.0820  203.5290  148.8460 C   0  0  0  0  0  0  0  0  0  0  0  0
  160.8770  205.2180  151.0560 C   0  0  0  0  0  0  0  0  0  0  0  0
  160.7800  203.0100  150.1320 C   0  0  0  0  0  3  0  0  0  0  0  0
  160.9970  206.2860  151.9190 C   0  0  0  0  0  0  0  0  0  0  0  0
  160.8980  206.3700  153.3030 C   0  0  0  0  0  3  0  0  0  0  0  0
  161.7360  207.0110  147.3630 C   0  0  0  0  0  2  0  0  0  0  0  0
  161.1710  205.7190  149.8150 C   0  0  0  0  0  0  0  0  0  0  0  0
  161.0880  200.3930  146.6840 N   0  0  0  0  0  1  0  0  0  0  0  0
  161.2100  201.1840  147.8600 C   0  0  0  0  0  0  0  0  0  0  0  0
  161.2120  202.6110  147.7520 N   0  0  0  0  0  2  0  0  0  0  0  0
  161.3700  200.6190  148.9740 O   0  0  0  0  0  0  0  0  0  0  0  0
  161.0060  207.9140  156.5020 C   0  0  0  0  0  3  0  0  0  0  0  0
  161.0860  207.7790  155.3060 C   0  0  0  0  0  0  0  0  0  0  0  0
  161.5740  209.1820  148.6240 C   0  0  0  0  0  2  0  0  0  0  0  0
  162.6590  210.0620  148.6070 O   0  0  0  0  0  0  0  0  0  0  0  0
  162.0820  211.3310  148.6080 C   0  0  0  0  0  2  0  0  0  0  0  0
  162.9600  212.2630  147.9260 N   0  0  0  0  0  1  0  0  0  0  0  0
  1 22  1  0  0  0  0
  2 23  1  6  0  0  0
  2  4  1  0  0  0  0
  3  6  1  0  0  0  0
  4  5  1  0  0  0  0
  5  9  2  0  0  0  0
  5 13  1  0  0  0  0
  6 10  2  0  0  0  0
  6 16  1  0  0  0  0
  8  1  2  0  0  0  0
  9  8  1  0  0  0  0
 10 12  1  0  0  0  0
 11  7  1  0  0  0  0
 11 13  1  0  0  0  0
 12  7  2  0  0  0  0
 13 14  2  0  0  0  0
 14  1  1  0  0  0  0
 15  3  1  0  0  0  0
 15  2  1  0  0  0  0
 16  4  1  0  0  0  0
 16 11  2  0  0  0  0
 17 18  1  0  0  0  0
 18 20  2  0  0  0  0
 19 18  1  0  0  0  0
 19 10  1  0  0  0  0
 22 21  3  0  0  0  0
 24 25  1  0  0  0  0
 24 23  1  0  0  0  0
 26 25  1  0  0  0  0
M  END
>  <MODEL>
1

>  <REMARK>
 VINA RESULT:      -8.6      0.000      0.000
  Name = 
  5 active torsions:
  status: ('A' for Active; 'I' for Inactive)
    1  A    between atoms: C_1  and  C_19
    2  A    between atoms: C_2  and  C_25
    3  A    between atoms: C_11  and  N_21
    4  A    between atoms: C_14  and  O_18
    5  A    between atoms: O_18  and  C_25
                            x       y       z     vdW  Elec       q    Type
                         _______ _______ _______ _____ _____    ______ ____

>  <TORSDO>
F 5

$$$$
=
 OpenBabel11052411153D

 26 29  0  0  1  0  0  0  0  0999 V2000
  160.9740  203.2860  150.1980 C   0  0  0  0  0  0  0  0  0  0  0  0
  161.5290  207.5320  153.2580 C   0  0  1  0  0  3  0  0  0  0  0  0
  161.8880  209.7030  152.0430 N   0  0  0  0  0  2  0  0  0  0  0  0
  161.2440  206.9940  151.9210 N   0  0  0  0  0  0  0  0  0  0  0  0
  161.1140  205.7180  151.4840 C   0  0  0  0  0  0  0  0  0  0  0  0
  161.6960  209.0580  150.7800 C   0  0  0  0  0  0  0  0  0  0  0  0
  161.5580  207.4990  148.4050 C   0  0  0  0  0  3  0  0  0  0  0  0
  160.9670  203.3600  151.5670 N   0  0  0  0  0  0  0  0  0  0  0  0
  161.0440  204.5490  152.2360 C   0  0  0  0  0  3  0  0  0  0  0  0
  161.9310  209.6690  149.5230 C   0  0  0  0  0  0  0  0  0  0  0  0
  161.3090  206.9540  149.6620 C   0  0  0  0  0  0  0  0  0  0  0  0
  161.8660  208.8770  148.3480 C   0  0  0  0  0  3  0  0  0  0  0  0
  161.1270  205.6600  150.1020 C   0  0  0  0  0  0  0  0  0  0  0  0
  161.0710  204.4510  149.4170 C   0  0  0  0  0  3  0  0  0  0  0  0
  161.3920  209.0760  153.2790 C   0  0  0  0  0  2  0  0  0  0  0  0
  161.3740  207.7180  150.7980 C   0  0  0  0  0  0  0  0  0  0  0  0
  161.9630  213.3750  148.6440 N   0  0  0  0  0  1  0  0  0  0  0  0
  161.6960  211.9860  148.4920 C   0  0  0  0  0  0  0  0  0  0  0  0
  162.2920  211.0510  149.3970 N   0  0  0  0  0  2  0  0  0  0  0  0
  160.9830  211.5920  147.5320 O   0  0  0  0  0  0  0  0  0  0  0  0
  160.8360  200.9290  149.0140 C   0  0  0  0  0  3  0  0  0  0  0  0
  160.8990  202.0050  149.5540 C   0  0  0  0  0  0  0  0  0  0  0  0
  160.6150  206.9170  154.3130 C   0  0  0  0  0  2  0  0  0  0  0  0
  160.1440  207.9000  155.1880 O   0  0  0  0  0  0  0  0  0  0  0  0
  160.0780  207.2640  156.4260 C   0  0  0  0  0  2  0  0  0  0  0  0
  161.1770  207.7130  157.2610 N   0  0  0  0  0  1  0  0  0  0  0  0
  1  8  1  0  0  0  0
  2 15  1  0  0  0  0
  2 23  1  1  0  0  0
  3 15  1  0  0  0  0
  4  2  1  0  0  0  0
  5  4  1  0  0  0  0
  5  9  1  0  0  0  0
  6 16  1  0  0  0  0
  6  3  1  0  0  0  0
  7 11  1  0  0  0  0
  8  9  2  0  0  0  0
 10  6  2  0  0  0  0
 11 13  1  0  0  0  0
 11 16  2  0  0  0  0
 12  7  2  0  0  0  0
 12 10  1  0  0  0  0
 13  5  2  0  0  0  0
 14 13  1  0  0  0  0
 14  1  2  0  0  0  0
 16  4  1  0  0  0  0
 18 17  1  0  0  0  0
 18 19  1  0  0  0  0
 19 10  1  0  0  0  0
 20 18  2  0  0  0  0
 21 22  3  0  0  0  0
 22  1  1  0  0  0  0
 23 24  1  0  0  0  0
 24 25  1  0  0  0  0
 25 26  1  0  0  0  0
M  END
>  <MODEL>
2

>  <REMARK>
 VINA RESULT:      -8.5      2.732      7.031
  Name = 
  5 active torsions:
  status: ('A' for Active; 'I' for Inactive)
    1  A    between atoms: C_1  and  C_19
    2  A    between atoms: C_2  and  C_25
    3  A    between atoms: C_11  and  N_21
    4  A    between atoms: C_14  and  O_18
    5  A    between atoms: O_18  and  C_25
                            x       y       z     vdW  Elec       q    Type
                         _______ _______ _______ _____ _____    ______ ____

>  <TORSDO>
F 5

$$$$
=
 OpenBabel11052411153D

 26 29  0  0  1  0  0  0  0  0999 V2000
  161.3270  205.4200  146.1260 C   0  0  0  0  0  0  0  0  0  0  0  0
  161.5390  204.6200  151.3230 C   0  0  1  0  0  3  0  0  0  0  0  0
  161.8350  206.6850  152.7250 N   0  0  0  0  0  2  0  0  0  0  0  0
  161.3360  205.5700  150.2200 N   0  0  0  0  0  0  0  0  0  0  0  0
  161.2890  205.3800  148.8790 C   0  0  0  0  0  0  0  0  0  0  0  0
  161.7280  207.5190  151.5670 C   0  0  0  0  0  0  0  0  0  0  0  0
  161.7670  208.9260  149.0960 C   0  0  0  0  0  3  0  0  0  0  0  0
  161.2610  204.2340  146.8120 N   0  0  0  0  0  0  0  0  0  0  0  0
  161.2490  204.1790  148.1770 C   0  0  0  0  0  3  0  0  0  0  0  0
  161.9820  208.9130  151.5550 C   0  0  0  0  0  0  0  0  0  0  0  0
  161.4950  207.5620  149.1650 C   0  0  0  0  0  0  0  0  0  0  0  0
  162.0060  209.6000  150.3140 C   0  0  0  0  0  3  0  0  0  0  0  0
  161.3620  206.5840  148.2020 C   0  0  0  0  0  0  0  0  0  0  0  0
  161.3960  206.6440  146.8140 C   0  0  0  0  0  3  0  0  0  0  0  0
  161.3220  205.3060  152.6970 C   0  0  0  0  0  2  0  0  0  0  0  0
  161.4740  206.8980  150.3630 C   0  0  0  0  0  0  0  0  0  0  0  0
  161.7030  210.7690  154.8700 N   0  0  0  0  0  1  0  0  0  0  0  0
  161.3120  210.2950  153.5870 C   0  0  0  0  0  0  0  0  0  0  0  0
  162.2760  209.6500  152.7500 N   0  0  0  0  0  2  0  0  0  0  0  0
  160.1360  210.4960  153.1830 O   0  0  0  0  0  0  0  0  0  0  0  0
  161.3580  205.4030  143.4840 C   0  0  0  0  0  3  0  0  0  0  0  0
  161.3440  205.4110  144.6900 C   0  0  0  0  0  0  0  0  0  0  0  0
  160.6150  203.4130  151.1970 C   0  0  0  0  0  2  0  0  0  0  0  0
  161.3580  202.2410  151.0330 O   0  0  0  0  0  0  0  0  0  0  0  0
  160.5430  201.4140  150.2620 C   0  0  0  0  0  2  0  0  0  0  0  0
  161.2950  200.9170  149.1240 N   0  0  0  0  0  1  0  0  0  0  0  0
  1  8  2  0  0  0  0
  1 14  1  0  0  0  0
  2 23  1  6  0  0  0
  2 15  1  0  0  0  0
  4 16  1  0  0  0  0
  4  2  1  0  0  0  0
  5  4  1  0  0  0  0
  6  3  1  0  0  0  0
  7 11  2  0  0  0  0
  7 12  1  0  0  0  0
  8  9  1  0  0  0  0
  9  5  2  0  0  0  0
 10  6  1  0  0  0  0
 10 19  1  0  0  0  0
 11 16  1  0  0  0  0
 12 10  2  0  0  0  0
 13  5  1  0  0  0  0
 13 11  1  0  0  0  0
 14 13  2  0  0  0  0
 15  3  1  0  0  0  0
 16  6  2  0  0  0  0
 18 17  1  0  0  0  0
 19 18  1  0  0  0  0
 20 18  2  0  0  0  0
 21 22  3  0  0  0  0
 22  1  1  0  0  0  0
 24 23  1  0  0  0  0
 25 24  1  0  0  0  0
 26 25  1  0  0  0  0
M  END
>  <MODEL>
3

>  <REMARK>
 VINA RESULT:      -8.4      2.256      7.759
  Name = 
  5 active torsions:
  status: ('A' for Active; 'I' for Inactive)
    1  A    between atoms: C_1  and  C_19
    2  A    between atoms: C_2  and  C_25
    3  A    between atoms: C_11  and  N_21
    4  A    between atoms: C_14  and  O_18
    5  A    between atoms: O_18  and  C_25
                            x       y       z     vdW  Elec       q    Type
                         _______ _______ _______ _____ _____    ______ ____

>  <TORSDO>
F 5

$$$$
=
 OpenBabel11052411153D

 26 29  0  0  1  0  0  0  0  0999 V2000
  160.7940  207.6100  154.6920 C   0  0  0  0  0  0  0  0  0  0  0  0
  162.2480  209.3670  149.9480 C   0  0  1  0  0  3  0  0  0  0  0  0
  162.2280  207.6560  148.1070 N   0  0  0  0  0  2  0  0  0  0  0  0
  161.5740  208.3230  150.7330 N   0  0  0  0  0  0  0  0  0  0  0  0
  161.3160  208.2340  152.0600 C   0  0  0  0  0  0  0  0  0  0  0  0
  161.6650  206.6770  148.9870 C   0  0  0  0  0  0  0  0  0  0  0  0
  160.8190  204.8480  150.9940 C   0  0  0  0  0  3  0  0  0  0  0  0
  161.1990  208.8710  154.3340 N   0  0  0  0  0  0  0  0  0  0  0  0
  161.4740  209.2100  153.0400 C   0  0  0  0  0  3  0  0  0  0  0  0
  161.5130  205.3040  148.6690 C   0  0  0  0  0  0  0  0  0  0  0  0
  160.9570  206.2100  151.2470 C   0  0  0  0  0  0  0  0  0  0  0  0
  161.0970  204.4030  149.6820 C   0  0  0  0  0  3  0  0  0  0  0  0
  160.9150  206.9560  152.4060 C   0  0  0  0  0  0  0  0  0  0  0  0
  160.6540  206.6000  153.7240 C   0  0  0  0  0  3  0  0  0  0  0  0
  162.1250  209.0890  148.4280 C   0  0  0  0  0  2  0  0  0  0  0  0
  161.3610  207.0810  150.2690 C   0  0  0  0  0  0  0  0  0  0  0  0
  161.8460  204.8140  144.9060 N   0  0  0  0  0  1  0  0  0  0  0  0
  161.2700  205.2420  146.1340 C   0  0  0  0  0  0  0  0  0  0  0  0
  161.8210  204.7790  147.3710 N   0  0  0  0  0  2  0  0  0  0  0  0
  160.2500  205.9800  146.1170 O   0  0  0  0  0  0  0  0  0  0  0  0
  160.3040  207.0630  157.2300 C   0  0  0  0  0  3  0  0  0  0  0  0
  160.5280  207.3130  156.0710 C   0  0  0  0  0  0  0  0  0  0  0  0
  161.6920  210.7510  150.2670 C   0  0  0  0  0  2  0  0  0  0  0  0
  162.2210  211.7060  149.3950 O   0  0  0  0  0  0  0  0  0  0  0  0
  161.1620  212.5770  149.1450 C   0  0  0  0  0  2  0  0  0  0  0  0
  160.7130  212.4140  147.7750 N   0  0  0  0  0  1  0  0  0  0  0  0
  1 22  1  0  0  0  0
  2 23  1  6  0  0  0
  2  4  1  0  0  0  0
  3 15  1  0  0  0  0
  3  6  1  0  0  0  0
  4  5  1  0  0  0  0
  5 13  2  0  0  0  0
  5  9  1  0  0  0  0
  6 16  1  0  0  0  0
  7 11  1  0  0  0  0
  8  1  1  0  0  0  0
  9  8  2  0  0  0  0
 10  6  2  0  0  0  0
 10 12  1  0  0  0  0
 11 13  1  0  0  0  0
 12  7  2  0  0  0  0
 13 14  1  0  0  0  0
 14  1  2  0  0  0  0
 15  2  1  0  0  0  0
 16  4  1  0  0  0  0
 16 11  2  0  0  0  0
 17 18  1  0  0  0  0
 18 19  1  0  0  0  0
 19 10  1  0  0  0  0
 20 18  2  0  0  0  0
 22 21  3  0  0  0  0
 24 23  1  0  0  0  0
 25 24  1  0  0  0  0
 26 25  1  0  0  0  0
M  END
>  <MODEL>
4

>  <REMARK>
 VINA RESULT:      -8.2      2.044      2.346
  Name = 
  5 active torsions:
  status: ('A' for Active; 'I' for Inactive)
    1  A    between atoms: C_1  and  C_19
    2  A    between atoms: C_2  and  C_25
    3  A    between atoms: C_11  and  N_21
    4  A    between atoms: C_14  and  O_18
    5  A    between atoms: O_18  and  C_25
                            x       y       z     vdW  Elec       q    Type
                         _______ _______ _______ _____ _____    ______ ____

>  <TORSDO>
F 5

$$$$
=
 OpenBabel11052411153D

 26 29  0  0  1  0  0  0  0  0999 V2000
  162.0280  210.0990  149.3160 C   0  0  0  0  0  0  0  0  0  0  0  0
  160.9950  205.6470  151.9270 C   0  0  1  0  0  3  0  0  0  0  0  0
  160.9130  203.5640  150.5230 N   0  0  0  0  0  2  0  0  0  0  0  0
  161.5140  206.2790  150.7050 N   0  0  0  0  0  0  0  0  0  0  0  0
  161.6990  207.5830  150.3870 C   0  0  0  0  0  0  0  0  0  0  0  0
  161.3250  204.2960  149.3640 C   0  0  0  0  0  0  0  0  0  0  0  0
  161.8730  206.0170  147.1680 C   0  0  0  0  0  3  0  0  0  0  0  0
  161.7800  209.9300  150.6550 N   0  0  0  0  0  0  0  0  0  0  0  0
  161.6030  208.6970  151.2160 C   0  0  0  0  0  3  0  0  0  0  0  0
  161.3410  203.7720  148.0480 C   0  0  0  0  0  0  0  0  0  0  0  0
  161.8730  206.4750  148.4830 C   0  0  0  0  0  0  0  0  0  0  0  0
  161.6090  204.6450  146.9610 C   0  0  0  0  0  3  0  0  0  0  0  0
  161.9430  207.7370  149.0350 C   0  0  0  0  0  0  0  0  0  0  0  0
  162.1020  208.9900  148.4550 C   0  0  0  0  0  3  0  0  0  0  0  0
  161.1570  204.1060  151.8700 C   0  0  0  0  0  2  0  0  0  0  0  0
  161.6120  205.6330  149.5320 C   0  0  0  0  0  0  0  0  0  0  0  0
  160.9000  200.4060  146.3210 N   0  0  0  0  0  1  0  0  0  0  0  0
  160.9520  201.8210  146.4580 C   0  0  0  0  0  0  0  0  0  0  0  0
  161.0380  202.4000  147.7640 N   0  0  0  0  0  2  0  0  0  0  0  0
  160.8680  202.5470  145.4330 O   0  0  0  0  0  0  0  0  0  0  0  0
  162.3390  212.5340  148.3400 C   0  0  0  0  0  3  0  0  0  0  0  0
  162.1970  211.4220  148.7850 C   0  0  0  0  0  0  0  0  0  0  0  0
  161.6830  206.1930  153.1730 C   0  0  0  0  0  2  0  0  0  0  0  0
  160.7940  206.2280  154.2500 O   0  0  0  0  0  0  0  0  0  0  0  0
  160.8020  207.5570  154.6690 C   0  0  0  0  0  2  0  0  0  0  0  0
  160.0520  207.6800  155.9060 N   0  0  0  0  0  1  0  0  0  0  0  0
  1  8  1  0  0  0  0
  2 23  1  1  0  0  0
  3 15  1  0  0  0  0
  4  2  1  0  0  0  0
  5  4  1  0  0  0  0
  5  9  1  0  0  0  0
  6 16  1  0  0  0  0
  6  3  1  0  0  0  0
  7 11  1  0  0  0  0
  8  9  2  0  0  0  0
 10  6  2  0  0  0  0
 11 13  1  0  0  0  0
 11 16  2  0  0  0  0
 12  7  2  0  0  0  0
 12 10  1  0  0  0  0
 13  5  2  0  0  0  0
 14 13  1  0  0  0  0
 14  1  2  0  0  0  0
 15  2  1  0  0  0  0
 16  4  1  0  0  0  0
 17 18  1  0  0  0  0
 18 19  1  0  0  0  0
 19 10  1  0  0  0  0
 20 18  2  0  0  0  0
 21 22  3  0  0  0  0
 22  1  1  0  0  0  0
 23 24  1  0  0  0  0
 24 25  1  0  0  0  0
 25 26  1  0  0  0  0
M  END
>  <MODEL>
5

>  <REMARK>
 VINA RESULT:      -8.2      2.125      4.716
  Name = 
  5 active torsions:
  status: ('A' for Active; 'I' for Inactive)
    1  A    between atoms: C_1  and  C_19
    2  A    between atoms: C_2  and  C_25
    3  A    between atoms: C_11  and  N_21
    4  A    between atoms: C_14  and  O_18
    5  A    between atoms: O_18  and  C_25
                            x       y       z     vdW  Elec       q    Type
                         _______ _______ _______ _____ _____    ______ ____

>  <TORSDO>
F 5

$$$$
=
 OpenBabel11052411153D

 26 29  0  0  1  0  0  0  0  0999 V2000
  161.1540  200.7040  146.4850 C   0  0  0  0  0  0  0  0  0  0  0  0
  160.6440  205.7750  147.7980 C   0  0  1  0  0  3  0  0  0  0  0  0
  160.6500  206.2610  150.2640 N   0  0  0  0  0  2  0  0  0  0  0  0
  161.0370  204.4190  148.2080 N   0  0  0  0  0  0  0  0  0  0  0  0
  161.0950  203.2600  147.5090 C   0  0  0  0  0  0  0  0  0  0  0  0
  160.9310  204.8880  150.5600 C   0  0  0  0  0  0  0  0  0  0  0  0
  161.2060  202.0780  150.8910 C   0  0  0  0  0  3  0  0  0  0  0  0
  161.0000  201.7890  145.6610 N   0  0  0  0  0  0  0  0  0  0  0  0
  160.9580  203.0690  146.1370 C   0  0  0  0  0  3  0  0  0  0  0  0
  160.9120  204.3280  151.8620 C   0  0  0  0  0  0  0  0  0  0  0  0
  161.2460  202.6810  149.6370 C   0  0  0  0  0  0  0  0  0  0  0  0
  161.0430  202.9230  152.0110 C   0  0  0  0  0  3  0  0  0  0  0  0
  161.2450  202.1750  148.3540 C   0  0  0  0  0  0  0  0  0  0  0  0
  161.2670  200.8700  147.8760 C   0  0  0  0  0  3  0  0  0  0  0  0
  160.9280  206.8020  148.9240 C   0  0  0  0  0  2  0  0  0  0  0  0
  161.1170  204.0380  149.4920 C   0  0  0  0  0  0  0  0  0  0  0  0
  161.0990  207.0640  154.5060 N   0  0  0  0  0  1  0  0  0  0  0  0
  161.5490  206.1930  153.4750 C   0  0  0  0  0  0  0  0  0  0  0  0
  160.7060  205.1240  153.0370 N   0  0  0  0  0  2  0  0  0  0  0  0
  162.7050  206.3430  152.9980 O   0  0  0  0  0  0  0  0  0  0  0  0
  161.2060  198.2730  145.4520 C   0  0  0  0  0  3  0  0  0  0  0  0
  161.1820  199.3830  145.9230 C   0  0  0  0  0  0  0  0  0  0  0  0
  161.3580  206.2000  146.5190 C   0  0  0  0  0  2  0  0  0  0  0  0
  160.4620  206.2490  145.4490 O   0  0  0  0  0  0  0  0  0  0  0  0
  161.2060  205.8280  144.3480 C   0  0  0  0  0  2  0  0  0  0  0  0
  162.5800  205.5930  144.7530 N   0  0  0  0  0  1  0  0  0  0  0  0
  1 14  1  0  0  0  0
  2 23  1  6  0  0  0
  2  4  1  0  0  0  0
  2 15  1  0  0  0  0
  3  6  1  0  0  0  0
  4 16  1  0  0  0  0
  5  4  1  0  0  0  0
  5 13  1  0  0  0  0
  6 10  1  0  0  0  0
  7 12  1  0  0  0  0
  8  9  1  0  0  0  0
  8  1  2  0  0  0  0
  9  5  2  0  0  0  0
 10 12  2  0  0  0  0
 10 19  1  0  0  0  0
 11  7  2  0  0  0  0
 13 11  1  0  0  0  0
 14 13  2  0  0  0  0
 15  3  1  0  0  0  0
 16 11  1  0  0  0  0
 16  6  2  0  0  0  0
 18 17  1  0  0  0  0
 19 18  1  0  0  0  0
 20 18  2  0  0  0  0
 21 22  3  0  0  0  0
 22  1  1  0  0  0  0
 24 23  1  0  0  0  0
 25 26  1  0  0  0  0
 25 24  1  0  0  0  0
M  END
>  <MODEL>
6

>  <REMARK>
 VINA RESULT:      -8.2      2.851      6.841
  Name = 
  5 active torsions:
  status: ('A' for Active; 'I' for Inactive)
    1  A    between atoms: C_1  and  C_19
    2  A    between atoms: C_2  and  C_25
    3  A    between atoms: C_11  and  N_21
    4  A    between atoms: C_14  and  O_18
    5  A    between atoms: O_18  and  C_25
                            x       y       z     vdW  Elec       q    Type
                         _______ _______ _______ _____ _____    ______ ____

>  <TORSDO>
F 5

$$$$
=
 OpenBabel11052411153D

 26 29  0  0  1  0  0  0  0  0999 V2000
  161.0180  204.1830  149.6850 C   0  0  0  0  0  0  0  0  0  0  0  0
  161.4150  209.3710  150.4780 C   0  0  1  0  0  3  0  0  0  0  0  0
  161.2860  210.1120  152.8760 N   0  0  0  0  0  2  0  0  0  0  0  0
  161.4880  208.0180  151.0490 N   0  0  0  0  0  0  0  0  0  0  0  0
  161.3780  206.7990  150.4660 C   0  0  0  0  0  0  0  0  0  0  0  0
  161.2570  208.7520  153.3230 C   0  0  0  0  0  0  0  0  0  0  0  0
  160.9300  205.9930  153.9300 C   0  0  0  0  0  3  0  0  0  0  0  0
  161.1640  205.1810  148.7560 N   0  0  0  0  0  0  0  0  0  0  0  0
  161.3350  206.4900  149.1100 C   0  0  0  0  0  3  0  0  0  0  0  0
  161.0040  208.3510  154.6590 C   0  0  0  0  0  0  0  0  0  0  0  0
  161.2080  206.4380  152.6400 C   0  0  0  0  0  0  0  0  0  0  0  0
  160.8360  206.9720  154.9440 C   0  0  0  0  0  3  0  0  0  0  0  0
  161.2270  205.8050  151.4150 C   0  0  0  0  0  0  0  0  0  0  0  0
  161.0310  204.4750  151.0600 C   0  0  0  0  0  3  0  0  0  0  0  0
  161.7920  210.4420  151.5340 C   0  0  0  0  0  2  0  0  0  0  0  0
  161.3680  207.7700  152.3630 C   0  0  0  0  0  0  0  0  0  0  0  0
  159.5630  210.7510  157.2410 N   0  0  0  0  0  1  0  0  0  0  0  0
  159.6690  210.0480  156.0090 C   0  0  0  0  0  0  0  0  0  0  0  0
  160.8520  209.2940  155.7280 N   0  0  0  0  0  2  0  0  0  0  0  0
  158.7440  210.1410  155.1600 O   0  0  0  0  0  0  0  0  0  0  0  0
  160.6780  201.6890  148.8830 C   0  0  0  0  0  3  0  0  0  0  0  0
  160.8330  202.8270  149.2490 C   0  0  0  0  0  0  0  0  0  0  0  0
  162.3170  209.5100  149.2560 C   0  0  0  0  0  2  0  0  0  0  0  0
  161.6800  210.2510  148.2580 O   0  0  0  0  0  0  0  0  0  0  0  0
  162.3200  211.4890  148.2780 C   0  0  0  0  0  2  0  0  0  0  0  0
  161.3370  212.5380  148.4770 N   0  0  0  0  0  1  0  0  0  0  0  0
  1 14  1  0  0  0  0
  2 23  1  6  0  0  0
  2  4  1  0  0  0  0
  2 15  1  0  0  0  0
  3  6  1  0  0  0  0
  4 16  1  0  0  0  0
  5  4  1  0  0  0  0
  5 13  1  0  0  0  0
  6 10  1  0  0  0  0
  7 12  1  0  0  0  0
  8  9  1  0  0  0  0
  8  1  2  0  0  0  0
  9  5  2  0  0  0  0
 10 12  2  0  0  0  0
 10 19  1  0  0  0  0
 11  7  2  0  0  0  0
 13 11  1  0  0  0  0
 14 13  2  0  0  0  0
 15  3  1  0  0  0  0
 16 11  1  0  0  0  0
 16  6  2  0  0  0  0
 18 17  1  0  0  0  0
 19 18  1  0  0  0  0
 20 18  2  0  0  0  0
 21 22  3  0  0  0  0
 22  1  1  0  0  0  0
 24 25  1  0  0  0  0
 24 23  1  0  0  0  0
 25 26  1  0  0  0  0
M  END
>  <MODEL>
7

>  <REMARK>
 VINA RESULT:      -8.0      2.490      6.519
  Name = 
  5 active torsions:
  status: ('A' for Active; 'I' for Inactive)
    1  A    between atoms: C_1  and  C_19
    2  A    between atoms: C_2  and  C_25
    3  A    between atoms: C_11  and  N_21
    4  A    between atoms: C_14  and  O_18
    5  A    between atoms: O_18  and  C_25
                            x       y       z     vdW  Elec       q    Type
                         _______ _______ _______ _____ _____    ______ ____

>  <TORSDO>
F 5

$$$$
=
 OpenBabel11052411153D

 26 29  0  0  1  0  0  0  0  0999 V2000
  161.1750  204.4380  147.7060 C   0  0  0  0  0  0  0  0  0  0  0  0
  161.5010  209.1400  150.0490 C   0  0  1  0  0  3  0  0  0  0  0  0
  161.4840  209.1000  152.5620 N   0  0  0  0  0  2  0  0  0  0  0  0
  161.6330  207.6810  150.1690 N   0  0  0  0  0  0  0  0  0  0  0  0
  161.5190  206.6980  149.2430 C   0  0  0  0  0  0  0  0  0  0  0  0
  161.5090  207.6690  152.5670 C   0  0  0  0  0  0  0  0  0  0  0  0
  161.2750  204.8470  152.3030 C   0  0  0  0  0  3  0  0  0  0  0  0
  161.2490  205.6790  147.1270 N   0  0  0  0  0  0  0  0  0  0  0  0
  161.4100  206.8200  147.8610 C   0  0  0  0  0  3  0  0  0  0  0  0
  161.3360  206.8670  153.7220 C   0  0  0  0  0  0  0  0  0  0  0  0
  161.4740  205.6780  151.2030 C   0  0  0  0  0  0  0  0  0  0  0  0
  161.2130  205.4610  153.5740 C   0  0  0  0  0  3  0  0  0  0  0  0
  161.4400  205.4540  149.8430 C   0  0  0  0  0  0  0  0  0  0  0  0
  161.2550  204.2920  149.1020 C   0  0  0  0  0  3  0  0  0  0  0  0
  161.9100  209.8460  151.3670 C   0  0  0  0  0  2  0  0  0  0  0  0
  161.5900  207.0360  151.3450 C   0  0  0  0  0  0  0  0  0  0  0  0
  160.1810  207.7020  157.2540 N   0  0  0  0  0  1  0  0  0  0  0  0
  160.0750  207.3260  155.8860 C   0  0  0  0  0  0  0  0  0  0  0  0
  161.2210  207.4280  155.0360 N   0  0  0  0  0  2  0  0  0  0  0  0
  158.9610  206.9590  155.4280 O   0  0  0  0  0  0  0  0  0  0  0  0
  160.8470  202.3020  146.1870 C   0  0  0  0  0  3  0  0  0  0  0  0
  160.9970  203.2770  146.8810 C   0  0  0  0  0  0  0  0  0  0  0  0
  162.3330  209.6820  148.8920 C   0  0  0  0  0  2  0  0  0  0  0  0
  161.7220  210.8070  148.3330 O   0  0  0  0  0  0  0  0  0  0  0  0
  162.7450  211.7490  148.2330 C   0  0  0  0  0  2  0  0  0  0  0  0
  162.1970  213.0110  147.7710 N   0  0  0  0  0  1  0  0  0  0  0  0
  1 14  1  0  0  0  0
  2 23  1  6  0  0  0
  2  4  1  0  0  0  0
  2 15  1  0  0  0  0
  3  6  1  0  0  0  0
  4 16  1  0  0  0  0
  5 13  1  0  0  0  0
  5  4  1  0  0  0  0
  6 10  1  0  0  0  0
  7 12  1  0  0  0  0
  8  1  2  0  0  0  0
  8  9  1  0  0  0  0
  9  5  2  0  0  0  0
 10 19  1  0  0  0  0
 11 16  1  0  0  0  0
 11  7  2  0  0  0  0
 12 10  2  0  0  0  0
 13 11  1  0  0  0  0
 14 13  2  0  0  0  0
 15  3  1  0  0  0  0
 16  6  2  0  0  0  0
 18 17  1  0  0  0  0
 19 18  1  0  0  0  0
 20 18  2  0  0  0  0
 21 22  3  0  0  0  0
 22  1  1  0  0  0  0
 24 23  1  0  0  0  0
 25 24  1  0  0  0  0
 26 25  1  0  0  0  0
M  END
>  <MODEL>
8

>  <REMARK>
 VINA RESULT:      -7.9      2.420      6.075
  Name = 
  5 active torsions:
  status: ('A' for Active; 'I' for Inactive)
    1  A    between atoms: C_1  and  C_19
    2  A    between atoms: C_2  and  C_25
    3  A    between atoms: C_11  and  N_21
    4  A    between atoms: C_14  and  O_18
    5  A    between atoms: O_18  and  C_25
                            x       y       z     vdW  Elec       q    Type
                         _______ _______ _______ _____ _____    ______ ____

>  <TORSDO>
F 5

$$$$
=
 OpenBabel11052411153D

 26 29  0  0  1  0  0  0  0  0999 V2000
  160.8080  202.7150  150.1660 C   0  0  0  0  0  0  0  0  0  0  0  0
  161.5310  207.7150  148.6900 C   0  0  1  0  0  3  0  0  0  0  0  0
  161.6360  209.3910  150.5600 N   0  0  0  0  0  2  0  0  0  0  0  0
  161.5810  206.7190  149.7700 N   0  0  0  0  0  0  0  0  0  0  0  0
  161.3620  205.3820  149.7590 C   0  0  0  0  0  0  0  0  0  0  0  0
  161.5740  208.3460  151.5360 C   0  0  0  0  0  0  0  0  0  0  0  0
  161.1590  206.1230  153.2600 C   0  0  0  0  0  3  0  0  0  0  0  0
  160.9280  203.2240  148.8980 N   0  0  0  0  0  0  0  0  0  0  0  0
  161.1930  204.5430  148.6620 C   0  0  0  0  0  3  0  0  0  0  0  0
  161.4110  208.5560  152.9280 C   0  0  0  0  0  0  0  0  0  0  0  0
  161.3520  205.9690  151.8900 C   0  0  0  0  0  0  0  0  0  0  0  0
  161.1970  207.4380  153.7750 C   0  0  0  0  0  3  0  0  0  0  0  0
  161.2390  204.8860  151.0440 C   0  0  0  0  0  0  0  0  0  0  0  0
  160.9480  203.5490  151.2900 C   0  0  0  0  0  3  0  0  0  0  0  0
  162.0460  209.0930  149.1780 C   0  0  0  0  0  2  0  0  0  0  0  0
  161.5570  207.0490  151.0710 C   0  0  0  0  0  0  0  0  0  0  0  0
  160.3070  211.9080  154.3620 N   0  0  0  0  0  1  0  0  0  0  0  0
  160.2710  210.7510  153.5350 C   0  0  0  0  0  0  0  0  0  0  0  0
  161.3950  209.8670  153.5100 N   0  0  0  0  0  2  0  0  0  0  0  0
  159.2720  210.5480  152.7960 O   0  0  0  0  0  0  0  0  0  0  0  0
  160.2780  200.1490  150.5030 C   0  0  0  0  0  3  0  0  0  0  0  0
  160.5200  201.3200  150.3490 C   0  0  0  0  0  0  0  0  0  0  0  0
  162.3360  207.2620  147.4770 C   0  0  0  0  0  2  0  0  0  0  0  0
  161.4950  206.7040  146.5100 O   0  0  0  0  0  0  0  0  0  0  0  0
  162.3200  205.8490  145.7800 C   0  0  0  0  0  2  0  0  0  0  0  0
  161.5030  204.9000  145.0460 N   0  0  0  0  0  1  0  0  0  0  0  0
  1 22  1  0  0  0  0
  1 14  1  0  0  0  0
  2 23  1  6  0  0  0
  2 15  1  0  0  0  0
  2  4  1  0  0  0  0
  3  6  1  0  0  0  0
  4 16  1  0  0  0  0
  5  4  1  0  0  0  0
  5 13  1  0  0  0  0
  6 10  1  0  0  0  0
  7 12  1  0  0  0  0
  8  1  2  0  0  0  0
  9  8  1  0  0  0  0
  9  5  2  0  0  0  0
 10 19  1  0  0  0  0
 10 12  2  0  0  0  0
 11  7  2  0  0  0  0
 13 14  2  0  0  0  0
 13 11  1  0  0  0  0
 15  3  1  0  0  0  0
 16  6  2  0  0  0  0
 16 11  1  0  0  0  0
 18 17  1  0  0  0  0
 19 18  1  0  0  0  0
 20 18  2  0  0  0  0
 22 21  3  0  0  0  0
 24 23  1  0  0  0  0
 25 24  1  0  0  0  0
 26 25  1  0  0  0  0
M  END
>  <MODEL>
9

>  <REMARK>
 VINA RESULT:      -7.4      2.201      6.455
  Name = 
  5 active torsions:
  status: ('A' for Active; 'I' for Inactive)
    1  A    between atoms: C_1  and  C_19
    2  A    between atoms: C_2  and  C_25
    3  A    between atoms: C_11  and  N_21
    4  A    between atoms: C_14  and  O_18
    5  A    between atoms: O_18  and  C_25
                            x       y       z     vdW  Elec       q    Type
                         _______ _______ _______ _____ _____    ______ ____

>  <TORSDO>
F 5

$$$$
