=
 OpenBabel11052411583D

 63 69  0  0  1  0  0  0  0  0999 V2000
  159.9680  212.9280  141.1960 C   0  0  1  0  0  3  0  0  0  0  0  0
  161.1080  213.8470  141.6640 C   0  0  1  0  0  3  0  0  0  0  0  0
  161.4470  213.4730  145.0800 O   0  0  0  0  0  0  0  0  0  0  0  0
  160.7310  213.2760  143.8620 C   0  0  1  0  0  3  0  0  0  0  0  0
  157.7090  213.5690  140.6460 N   0  0  0  0  0  0  0  0  0  0  0  0
  158.6270  213.3310  141.7090 C   0  0  0  0  0  0  0  0  0  0  0  0
  159.2440  213.1120  144.1080 C   0  0  0  0  0  0  0  0  0  0  0  0
  159.7610  212.5420  146.4350 C   0  0  0  0  0  3  0  0  0  0  0  0
  160.9780  214.3460  142.9840 O   0  0  0  0  0  0  0  0  0  0  0  0
  159.8180  213.0110  139.6790 C   0  0  0  0  0  2  0  0  0  0  0  0
  161.0400  212.8810  146.2810 C   0  0  0  0  0  0  0  0  0  0  0  0
  157.4500  212.5510  145.5770 O   0  0  0  0  0  1  0  0  0  0  0  0
  158.8100  212.7460  145.3280 C   0  0  0  0  0  0  0  0  0  0  0  0
  158.2830  213.3210  143.0040 C   0  0  0  0  0  3  0  0  0  0  0  0
  158.3390  213.2760  139.3740 C   0  0  1  0  0  3  0  0  0  0  0  0
  153.0880  213.3200  140.8690 O   0  0  0  0  0  0  0  0  0  0  0  0
  153.3950  213.9800  142.0610 C   0  0  0  0  0  2  0  0  0  0  0  0
  154.7440  213.5010  142.5950 C   0  0  0  0  0  2  0  0  0  0  0  0
  154.6290  214.4250  139.3320 C   0  0  0  0  0  2  0  0  0  0  0  0
  155.4660  213.4510  139.9060 O   0  0  0  0  0  0  0  0  0  0  0  0
  156.3700  214.1700  140.7060 C   0  0  1  0  0  3  0  0  0  0  0  0
  153.1900  214.2760  139.8440 C   0  0  0  0  0  2  0  0  0  0  0  0
  155.8660  214.4430  142.1360 C   0  0  0  0  0  2  0  0  0  0  0  0
  162.0000  212.6990  147.4190 C   0  0  0  0  0  2  0  0  0  0  0  0
  161.8050  211.4270  148.1990 C   0  0  0  0  0  0  0  0  0  0  0  0
  161.5180  210.3420  147.6220 O   0  0  0  0  0  0  0  0  0  0  0  0
  161.9190  211.4350  149.6660 C   0  0  0  0  0  0  0  0  0  0  0  0
  162.4170  210.2810  150.3640 N   0  0  0  0  0  2  0  0  0  0  0  0
  161.5900  212.4740  150.3030 O   0  0  0  0  0  0  0  0  0  0  0  0
  162.4650  210.1790  151.7680 N   0  0  0  0  0  2  0  0  0  0  0  0
  161.1090  210.2850  152.2980 C   0  0  2  0  0  3  0  0  0  0  0  0
  161.0220  211.3900  153.2760 N   0  0  0  0  0  0  0  0  0  0  0  0
  159.3330  213.4570  153.3190 O   0  0  0  0  0  1  0  0  0  0  0  0
  159.9640  211.2090  155.5080 C   0  0  1  0  0  3  0  0  0  0  0  0
  159.3770  211.9450  153.2860 P   0  0  1  0  0  0  0  0  0  0  0  0
  161.2200  210.9340  154.6540 C   0  0  0  0  0  2  0  0  0  0  0  0
  158.4930  211.3730  151.9640 O   0  0  0  0  0  0  0  0  0  0  0  0
  158.7950  211.3240  154.7300 O   0  0  0  0  0  0  0  0  0  0  0  0
  159.7630  209.8960  156.7440 S   0  0  0  0  0  0  0  0  0  0  0  0
  160.2720  207.3470  155.9440 C   0  0  0  0  0  1  0  0  0  0  0  0
  159.6070  208.6230  155.4550 C   0  0  0  0  0  2  0  0  0  0  0  0
  160.6030  208.9190  152.7910 C   0  0  0  0  0  2  0  0  0  0  0  0
  161.6090  207.8200  152.4870 C   0  0  0  0  0  2  0  0  0  0  0  0
  160.9730  206.7320  151.6260 C   0  0  1  0  0  3  0  0  0  0  0  0
  161.0960  207.0810  150.2210 N   0  0  0  0  0  1  0  0  0  0  0  0
  161.5830  205.3530  151.8940 C   0  0  0  0  0  2  0  0  0  0  0  0
  160.6380  204.2920  151.5630 N   0  0  0  0  0  1  0  0  0  0  0  0
  162.5060  213.2860  141.3800 C   0  0  0  0  0  2  0  0  0  0  0  0
  162.7540  213.1670  139.9850 O   0  0  0  0  0  0  0  0  0  0  0  0
  164.8200  214.4090  140.0140 O   0  0  0  0  0  1  0  0  0  0  0  0
  163.7160  213.9290  139.3190 C   0  0  0  0  0  0  0  0  0  0  0  0
  163.6000  214.1830  138.0890 O   0  0  0  0  0  0  0  0  0  0  0  0
  157.7400  212.0690  138.7960 N   0  0  0  0  0  2  0  0  0  0  0  0
  158.7470  211.1590  138.2400 C   0  0  2  0  0  0  0  0  0  0  0  0
  161.3730  208.8730  139.9140 C   0  0  0  0  0  2  0  0  0  0  0  0
  161.0860  211.6020  137.4970 C   0  0  0  0  0  3  0  0  0  0  0  0
  158.1090  210.2530  137.1880 C   0  0  0  0  0  1  0  0  0  0  0  0
  162.8700  210.1000  138.4530 C   0  0  0  0  0  2  0  0  0  0  0  0
  162.8210  208.9430  139.4440 C   0  0  0  0  0  2  0  0  0  0  0  0
  159.3850  210.3090  139.3560 C   0  0  0  0  0  2  0  0  0  0  0  0
  159.8070  211.9930  137.5620 C   0  0  0  0  0  3  0  0  0  0  0  0
  161.4920  210.3670  138.1040 N   0  0  0  0  0  0  0  0  0  0  0  0
  160.5630  209.4990  138.8010 C   0  0  1  0  0  3  0  0  0  0  0  0
  1 10  1  6  0  0  0
  1  2  1  0  0  0  0
  1  6  1  0  0  0  0
  2 48  1  1  0  0  0
  2  9  1  0  0  0  0
  3 11  1  0  0  0  0
  4  9  1  6  0  0  0
  4  7  1  0  0  0  0
  4  3  1  0  0  0  0
  5  6  1  0  0  0  0
  6 14  2  0  0  0  0
  7 13  2  0  0  0  0
 11  8  2  0  0  0  0
 11 24  1  0  0  0  0
 13 12  1  0  0  0  0
 13  8  1  0  0  0  0
 14  7  1  0  0  0  0
 15 53  1  1  0  0  0
 15 10  1  0  0  0  0
 15  5  1  0  0  0  0
 16 17  1  0  0  0  0
 17 18  1  0  0  0  0
 19 22  1  0  0  0  0
 19 20  1  0  0  0  0
 20 21  1  0  0  0  0
 21  5  1  1  0  0  0
 21 23  1  0  0  0  0
 22 16  1  0  0  0  0
 23 18  1  0  0  0  0
 24 25  1  0  0  0  0
 25 27  1  0  0  0  0
 26 25  2  0  0  0  0
 27 29  2  0  0  0  0
 27 28  1  0  0  0  0
 28 30  1  0  0  0  0
 30 31  1  0  0  0  0
 31 42  1  1  0  0  0
 31 32  1  0  0  0  0
 32 35  1  0  0  0  0
 32 36  1  0  0  0  0
 34 39  1  1  0  0  0
 35 37  2  6  0  0  0
 35 33  1  0  0  0  0
 35 38  1  0  0  0  0
 36 34  1  0  0  0  0
 38 34  1  0  0  0  0
 41 40  1  0  0  0  0
 41 39  1  0  0  0  0
 43 42  1  0  0  0  0
 44 45  1  6  0  0  0
 44 46  1  0  0  0  0
 44 43  1  0  0  0  0
 47 46  1  0  0  0  0
 49 48  1  0  0  0  0
 51 49  1  0  0  0  0
 51 50  1  0  0  0  0
 52 51  2  0  0  0  0
 54 57  1  6  0  0  0
 54 53  1  0  0  0  0
 54 60  1  0  0  0  0
 56 61  2  0  0  0  0
 56 62  1  0  0  0  0
 58 59  1  0  0  0  0
 59 55  1  0  0  0  0
 61 54  1  0  0  0  0
 62 58  1  0  0  0  0
 62 63  1  0  0  0  0
 63 60  1  1  0  0  0
 63 55  1  0  0  0  0
M  END
>  <MODEL>
1

>  <REMARK>
 VINA RESULT:      -2.8      0.000      0.000
  Name = 
  18 active torsions:
  status: ('A' for Active; 'I' for Inactive)
    1  A    between atoms: C_3  and  C_11
    2  A    between atoms: S_5  and  C_28
    3  A    between atoms: S_5  and  C_50
    4  A    between atoms: C_7  and  N_9
    5  A    between atoms: C_8  and  C_36
    6  A    between atoms: C_8  and  C_63
    7  A    between atoms: N_9  and  C_59
    8  A    between atoms: C_11  and  O_13
    9  A    between atoms: N_12  and  C_43
   10  A    between atoms: O_13  and  C_38
   11  A    between atoms: N_16  and  C_46
   12  A    between atoms: C_18  and  C_29
   13  A    between atoms: C_18  and  C_45
   14  A    between atoms: C_19  and  C_29
   15  A    between atoms: N_32  and  N_56
   16  A    between atoms: C_43  and  C_47
   17  A    between atoms: C_43  and  N_56
   18  A    between atoms: C_47  and  C_63
                            x       y       z     vdW  Elec       q    Type
                         _______ _______ _______ _____ _____    ______ ____

>  <TORSDO>
F 18

$$$$
