=
 OpenBabel11052412023D

 61 66  0  0  1  0  0  0  0  0999 V2000
  160.3550  209.5980  153.3320 C   0  0  0  0  0  2  0  0  0  0  0  0
  161.1220  205.4160  153.9350 C   0  0  1  0  0  3  0  0  0  0  0  0
  162.2980  209.7360  150.0940 C   0  0  1  0  0  3  0  0  0  0  0  0
  160.8490  207.6640  150.0150 C   0  0  0  0  0  2  0  0  0  0  0  0
  161.6050  209.8060  152.4980 C   0  0  0  0  0  2  0  0  0  0  0  0
  161.1380  207.4520  155.3810 C   0  0  0  0  0  2  0  0  0  0  0  0
  161.1640  205.0010  152.4610 C   0  0  1  0  0  0  0  0  0  0  0  0
  161.7740  206.7690  154.1870 C   0  0  0  0  0  2  0  0  0  0  0  0
  162.1620  208.3610  149.6440 C   0  0  1  0  0  3  0  0  0  0  0  0
  161.6130  208.8980  155.4470 C   0  0  0  0  0  2  0  0  0  0  0  0
  161.0270  206.1650  150.2380 C   0  0  1  0  0  3  0  0  0  0  0  0
  160.6300  209.8850  154.8070 C   0  0  2  0  0  3  0  0  0  0  0  0
  161.9380  208.3620  147.0730 N   0  0  0  0  0  2  0  0  0  0  0  0
  159.8970  205.5980  153.0520 C   0  0  0  0  0  2  0  0  0  0  0  0
  162.0980  210.2720  148.7650 N   0  0  0  0  0  2  0  0  0  0  0  0
  161.6030  205.5230  149.0690 N   0  0  0  0  0  1  0  0  0  0  0  0
  161.8890  205.9030  151.4660 C   0  0  0  0  0  2  0  0  0  0  0  0
  162.0420  208.8920  148.2470 C   0  0  0  0  0  0  0  0  0  0  0  0
  161.2330  210.2380  151.0860 C   0  0  1  0  0  3  0  0  0  0  0  0
  161.1000  211.7330  151.0390 C   0  0  0  0  0  0  0  0  0  0  0  0
  160.2590  212.3430  151.8660 C   0  0  0  0  0  2  0  0  0  0  0  0
  161.8410  212.4790  150.1240 O   0  0  0  0  0  0  0  0  0  0  0  0
  160.7270  213.6180  146.1050 C   0  0  0  0  0  0  0  0  0  0  0  0
  162.3840  213.5390  148.0140 C   0  0  0  0  0  2  0  0  0  0  0  0
  159.3560  213.9710  146.6230 C   0  0  2  0  0  3  0  0  0  0  0  0
  161.8840  214.2910  146.7730 C   0  0  0  0  0  2  0  0  0  0  0  0
  160.9370  212.5030  145.4050 C   0  0  0  0  0  2  0  0  0  0  0  0
  159.0390  213.2380  147.9290 C   0  0  0  0  0  2  0  0  0  0  0  0
  160.0320  213.6040  149.0280 C   0  0  0  0  0  2  0  0  0  0  0  0
  161.3170  212.8070  148.8470 C   0  0  2  0  0  3  0  0  0  0  0  0
  158.2470  213.8540  145.5640 C   0  0  1  0  0  3  0  0  0  0  0  0
  156.1760  213.4710  145.9920 O   0  0  0  0  0  1  0  0  0  0  0  0
  157.0580  214.4520  145.9970 O   0  0  0  0  0  0  0  0  0  0  0  0
  158.7970  213.4100  143.2590 O   0  0  0  0  0  1  0  0  0  0  0  0
  158.6900  214.4240  144.2160 C   0  0  0  0  0  2  0  0  0  0  0  0
  162.4260  202.9580  152.0570 O   0  0  0  0  0  1  0  0  0  0  0  0
  161.1420  203.4950  152.1670 C   0  0  2  0  0  3  0  0  0  0  0  0
  160.3180  203.1720  150.9270 C   0  0  0  0  0  2  0  0  0  0  0  0
  160.8110  201.9580  150.2920 N   0  0  0  0  0  2  0  0  0  0  0  0
  161.2510  203.0880  148.1230 N   0  0  0  0  0  2  0  0  0  0  0  0
  161.3020  201.9190  148.9500 C   0  0  0  0  0  0  0  0  0  0  0  0
  161.7860  200.8460  148.5060 O   0  0  0  0  0  0  0  0  0  0  0  0
  160.8800  205.6220  144.4320 C   0  0  0  0  0  1  0  0  0  0  0  0
  163.2050  204.1320  146.6580 S   0  0  0  0  0  0  0  0  0  0  0  0
  160.7290  203.7710  145.8570 C   0  0  2  0  0  3  0  0  0  0  0  0
  162.8270  204.4030  144.9040 C   0  0  0  0  0  2  0  0  0  0  0  0
  161.3910  204.2820  144.6590 N   0  0  0  0  0  0  0  0  0  0  0  0
  161.7430  203.0980  146.7550 C   0  0  2  0  0  3  0  0  0  0  0  0
  159.6410  202.7770  145.4700 C   0  0  0  0  0  2  0  0  0  0  0  0
  159.5020  200.5210  144.7960 O   0  0  0  0  0  0  0  0  0  0  0  0
  160.2280  201.4760  145.0340 C   0  0  0  0  0  3  0  0  0  0  0  0
  159.3320  209.9500  155.6090 C   0  0  0  0  0  2  0  0  0  0  0  0
  159.0660  211.3490  156.1520 C   0  0  0  0  0  2  0  0  0  0  0  0
  157.6070  211.7470  155.9860 C   0  0  2  0  0  3  0  0  0  0  0  0
  156.8860  210.6880  155.4250 O   0  0  0  0  0  1  0  0  0  0  0  0
  156.6020  212.8410  153.8610 C   0  0  2  0  0  3  0  0  0  0  0  0
  156.1500  213.6570  155.0680 C   0  0  0  0  0  2  0  0  0  0  0  0
  158.5720  213.8600  155.0200 O   0  0  0  0  0  1  0  0  0  0  0  0
  157.4940  212.9700  155.0860 C   0  0  1  0  0  0  0  0  0  0  0  0
  156.9980  213.7460  152.7740 C   0  0  0  0  0  0  0  0  0  0  0  0
  157.3040  214.4500  151.9090 N   0  0  0  0  0  0  0  0  0  0  0  0
  1 12  1  0  0  0  0
  2 14  1  6  0  0  0
  2  8  1  0  0  0  0
  3 15  1  6  0  0  0
  3 19  1  0  0  0  0
  4 11  1  0  0  0  0
  5  1  1  0  0  0  0
  6 10  1  0  0  0  0
  7 37  1  6  0  0  0
  7 14  1  0  0  0  0
  7  2  1  0  0  0  0
  8  6  1  0  0  0  0
  9  4  1  1  0  0  0
  9  3  1  0  0  0  0
 11 16  1  6  0  0  0
 11 17  1  0  0  0  0
 12 10  1  0  0  0  0
 12 52  1  1  0  0  0
 13 18  2  0  0  0  0
 17  7  1  0  0  0  0
 18 15  1  0  0  0  0
 18  9  1  0  0  0  0
 19 20  1  1  0  0  0
 19  5  1  0  0  0  0
 20 21  2  0  0  0  0
 22 20  1  0  0  0  0
 23 25  1  0  0  0  0
 23 26  1  0  0  0  0
 24 30  1  0  0  0  0
 25 31  1  6  0  0  0
 25 28  1  0  0  0  0
 26 24  1  0  0  0  0
 27 23  2  0  0  0  0
 28 29  1  0  0  0  0
 30 29  1  0  0  0  0
 30 22  1  1  0  0  0
 31 35  1  6  0  0  0
 31 33  1  0  0  0  0
 32 33  1  0  0  0  0
 34 35  1  0  0  0  0
 37 36  1  6  0  0  0
 38 37  1  0  0  0  0
 39 38  1  0  0  0  0
 40 41  1  0  0  0  0
 41 39  1  0  0  0  0
 42 41  2  0  0  0  0
 43 47  1  0  0  0  0
 44 48  1  0  0  0  0
 45 49  1  6  0  0  0
 45 48  1  0  0  0  0
 46 44  1  0  0  0  0
 47 46  1  0  0  0  0
 47 45  1  0  0  0  0
 48 40  1  1  0  0  0
 50 51  2  0  0  0  0
 51 49  1  0  0  0  0
 52 53  1  0  0  0  0
 54 55  1  6  0  0  0
 54 53  1  0  0  0  0
 56 60  1  6  0  0  0
 56 57  1  0  0  0  0
 56 59  1  0  0  0  0
 57 59  1  0  0  0  0
 59 58  1  6  0  0  0
 59 54  1  0  0  0  0
 61 60  3  0  0  0  0
M  END
>  <MODEL>
1

>  <REMARK>
 VINA RESULT:      -2.9      0.000      0.000
  Name = 
  17 active torsions:
  status: ('A' for Active; 'I' for Inactive)
    1  A    between atoms: N_4  and  C_53
    2  A    between atoms: C_6  and  C_8
    3  A    between atoms: C_9  and  C_14
    4  A    between atoms: C_9  and  C_39
    5  A    between atoms: C_11  and  O_48
    6  A    between atoms: C_11  and  C_54
    7  A    between atoms: C_14  and  C_50
    8  A    between atoms: C_20  and  C_55
    9  A    between atoms: C_22  and  C_24
   10  A    between atoms: C_22  and  O_45
   11  A    between atoms: C_22  and  C_59
   12  A    between atoms: C_29  and  C_39
   13  A    between atoms: C_35  and  C_42
   14  A    between atoms: C_35  and  C_52
   15  A    between atoms: N_40  and  C_61
   16  A    between atoms: O_48  and  C_60
   17  A    between atoms: C_53  and  C_55
                            x       y       z     vdW  Elec       q    Type
                         _______ _______ _______ _____ _____    ______ ____

>  <TORSDO>
F 17

$$$$
=
 OpenBabel11052412023D

 61 66  0  0  1  0  0  0  0  0999 V2000
  161.0160  208.2620  150.5080 C   0  0  0  0  0  2  0  0  0  0  0  0
  161.2170  211.9040  148.2420 C   0  0  1  0  0  3  0  0  0  0  0  0
  161.2160  210.0380  153.8380 C   0  0  1  0  0  3  0  0  0  0  0  0
  159.5540  211.3020  152.4080 C   0  0  0  0  0  2  0  0  0  0  0  0
  161.7470  208.8500  151.7000 C   0  0  0  0  0  2  0  0  0  0  0  0
  162.2670  209.6450  148.0710 C   0  0  0  0  0  2  0  0  0  0  0  0
  160.4930  212.8090  149.2430 C   0  0  1  0  0  0  0  0  0  0  0  0
  162.1410  210.8970  148.9150 C   0  0  0  0  0  2  0  0  0  0  0  0
  160.6430  211.3270  153.4860 C   0  0  1  0  0  3  0  0  0  0  0  0
  162.9670  208.5610  148.8810 C   0  0  0  0  0  2  0  0  0  0  0  0
  159.5450  212.5690  151.5580 C   0  0  1  0  0  3  0  0  0  0  0  0
  161.9920  207.5840  149.5490 C   0  0  2  0  0  3  0  0  0  0  0  0
  159.2500  212.1750  155.4860 N   0  0  0  0  0  2  0  0  0  0  0  0
  159.7760  211.6150  148.6340 C   0  0  0  0  0  2  0  0  0  0  0  0
  160.5180  209.9870  155.1050 N   0  0  0  0  0  2  0  0  0  0  0  0
  159.3850  213.7540  152.3810 N   0  0  0  0  0  1  0  0  0  0  0  0
  160.8180  212.6670  150.7270 C   0  0  0  0  0  2  0  0  0  0  0  0
  159.9820  211.3350  154.8310 C   0  0  0  0  0  0  0  0  0  0  0  0
  160.8440  208.8550  152.9260 C   0  0  1  0  0  3  0  0  0  0  0  0
  160.9730  207.5440  153.6470 C   0  0  0  0  0  0  0  0  0  0  0  0
  161.9220  207.3910  154.5650 C   0  0  0  0  0  2  0  0  0  0  0  0
  160.1160  206.4870  153.3490 O   0  0  0  0  0  0  0  0  0  0  0  0
  161.9940  203.1470  151.3460 C   0  0  0  0  0  0  0  0  0  0  0  0
  162.1120  205.3640  152.5590 C   0  0  0  0  0  2  0  0  0  0  0  0
  160.8730  203.1660  150.3400 C   0  0  2  0  0  3  0  0  0  0  0  0
  162.7500  204.4260  151.5230 C   0  0  0  0  0  2  0  0  0  0  0  0
  162.0550  202.2180  152.2990 C   0  0  0  0  0  2  0  0  0  0  0  0
  159.6180  203.8390  150.9030 C   0  0  0  0  0  2  0  0  0  0  0  0
  159.8890  205.2910  151.2860 C   0  0  0  0  0  2  0  0  0  0  0  0
  160.5750  205.3440  152.6450 C   0  0  2  0  0  3  0  0  0  0  0  0
  160.6030  201.7980  149.6910 C   0  0  1  0  0  3  0  0  0  0  0  0
  159.0950  201.2060  148.2780 O   0  0  0  0  0  1  0  0  0  0  0  0
  159.2320  201.5620  149.5410 O   0  0  0  0  0  0  0  0  0  0  0  0
  161.8880  202.8700  147.9550 O   0  0  0  0  0  1  0  0  0  0  0  0
  161.3360  201.6500  148.3570 C   0  0  0  0  0  2  0  0  0  0  0  0
  158.7160  214.4530  148.9760 O   0  0  0  0  0  1  0  0  0  0  0  0
  160.0680  214.1950  148.7400 C   0  0  2  0  0  3  0  0  0  0  0  0
  160.4000  214.3900  147.2660 C   0  0  0  0  0  2  0  0  0  0  0  0
  159.1820  214.4220  146.4700 N   0  0  0  0  0  2  0  0  0  0  0  0
  160.4080  214.3240  144.3110 N   0  0  0  0  0  2  0  0  0  0  0  0
  159.1760  214.3480  145.0430 C   0  0  0  0  0  0  0  0  0  0  0  0
  158.0750  214.2990  144.4360 O   0  0  0  0  0  0  0  0  0  0  0  0
  162.0090  211.5760  141.1380 C   0  0  0  0  0  1  0  0  0  0  0  0
  159.0890  213.2350  142.2800 S   0  0  0  0  0  0  0  0  0  0  0  0
  161.6980  213.5020  142.4310 C   0  0  2  0  0  3  0  0  0  0  0  0
  160.0720  212.8560  140.8030 C   0  0  0  0  0  2  0  0  0  0  0  0
  161.5020  212.9360  141.0980 N   0  0  0  0  0  0  0  0  0  0  0  0
  160.4520  214.2450  142.8600 C   0  0  2  0  0  3  0  0  0  0  0  0
  162.8890  214.4530  142.4250 C   0  0  0  0  0  2  0  0  0  0  0  0
  163.5680  213.2710  144.3500 O   0  0  0  0  0  0  0  0  0  0  0  0
  163.7740  214.2180  143.6050 C   0  0  0  0  0  3  0  0  0  0  0  0
  161.2530  206.7570  148.5000 C   0  0  0  0  0  2  0  0  0  0  0  0
  162.2130  206.0140  147.5780 C   0  0  0  0  0  2  0  0  0  0  0  0
  161.8870  206.2610  146.1120 C   0  0  2  0  0  3  0  0  0  0  0  0
  160.6770  206.9530  146.0040 O   0  0  0  0  0  1  0  0  0  0  0  0
  160.3860  204.3830  145.1440 C   0  0  2  0  0  3  0  0  0  0  0  0
  161.1680  205.0010  143.9900 C   0  0  0  0  0  2  0  0  0  0  0  0
  162.8430  204.0280  145.4570 O   0  0  0  0  0  1  0  0  0  0  0  0
  161.7840  204.9380  145.3660 C   0  0  1  0  0  0  0  0  0  0  0  0
  160.3730  202.9210  145.0040 C   0  0  0  0  0  0  0  0  0  0  0  0
  160.3540  201.7700  144.8830 N   0  0  0  0  0  0  0  0  0  0  0  0
  1  5  1  0  0  0  0
  2 14  1  1  0  0  0
  2  8  1  0  0  0  0
  2  7  1  0  0  0  0
  3 15  1  1  0  0  0
  5 19  1  0  0  0  0
  6 10  1  0  0  0  0
  6  8  1  0  0  0  0
  7 37  1  6  0  0  0
  7 17  1  0  0  0  0
  9  4  1  6  0  0  0
  9  3  1  0  0  0  0
  9 18  1  0  0  0  0
 10 12  1  0  0  0  0
 11 16  1  1  0  0  0
 11  4  1  0  0  0  0
 12 52  1  6  0  0  0
 12  1  1  0  0  0  0
 14  7  1  0  0  0  0
 17 11  1  0  0  0  0
 18 15  1  0  0  0  0
 18 13  2  0  0  0  0
 19 20  1  1  0  0  0
 19  3  1  0  0  0  0
 20 21  2  0  0  0  0
 22 20  1  0  0  0  0
 23 26  1  0  0  0  0
 23 27  2  0  0  0  0
 24 30  1  0  0  0  0
 25 31  1  1  0  0  0
 25 28  1  0  0  0  0
 25 23  1  0  0  0  0
 26 24  1  0  0  0  0
 28 29  1  0  0  0  0
 29 30  1  0  0  0  0
 30 22  1  6  0  0  0
 31 35  1  6  0  0  0
 32 33  1  0  0  0  0
 33 31  1  0  0  0  0
 34 35  1  0  0  0  0
 37 36  1  6  0  0  0
 38 37  1  0  0  0  0
 39 38  1  0  0  0  0
 40 41  1  0  0  0  0
 41 39  1  0  0  0  0
 42 41  2  0  0  0  0
 44 48  1  0  0  0  0
 45 49  1  6  0  0  0
 45 48  1  0  0  0  0
 46 47  1  0  0  0  0
 46 44  1  0  0  0  0
 47 43  1  0  0  0  0
 47 45  1  0  0  0  0
 48 40  1  1  0  0  0
 49 51  1  0  0  0  0
 51 50  2  0  0  0  0
 53 52  1  0  0  0  0
 54 55  1  1  0  0  0
 54 53  1  0  0  0  0
 56 60  1  6  0  0  0
 56 59  1  0  0  0  0
 57 56  1  0  0  0  0
 57 59  1  0  0  0  0
 59 58  1  1  0  0  0
 59 54  1  0  0  0  0
 61 60  3  0  0  0  0
M  END
>  <MODEL>
2

>  <REMARK>
 VINA RESULT:      -2.7      3.160     10.330
  Name = 
  17 active torsions:
  status: ('A' for Active; 'I' for Inactive)
    1  A    between atoms: N_4  and  C_53
    2  A    between atoms: C_6  and  C_8
    3  A    between atoms: C_9  and  C_14
    4  A    between atoms: C_9  and  C_39
    5  A    between atoms: C_11  and  O_48
    6  A    between atoms: C_11  and  C_54
    7  A    between atoms: C_14  and  C_50
    8  A    between atoms: C_20  and  C_55
    9  A    between atoms: C_22  and  C_24
   10  A    between atoms: C_22  and  O_45
   11  A    between atoms: C_22  and  C_59
   12  A    between atoms: C_29  and  C_39
   13  A    between atoms: C_35  and  C_42
   14  A    between atoms: C_35  and  C_52
   15  A    between atoms: N_40  and  C_61
   16  A    between atoms: O_48  and  C_60
   17  A    between atoms: C_53  and  C_55
                            x       y       z     vdW  Elec       q    Type
                         _______ _______ _______ _____ _____    ______ ____

>  <TORSDO>
F 17

$$$$
=
 OpenBabel11052412023D

 61 66  0  0  1  0  0  0  0  0999 V2000
  161.2320  207.5390  149.8300 C   0  0  0  0  0  2  0  0  0  0  0  0
  161.4610  211.7330  148.9410 C   0  0  1  0  0  3  0  0  0  0  0  0
  161.6420  208.0570  153.5510 C   0  0  1  0  0  3  0  0  0  0  0  0
  159.9640  209.7650  152.7320 C   0  0  0  0  0  2  0  0  0  0  0  0
  162.0360  207.6670  151.1100 C   0  0  0  0  0  2  0  0  0  0  0  0
  162.4220  209.6520  147.9510 C   0  0  0  0  0  2  0  0  0  0  0  0
  160.8140  212.2520  150.2290 C   0  0  1  0  0  0  0  0  0  0  0  0
  162.3770  210.5400  149.1780 C   0  0  0  0  0  2  0  0  0  0  0  0
  161.1000  209.3980  153.6930 C   0  0  1  0  0  3  0  0  0  0  0  0
  163.1180  208.3430  148.3010 C   0  0  0  0  0  2  0  0  0  0  0  0
  159.9620  211.2470  152.3690 C   0  0  1  0  0  3  0  0  0  0  0  0
  162.1400  207.2140  148.6460 C   0  0  2  0  0  3  0  0  0  0  0  0
  159.8280  209.5320  155.9350 N   0  0  0  0  0  2  0  0  0  0  0  0
  160.0300  211.3530  149.2870 C   0  0  0  0  0  2  0  0  0  0  0  0
  161.0000  207.5860  154.7600 N   0  0  0  0  0  2  0  0  0  0  0  0
  159.8810  212.0800  153.5560 N   0  0  0  0  0  1  0  0  0  0  0  0
  161.1990  211.6020  151.5550 C   0  0  0  0  0  2  0  0  0  0  0  0
  160.5000  208.9550  154.9930 C   0  0  0  0  0  0  0  0  0  0  0  0
  161.1880  207.2660  152.3100 C   0  0  1  0  0  3  0  0  0  0  0  0
  161.3030  205.7860  152.5310 C   0  0  0  0  0  0  0  0  0  0  0  0
  162.4650  205.2670  152.9130 C   0  0  0  0  0  2  0  0  0  0  0  0
  160.2050  204.9540  152.3230 O   0  0  0  0  0  0  0  0  0  0  0  0
  160.5870  201.2260  150.1650 C   0  0  0  0  0  0  0  0  0  0  0  0
  160.8610  202.6220  152.2570 C   0  0  0  0  0  2  0  0  0  0  0  0
  161.0270  202.0110  148.9570 C   0  0  2  0  0  3  0  0  0  0  0  0
  161.3730  201.4410  151.4210 C   0  0  0  0  0  2  0  0  0  0  0  0
  159.3630  200.7040  150.2450 C   0  0  0  0  0  2  0  0  0  0  0  0
  160.5460  203.4630  149.0200 C   0  0  0  0  0  2  0  0  0  0  0  0
  161.1080  204.1840  150.2420 C   0  0  0  0  0  2  0  0  0  0  0  0
  160.2930  203.8200  151.4750 C   0  0  2  0  0  3  0  0  0  0  0  0
  160.7180  201.3150  147.6220 C   0  0  1  0  0  3  0  0  0  0  0  0
  159.8920  201.4810  145.6440 O   0  0  0  0  0  1  0  0  0  0  0  0
  160.3060  202.2310  146.6470 O   0  0  0  0  0  0  0  0  0  0  0  0
  161.5900  199.1200  147.1360 O   0  0  0  0  0  1  0  0  0  0  0  0
  161.9020  200.4830  147.1300 C   0  0  0  0  0  2  0  0  0  0  0  0
  159.1570  213.9340  150.8240 O   0  0  0  0  0  1  0  0  0  0  0  0
  160.4160  213.7330  150.2550 C   0  0  2  0  0  3  0  0  0  0  0  0
  160.4840  214.3630  148.8690 C   0  0  0  0  0  2  0  0  0  0  0  0
  159.1530  214.4530  148.2870 N   0  0  0  0  0  2  0  0  0  0  0  0
  160.0070  214.4430  145.9530 N   0  0  0  0  0  2  0  0  0  0  0  0
  158.9120  214.4510  146.8780 C   0  0  0  0  0  0  0  0  0  0  0  0
  157.7260  214.4490  146.4590 O   0  0  0  0  0  0  0  0  0  0  0  0
  160.7980  211.7260  142.4650 C   0  0  0  0  0  1  0  0  0  0  0  0
  158.2790  213.5880  144.1280 S   0  0  0  0  0  0  0  0  0  0  0  0
  160.8920  213.6030  143.8590 C   0  0  2  0  0  3  0  0  0  0  0  0
  158.9710  213.1960  142.4970 C   0  0  0  0  0  2  0  0  0  0  0  0
  160.4300  213.1270  142.5570 N   0  0  0  0  0  0  0  0  0  0  0  0
  159.8110  214.4360  144.5130 C   0  0  2  0  0  3  0  0  0  0  0  0
  162.1560  214.4380  143.6930 C   0  0  0  0  0  2  0  0  0  0  0  0
  163.0480  213.2430  145.5200 O   0  0  0  0  0  0  0  0  0  0  0  0
  163.0700  214.2730  144.8620 C   0  0  0  0  0  3  0  0  0  0  0  0
  161.3270  206.8110  147.4180 C   0  0  0  0  0  2  0  0  0  0  0  0
  161.1500  205.3010  147.3210 C   0  0  0  0  0  2  0  0  0  0  0  0
  161.9760  204.7110  146.1870 C   0  0  2  0  0  3  0  0  0  0  0  0
  163.3010  204.5420  146.6010 O   0  0  0  0  0  1  0  0  0  0  0  0
  161.0540  205.1990  143.8140 C   0  0  2  0  0  3  0  0  0  0  0  0
  160.6320  206.3460  144.7270 C   0  0  0  0  0  2  0  0  0  0  0  0
  163.0610  206.4130  144.6850 O   0  0  0  0  0  1  0  0  0  0  0  0
  161.9380  205.6310  144.9740 C   0  0  1  0  0  0  0  0  0  0  0  0
  161.5080  205.7370  142.5250 C   0  0  0  0  0  0  0  0  0  0  0  0
  161.8750  206.1520  141.5090 N   0  0  0  0  0  0  0  0  0  0  0  0
  1  5  1  0  0  0  0
  2  8  1  1  0  0  0
  2 14  1  0  0  0  0
  2  7  1  0  0  0  0
  3  9  1  0  0  0  0
  3 15  1  1  0  0  0
  5 19  1  0  0  0  0
  6 10  1  0  0  0  0
  6  8  1  0  0  0  0
  7 37  1  1  0  0  0
  7 17  1  0  0  0  0
  9  4  1  6  0  0  0
  9 18  1  0  0  0  0
 10 12  1  0  0  0  0
 11  4  1  0  0  0  0
 11 16  1  1  0  0  0
 12 52  1  6  0  0  0
 12  1  1  0  0  0  0
 14  7  1  0  0  0  0
 15 18  1  0  0  0  0
 17 11  1  0  0  0  0
 18 13  2  0  0  0  0
 19 20  1  1  0  0  0
 19  3  1  0  0  0  0
 20 21  2  0  0  0  0
 22 20  1  0  0  0  0
 23 27  2  0  0  0  0
 23 26  1  0  0  0  0
 25 31  1  6  0  0  0
 25 28  1  0  0  0  0
 25 23  1  0  0  0  0
 26 24  1  0  0  0  0
 28 29  1  0  0  0  0
 29 30  1  0  0  0  0
 30 24  1  0  0  0  0
 30 22  1  1  0  0  0
 31 35  1  6  0  0  0
 32 33  1  0  0  0  0
 33 31  1  0  0  0  0
 35 34  1  0  0  0  0
 37 36  1  6  0  0  0
 38 37  1  0  0  0  0
 39 38  1  0  0  0  0
 40 41  1  0  0  0  0
 41 39  1  0  0  0  0
 42 41  2  0  0  0  0
 43 47  1  0  0  0  0
 44 48  1  0  0  0  0
 45 49  1  6  0  0  0
 45 48  1  0  0  0  0
 46 47  1  0  0  0  0
 46 44  1  0  0  0  0
 47 45  1  0  0  0  0
 48 40  1  1  0  0  0
 49 51  1  0  0  0  0
 51 50  2  0  0  0  0
 53 52  1  0  0  0  0
 54 55  1  1  0  0  0
 54 53  1  0  0  0  0
 56 60  1  6  0  0  0
 56 57  1  0  0  0  0
 56 59  1  0  0  0  0
 57 59  1  0  0  0  0
 59 58  1  6  0  0  0
 59 54  1  0  0  0  0
 61 60  3  0  0  0  0
M  END
>  <MODEL>
3

>  <REMARK>
 VINA RESULT:      -1.2      3.220     10.463
  Name = 
  17 active torsions:
  status: ('A' for Active; 'I' for Inactive)
    1  A    between atoms: N_4  and  C_53
    2  A    between atoms: C_6  and  C_8
    3  A    between atoms: C_9  and  C_14
    4  A    between atoms: C_9  and  C_39
    5  A    between atoms: C_11  and  O_48
    6  A    between atoms: C_11  and  C_54
    7  A    between atoms: C_14  and  C_50
    8  A    between atoms: C_20  and  C_55
    9  A    between atoms: C_22  and  C_24
   10  A    between atoms: C_22  and  O_45
   11  A    between atoms: C_22  and  C_59
   12  A    between atoms: C_29  and  C_39
   13  A    between atoms: C_35  and  C_42
   14  A    between atoms: C_35  and  C_52
   15  A    between atoms: N_40  and  C_61
   16  A    between atoms: O_48  and  C_60
   17  A    between atoms: C_53  and  C_55
                            x       y       z     vdW  Elec       q    Type
                         _______ _______ _______ _____ _____    ______ ____

>  <TORSDO>
F 17

$$$$
=
 OpenBabel11052412023D

 61 66  0  0  1  0  0  0  0  0999 V2000
  160.8100  210.0700  148.9170 C   0  0  0  0  0  2  0  0  0  0  0  0
  160.4390  212.4990  152.4390 C   0  0  1  0  0  3  0  0  0  0  0  0
  162.4870  207.2280  150.7590 C   0  0  1  0  0  3  0  0  0  0  0  0
  160.5220  207.9820  152.1640 C   0  0  0  0  0  2  0  0  0  0  0  0
  162.0070  209.3080  149.4510 C   0  0  0  0  0  2  0  0  0  0  0  0
  161.1140  212.8980  150.0680 C   0  0  0  0  0  2  0  0  0  0  0  0
  160.2630  211.3650  153.4530 C   0  0  1  0  0  0  0  0  0  0  0  0
  161.4540  212.1690  151.3520 C   0  0  0  0  0  2  0  0  0  0  0  0
  161.9470  207.4220  152.0950 C   0  0  1  0  0  3  0  0  0  0  0  0
  161.9710  212.3490  148.9340 C   0  0  0  0  0  2  0  0  0  0  0  0
  160.2970  208.8530  153.3970 C   0  0  1  0  0  3  0  0  0  0  0  0
  161.2550  211.2810  148.1000 C   0  0  2  0  0  3  0  0  0  0  0  0
  161.5540  205.1060  153.1620 N   0  0  0  0  0  2  0  0  0  0  0  0
  159.2530  211.5530  152.3330 C   0  0  0  0  0  2  0  0  0  0  0  0
  162.3490  205.7890  150.8300 N   0  0  0  0  0  2  0  0  0  0  0  0
  160.5910  208.1240  154.6180 N   0  0  0  0  0  1  0  0  0  0  0  0
  161.1370  210.1210  153.3200 C   0  0  0  0  0  2  0  0  0  0  0  0
  161.8810  205.9300  152.2220 C   0  0  0  0  0  0  0  0  0  0  0  0
  161.6720  207.8300  149.6000 C   0  0  1  0  0  3  0  0  0  0  0  0
  161.9510  207.1210  148.3070 C   0  0  0  0  0  0  0  0  0  0  0  0
  163.1780  207.1480  147.7950 C   0  0  0  0  0  2  0  0  0  0  0  0
  160.9320  206.4500  147.6340 O   0  0  0  0  0  0  0  0  0  0  0  0
  160.7100  202.1910  148.3450 C   0  0  0  0  0  0  0  0  0  0  0  0
  161.3830  204.5280  149.0390 C   0  0  0  0  0  2  0  0  0  0  0  0
  161.0380  201.9670  146.8910 C   0  0  2  0  0  3  0  0  0  0  0  0
  161.6780  203.0240  149.1240 C   0  0  0  0  0  2  0  0  0  0  0  0
  159.4710  202.0260  148.8090 C   0  0  0  0  0  2  0  0  0  0  0  0
  160.6880  203.1890  146.0370 C   0  0  0  0  0  2  0  0  0  0  0  0
  161.4710  204.4210  146.4800 C   0  0  0  0  0  2  0  0  0  0  0  0
  160.8090  205.0390  147.7050 C   0  0  2  0  0  3  0  0  0  0  0  0
  160.4910  200.6440  146.3310 C   0  0  1  0  0  3  0  0  0  0  0  0
  159.9260  200.6550  144.2570 O   0  0  0  0  0  1  0  0  0  0  0  0
  159.4190  200.8600  145.4580 O   0  0  0  0  0  0  0  0  0  0  0  0
  161.3690  198.4490  145.8600 O   0  0  0  0  0  1  0  0  0  0  0  0
  161.5880  199.8150  145.6630 C   0  0  0  0  0  2  0  0  0  0  0  0
  160.7930  212.4660  155.5590 O   0  0  0  0  0  1  0  0  0  0  0  0
  159.8080  211.7630  154.8630 C   0  0  2  0  0  3  0  0  0  0  0  0
  159.3390  210.5590  155.6690 C   0  0  0  0  0  2  0  0  0  0  0  0
  157.9330  210.2880  155.4080 N   0  0  0  0  0  2  0  0  0  0  0  0
  157.3580  212.6920  155.1550 N   0  0  0  0  0  2  0  0  0  0  0  0
  156.9780  211.3110  155.1180 C   0  0  0  0  0  0  0  0  0  0  0  0
  155.8000  210.9830  154.8230 O   0  0  0  0  0  0  0  0  0  0  0  0
  153.9570  213.5160  152.3380 C   0  0  0  0  0  1  0  0  0  0  0  0
  154.8970  213.4840  155.7580 S   0  0  0  0  0  0  0  0  0  0  0  0
  156.0330  213.7130  153.4010 C   0  0  2  0  0  3  0  0  0  0  0  0
  154.0370  214.4530  154.4870 C   0  0  0  0  0  2  0  0  0  0  0  0
  154.7430  214.3710  153.2100 N   0  0  0  0  0  0  0  0  0  0  0  0
  156.4230  213.7660  154.8620 C   0  0  2  0  0  3  0  0  0  0  0  0
  157.1010  214.3980  152.5560 C   0  0  0  0  0  2  0  0  0  0  0  0
  157.7730  214.3150  150.2980 O   0  0  0  0  0  0  0  0  0  0  0  0
  156.8600  214.1800  151.0990 C   0  0  0  0  0  3  0  0  0  0  0  0
  160.0840  211.8920  147.3330 C   0  0  0  0  0  2  0  0  0  0  0  0
  160.2170  211.6850  145.8290 C   0  0  0  0  0  2  0  0  0  0  0  0
  160.5680  212.9830  145.1140 C   0  0  2  0  0  3  0  0  0  0  0  0
  159.4380  213.8030  145.0360 O   0  0  0  0  0  1  0  0  0  0  0  0
  161.4970  213.8840  142.8680 C   0  0  2  0  0  3  0  0  0  0  0  0
  162.5450  212.9530  143.4710 C   0  0  0  0  0  2  0  0  0  0  0  0
  160.6040  211.5530  143.0450 O   0  0  0  0  0  1  0  0  0  0  0  0
  161.0780  212.6880  143.7100 C   0  0  1  0  0  0  0  0  0  0  0  0
  161.3830  213.6300  141.4260 C   0  0  0  0  0  0  0  0  0  0  0  0
  161.3050  213.4290  140.2900 N   0  0  0  0  0  0  0  0  0  0  0  0
  1  5  1  0  0  0  0
  2  8  1  6  0  0  0
  2  7  1  0  0  0  0
  3 15  1  6  0  0  0
  3  9  1  0  0  0  0
  4 11  1  0  0  0  0
  5 19  1  0  0  0  0
  6  8  1  0  0  0  0
  7 37  1  1  0  0  0
  9  4  1  6  0  0  0
  9 18  1  0  0  0  0
 10  6  1  0  0  0  0
 11 16  1  1  0  0  0
 12 52  1  1  0  0  0
 12  1  1  0  0  0  0
 12 10  1  0  0  0  0
 14  2  1  0  0  0  0
 14  7  1  0  0  0  0
 15 18  1  0  0  0  0
 17 11  1  0  0  0  0
 17  7  1  0  0  0  0
 18 13  2  0  0  0  0
 19 20  1  6  0  0  0
 19  3  1  0  0  0  0
 21 20  2  0  0  0  0
 22 20  1  0  0  0  0
 23 27  2  0  0  0  0
 23 26  1  0  0  0  0
 24 26  1  0  0  0  0
 25 31  1  6  0  0  0
 25 23  1  0  0  0  0
 28 29  1  0  0  0  0
 28 25  1  0  0  0  0
 29 30  1  0  0  0  0
 30 22  1  6  0  0  0
 30 24  1  0  0  0  0
 31 35  1  6  0  0  0
 32 33  1  0  0  0  0
 33 31  1  0  0  0  0
 35 34  1  0  0  0  0
 37 36  1  1  0  0  0
 37 38  1  0  0  0  0
 39 38  1  0  0  0  0
 41 40  1  0  0  0  0
 41 39  1  0  0  0  0
 42 41  2  0  0  0  0
 43 47  1  0  0  0  0
 45 49  1  6  0  0  0
 45 48  1  0  0  0  0
 46 44  1  0  0  0  0
 47 45  1  0  0  0  0
 47 46  1  0  0  0  0
 48 40  1  6  0  0  0
 48 44  1  0  0  0  0
 50 51  2  0  0  0  0
 51 49  1  0  0  0  0
 53 52  1  0  0  0  0
 54 55  1  6  0  0  0
 54 53  1  0  0  0  0
 56 60  1  6  0  0  0
 56 57  1  0  0  0  0
 56 59  1  0  0  0  0
 57 59  1  0  0  0  0
 59 58  1  6  0  0  0
 59 54  1  0  0  0  0
 61 60  3  0  0  0  0
M  END
>  <MODEL>
4

>  <REMARK>
 VINA RESULT:      -1.0      3.205     10.472
  Name = 
  17 active torsions:
  status: ('A' for Active; 'I' for Inactive)
    1  A    between atoms: N_4  and  C_53
    2  A    between atoms: C_6  and  C_8
    3  A    between atoms: C_9  and  C_14
    4  A    between atoms: C_9  and  C_39
    5  A    between atoms: C_11  and  O_48
    6  A    between atoms: C_11  and  C_54
    7  A    between atoms: C_14  and  C_50
    8  A    between atoms: C_20  and  C_55
    9  A    between atoms: C_22  and  C_24
   10  A    between atoms: C_22  and  O_45
   11  A    between atoms: C_22  and  C_59
   12  A    between atoms: C_29  and  C_39
   13  A    between atoms: C_35  and  C_42
   14  A    between atoms: C_35  and  C_52
   15  A    between atoms: N_40  and  C_61
   16  A    between atoms: O_48  and  C_60
   17  A    between atoms: C_53  and  C_55
                            x       y       z     vdW  Elec       q    Type
                         _______ _______ _______ _____ _____    ______ ____

>  <TORSDO>
F 17

$$$$
=
 OpenBabel11052412023D

 61 66  0  0  1  0  0  0  0  0999 V2000
  160.9290  208.3240  151.0340 C   0  0  0  0  0  2  0  0  0  0  0  0
  162.5170  210.3370  147.5900 C   0  0  1  0  0  3  0  0  0  0  0  0
  160.8980  211.4540  153.1510 C   0  0  1  0  0  3  0  0  0  0  0  0
  159.9440  212.0650  150.8890 C   0  0  0  0  0  2  0  0  0  0  0  0
  161.5290  209.3170  152.0120 C   0  0  0  0  0  2  0  0  0  0  0  0
  162.9620  208.1660  148.7420 C   0  0  0  0  0  2  0  0  0  0  0  0
  161.8610  211.7010  147.8290 C   0  0  1  0  0  0  0  0  0  0  0  0
  162.9930  209.6760  148.8760 C   0  0  0  0  0  2  0  0  0  0  0  0
  160.7600  212.4700  152.1210 C   0  0  1  0  0  3  0  0  0  0  0  0
  163.1800  207.5340  150.1110 C   0  0  0  0  0  2  0  0  0  0  0  0
  160.4340  212.7450  149.6140 C   0  0  1  0  0  3  0  0  0  0  0  0
  161.8720  207.1440  150.8080 C   0  0  2  0  0  3  0  0  0  0  0  0
  159.2560  214.3590  153.0320 N   0  0  0  0  0  2  0  0  0  0  0  0
  161.0010  210.4660  147.6150 C   0  0  0  0  0  2  0  0  0  0  0  0
  159.9680  212.1190  154.0390 N   0  0  0  0  0  2  0  0  0  0  0  0
  160.4210  214.1910  149.7500 N   0  0  0  0  0  1  0  0  0  0  0  0
  161.8300  212.2590  149.2490 C   0  0  0  0  0  2  0  0  0  0  0  0
  159.8650  213.2190  153.0610 C   0  0  0  0  0  0  0  0  0  0  0  0
  160.4280  210.0360  152.7790 C   0  0  1  0  0  3  0  0  0  0  0  0
  160.0660  209.2400  153.9990 C   0  0  0  0  0  0  0  0  0  0  0  0
  160.9810  208.4650  154.5720 C   0  0  0  0  0  2  0  0  0  0  0  0
  158.7760  209.2970  154.5230 O   0  0  0  0  0  0  0  0  0  0  0  0
  157.3530  212.9050  156.4360 C   0  0  0  0  0  0  0  0  0  0  0  0
  158.4710  210.6370  156.5190 C   0  0  0  0  0  2  0  0  0  0  0  0
  156.1320  212.8490  155.5540 C   0  0  2  0  0  3  0  0  0  0  0  0
  157.6340  211.6890  157.2610 C   0  0  0  0  0  2  0  0  0  0  0  0
  158.3350  213.7770  156.2050 C   0  0  0  0  0  2  0  0  0  0  0  0
  156.3900  212.0350  154.2820 C   0  0  0  0  0  2  0  0  0  0  0  0
  156.7620  210.5920  154.6100 C   0  0  0  0  0  2  0  0  0  0  0  0
  158.2310  210.5160  155.0030 C   0  0  2  0  0  3  0  0  0  0  0  0
  155.4980  214.2240  155.2900 C   0  0  1  0  0  3  0  0  0  0  0  0
  154.2390  213.7620  153.6090 O   0  0  0  0  0  1  0  0  0  0  0  0
  155.3190  214.4530  153.9210 O   0  0  0  0  0  0  0  0  0  0  0  0
  154.1560  213.5780  157.1860 O   0  0  0  0  0  1  0  0  0  0  0  0
  154.1850  214.3970  156.0530 C   0  0  0  0  0  2  0  0  0  0  0  0
  162.0280  214.0250  147.1220 O   0  0  0  0  0  1  0  0  0  0  0  0
  161.9190  212.7070  146.6730 C   0  0  2  0  0  3  0  0  0  0  0  0
  160.7300  212.5590  145.7320 C   0  0  0  0  0  2  0  0  0  0  0  0
  160.7420  213.6120  144.7280 N   0  0  0  0  0  2  0  0  0  0  0  0
  161.0030  212.0190  142.8390 N   0  0  0  0  0  2  0  0  0  0  0  0
  160.8320  213.3570  143.3240 C   0  0  0  0  0  0  0  0  0  0  0  0
  160.7530  214.3200  142.5190 O   0  0  0  0  0  0  0  0  0  0  0  0
  161.6210  214.1910  138.9550 C   0  0  0  0  0  1  0  0  0  0  0  0
  162.8180  211.5250  140.9650 S   0  0  0  0  0  0  0  0  0  0  0  0
  160.6010  212.8910  140.6130 C   0  0  2  0  0  3  0  0  0  0  0  0
  162.3610  211.9880  139.2710 C   0  0  0  0  0  2  0  0  0  0  0  0
  161.1770  212.8450  139.2710 N   0  0  0  0  0  0  0  0  0  0  0  0
  161.0940  211.7100  141.4210 C   0  0  2  0  0  3  0  0  0  0  0  0
  159.0800  212.8620  140.5320 C   0  0  0  0  0  2  0  0  0  0  0  0
  158.6820  211.0290  139.1030 O   0  0  0  0  0  0  0  0  0  0  0  0
  158.6180  212.2400  139.2560 C   0  0  0  0  0  3  0  0  0  0  0  0
  161.1740  206.0140  150.0550 C   0  0  0  0  0  2  0  0  0  0  0  0
  161.6240  204.6410  150.5390 C   0  0  0  0  0  2  0  0  0  0  0  0
  160.4410  203.7070  150.7550 C   0  0  2  0  0  3  0  0  0  0  0  0
  160.5200  203.1250  152.0230 O   0  0  0  0  0  1  0  0  0  0  0  0
  161.4620  202.7330  148.5800 C   0  0  2  0  0  3  0  0  0  0  0  0
  161.6270  201.6940  149.6850 C   0  0  0  0  0  2  0  0  0  0  0  0
  159.2280  201.9640  149.4060 O   0  0  0  0  0  1  0  0  0  0  0  0
  160.4330  202.6150  149.6940 C   0  0  1  0  0  0  0  0  0  0  0  0
  161.0330  202.0720  147.3410 C   0  0  0  0  0  0  0  0  0  0  0  0
  160.7040  201.5590  146.3570 N   0  0  0  0  0  0  0  0  0  0  0  0
  1  5  1  0  0  0  0
  2 14  1  1  0  0  0
  2  7  1  0  0  0  0
  2  8  1  0  0  0  0
  3 15  1  1  0  0  0
  5 19  1  0  0  0  0
  6  8  1  0  0  0  0
  6 10  1  0  0  0  0
  7 37  1  6  0  0  0
  7 17  1  0  0  0  0
  9  4  1  6  0  0  0
  9 18  1  0  0  0  0
  9  3  1  0  0  0  0
 10 12  1  0  0  0  0
 11 16  1  1  0  0  0
 11  4  1  0  0  0  0
 12 52  1  6  0  0  0
 12  1  1  0  0  0  0
 13 18  2  0  0  0  0
 14  7  1  0  0  0  0
 17 11  1  0  0  0  0
 18 15  1  0  0  0  0
 19  3  1  0  0  0  0
 19 20  1  1  0  0  0
 20 22  1  0  0  0  0
 20 21  2  0  0  0  0
 23 26  1  0  0  0  0
 24 26  1  0  0  0  0
 25 31  1  6  0  0  0
 25 23  1  0  0  0  0
 27 23  2  0  0  0  0
 28 29  1  0  0  0  0
 28 25  1  0  0  0  0
 29 30  1  0  0  0  0
 30 22  1  1  0  0  0
 30 24  1  0  0  0  0
 31 35  1  1  0  0  0
 32 33  1  0  0  0  0
 33 31  1  0  0  0  0
 35 34  1  0  0  0  0
 37 36  1  1  0  0  0
 38 37  1  0  0  0  0
 39 38  1  0  0  0  0
 40 41  1  0  0  0  0
 41 39  1  0  0  0  0
 42 41  2  0  0  0  0
 43 47  1  0  0  0  0
 44 48  1  0  0  0  0
 45 49  1  6  0  0  0
 45 48  1  0  0  0  0
 46 44  1  0  0  0  0
 47 46  1  0  0  0  0
 47 45  1  0  0  0  0
 48 40  1  1  0  0  0
 50 51  2  0  0  0  0
 51 49  1  0  0  0  0
 52 53  1  0  0  0  0
 53 54  1  0  0  0  0
 54 55  1  1  0  0  0
 56 60  1  6  0  0  0
 56 57  1  0  0  0  0
 56 59  1  0  0  0  0
 57 59  1  0  0  0  0
 59 58  1  6  0  0  0
 59 54  1  0  0  0  0
 61 60  3  0  0  0  0
M  END
>  <MODEL>
5

>  <REMARK>
 VINA RESULT:      -0.4      3.149      9.551
  Name = 
  17 active torsions:
  status: ('A' for Active; 'I' for Inactive)
    1  A    between atoms: N_4  and  C_53
    2  A    between atoms: C_6  and  C_8
    3  A    between atoms: C_9  and  C_14
    4  A    between atoms: C_9  and  C_39
    5  A    between atoms: C_11  and  O_48
    6  A    between atoms: C_11  and  C_54
    7  A    between atoms: C_14  and  C_50
    8  A    between atoms: C_20  and  C_55
    9  A    between atoms: C_22  and  C_24
   10  A    between atoms: C_22  and  O_45
   11  A    between atoms: C_22  and  C_59
   12  A    between atoms: C_29  and  C_39
   13  A    between atoms: C_35  and  C_42
   14  A    between atoms: C_35  and  C_52
   15  A    between atoms: N_40  and  C_61
   16  A    between atoms: O_48  and  C_60
   17  A    between atoms: C_53  and  C_55
                            x       y       z     vdW  Elec       q    Type
                         _______ _______ _______ _____ _____    ______ ____

>  <TORSDO>
F 17

$$$$
