=
 OpenBabel11052411123D

 60 66  0  0  1  0  0  0  0  0999 V2000
  161.9520  211.9790  148.9830 C   0  0  2  0  0  3  0  0  0  0  0  0
  163.0060  209.5490  150.0740 O   0  0  0  0  0  0  0  0  0  0  0  0
  161.9520  210.6820  148.3210 N   0  0  0  0  0  2  0  0  0  0  0  0
  162.5140  209.5090  148.9140 C   0  0  0  0  0  0  0  0  0  0  0  0
  162.4980  208.2260  148.1590 C   0  0  0  0  0  2  0  0  0  0  0  0
  162.5050  207.1120  149.0920 N   0  0  0  0  0  2  0  0  0  0  0  0
  161.0000  207.2040  150.0130 S   0  0  0  0  0  0  0  0  0  0  0  0
  162.5450  204.9040  146.0350 C   0  0  0  0  0  2  0  0  0  0  0  0
  162.0850  205.0680  147.4900 C   0  0  2  0  0  3  0  0  0  0  0  0
  161.2400  203.6440  149.3190 C   0  0  0  0  0  0  0  0  0  0  0  0
  161.3680  204.8690  145.0640 C   0  0  0  0  0  2  0  0  0  0  0  0
  160.0720  206.2810  146.6320 C   0  0  0  0  0  3  0  0  0  0  0  0
  160.2290  205.8630  149.0530 C   0  0  1  0  0  3  0  0  0  0  0  0
  160.5630  206.1530  145.2220 C   0  0  0  0  0  2  0  0  0  0  0  0
  161.9680  203.8010  148.1290 O   0  0  0  0  0  0  0  0  0  0  0  0
  160.7960  205.8330  147.6680 C   0  0  0  0  0  0  0  0  0  0  0  0
  160.4320  204.5780  149.7340 N   0  0  0  0  0  0  0  0  0  0  0  0
  160.5700  202.4780  151.4120 C   0  0  0  0  0  1  0  0  0  0  0  0
  161.3370  202.3710  150.1030 C   0  0  1  0  0  3  0  0  0  0  0  0
  160.2380  200.8250  147.0040 C   0  0  0  0  0  2  0  0  0  0  0  0
  160.9470  201.1100  149.3200 C   0  0  0  0  0  3  0  0  0  0  0  0
  161.4770  199.9940  147.2530 C   0  0  0  0  0  2  0  0  0  0  0  0
  159.7790  201.3170  148.3620 C   0  0  0  0  0  2  0  0  0  0  0  0
  162.1060  200.5680  148.5020 C   0  0  0  0  0  2  0  0  0  0  0  0
  160.5470  212.2880  149.4900 C   0  0  0  0  0  2  0  0  0  0  0  0
  159.6260  212.7230  151.6410 O   0  0  0  0  0  0  0  0  0  0  0  0
  160.4290  212.0400  150.9550 C   0  0  0  0  0  0  0  0  0  0  0  0
  161.2150  211.0540  151.5490 O   0  0  0  0  0  0  0  0  0  0  0  0
  160.7940  210.3570  152.7120 C   0  0  0  0  0  2  0  0  0  0  0  0
  161.9400  210.2860  153.7020 C   0  0  0  0  0  2  0  0  0  0  0  0
  161.6400  211.2610  157.0250 C   0  0  0  0  0  2  0  0  0  0  0  0
  162.4350  210.8640  155.9560 O   0  0  0  0  0  0  0  0  0  0  0  0
  160.2580  211.4990  156.4800 C   0  0  1  0  0  0  0  0  0  0  0  0
  161.7430  211.2990  154.8160 C   0  0  2  0  0  3  0  0  0  0  0  0
  160.3690  211.4460  155.0860 O   0  0  0  0  0  0  0  0  0  0  0  0
  158.2880  210.1940  155.9880 O   0  0  0  0  0  1  0  0  0  0  0  0
  159.2780  210.4060  156.9510 C   0  0  1  0  0  3  0  0  0  0  0  0
  159.9800  209.0870  157.2610 C   0  0  0  0  0  2  0  0  0  0  0  0
  159.7610  208.1020  156.1300 C   0  0  0  0  0  1  0  0  0  0  0  0
  160.6260  213.8130  156.9890 O   0  0  0  0  0  0  0  0  0  0  0  0
  159.7870  212.8770  156.9120 C   0  0  0  0  0  0  0  0  0  0  0  0
  158.4570  213.1570  157.2610 O   0  0  0  0  0  0  0  0  0  0  0  0
  157.4610  213.5960  156.3440 C   0  0  0  0  0  2  0  0  0  0  0  0
  158.0480  213.9000  155.1160 O   0  0  0  0  0  0  0  0  0  0  0  0
  156.9740  214.0310  154.2370 C   0  0  0  0  0  1  0  0  0  0  0  0
  162.3990  213.0510  147.9920 C   0  0  0  0  0  2  0  0  0  0  0  0
  160.4070  212.4480  146.7150 C   0  0  0  0  0  2  0  0  0  0  0  0
  160.3430  213.6510  144.5560 C   0  0  2  0  0  3  0  0  0  0  0  0
  158.6210  212.0920  145.1960 O   0  0  0  0  0  0  0  0  0  0  0  0
  161.4550  213.2360  146.8430 C   0  0  2  0  0  3  0  0  0  0  0  0
  161.6740  214.4530  145.5300 S   0  0  0  0  0  0  0  0  0  0  0  0
  159.6910  212.6880  145.4810 C   0  0  0  0  0  0  0  0  0  0  0  0
  160.2820  212.7430  142.2120 C   0  0  0  0  0  3  0  0  0  0  0  0
  161.2440  212.1400  141.4220 C   0  0  0  0  0  0  0  0  0  0  0  0
  160.8870  212.9400  143.4000 N   0  0  0  0  0  0  0  0  0  0  0  0
  162.1340  212.5040  143.3330 N   0  0  0  0  0  0  0  0  0  0  0  0
  162.3780  211.9960  142.1360 N   0  0  0  0  0  0  0  0  0  0  0  0
  161.6070  210.2510  139.8590 C   0  0  0  0  0  2  0  0  0  0  0  0
  161.0780  211.6630  140.0150 C   0  0  0  0  0  3  0  0  0  0  0  0
  160.1200  210.4880  139.9920 C   0  0  0  0  0  2  0  0  0  0  0  0
  1 46  1  6  0  0  0
  1 25  1  0  0  0  0
  3  4  1  0  0  0  0
  3  1  1  0  0  0  0
  4  2  2  0  0  0  0
  5  4  1  0  0  0  0
  5  6  1  0  0  0  0
  6  7  1  0  0  0  0
  9  8  1  6  0  0  0
  9 16  1  0  0  0  0
  9 15  1  0  0  0  0
 10 17  2  0  0  0  0
 10 19  1  0  0  0  0
 11 14  1  0  0  0  0
 11  8  1  0  0  0  0
 12 16  2  0  0  0  0
 13 17  1  0  0  0  0
 13  7  1  1  0  0  0
 14 12  1  0  0  0  0
 15 10  1  0  0  0  0
 16 13  1  0  0  0  0
 19 18  1  1  0  0  0
 20 22  1  0  0  0  0
 20 23  1  0  0  0  0
 21 19  1  0  0  0  0
 22 24  1  0  0  0  0
 23 21  1  0  0  0  0
 24 21  1  0  0  0  0
 25 27  1  0  0  0  0
 27 28  1  0  0  0  0
 27 26  2  0  0  0  0
 28 29  1  0  0  0  0
 29 30  1  0  0  0  0
 32 31  1  0  0  0  0
 33 41  1  1  0  0  0
 33 37  1  0  0  0  0
 33 31  1  0  0  0  0
 34 30  1  6  0  0  0
 34 35  1  0  0  0  0
 34 32  1  0  0  0  0
 35 33  1  0  0  0  0
 37 36  1  6  0  0  0
 37 38  1  0  0  0  0
 39 38  1  0  0  0  0
 41 40  2  0  0  0  0
 41 42  1  0  0  0  0
 43 42  1  0  0  0  0
 44 43  1  0  0  0  0
 45 44  1  0  0  0  0
 47 50  1  0  0  0  0
 48 55  1  6  0  0  0
 48 52  1  0  0  0  0
 48 51  1  0  0  0  0
 49 52  2  0  0  0  0
 50 46  1  6  0  0  0
 51 50  1  0  0  0  0
 52 47  1  0  0  0  0
 53 55  1  0  0  0  0
 54 57  1  0  0  0  0
 54 53  2  0  0  0  0
 56 55  1  0  0  0  0
 57 56  2  0  0  0  0
 58 60  1  0  0  0  0
 58 59  1  0  0  0  0
 59 54  1  0  0  0  0
 60 59  1  0  0  0  0
M  END
>  <MODEL>
1

>  <REMARK>
 VINA RESULT:      -4.9      0.000      0.000
  Name = 
  23 active torsions:
  status: ('A' for Active; 'I' for Inactive)
    1  A    between atoms: C_1  and  C_31
    2  A    between atoms: C_1  and  N_52
    3  A    between atoms: C_1  and  C_56
    4  A    between atoms: O_3  and  C_39
    5  A    between atoms: N_4  and  C_32
    6  A    between atoms: N_4  and  S_54
    7  A    between atoms: C_9  and  N_16
    8  A    between atoms: O_11  and  C_39
    9  A    between atoms: O_11  and  C_57
   10  A    between atoms: C_14  and  C_33
   11  A    between atoms: C_17  and  C_18
   12  A    between atoms: C_18  and  C_24
   13  A    between atoms: C_19  and  O_30
   14  A    between atoms: C_19  and  C_31
   15  A    between atoms: C_22  and  C_55
   16  A    between atoms: C_22  and  C_57
   17  A    between atoms: C_23  and  C_55
   18  A    between atoms: C_29  and  S_54
   19  A    between atoms: O_30  and  C_41
   20  A    between atoms: C_32  and  C_53
   21  A    between atoms: C_41  and  C_58
   22  A    between atoms: C_42  and  C_58
   23  A    between atoms: C_45  and  C_56
                            x       y       z     vdW  Elec       q    Type
                         _______ _______ _______ _____ _____    ______ ____

>  <TORSDO>
F 23

$$$$
=
 OpenBabel11052411123D

 60 66  0  0  1  0  0  0  0  0999 V2000
  162.3780  212.1450  148.7680 C   0  0  2  0  0  3  0  0  0  0  0  0
  160.9870  209.9390  147.5820 O   0  0  0  0  0  0  0  0  0  0  0  0
  162.6920  210.7360  148.9690 N   0  0  0  0  0  2  0  0  0  0  0  0
  161.9430  209.6810  148.3620 C   0  0  0  0  0  0  0  0  0  0  0  0
  162.3120  208.2660  148.6400 C   0  0  0  0  0  2  0  0  0  0  0  0
  162.1490  207.4740  147.4320 N   0  0  0  0  0  2  0  0  0  0  0  0
  162.8670  205.8930  147.7530 S   0  0  0  0  0  0  0  0  0  0  0  0
  161.6370  201.2210  147.3470 C   0  0  0  0  0  2  0  0  0  0  0  0
  161.7880  202.5960  148.0140 C   0  0  2  0  0  3  0  0  0  0  0  0
  160.8530  203.8100  149.9480 C   0  0  0  0  0  0  0  0  0  0  0  0
  160.4270  201.1660  146.4180 C   0  0  0  0  0  2  0  0  0  0  0  0
  160.6620  203.5980  146.0160 C   0  0  0  0  0  3  0  0  0  0  0  0
  161.2410  205.0860  147.8900 C   0  0  1  0  0  3  0  0  0  0  0  0
  160.5700  202.2540  145.3610 C   0  0  0  0  0  2  0  0  0  0  0  0
  161.1670  202.6060  149.2950 O   0  0  0  0  0  0  0  0  0  0  0  0
  161.2690  203.7580  147.2020 C   0  0  0  0  0  0  0  0  0  0  0  0
  160.8700  204.9420  149.3030 N   0  0  0  0  0  0  0  0  0  0  0  0
  160.5880  202.4160  151.9910 C   0  0  0  0  0  1  0  0  0  0  0  0
  160.4360  203.8030  151.3870 C   0  0  1  0  0  3  0  0  0  0  0  0
  162.8710  206.4800  151.7170 C   0  0  0  0  0  2  0  0  0  0  0  0
  161.1150  204.8740  152.2520 C   0  0  0  0  0  3  0  0  0  0  0  0
  161.6410  207.2230  152.1890 C   0  0  0  0  0  2  0  0  0  0  0  0
  162.6120  205.0130  151.9970 C   0  0  0  0  0  2  0  0  0  0  0  0
  160.4970  206.2460  152.0470 C   0  0  0  0  0  2  0  0  0  0  0  0
  160.8670  212.3180  148.6780 C   0  0  0  0  0  2  0  0  0  0  0  0
  161.1600  214.4530  149.6880 O   0  0  0  0  0  0  0  0  0  0  0  0
  160.3990  213.4690  149.5010 C   0  0  0  0  0  0  0  0  0  0  0  0
  159.1200  213.4400  150.0560 O   0  0  0  0  0  0  0  0  0  0  0  0
  158.7590  214.2650  151.1540 C   0  0  0  0  0  2  0  0  0  0  0  0
  158.1270  213.4150  152.2390 C   0  0  0  0  0  2  0  0  0  0  0  0
  159.6290  210.6760  153.7630 C   0  0  0  0  0  2  0  0  0  0  0  0
  159.3550  211.4130  152.6170 O   0  0  0  0  0  0  0  0  0  0  0  0
  159.1530  211.4930  154.9350 C   0  0  1  0  0  0  0  0  0  0  0  0
  159.1990  212.7320  153.0700 C   0  0  2  0  0  3  0  0  0  0  0  0
  158.8320  212.7570  154.4290 O   0  0  0  0  0  0  0  0  0  0  0  0
  157.7130  211.3650  156.8680 O   0  0  0  0  0  1  0  0  0  0  0  0
  157.8960  210.8700  155.5740 C   0  0  1  0  0  3  0  0  0  0  0  0
  156.6370  211.1210  154.7480 C   0  0  0  0  0  2  0  0  0  0  0  0
  155.4220  210.5790  155.4740 C   0  0  0  0  0  1  0  0  0  0  0  0
  160.7620  212.7430  156.1980 O   0  0  0  0  0  0  0  0  0  0  0  0
  160.2800  211.6070  155.9460 C   0  0  0  0  0  0  0  0  0  0  0  0
  160.8370  210.4980  156.6010 O   0  0  0  0  0  0  0  0  0  0  0  0
  161.4230  209.3840  155.9380 C   0  0  0  0  0  2  0  0  0  0  0  0
  161.0630  208.2030  156.5850 O   0  0  0  0  0  0  0  0  0  0  0  0
  159.8990  207.7900  155.9390 C   0  0  0  0  0  1  0  0  0  0  0  0
  163.0400  212.6290  147.4810 C   0  0  0  0  0  2  0  0  0  0  0  0
  160.9020  212.4750  146.3120 C   0  0  0  0  0  2  0  0  0  0  0  0
  160.8810  213.9260  144.3100 C   0  0  2  0  0  3  0  0  0  0  0  0
  158.9890  212.5630  144.9130 O   0  0  0  0  0  0  0  0  0  0  0  0
  162.0630  213.0840  146.4400 C   0  0  2  0  0  3  0  0  0  0  0  0
  162.3780  214.4070  145.2550 S   0  0  0  0  0  0  0  0  0  0  0  0
  160.1520  212.9620  145.1740 C   0  0  0  0  0  0  0  0  0  0  0  0
  160.6400  213.4740  141.8490 C   0  0  0  0  0  3  0  0  0  0  0  0
  161.4150  212.7590  140.9530 C   0  0  0  0  0  0  0  0  0  0  0  0
  161.2370  213.2900  143.0430 N   0  0  0  0  0  0  0  0  0  0  0  0
  162.3080  212.5310  142.8830 N   0  0  0  0  0  0  0  0  0  0  0  0
  162.4360  212.1790  141.6140 N   0  0  0  0  0  0  0  0  0  0  0  0
  161.8030  211.3120  138.9780 C   0  0  0  0  0  2  0  0  0  0  0  0
  161.1650  212.5900  139.4890 C   0  0  0  0  0  3  0  0  0  0  0  0
  160.3200  211.3520  139.2620 C   0  0  0  0  0  2  0  0  0  0  0  0
  1 46  1  6  0  0  0
  1  3  1  0  0  0  0
  2  4  2  0  0  0  0
  4  5  1  0  0  0  0
  4  3  1  0  0  0  0
  6  7  1  0  0  0  0
  6  5  1  0  0  0  0
  9  8  1  6  0  0  0
  9 15  1  0  0  0  0
 10 19  1  0  0  0  0
 11  8  1  0  0  0  0
 12 16  2  0  0  0  0
 13  7  1  1  0  0  0
 13 17  1  0  0  0  0
 14 12  1  0  0  0  0
 14 11  1  0  0  0  0
 15 10  1  0  0  0  0
 16 13  1  0  0  0  0
 16  9  1  0  0  0  0
 17 10  2  0  0  0  0
 19 18  1  1  0  0  0
 19 21  1  0  0  0  0
 20 23  1  0  0  0  0
 20 22  1  0  0  0  0
 23 21  1  0  0  0  0
 24 22  1  0  0  0  0
 24 21  1  0  0  0  0
 25  1  1  0  0  0  0
 25 27  1  0  0  0  0
 27 26  2  0  0  0  0
 27 28  1  0  0  0  0
 28 29  1  0  0  0  0
 29 30  1  0  0  0  0
 31 33  1  0  0  0  0
 32 34  1  0  0  0  0
 32 31  1  0  0  0  0
 33 37  1  0  0  0  0
 33 41  1  1  0  0  0
 34 30  1  6  0  0  0
 34 35  1  0  0  0  0
 35 33  1  0  0  0  0
 37 36  1  1  0  0  0
 38 39  1  0  0  0  0
 38 37  1  0  0  0  0
 41 40  2  0  0  0  0
 41 42  1  0  0  0  0
 43 44  1  0  0  0  0
 43 42  1  0  0  0  0
 45 44  1  0  0  0  0
 47 50  1  0  0  0  0
 48 55  1  6  0  0  0
 48 52  1  0  0  0  0
 48 51  1  0  0  0  0
 49 52  2  0  0  0  0
 50 46  1  6  0  0  0
 51 50  1  0  0  0  0
 52 47  1  0  0  0  0
 53 55  1  0  0  0  0
 54 57  1  0  0  0  0
 54 53  2  0  0  0  0
 56 55  1  0  0  0  0
 57 56  2  0  0  0  0
 58 60  1  0  0  0  0
 58 59  1  0  0  0  0
 59 54  1  0  0  0  0
 60 59  1  0  0  0  0
M  END
>  <MODEL>
2

>  <REMARK>
 VINA RESULT:      -4.6      1.848      3.386
  Name = 
  23 active torsions:
  status: ('A' for Active; 'I' for Inactive)
    1  A    between atoms: C_1  and  C_31
    2  A    between atoms: C_1  and  N_52
    3  A    between atoms: C_1  and  C_56
    4  A    between atoms: O_3  and  C_39
    5  A    between atoms: N_4  and  C_32
    6  A    between atoms: N_4  and  S_54
    7  A    between atoms: C_9  and  N_16
    8  A    between atoms: O_11  and  C_39
    9  A    between atoms: O_11  and  C_57
   10  A    between atoms: C_14  and  C_33
   11  A    between atoms: C_17  and  C_18
   12  A    between atoms: C_18  and  C_24
   13  A    between atoms: C_19  and  O_30
   14  A    between atoms: C_19  and  C_31
   15  A    between atoms: C_22  and  C_55
   16  A    between atoms: C_22  and  C_57
   17  A    between atoms: C_23  and  C_55
   18  A    between atoms: C_29  and  S_54
   19  A    between atoms: O_30  and  C_41
   20  A    between atoms: C_32  and  C_53
   21  A    between atoms: C_41  and  C_58
   22  A    between atoms: C_42  and  C_58
   23  A    between atoms: C_45  and  C_56
                            x       y       z     vdW  Elec       q    Type
                         _______ _______ _______ _____ _____    ______ ____

>  <TORSDO>
F 23

$$$$
=
 OpenBabel11052411123D

 60 66  0  0  1  0  0  0  0  0999 V2000
  162.4270  212.2740  148.4780 C   0  0  2  0  0  3  0  0  0  0  0  0
  160.7740  210.0270  147.8260 O   0  0  0  0  0  0  0  0  0  0  0  0
  162.7930  210.8740  148.6470 N   0  0  0  0  0  2  0  0  0  0  0  0
  161.9110  209.7980  148.3200 C   0  0  0  0  0  0  0  0  0  0  0  0
  162.3510  208.3940  148.5480 C   0  0  0  0  0  2  0  0  0  0  0  0
  162.1420  207.6160  147.3380 N   0  0  0  0  0  2  0  0  0  0  0  0
  162.8580  206.0260  147.6190 S   0  0  0  0  0  0  0  0  0  0  0  0
  161.6080  201.3620  147.1880 C   0  0  0  0  0  2  0  0  0  0  0  0
  161.7700  202.7300  147.8640 C   0  0  2  0  0  3  0  0  0  0  0  0
  160.8590  203.9320  149.8170 C   0  0  0  0  0  0  0  0  0  0  0  0
  160.3890  201.3170  146.2710 C   0  0  0  0  0  2  0  0  0  0  0  0
  160.6290  203.7520  145.8850 C   0  0  0  0  0  3  0  0  0  0  0  0
  161.2300  205.2230  147.7650 C   0  0  1  0  0  3  0  0  0  0  0  0
  160.5260  202.4120  145.2210 C   0  0  0  0  0  2  0  0  0  0  0  0
  161.1620  202.7330  149.1510 O   0  0  0  0  0  0  0  0  0  0  0  0
  161.2470  203.9000  147.0670 C   0  0  0  0  0  0  0  0  0  0  0  0
  160.8730  205.0690  149.1810 N   0  0  0  0  0  0  0  0  0  0  0  0
  161.2830  202.9100  152.0450 C   0  0  0  0  0  1  0  0  0  0  0  0
  160.4560  203.9160  151.2590 C   0  0  1  0  0  3  0  0  0  0  0  0
  162.0770  206.3570  153.4070 C   0  0  0  0  0  2  0  0  0  0  0  0
  160.4500  205.2950  151.9350 C   0  0  0  0  0  3  0  0  0  0  0  0
  161.8690  207.2230  152.1850 C   0  0  0  0  0  2  0  0  0  0  0  0
  161.0050  205.2870  153.3550 C   0  0  0  0  0  2  0  0  0  0  0  0
  161.2490  206.3170  151.1470 C   0  0  0  0  0  2  0  0  0  0  0  0
  160.9080  212.4030  148.4830 C   0  0  0  0  0  2  0  0  0  0  0  0
  161.3230  214.4460  149.6310 O   0  0  0  0  0  0  0  0  0  0  0  0
  160.4670  213.6280  149.2090 C   0  0  0  0  0  0  0  0  0  0  0  0
  159.1060  213.8500  149.4130 O   0  0  0  0  0  0  0  0  0  0  0  0
  158.5550  213.9930  150.7140 C   0  0  0  0  0  2  0  0  0  0  0  0
  158.7900  212.7220  151.5060 C   0  0  0  0  0  2  0  0  0  0  0  0
  159.6510  212.6610  154.8730 C   0  0  0  0  0  2  0  0  0  0  0  0
  159.7620  213.2400  153.6150 O   0  0  0  0  0  0  0  0  0  0  0  0
  158.5490  211.6380  154.7900 C   0  0  1  0  0  0  0  0  0  0  0  0
  158.5400  212.9630  152.9840 C   0  0  2  0  0  3  0  0  0  0  0  0
  157.9260  211.8300  153.5520 O   0  0  0  0  0  0  0  0  0  0  0  0
  160.0490  210.0050  153.8360 O   0  0  0  0  0  1  0  0  0  0  0  0
  159.1150  210.2050  154.8550 C   0  0  1  0  0  3  0  0  0  0  0  0
  159.7550  209.8920  156.2040 C   0  0  0  0  0  2  0  0  0  0  0  0
  160.0760  208.4140  156.2980 C   0  0  0  0  0  1  0  0  0  0  0  0
  156.5940  211.0910  156.0650 O   0  0  0  0  0  0  0  0  0  0  0  0
  157.5590  211.8860  155.9140 C   0  0  0  0  0  0  0  0  0  0  0  0
  157.6490  212.9820  156.7860 O   0  0  0  0  0  0  0  0  0  0  0  0
  156.9130  214.1900  156.6370 C   0  0  0  0  0  2  0  0  0  0  0  0
  156.5280  214.3510  155.3060 O   0  0  0  0  0  0  0  0  0  0  0  0
  155.1540  214.1190  155.3080 C   0  0  0  0  0  1  0  0  0  0  0  0
  162.9930  212.7870  147.1570 C   0  0  0  0  0  2  0  0  0  0  0  0
  160.7930  212.4920  146.1400 C   0  0  0  0  0  2  0  0  0  0  0  0
  160.6050  213.7930  144.0460 C   0  0  2  0  0  3  0  0  0  0  0  0
  158.7960  212.4290  144.8630 O   0  0  0  0  0  0  0  0  0  0  0  0
  161.9410  213.1390  146.1510 C   0  0  2  0  0  3  0  0  0  0  0  0
  162.1420  214.3790  144.8560 S   0  0  0  0  0  0  0  0  0  0  0  0
  159.9600  212.8750  145.0200 C   0  0  0  0  0  0  0  0  0  0  0  0
  162.0560  212.4600  142.4830 C   0  0  0  0  0  3  0  0  0  0  0  0
  161.7930  211.8270  141.2820 C   0  0  0  0  0  0  0  0  0  0  0  0
  160.9010  213.0750  142.8070 N   0  0  0  0  0  0  0  0  0  0  0  0
  159.9950  212.8200  141.8780 N   0  0  0  0  0  0  0  0  0  0  0  0
  160.5170  212.0670  140.9220 N   0  0  0  0  0  0  0  0  0  0  0  0
  162.2920  210.9540  139.0160 C   0  0  0  0  0  2  0  0  0  0  0  0
  162.7560  211.0350  140.4570 C   0  0  0  0  0  3  0  0  0  0  0  0
  163.3740  211.9350  139.4040 C   0  0  0  0  0  2  0  0  0  0  0  0
  1 46  1  6  0  0  0
  1 25  1  0  0  0  0
  1  3  1  0  0  0  0
  2  4  2  0  0  0  0
  4  5  1  0  0  0  0
  4  3  1  0  0  0  0
  6  7  1  0  0  0  0
  6  5  1  0  0  0  0
  9  8  1  6  0  0  0
  9 15  1  0  0  0  0
 10 19  1  0  0  0  0
 11  8  1  0  0  0  0
 12 16  2  0  0  0  0
 13  7  1  1  0  0  0
 13 17  1  0  0  0  0
 14 12  1  0  0  0  0
 14 11  1  0  0  0  0
 15 10  1  0  0  0  0
 16 13  1  0  0  0  0
 16  9  1  0  0  0  0
 17 10  2  0  0  0  0
 19 21  1  0  0  0  0
 19 18  1  1  0  0  0
 21 23  1  0  0  0  0
 22 20  1  0  0  0  0
 23 20  1  0  0  0  0
 24 21  1  0  0  0  0
 24 22  1  0  0  0  0
 25 27  1  0  0  0  0
 27 28  1  0  0  0  0
 27 26  2  0  0  0  0
 28 29  1  0  0  0  0
 29 30  1  0  0  0  0
 32 31  1  0  0  0  0
 33 37  1  0  0  0  0
 33 31  1  0  0  0  0
 33 41  1  1  0  0  0
 34 30  1  6  0  0  0
 34 35  1  0  0  0  0
 34 32  1  0  0  0  0
 35 33  1  0  0  0  0
 37 36  1  6  0  0  0
 37 38  1  0  0  0  0
 38 39  1  0  0  0  0
 41 40  2  0  0  0  0
 41 42  1  0  0  0  0
 43 42  1  0  0  0  0
 44 45  1  0  0  0  0
 44 43  1  0  0  0  0
 47 50  1  0  0  0  0
 48 55  1  6  0  0  0
 48 51  1  0  0  0  0
 48 52  1  0  0  0  0
 49 52  2  0  0  0  0
 50 46  1  6  0  0  0
 51 50  1  0  0  0  0
 52 47  1  0  0  0  0
 53 55  1  0  0  0  0
 54 53  2  0  0  0  0
 56 55  1  0  0  0  0
 57 54  1  0  0  0  0
 57 56  2  0  0  0  0
 58 60  1  0  0  0  0
 58 59  1  0  0  0  0
 59 54  1  0  0  0  0
 60 59  1  0  0  0  0
M  END
>  <MODEL>
3

>  <REMARK>
 VINA RESULT:      -4.5      1.867      3.130
  Name = 
  23 active torsions:
  status: ('A' for Active; 'I' for Inactive)
    1  A    between atoms: C_1  and  C_31
    2  A    between atoms: C_1  and  N_52
    3  A    between atoms: C_1  and  C_56
    4  A    between atoms: O_3  and  C_39
    5  A    between atoms: N_4  and  C_32
    6  A    between atoms: N_4  and  S_54
    7  A    between atoms: C_9  and  N_16
    8  A    between atoms: O_11  and  C_39
    9  A    between atoms: O_11  and  C_57
   10  A    between atoms: C_14  and  C_33
   11  A    between atoms: C_17  and  C_18
   12  A    between atoms: C_18  and  C_24
   13  A    between atoms: C_19  and  O_30
   14  A    between atoms: C_19  and  C_31
   15  A    between atoms: C_22  and  C_55
   16  A    between atoms: C_22  and  C_57
   17  A    between atoms: C_23  and  C_55
   18  A    between atoms: C_29  and  S_54
   19  A    between atoms: O_30  and  C_41
   20  A    between atoms: C_32  and  C_53
   21  A    between atoms: C_41  and  C_58
   22  A    between atoms: C_42  and  C_58
   23  A    between atoms: C_45  and  C_56
                            x       y       z     vdW  Elec       q    Type
                         _______ _______ _______ _____ _____    ______ ____

>  <TORSDO>
F 23

$$$$
=
 OpenBabel11052411123D

 60 66  0  0  1  0  0  0  0  0999 V2000
  162.0040  211.7530  149.0610 C   0  0  2  0  0  3  0  0  0  0  0  0
  163.1350  209.2790  149.9580 O   0  0  0  0  0  0  0  0  0  0  0  0
  162.1150  210.5350  148.2700 N   0  0  0  0  0  2  0  0  0  0  0  0
  162.7100  209.3370  148.7720 C   0  0  0  0  0  0  0  0  0  0  0  0
  162.8100  208.1420  147.8890 C   0  0  0  0  0  2  0  0  0  0  0  0
  162.4000  206.9580  148.6250 N   0  0  0  0  0  2  0  0  0  0  0  0
  160.8190  207.3110  149.3280 S   0  0  0  0  0  0  0  0  0  0  0  0
  162.4930  204.4810  145.7670 C   0  0  0  0  0  2  0  0  0  0  0  0
  161.9280  204.8370  147.1490 C   0  0  2  0  0  3  0  0  0  0  0  0
  160.8140  203.6890  149.0270 C   0  0  0  0  0  0  0  0  0  0  0  0
  161.4040  204.4290  144.6990 C   0  0  0  0  0  2  0  0  0  0  0  0
  160.1050  206.0980  145.9880 C   0  0  0  0  0  3  0  0  0  0  0  0
  160.0210  205.9350  148.4420 C   0  0  1  0  0  3  0  0  0  0  0  0
  160.7010  205.7800  144.6500 C   0  0  0  0  0  2  0  0  0  0  0  0
  161.6510  203.6590  147.8990 O   0  0  0  0  0  0  0  0  0  0  0  0
  160.6990  205.7120  147.1270 C   0  0  0  0  0  0  0  0  0  0  0  0
  160.0550  204.7210  149.2670 N   0  0  0  0  0  0  0  0  0  0  0  0
  161.5670  201.3490  149.4090 C   0  0  0  0  0  1  0  0  0  0  0  0
  160.7360  202.5050  149.9420 C   0  0  1  0  0  3  0  0  0  0  0  0
  162.3530  204.6260  152.4100 C   0  0  0  0  0  2  0  0  0  0  0  0
  161.0670  202.8120  151.4090 C   0  0  0  0  0  3  0  0  0  0  0  0
  160.9500  204.6360  152.9760 C   0  0  0  0  0  2  0  0  0  0  0  0
  162.4820  203.3360  151.6240 C   0  0  0  0  0  2  0  0  0  0  0  0
  160.1150  203.8330  152.0050 C   0  0  0  0  0  2  0  0  0  0  0  0
  160.6050  211.8400  149.6610 C   0  0  0  0  0  2  0  0  0  0  0  0
  159.6940  211.9390  151.8590 O   0  0  0  0  0  0  0  0  0  0  0  0
  160.6140  211.5100  151.1150 C   0  0  0  0  0  0  0  0  0  0  0  0
  161.6450  210.7290  151.6340 O   0  0  0  0  0  0  0  0  0  0  0  0
  161.4420  209.8420  152.7250 C   0  0  0  0  0  2  0  0  0  0  0  0
  162.4860  210.1030  153.7910 C   0  0  0  0  0  2  0  0  0  0  0  0
  161.6280  210.9000  157.0640 C   0  0  0  0  0  2  0  0  0  0  0  0
  162.5960  210.7460  156.0790 O   0  0  0  0  0  0  0  0  0  0  0  0
  160.2900  210.7790  156.3860 C   0  0  1  0  0  0  0  0  0  0  0  0
  161.9260  211.0070  154.8750 C   0  0  2  0  0  3  0  0  0  0  0  0
  160.5430  210.7840  155.0100 O   0  0  0  0  0  0  0  0  0  0  0  0
  158.8710  208.9580  155.6780 O   0  0  0  0  0  1  0  0  0  0  0  0
  159.5910  209.4580  156.7670 C   0  0  1  0  0  3  0  0  0  0  0  0
  160.5740  208.3990  157.2600 C   0  0  0  0  0  2  0  0  0  0  0  0
  160.1140  207.0210  156.8290 C   0  0  0  0  0  1  0  0  0  0  0  0
  159.9380  213.1290  156.7010 O   0  0  0  0  0  0  0  0  0  0  0  0
  159.4350  211.9760  156.7620 C   0  0  0  0  0  0  0  0  0  0  0  0
  158.1090  211.8610  157.2060 O   0  0  0  0  0  0  0  0  0  0  0  0
  157.1830  212.9400  157.2600 C   0  0  0  0  0  2  0  0  0  0  0  0
  156.1480  212.7220  156.3490 O   0  0  0  0  0  0  0  0  0  0  0  0
  156.6440  211.7520  155.4810 C   0  0  0  0  0  1  0  0  0  0  0  0
  162.2650  212.9610  148.1660 C   0  0  0  0  0  2  0  0  0  0  0  0
  159.9430  212.7270  147.4500 C   0  0  0  0  0  2  0  0  0  0  0  0
  159.5540  213.9010  145.3090 C   0  0  2  0  0  3  0  0  0  0  0  0
  157.8000  212.6950  146.4350 O   0  0  0  0  0  0  0  0  0  0  0  0
  161.1130  213.3080  147.2740 C   0  0  2  0  0  3  0  0  0  0  0  0
  161.2070  214.4510  145.8820 S   0  0  0  0  0  0  0  0  0  0  0  0
  158.9950  213.0840  146.4170 C   0  0  0  0  0  0  0  0  0  0  0  0
  159.1090  213.3610  142.8940 C   0  0  0  0  0  3  0  0  0  0  0  0
  159.5970  212.3750  142.0560 C   0  0  0  0  0  0  0  0  0  0  0  0
  159.6570  213.0920  144.0960 N   0  0  0  0  0  0  0  0  0  0  0  0
  160.4360  212.0280  143.9930 N   0  0  0  0  0  0  0  0  0  0  0  0
  160.4100  211.5590  142.7560 N   0  0  0  0  0  0  0  0  0  0  0  0
  158.3550  213.2890  140.1150 C   0  0  0  0  0  2  0  0  0  0  0  0
  159.2630  212.1800  140.6120 C   0  0  0  0  0  3  0  0  0  0  0  0
  159.8330  213.3300  139.8040 C   0  0  0  0  0  2  0  0  0  0  0  0
  1 46  1  6  0  0  0
  1 25  1  0  0  0  0
  3  4  1  0  0  0  0
  3  1  1  0  0  0  0
  4  2  2  0  0  0  0
  5  6  1  0  0  0  0
  5  4  1  0  0  0  0
  6  7  1  0  0  0  0
  9  8  1  6  0  0  0
  9 15  1  0  0  0  0
 10 17  2  0  0  0  0
 10 19  1  0  0  0  0
 11  8  1  0  0  0  0
 12 16  2  0  0  0  0
 13 17  1  0  0  0  0
 13  7  1  1  0  0  0
 14 11  1  0  0  0  0
 14 12  1  0  0  0  0
 15 10  1  0  0  0  0
 16  9  1  0  0  0  0
 16 13  1  0  0  0  0
 19 18  1  6  0  0  0
 19 21  1  0  0  0  0
 20 22  1  0  0  0  0
 21 23  1  0  0  0  0
 21 24  1  0  0  0  0
 23 20  1  0  0  0  0
 24 22  1  0  0  0  0
 25 27  1  0  0  0  0
 27 28  1  0  0  0  0
 27 26  2  0  0  0  0
 28 29  1  0  0  0  0
 29 30  1  0  0  0  0
 32 31  1  0  0  0  0
 33 41  1  1  0  0  0
 33 37  1  0  0  0  0
 33 31  1  0  0  0  0
 34 30  1  6  0  0  0
 34 35  1  0  0  0  0
 34 32  1  0  0  0  0
 35 33  1  0  0  0  0
 37 36  1  6  0  0  0
 37 38  1  0  0  0  0
 39 38  1  0  0  0  0
 40 41  2  0  0  0  0
 41 42  1  0  0  0  0
 42 43  1  0  0  0  0
 44 43  1  0  0  0  0
 45 44  1  0  0  0  0
 48 55  1  6  0  0  0
 48 51  1  0  0  0  0
 48 52  1  0  0  0  0
 50 47  1  0  0  0  0
 50 46  1  6  0  0  0
 51 50  1  0  0  0  0
 52 49  2  0  0  0  0
 52 47  1  0  0  0  0
 53 55  1  0  0  0  0
 54 57  1  0  0  0  0
 54 53  2  0  0  0  0
 56 55  1  0  0  0  0
 57 56  2  0  0  0  0
 58 59  1  0  0  0  0
 59 54  1  0  0  0  0
 60 58  1  0  0  0  0
 60 59  1  0  0  0  0
M  END
>  <MODEL>
4

>  <REMARK>
 VINA RESULT:      -3.1      1.235      2.051
  Name = 
  23 active torsions:
  status: ('A' for Active; 'I' for Inactive)
    1  A    between atoms: C_1  and  C_31
    2  A    between atoms: C_1  and  N_52
    3  A    between atoms: C_1  and  C_56
    4  A    between atoms: O_3  and  C_39
    5  A    between atoms: N_4  and  C_32
    6  A    between atoms: N_4  and  S_54
    7  A    between atoms: C_9  and  N_16
    8  A    between atoms: O_11  and  C_39
    9  A    between atoms: O_11  and  C_57
   10  A    between atoms: C_14  and  C_33
   11  A    between atoms: C_17  and  C_18
   12  A    between atoms: C_18  and  C_24
   13  A    between atoms: C_19  and  O_30
   14  A    between atoms: C_19  and  C_31
   15  A    between atoms: C_22  and  C_55
   16  A    between atoms: C_22  and  C_57
   17  A    between atoms: C_23  and  C_55
   18  A    between atoms: C_29  and  S_54
   19  A    between atoms: O_30  and  C_41
   20  A    between atoms: C_32  and  C_53
   21  A    between atoms: C_41  and  C_58
   22  A    between atoms: C_42  and  C_58
   23  A    between atoms: C_45  and  C_56
                            x       y       z     vdW  Elec       q    Type
                         _______ _______ _______ _____ _____    ______ ____

>  <TORSDO>
F 23

$$$$
=
 OpenBabel11052411123D

 60 66  0  0  1  0  0  0  0  0999 V2000
  160.8780  205.8630  144.5140 C   0  0  2  0  0  3  0  0  0  0  0  0
  161.5940  205.2770  141.8030 O   0  0  0  0  0  0  0  0  0  0  0  0
  161.2050  206.8470  143.4910 N   0  0  0  0  0  2  0  0  0  0  0  0
  161.5750  206.4860  142.1590 C   0  0  0  0  0  0  0  0  0  0  0  0
  161.9210  207.5530  141.1790 C   0  0  0  0  0  2  0  0  0  0  0  0
  162.4780  206.9490  139.9800 N   0  0  0  0  0  2  0  0  0  0  0  0
  161.5730  207.6000  138.6090 S   0  0  0  0  0  0  0  0  0  0  0  0
  162.4270  212.1120  137.0550 C   0  0  0  0  0  2  0  0  0  0  0  0
  161.6090  210.9200  137.5710 C   0  0  2  0  0  3  0  0  0  0  0  0
  159.4090  210.5200  138.6140 C   0  0  0  0  0  0  0  0  0  0  0  0
  163.1640  212.8320  138.1810 C   0  0  0  0  0  2  0  0  0  0  0  0
  163.2600  210.7000  139.4390 C   0  0  0  0  0  3  0  0  0  0  0  0
  161.3070  209.2010  139.4340 C   0  0  1  0  0  3  0  0  0  0  0  0
  164.0720  211.8340  138.8900 C   0  0  0  0  0  2  0  0  0  0  0  0
  160.2600  211.3040  137.8180 O   0  0  0  0  0  0  0  0  0  0  0  0
  162.1670  210.2510  138.8040 C   0  0  0  0  0  0  0  0  0  0  0  0
  159.8880  209.5700  139.3670 N   0  0  0  0  0  0  0  0  0  0  0  0
  157.5450  211.7950  137.5730 C   0  0  0  0  0  1  0  0  0  0  0  0
  157.9390  210.8040  138.6560 C   0  0  1  0  0  3  0  0  0  0  0  0
  154.6660  209.3010  138.1720 C   0  0  0  0  0  2  0  0  0  0  0  0
  157.0480  209.5540  138.6300 C   0  0  0  0  0  3  0  0  0  0  0  0
  155.4550  208.4630  137.1910 C   0  0  0  0  0  2  0  0  0  0  0  0
  155.6570  209.7770  139.2150 C   0  0  0  0  0  2  0  0  0  0  0  0
  156.8600  209.0180  137.2220 C   0  0  0  0  0  2  0  0  0  0  0  0
  160.3430  206.5780  145.7500 C   0  0  0  0  0  2  0  0  0  0  0  0
  162.6180  206.5750  146.4520 O   0  0  0  0  0  0  0  0  0  0  0  0
  161.4200  206.8080  146.7560 C   0  0  0  0  0  0  0  0  0  0  0  0
  161.0830  207.2770  148.0240 O   0  0  0  0  0  0  0  0  0  0  0  0
  162.0570  207.4580  149.0420 C   0  0  0  0  0  2  0  0  0  0  0  0
  161.9500  208.8620  149.6020 C   0  0  0  0  0  2  0  0  0  0  0  0
  160.2730  209.1800  152.6290 C   0  0  0  0  0  2  0  0  0  0  0  0
  160.5410  208.4550  151.4750 O   0  0  0  0  0  0  0  0  0  0  0  0
  161.2450  210.3280  152.6630 C   0  0  1  0  0  0  0  0  0  0  0  0
  161.8460  208.8240  151.1160 C   0  0  2  0  0  3  0  0  0  0  0  0
  162.1750  210.0870  151.6450 O   0  0  0  0  0  0  0  0  0  0  0  0
  160.1830  211.7660  151.0410 O   0  0  0  0  0  1  0  0  0  0  0  0
  160.5340  211.6690  152.3900 C   0  0  1  0  0  3  0  0  0  0  0  0
  159.2910  211.8560  153.2560 C   0  0  0  0  0  2  0  0  0  0  0  0
  158.6380  213.1880  152.9480 C   0  0  0  0  0  1  0  0  0  0  0  0
  163.2020  210.3570  154.0480 O   0  0  0  0  0  0  0  0  0  0  0  0
  161.9430  210.3460  154.0110 C   0  0  0  0  0  0  0  0  0  0  0  0
  161.2510  210.3220  155.2310 O   0  0  0  0  0  0  0  0  0  0  0  0
  160.3980  209.2630  155.6520 C   0  0  0  0  0  2  0  0  0  0  0  0
  161.1450  208.1010  155.8460 O   0  0  0  0  0  0  0  0  0  0  0  0
  160.2400  207.1880  156.3820 C   0  0  0  0  0  1  0  0  0  0  0  0
  162.1320  205.0690  144.8690 C   0  0  0  0  0  2  0  0  0  0  0  0
  160.7360  203.0950  145.2080 C   0  0  0  0  0  2  0  0  0  0  0  0
  161.5700  201.7350  147.0970 C   0  0  2  0  0  3  0  0  0  0  0  0
  159.6110  201.1070  145.8450 O   0  0  0  0  0  0  0  0  0  0  0  0
  161.8430  203.7450  145.5070 C   0  0  2  0  0  3  0  0  0  0  0  0
  162.8900  202.9590  146.7470 S   0  0  0  0  0  0  0  0  0  0  0  0
  160.5650  201.9070  146.0170 C   0  0  0  0  0  0  0  0  0  0  0  0
  161.2540  202.9660  149.2660 C   0  0  0  0  0  3  0  0  0  0  0  0
  160.3140  202.8500  150.2730 C   0  0  0  0  0  0  0  0  0  0  0  0
  160.9510  201.9810  148.3970 N   0  0  0  0  0  0  0  0  0  0  0  0
  159.8920  201.3220  148.8370 N   0  0  0  0  0  0  0  0  0  0  0  0
  159.4860  201.8240  149.9930 N   0  0  0  0  0  0  0  0  0  0  0  0
  161.6100  204.0440  152.0170 C   0  0  0  0  0  2  0  0  0  0  0  0
  160.2260  203.6760  151.5160 C   0  0  0  0  0  3  0  0  0  0  0  0
  160.7940  205.0560  151.2440 C   0  0  0  0  0  2  0  0  0  0  0  0
  1 46  1  1  0  0  0
  1 25  1  0  0  0  0
  2  4  2  0  0  0  0
  3  1  1  0  0  0  0
  4  3  1  0  0  0  0
  5  4  1  0  0  0  0
  6  5  1  0  0  0  0
  7  6  1  0  0  0  0
  8 11  1  0  0  0  0
  9  8  1  1  0  0  0
  9 15  1  0  0  0  0
  9 16  1  0  0  0  0
 10 19  1  0  0  0  0
 10 17  2  0  0  0  0
 11 14  1  0  0  0  0
 13  7  1  6  0  0  0
 14 12  1  0  0  0  0
 15 10  1  0  0  0  0
 16 13  1  0  0  0  0
 16 12  2  0  0  0  0
 17 13  1  0  0  0  0
 19 18  1  6  0  0  0
 20 23  1  0  0  0  0
 21 19  1  0  0  0  0
 21 23  1  0  0  0  0
 22 24  1  0  0  0  0
 22 20  1  0  0  0  0
 24 21  1  0  0  0  0
 25 27  1  0  0  0  0
 26 27  2  0  0  0  0
 27 28  1  0  0  0  0
 28 29  1  0  0  0  0
 29 30  1  0  0  0  0
 31 33  1  0  0  0  0
 32 31  1  0  0  0  0
 33 41  1  1  0  0  0
 34 30  1  6  0  0  0
 34 32  1  0  0  0  0
 34 35  1  0  0  0  0
 35 33  1  0  0  0  0
 37 36  1  6  0  0  0
 37 33  1  0  0  0  0
 37 38  1  0  0  0  0
 39 38  1  0  0  0  0
 41 40  2  0  0  0  0
 41 42  1  0  0  0  0
 42 43  1  0  0  0  0
 43 44  1  0  0  0  0
 44 45  1  0  0  0  0
 47 50  1  0  0  0  0
 47 52  1  0  0  0  0
 48 55  1  1  0  0  0
 49 52  2  0  0  0  0
 50 46  1  1  0  0  0
 50 51  1  0  0  0  0
 51 48  1  0  0  0  0
 52 48  1  0  0  0  0
 53 54  2  0  0  0  0
 54 59  1  0  0  0  0
 55 56  1  0  0  0  0
 55 53  1  0  0  0  0
 56 57  2  0  0  0  0
 57 54  1  0  0  0  0
 59 58  1  0  0  0  0
 60 59  1  0  0  0  0
 60 58  1  0  0  0  0
M  END
>  <MODEL>
5

>  <REMARK>
 VINA RESULT:      -2.6      3.446      9.983
  Name = 
  23 active torsions:
  status: ('A' for Active; 'I' for Inactive)
    1  A    between atoms: C_1  and  C_31
    2  A    between atoms: C_1  and  N_52
    3  A    between atoms: C_1  and  C_56
    4  A    between atoms: O_3  and  C_39
    5  A    between atoms: N_4  and  C_32
    6  A    between atoms: N_4  and  S_54
    7  A    between atoms: C_9  and  N_16
    8  A    between atoms: O_11  and  C_39
    9  A    between atoms: O_11  and  C_57
   10  A    between atoms: C_14  and  C_33
   11  A    between atoms: C_17  and  C_18
   12  A    between atoms: C_18  and  C_24
   13  A    between atoms: C_19  and  O_30
   14  A    between atoms: C_19  and  C_31
   15  A    between atoms: C_22  and  C_55
   16  A    between atoms: C_22  and  C_57
   17  A    between atoms: C_23  and  C_55
   18  A    between atoms: C_29  and  S_54
   19  A    between atoms: O_30  and  C_41
   20  A    between atoms: C_32  and  C_53
   21  A    between atoms: C_41  and  C_58
   22  A    between atoms: C_42  and  C_58
   23  A    between atoms: C_45  and  C_56
                            x       y       z     vdW  Elec       q    Type
                         _______ _______ _______ _____ _____    ______ ____

>  <TORSDO>
F 23

$$$$
=
 OpenBabel11052411123D

 60 66  0  0  1  0  0  0  0  0999 V2000
  160.8510  205.7580  144.4880 C   0  0  2  0  0  3  0  0  0  0  0  0
  161.6540  205.4180  141.7600 O   0  0  0  0  0  0  0  0  0  0  0  0
  161.1980  206.8300  143.5660 N   0  0  0  0  0  2  0  0  0  0  0  0
  161.6120  206.5910  142.2190 C   0  0  0  0  0  0  0  0  0  0  0  0
  161.9770  207.7420  141.3490 C   0  0  0  0  0  2  0  0  0  0  0  0
  161.5940  207.4540  139.9760 N   0  0  0  0  0  2  0  0  0  0  0  0
  160.4800  208.7310  139.4750 S   0  0  0  0  0  0  0  0  0  0  0  0
  161.1030  213.1730  137.6370 C   0  0  0  0  0  2  0  0  0  0  0  0
  160.7940  212.1070  138.6970 C   0  0  2  0  0  3  0  0  0  0  0  0
  160.6660  211.9480  141.1560 C   0  0  0  0  0  0  0  0  0  0  0  0
  162.6040  213.3550  137.4290 C   0  0  0  0  0  2  0  0  0  0  0  0
  162.9510  210.9930  138.0880 C   0  0  0  0  0  3  0  0  0  0  0  0
  161.6420  210.0500  139.9480 C   0  0  1  0  0  3  0  0  0  0  0  0
  163.2090  212.0160  137.0240 C   0  0  0  0  0  2  0  0  0  0  0  0
  160.6060  212.7060  139.9750 O   0  0  0  0  0  0  0  0  0  0  0  0
  161.8210  211.0070  138.8120 C   0  0  0  0  0  0  0  0  0  0  0  0
  161.1550  210.7400  141.1490 N   0  0  0  0  0  0  0  0  0  0  0  0
  159.9290  211.4520  143.4790 C   0  0  0  0  0  1  0  0  0  0  0  0
  160.2210  212.5400  142.4580 C   0  0  1  0  0  3  0  0  0  0  0  0
  162.8670  213.4770  144.7660 C   0  0  0  0  0  2  0  0  0  0  0  0
  161.1630  213.6110  143.0260 C   0  0  0  0  0  3  0  0  0  0  0  0
  163.5050  213.9450  143.4760 C   0  0  0  0  0  2  0  0  0  0  0  0
  161.3690  213.5120  144.5330 C   0  0  0  0  0  2  0  0  0  0  0  0
  162.5370  213.5580  142.3820 C   0  0  0  0  0  2  0  0  0  0  0  0
  160.7290  206.3230  145.8990 C   0  0  0  0  0  2  0  0  0  0  0  0
  163.1060  206.1920  145.9320 O   0  0  0  0  0  0  0  0  0  0  0  0
  162.0480  206.3410  146.5950 C   0  0  0  0  0  0  0  0  0  0  0  0
  162.0900  206.5200  147.9770 O   0  0  0  0  0  0  0  0  0  0  0  0
  161.2760  207.4790  148.6360 C   0  0  0  0  0  2  0  0  0  0  0  0
  161.5660  207.4530  150.1230 C   0  0  0  0  0  2  0  0  0  0  0  0
  162.3170  209.9610  152.4090 C   0  0  0  0  0  2  0  0  0  0  0  0
  162.6620  209.2120  151.2900 O   0  0  0  0  0  0  0  0  0  0  0  0
  160.8900  209.6190  152.7430 C   0  0  1  0  0  0  0  0  0  0  0  0
  161.4370  208.8450  150.7140 C   0  0  2  0  0  3  0  0  0  0  0  0
  160.4060  208.8590  151.6730 O   0  0  0  0  0  0  0  0  0  0  0  0
  161.2850  207.4890  153.8090 O   0  0  0  0  0  1  0  0  0  0  0  0
  160.8060  208.7820  154.0360 C   0  0  1  0  0  3  0  0  0  0  0  0
  161.5750  209.4160  155.1920 C   0  0  0  0  0  2  0  0  0  0  0  0
  161.6450  208.4540  156.3600 C   0  0  0  0  0  1  0  0  0  0  0  0
  160.4530  211.9170  152.2190 O   0  0  0  0  0  0  0  0  0  0  0  0
  160.0910  210.9040  152.8730 C   0  0  0  0  0  0  0  0  0  0  0  0
  158.9760  211.0300  153.7140 O   0  0  0  0  0  0  0  0  0  0  0  0
  158.0670  212.1250  153.6860 C   0  0  0  0  0  2  0  0  0  0  0  0
  157.3360  212.1660  154.8730 O   0  0  0  0  0  0  0  0  0  0  0  0
  156.0930  212.6760  154.5020 C   0  0  0  0  0  1  0  0  0  0  0  0
  161.9350  204.6850  144.4450 C   0  0  0  0  0  2  0  0  0  0  0  0
  160.3900  202.8790  145.0030 C   0  0  0  0  0  2  0  0  0  0  0  0
  161.2300  201.5550  146.9150 C   0  0  2  0  0  3  0  0  0  0  0  0
  159.1350  201.0490  145.8400 O   0  0  0  0  0  0  0  0  0  0  0  0
  161.5720  203.4340  145.1850 C   0  0  2  0  0  3  0  0  0  0  0  0
  162.6290  202.6230  146.4010 S   0  0  0  0  0  0  0  0  0  0  0  0
  160.1690  201.7620  145.8960 C   0  0  0  0  0  0  0  0  0  0  0  0
  161.0770  203.0240  148.9500 C   0  0  0  0  0  3  0  0  0  0  0  0
  160.2460  203.0000  150.0550 C   0  0  0  0  0  0  0  0  0  0  0  0
  160.7320  201.9340  148.2360 N   0  0  0  0  0  0  0  0  0  0  0  0
  159.7490  201.3010  148.8550 N   0  0  0  0  0  0  0  0  0  0  0  0
  159.4380  201.9250  149.9800 N   0  0  0  0  0  0  0  0  0  0  0  0
  161.1910  203.5030  152.2920 C   0  0  0  0  0  2  0  0  0  0  0  0
  160.2470  203.9650  151.1980 C   0  0  0  0  0  3  0  0  0  0  0  0
  161.6240  204.5860  151.3310 C   0  0  0  0  0  2  0  0  0  0  0  0
  1 46  1  1  0  0  0
  1 25  1  0  0  0  0
  2  4  2  0  0  0  0
  3  1  1  0  0  0  0
  4  3  1  0  0  0  0
  5  4  1  0  0  0  0
  6  5  1  0  0  0  0
  7  6  1  0  0  0  0
  9  8  1  6  0  0  0
  9 16  1  0  0  0  0
  9 15  1  0  0  0  0
 10 19  1  0  0  0  0
 11  8  1  0  0  0  0
 12 16  2  0  0  0  0
 13  7  1  6  0  0  0
 13 17  1  0  0  0  0
 14 11  1  0  0  0  0
 14 12  1  0  0  0  0
 15 10  1  0  0  0  0
 16 13  1  0  0  0  0
 17 10  2  0  0  0  0
 19 21  1  0  0  0  0
 19 18  1  1  0  0  0
 21 23  1  0  0  0  0
 22 20  1  0  0  0  0
 23 20  1  0  0  0  0
 24 21  1  0  0  0  0
 24 22  1  0  0  0  0
 25 27  1  0  0  0  0
 26 27  2  0  0  0  0
 27 28  1  0  0  0  0
 28 29  1  0  0  0  0
 29 30  1  0  0  0  0
 31 33  1  0  0  0  0
 32 31  1  0  0  0  0
 33 41  1  1  0  0  0
 33 37  1  0  0  0  0
 34 30  1  1  0  0  0
 34 32  1  0  0  0  0
 34 35  1  0  0  0  0
 35 33  1  0  0  0  0
 37 36  1  6  0  0  0
 37 38  1  0  0  0  0
 38 39  1  0  0  0  0
 40 41  2  0  0  0  0
 41 42  1  0  0  0  0
 43 42  1  0  0  0  0
 43 44  1  0  0  0  0
 45 44  1  0  0  0  0
 47 50  1  0  0  0  0
 47 52  1  0  0  0  0
 48 55  1  1  0  0  0
 49 52  2  0  0  0  0
 50 46  1  1  0  0  0
 50 51  1  0  0  0  0
 51 48  1  0  0  0  0
 52 48  1  0  0  0  0
 53 54  2  0  0  0  0
 54 59  1  0  0  0  0
 55 56  1  0  0  0  0
 55 53  1  0  0  0  0
 56 57  2  0  0  0  0
 57 54  1  0  0  0  0
 59 60  1  0  0  0  0
 59 58  1  0  0  0  0
 60 58  1  0  0  0  0
M  END
>  <MODEL>
6

>  <REMARK>
 VINA RESULT:      -2.2      2.880      9.667
  Name = 
  23 active torsions:
  status: ('A' for Active; 'I' for Inactive)
    1  A    between atoms: C_1  and  C_31
    2  A    between atoms: C_1  and  N_52
    3  A    between atoms: C_1  and  C_56
    4  A    between atoms: O_3  and  C_39
    5  A    between atoms: N_4  and  C_32
    6  A    between atoms: N_4  and  S_54
    7  A    between atoms: C_9  and  N_16
    8  A    between atoms: O_11  and  C_39
    9  A    between atoms: O_11  and  C_57
   10  A    between atoms: C_14  and  C_33
   11  A    between atoms: C_17  and  C_18
   12  A    between atoms: C_18  and  C_24
   13  A    between atoms: C_19  and  O_30
   14  A    between atoms: C_19  and  C_31
   15  A    between atoms: C_22  and  C_55
   16  A    between atoms: C_22  and  C_57
   17  A    between atoms: C_23  and  C_55
   18  A    between atoms: C_29  and  S_54
   19  A    between atoms: O_30  and  C_41
   20  A    between atoms: C_32  and  C_53
   21  A    between atoms: C_41  and  C_58
   22  A    between atoms: C_42  and  C_58
   23  A    between atoms: C_45  and  C_56
                            x       y       z     vdW  Elec       q    Type
                         _______ _______ _______ _____ _____    ______ ____

>  <TORSDO>
F 23

$$$$
