=
 OpenBabel11042422453D

 38 40  0  0  1  0  0  0  0  0999 V2000
  161.5270  209.5440  152.4620 C   0  0  2  0  0  3  0  0  0  0  0  0
  160.5420  211.7150  154.0520 O   0  0  0  0  0  0  0  0  0  0  0  0
  160.3240  210.3200  152.1920 N   0  0  0  0  0  2  0  0  0  0  0  0
  159.8900  211.4010  153.0190 C   0  0  0  0  0  0  0  0  0  0  0  0
  158.6230  212.1160  152.6720 C   0  0  1  0  0  3  0  0  0  0  0  0
  156.8990  213.0420  153.5620 O   0  0  0  0  0  1  0  0  0  0  0  0
  157.6980  212.0060  153.7140 O   0  0  0  0  0  0  0  0  0  0  0  0
  158.8550  213.5780  152.2800 C   0  0  0  0  0  2  0  0  0  0  0  0
  159.8760  213.7290  151.1550 C   0  0  0  0  0  2  0  0  0  0  0  0
  159.1990  213.5830  149.8290 C   0  0  0  0  0  0  0  0  0  0  0  0
  161.4860  212.9670  146.3220 N   0  0  0  0  0  2  0  0  0  0  0  0
  160.1180  212.4610  146.4210 C   0  0  0  0  0  2  0  0  0  0  0  0
  159.9660  213.5100  148.6180 N   0  0  0  0  0  0  0  0  0  0  0  0
  157.9420  213.4910  149.7880 O   0  0  0  0  0  0  0  0  0  0  0  0
  162.1090  212.8700  147.6420 C   0  0  0  0  0  2  0  0  0  0  0  0
  161.4000  213.7980  148.6230 C   0  0  0  0  0  2  0  0  0  0  0  0
  159.2920  213.3690  147.3290 C   0  0  0  0  0  2  0  0  0  0  0  0
  162.4830  209.6740  151.2860 C   0  0  0  0  0  2  0  0  0  0  0  0
  162.1560  209.7220  148.9200 O   0  0  0  0  0  1  0  0  0  0  0  0
  161.9590  208.9420  150.0610 C   0  0  1  0  0  3  0  0  0  0  0  0
  162.6390  207.7330  149.9180 O   0  0  0  0  0  0  0  0  0  0  0  0
  162.1980  207.2170  148.6960 C   0  0  0  0  0  2  0  0  0  0  0  0
  160.8060  206.6220  148.8490 C   0  0  0  0  0  2  0  0  0  0  0  0
  161.1200  203.0300  148.4200 C   0  0  0  0  0  0  0  0  0  0  0  0
  160.4150  204.8340  151.1420 O   0  0  0  0  0  0  0  0  0  0  0  0
  160.8360  201.7270  146.3590 C   0  0  0  0  0  3  0  0  0  0  0  0
  161.3480  200.5510  148.4520 C   0  0  0  0  0  1  0  0  0  0  0  0
  161.3770  203.9840  145.5080 C   0  0  0  0  0  3  0  0  0  0  0  0
  160.8090  202.6630  145.4560 N   0  0  0  0  0  0  0  0  0  0  0  0
  161.5640  201.8280  147.6590 C   0  0  2  0  0  3  0  0  0  0  0  0
  161.5020  204.6990  146.5920 N   0  0  0  0  0  0  0  0  0  0  0  0
  160.6870  204.3840  149.9960 C   0  0  0  0  0  0  0  0  0  0  0  0
  160.8460  203.0650  149.7440 N   0  0  0  0  0  2  0  0  0  0  0  0
  160.8770  205.1660  148.9170 N   0  0  0  0  0  0  0  0  0  0  0  0
  161.1410  204.3090  147.9190 C   0  0  0  0  0  0  0  0  0  0  0  0
  161.1730  208.0800  152.7200 C   0  0  0  0  0  2  0  0  0  0  0  0
  161.1000  206.8330  154.5380 C   0  0  0  0  0  1  0  0  0  0  0  0
  160.5010  207.9390  153.9380 O   0  0  0  0  0  0  0  0  0  0  0  0
  1 18  1  6  0  0  0
  1 36  1  0  0  0  0
  3  1  1  0  0  0  0
  3  4  1  0  0  0  0
  4  2  2  0  0  0  0
  5  8  1  1  0  0  0
  5  4  1  0  0  0  0
  5  7  1  0  0  0  0
  6  7  1  0  0  0  0
  9  8  1  0  0  0  0
 10  9  1  0  0  0  0
 11 12  1  0  0  0  0
 11 15  1  0  0  0  0
 12 17  1  0  0  0  0
 13 16  1  0  0  0  0
 13 10  1  0  0  0  0
 14 10  2  0  0  0  0
 15 16  1  0  0  0  0
 17 13  1  0  0  0  0
 20 19  1  6  0  0  0
 20 18  1  0  0  0  0
 21 20  1  0  0  0  0
 22 23  1  0  0  0  0
 22 21  1  0  0  0  0
 23 34  1  0  0  0  0
 24 33  1  0  0  0  0
 26 30  1  0  0  0  0
 28 31  2  0  0  0  0
 29 28  1  0  0  0  0
 29 26  2  0  0  0  0
 30 24  1  0  0  0  0
 30 27  1  1  0  0  0
 31 35  1  0  0  0  0
 32 25  2  0  0  0  0
 33 32  1  0  0  0  0
 34 32  1  0  0  0  0
 35 24  2  0  0  0  0
 35 34  1  0  0  0  0
 36 38  1  0  0  0  0
 38 37  1  0  0  0  0
M  END
>  <MODEL>
1

>  <REMARK>
 VINA RESULT:      -7.2      0.000      0.000
  Name = 
  14 active torsions:
  status: ('A' for Active; 'I' for Inactive)
    1  A    between atoms: C_1  and  C_14
    2  A    between atoms: C_1  and  N_37
    3  A    between atoms: C_2  and  C_5
    4  A    between atoms: C_2  and  N_18
    5  A    between atoms: C_2  and  C_36
    6  A    between atoms: C_5  and  C_21
    7  A    between atoms: C_6  and  C_31
    8  A    between atoms: C_14  and  O_30
    9  A    between atoms: C_16  and  C_25
   10  A    between atoms: C_16  and  C_31
   11  A    between atoms: C_21  and  O_30
   12  A    between atoms: C_25  and  O_29
   13  A    between atoms: C_25  and  C_32
   14  A    between atoms: O_28  and  C_36
                            x       y       z     vdW  Elec       q    Type
                         _______ _______ _______ _____ _____    ______ ____

>  <TORSDO>
F 14

$$$$
=
 OpenBabel11042422453D

 38 40  0  0  1  0  0  0  0  0999 V2000
  160.4850  210.2760  153.9700 C   0  0  2  0  0  3  0  0  0  0  0  0
  160.8510  207.5480  153.1770 O   0  0  0  0  0  0  0  0  0  0  0  0
  160.7660  209.8140  152.6180 N   0  0  0  0  0  2  0  0  0  0  0  0
  160.9280  208.4340  152.2830 C   0  0  0  0  0  0  0  0  0  0  0  0
  161.2460  208.0640  150.8690 C   0  0  1  0  0  3  0  0  0  0  0  0
  162.1060  208.8170  149.0490 O   0  0  0  0  0  1  0  0  0  0  0  0
  162.2430  208.8990  150.3570 O   0  0  0  0  0  0  0  0  0  0  0  0
  161.6140  206.5860  150.7120 C   0  0  0  0  0  2  0  0  0  0  0  0
  160.4730  205.7550  150.1300 C   0  0  0  0  0  2  0  0  0  0  0  0
  160.9100  205.1140  148.8510 C   0  0  0  0  0  0  0  0  0  0  0  0
  161.0370  200.8980  148.5130 N   0  0  0  0  0  2  0  0  0  0  0  0
  160.8110  201.7360  147.3360 C   0  0  0  0  0  2  0  0  0  0  0  0
  161.0880  203.6920  148.7670 N   0  0  0  0  0  0  0  0  0  0  0  0
  161.0900  205.8350  147.8330 O   0  0  0  0  0  0  0  0  0  0  0  0
  160.3890  201.5320  149.6610 C   0  0  0  0  0  2  0  0  0  0  0  0
  161.0660  202.8630  149.9710 C   0  0  0  0  0  2  0  0  0  0  0  0
  161.5160  203.0790  147.5110 C   0  0  0  0  0  2  0  0  0  0  0  0
  159.8630  211.6630  153.9080 C   0  0  0  0  0  2  0  0  0  0  0  0
  157.4990  211.3850  154.1240 O   0  0  0  0  0  1  0  0  0  0  0  0
  158.5160  211.6360  153.2010 C   0  0  1  0  0  3  0  0  0  0  0  0
  158.2900  212.8680  152.5880 O   0  0  0  0  0  0  0  0  0  0  0  0
  159.2740  212.9610  151.6000 C   0  0  0  0  0  2  0  0  0  0  0  0
  158.9660  214.1140  150.6580 C   0  0  0  0  0  2  0  0  0  0  0  0
  159.5410  213.0520  147.2340 C   0  0  0  0  0  0  0  0  0  0  0  0
  156.7090  213.2470  148.9960 O   0  0  0  0  0  0  0  0  0  0  0  0
  161.4050  213.6620  145.7580 C   0  0  0  0  0  3  0  0  0  0  0  0
  159.6320  212.1980  144.8960 C   0  0  0  0  0  1  0  0  0  0  0  0
  162.3480  214.0330  148.0120 C   0  0  0  0  0  3  0  0  0  0  0  0
  162.2280  214.2270  146.5910 N   0  0  0  0  0  0  0  0  0  0  0  0
  160.4290  212.5940  146.1270 C   0  0  2  0  0  3  0  0  0  0  0  0
  161.3590  213.7420  148.8110 N   0  0  0  0  0  0  0  0  0  0  0  0
  157.8870  213.2660  148.5470 C   0  0  0  0  0  0  0  0  0  0  0  0
  158.2020  212.8680  147.2940 N   0  0  0  0  0  2  0  0  0  0  0  0
  158.9520  213.6540  149.2730 N   0  0  0  0  0  0  0  0  0  0  0  0
  159.9950  213.5270  148.4390 C   0  0  0  0  0  0  0  0  0  0  0  0
  161.7620  210.2870  154.8090 C   0  0  0  0  0  2  0  0  0  0  0  0
  162.5320  209.8090  156.8200 C   0  0  0  0  0  1  0  0  0  0  0  0
  161.4620  210.4190  156.1680 O   0  0  0  0  0  0  0  0  0  0  0  0
  1 18  1  6  0  0  0
  1 36  1  0  0  0  0
  3  1  1  0  0  0  0
  4  3  1  0  0  0  0
  4  2  2  0  0  0  0
  5  8  1  1  0  0  0
  5  4  1  0  0  0  0
  6  7  1  0  0  0  0
  7  5  1  0  0  0  0
  9  8  1  0  0  0  0
 10  9  1  0  0  0  0
 11 15  1  0  0  0  0
 12 17  1  0  0  0  0
 12 11  1  0  0  0  0
 13 10  1  0  0  0  0
 13 16  1  0  0  0  0
 14 10  2  0  0  0  0
 15 16  1  0  0  0  0
 17 13  1  0  0  0  0
 20 18  1  0  0  0  0
 20 19  1  1  0  0  0
 21 20  1  0  0  0  0
 22 21  1  0  0  0  0
 23 22  1  0  0  0  0
 24 33  1  0  0  0  0
 24 35  2  0  0  0  0
 26 30  1  0  0  0  0
 26 29  2  0  0  0  0
 28 31  2  0  0  0  0
 29 28  1  0  0  0  0
 30 27  1  6  0  0  0
 30 24  1  0  0  0  0
 32 25  2  0  0  0  0
 32 34  1  0  0  0  0
 33 32  1  0  0  0  0
 34 23  1  0  0  0  0
 35 31  1  0  0  0  0
 35 34  1  0  0  0  0
 36 38  1  0  0  0  0
 38 37  1  0  0  0  0
M  END
>  <MODEL>
2

>  <REMARK>
 VINA RESULT:      -7.1      1.653      8.541
  Name = 
  14 active torsions:
  status: ('A' for Active; 'I' for Inactive)
    1  A    between atoms: C_1  and  C_14
    2  A    between atoms: C_1  and  N_37
    3  A    between atoms: C_2  and  C_5
    4  A    between atoms: C_2  and  N_18
    5  A    between atoms: C_2  and  C_36
    6  A    between atoms: C_5  and  C_21
    7  A    between atoms: C_6  and  C_31
    8  A    between atoms: C_14  and  O_30
    9  A    between atoms: C_16  and  C_25
   10  A    between atoms: C_16  and  C_31
   11  A    between atoms: C_21  and  O_30
   12  A    between atoms: C_25  and  O_29
   13  A    between atoms: C_25  and  C_32
   14  A    between atoms: O_28  and  C_36
                            x       y       z     vdW  Elec       q    Type
                         _______ _______ _______ _____ _____    ______ ____

>  <TORSDO>
F 14

$$$$
=
 OpenBabel11042422453D

 38 40  0  0  1  0  0  0  0  0999 V2000
  160.5990  207.9540  153.4870 C   0  0  2  0  0  3  0  0  0  0  0  0
  159.5910  207.6390  156.1500 O   0  0  0  0  0  0  0  0  0  0  0  0
  160.7340  208.9220  154.5680 N   0  0  0  0  0  2  0  0  0  0  0  0
  160.2160  208.7000  155.8810 C   0  0  0  0  0  0  0  0  0  0  0  0
  160.3790  209.7710  156.9140 C   0  0  1  0  0  3  0  0  0  0  0  0
  162.3420  208.9670  157.2600 O   0  0  0  0  0  1  0  0  0  0  0  0
  161.7270  210.1130  157.0550 O   0  0  0  0  0  0  0  0  0  0  0  0
  159.5130  211.0020  156.6330 C   0  0  0  0  0  2  0  0  0  0  0  0
  158.4680  210.7490  155.5490 C   0  0  0  0  0  2  0  0  0  0  0  0
  157.9150  212.0510  155.0610 C   0  0  0  0  0  0  0  0  0  0  0  0
  159.4050  213.8030  151.5100 N   0  0  0  0  0  2  0  0  0  0  0  0
  158.0320  214.0520  151.9470 C   0  0  0  0  0  2  0  0  0  0  0  0
  158.5030  212.7220  153.9370 N   0  0  0  0  0  0  0  0  0  0  0  0
  156.9010  212.5390  155.6300 O   0  0  0  0  0  0  0  0  0  0  0  0
  159.7600  212.4300  151.8660 C   0  0  0  0  0  2  0  0  0  0  0  0
  159.7800  212.2740  153.3830 C   0  0  0  0  0  2  0  0  0  0  0  0
  157.9540  213.9930  153.4710 C   0  0  0  0  0  2  0  0  0  0  0  0
  161.5880  206.8180  153.7030 C   0  0  0  0  0  2  0  0  0  0  0  0
  162.8680  205.8020  151.9600 O   0  0  0  0  0  1  0  0  0  0  0  0
  161.5930  205.8560  152.5250 C   0  0  1  0  0  3  0  0  0  0  0  0
  161.2290  204.5840  152.9660 O   0  0  0  0  0  0  0  0  0  0  0  0
  161.4940  203.7410  151.8830 C   0  0  0  0  0  2  0  0  0  0  0  0
  160.3030  203.7100  150.9380 C   0  0  0  0  0  2  0  0  0  0  0  0
  161.4700  204.0580  147.5170 C   0  0  0  0  0  0  0  0  0  0  0  0
  160.6580  201.3270  149.2630 O   0  0  0  0  0  0  0  0  0  0  0  0
  161.2840  206.0180  146.0520 C   0  0  0  0  0  3  0  0  0  0  0  0
  162.3260  203.9740  145.1800 C   0  0  0  0  0  1  0  0  0  0  0  0
  161.1250  207.0070  148.3120 C   0  0  0  0  0  3  0  0  0  0  0  0
  160.9120  206.9400  146.8900 N   0  0  0  0  0  0  0  0  0  0  0  0
  162.1120  204.8300  146.4160 C   0  0  2  0  0  3  0  0  0  0  0  0
  161.1920  205.9740  149.1050 N   0  0  0  0  0  0  0  0  0  0  0  0
  160.8980  202.4830  148.8210 C   0  0  0  0  0  0  0  0  0  0  0  0
  161.3560  202.7110  147.5700 N   0  0  0  0  0  2  0  0  0  0  0  0
  160.7510  203.6040  149.5530 N   0  0  0  0  0  0  0  0  0  0  0  0
  161.1040  204.5980  148.7250 C   0  0  0  0  0  0  0  0  0  0  0  0
  160.8270  208.6280  152.1340 C   0  0  0  0  0  2  0  0  0  0  0  0
  162.1250  209.8570  150.8420 C   0  0  0  0  0  1  0  0  0  0  0  0
  162.0920  209.2200  152.0810 O   0  0  0  0  0  0  0  0  0  0  0  0
  1 36  1  6  0  0  0
  1 18  1  0  0  0  0
  1  3  1  0  0  0  0
  3  4  1  0  0  0  0
  4  2  2  0  0  0  0
  4  5  1  0  0  0  0
  5  8  1  6  0  0  0
  5  7  1  0  0  0  0
  7  6  1  0  0  0  0
  9  8  1  0  0  0  0
 10  9  1  0  0  0  0
 10 14  2  0  0  0  0
 11 15  1  0  0  0  0
 11 12  1  0  0  0  0
 12 17  1  0  0  0  0
 13 10  1  0  0  0  0
 15 16  1  0  0  0  0
 16 13  1  0  0  0  0
 17 13  1  0  0  0  0
 20 19  1  1  0  0  0
 20 21  1  0  0  0  0
 20 18  1  0  0  0  0
 22 21  1  0  0  0  0
 23 22  1  0  0  0  0
 24 33  1  0  0  0  0
 24 35  2  0  0  0  0
 26 30  1  0  0  0  0
 26 29  2  0  0  0  0
 28 31  2  0  0  0  0
 29 28  1  0  0  0  0
 30 27  1  6  0  0  0
 30 24  1  0  0  0  0
 32 25  2  0  0  0  0
 32 34  1  0  0  0  0
 33 32  1  0  0  0  0
 34 23  1  0  0  0  0
 35 31  1  0  0  0  0
 35 34  1  0  0  0  0
 37 38  1  0  0  0  0
 38 36  1  0  0  0  0
M  END
>  <MODEL>
3

>  <REMARK>
 VINA RESULT:      -7.0      2.641      4.464
  Name = 
  14 active torsions:
  status: ('A' for Active; 'I' for Inactive)
    1  A    between atoms: C_1  and  C_14
    2  A    between atoms: C_1  and  N_37
    3  A    between atoms: C_2  and  C_5
    4  A    between atoms: C_2  and  N_18
    5  A    between atoms: C_2  and  C_36
    6  A    between atoms: C_5  and  C_21
    7  A    between atoms: C_6  and  C_31
    8  A    between atoms: C_14  and  O_30
    9  A    between atoms: C_16  and  C_25
   10  A    between atoms: C_16  and  C_31
   11  A    between atoms: C_21  and  O_30
   12  A    between atoms: C_25  and  O_29
   13  A    between atoms: C_25  and  C_32
   14  A    between atoms: O_28  and  C_36
                            x       y       z     vdW  Elec       q    Type
                         _______ _______ _______ _____ _____    ______ ____

>  <TORSDO>
F 14

$$$$
=
 OpenBabel11042422453D

 38 40  0  0  1  0  0  0  0  0999 V2000
  160.8770  209.5340  153.2790 C   0  0  2  0  0  3  0  0  0  0  0  0
  160.3560  212.1770  154.2520 O   0  0  0  0  0  0  0  0  0  0  0  0
  159.6720  210.3120  153.0260 N   0  0  0  0  0  2  0  0  0  0  0  0
  159.4760  211.6330  153.5320 C   0  0  0  0  0  0  0  0  0  0  0  0
  158.1880  212.3370  153.2410 C   0  0  1  0  0  3  0  0  0  0  0  0
  156.7640  211.4640  154.5940 O   0  0  0  0  0  1  0  0  0  0  0  0
  157.4740  212.5600  154.4220 O   0  0  0  0  0  0  0  0  0  0  0  0
  158.3870  213.6350  152.4520 C   0  0  0  0  0  2  0  0  0  0  0  0
  159.4850  213.5170  151.3970 C   0  0  0  0  0  2  0  0  0  0  0  0
  158.9050  213.7200  150.0330 C   0  0  0  0  0  0  0  0  0  0  0  0
  161.1250  212.6510  146.5930 N   0  0  0  0  0  2  0  0  0  0  0  0
  159.6630  212.6350  146.5740 C   0  0  0  0  0  2  0  0  0  0  0  0
  159.6980  213.4900  148.8580 N   0  0  0  0  0  0  0  0  0  0  0  0
  157.6980  214.0650  149.9240 O   0  0  0  0  0  0  0  0  0  0  0  0
  161.5730  212.2400  147.9230 C   0  0  0  0  0  2  0  0  0  0  0  0
  161.1400  213.2720  148.9600 C   0  0  0  0  0  2  0  0  0  0  0  0
  159.1190  213.6920  147.5310 C   0  0  0  0  0  2  0  0  0  0  0  0
  161.0400  208.4890  152.1850 C   0  0  0  0  0  2  0  0  0  0  0  0
  162.6090  210.1090  151.3970 O   0  0  0  0  0  1  0  0  0  0  0  0
  161.7970  209.0490  150.9910 C   0  0  1  0  0  3  0  0  0  0  0  0
  162.5900  208.0460  150.4340 O   0  0  0  0  0  0  0  0  0  0  0  0
  161.7410  206.9420  150.3190 C   0  0  0  0  0  2  0  0  0  0  0  0
  161.3040  206.7640  148.8730 C   0  0  0  0  0  2  0  0  0  0  0  0
  161.1620  203.1530  148.5240 C   0  0  0  0  0  0  0  0  0  0  0  0
  161.9960  205.5140  146.3120 O   0  0  0  0  0  0  0  0  0  0  0  0
  161.3410  201.4590  150.2910 C   0  0  0  0  0  3  0  0  0  0  0  0
  161.0820  200.7290  147.9620 C   0  0  0  0  0  1  0  0  0  0  0  0
  160.5980  203.4650  151.5300 C   0  0  0  0  0  3  0  0  0  0  0  0
  161.2340  202.1840  151.3650 N   0  0  0  0  0  0  0  0  0  0  0  0
  160.7240  201.8020  148.9750 C   0  0  2  0  0  3  0  0  0  0  0  0
  160.5260  204.3860  150.6090 N   0  0  0  0  0  0  0  0  0  0  0  0
  161.6520  204.8230  147.3080 C   0  0  0  0  0  0  0  0  0  0  0  0
  161.5490  203.4760  147.2680 N   0  0  0  0  0  2  0  0  0  0  0  0
  161.3240  205.3540  148.5020 N   0  0  0  0  0  0  0  0  0  0  0  0
  161.0240  204.2970  149.2710 C   0  0  0  0  0  0  0  0  0  0  0  0
  160.8110  208.8770  154.6580 C   0  0  0  0  0  2  0  0  0  0  0  0
  160.3940  207.0810  155.8680 C   0  0  0  0  0  1  0  0  0  0  0  0
  160.3730  207.5540  154.5570 O   0  0  0  0  0  0  0  0  0  0  0  0
  1 18  1  6  0  0  0
  1 36  1  0  0  0  0
  3  1  1  0  0  0  0
  3  4  1  0  0  0  0
  4  2  2  0  0  0  0
  5  8  1  1  0  0  0
  5  4  1  0  0  0  0
  5  7  1  0  0  0  0
  7  6  1  0  0  0  0
  9  8  1  0  0  0  0
 10  9  1  0  0  0  0
 11 15  1  0  0  0  0
 12 11  1  0  0  0  0
 12 17  1  0  0  0  0
 13 16  1  0  0  0  0
 13 10  1  0  0  0  0
 14 10  2  0  0  0  0
 15 16  1  0  0  0  0
 17 13  1  0  0  0  0
 20 19  1  1  0  0  0
 20 18  1  0  0  0  0
 21 20  1  0  0  0  0
 22 21  1  0  0  0  0
 23 22  1  0  0  0  0
 24 30  1  0  0  0  0
 24 35  2  0  0  0  0
 25 32  2  0  0  0  0
 26 29  2  0  0  0  0
 29 28  1  0  0  0  0
 30 27  1  6  0  0  0
 30 26  1  0  0  0  0
 31 28  2  0  0  0  0
 32 34  1  0  0  0  0
 33 32  1  0  0  0  0
 33 24  1  0  0  0  0
 34 23  1  0  0  0  0
 34 35  1  0  0  0  0
 35 31  1  0  0  0  0
 38 36  1  0  0  0  0
 38 37  1  0  0  0  0
M  END
>  <MODEL>
4

>  <REMARK>
 VINA RESULT:      -6.9      1.320      2.211
  Name = 
  14 active torsions:
  status: ('A' for Active; 'I' for Inactive)
    1  A    between atoms: C_1  and  C_14
    2  A    between atoms: C_1  and  N_37
    3  A    between atoms: C_2  and  C_5
    4  A    between atoms: C_2  and  N_18
    5  A    between atoms: C_2  and  C_36
    6  A    between atoms: C_5  and  C_21
    7  A    between atoms: C_6  and  C_31
    8  A    between atoms: C_14  and  O_30
    9  A    between atoms: C_16  and  C_25
   10  A    between atoms: C_16  and  C_31
   11  A    between atoms: C_21  and  O_30
   12  A    between atoms: C_25  and  O_29
   13  A    between atoms: C_25  and  C_32
   14  A    between atoms: O_28  and  C_36
                            x       y       z     vdW  Elec       q    Type
                         _______ _______ _______ _____ _____    ______ ____

>  <TORSDO>
F 14

$$$$
=
 OpenBabel11042422453D

 38 40  0  0  1  0  0  0  0  0999 V2000
  161.8650  208.6740  152.0670 C   0  0  2  0  0  3  0  0  0  0  0  0
  161.2160  206.4630  153.7690 O   0  0  0  0  0  0  0  0  0  0  0  0
  161.8970  207.2690  151.6850 N   0  0  0  0  0  2  0  0  0  0  0  0
  161.5500  206.2100  152.5800 C   0  0  0  0  0  0  0  0  0  0  0  0
  161.6450  204.7960  152.1000 C   0  0  1  0  0  3  0  0  0  0  0  0
  160.8110  202.8370  152.3910 O   0  0  0  0  0  1  0  0  0  0  0  0
  160.4600  204.1060  152.3710 O   0  0  0  0  0  0  0  0  0  0  0  0
  162.0260  204.6970  150.6200 C   0  0  0  0  0  2  0  0  0  0  0  0
  160.8270  204.3980  149.7230 C   0  0  0  0  0  2  0  0  0  0  0  0
  160.6750  205.4780  148.6990 C   0  0  0  0  0  0  0  0  0  0  0  0
  161.5770  204.7070  144.6370 N   0  0  0  0  0  2  0  0  0  0  0  0
  160.5900  205.7220  145.0040 C   0  0  0  0  0  2  0  0  0  0  0  0
  161.1060  205.2710  147.3450 N   0  0  0  0  0  0  0  0  0  0  0  0
  160.1310  206.5660  149.0300 O   0  0  0  0  0  0  0  0  0  0  0  0
  161.4890  203.6100  145.5990 C   0  0  0  0  0  2  0  0  0  0  0  0
  161.9010  204.0970  146.9850 C   0  0  0  0  0  2  0  0  0  0  0  0
  160.9520  206.3340  146.3550 C   0  0  0  0  0  2  0  0  0  0  0  0
  160.4570  209.0440  152.5070 C   0  0  0  0  0  2  0  0  0  0  0  0
  161.5150  209.5790  154.5820 O   0  0  0  0  0  1  0  0  0  0  0  0
  160.4770  209.9530  153.7270 C   0  0  1  0  0  3  0  0  0  0  0  0
  160.6690  211.2720  153.3170 O   0  0  0  0  0  0  0  0  0  0  0  0
  159.4610  211.6390  152.7180 C   0  0  0  0  0  2  0  0  0  0  0  0
  159.4480  213.1320  152.4300 C   0  0  0  0  0  2  0  0  0  0  0  0
  158.2690  213.7050  149.0450 C   0  0  0  0  0  0  0  0  0  0  0  0
  156.6370  213.8230  151.9570 O   0  0  0  0  0  0  0  0  0  0  0  0
  159.5800  214.3930  147.0870 C   0  0  0  0  0  3  0  0  0  0  0  0
  157.1580  214.0720  146.8470 C   0  0  0  0  0  1  0  0  0  0  0  0
  161.2860  213.3740  148.5560 C   0  0  0  0  0  3  0  0  0  0  0  0
  160.7970  214.2410  147.5170 N   0  0  0  0  0  0  0  0  0  0  0  0
  158.4090  213.5980  147.5650 C   0  0  2  0  0  3  0  0  0  0  0  0
  160.6110  213.0280  149.6180 N   0  0  0  0  0  0  0  0  0  0  0  0
  157.4580  213.7230  151.0060 C   0  0  0  0  0  0  0  0  0  0  0  0
  157.1080  213.8960  149.7120 N   0  0  0  0  0  2  0  0  0  0  0  0
  158.7560  213.4070  151.1760 N   0  0  0  0  0  0  0  0  0  0  0  0
  159.2690  213.4050  149.9370 C   0  0  0  0  0  0  0  0  0  0  0  0
  162.3250  209.5550  150.9060 C   0  0  0  0  0  2  0  0  0  0  0  0
  161.9550  209.7050  148.7370 C   0  0  0  0  0  1  0  0  0  0  0  0
  162.3900  208.8180  149.7200 O   0  0  0  0  0  0  0  0  0  0  0  0
  1 36  1  6  0  0  0
  1 18  1  0  0  0  0
  3  1  1  0  0  0  0
  3  4  1  0  0  0  0
  4  2  2  0  0  0  0
  5  8  1  6  0  0  0
  5  7  1  0  0  0  0
  5  4  1  0  0  0  0
  7  6  1  0  0  0  0
  9  8  1  0  0  0  0
 10 14  2  0  0  0  0
 10  9  1  0  0  0  0
 11 12  1  0  0  0  0
 11 15  1  0  0  0  0
 12 17  1  0  0  0  0
 13 10  1  0  0  0  0
 15 16  1  0  0  0  0
 16 13  1  0  0  0  0
 17 13  1  0  0  0  0
 18 20  1  0  0  0  0
 20 19  1  1  0  0  0
 21 20  1  0  0  0  0
 22 21  1  0  0  0  0
 23 22  1  0  0  0  0
 24 33  1  0  0  0  0
 24 35  2  0  0  0  0
 26 29  2  0  0  0  0
 26 30  1  0  0  0  0
 28 31  2  0  0  0  0
 29 28  1  0  0  0  0
 30 27  1  6  0  0  0
 30 24  1  0  0  0  0
 31 35  1  0  0  0  0
 32 34  1  0  0  0  0
 32 25  2  0  0  0  0
 33 32  1  0  0  0  0
 34 23  1  0  0  0  0
 35 34  1  0  0  0  0
 37 38  1  0  0  0  0
 38 36  1  0  0  0  0
M  END
>  <MODEL>
5

>  <REMARK>
 VINA RESULT:      -6.7      1.771      8.524
  Name = 
  14 active torsions:
  status: ('A' for Active; 'I' for Inactive)
    1  A    between atoms: C_1  and  C_14
    2  A    between atoms: C_1  and  N_37
    3  A    between atoms: C_2  and  C_5
    4  A    between atoms: C_2  and  N_18
    5  A    between atoms: C_2  and  C_36
    6  A    between atoms: C_5  and  C_21
    7  A    between atoms: C_6  and  C_31
    8  A    between atoms: C_14  and  O_30
    9  A    between atoms: C_16  and  C_25
   10  A    between atoms: C_16  and  C_31
   11  A    between atoms: C_21  and  O_30
   12  A    between atoms: C_25  and  O_29
   13  A    between atoms: C_25  and  C_32
   14  A    between atoms: O_28  and  C_36
                            x       y       z     vdW  Elec       q    Type
                         _______ _______ _______ _____ _____    ______ ____

>  <TORSDO>
F 14

$$$$
=
 OpenBabel11042422453D

 38 40  0  0  1  0  0  0  0  0999 V2000
  160.7990  209.7180  152.8670 C   0  0  2  0  0  3  0  0  0  0  0  0
  160.9900  207.7720  154.9610 O   0  0  0  0  0  0  0  0  0  0  0  0
  161.0500  210.0030  154.2730 N   0  0  0  0  0  2  0  0  0  0  0  0
  161.1460  208.9840  155.2700 C   0  0  0  0  0  0  0  0  0  0  0  0
  161.3760  209.3830  156.6940 C   0  0  1  0  0  3  0  0  0  0  0  0
  163.3070  210.2780  156.9910 O   0  0  0  0  0  1  0  0  0  0  0  0
  162.6940  209.1140  157.0710 O   0  0  0  0  0  0  0  0  0  0  0  0
  160.9980  210.8410  156.9690 C   0  0  0  0  0  2  0  0  0  0  0  0
  159.4930  211.0380  157.1280 C   0  0  0  0  0  2  0  0  0  0  0  0
  159.1160  212.4310  156.7310 C   0  0  0  0  0  0  0  0  0  0  0  0
  155.7410  213.1090  154.2710 N   0  0  0  0  0  2  0  0  0  0  0  0
  156.1890  214.1260  155.2220 C   0  0  0  0  0  2  0  0  0  0  0  0
  158.0580  212.6650  155.7890 N   0  0  0  0  0  0  0  0  0  0  0  0
  159.7190  213.4030  157.2610 O   0  0  0  0  0  0  0  0  0  0  0  0
  155.9780  211.7920  154.8600 C   0  0  0  0  0  2  0  0  0  0  0  0
  157.4760  211.5590  155.0300 C   0  0  0  0  0  2  0  0  0  0  0  0
  157.7010  214.0300  155.4100 C   0  0  0  0  0  2  0  0  0  0  0  0
  162.1260  209.6180  152.1290 C   0  0  0  0  0  2  0  0  0  0  0  0
  161.3260  207.3880  151.8130 O   0  0  0  0  0  1  0  0  0  0  0  0
  162.2060  208.3440  151.3020 C   0  0  1  0  0  3  0  0  0  0  0  0
  161.8620  208.6290  149.9800 O   0  0  0  0  0  0  0  0  0  0  0  0
  162.2950  207.5180  149.2520 C   0  0  0  0  0  2  0  0  0  0  0  0
  161.1870  207.0280  148.3330 C   0  0  0  0  0  2  0  0  0  0  0  0
  161.1910  203.3990  148.4450 C   0  0  0  0  0  0  0  0  0  0  0  0
  162.0540  205.4920  145.9890 O   0  0  0  0  0  0  0  0  0  0  0  0
  161.3380  201.9510  150.4220 C   0  0  0  0  0  3  0  0  0  0  0  0
  161.2250  200.9210  148.1970 C   0  0  0  0  0  1  0  0  0  0  0  0
  160.4620  204.0650  151.3560 C   0  0  0  0  0  3  0  0  0  0  0  0
  161.1500  202.8020  151.3870 N   0  0  0  0  0  0  0  0  0  0  0  0
  160.7780  202.0990  149.0460 C   0  0  2  0  0  3  0  0  0  0  0  0
  160.4050  204.8580  150.3220 N   0  0  0  0  0  0  0  0  0  0  0  0
  161.6830  204.9190  147.0490 C   0  0  0  0  0  0  0  0  0  0  0  0
  161.6300  203.5750  147.1780 N   0  0  0  0  0  2  0  0  0  0  0  0
  161.2760  205.5840  148.1470 N   0  0  0  0  0  0  0  0  0  0  0  0
  160.9740  204.6210  149.0320 C   0  0  0  0  0  0  0  0  0  0  0  0
  159.9110  210.7990  152.2520 C   0  0  0  0  0  2  0  0  0  0  0  0
  159.9990  212.6450  151.0490 C   0  0  0  0  0  1  0  0  0  0  0  0
  160.6100  212.0020  152.1240 O   0  0  0  0  0  0  0  0  0  0  0  0
  1 18  1  6  0  0  0
  1  3  1  0  0  0  0
  2  4  2  0  0  0  0
  3  4  1  0  0  0  0
  4  5  1  0  0  0  0
  5  8  1  6  0  0  0
  5  7  1  0  0  0  0
  6  7  1  0  0  0  0
  8  9  1  0  0  0  0
 10  9  1  0  0  0  0
 10 14  2  0  0  0  0
 11 15  1  0  0  0  0
 11 12  1  0  0  0  0
 12 17  1  0  0  0  0
 13 10  1  0  0  0  0
 15 16  1  0  0  0  0
 16 13  1  0  0  0  0
 17 13  1  0  0  0  0
 20 19  1  1  0  0  0
 20 18  1  0  0  0  0
 21 20  1  0  0  0  0
 22 21  1  0  0  0  0
 23 22  1  0  0  0  0
 24 35  2  0  0  0  0
 24 30  1  0  0  0  0
 25 32  2  0  0  0  0
 26 29  2  0  0  0  0
 28 29  1  0  0  0  0
 30 27  1  6  0  0  0
 30 26  1  0  0  0  0
 31 28  2  0  0  0  0
 32 33  1  0  0  0  0
 32 34  1  0  0  0  0
 33 24  1  0  0  0  0
 34 23  1  0  0  0  0
 34 35  1  0  0  0  0
 35 31  1  0  0  0  0
 36  1  1  0  0  0  0
 37 38  1  0  0  0  0
 38 36  1  0  0  0  0
M  END
>  <MODEL>
6

>  <REMARK>
 VINA RESULT:      -6.7      2.717      5.319
  Name = 
  14 active torsions:
  status: ('A' for Active; 'I' for Inactive)
    1  A    between atoms: C_1  and  C_14
    2  A    between atoms: C_1  and  N_37
    3  A    between atoms: C_2  and  C_5
    4  A    between atoms: C_2  and  N_18
    5  A    between atoms: C_2  and  C_36
    6  A    between atoms: C_5  and  C_21
    7  A    between atoms: C_6  and  C_31
    8  A    between atoms: C_14  and  O_30
    9  A    between atoms: C_16  and  C_25
   10  A    between atoms: C_16  and  C_31
   11  A    between atoms: C_21  and  O_30
   12  A    between atoms: C_25  and  O_29
   13  A    between atoms: C_25  and  C_32
   14  A    between atoms: O_28  and  C_36
                            x       y       z     vdW  Elec       q    Type
                         _______ _______ _______ _____ _____    ______ ____

>  <TORSDO>
F 14

$$$$
=
 OpenBabel11042422453D

 38 40  0  0  1  0  0  0  0  0999 V2000
  160.7860  209.0340  154.2620 C   0  0  2  0  0  3  0  0  0  0  0  0
  160.7690  208.4060  151.4670 O   0  0  0  0  0  0  0  0  0  0  0  0
  161.2450  207.7860  153.6670 N   0  0  0  0  0  2  0  0  0  0  0  0
  161.2200  207.5370  152.2600 C   0  0  0  0  0  0  0  0  0  0  0  0
  161.6840  206.2080  151.7520 C   0  0  1  0  0  3  0  0  0  0  0  0
  161.2060  204.6330  153.1330 O   0  0  0  0  0  1  0  0  0  0  0  0
  162.1960  205.4350  152.7970 O   0  0  0  0  0  0  0  0  0  0  0  0
  160.5970  205.4580  150.9770 C   0  0  0  0  0  2  0  0  0  0  0  0
  161.1260  204.8170  149.6960 C   0  0  0  0  0  2  0  0  0  0  0  0
  160.9140  205.7420  148.5380 C   0  0  0  0  0  0  0  0  0  0  0  0
  161.3540  204.3320  144.5730 N   0  0  0  0  0  2  0  0  0  0  0  0
  160.4550  205.4450  144.8760 C   0  0  0  0  0  2  0  0  0  0  0  0
  161.1930  205.3140  147.1970 N   0  0  0  0  0  0  0  0  0  0  0  0
  160.4560  206.8970  148.7520 O   0  0  0  0  0  0  0  0  0  0  0  0
  161.3190  203.3950  145.6950 C   0  0  0  0  0  2  0  0  0  0  0  0
  161.8940  204.0560  146.9440 C   0  0  0  0  0  2  0  0  0  0  0  0
  160.9830  206.2270  146.0760 C   0  0  0  0  0  2  0  0  0  0  0  0
  161.3050  210.2030  153.4380 C   0  0  0  0  0  2  0  0  0  0  0  0
  160.2000  212.2040  154.1340 O   0  0  0  0  0  1  0  0  0  0  0  0
  160.2030  211.2130  153.1520 C   0  0  1  0  0  3  0  0  0  0  0  0
  160.4230  211.7970  151.9050 O   0  0  0  0  0  0  0  0  0  0  0  0
  159.4560  212.8000  151.8060 C   0  0  0  0  0  2  0  0  0  0  0  0
  159.9580  213.9280  150.9170 C   0  0  0  0  0  2  0  0  0  0  0  0
  159.6260  213.1110  147.3950 C   0  0  0  0  0  0  0  0  0  0  0  0
  157.4090  214.3940  149.5410 O   0  0  0  0  0  0  0  0  0  0  0  0
  161.4040  212.9520  145.7100 C   0  0  0  0  0  3  0  0  0  0  0  0
  159.0760  212.5790  145.0260 C   0  0  0  0  0  1  0  0  0  0  0  0
  162.6250  212.5910  147.8280 C   0  0  0  0  0  3  0  0  0  0  0  0
  162.4720  212.9760  146.4500 N   0  0  0  0  0  0  0  0  0  0  0  0
  160.0800  212.4220  146.1540 C   0  0  2  0  0  3  0  0  0  0  0  0
  161.6990  212.7020  148.7400 N   0  0  0  0  0  0  0  0  0  0  0  0
  158.4060  213.9170  148.9340 C   0  0  0  0  0  0  0  0  0  0  0  0
  158.3730  213.5620  147.6300 N   0  0  0  0  0  2  0  0  0  0  0  0
  159.5940  213.6850  149.5260 N   0  0  0  0  0  0  0  0  0  0  0  0
  160.3660  213.1850  148.5490 C   0  0  0  0  0  0  0  0  0  0  0  0
  161.2520  209.1380  155.7130 C   0  0  0  0  0  2  0  0  0  0  0  0
  159.8530  210.2540  157.0030 C   0  0  0  0  0  1  0  0  0  0  0  0
  160.1800  208.9630  156.5930 O   0  0  0  0  0  0  0  0  0  0  0  0
  1 18  1  6  0  0  0
  1 36  1  0  0  0  0
  2  4  2  0  0  0  0
  3  1  1  0  0  0  0
  4  3  1  0  0  0  0
  5  8  1  1  0  0  0
  5  4  1  0  0  0  0
  5  7  1  0  0  0  0
  7  6  1  0  0  0  0
  9  8  1  0  0  0  0
 10 14  2  0  0  0  0
 10  9  1  0  0  0  0
 11 12  1  0  0  0  0
 11 15  1  0  0  0  0
 12 17  1  0  0  0  0
 13 10  1  0  0  0  0
 15 16  1  0  0  0  0
 16 13  1  0  0  0  0
 17 13  1  0  0  0  0
 20 18  1  0  0  0  0
 20 19  1  1  0  0  0
 21 20  1  0  0  0  0
 22 21  1  0  0  0  0
 23 22  1  0  0  0  0
 24 33  1  0  0  0  0
 24 35  2  0  0  0  0
 26 30  1  0  0  0  0
 26 29  2  0  0  0  0
 28 31  2  0  0  0  0
 29 28  1  0  0  0  0
 30 27  1  6  0  0  0
 30 24  1  0  0  0  0
 32 34  1  0  0  0  0
 32 25  2  0  0  0  0
 33 32  1  0  0  0  0
 34 23  1  0  0  0  0
 35 31  1  0  0  0  0
 35 34  1  0  0  0  0
 36 38  1  0  0  0  0
 38 37  1  0  0  0  0
M  END
>  <MODEL>
7

>  <REMARK>
 VINA RESULT:      -6.6      1.925      8.016
  Name = 
  14 active torsions:
  status: ('A' for Active; 'I' for Inactive)
    1  A    between atoms: C_1  and  C_14
    2  A    between atoms: C_1  and  N_37
    3  A    between atoms: C_2  and  C_5
    4  A    between atoms: C_2  and  N_18
    5  A    between atoms: C_2  and  C_36
    6  A    between atoms: C_5  and  C_21
    7  A    between atoms: C_6  and  C_31
    8  A    between atoms: C_14  and  O_30
    9  A    between atoms: C_16  and  C_25
   10  A    between atoms: C_16  and  C_31
   11  A    between atoms: C_21  and  O_30
   12  A    between atoms: C_25  and  O_29
   13  A    between atoms: C_25  and  C_32
   14  A    between atoms: O_28  and  C_36
                            x       y       z     vdW  Elec       q    Type
                         _______ _______ _______ _____ _____    ______ ____

>  <TORSDO>
F 14

$$$$
=
 OpenBabel11042422453D

 38 40  0  0  1  0  0  0  0  0999 V2000
  160.6650  207.7630  153.1390 C   0  0  2  0  0  3  0  0  0  0  0  0
  159.7780  207.9900  155.8530 O   0  0  0  0  0  0  0  0  0  0  0  0
  161.0050  208.8410  154.0580 N   0  0  0  0  0  2  0  0  0  0  0  0
  160.5390  208.8910  155.4080 C   0  0  0  0  0  0  0  0  0  0  0  0
  160.9200  210.0580  156.2630 C   0  0  1  0  0  3  0  0  0  0  0  0
  162.9430  210.5500  156.7970 O   0  0  0  0  0  1  0  0  0  0  0  0
  161.9730  209.7170  157.1150 O   0  0  0  0  0  0  0  0  0  0  0  0
  161.2420  211.3120  155.4460 C   0  0  0  0  0  2  0  0  0  0  0  0
  159.9880  212.0110  154.9240 C   0  0  0  0  0  2  0  0  0  0  0  0
  159.4010  212.8730  155.9970 C   0  0  0  0  0  0  0  0  0  0  0  0
  155.2610  213.7460  156.0060 N   0  0  0  0  0  2  0  0  0  0  0  0
  156.0220  213.7180  157.2540 C   0  0  0  0  0  2  0  0  0  0  0  0
  158.0280  213.2880  155.9360 N   0  0  0  0  0  0  0  0  0  0  0  0
  160.1200  213.2060  156.9780 O   0  0  0  0  0  0  0  0  0  0  0  0
  155.8020  212.7200  155.1140 C   0  0  0  0  0  2  0  0  0  0  0  0
  157.2350  213.0700  154.7270 C   0  0  0  0  0  2  0  0  0  0  0  0
  157.4680  214.1300  156.9900 C   0  0  0  0  0  2  0  0  0  0  0  0
  161.4710  206.5230  153.4980 C   0  0  0  0  0  2  0  0  0  0  0  0
  162.7640  205.5160  151.7590 O   0  0  0  0  0  1  0  0  0  0  0  0
  161.4980  205.5280  152.3470 C   0  0  1  0  0  3  0  0  0  0  0  0
  161.2010  204.2540  152.8310 O   0  0  0  0  0  0  0  0  0  0  0  0
  161.5580  203.3870  151.7960 C   0  0  0  0  0  2  0  0  0  0  0  0
  160.3920  203.2040  150.8370 C   0  0  0  0  0  2  0  0  0  0  0  0
  161.5600  203.8120  147.4540 C   0  0  0  0  0  0  0  0  0  0  0  0
  160.9470  200.9430  149.0530 O   0  0  0  0  0  0  0  0  0  0  0  0
  161.2350  205.8230  146.0840 C   0  0  0  0  0  3  0  0  0  0  0  0
  162.4420  203.9110  145.1270 C   0  0  0  0  0  1  0  0  0  0  0  0
  160.9780  206.6820  148.3870 C   0  0  0  0  0  3  0  0  0  0  0  0
  160.7840  206.6700  146.9610 N   0  0  0  0  0  0  0  0  0  0  0  0
  162.1500  204.6860  146.4010 C   0  0  2  0  0  3  0  0  0  0  0  0
  161.1180  205.6190  149.1300 N   0  0  0  0  0  0  0  0  0  0  0  0
  161.1000  202.1350  148.6710 C   0  0  0  0  0  0  0  0  0  0  0  0
  161.5510  202.4590  147.4380 N   0  0  0  0  0  2  0  0  0  0  0  0
  160.8590  203.2020  149.4550 N   0  0  0  0  0  0  0  0  0  0  0  0
  161.1410  204.2610  148.6820 C   0  0  0  0  0  0  0  0  0  0  0  0
  160.9290  208.1880  151.6950 C   0  0  0  0  0  2  0  0  0  0  0  0
  162.3090  209.0640  150.2140 C   0  0  0  0  0  1  0  0  0  0  0  0
  162.2260  208.6890  151.5540 O   0  0  0  0  0  0  0  0  0  0  0  0
  1 36  1  6  0  0  0
  1 18  1  0  0  0  0
  1  3  1  0  0  0  0
  3  4  1  0  0  0  0
  4  2  2  0  0  0  0
  4  5  1  0  0  0  0
  5  8  1  6  0  0  0
  5  7  1  0  0  0  0
  6  7  1  0  0  0  0
  9  8  1  0  0  0  0
  9 10  1  0  0  0  0
 10 14  2  0  0  0  0
 11 12  1  0  0  0  0
 13 10  1  0  0  0  0
 13 17  1  0  0  0  0
 15 11  1  0  0  0  0
 16 15  1  0  0  0  0
 16 13  1  0  0  0  0
 17 12  1  0  0  0  0
 20 19  1  1  0  0  0
 20 21  1  0  0  0  0
 20 18  1  0  0  0  0
 22 21  1  0  0  0  0
 23 22  1  0  0  0  0
 24 35  2  0  0  0  0
 26 30  1  0  0  0  0
 26 29  2  0  0  0  0
 28 31  2  0  0  0  0
 29 28  1  0  0  0  0
 30 27  1  6  0  0  0
 30 24  1  0  0  0  0
 32 25  2  0  0  0  0
 32 34  1  0  0  0  0
 33 24  1  0  0  0  0
 33 32  1  0  0  0  0
 34 23  1  0  0  0  0
 35 31  1  0  0  0  0
 35 34  1  0  0  0  0
 37 38  1  0  0  0  0
 38 36  1  0  0  0  0
M  END
>  <MODEL>
8

>  <REMARK>
 VINA RESULT:      -6.4      3.337      5.496
  Name = 
  14 active torsions:
  status: ('A' for Active; 'I' for Inactive)
    1  A    between atoms: C_1  and  C_14
    2  A    between atoms: C_1  and  N_37
    3  A    between atoms: C_2  and  C_5
    4  A    between atoms: C_2  and  N_18
    5  A    between atoms: C_2  and  C_36
    6  A    between atoms: C_5  and  C_21
    7  A    between atoms: C_6  and  C_31
    8  A    between atoms: C_14  and  O_30
    9  A    between atoms: C_16  and  C_25
   10  A    between atoms: C_16  and  C_31
   11  A    between atoms: C_21  and  O_30
   12  A    between atoms: C_25  and  O_29
   13  A    between atoms: C_25  and  C_32
   14  A    between atoms: O_28  and  C_36
                            x       y       z     vdW  Elec       q    Type
                         _______ _______ _______ _____ _____    ______ ____

>  <TORSDO>
F 14

$$$$
=
 OpenBabel11042422453D

 38 40  0  0  1  0  0  0  0  0999 V2000
  160.7850  211.0290  154.8400 C   0  0  2  0  0  3  0  0  0  0  0  0
  159.2190  213.4160  155.0790 O   0  0  0  0  0  0  0  0  0  0  0  0
  159.5450  211.3090  154.1280 N   0  0  0  0  0  2  0  0  0  0  0  0
  158.8150  212.5260  154.2830 C   0  0  0  0  0  0  0  0  0  0  0  0
  157.5340  212.7040  153.5290 C   0  0  1  0  0  3  0  0  0  0  0  0
  156.0250  211.8390  154.7910 O   0  0  0  0  0  1  0  0  0  0  0  0
  156.4890  213.0100  154.4040 O   0  0  0  0  0  0  0  0  0  0  0  0
  157.6480  213.7390  152.4050 C   0  0  0  0  0  2  0  0  0  0  0  0
  158.8550  213.4960  151.5030 C   0  0  0  0  0  2  0  0  0  0  0  0
  158.4530  213.6180  150.0670 C   0  0  0  0  0  0  0  0  0  0  0  0
  161.2230  212.7380  146.9920 N   0  0  0  0  0  2  0  0  0  0  0  0
  159.7870  212.5700  146.7750 C   0  0  0  0  0  2  0  0  0  0  0  0
  159.4190  213.4560  149.0180 N   0  0  0  0  0  0  0  0  0  0  0  0
  157.2430  213.8340  149.7860 O   0  0  0  0  0  0  0  0  0  0  0  0
  161.5220  212.3950  148.3820 C   0  0  0  0  0  2  0  0  0  0  0  0
  160.8480  213.3900  149.3210 C   0  0  0  0  0  2  0  0  0  0  0  0
  159.0120  213.5790  147.6200 C   0  0  0  0  0  2  0  0  0  0  0  0
  161.8540  210.6080  153.8430 C   0  0  0  0  0  2  0  0  0  0  0  0
  161.5870  210.2040  151.5030 O   0  0  0  0  0  1  0  0  0  0  0  0
  161.2810  209.6980  152.7670 C   0  0  1  0  0  3  0  0  0  0  0  0
  161.8300  208.4220  152.9000 O   0  0  0  0  0  0  0  0  0  0  0  0
  160.8290  207.5550  152.4530 C   0  0  0  0  0  2  0  0  0  0  0  0
  161.2210  206.1120  152.7310 C   0  0  0  0  0  2  0  0  0  0  0  0
  161.2270  204.6430  149.4120 C   0  0  0  0  0  0  0  0  0  0  0  0
  160.4740  203.2980  152.3760 O   0  0  0  0  0  0  0  0  0  0  0  0
  160.9910  205.7890  147.2540 C   0  0  0  0  0  3  0  0  0  0  0  0
  161.2150  203.3450  147.2860 C   0  0  0  0  0  1  0  0  0  0  0  0
  161.8120  207.5850  148.7410 C   0  0  0  0  0  3  0  0  0  0  0  0
  161.1280  207.0350  147.6000 N   0  0  0  0  0  0  0  0  0  0  0  0
  161.6160  204.6390  147.9730 C   0  0  2  0  0  3  0  0  0  0  0  0
  161.9150  207.0000  149.9020 N   0  0  0  0  0  0  0  0  0  0  0  0
  160.7960  204.0210  151.3950 C   0  0  0  0  0  0  0  0  0  0  0  0
  160.8490  203.5580  150.1260 N   0  0  0  0  0  2  0  0  0  0  0  0
  161.1470  205.3160  151.5110 N   0  0  0  0  0  0  0  0  0  0  0  0
  161.4100  205.7100  150.2560 C   0  0  0  0  0  0  0  0  0  0  0  0
  160.5640  209.9450  155.8950 C   0  0  0  0  0  2  0  0  0  0  0  0
  161.5450  208.0500  156.4520 C   0  0  0  0  0  1  0  0  0  0  0  0
  161.7830  209.4170  156.3280 O   0  0  0  0  0  0  0  0  0  0  0  0
  1 18  1  6  0  0  0
  1 36  1  0  0  0  0
  3  4  1  0  0  0  0
  3  1  1  0  0  0  0
  4  2  2  0  0  0  0
  5  8  1  6  0  0  0
  5  4  1  0  0  0  0
  5  7  1  0  0  0  0
  7  6  1  0  0  0  0
  9  8  1  0  0  0  0
 10  9  1  0  0  0  0
 11 15  1  0  0  0  0
 12 11  1  0  0  0  0
 12 17  1  0  0  0  0
 13 16  1  0  0  0  0
 13 10  1  0  0  0  0
 14 10  2  0  0  0  0
 15 16  1  0  0  0  0
 17 13  1  0  0  0  0
 20 19  1  6  0  0  0
 20 21  1  0  0  0  0
 20 18  1  0  0  0  0
 22 23  1  0  0  0  0
 22 21  1  0  0  0  0
 24 33  1  0  0  0  0
 24 35  2  0  0  0  0
 26 29  2  0  0  0  0
 26 30  1  0  0  0  0
 28 31  2  0  0  0  0
 29 28  1  0  0  0  0
 30 27  1  6  0  0  0
 30 24  1  0  0  0  0
 31 35  1  0  0  0  0
 32 34  1  0  0  0  0
 32 25  2  0  0  0  0
 33 32  1  0  0  0  0
 34 23  1  0  0  0  0
 35 34  1  0  0  0  0
 36 38  1  0  0  0  0
 38 37  1  0  0  0  0
M  END
>  <MODEL>
9

>  <REMARK>
 VINA RESULT:      -6.4      1.782      2.597
  Name = 
  14 active torsions:
  status: ('A' for Active; 'I' for Inactive)
    1  A    between atoms: C_1  and  C_14
    2  A    between atoms: C_1  and  N_37
    3  A    between atoms: C_2  and  C_5
    4  A    between atoms: C_2  and  N_18
    5  A    between atoms: C_2  and  C_36
    6  A    between atoms: C_5  and  C_21
    7  A    between atoms: C_6  and  C_31
    8  A    between atoms: C_14  and  O_30
    9  A    between atoms: C_16  and  C_25
   10  A    between atoms: C_16  and  C_31
   11  A    between atoms: C_21  and  O_30
   12  A    between atoms: C_25  and  O_29
   13  A    between atoms: C_25  and  C_32
   14  A    between atoms: O_28  and  C_36
                            x       y       z     vdW  Elec       q    Type
                         _______ _______ _______ _____ _____    ______ ____

>  <TORSDO>
F 14

$$$$
