=
 OpenBabel11042421463D

 51 57  0  0  1  0  0  0  0  0999 V2000
  160.6210  211.1050  152.3140 C   0  0  2  0  0  3  0  0  0  0  0  0
  161.2360  209.0070  150.9890 N   0  0  0  0  0  0  0  0  0  0  0  0
  162.0690  206.9860  149.7390 C   0  0  1  0  0  0  0  0  0  0  0  0
  162.7280  207.0580  151.1010 C   0  0  0  0  0  2  0  0  0  0  0  0
  161.2890  207.5380  150.9310 C   0  0  1  0  0  3  0  0  0  0  0  0
  161.8870  209.2460  148.6410 C   0  0  0  0  0  2  0  0  0  0  0  0
  159.8240  208.9130  152.8510 O   0  0  0  0  0  0  0  0  0  0  0  0
  162.6350  207.9290  148.6730 C   0  0  0  0  0  2  0  0  0  0  0  0
  160.5300  209.6210  152.0800 C   0  0  0  0  0  0  0  0  0  0  0  0
  161.9330  209.8630  150.0240 C   0  0  0  0  0  2  0  0  0  0  0  0
  161.6670  205.6390  149.3450 N   0  0  0  0  0  2  0  0  0  0  0  0
  160.9960  205.7010  148.0520 C   0  0  0  0  0  2  0  0  0  0  0  0
  161.8400  206.0640  145.7130 C   0  0  0  0  0  2  0  0  0  0  0  0
  160.5500  205.8010  144.9450 C   0  0  0  0  0  2  0  0  0  0  0  0
  161.9100  205.1660  146.9560 C   0  0  2  0  0  3  0  0  0  0  0  0
  161.5510  203.7280  146.6590 C   0  0  0  0  0  0  0  0  0  0  0  0
  160.5570  204.3630  144.4450 C   0  0  0  0  0  2  0  0  0  0  0  0
  160.8790  203.3880  145.5460 C   0  0  0  0  0  3  0  0  0  0  0  0
  161.8690  202.7360  147.6440 N   0  0  0  0  0  2  0  0  0  0  0  0
  161.2430  201.4210  147.7080 C   0  0  2  0  0  3  0  0  0  0  0  0
  160.3920  201.2410  146.6160 O   0  0  0  0  0  1  0  0  0  0  0  0
  160.4790  201.2560  149.0180 C   0  0  0  0  0  2  0  0  0  0  0  0
  160.5820  202.4840  149.9220 C   0  0  0  0  0  2  0  0  0  0  0  0
  161.1590  202.1310  151.2850 C   0  0  0  0  0  2  0  0  0  0  0  0
  160.2750  204.3150  151.7030 O   0  0  0  0  0  1  0  0  0  0  0  0
  161.1080  203.3240  152.2270 C   0  0  0  0  0  2  0  0  0  0  0  0
  158.3690  211.6120  153.3490 C   0  0  0  0  0  3  0  0  0  0  0  0
  157.5960  212.0270  154.4340 C   0  0  0  0  0  3  0  0  0  0  0  0
  159.6090  212.3390  155.7530 C   0  0  0  0  0  0  0  0  0  0  0  0
  158.2070  212.3940  155.6410 C   0  0  0  0  0  0  0  0  0  0  0  0
  159.7650  211.5520  153.4600 C   0  0  0  0  0  0  0  0  0  0  0  0
  160.4320  212.7840  157.2400 Cl  0  0  0  0  0  0  0  0  0  0  0  0
  160.3760  211.9200  154.6630 C   0  0  0  0  0  3  0  0  0  0  0  0
  156.4030  211.7990  157.1400 N   0  0  0  0  0  1  0  0  0  0  0  0
  157.3650  212.8310  156.8000 C   0  0  2  0  0  3  0  0  0  0  0  0
  155.4850  213.6340  156.1400 O   0  0  0  0  0  1  0  0  0  0  0  0
  156.6940  214.0180  156.4930 O   0  0  0  0  0  0  0  0  0  0  0  0
  160.3240  211.8990  151.0520 C   0  0  0  0  0  2  0  0  0  0  0  0
  160.2940  213.3860  151.3640 C   0  0  0  0  0  2  0  0  0  0  0  0
  160.0570  214.1890  150.0970 C   0  0  0  0  0  2  0  0  0  0  0  0
  161.3190  214.4510  148.0050 N   0  0  0  0  0  2  0  0  0  0  0  0
  157.9320  213.7820  146.2630 C   0  0  2  0  0  3  0  0  0  0  0  0
  159.7790  213.2270  144.7540 O   0  0  0  0  0  0  0  0  0  0  0  0
  161.8880  212.8970  145.6180 O   0  0  0  0  0  0  0  0  0  0  0  0
  158.5210  213.8970  144.8500 C   0  0  0  0  0  2  0  0  0  0  0  0
  160.7300  213.3750  145.7610 C   0  0  0  0  0  0  0  0  0  0  0  0
  159.6520  213.0640  147.9100 N   0  0  1  0  0  0  0  0  0  0  0  0
  160.6640  213.4900  148.8770 C   0  0  2  0  0  3  0  0  0  0  0  0
  158.9040  214.2280  147.3840 C   0  0  1  0  0  3  0  0  0  0  0  0
  160.3170  214.0450  147.0330 C   0  0  1  0  0  0  0  0  0  0  0  0
  157.4520  212.4890  146.4850 O   0  0  0  0  0  1  0  0  0  0  0  0
  1 38  1  6  0  0  0
  1 31  1  0  0  0  0
  2  9  1  0  0  0  0
  3 11  1  6  0  0  0
  3  5  1  0  0  0  0
  3  4  1  0  0  0  0
  5  2  1  0  0  0  0
  5  4  1  1  0  0  0
  6  8  1  0  0  0  0
  6 10  1  0  0  0  0
  8  3  1  0  0  0  0
  9  1  1  0  0  0  0
  9  7  2  0  0  0  0
 10  2  1  0  0  0  0
 12 11  1  0  0  0  0
 13 15  1  0  0  0  0
 14 13  1  0  0  0  0
 15 12  1  1  0  0  0
 16 15  1  0  0  0  0
 16 19  1  0  0  0  0
 17 14  1  0  0  0  0
 17 18  1  0  0  0  0
 18 16  2  0  0  0  0
 19 20  1  0  0  0  0
 20 21  1  6  0  0  0
 20 22  1  0  0  0  0
 22 23  1  0  0  0  0
 23 24  1  0  0  0  0
 24 26  1  0  0  0  0
 25 26  1  0  0  0  0
 27 31  2  0  0  0  0
 27 28  1  0  0  0  0
 28 30  2  0  0  0  0
 29 32  1  0  0  0  0
 30 29  1  0  0  0  0
 30 35  1  0  0  0  0
 31 33  1  0  0  0  0
 33 29  2  0  0  0  0
 35 34  1  6  0  0  0
 36 37  1  0  0  0  0
 37 35  1  0  0  0  0
 38 39  1  0  0  0  0
 40 39  1  0  0  0  0
 41 48  1  0  0  0  0
 42 51  1  1  0  0  0
 42 49  1  0  0  0  0
 43 45  1  0  0  0  0
 43 46  1  0  0  0  0
 44 46  2  0  0  0  0
 45 42  1  0  0  0  0
 46 50  1  0  0  0  0
 47 48  1  0  0  0  0
 48 40  1  0  0  0  0
 49 47  1  0  0  0  0
 50 49  1  0  0  0  0
 50 47  1  0  0  0  0
 50 41  1  0  0  0  0
M  END
>  <MODEL>
1

>  <REMARK>
 VINA RESULT:      -6.7      0.000      0.000
  Name = 
  17 active torsions:
  status: ('A' for Active; 'I' for Inactive)
    1  A    between atoms: C_4  and  C_25
    2  A    between atoms: C_4  and  N_33
    3  A    between atoms: C_6  and  C_11
    4  A    between atoms: C_7  and  C_27
    5  A    between atoms: C_7  and  O_45
    6  A    between atoms: C_8  and  C_41
    7  A    between atoms: C_8  and  C_42
    8  A    between atoms: C_10  and  C_12
    9  A    between atoms: C_10  and  C_30
   10  A    between atoms: C_11  and  C_30
   11  A    between atoms: C_12  and  N_37
   12  A    between atoms: C_17  and  C_38
   13  A    between atoms: C_17  and  C_41
   14  A    between atoms: C_22  and  N_33
   15  A    between atoms: C_32  and  C_42
   16  A    between atoms: C_36  and  N_37
   17  A    between atoms: C_42  and  C_44
                            x       y       z     vdW  Elec       q    Type
                         _______ _______ _______ _____ _____    ______ ____

>  <TORSDO>
F 17

$$$$
=
 OpenBabel11042421463D

 51 57  0  0  1  0  0  0  0  0999 V2000
  161.4040  211.4620  150.9270 C   0  0  2  0  0  3  0  0  0  0  0  0
  161.5960  209.0240  150.1840 N   0  0  0  0  0  0  0  0  0  0  0  0
  161.5500  206.6250  149.4180 C   0  0  1  0  0  0  0  0  0  0  0  0
  160.7300  207.4840  148.4760 C   0  0  0  0  0  2  0  0  0  0  0  0
  161.9780  208.0650  149.1360 C   0  0  1  0  0  3  0  0  0  0  0  0
  161.2090  207.2560  151.8330 C   0  0  0  0  0  2  0  0  0  0  0  0
  162.7250  210.7400  149.0670 O   0  0  0  0  0  0  0  0  0  0  0  0
  160.8750  206.2570  150.7430 C   0  0  0  0  0  2  0  0  0  0  0  0
  161.9480  210.4060  150.0050 C   0  0  0  0  0  0  0  0  0  0  0  0
  160.8100  208.6390  151.3610 C   0  0  0  0  0  2  0  0  0  0  0  0
  162.3710  205.6240  148.7440 N   0  0  0  0  0  2  0  0  0  0  0  0
  161.5000  204.6300  148.1280 C   0  0  0  0  0  2  0  0  0  0  0  0
  163.0190  204.9870  146.1580 C   0  0  0  0  0  2  0  0  0  0  0  0
  162.0920  205.8220  145.2840 C   0  0  0  0  0  2  0  0  0  0  0  0
  162.2090  203.9570  146.9590 C   0  0  2  0  0  3  0  0  0  0  0  0
  161.1950  203.2240  146.1110 C   0  0  0  0  0  0  0  0  0  0  0  0
  161.4170  204.9110  144.2680 C   0  0  0  0  0  2  0  0  0  0  0  0
  160.7970  203.7050  144.9200 C   0  0  0  0  0  3  0  0  0  0  0  0
  160.5950  202.0390  146.6500 N   0  0  0  0  0  2  0  0  0  0  0  0
  161.2420  201.1710  147.6260 C   0  0  2  0  0  3  0  0  0  0  0  0
  161.5520  199.9400  147.0450 O   0  0  0  0  0  1  0  0  0  0  0  0
  160.3470  200.9790  148.8460 C   0  0  0  0  0  2  0  0  0  0  0  0
  161.1080  201.1020  150.1650 C   0  0  0  0  0  2  0  0  0  0  0  0
  161.1670  202.5430  150.6480 C   0  0  0  0  0  2  0  0  0  0  0  0
  161.0450  203.9160  152.6060 O   0  0  0  0  0  1  0  0  0  0  0  0
  160.7250  202.6540  152.1000 C   0  0  0  0  0  2  0  0  0  0  0  0
  162.4080  210.4110  152.9980 C   0  0  0  0  0  3  0  0  0  0  0  0
  162.2920  209.9790  154.3200 C   0  0  0  0  0  3  0  0  0  0  0  0
  159.9700  210.6810  154.3480 C   0  0  0  0  0  0  0  0  0  0  0  0
  161.0760  210.1100  155.0040 C   0  0  0  0  0  0  0  0  0  0  0  0
  161.3080  210.9850  152.3450 C   0  0  0  0  0  0  0  0  0  0  0  0
  158.4200  210.8730  155.1530 Cl  0  0  0  0  0  0  0  0  0  0  0  0
  160.0940  211.1130  153.0250 C   0  0  0  0  0  3  0  0  0  0  0  0
  162.2560  209.1810  156.9010 N   0  0  0  0  0  1  0  0  0  0  0  0
  160.9670  209.6490  156.4250 C   0  0  2  0  0  3  0  0  0  0  0  0
  160.7390  207.5170  156.5450 O   0  0  0  0  0  1  0  0  0  0  0  0
  160.0250  208.6230  156.5320 O   0  0  0  0  0  0  0  0  0  0  0  0
  160.0770  212.0190  150.4340 C   0  0  0  0  0  2  0  0  0  0  0  0
  160.0040  213.5130  150.7050 C   0  0  0  0  0  2  0  0  0  0  0  0
  160.0580  214.2910  149.4020 C   0  0  0  0  0  2  0  0  0  0  0  0
  161.7170  214.4530  147.5960 N   0  0  0  0  0  2  0  0  0  0  0  0
  158.7160  213.8450  145.2330 C   0  0  2  0  0  3  0  0  0  0  0  0
  160.8020  213.1890  144.1320 O   0  0  0  0  0  0  0  0  0  0  0  0
  162.6860  212.8160  145.4020 O   0  0  0  0  0  0  0  0  0  0  0  0
  159.5750  213.9010  143.9620 C   0  0  0  0  0  2  0  0  0  0  0  0
  161.5410  213.3340  145.3030 C   0  0  0  0  0  0  0  0  0  0  0  0
  160.0510  213.1190  147.2030 N   0  0  1  0  0  0  0  0  0  0  0  0
  160.8670  213.5390  148.3410 C   0  0  2  0  0  3  0  0  0  0  0  0
  159.4650  214.2910  146.5140 C   0  0  1  0  0  3  0  0  0  0  0  0
  160.9110  214.0520  146.4540 C   0  0  1  0  0  0  0  0  0  0  0  0
  158.1540  212.5750  145.3830 O   0  0  0  0  0  1  0  0  0  0  0  0
  1 38  1  6  0  0  0
  1 31  1  0  0  0  0
  2 10  1  0  0  0  0
  3 11  1  6  0  0  0
  3  8  1  0  0  0  0
  4  3  1  0  0  0  0
  5  4  1  6  0  0  0
  5  3  1  0  0  0  0
  5  2  1  0  0  0  0
  7  9  2  0  0  0  0
  8  6  1  0  0  0  0
  9  2  1  0  0  0  0
  9  1  1  0  0  0  0
 10  6  1  0  0  0  0
 12 11  1  0  0  0  0
 13 15  1  0  0  0  0
 14 13  1  0  0  0  0
 15 12  1  1  0  0  0
 16 19  1  0  0  0  0
 16 15  1  0  0  0  0
 17 18  1  0  0  0  0
 17 14  1  0  0  0  0
 18 16  2  0  0  0  0
 19 20  1  0  0  0  0
 20 21  1  6  0  0  0
 20 22  1  0  0  0  0
 22 23  1  0  0  0  0
 23 24  1  0  0  0  0
 24 26  1  0  0  0  0
 26 25  1  0  0  0  0
 27 28  1  0  0  0  0
 28 30  2  0  0  0  0
 29 30  1  0  0  0  0
 29 32  1  0  0  0  0
 30 35  1  0  0  0  0
 31 27  2  0  0  0  0
 31 33  1  0  0  0  0
 33 29  2  0  0  0  0
 35 37  1  0  0  0  0
 35 34  1  6  0  0  0
 37 36  1  0  0  0  0
 38 39  1  0  0  0  0
 40 39  1  0  0  0  0
 41 48  1  0  0  0  0
 42 51  1  1  0  0  0
 42 49  1  0  0  0  0
 43 46  1  0  0  0  0
 45 43  1  0  0  0  0
 45 42  1  0  0  0  0
 46 44  2  0  0  0  0
 46 50  1  0  0  0  0
 47 48  1  0  0  0  0
 48 40  1  0  0  0  0
 49 47  1  0  0  0  0
 50 49  1  0  0  0  0
 50 47  1  0  0  0  0
 50 41  1  0  0  0  0
M  END
>  <MODEL>
2

>  <REMARK>
 VINA RESULT:      -5.7      2.146      2.690
  Name = 
  17 active torsions:
  status: ('A' for Active; 'I' for Inactive)
    1  A    between atoms: C_4  and  C_25
    2  A    between atoms: C_4  and  N_33
    3  A    between atoms: C_6  and  C_11
    4  A    between atoms: C_7  and  C_27
    5  A    between atoms: C_7  and  O_45
    6  A    between atoms: C_8  and  C_41
    7  A    between atoms: C_8  and  C_42
    8  A    between atoms: C_10  and  C_12
    9  A    between atoms: C_10  and  C_30
   10  A    between atoms: C_11  and  C_30
   11  A    between atoms: C_12  and  N_37
   12  A    between atoms: C_17  and  C_38
   13  A    between atoms: C_17  and  C_41
   14  A    between atoms: C_22  and  N_33
   15  A    between atoms: C_32  and  C_42
   16  A    between atoms: C_36  and  N_37
   17  A    between atoms: C_42  and  C_44
                            x       y       z     vdW  Elec       q    Type
                         _______ _______ _______ _____ _____    ______ ____

>  <TORSDO>
F 17

$$$$
=
 OpenBabel11042421463D

 51 57  0  0  1  0  0  0  0  0999 V2000
  161.2730  211.3430  151.5440 C   0  0  2  0  0  3  0  0  0  0  0  0
  161.5070  209.0040  150.5400 N   0  0  0  0  0  0  0  0  0  0  0  0
  161.5010  206.7040  149.5150 C   0  0  1  0  0  0  0  0  0  0  0  0
  160.6720  207.6480  148.6680 C   0  0  0  0  0  2  0  0  0  0  0  0
  161.9080  208.1720  149.3950 C   0  0  1  0  0  3  0  0  0  0  0  0
  161.1390  207.0600  151.9830 C   0  0  0  0  0  2  0  0  0  0  0  0
  162.6130  210.8490  149.6240 O   0  0  0  0  0  0  0  0  0  0  0  0
  160.8270  206.1820  150.7880 C   0  0  0  0  0  2  0  0  0  0  0  0
  161.8380  210.4020  150.5150 C   0  0  0  0  0  0  0  0  0  0  0  0
  160.7210  208.4810  151.6620 C   0  0  0  0  0  2  0  0  0  0  0  0
  162.3410  205.7940  148.7410 N   0  0  0  0  0  2  0  0  0  0  0  0
  161.5040  204.7540  148.1570 C   0  0  0  0  0  2  0  0  0  0  0  0
  163.0020  205.0900  146.1670 C   0  0  0  0  0  2  0  0  0  0  0  0
  162.0380  205.8450  145.2610 C   0  0  0  0  0  2  0  0  0  0  0  0
  162.2390  204.0620  147.0150 C   0  0  2  0  0  3  0  0  0  0  0  0
  161.2560  203.2500  146.2030 C   0  0  0  0  0  0  0  0  0  0  0  0
  161.4010  204.8620  144.2880 C   0  0  0  0  0  2  0  0  0  0  0  0
  160.8360  203.6600  144.9950 C   0  0  0  0  0  3  0  0  0  0  0  0
  160.7100  202.0640  146.7960 N   0  0  0  0  0  2  0  0  0  0  0  0
  161.5170  200.9760  147.3340 C   0  0  2  0  0  3  0  0  0  0  0  0
  161.2850  199.8030  146.6130 O   0  0  0  0  0  1  0  0  0  0  0  0
  161.2130  200.7670  148.8140 C   0  0  0  0  0  2  0  0  0  0  0  0
  161.1240  202.0790  149.5910 C   0  0  0  0  0  2  0  0  0  0  0  0
  160.3540  201.9100  150.8930 C   0  0  0  0  0  2  0  0  0  0  0  0
  162.1040  203.1410  151.9640 O   0  0  0  0  0  1  0  0  0  0  0  0
  160.7170  203.0000  151.8900 C   0  0  0  0  0  2  0  0  0  0  0  0
  162.3880  210.3070  153.5640 C   0  0  0  0  0  3  0  0  0  0  0  0
  162.3130  209.7420  154.8380 C   0  0  0  0  0  3  0  0  0  0  0  0
  159.9010  210.0020  154.8130 C   0  0  0  0  0  0  0  0  0  0  0  0
  161.0720  209.5850  155.4710 C   0  0  0  0  0  0  0  0  0  0  0  0
  161.2220  210.7280  152.9100 C   0  0  0  0  0  0  0  0  0  0  0  0
  158.3170  209.8330  155.5560 Cl  0  0  0  0  0  0  0  0  0  0  0  0
  159.9840  210.5690  153.5390 C   0  0  0  0  0  3  0  0  0  0  0  0
  162.2280  208.2550  157.1300 N   0  0  0  0  0  1  0  0  0  0  0  0
  161.0060  208.9830  156.8410 C   0  0  2  0  0  3  0  0  0  0  0  0
  160.3300  206.9880  156.4200 O   0  0  0  0  0  1  0  0  0  0  0  0
  159.9090  208.1220  156.9410 O   0  0  0  0  0  0  0  0  0  0  0  0
  159.9170  211.8930  151.1280 C   0  0  0  0  0  2  0  0  0  0  0  0
  160.0640  213.3180  150.6180 C   0  0  0  0  0  2  0  0  0  0  0  0
  159.1260  214.2480  151.3660 C   0  0  0  0  0  2  0  0  0  0  0  0
  156.8110  214.3350  152.1870 N   0  0  0  0  0  2  0  0  0  0  0  0
  158.4010  214.1500  155.7070 C   0  0  2  0  0  3  0  0  0  0  0  0
  156.0900  213.3440  155.7830 O   0  0  0  0  0  0  0  0  0  0  0  0
  155.0420  212.7210  153.8300 O   0  0  0  0  0  0  0  0  0  0  0  0
  157.0470  214.1830  156.4310 C   0  0  0  0  0  2  0  0  0  0  0  0
  155.9730  213.3560  154.3960 C   0  0  0  0  0  0  0  0  0  0  0  0
  158.1860  213.1950  153.4200 N   0  0  1  0  0  0  0  0  0  0  0  0
  157.9670  213.4730  152.0010 C   0  0  2  0  0  3  0  0  0  0  0  0
  158.3070  214.4530  154.1910 C   0  0  1  0  0  3  0  0  0  0  0  0
  157.0180  214.0740  153.6020 C   0  0  1  0  0  0  0  0  0  0  0  0
  159.0490  212.9360  155.9480 O   0  0  0  0  0  1  0  0  0  0  0  0
  1 38  1  6  0  0  0
  1 31  1  0  0  0  0
  2 10  1  0  0  0  0
  3 11  1  6  0  0  0
  3  8  1  0  0  0  0
  4  3  1  0  0  0  0
  5  4  1  6  0  0  0
  5  3  1  0  0  0  0
  5  2  1  0  0  0  0
  7  9  2  0  0  0  0
  8  6  1  0  0  0  0
  9  2  1  0  0  0  0
  9  1  1  0  0  0  0
 10  6  1  0  0  0  0
 12 11  1  0  0  0  0
 13 15  1  0  0  0  0
 14 13  1  0  0  0  0
 15 12  1  1  0  0  0
 16 19  1  0  0  0  0
 16 15  1  0  0  0  0
 17 18  1  0  0  0  0
 17 14  1  0  0  0  0
 18 16  2  0  0  0  0
 19 20  1  0  0  0  0
 20 21  1  6  0  0  0
 20 22  1  0  0  0  0
 22 23  1  0  0  0  0
 23 24  1  0  0  0  0
 24 26  1  0  0  0  0
 26 25  1  0  0  0  0
 27 28  1  0  0  0  0
 28 30  2  0  0  0  0
 29 30  1  0  0  0  0
 29 32  1  0  0  0  0
 30 35  1  0  0  0  0
 31 33  1  0  0  0  0
 31 27  2  0  0  0  0
 33 29  2  0  0  0  0
 35 37  1  0  0  0  0
 35 34  1  6  0  0  0
 36 37  1  0  0  0  0
 39 38  1  0  0  0  0
 39 40  1  0  0  0  0
 40 48  1  0  0  0  0
 41 50  1  0  0  0  0
 42 51  1  6  0  0  0
 42 45  1  0  0  0  0
 43 45  1  0  0  0  0
 44 46  2  0  0  0  0
 46 43  1  0  0  0  0
 47 50  1  0  0  0  0
 47 49  1  0  0  0  0
 48 41  1  0  0  0  0
 48 47  1  0  0  0  0
 49 42  1  0  0  0  0
 50 49  1  0  0  0  0
 50 46  1  0  0  0  0
M  END
>  <MODEL>
3

>  <REMARK>
 VINA RESULT:      -5.2      2.741      4.917
  Name = 
  17 active torsions:
  status: ('A' for Active; 'I' for Inactive)
    1  A    between atoms: C_4  and  C_25
    2  A    between atoms: C_4  and  N_33
    3  A    between atoms: C_6  and  C_11
    4  A    between atoms: C_7  and  C_27
    5  A    between atoms: C_7  and  O_45
    6  A    between atoms: C_8  and  C_41
    7  A    between atoms: C_8  and  C_42
    8  A    between atoms: C_10  and  C_12
    9  A    between atoms: C_10  and  C_30
   10  A    between atoms: C_11  and  C_30
   11  A    between atoms: C_12  and  N_37
   12  A    between atoms: C_17  and  C_38
   13  A    between atoms: C_17  and  C_41
   14  A    between atoms: C_22  and  N_33
   15  A    between atoms: C_32  and  C_42
   16  A    between atoms: C_36  and  N_37
   17  A    between atoms: C_42  and  C_44
                            x       y       z     vdW  Elec       q    Type
                         _______ _______ _______ _____ _____    ______ ____

>  <TORSDO>
F 17

$$$$
=
 OpenBabel11042421463D

 51 57  0  0  1  0  0  0  0  0999 V2000
  161.4700  209.1490  149.2390 C   0  0  2  0  0  3  0  0  0  0  0  0
  161.0950  210.2900  151.4960 N   0  0  0  0  0  0  0  0  0  0  0  0
  160.5060  211.3250  153.7140 C   0  0  1  0  0  0  0  0  0  0  0  0
  160.0590  209.8780  153.6850 C   0  0  0  0  0  2  0  0  0  0  0  0
  161.3300  210.2920  152.9480 C   0  0  1  0  0  3  0  0  0  0  0  0
  160.0630  212.5100  151.5360 C   0  0  0  0  0  2  0  0  0  0  0  0
  162.7610  208.6770  151.1980 O   0  0  0  0  0  0  0  0  0  0  0  0
  159.6070  212.3170  152.9680 C   0  0  0  0  0  2  0  0  0  0  0  0
  161.8190  209.3470  150.6890 C   0  0  0  0  0  0  0  0  0  0  0  0
  160.1030  211.1580  150.8530 C   0  0  0  0  0  2  0  0  0  0  0  0
  161.1050  211.7360  154.9810 N   0  0  0  0  0  2  0  0  0  0  0  0
  162.0680  210.7250  155.4020 C   0  0  0  0  0  2  0  0  0  0  0  0
  162.3900  208.9310  157.1310 C   0  0  0  0  0  2  0  0  0  0  0  0
  161.4780  207.8600  156.5450 C   0  0  0  0  0  2  0  0  0  0  0  0
  161.8180  210.3270  156.8510 C   0  0  2  0  0  3  0  0  0  0  0  0
  160.3400  210.4250  157.1510 C   0  0  0  0  0  0  0  0  0  0  0  0
  160.1250  207.9270  157.2420 C   0  0  0  0  0  2  0  0  0  0  0  0
  159.5730  209.3270  157.2610 C   0  0  0  0  0  3  0  0  0  0  0  0
  159.7510  211.7300  157.2290 N   0  0  0  0  0  2  0  0  0  0  0  0
  158.3360  211.9990  157.0080 C   0  0  2  0  0  3  0  0  0  0  0  0
  157.9190  211.4240  155.8060 O   0  0  0  0  0  1  0  0  0  0  0  0
  158.0730  213.5020  157.0040 C   0  0  0  0  0  2  0  0  0  0  0  0
  156.7850  213.8760  156.2730 C   0  0  0  0  0  2  0  0  0  0  0  0
  157.0680  214.4490  154.8920 C   0  0  0  0  0  2  0  0  0  0  0  0
  155.1860  213.1500  154.1870 O   0  0  0  0  0  1  0  0  0  0  0  0
  155.8360  214.3720  154.0030 C   0  0  0  0  0  2  0  0  0  0  0  0
  160.9410  206.7100  149.6590 C   0  0  0  0  0  3  0  0  0  0  0  0
  160.9740  205.3740  149.2600 C   0  0  0  0  0  3  0  0  0  0  0  0
  162.1300  206.0070  147.2230 C   0  0  0  0  0  0  0  0  0  0  0  0
  161.5680  205.0110  148.0440 C   0  0  0  0  0  0  0  0  0  0  0  0
  161.4960  207.7040  148.8400 C   0  0  0  0  0  0  0  0  0  0  0  0
  162.8860  205.6160  145.6860 Cl  0  0  0  0  0  0  0  0  0  0  0  0
  162.0910  207.3440  147.6280 C   0  0  0  0  0  3  0  0  0  0  0  0
  160.6030  203.3360  146.5880 N   0  0  0  0  0  1  0  0  0  0  0  0
  161.5920  203.5730  147.6240 C   0  0  2  0  0  3  0  0  0  0  0  0
  160.2430  202.0880  148.3900 O   0  0  0  0  0  1  0  0  0  0  0  0
  161.3360  202.7440  148.7190 O   0  0  0  0  0  0  0  0  0  0  0  0
  162.3390  209.9970  148.3240 C   0  0  0  0  0  2  0  0  0  0  0  0
  162.7300  211.2880  149.0230 C   0  0  0  0  0  2  0  0  0  0  0  0
  161.8510  212.4340  148.5520 C   0  0  0  0  0  2  0  0  0  0  0  0
  161.7860  213.5690  146.3730 N   0  0  0  0  0  2  0  0  0  0  0  0
  157.9460  213.5140  146.8310 C   0  0  2  0  0  3  0  0  0  0  0  0
  158.5090  213.6920  144.4550 O   0  0  0  0  0  0  0  0  0  0  0  0
  160.6270  213.1340  143.7460 O   0  0  0  0  0  0  0  0  0  0  0  0
  157.6750  214.2130  145.4910 C   0  0  0  0  0  2  0  0  0  0  0  0
  159.8620  213.4630  144.6920 C   0  0  0  0  0  0  0  0  0  0  0  0
  160.0980  212.2680  146.7880 N   0  0  1  0  0  0  0  0  0  0  0  0
  161.5350  212.3120  147.0590 C   0  0  2  0  0  3  0  0  0  0  0  0
  159.4390  213.5120  147.2440 C   0  0  1  0  0  3  0  0  0  0  0  0
  160.3580  213.5460  146.1010 C   0  0  1  0  0  0  0  0  0  0  0  0
  157.4150  212.2220  146.8200 O   0  0  0  0  0  1  0  0  0  0  0  0
  1 38  1  6  0  0  0
  1  9  1  0  0  0  0
  2  5  1  0  0  0  0
  3 11  1  1  0  0  0
  4  3  1  0  0  0  0
  5  4  1  1  0  0  0
  5  3  1  0  0  0  0
  6  8  1  0  0  0  0
  8  3  1  0  0  0  0
  9  7  2  0  0  0  0
  9  2  1  0  0  0  0
 10  2  1  0  0  0  0
 10  6  1  0  0  0  0
 11 12  1  0  0  0  0
 14 13  1  0  0  0  0
 14 17  1  0  0  0  0
 15 12  1  6  0  0  0
 15 13  1  0  0  0  0
 15 16  1  0  0  0  0
 16 19  1  0  0  0  0
 16 18  2  0  0  0  0
 17 18  1  0  0  0  0
 20 21  1  6  0  0  0
 20 19  1  0  0  0  0
 22 20  1  0  0  0  0
 23 22  1  0  0  0  0
 24 23  1  0  0  0  0
 26 25  1  0  0  0  0
 26 24  1  0  0  0  0
 28 27  1  0  0  0  0
 29 33  2  0  0  0  0
 29 30  1  0  0  0  0
 30 28  2  0  0  0  0
 31  1  1  0  0  0  0
 31 27  2  0  0  0  0
 32 29  1  0  0  0  0
 33 31  1  0  0  0  0
 35 34  1  6  0  0  0
 35 30  1  0  0  0  0
 35 37  1  0  0  0  0
 36 37  1  0  0  0  0
 38 39  1  0  0  0  0
 40 39  1  0  0  0  0
 41 48  1  0  0  0  0
 42 51  1  6  0  0  0
 42 49  1  0  0  0  0
 43 46  1  0  0  0  0
 43 45  1  0  0  0  0
 44 46  2  0  0  0  0
 45 42  1  0  0  0  0
 46 50  1  0  0  0  0
 47 48  1  0  0  0  0
 47 49  1  0  0  0  0
 48 40  1  0  0  0  0
 50 41  1  0  0  0  0
 50 47  1  0  0  0  0
 50 49  1  0  0  0  0
M  END
>  <MODEL>
4

>  <REMARK>
 VINA RESULT:      -4.6      2.873      9.089
  Name = 
  17 active torsions:
  status: ('A' for Active; 'I' for Inactive)
    1  A    between atoms: C_4  and  C_25
    2  A    between atoms: C_4  and  N_33
    3  A    between atoms: C_6  and  C_11
    4  A    between atoms: C_7  and  C_27
    5  A    between atoms: C_7  and  O_45
    6  A    between atoms: C_8  and  C_41
    7  A    between atoms: C_8  and  C_42
    8  A    between atoms: C_10  and  C_12
    9  A    between atoms: C_10  and  C_30
   10  A    between atoms: C_11  and  C_30
   11  A    between atoms: C_12  and  N_37
   12  A    between atoms: C_17  and  C_38
   13  A    between atoms: C_17  and  C_41
   14  A    between atoms: C_22  and  N_33
   15  A    between atoms: C_32  and  C_42
   16  A    between atoms: C_36  and  N_37
   17  A    between atoms: C_42  and  C_44
                            x       y       z     vdW  Elec       q    Type
                         _______ _______ _______ _____ _____    ______ ____

>  <TORSDO>
F 17

$$$$
=
 OpenBabel11042421463D

 51 57  0  0  1  0  0  0  0  0999 V2000
  160.7290  210.2840  153.1790 C   0  0  2  0  0  3  0  0  0  0  0  0
  161.3700  208.6800  151.2950 N   0  0  0  0  0  0  0  0  0  0  0  0
  162.2290  207.1440  149.4930 C   0  0  1  0  0  0  0  0  0  0  0  0
  162.9680  206.8830  150.7900 C   0  0  0  0  0  2  0  0  0  0  0  0
  161.4970  207.2910  150.8270 C   0  0  1  0  0  3  0  0  0  0  0  0
  161.8580  209.6010  149.0790 C   0  0  0  0  0  2  0  0  0  0  0  0
  160.0860  207.9790  153.1190 O   0  0  0  0  0  0  0  0  0  0  0  0
  162.6760  208.3810  148.7080 C   0  0  0  0  0  2  0  0  0  0  0  0
  160.7030  208.9200  152.5450 C   0  0  0  0  0  0  0  0  0  0  0  0
  161.9580  209.8140  150.5750 C   0  0  0  0  0  2  0  0  0  0  0  0
  161.8750  205.9340  148.7580 N   0  0  0  0  0  2  0  0  0  0  0  0
  161.9080  206.2180  147.3280 C   0  0  0  0  0  2  0  0  0  0  0  0
  163.0050  205.4710  145.1940 C   0  0  0  0  0  2  0  0  0  0  0  0
  161.8480  205.7030  144.2310 C   0  0  0  0  0  2  0  0  0  0  0  0
  162.4740  205.0270  146.5650 C   0  0  2  0  0  3  0  0  0  0  0  0
  161.4200  203.9480  146.4620 C   0  0  0  0  0  0  0  0  0  0  0  0
  161.1160  204.3850  144.0110 C   0  0  0  0  0  2  0  0  0  0  0  0
  160.7670  203.7140  145.3110 C   0  0  0  0  0  3  0  0  0  0  0  0
  161.0680  203.2340  147.6540 N   0  0  0  0  0  2  0  0  0  0  0  0
  161.1480  201.7840  147.7880 C   0  0  2  0  0  3  0  0  0  0  0  0
  160.6010  201.1660  146.6620 O   0  0  0  0  0  1  0  0  0  0  0  0
  160.4320  201.3250  149.0540 C   0  0  0  0  0  2  0  0  0  0  0  0
  161.2280  201.6220  150.3240 C   0  0  0  0  0  2  0  0  0  0  0  0
  160.3370  202.1670  151.4310 C   0  0  0  0  0  2  0  0  0  0  0  0
  161.6740  204.1530  151.4380 O   0  0  0  0  0  1  0  0  0  0  0  0
  160.3560  203.6880  151.4510 C   0  0  0  0  0  2  0  0  0  0  0  0
  158.6090  211.4470  152.4380 C   0  0  0  0  0  3  0  0  0  0  0  0
  157.9570  212.4100  151.6670 C   0  0  0  0  0  3  0  0  0  0  0  0
  160.0830  213.0960  150.7210 C   0  0  0  0  0  0  0  0  0  0  0  0
  158.6860  213.2400  150.8040 C   0  0  0  0  0  0  0  0  0  0  0  0
  160.0010  211.3050  152.3600 C   0  0  0  0  0  0  0  0  0  0  0  0
  161.0520  214.1070  149.6600 Cl  0  0  0  0  0  0  0  0  0  0  0  0
  160.7290  212.1300  151.4980 C   0  0  0  0  0  3  0  0  0  0  0  0
  156.5400  214.1610  150.1710 N   0  0  0  0  0  1  0  0  0  0  0  0
  157.9750  214.2750  149.9870 C   0  0  2  0  0  3  0  0  0  0  0  0
  157.3420  213.3470  148.1560 O   0  0  0  0  0  1  0  0  0  0  0  0
  158.2900  214.1260  148.6340 O   0  0  0  0  0  0  0  0  0  0  0  0
  162.1450  210.7330  153.5040 C   0  0  0  0  0  2  0  0  0  0  0  0
  162.4040  210.6100  154.9970 C   0  0  0  0  0  2  0  0  0  0  0  0
  161.0960  210.4410  155.7490 C   0  0  0  0  0  2  0  0  0  0  0  0
  160.0620  212.0890  157.2530 N   0  0  0  0  0  2  0  0  0  0  0  0
  156.7050  210.7140  155.9130 C   0  0  2  0  0  3  0  0  0  0  0  0
  156.4030  212.9890  156.7680 O   0  0  0  0  0  0  0  0  0  0  0  0
  158.2430  214.3430  157.0600 O   0  0  0  0  0  0  0  0  0  0  0  0
  155.8580  211.6690  156.7670 C   0  0  0  0  0  2  0  0  0  0  0  0
  157.7740  213.1810  156.9230 C   0  0  0  0  0  0  0  0  0  0  0  0
  158.9510  211.6720  155.4350 N   0  0  1  0  0  0  0  0  0  0  0  0
  160.3460  211.7720  155.8620 C   0  0  2  0  0  3  0  0  0  0  0  0
  158.2090  210.7120  156.2840 C   0  0  1  0  0  3  0  0  0  0  0  0
  158.6700  211.9860  156.8480 C   0  0  1  0  0  0  0  0  0  0  0  0
  156.5120  210.9790  154.5550 O   0  0  0  0  0  1  0  0  0  0  0  0
  1 38  1  6  0  0  0
  2  9  1  0  0  0  0
  3 11  1  6  0  0  0
  3  4  1  0  0  0  0
  3  5  1  0  0  0  0
  5  4  1  1  0  0  0
  5  2  1  0  0  0  0
  6 10  1  0  0  0  0
  8  6  1  0  0  0  0
  8  3  1  0  0  0  0
  9  7  2  0  0  0  0
  9  1  1  0  0  0  0
 10  2  1  0  0  0  0
 12 11  1  0  0  0  0
 13 15  1  0  0  0  0
 14 13  1  0  0  0  0
 15 12  1  6  0  0  0
 16 15  1  0  0  0  0
 16 19  1  0  0  0  0
 17 14  1  0  0  0  0
 17 18  1  0  0  0  0
 18 16  2  0  0  0  0
 19 20  1  0  0  0  0
 20 21  1  6  0  0  0
 20 22  1  0  0  0  0
 22 23  1  0  0  0  0
 23 24  1  0  0  0  0
 24 26  1  0  0  0  0
 25 26  1  0  0  0  0
 28 27  2  0  0  0  0
 29 30  2  0  0  0  0
 29 33  1  0  0  0  0
 30 28  1  0  0  0  0
 31 27  1  0  0  0  0
 31  1  1  0  0  0  0
 32 29  1  0  0  0  0
 33 31  2  0  0  0  0
 35 34  1  6  0  0  0
 35 30  1  0  0  0  0
 36 37  1  0  0  0  0
 37 35  1  0  0  0  0
 38 39  1  0  0  0  0
 39 40  1  0  0  0  0
 40 48  1  0  0  0  0
 42 51  1  6  0  0  0
 42 49  1  0  0  0  0
 42 45  1  0  0  0  0
 43 46  1  0  0  0  0
 45 43  1  0  0  0  0
 46 44  2  0  0  0  0
 47 48  1  0  0  0  0
 47 49  1  0  0  0  0
 47 50  1  0  0  0  0
 48 41  1  0  0  0  0
 49 50  1  0  0  0  0
 50 46  1  0  0  0  0
 50 41  1  0  0  0  0
M  END
>  <MODEL>
5

>  <REMARK>
 VINA RESULT:      -4.4      2.358      5.649
  Name = 
  17 active torsions:
  status: ('A' for Active; 'I' for Inactive)
    1  A    between atoms: C_4  and  C_25
    2  A    between atoms: C_4  and  N_33
    3  A    between atoms: C_6  and  C_11
    4  A    between atoms: C_7  and  C_27
    5  A    between atoms: C_7  and  O_45
    6  A    between atoms: C_8  and  C_41
    7  A    between atoms: C_8  and  C_42
    8  A    between atoms: C_10  and  C_12
    9  A    between atoms: C_10  and  C_30
   10  A    between atoms: C_11  and  C_30
   11  A    between atoms: C_12  and  N_37
   12  A    between atoms: C_17  and  C_38
   13  A    between atoms: C_17  and  C_41
   14  A    between atoms: C_22  and  N_33
   15  A    between atoms: C_32  and  C_42
   16  A    between atoms: C_36  and  N_37
   17  A    between atoms: C_42  and  C_44
                            x       y       z     vdW  Elec       q    Type
                         _______ _______ _______ _____ _____    ______ ____

>  <TORSDO>
F 17

$$$$
=
 OpenBabel11042421463D

 51 57  0  0  1  0  0  0  0  0999 V2000
  161.3670  211.5100  151.0990 C   0  0  2  0  0  3  0  0  0  0  0  0
  161.6840  209.1360  150.2020 N   0  0  0  0  0  0  0  0  0  0  0  0
  161.7600  206.7910  149.2890 C   0  0  1  0  0  0  0  0  0  0  0  0
  160.8780  207.6580  148.4120 C   0  0  0  0  0  2  0  0  0  0  0  0
  162.1020  208.2670  149.0920 C   0  0  1  0  0  3  0  0  0  0  0  0
  161.4210  207.2510  151.7420 C   0  0  0  0  0  2  0  0  0  0  0  0
  162.6970  210.9790  149.1810 O   0  0  0  0  0  0  0  0  0  0  0  0
  161.1280  206.3040  150.5970 C   0  0  0  0  0  2  0  0  0  0  0  0
  161.9560  210.5440  150.1060 C   0  0  0  0  0  0  0  0  0  0  0  0
  160.9390  208.6350  151.3620 C   0  0  0  0  0  2  0  0  0  0  0  0
  162.6250  205.8810  148.5440 N   0  0  0  0  0  2  0  0  0  0  0  0
  161.8090  204.8360  147.9380 C   0  0  0  0  0  2  0  0  0  0  0  0
  162.3350  205.6840  145.6320 C   0  0  0  0  0  2  0  0  0  0  0  0
  160.9180  205.9440  145.1380 C   0  0  0  0  0  2  0  0  0  0  0  0
  162.3570  204.4660  146.5650 C   0  0  2  0  0  3  0  0  0  0  0  0
  161.5800  203.2920  146.0140 C   0  0  0  0  0  0  0  0  0  0  0  0
  160.4550  204.7520  144.3120 C   0  0  0  0  0  2  0  0  0  0  0  0
  160.6720  203.4500  145.0350 C   0  0  0  0  0  3  0  0  0  0  0  0
  161.7700  202.0100  146.6240 N   0  0  0  0  0  2  0  0  0  0  0  0
  160.8510  201.4230  147.5920 C   0  0  2  0  0  3  0  0  0  0  0  0
  159.7020  202.2090  147.7010 O   0  0  0  0  0  1  0  0  0  0  0  0
  161.5290  201.2720  148.9490 C   0  0  0  0  0  2  0  0  0  0  0  0
  160.5330  201.2080  150.1060 C   0  0  0  0  0  2  0  0  0  0  0  0
  160.2240  202.5920  150.6590 C   0  0  0  0  0  2  0  0  0  0  0  0
  160.7070  203.8360  152.6450 O   0  0  0  0  0  1  0  0  0  0  0  0
  161.2820  203.0310  151.6590 C   0  0  0  0  0  2  0  0  0  0  0  0
  159.7000  210.3080  152.5740 C   0  0  0  0  0  3  0  0  0  0  0  0
  159.3710  209.6840  153.7780 C   0  0  0  0  0  3  0  0  0  0  0  0
  161.6030  210.1270  154.6210 C   0  0  0  0  0  0  0  0  0  0  0  0
  160.3160  209.5890  154.8090 C   0  0  0  0  0  0  0  0  0  0  0  0
  160.9830  210.8400  152.3830 C   0  0  0  0  0  0  0  0  0  0  0  0
  162.8310  210.0380  155.8740 Cl  0  0  0  0  0  0  0  0  0  0  0  0
  161.9260  210.7480  153.4110 C   0  0  0  0  0  3  0  0  0  0  0  0
  160.1530  209.8160  157.2120 N   0  0  0  0  0  1  0  0  0  0  0  0
  159.9520  208.9120  156.0940 C   0  0  2  0  0  3  0  0  0  0  0  0
  160.0070  207.0000  157.0710 O   0  0  0  0  0  1  0  0  0  0  0  0
  160.7250  207.7620  156.2730 O   0  0  0  0  0  0  0  0  0  0  0  0
  160.2060  212.2950  150.5090 C   0  0  0  0  0  2  0  0  0  0  0  0
  160.0670  213.6330  151.2160 C   0  0  0  0  0  2  0  0  0  0  0  0
  158.6650  213.7930  151.7780 C   0  0  0  0  0  2  0  0  0  0  0  0
  159.3330  213.3670  154.1050 N   0  0  0  0  0  2  0  0  0  0  0  0
  155.5520  212.8800  154.7540 C   0  0  2  0  0  3  0  0  0  0  0  0
  156.6930  213.4870  156.8340 O   0  0  0  0  0  0  0  0  0  0  0  0
  158.7820  214.4520  156.7420 O   0  0  0  0  0  0  0  0  0  0  0  0
  155.7430  212.5940  156.2510 C   0  0  0  0  0  2  0  0  0  0  0  0
  157.8840  213.7740  156.1720 C   0  0  0  0  0  0  0  0  0  0  0  0
  157.3880  214.2990  153.8580 N   0  0  1  0  0  0  0  0  0  0  0  0
  158.7010  214.3260  153.2130 C   0  0  2  0  0  3  0  0  0  0  0  0
  156.8760  212.9130  153.9500 C   0  0  1  0  0  3  0  0  0  0  0  0
  158.0330  213.3220  154.7540 C   0  0  1  0  0  0  0  0  0  0  0  0
  154.8140  214.0520  154.5760 O   0  0  0  0  0  1  0  0  0  0  0  0
  1 38  1  6  0  0  0
  1 31  1  0  0  0  0
  2 10  1  0  0  0  0
  3 11  1  6  0  0  0
  3  8  1  0  0  0  0
  4  3  1  0  0  0  0
  5  4  1  6  0  0  0
  5  3  1  0  0  0  0
  5  2  1  0  0  0  0
  7  9  2  0  0  0  0
  8  6  1  0  0  0  0
  9  2  1  0  0  0  0
  9  1  1  0  0  0  0
 10  6  1  0  0  0  0
 12 11  1  0  0  0  0
 13 15  1  0  0  0  0
 14 13  1  0  0  0  0
 15 12  1  1  0  0  0
 16 15  1  0  0  0  0
 16 19  1  0  0  0  0
 17 18  1  0  0  0  0
 17 14  1  0  0  0  0
 18 16  2  0  0  0  0
 19 20  1  0  0  0  0
 20 21  1  1  0  0  0
 20 22  1  0  0  0  0
 22 23  1  0  0  0  0
 23 24  1  0  0  0  0
 24 26  1  0  0  0  0
 26 25  1  0  0  0  0
 27 28  1  0  0  0  0
 28 30  2  0  0  0  0
 29 30  1  0  0  0  0
 29 32  1  0  0  0  0
 30 35  1  0  0  0  0
 31 27  2  0  0  0  0
 31 33  1  0  0  0  0
 33 29  2  0  0  0  0
 35 37  1  0  0  0  0
 35 34  1  1  0  0  0
 37 36  1  0  0  0  0
 38 39  1  0  0  0  0
 39 40  1  0  0  0  0
 40 48  1  0  0  0  0
 41 50  1  0  0  0  0
 42 51  1  1  0  0  0
 42 45  1  0  0  0  0
 45 43  1  0  0  0  0
 46 44  2  0  0  0  0
 46 43  1  0  0  0  0
 47 49  1  0  0  0  0
 47 50  1  0  0  0  0
 48 47  1  0  0  0  0
 48 41  1  0  0  0  0
 49 50  1  0  0  0  0
 49 42  1  0  0  0  0
 50 46  1  0  0  0  0
M  END
>  <MODEL>
6

>  <REMARK>
 VINA RESULT:      -4.3      2.660      4.939
  Name = 
  17 active torsions:
  status: ('A' for Active; 'I' for Inactive)
    1  A    between atoms: C_4  and  C_25
    2  A    between atoms: C_4  and  N_33
    3  A    between atoms: C_6  and  C_11
    4  A    between atoms: C_7  and  C_27
    5  A    between atoms: C_7  and  O_45
    6  A    between atoms: C_8  and  C_41
    7  A    between atoms: C_8  and  C_42
    8  A    between atoms: C_10  and  C_12
    9  A    between atoms: C_10  and  C_30
   10  A    between atoms: C_11  and  C_30
   11  A    between atoms: C_12  and  N_37
   12  A    between atoms: C_17  and  C_38
   13  A    between atoms: C_17  and  C_41
   14  A    between atoms: C_22  and  N_33
   15  A    between atoms: C_32  and  C_42
   16  A    between atoms: C_36  and  N_37
   17  A    between atoms: C_42  and  C_44
                            x       y       z     vdW  Elec       q    Type
                         _______ _______ _______ _____ _____    ______ ____

>  <TORSDO>
F 17

$$$$
=
 OpenBabel11042421463D

 51 57  0  0  1  0  0  0  0  0999 V2000
  160.9370  212.2090  148.7220 C   0  0  2  0  0  3  0  0  0  0  0  0
  161.6050  209.9840  149.7890 N   0  0  0  0  0  0  0  0  0  0  0  0
  162.0430  207.7150  150.7910 C   0  0  1  0  0  0  0  0  0  0  0  0
  161.3610  207.5630  149.4460 C   0  0  0  0  0  2  0  0  0  0  0  0
  162.3380  208.7140  149.6730 C   0  0  1  0  0  3  0  0  0  0  0  0
  161.0750  209.6030  152.1490 C   0  0  0  0  0  2  0  0  0  0  0  0
  162.7340  210.8410  147.9290 O   0  0  0  0  0  0  0  0  0  0  0  0
  161.1330  208.1010  151.9610 C   0  0  0  0  0  2  0  0  0  0  0  0
  161.8100  210.9850  148.7790 C   0  0  0  0  0  0  0  0  0  0  0  0
  160.6230  210.2360  150.8500 C   0  0  0  0  0  2  0  0  0  0  0  0
  163.1190  206.7560  151.0220 N   0  0  0  0  0  2  0  0  0  0  0  0
  162.6020  205.6390  151.8030 C   0  0  0  0  0  2  0  0  0  0  0  0
  160.3510  204.6040  152.2270 C   0  0  0  0  0  2  0  0  0  0  0  0
  160.8020  203.2680  152.8050 C   0  0  0  0  0  2  0  0  0  0  0  0
  161.3410  205.0790  151.1540 C   0  0  2  0  0  3  0  0  0  0  0  0
  161.7190  203.9860  150.1820 C   0  0  0  0  0  0  0  0  0  0  0  0
  160.7860  202.2200  151.7000 C   0  0  0  0  0  2  0  0  0  0  0  0
  161.5200  202.6890  150.4730 C   0  0  0  0  0  3  0  0  0  0  0  0
  162.3810  204.3620  148.9680 N   0  0  0  0  0  2  0  0  0  0  0  0
  161.7860  204.2370  147.6430 C   0  0  2  0  0  3  0  0  0  0  0  0
  161.3300  202.9330  147.4420 O   0  0  0  0  0  1  0  0  0  0  0  0
  162.7940  204.6260  146.5660 C   0  0  0  0  0  2  0  0  0  0  0  0
  162.1650  205.4260  145.4270 C   0  0  0  0  0  2  0  0  0  0  0  0
  160.8030  205.9830  145.8170 C   0  0  0  0  0  2  0  0  0  0  0  0
  160.1660  204.4040  144.1350 O   0  0  0  0  0  1  0  0  0  0  0  0
  159.7240  205.5200  144.8490 C   0  0  0  0  0  2  0  0  0  0  0  0
  159.5180  212.7780  146.7060 C   0  0  0  0  0  3  0  0  0  0  0  0
  159.3950  213.2710  145.4070 C   0  0  0  0  0  3  0  0  0  0  0  0
  161.7890  213.6570  145.3240 C   0  0  0  0  0  0  0  0  0  0  0  0
  160.5260  213.7130  144.7060 C   0  0  0  0  0  0  0  0  0  0  0  0
  160.7750  212.7270  147.3250 C   0  0  0  0  0  0  0  0  0  0  0  0
  163.2430  214.1980  144.4990 Cl  0  0  0  0  0  0  0  0  0  0  0  0
  161.9040  213.1650  146.6270 C   0  0  0  0  0  3  0  0  0  0  0  0
  159.0360  214.0040  142.8230 N   0  0  0  0  0  1  0  0  0  0  0  0
  160.3800  214.2450  143.3140 C   0  0  2  0  0  3  0  0  0  0  0  0
  160.6060  213.2750  141.4120 O   0  0  0  0  0  1  0  0  0  0  0  0
  161.3090  213.6410  142.4630 O   0  0  0  0  0  0  0  0  0  0  0  0
  161.4190  213.2960  149.6700 C   0  0  0  0  0  2  0  0  0  0  0  0
  160.2320  214.0230  150.2800 C   0  0  0  0  0  2  0  0  0  0  0  0
  159.8430  213.3870  151.6020 C   0  0  0  0  0  2  0  0  0  0  0  0
  157.6930  214.4390  152.1620 N   0  0  0  0  0  2  0  0  0  0  0  0
  157.8150  212.2310  155.3350 C   0  0  2  0  0  3  0  0  0  0  0  0
  155.5010  212.8520  154.8280 O   0  0  0  0  0  0  0  0  0  0  0  0
  154.9660  213.6130  152.7210 O   0  0  0  0  0  0  0  0  0  0  0  0
  156.4720  212.7510  155.8700 C   0  0  0  0  0  2  0  0  0  0  0  0
  155.8490  213.3970  153.5950 C   0  0  0  0  0  0  0  0  0  0  0  0
  157.9290  212.3960  152.8550 N   0  0  1  0  0  0  0  0  0  0  0  0
  158.3250  213.2110  151.7080 C   0  0  2  0  0  3  0  0  0  0  0  0
  158.3560  213.0300  154.1230 C   0  0  1  0  0  3  0  0  0  0  0  0
  157.2970  213.6450  153.3140 C   0  0  1  0  0  0  0  0  0  0  0  0
  157.7270  210.8660  155.0510 O   0  0  0  0  0  1  0  0  0  0  0  0
  1  9  1  0  0  0  0
  1 38  1  1  0  0  0
  2 10  1  0  0  0  0
  3 11  1  1  0  0  0
  3  8  1  0  0  0  0
  4  3  1  0  0  0  0
  5  4  1  6  0  0  0
  5  2  1  0  0  0  0
  5  3  1  0  0  0  0
  7  9  2  0  0  0  0
  8  6  1  0  0  0  0
  9  2  1  0  0  0  0
 10  6  1  0  0  0  0
 11 12  1  0  0  0  0
 13 14  1  0  0  0  0
 15 12  1  1  0  0  0
 15 13  1  0  0  0  0
 16 18  2  0  0  0  0
 16 15  1  0  0  0  0
 17 14  1  0  0  0  0
 18 17  1  0  0  0  0
 19 16  1  0  0  0  0
 20 21  1  6  0  0  0
 20 19  1  0  0  0  0
 22 20  1  0  0  0  0
 23 24  1  0  0  0  0
 23 22  1  0  0  0  0
 25 26  1  0  0  0  0
 26 24  1  0  0  0  0
 27 31  1  0  0  0  0
 28 27  2  0  0  0  0
 29 33  1  0  0  0  0
 30 29  2  0  0  0  0
 30 28  1  0  0  0  0
 31  1  1  0  0  0  0
 32 29  1  0  0  0  0
 33 31  2  0  0  0  0
 35 34  1  6  0  0  0
 35 30  1  0  0  0  0
 36 37  1  0  0  0  0
 37 35  1  0  0  0  0
 38 39  1  0  0  0  0
 39 40  1  0  0  0  0
 40 48  1  0  0  0  0
 41 50  1  0  0  0  0
 42 51  1  6  0  0  0
 42 45  1  0  0  0  0
 43 45  1  0  0  0  0
 44 46  2  0  0  0  0
 46 43  1  0  0  0  0
 47 50  1  0  0  0  0
 47 49  1  0  0  0  0
 48 41  1  0  0  0  0
 48 47  1  0  0  0  0
 49 42  1  0  0  0  0
 50 46  1  0  0  0  0
 50 49  1  0  0  0  0
M  END
>  <MODEL>
7

>  <REMARK>
 VINA RESULT:      -3.9      2.851      7.526
  Name = 
  17 active torsions:
  status: ('A' for Active; 'I' for Inactive)
    1  A    between atoms: C_4  and  C_25
    2  A    between atoms: C_4  and  N_33
    3  A    between atoms: C_6  and  C_11
    4  A    between atoms: C_7  and  C_27
    5  A    between atoms: C_7  and  O_45
    6  A    between atoms: C_8  and  C_41
    7  A    between atoms: C_8  and  C_42
    8  A    between atoms: C_10  and  C_12
    9  A    between atoms: C_10  and  C_30
   10  A    between atoms: C_11  and  C_30
   11  A    between atoms: C_12  and  N_37
   12  A    between atoms: C_17  and  C_38
   13  A    between atoms: C_17  and  C_41
   14  A    between atoms: C_22  and  N_33
   15  A    between atoms: C_32  and  C_42
   16  A    between atoms: C_36  and  N_37
   17  A    between atoms: C_42  and  C_44
                            x       y       z     vdW  Elec       q    Type
                         _______ _______ _______ _____ _____    ______ ____

>  <TORSDO>
F 17

$$$$
