=
 OpenBabel11042420153D

 25 28  0  0  1  0  0  0  0  0999 V2000
  162.3850  206.7370  150.5280 C   0  0  0  0  0  2  0  0  0  0  0  0
  159.9640  206.5340  149.9950 C   0  0  0  0  0  1  0  0  0  0  0  0
  162.5190  206.2610  151.9770 C   0  0  0  0  0  2  0  0  0  0  0  0
  160.8810  202.1720  150.9440 N   0  0  0  0  0  0  0  0  0  0  0  0
  161.3140  205.8380  149.9220 C   0  0  2  0  0  0  0  0  0  0  0  0
  161.3230  204.6630  150.8470 C   0  0  2  0  0  3  0  0  0  0  0  0
  161.5990  205.4290  148.4730 C   0  0  0  0  0  0  0  0  0  0  0  0
  162.0030  206.4310  147.5380 N   0  0  0  0  0  2  0  0  0  0  0  0
  160.9660  203.1810  148.9710 C   0  0  0  0  0  0  0  0  0  0  0  0
  162.0130  204.8630  151.9510 C   0  0  0  0  0  2  0  0  0  0  0  0
  160.9660  203.3570  150.3140 C   0  0  1  0  0  3  0  0  0  0  0  0
  161.3730  204.2050  148.0550 N   0  0  0  0  0  0  0  0  0  0  0  0
  160.7990  201.2320  150.0040 N   0  0  0  0  0  0  0  0  0  0  0  0
  160.8650  201.8230  148.7870 C   0  0  0  0  0  0  0  0  0  0  0  0
  160.6660  200.6190  145.3790 N   0  0  0  0  0  0  0  0  0  0  0  0
  160.9090  201.0960  147.5130 C   0  0  0  0  0  0  0  0  0  0  0  0
  161.6560  198.3320  145.4150 C   0  0  0  0  0  1  0  0  0  0  0  0
  161.2420  199.6080  146.0580 C   0  0  0  0  0  0  0  0  0  0  0  0
  160.4510  201.5730  146.3050 C   0  0  0  0  0  2  0  0  0  0  0  0
  161.4120  199.8560  147.3700 N   0  0  0  0  0  0  0  0  0  0  0  0
  162.2280  206.1190  146.1910 N   0  0  0  0  0  2  0  0  0  0  0  0
  160.9380  206.1750  145.5280 C   0  0  0  0  0  2  0  0  0  0  0  0
  160.4480  204.1350  144.4020 O   0  0  0  0  0  0  0  0  0  0  0  0
  160.9500  205.2880  144.3350 C   0  0  0  0  0  0  0  0  0  0  0  0
  161.5650  205.7240  143.1290 N   0  0  0  0  0  1  0  0  0  0  0  0
  1  3  1  0  0  0  0
  5  2  1  1  0  0  0
  5  1  1  0  0  0  0
  5  6  1  0  0  0  0
  6 10  1  6  0  0  0
  7  5  1  0  0  0  0
  8  7  1  0  0  0  0
 10  3  1  0  0  0  0
 11  9  1  6  0  0  0
 11  6  1  0  0  0  0
 11  4  1  0  0  0  0
 12  7  2  0  0  0  0
 12  9  1  0  0  0  0
 13  4  2  0  0  0  0
 14  9  2  0  0  0  0
 14 13  1  0  0  0  0
 15 18  2  0  0  0  0
 15 19  1  0  0  0  0
 16 14  1  0  0  0  0
 17 18  1  0  0  0  0
 18 20  1  0  0  0  0
 19 16  1  0  0  0  0
 20 16  2  0  0  0  0
 21  8  1  0  0  0  0
 22 21  1  0  0  0  0
 24 23  2  0  0  0  0
 24 22  1  0  0  0  0
 25 24  1  0  0  0  0
M  END
>  <MODEL>
1

>  <REMARK>
 VINA RESULT:      -7.8      0.000      0.000
  Name = 
  4 active torsions:
  status: ('A' for Active; 'I' for Inactive)
    1  A    between atoms: C_3  and  C_23
    2  A    between atoms: N_8  and  N_13
    3  A    between atoms: N_8  and  C_16
    4  A    between atoms: C_16  and  C_19
                            x       y       z     vdW  Elec       q    Type
                         _______ _______ _______ _____ _____    ______ ____

>  <TORSDO>
F 4

$$$$
=
 OpenBabel11042420153D

 25 28  0  0  1  0  0  0  0  0999 V2000
  160.8280  206.6760  153.0780 C   0  0  0  0  0  2  0  0  0  0  0  0
  163.0700  205.8140  152.4320 C   0  0  0  0  0  1  0  0  0  0  0  0
  160.9670  208.2010  153.0730 C   0  0  0  0  0  2  0  0  0  0  0  0
  162.0990  208.2310  148.6920 N   0  0  0  0  0  0  0  0  0  0  0  0
  161.6930  206.2030  151.9160 C   0  0  2  0  0  0  0  0  0  0  0  0
  161.8030  207.4360  151.0780 C   0  0  2  0  0  3  0  0  0  0  0  0
  161.0910  205.0300  151.1360 C   0  0  0  0  0  0  0  0  0  0  0  0
  160.5650  203.9150  151.8590 N   0  0  0  0  0  2  0  0  0  0  0  0
  161.6710  206.0880  149.0750 C   0  0  0  0  0  0  0  0  0  0  0  0
  161.3690  208.5260  151.6780 C   0  0  0  0  0  2  0  0  0  0  0  0
  161.9610  207.2860  149.6390 C   0  0  1  0  0  3  0  0  0  0  0  0
  161.1480  204.9850  149.8250 N   0  0  0  0  0  0  0  0  0  0  0  0
  161.9280  207.6350  147.5140 N   0  0  0  0  0  0  0  0  0  0  0  0
  161.6480  206.3250  147.7220 C   0  0  0  0  0  0  0  0  0  0  0  0
  160.7070  204.5620  144.7040 N   0  0  0  0  0  0  0  0  0  0  0  0
  161.2970  205.3730  146.6620 C   0  0  0  0  0  0  0  0  0  0  0  0
  160.7330  202.1430  145.3040 C   0  0  0  0  0  1  0  0  0  0  0  0
  160.9030  203.5870  145.6140 C   0  0  0  0  0  0  0  0  0  0  0  0
  160.9580  205.7060  145.3690 C   0  0  0  0  0  2  0  0  0  0  0  0
  161.2660  204.0380  146.8290 N   0  0  0  0  0  0  0  0  0  0  0  0
  160.0470  202.7970  151.1920 N   0  0  0  0  0  2  0  0  0  0  0  0
  161.1750  202.1110  150.5890 C   0  0  0  0  0  2  0  0  0  0  0  0
  159.5980  201.6820  148.8570 O   0  0  0  0  0  0  0  0  0  0  0  0
  160.7450  201.4560  149.3260 C   0  0  0  0  0  0  0  0  0  0  0  0
  161.6120  200.5400  148.6680 N   0  0  0  0  0  1  0  0  0  0  0  0
  3  1  1  0  0  0  0
  5  2  1  1  0  0  0
  5  1  1  0  0  0  0
  6 10  1  6  0  0  0
  6  5  1  0  0  0  0
  7  8  1  0  0  0  0
  7  5  1  0  0  0  0
  9 11  1  0  0  0  0
  9 12  1  0  0  0  0
 10  3  1  0  0  0  0
 11  4  1  6  0  0  0
 11  6  1  0  0  0  0
 12  7  2  0  0  0  0
 13 14  1  0  0  0  0
 13  4  2  0  0  0  0
 14  9  2  0  0  0  0
 15 19  1  0  0  0  0
 15 18  2  0  0  0  0
 16 20  2  0  0  0  0
 16 14  1  0  0  0  0
 17 18  1  0  0  0  0
 18 20  1  0  0  0  0
 19 16  1  0  0  0  0
 21  8  1  0  0  0  0
 22 21  1  0  0  0  0
 23 24  2  0  0  0  0
 24 22  1  0  0  0  0
 25 24  1  0  0  0  0
M  END
>  <MODEL>
2

>  <REMARK>
 VINA RESULT:      -7.4      1.998      4.673
  Name = 
  4 active torsions:
  status: ('A' for Active; 'I' for Inactive)
    1  A    between atoms: C_3  and  C_23
    2  A    between atoms: N_8  and  N_13
    3  A    between atoms: N_8  and  C_16
    4  A    between atoms: C_16  and  C_19
                            x       y       z     vdW  Elec       q    Type
                         _______ _______ _______ _____ _____    ______ ____

>  <TORSDO>
F 4

$$$$
=
 OpenBabel11042420153D

 25 28  0  0  1  0  0  0  0  0999 V2000
  160.5430  204.0310  144.8570 C   0  0  0  0  0  2  0  0  0  0  0  0
  162.9080  203.9480  145.6220 C   0  0  0  0  0  1  0  0  0  0  0  0
  160.1510  202.5720  144.6030 C   0  0  0  0  0  2  0  0  0  0  0  0
  160.9790  201.4460  148.9070 N   0  0  0  0  0  0  0  0  0  0  0  0
  161.4570  203.9810  146.0750 C   0  0  2  0  0  0  0  0  0  0  0  0
  161.0950  202.6680  146.6920 C   0  0  2  0  0  3  0  0  0  0  0  0
  161.2530  205.1470  147.0470 C   0  0  0  0  0  0  0  0  0  0  0  0
  161.1780  206.4770  146.5280 N   0  0  0  0  0  2  0  0  0  0  0  0
  161.3310  203.6360  148.8950 C   0  0  0  0  0  0  0  0  0  0  0  0
  160.3460  201.9080  145.9190 C   0  0  0  0  0  2  0  0  0  0  0  0
  161.2210  202.5200  148.1340 C   0  0  0  0  0  0  0  0  0  0  0  0
  161.2560  204.9580  148.3470 N   0  0  0  0  0  0  0  0  0  0  0  0
  160.9620  201.8660  150.1700 N   0  0  0  0  0  2  0  0  0  0  0  0
  161.1580  203.2060  150.1890 C   0  0  0  0  0  0  0  0  0  0  0  0
  160.8940  204.6340  153.5040 N   0  0  0  0  0  0  0  0  0  0  0  0
  161.1010  204.0370  151.3970 C   0  0  0  0  0  0  0  0  0  0  0  0
  161.2510  207.0840  153.2110 C   0  0  0  0  0  1  0  0  0  0  0  0
  161.1380  205.6900  152.7030 C   0  0  0  0  0  0  0  0  0  0  0  0
  160.8700  203.5740  152.6740 C   0  0  0  0  0  2  0  0  0  0  0  0
  161.2730  205.3710  151.4030 N   0  0  0  0  0  0  0  0  0  0  0  0
  161.0410  207.5820  147.3780 N   0  0  0  0  0  2  0  0  0  0  0  0
  162.3340  207.7890  148.0050 C   0  0  0  0  0  2  0  0  0  0  0  0
  162.2750  208.5480  150.2610 O   0  0  0  0  0  0  0  0  0  0  0  0
  162.2230  208.8500  149.0400 C   0  0  0  0  0  0  0  0  0  0  0  0
  162.0180  210.2040  148.6530 N   0  0  0  0  0  1  0  0  0  0  0  0
  1  5  1  0  0  0  0
  3  1  1  0  0  0  0
  3 10  1  0  0  0  0
  4 13  1  0  0  0  0
  5  2  1  6  0  0  0
  5  6  1  0  0  0  0
  5  7  1  0  0  0  0
  6 10  1  1  0  0  0
  6 11  1  0  0  0  0
  7 12  2  0  0  0  0
  8  7  1  0  0  0  0
  8 21  1  0  0  0  0
  9 14  2  0  0  0  0
 11  9  1  0  0  0  0
 11  4  2  0  0  0  0
 12  9  1  0  0  0  0
 13 14  1  0  0  0  0
 14 16  1  0  0  0  0
 16 20  2  0  0  0  0
 16 19  1  0  0  0  0
 18 17  1  0  0  0  0
 18 15  2  0  0  0  0
 19 15  1  0  0  0  0
 20 18  1  0  0  0  0
 21 22  1  0  0  0  0
 22 24  1  0  0  0  0
 24 23  2  0  0  0  0
 25 24  1  0  0  0  0
M  END
>  <MODEL>
3

>  <REMARK>
 VINA RESULT:      -7.2      2.468      5.776
  Name = 
  4 active torsions:
  status: ('A' for Active; 'I' for Inactive)
    1  A    between atoms: C_3  and  C_23
    2  A    between atoms: N_8  and  N_13
    3  A    between atoms: N_8  and  C_16
    4  A    between atoms: C_16  and  C_19
                            x       y       z     vdW  Elec       q    Type
                         _______ _______ _______ _____ _____    ______ ____

>  <TORSDO>
F 4

$$$$
=
 OpenBabel11042420153D

 25 28  0  0  1  0  0  0  0  0999 V2000
  161.8610  210.7130  153.9360 C   0  0  0  0  0  2  0  0  0  0  0  0
  159.5250  210.3430  153.1670 C   0  0  0  0  0  1  0  0  0  0  0  0
  161.9500  210.0200  155.2990 C   0  0  0  0  0  2  0  0  0  0  0  0
  160.8940  206.0080  153.4920 N   0  0  0  0  0  0  0  0  0  0  0  0
  160.9510  209.8180  153.1040 C   0  0  2  0  0  0  0  0  0  0  0  0
  161.0370  208.5130  153.8290 C   0  0  2  0  0  3  0  0  0  0  0  0
  161.3830  209.6910  151.6400 C   0  0  0  0  0  0  0  0  0  0  0  0
  161.7270  210.8720  150.9140 N   0  0  0  0  0  2  0  0  0  0  0  0
  160.9940  207.3360  151.7180 C   0  0  0  0  0  0  0  0  0  0  0  0
  161.6190  208.5990  155.0070 C   0  0  0  0  0  2  0  0  0  0  0  0
  160.8780  207.2840  153.0670 C   0  0  1  0  0  3  0  0  0  0  0  0
  161.3370  208.5370  151.0150 N   0  0  0  0  0  0  0  0  0  0  0  0
  160.9920  205.2350  152.4120 N   0  0  0  0  0  0  0  0  0  0  0  0
  161.0710  206.0240  151.3140 C   0  0  0  0  0  0  0  0  0  0  0  0
  161.4530  204.1660  148.2310 N   0  0  0  0  0  0  0  0  0  0  0  0
  161.2910  205.5300  149.9500 C   0  0  0  0  0  0  0  0  0  0  0  0
  162.0800  205.8510  146.5040 C   0  0  0  0  0  1  0  0  0  0  0  0
  161.7210  205.4420  147.8880 C   0  0  0  0  0  0  0  0  0  0  0  0
  161.1770  204.2170  149.5480 C   0  0  0  0  0  2  0  0  0  0  0  0
  161.6330  206.3130  148.9100 N   0  0  0  0  0  0  0  0  0  0  0  0
  162.0820  210.8160  149.5600 N   0  0  0  0  0  2  0  0  0  0  0  0
  161.6320  212.0570  148.9580 C   0  0  0  0  0  2  0  0  0  0  0  0
  163.7530  212.2880  147.9000 O   0  0  0  0  0  0  0  0  0  0  0  0
  162.5020  212.3980  147.8020 C   0  0  0  0  0  0  0  0  0  0  0  0
  161.9260  212.8870  146.5970 N   0  0  0  0  0  1  0  0  0  0  0  0
  1  3  1  0  0  0  0
  5  2  1  1  0  0  0
  5  6  1  0  0  0  0
  5  1  1  0  0  0  0
  6 10  1  6  0  0  0
  7  5  1  0  0  0  0
  8  7  1  0  0  0  0
 10  3  1  0  0  0  0
 11  9  1  6  0  0  0
 11  4  1  0  0  0  0
 11  6  1  0  0  0  0
 12  7  2  0  0  0  0
 12  9  1  0  0  0  0
 13  4  2  0  0  0  0
 14  9  2  0  0  0  0
 14 13  1  0  0  0  0
 15 19  1  0  0  0  0
 16 14  1  0  0  0  0
 17 18  1  0  0  0  0
 18 15  2  0  0  0  0
 18 20  1  0  0  0  0
 19 16  1  0  0  0  0
 20 16  2  0  0  0  0
 21  8  1  0  0  0  0
 22 21  1  0  0  0  0
 24 23  2  0  0  0  0
 24 22  1  0  0  0  0
 25 24  1  0  0  0  0
M  END
>  <MODEL>
4

>  <REMARK>
 VINA RESULT:      -6.9      4.251      5.853
  Name = 
  4 active torsions:
  status: ('A' for Active; 'I' for Inactive)
    1  A    between atoms: C_3  and  C_23
    2  A    between atoms: N_8  and  N_13
    3  A    between atoms: N_8  and  C_16
    4  A    between atoms: C_16  and  C_19
                            x       y       z     vdW  Elec       q    Type
                         _______ _______ _______ _____ _____    ______ ____

>  <TORSDO>
F 4

$$$$
=
 OpenBabel11042420153D

 25 28  0  0  1  0  0  0  0  0999 V2000
  161.4270  200.6070  148.7320 C   0  0  0  0  0  2  0  0  0  0  0  0
  159.1680  201.6040  149.0280 C   0  0  0  0  0  1  0  0  0  0  0  0
  161.5420  200.3100  147.2340 C   0  0  0  0  0  2  0  0  0  0  0  0
  160.9630  204.6710  146.1730 N   0  0  0  0  0  0  0  0  0  0  0  0
  160.6410  201.9110  148.8090 C   0  0  2  0  0  0  0  0  0  0  0  0
  160.8370  202.4830  147.4420 C   0  0  2  0  0  3  0  0  0  0  0  0
  161.1320  202.8620  149.9060 C   0  0  0  0  0  0  0  0  0  0  0  0
  161.3770  202.3430  151.2140 N   0  0  0  0  0  2  0  0  0  0  0  0
  160.9840  204.7020  148.3910 C   0  0  0  0  0  0  0  0  0  0  0  0
  161.3680  201.6370  146.5840 C   0  0  0  0  0  2  0  0  0  0  0  0
  160.8300  203.9300  147.2880 C   0  0  1  0  0  3  0  0  0  0  0  0
  161.2250  204.1540  149.6930 N   0  0  0  0  0  0  0  0  0  0  0  0
  161.1740  205.9270  146.5580 N   0  0  0  0  0  0  0  0  0  0  0  0
  161.2080  205.9710  147.9120 C   0  0  0  0  0  0  0  0  0  0  0  0
  162.3320  209.1370  149.2590 N   0  0  0  0  0  0  0  0  0  0  0  0
  161.5210  207.1710  148.6970 C   0  0  0  0  0  0  0  0  0  0  0  0
  161.4250  209.2400  151.5780 C   0  0  0  0  0  1  0  0  0  0  0  0
  161.6220  208.5800  150.2600 C   0  0  0  0  0  0  0  0  0  0  0  0
  162.2710  208.2390  148.2570 C   0  0  0  0  0  2  0  0  0  0  0  0
  161.1050  207.3740  149.9600 N   0  0  0  0  0  0  0  0  0  0  0  0
  161.7800  203.1790  152.2640 N   0  0  0  0  0  2  0  0  0  0  0  0
  160.7710  204.2150  152.3820 C   0  0  0  0  0  2  0  0  0  0  0  0
  162.5090  205.8430  152.4300 O   0  0  0  0  0  0  0  0  0  0  0  0
  161.3970  205.4670  152.8840 C   0  0  0  0  0  0  0  0  0  0  0  0
  160.7590  206.2200  153.9090 N   0  0  0  0  0  1  0  0  0  0  0  0
  1  5  1  0  0  0  0
  3  1  1  0  0  0  0
  4 13  2  0  0  0  0
  5  2  1  1  0  0  0
  5  7  1  0  0  0  0
  6 10  1  1  0  0  0
  6  5  1  0  0  0  0
  7  8  1  0  0  0  0
  8 21  1  0  0  0  0
  9 12  1  0  0  0  0
 10  3  1  0  0  0  0
 11  4  1  6  0  0  0
 11  6  1  0  0  0  0
 11  9  1  0  0  0  0
 12  7  2  0  0  0  0
 13 14  1  0  0  0  0
 14  9  2  0  0  0  0
 14 16  1  0  0  0  0
 15 18  2  0  0  0  0
 16 20  2  0  0  0  0
 18 17  1  0  0  0  0
 19 16  1  0  0  0  0
 19 15  1  0  0  0  0
 20 18  1  0  0  0  0
 21 22  1  0  0  0  0
 22 24  1  0  0  0  0
 23 24  2  0  0  0  0
 24 25  1  0  0  0  0
M  END
>  <MODEL>
5

>  <REMARK>
 VINA RESULT:      -6.7      2.673      6.909
  Name = 
  4 active torsions:
  status: ('A' for Active; 'I' for Inactive)
    1  A    between atoms: C_3  and  C_23
    2  A    between atoms: N_8  and  N_13
    3  A    between atoms: N_8  and  C_16
    4  A    between atoms: C_16  and  C_19
                            x       y       z     vdW  Elec       q    Type
                         _______ _______ _______ _____ _____    ______ ____

>  <TORSDO>
F 4

$$$$
=
 OpenBabel11042420153D

 25 28  0  0  1  0  0  0  0  0999 V2000
  160.9150  211.3560  155.8360 C   0  0  0  0  0  2  0  0  0  0  0  0
  158.7400  210.3080  155.2410 C   0  0  0  0  0  1  0  0  0  0  0  0
  161.5230  210.4430  156.9050 C   0  0  0  0  0  2  0  0  0  0  0  0
  161.5420  206.9050  154.0830 N   0  0  0  0  0  0  0  0  0  0  0  0
  160.2110  210.4090  154.8720 C   0  0  2  0  0  0  0  0  0  0  0  0
  160.8890  209.1070  155.1510 C   0  0  2  0  0  3  0  0  0  0  0  0
  160.3390  210.8200  153.4010 C   0  0  0  0  0  0  0  0  0  0  0  0
  160.0980  212.1810  153.0380 N   0  0  0  0  0  2  0  0  0  0  0  0
  160.8040  208.5560  152.7980 C   0  0  0  0  0  0  0  0  0  0  0  0
  161.6430  209.1220  156.2310 C   0  0  0  0  0  2  0  0  0  0  0  0
  161.0010  208.1370  154.0720 C   0  0  1  0  0  3  0  0  0  0  0  0
  160.5590  209.9280  152.4630 N   0  0  0  0  0  0  0  0  0  0  0  0
  161.6650  206.5190  152.8150 N   0  0  0  0  0  0  0  0  0  0  0  0
  161.2360  207.5180  152.0080 C   0  0  0  0  0  0  0  0  0  0  0  0
  161.8170  208.0600  148.4760 N   0  0  0  0  0  0  0  0  0  0  0  0
  161.3160  207.4950  150.5430 C   0  0  0  0  0  0  0  0  0  0  0  0
  160.6780  206.1730  147.3110 C   0  0  0  0  0  1  0  0  0  0  0  0
  161.0850  206.9300  148.5260 C   0  0  0  0  0  0  0  0  0  0  0  0
  161.9680  208.4250  149.7640 C   0  0  0  0  0  2  0  0  0  0  0  0
  160.7550  206.5450  149.7730 N   0  0  0  0  0  0  0  0  0  0  0  0
  160.1550  212.5970  151.7010 N   0  0  0  0  0  2  0  0  0  0  0  0
  159.4240  213.8490  151.6230 C   0  0  0  0  0  2  0  0  0  0  0  0
  157.6210  213.1350  150.2410 O   0  0  0  0  0  0  0  0  0  0  0  0
  157.9860  213.5730  151.3630 C   0  0  0  0  0  0  0  0  0  0  0  0
  157.0170  213.8420  152.3690 N   0  0  0  0  0  1  0  0  0  0  0  0
  1  3  1  0  0  0  0
  5  6  1  0  0  0  0
  5  2  1  1  0  0  0
  5  1  1  0  0  0  0
  6 10  1  6  0  0  0
  7  5  1  0  0  0  0
  8  7  1  0  0  0  0
 10  3  1  0  0  0  0
 11  9  1  6  0  0  0
 11  4  1  0  0  0  0
 11  6  1  0  0  0  0
 12  9  1  0  0  0  0
 12  7  2  0  0  0  0
 13  4  2  0  0  0  0
 14  9  2  0  0  0  0
 14 13  1  0  0  0  0
 15 18  2  0  0  0  0
 15 19  1  0  0  0  0
 16 14  1  0  0  0  0
 17 18  1  0  0  0  0
 18 20  1  0  0  0  0
 19 16  1  0  0  0  0
 20 16  2  0  0  0  0
 21  8  1  0  0  0  0
 22 21  1  0  0  0  0
 23 24  2  0  0  0  0
 24 22  1  0  0  0  0
 24 25  1  0  0  0  0
M  END
>  <MODEL>
6

>  <REMARK>
 VINA RESULT:      -6.6      5.779      7.945
  Name = 
  4 active torsions:
  status: ('A' for Active; 'I' for Inactive)
    1  A    between atoms: C_3  and  C_23
    2  A    between atoms: N_8  and  N_13
    3  A    between atoms: N_8  and  C_16
    4  A    between atoms: C_16  and  C_19
                            x       y       z     vdW  Elec       q    Type
                         _______ _______ _______ _____ _____    ______ ____

>  <TORSDO>
F 4

$$$$
=
 OpenBabel11042420153D

 25 28  0  0  1  0  0  0  0  0999 V2000
  161.2070  207.2590  147.9700 C   0  0  0  0  0  2  0  0  0  0  0  0
  163.4560  207.2760  149.0300 C   0  0  0  0  0  1  0  0  0  0  0  0
  160.6700  205.8410  148.1870 C   0  0  0  0  0  2  0  0  0  0  0  0
  160.9230  206.2730  152.6840 N   0  0  0  0  0  0  0  0  0  0  0  0
  161.9810  207.5790  149.2430 C   0  0  2  0  0  0  0  0  0  0  0  0
  161.4050  206.6070  150.2210 C   0  0  2  0  0  3  0  0  0  0  0  0
  161.8220  209.0290  149.7130 C   0  0  0  0  0  0  0  0  0  0  0  0
  161.9590  210.0850  148.7600 N   0  0  0  0  0  2  0  0  0  0  0  0
  161.5330  208.2790  151.9620 C   0  0  0  0  0  0  0  0  0  0  0  0
  160.6520  205.6800  149.6660 C   0  0  0  0  0  2  0  0  0  0  0  0
  161.3680  206.9770  151.6280 C   0  0  0  0  0  0  0  0  0  0  0  0
  161.6720  209.3190  150.9850 N   0  0  0  0  0  0  0  0  0  0  0  0
  160.8300  207.1180  153.7090 N   0  0  0  0  0  2  0  0  0  0  0  0
  161.1820  208.3570  153.2880 C   0  0  0  0  0  0  0  0  0  0  0  0
  161.5730  211.0780  155.6430 N   0  0  0  0  0  0  0  0  0  0  0  0
  161.1040  209.5670  154.1150 C   0  0  0  0  0  0  0  0  0  0  0  0
  159.7050  212.6570  155.1610 C   0  0  0  0  0  1  0  0  0  0  0  0
  160.4810  211.4100  154.9260 C   0  0  0  0  0  0  0  0  0  0  0  0
  161.9750  209.9000  155.1280 C   0  0  0  0  0  2  0  0  0  0  0  0
  160.1560  210.5130  153.9770 N   0  0  0  0  0  0  0  0  0  0  0  0
  161.8700  211.4290  149.1480 N   0  0  0  0  0  2  0  0  0  0  0  0
  162.6220  212.1950  148.1710 C   0  0  0  0  0  2  0  0  0  0  0  0
  162.1370  213.0790  146.0130 O   0  0  0  0  0  0  0  0  0  0  0  0
  161.6960  212.7390  147.1420 C   0  0  0  0  0  0  0  0  0  0  0  0
  160.3180  212.9150  147.4480 N   0  0  0  0  0  1  0  0  0  0  0  0
  1  3  1  0  0  0  0
  1  5  1  0  0  0  0
  3 10  1  0  0  0  0
  4 13  1  0  0  0  0
  5  2  1  6  0  0  0
  5  7  1  0  0  0  0
  5  6  1  0  0  0  0
  6 10  1  6  0  0  0
  6 11  1  0  0  0  0
  7 12  2  0  0  0  0
  8 21  1  0  0  0  0
  8  7  1  0  0  0  0
  9 14  2  0  0  0  0
 11  9  1  0  0  0  0
 11  4  2  0  0  0  0
 12  9  1  0  0  0  0
 14 13  1  0  0  0  0
 14 16  1  0  0  0  0
 16 19  1  0  0  0  0
 18 17  1  0  0  0  0
 18 15  2  0  0  0  0
 19 15  1  0  0  0  0
 20 16  2  0  0  0  0
 20 18  1  0  0  0  0
 22 21  1  0  0  0  0
 23 24  2  0  0  0  0
 24 25  1  0  0  0  0
 24 22  1  0  0  0  0
M  END
>  <MODEL>
7

>  <REMARK>
 VINA RESULT:      -6.5      5.093      8.409
  Name = 
  4 active torsions:
  status: ('A' for Active; 'I' for Inactive)
    1  A    between atoms: C_3  and  C_23
    2  A    between atoms: N_8  and  N_13
    3  A    between atoms: N_8  and  C_16
    4  A    between atoms: C_16  and  C_19
                            x       y       z     vdW  Elec       q    Type
                         _______ _______ _______ _____ _____    ______ ____

>  <TORSDO>
F 4

$$$$
=
 OpenBabel11042420153D

 25 28  0  0  1  0  0  0  0  0999 V2000
  161.3900  202.5160  150.9660 C   0  0  0  0  0  2  0  0  0  0  0  0
  159.1790  203.6530  150.9790 C   0  0  0  0  0  1  0  0  0  0  0  0
  161.4610  201.7890  149.6190 C   0  0  0  0  0  2  0  0  0  0  0  0
  161.0280  205.6720  147.3350 N   0  0  0  0  0  0  0  0  0  0  0  0
  160.6570  203.8180  150.6660 C   0  0  2  0  0  0  0  0  0  0  0  0
  160.8450  203.9570  149.1900 C   0  0  2  0  0  3  0  0  0  0  0  0
  161.2090  205.0250  151.4320 C   0  0  0  0  0  0  0  0  0  0  0  0
  161.4620  204.9010  152.8330 N   0  0  0  0  0  2  0  0  0  0  0  0
  161.0990  206.3480  149.4460 C   0  0  0  0  0  0  0  0  0  0  0  0
  161.3240  202.8750  148.6120 C   0  0  0  0  0  2  0  0  0  0  0  0
  160.8910  205.2950  148.6190 C   0  0  1  0  0  3  0  0  0  0  0  0
  161.3470  206.1940  150.8500 N   0  0  0  0  0  0  0  0  0  0  0  0
  161.2960  206.9760  147.3340 N   0  0  0  0  0  0  0  0  0  0  0  0
  161.3610  207.4110  148.6160 C   0  0  0  0  0  0  0  0  0  0  0  0
  162.2740  210.5050  150.2570 N   0  0  0  0  0  0  0  0  0  0  0  0
  161.7380  208.7730  149.0120 C   0  0  0  0  0  0  0  0  0  0  0  0
  162.5680  212.1740  148.4290 C   0  0  0  0  0  1  0  0  0  0  0  0
  162.2570  210.8140  148.9460 C   0  0  0  0  0  0  0  0  0  0  0  0
  161.9430  209.2000  150.3050 C   0  0  0  0  0  2  0  0  0  0  0  0
  161.9340  209.7820  148.1440 N   0  0  0  0  0  0  0  0  0  0  0  0
  161.9200  205.9880  153.5880 N   0  0  0  0  0  2  0  0  0  0  0  0
  160.7620  206.5470  154.2600 C   0  0  0  0  0  2  0  0  0  0  0  0
  160.7640  208.8290  153.5800 O   0  0  0  0  0  0  0  0  0  0  0  0
  160.9750  207.9980  154.5020 C   0  0  0  0  0  0  0  0  0  0  0  0
  161.4580  208.4460  155.7630 N   0  0  0  0  0  1  0  0  0  0  0  0
  3  1  1  0  0  0  0
  5  1  1  0  0  0  0
  5  2  1  1  0  0  0
  5  7  1  0  0  0  0
  6 10  1  1  0  0  0
  6  5  1  0  0  0  0
  7  8  1  0  0  0  0
  8 21  1  0  0  0  0
  9 12  1  0  0  0  0
 10  3  1  0  0  0  0
 11  4  1  6  0  0  0
 11  6  1  0  0  0  0
 11  9  1  0  0  0  0
 12  7  2  0  0  0  0
 13  4  2  0  0  0  0
 13 14  1  0  0  0  0
 14 16  1  0  0  0  0
 14  9  2  0  0  0  0
 15 19  1  0  0  0  0
 16 19  1  0  0  0  0
 17 18  1  0  0  0  0
 18 15  2  0  0  0  0
 20 18  1  0  0  0  0
 20 16  2  0  0  0  0
 21 22  1  0  0  0  0
 22 24  1  0  0  0  0
 23 24  2  0  0  0  0
 24 25  1  0  0  0  0
M  END
>  <MODEL>
8

>  <REMARK>
 VINA RESULT:      -6.2      3.754      7.639
  Name = 
  4 active torsions:
  status: ('A' for Active; 'I' for Inactive)
    1  A    between atoms: C_3  and  C_23
    2  A    between atoms: N_8  and  N_13
    3  A    between atoms: N_8  and  C_16
    4  A    between atoms: C_16  and  C_19
                            x       y       z     vdW  Elec       q    Type
                         _______ _______ _______ _____ _____    ______ ____

>  <TORSDO>
F 4

$$$$
=
 OpenBabel11042420153D

 25 28  0  0  1  0  0  0  0  0999 V2000
  161.0010  205.3700  151.5310 C   0  0  0  0  0  2  0  0  0  0  0  0
  163.3930  205.9950  151.2630 C   0  0  0  0  0  1  0  0  0  0  0  0
  160.6810  205.6240  153.0070 C   0  0  0  0  0  2  0  0  0  0  0  0
  161.7280  210.0110  152.6300 N   0  0  0  0  0  0  0  0  0  0  0  0
  161.9600  206.4890  151.1430 C   0  0  2  0  0  0  0  0  0  0  0  0
  161.6940  207.5170  152.1960 C   0  0  2  0  0  3  0  0  0  0  0  0
  161.7280  207.0390  149.7320 C   0  0  0  0  0  0  0  0  0  0  0  0
  161.5610  206.1210  148.6500 N   0  0  0  0  0  2  0  0  0  0  0  0
  161.9570  209.2700  150.5520 C   0  0  0  0  0  0  0  0  0  0  0  0
  160.9610  207.0730  153.1960 C   0  0  0  0  0  2  0  0  0  0  0  0
  161.8810  208.9200  151.8590 C   0  0  1  0  0  3  0  0  0  0  0  0
  161.7890  208.3270  149.4860 N   0  0  0  0  0  0  0  0  0  0  0  0
  161.7340  211.0680  151.8220 N   0  0  0  0  0  0  0  0  0  0  0  0
  161.8560  210.6410  150.5420 C   0  0  0  0  0  0  0  0  0  0  0  0
  162.3030  212.4510  147.4390 N   0  0  0  0  0  0  0  0  0  0  0  0
  161.7970  211.5160  149.3650 C   0  0  0  0  0  0  0  0  0  0  0  0
  160.4150  214.0740  147.3300 C   0  0  0  0  0  1  0  0  0  0  0  0
  161.1900  212.9840  147.9800 C   0  0  0  0  0  0  0  0  0  0  0  0
  162.6950  211.5110  148.3210 C   0  0  0  0  0  2  0  0  0  0  0  0
  160.8410  212.4410  149.1610 N   0  0  0  0  0  0  0  0  0  0  0  0
  161.3940  206.5730  147.3340 N   0  0  0  0  0  2  0  0  0  0  0  0
  162.3340  205.8290  146.5150 C   0  0  0  0  0  2  0  0  0  0  0  0
  161.5710  203.5960  146.1980 O   0  0  0  0  0  0  0  0  0  0  0  0
  161.6110  204.7740  145.7560 C   0  0  0  0  0  0  0  0  0  0  0  0
  161.0000  205.0860  144.5100 N   0  0  0  0  0  1  0  0  0  0  0  0
  1  3  1  0  0  0  0
  3 10  1  0  0  0  0
  5  2  1  1  0  0  0
  5  1  1  0  0  0  0
  5  6  1  0  0  0  0
  6 10  1  6  0  0  0
  7  5  1  0  0  0  0
  8  7  1  0  0  0  0
 11  9  1  6  0  0  0
 11  6  1  0  0  0  0
 11  4  1  0  0  0  0
 12  7  2  0  0  0  0
 12  9  1  0  0  0  0
 13  4  2  0  0  0  0
 14  9  2  0  0  0  0
 14 13  1  0  0  0  0
 15 18  2  0  0  0  0
 15 19  1  0  0  0  0
 16 14  1  0  0  0  0
 17 18  1  0  0  0  0
 18 20  1  0  0  0  0
 19 16  1  0  0  0  0
 20 16  2  0  0  0  0
 21  8  1  0  0  0  0
 22 21  1  0  0  0  0
 24 23  2  0  0  0  0
 24 22  1  0  0  0  0
 25 24  1  0  0  0  0
M  END
>  <MODEL>
9

>  <REMARK>
 VINA RESULT:      -6.2      3.921      7.406
  Name = 
  4 active torsions:
  status: ('A' for Active; 'I' for Inactive)
    1  A    between atoms: C_3  and  C_23
    2  A    between atoms: N_8  and  N_13
    3  A    between atoms: N_8  and  C_16
    4  A    between atoms: C_16  and  C_19
                            x       y       z     vdW  Elec       q    Type
                         _______ _______ _______ _____ _____    ______ ____

>  <TORSDO>
F 4

$$$$
