=
 OpenBabel11052410183D

 57 64  0  0  1  0  0  0  0  0999 V2000
  160.2150  210.8870  153.9110 C   0  0  0  0  0  0  0  0  0  0  0  0
  161.0480  212.6690  148.9370 C   0  0  0  0  0  0  0  0  0  0  0  0
  159.9750  210.1770  155.9700 C   0  0  0  0  0  0  0  0  0  0  0  0
  161.1380  209.4850  155.3960 C   0  0  0  0  0  3  0  0  0  0  0  0
  158.7760  212.5420  152.9220 C   0  0  0  0  0  0  0  0  0  0  0  0
  161.5190  211.2680  150.8240 C   0  0  0  0  0  0  0  0  0  0  0  0
  158.4030  211.8140  155.1770 N   0  0  0  0  0  0  0  0  0  0  0  0
  159.9600  213.2590  149.6020 C   0  0  0  0  0  3  0  0  0  0  0  0
  161.2870  209.9190  154.1380 C   0  0  0  0  0  3  0  0  0  0  0  0
  158.0140  212.6020  154.1220 C   0  0  0  0  0  0  0  0  0  0  0  0
  158.6220  213.2630  151.8040 C   0  0  0  0  0  3  0  0  0  0  0  0
  161.7920  211.6960  149.5550 N   0  0  0  0  0  0  0  0  0  0  0  0
  159.4760  210.9830  155.0580 C   0  0  0  0  0  0  0  0  0  0  0  0
  159.4860  210.0160  157.2600 O   0  0  0  0  0  1  0  0  0  0  0  0
  159.8660  211.6760  152.8210 C   0  0  0  0  0  0  0  0  0  0  0  0
  160.4500  211.8580  151.5020 C   0  0  0  0  0  0  0  0  0  0  0  0
  159.6870  212.8270  150.8960 C   0  0  0  0  0  0  0  0  0  0  0  0
  160.5830  212.8190  146.5860 N   0  0  0  0  0  0  0  0  0  0  0  0
  161.3680  213.0970  147.5740 C   0  0  0  0  0  3  0  0  0  0  0  0
  162.0790  213.3710  142.6240 C   0  0  0  0  0  0  0  0  0  0  0  0
  160.7850  212.1420  140.4550 C   0  0  0  0  0  3  0  0  0  0  0  0
  164.1260  214.1200  143.6050 O   0  0  0  0  0  1  0  0  0  0  0  0
  160.3530  211.8900  141.7600 C   0  0  0  0  0  3  0  0  0  0  0  0
  160.5090  212.1790  144.2320 C   0  0  0  0  0  2  0  0  0  0  0  0
  160.9780  212.5120  142.8450 C   0  0  0  0  0  0  0  0  0  0  0  0
  160.9060  213.2580  145.2390 C   0  0  2  0  0  3  0  0  0  0  0  0
  161.8510  213.0160  140.2300 C   0  0  0  0  0  3  0  0  0  0  0  0
  162.4010  213.5120  145.1310 C   0  0  0  0  0  2  0  0  0  0  0  0
  162.4900  213.6330  141.3090 C   0  0  0  0  0  3  0  0  0  0  0  0
  162.7400  214.1100  143.7670 C   0  0  2  0  0  3  0  0  0  0  0  0
  155.9460  214.0070  153.0270 S   0  0  0  0  0  0  0  0  0  0  0  0
  156.8310  213.4750  154.3010 C   0  0  0  0  0  0  0  0  0  0  0  0
  156.3290  213.7050  155.6150 N   0  0  0  0  0  0  0  0  0  0  0  0
  156.4530  214.2310  157.0070 C   0  0  0  0  0  2  0  0  0  0  0  0
  155.2730  213.6030  156.6650 C   0  0  0  0  0  2  0  0  0  0  0  0
  162.2830  210.2240  151.4220 N   0  0  0  0  0  2  0  0  0  0  0  0
  162.6310  209.0000  150.7180 C   0  0  0  0  0  2  0  0  0  0  0  0
  161.3660  208.3080  150.2420 C   0  0  0  0  0  2  0  0  0  0  0  0
  161.7240  207.1850  149.2820 C   0  0  0  0  0  2  0  0  0  0  0  0
  161.7960  207.6980  147.8550 C   0  0  0  0  0  2  0  0  0  0  0  0
  159.9300  206.2090  146.3170 O   0  0  0  0  0  0  0  0  0  0  0  0
  161.1480  205.8860  146.2300 C   0  0  0  0  0  0  0  0  0  0  0  0
  162.1430  206.6120  146.9510 N   0  0  0  0  0  2  0  0  0  0  0  0
  161.5690  204.7640  145.3200 C   0  0  1  0  0  3  0  0  0  0  0  0
  161.9130  203.6100  147.5320 C   0  0  0  0  0  2  0  0  0  0  0  0
  160.5300  202.5940  145.8140 N   0  0  0  0  0  2  0  0  0  0  0  0
  161.0650  201.5000  147.9640 C   0  0  1  0  0  3  0  0  0  0  0  0
  160.7130  201.3070  146.4790 C   0  0  0  0  0  2  0  0  0  0  0  0
  162.1560  202.3770  148.1750 O   0  0  0  0  0  0  0  0  0  0  0  0
  161.7250  203.4060  146.0270 C   0  0  1  0  0  3  0  0  0  0  0  0
  159.8740  201.7580  148.8970 C   0  0  0  0  0  2  0  0  0  0  0  0
  160.8490  202.8520  150.9590 C   0  0  0  0  0  0  0  0  0  0  0  0
  160.9880  204.0660  151.8080 C   0  0  0  0  0  1  0  0  0  0  0  0
  160.0860  202.9170  149.7540 N   0  0  0  0  0  2  0  0  0  0  0  0
  161.4060  201.7780  151.3120 O   0  0  0  0  0  0  0  0  0  0  0  0
  161.3140  205.6590  143.2180 C   0  0  0  0  0  1  0  0  0  0  0  0
  160.8110  204.7140  144.1260 O   0  0  0  0  0  0  0  0  0  0  0  0
  1  9  1  0  0  0  0
  1 13  1  0  0  0  0
  2 12  1  0  0  0  0
  2  8  2  0  0  0  0
  3 14  1  0  0  0  0
  4  3  1  0  0  0  0
  5 10  1  0  0  0  0
  6 36  1  0  0  0  0
  6 16  1  0  0  0  0
  8 17  1  0  0  0  0
  9  4  2  0  0  0  0
 10 32  1  0  0  0  0
 10  7  2  0  0  0  0
 11  5  2  0  0  0  0
 12  6  2  0  0  0  0
 13  7  1  0  0  0  0
 13  3  2  0  0  0  0
 15  5  1  0  0  0  0
 15  1  2  0  0  0  0
 16 15  1  0  0  0  0
 17 16  2  0  0  0  0
 17 11  1  0  0  0  0
 18 19  2  0  0  0  0
 19  2  1  0  0  0  0
 20 25  1  0  0  0  0
 20 30  1  0  0  0  0
 21 23  1  0  0  0  0
 23 25  2  0  0  0  0
 24 26  1  0  0  0  0
 25 24  1  0  0  0  0
 26 18  1  1  0  0  0
 27 21  2  0  0  0  0
 27 29  1  0  0  0  0
 28 26  1  0  0  0  0
 29 20  2  0  0  0  0
 30 22  1  6  0  0  0
 30 28  1  0  0  0  0
 31 32  2  0  0  0  0
 32 33  1  0  0  0  0
 33 35  1  0  0  0  0
 33 34  1  0  0  0  0
 35 34  1  0  0  0  0
 37 36  1  0  0  0  0
 38 37  1  0  0  0  0
 39 38  1  0  0  0  0
 40 39  1  0  0  0  0
 42 41  2  0  0  0  0
 42 43  1  0  0  0  0
 43 40  1  0  0  0  0
 44 57  1  6  0  0  0
 44 42  1  0  0  0  0
 45 49  1  0  0  0  0
 46 50  1  0  0  0  0
 46 48  1  0  0  0  0
 47 49  1  0  0  0  0
 47 51  1  1  0  0  0
 48 47  1  0  0  0  0
 50 44  1  6  0  0  0
 50 45  1  0  0  0  0
 51 54  1  0  0  0  0
 52 55  2  0  0  0  0
 52 53  1  0  0  0  0
 54 52  1  0  0  0  0
 56 57  1  0  0  0  0
M  END
>  <MODEL>
1

>  <REMARK>
 VINA RESULT:      -6.9      0.000      0.000
  Name = 
  15 active torsions:
  status: ('A' for Active; 'I' for Inactive)
    1  A    between atoms: C_7  and  C_46
    2  A    between atoms: C_11  and  C_24
    3  A    between atoms: N_13  and  C_50
    4  A    between atoms: C_15  and  C_28
    5  A    between atoms: C_15  and  N_47
    6  A    between atoms: C_16  and  N_21
    7  A    between atoms: C_17  and  C_27
    8  A    between atoms: C_17  and  C_28
    9  A    between atoms: C_22  and  N_36
   10  A    between atoms: C_22  and  C_43
   11  A    between atoms: C_24  and  O_34
   12  A    between atoms: C_24  and  C_57
   13  A    between atoms: C_26  and  N_47
   14  A    between atoms: C_27  and  N_38
   15  A    between atoms: C_33  and  C_50
                            x       y       z     vdW  Elec       q    Type
                         _______ _______ _______ _____ _____    ______ ____

>  <TORSDO>
F 15

$$$$
=
 OpenBabel11052410183D

 57 64  0  0  1  0  0  0  0  0999 V2000
  159.9340  211.9430  152.5850 C   0  0  0  0  0  0  0  0  0  0  0  0
  160.6210  213.1310  147.4150 C   0  0  0  0  0  0  0  0  0  0  0  0
  159.7480  211.4930  154.7220 C   0  0  0  0  0  0  0  0  0  0  0  0
  161.0070  210.8980  154.2510 C   0  0  0  0  0  3  0  0  0  0  0  0
  158.3030  213.2320  151.3740 C   0  0  0  0  0  0  0  0  0  0  0  0
  161.2390  212.0780  149.4780 C   0  0  0  0  0  0  0  0  0  0  0  0
  157.9840  212.7720  153.7070 N   0  0  0  0  0  0  0  0  0  0  0  0
  159.4480  213.6480  147.9900 C   0  0  0  0  0  3  0  0  0  0  0  0
  161.1230  211.1730  152.9460 C   0  0  0  0  0  3  0  0  0  0  0  0
  157.5140  213.3480  152.5530 C   0  0  0  0  0  0  0  0  0  0  0  0
  158.0750  213.7660  150.1670 C   0  0  0  0  0  3  0  0  0  0  0  0
  161.4780  212.3630  148.1630 N   0  0  0  0  0  0  0  0  0  0  0  0
  159.1640  212.0900  153.7060 C   0  0  0  0  0  0  0  0  0  0  0  0
  159.2580  211.4430  156.0200 O   0  0  0  0  0  1  0  0  0  0  0  0
  159.5020  212.5200  151.3960 C   0  0  0  0  0  0  0  0  0  0  0  0
  160.0850  212.6010  150.0660 C   0  0  0  0  0  0  0  0  0  0  0  0
  159.2090  213.3620  149.3300 C   0  0  0  0  0  0  0  0  0  0  0  0
  160.0500  213.1320  145.0830 N   0  0  0  0  0  0  0  0  0  0  0  0
  160.9090  213.4090  146.0080 C   0  0  0  0  0  3  0  0  0  0  0  0
  160.5620  213.1480  140.8430 C   0  0  0  0  0  0  0  0  0  0  0  0
  158.4820  214.0490  139.1850 C   0  0  0  0  0  3  0  0  0  0  0  0
  162.4040  211.6580  141.1580 O   0  0  0  0  0  1  0  0  0  0  0  0
  158.2850  213.9580  140.5660 C   0  0  0  0  0  3  0  0  0  0  0  0
  159.0500  213.4030  142.8730 C   0  0  0  0  0  2  0  0  0  0  0  0
  159.3200  213.5280  141.4010 C   0  0  0  0  0  0  0  0  0  0  0  0
  160.3420  213.4220  143.6900 C   0  0  2  0  0  3  0  0  0  0  0  0
  159.7190  213.7060  138.6330 C   0  0  0  0  0  3  0  0  0  0  0  0
  161.2930  212.3710  143.1400 C   0  0  0  0  0  2  0  0  0  0  0  0
  160.7560  213.2640  139.4590 C   0  0  0  0  0  3  0  0  0  0  0  0
  161.7250  212.7380  141.7210 C   0  0  2  0  0  3  0  0  0  0  0  0
  155.3820  214.4460  151.2480 S   0  0  0  0  0  0  0  0  0  0  0  0
  156.2180  214.0640  152.6070 C   0  0  0  0  0  0  0  0  0  0  0  0
  155.5830  214.2580  153.8680 N   0  0  0  0  0  0  0  0  0  0  0  0
  154.3780  214.4530  154.7270 C   0  0  0  0  0  2  0  0  0  0  0  0
  155.6090  214.4250  155.3500 C   0  0  0  0  0  2  0  0  0  0  0  0
  162.1260  211.2410  150.2170 N   0  0  0  0  0  2  0  0  0  0  0  0
  161.9810  209.7960  150.2720 C   0  0  0  0  0  2  0  0  0  0  0  0
  162.4510  209.1850  148.9640 C   0  0  0  0  0  2  0  0  0  0  0  0
  161.2890  208.4860  148.2760 C   0  0  0  0  0  2  0  0  0  0  0  0
  161.7910  207.4210  147.3190 C   0  0  0  0  0  2  0  0  0  0  0  0
  159.7980  206.0260  148.7840 O   0  0  0  0  0  0  0  0  0  0  0  0
  160.9630  205.5390  148.7740 C   0  0  0  0  0  0  0  0  0  0  0  0
  162.0060  206.1700  148.0310 N   0  0  0  0  0  2  0  0  0  0  0  0
  161.2520  204.2530  149.5010 C   0  0  1  0  0  3  0  0  0  0  0  0
  162.1600  205.9050  151.1710 C   0  0  0  0  0  2  0  0  0  0  0  0
  160.7100  204.0950  151.8920 N   0  0  0  0  0  2  0  0  0  0  0  0
  161.7830  205.6900  153.4450 C   0  0  1  0  0  3  0  0  0  0  0  0
  161.2270  204.2700  153.2460 C   0  0  0  0  0  2  0  0  0  0  0  0
  162.7220  206.0710  152.4550 O   0  0  0  0  0  0  0  0  0  0  0  0
  161.7610  204.4460  150.9390 C   0  0  1  0  0  3  0  0  0  0  0  0
  160.7390  206.7700  153.7560 C   0  0  0  0  0  2  0  0  0  0  0  0
  160.1080  207.6470  156.0440 C   0  0  0  0  0  0  0  0  0  0  0  0
  160.4760  208.4420  157.2460 C   0  0  0  0  0  1  0  0  0  0  0  0
  161.0480  207.5000  154.9790 N   0  0  0  0  0  2  0  0  0  0  0  0
  158.9700  207.1110  155.9760 O   0  0  0  0  0  0  0  0  0  0  0  0
  160.7080  202.1360  148.7890 C   0  0  0  0  0  1  0  0  0  0  0  0
  160.2060  203.3080  149.3770 O   0  0  0  0  0  0  0  0  0  0  0  0
  1  9  1  0  0  0  0
  1 13  1  0  0  0  0
  2  8  2  0  0  0  0
  2 12  1  0  0  0  0
  3 14  1  0  0  0  0
  4  3  1  0  0  0  0
  5 15  1  0  0  0  0
  5 10  1  0  0  0  0
  6 16  1  0  0  0  0
  6 36  1  0  0  0  0
  8 17  1  0  0  0  0
  9  4  2  0  0  0  0
 10 32  1  0  0  0  0
 10  7  2  0  0  0  0
 11  5  2  0  0  0  0
 12  6  2  0  0  0  0
 13  7  1  0  0  0  0
 13  3  2  0  0  0  0
 15  1  2  0  0  0  0
 16 15  1  0  0  0  0
 17 16  2  0  0  0  0
 17 11  1  0  0  0  0
 18 19  2  0  0  0  0
 19  2  1  0  0  0  0
 20 25  1  0  0  0  0
 20 30  1  0  0  0  0
 21 23  1  0  0  0  0
 23 25  2  0  0  0  0
 24 26  1  0  0  0  0
 25 24  1  0  0  0  0
 26 18  1  1  0  0  0
 27 21  2  0  0  0  0
 27 29  1  0  0  0  0
 28 26  1  0  0  0  0
 29 20  2  0  0  0  0
 30 22  1  6  0  0  0
 30 28  1  0  0  0  0
 31 32  2  0  0  0  0
 32 33  1  0  0  0  0
 33 34  1  0  0  0  0
 33 35  1  0  0  0  0
 34 35  1  0  0  0  0
 36 37  1  0  0  0  0
 38 37  1  0  0  0  0
 39 38  1  0  0  0  0
 40 43  1  0  0  0  0
 40 39  1  0  0  0  0
 42 41  2  0  0  0  0
 43 42  1  0  0  0  0
 44 42  1  1  0  0  0
 45 49  1  0  0  0  0
 46 48  1  0  0  0  0
 47 51  1  6  0  0  0
 48 47  1  0  0  0  0
 49 47  1  0  0  0  0
 50 44  1  6  0  0  0
 50 45  1  0  0  0  0
 50 46  1  0  0  0  0
 51 54  1  0  0  0  0
 52 53  1  0  0  0  0
 54 52  1  0  0  0  0
 55 52  2  0  0  0  0
 56 57  1  0  0  0  0
 57 44  1  0  0  0  0
M  END
>  <MODEL>
2

>  <REMARK>
 VINA RESULT:      -5.4      1.997      3.630
  Name = 
  15 active torsions:
  status: ('A' for Active; 'I' for Inactive)
    1  A    between atoms: C_7  and  C_46
    2  A    between atoms: C_11  and  C_24
    3  A    between atoms: N_13  and  C_50
    4  A    between atoms: C_15  and  C_28
    5  A    between atoms: C_15  and  N_47
    6  A    between atoms: C_16  and  N_21
    7  A    between atoms: C_17  and  C_27
    8  A    between atoms: C_17  and  C_28
    9  A    between atoms: C_22  and  N_36
   10  A    between atoms: C_22  and  C_43
   11  A    between atoms: C_24  and  O_34
   12  A    between atoms: C_24  and  C_57
   13  A    between atoms: C_26  and  N_47
   14  A    between atoms: C_27  and  N_38
   15  A    between atoms: C_33  and  C_50
                            x       y       z     vdW  Elec       q    Type
                         _______ _______ _______ _____ _____    ______ ____

>  <TORSDO>
F 15

$$$$
=
 OpenBabel11052410183D

 57 64  0  0  1  0  0  0  0  0999 V2000
  160.3020  211.3500  152.2360 C   0  0  0  0  0  0  0  0  0  0  0  0
  161.4190  206.4190  150.4900 C   0  0  0  0  0  0  0  0  0  0  0  0
  159.7690  213.3760  152.8790 C   0  0  0  0  0  0  0  0  0  0  0  0
  159.9770  213.4130  151.4240 C   0  0  0  0  0  3  0  0  0  0  0  0
  160.4380  209.4890  153.7560 C   0  0  0  0  0  0  0  0  0  0  0  0
  161.0960  208.7770  150.2060 C   0  0  0  0  0  0  0  0  0  0  0  0
  159.8750  211.6740  154.5730 N   0  0  0  0  0  0  0  0  0  0  0  0
  161.1930  206.5190  151.8730 C   0  0  0  0  0  3  0  0  0  0  0  0
  160.3010  212.1750  151.0300 C   0  0  0  0  0  3  0  0  0  0  0  0
  160.1140  210.3490  154.8430 C   0  0  0  0  0  0  0  0  0  0  0  0
  160.6410  208.1660  153.7770 C   0  0  0  0  0  3  0  0  0  0  0  0
  161.3690  207.5380  149.6980 N   0  0  0  0  0  0  0  0  0  0  0  0
  159.9720  212.1460  153.2990 C   0  0  0  0  0  0  0  0  0  0  0  0
  159.4100  214.4530  153.6780 O   0  0  0  0  0  1  0  0  0  0  0  0
  160.5400  209.9990  152.4610 C   0  0  0  0  0  0  0  0  0  0  0  0
  160.8530  208.8880  151.5760 C   0  0  0  0  0  0  0  0  0  0  0  0
  160.9090  207.7800  152.3880 C   0  0  0  0  0  0  0  0  0  0  0  0
  161.1740  204.7290  148.8020 N   0  0  0  0  0  0  0  0  0  0  0  0
  161.7200  205.1100  149.9090 C   0  0  0  0  0  3  0  0  0  0  0  0
  161.2300  200.7170  147.3390 C   0  0  0  0  0  0  0  0  0  0  0  0
  160.4500  200.1800  144.6940 C   0  0  0  0  0  3  0  0  0  0  0  0
  161.3180  199.9920  149.6140 O   0  0  0  0  0  1  0  0  0  0  0  0
  160.3470  201.4780  145.2030 C   0  0  0  0  0  3  0  0  0  0  0  0
  160.5810  203.1570  147.0310 C   0  0  0  0  0  2  0  0  0  0  0  0
  160.7500  201.7580  146.5120 C   0  0  0  0  0  0  0  0  0  0  0  0
  161.4890  203.4310  148.2290 C   0  0  2  0  0  3  0  0  0  0  0  0
  160.9550  199.1540  145.4970 C   0  0  0  0  0  3  0  0  0  0  0  0
  161.2720  202.3480  149.2740 C   0  0  0  0  0  2  0  0  0  0  0  0
  161.3490  199.4230  146.8110 C   0  0  0  0  0  3  0  0  0  0  0  0
  161.7340  200.9940  148.7380 C   0  0  2  0  0  3  0  0  0  0  0  0
  158.7360  210.2950  157.2000 S   0  0  0  0  0  0  0  0  0  0  0  0
  160.0110  209.8930  156.2490 C   0  0  0  0  0  0  0  0  0  0  0  0
  160.9360  208.9240  156.7340 N   0  0  0  0  0  0  0  0  0  0  0  0
  161.2820  207.5700  157.2600 C   0  0  0  0  0  2  0  0  0  0  0  0
  162.3090  208.4790  157.1140 C   0  0  0  0  0  2  0  0  0  0  0  0
  161.0950  209.9270  149.3630 N   0  0  0  0  0  2  0  0  0  0  0  0
  162.0520  210.1130  148.2840 C   0  0  0  0  0  2  0  0  0  0  0  0
  163.0800  211.1550  148.6870 C   0  0  0  0  0  2  0  0  0  0  0  0
  162.8970  212.4100  147.8480 C   0  0  0  0  0  2  0  0  0  0  0  0
  161.4330  212.6300  147.5180 C   0  0  0  0  0  2  0  0  0  0  0  0
  158.9570  213.1240  146.2180 O   0  0  0  0  0  0  0  0  0  0  0  0
  160.0120  213.2770  145.5410 C   0  0  0  0  0  0  0  0  0  0  0  0
  161.2920  213.0770  146.1400 N   0  0  0  0  0  2  0  0  0  0  0  0
  159.9330  213.7260  144.1070 C   0  0  1  0  0  3  0  0  0  0  0  0
  161.1280  212.0680  142.6360 C   0  0  0  0  0  2  0  0  0  0  0  0
  161.3520  214.4530  142.2390 N   0  0  0  0  0  2  0  0  0  0  0  0
  162.5850  212.7330  140.9640 C   0  0  1  0  0  3  0  0  0  0  0  0
  162.5760  214.1770  141.4930 C   0  0  0  0  0  2  0  0  0  0  0  0
  162.3330  211.7640  141.9660 O   0  0  0  0  0  0  0  0  0  0  0  0
  161.2060  213.4490  143.2900 C   0  0  1  0  0  3  0  0  0  0  0  0
  161.7990  212.4990  139.6670 C   0  0  0  0  0  2  0  0  0  0  0  0
  161.5810  210.8210  137.7860 C   0  0  0  0  0  0  0  0  0  0  0  0
  161.9780  209.5150  137.1960 C   0  0  0  0  0  1  0  0  0  0  0  0
  162.1720  211.2510  139.0130 N   0  0  0  0  0  2  0  0  0  0  0  0
  160.7260  211.5360  137.1980 O   0  0  0  0  0  0  0  0  0  0  0  0
  158.1460  214.4250  142.8400 C   0  0  0  0  0  1  0  0  0  0  0  0
  158.7350  213.3180  143.4720 O   0  0  0  0  0  0  0  0  0  0  0  0
  1 15  1  0  0  0  0
  1 13  1  0  0  0  0
  2  8  2  0  0  0  0
  3 13  1  0  0  0  0
  3 14  1  0  0  0  0
  4  3  2  0  0  0  0
  5 11  1  0  0  0  0
  5 10  2  0  0  0  0
  6 16  1  0  0  0  0
  7 10  1  0  0  0  0
  8 17  1  0  0  0  0
  9  4  1  0  0  0  0
  9  1  2  0  0  0  0
 10 32  1  0  0  0  0
 12  6  2  0  0  0  0
 12  2  1  0  0  0  0
 13  7  2  0  0  0  0
 15  5  1  0  0  0  0
 16 17  1  0  0  0  0
 16 15  2  0  0  0  0
 17 11  2  0  0  0  0
 18 19  2  0  0  0  0
 19  2  1  0  0  0  0
 20 30  1  0  0  0  0
 21 23  2  0  0  0  0
 21 27  1  0  0  0  0
 23 25  1  0  0  0  0
 24 26  1  0  0  0  0
 25 24  1  0  0  0  0
 25 20  2  0  0  0  0
 26 18  1  1  0  0  0
 26 28  1  0  0  0  0
 27 29  2  0  0  0  0
 29 20  1  0  0  0  0
 30 28  1  0  0  0  0
 30 22  1  1  0  0  0
 32 33  1  0  0  0  0
 32 31  2  0  0  0  0
 33 35  1  0  0  0  0
 33 34  1  0  0  0  0
 35 34  1  0  0  0  0
 36  6  1  0  0  0  0
 37 38  1  0  0  0  0
 37 36  1  0  0  0  0
 39 38  1  0  0  0  0
 40 39  1  0  0  0  0
 42 43  1  0  0  0  0
 42 41  2  0  0  0  0
 43 40  1  0  0  0  0
 44 57  1  6  0  0  0
 44 42  1  0  0  0  0
 45 50  1  0  0  0  0
 46 50  1  0  0  0  0
 47 51  1  6  0  0  0
 47 48  1  0  0  0  0
 47 49  1  0  0  0  0
 48 46  1  0  0  0  0
 49 45  1  0  0  0  0
 50 44  1  6  0  0  0
 52 54  1  0  0  0  0
 53 52  1  0  0  0  0
 54 51  1  0  0  0  0
 55 52  2  0  0  0  0
 56 57  1  0  0  0  0
M  END
>  <MODEL>
3

>  <REMARK>
 VINA RESULT:      -4.7      2.864      9.419
  Name = 
  15 active torsions:
  status: ('A' for Active; 'I' for Inactive)
    1  A    between atoms: C_7  and  C_46
    2  A    between atoms: C_11  and  C_24
    3  A    between atoms: N_13  and  C_50
    4  A    between atoms: C_15  and  C_28
    5  A    between atoms: C_15  and  N_47
    6  A    between atoms: C_16  and  N_21
    7  A    between atoms: C_17  and  C_27
    8  A    between atoms: C_17  and  C_28
    9  A    between atoms: C_22  and  N_36
   10  A    between atoms: C_22  and  C_43
   11  A    between atoms: C_24  and  O_34
   12  A    between atoms: C_24  and  C_57
   13  A    between atoms: C_26  and  N_47
   14  A    between atoms: C_27  and  N_38
   15  A    between atoms: C_33  and  C_50
                            x       y       z     vdW  Elec       q    Type
                         _______ _______ _______ _____ _____    ______ ____

>  <TORSDO>
F 15

$$$$
