=
 OpenBabel11042422433D

 38 43  0  0  1  0  0  0  0  0999 V2000
  161.2260  206.5200  153.9290 C   0  0  0  0  0  3  0  0  0  0  0  0
  161.6940  211.6240  150.0120 C   0  0  1  0  0  3  0  0  0  0  0  0
  161.6360  207.9580  150.5140 C   0  0  0  0  0  0  0  0  0  0  0  0
  161.7040  209.2620  149.9900 C   0  0  0  0  0  0  0  0  0  0  0  0
  161.6000  210.3570  150.7950 C   0  0  0  0  0  0  0  0  0  0  0  0
  161.9490  211.0920  148.5800 C   0  0  0  0  0  3  0  0  0  0  0  0
  161.3880  209.0110  152.7140 C   0  0  0  0  0  0  0  0  0  0  0  0
  161.2320  208.8900  154.0950 C   0  0  0  0  0  3  0  0  0  0  0  0
  161.4590  210.2440  152.1410 N   0  0  0  0  0  0  0  0  0  0  0  0
  161.3840  206.5870  152.5430 C   0  0  0  0  0  3  0  0  0  0  0  0
  161.4670  207.8380  151.9150 C   0  0  0  0  0  0  0  0  0  0  0  0
  161.8980  209.6320  148.6420 N   0  0  0  0  0  0  0  0  0  0  0  0
  161.1540  207.6590  154.6680 N   0  0  0  0  0  0  0  0  0  0  0  0
  159.1300  214.3220  148.9280 C   0  0  0  0  0  3  0  0  0  0  0  0
  158.0460  214.0190  151.1760 C   0  0  2  0  0  3  0  0  0  0  0  0
  156.7430  214.0990  151.6650 O   0  0  0  0  0  1  0  0  0  0  0  0
  159.9680  212.6240  151.3660 O   0  0  0  0  0  0  0  0  0  0  0  0
  158.0550  214.4090  149.7260 C   0  0  0  0  0  3  0  0  0  0  0  0
  158.5680  212.6020  151.3580 C   0  0  0  0  0  2  0  0  0  0  0  0
  160.3780  212.4260  150.0360 C   0  0  1  0  0  3  0  0  0  0  0  0
  160.4830  213.8170  149.3610 C   0  0  1  0  0  3  0  0  0  0  0  0
  162.6790  214.2730  148.2720 C   0  0  0  0  0  3  0  0  0  0  0  0
  161.4050  213.8450  148.2290 N   0  0  0  0  0  0  0  0  0  0  0  0
  161.1210  213.4530  147.0000 N   0  0  0  0  0  0  0  0  0  0  0  0
  163.2500  214.1600  147.0550 N   0  0  0  0  0  0  0  0  0  0  0  0
  162.3940  213.3360  144.8570 C   0  0  0  0  0  1  0  0  0  0  0  0
  162.2530  213.6500  146.3020 C   0  0  0  0  0  0  0  0  0  0  0  0
  161.7250  206.7440  149.6700 C   0  0  0  0  0  3  0  0  0  0  0  0
  160.6730  206.0480  149.2510 C   0  0  0  0  0  3  0  0  0  0  0  0
  160.8620  204.8290  148.4160 C   0  0  1  0  0  3  0  0  0  0  0  0
  162.0520  204.9220  147.6920 O   0  0  0  0  0  1  0  0  0  0  0  0
  161.0550  203.6930  150.4810 O   0  0  0  0  0  0  0  0  0  0  0  0
  160.8770  203.6010  149.2750 C   0  0  0  0  0  0  0  0  0  0  0  0
  160.7160  202.2500  148.6470 C   0  0  0  0  0  0  0  0  0  0  0  0
  161.2040  201.0390  149.4110 C   0  0  0  0  0  2  0  0  0  0  0  0
  159.7090  201.3280  149.2980 C   0  0  0  0  0  2  0  0  0  0  0  0
  160.7570  202.1400  147.1960 N   0  0  0  0  0  2  0  0  0  0  0  0
  161.2090  200.8970  146.8970 O   0  0  0  0  0  1  0  0  0  0  0  0
  1 13  1  0  0  0  0
  2  6  1  6  0  0  0
  2 20  1  0  0  0  0
  2  5  1  0  0  0  0
  3 11  1  0  0  0  0
  4  3  2  0  0  0  0
  4  5  1  0  0  0  0
  5  9  2  0  0  0  0
  6 12  2  0  0  0  0
  7  8  1  0  0  0  0
  8 13  2  0  0  0  0
  9  7  1  0  0  0  0
 10  1  2  0  0  0  0
 11 10  1  0  0  0  0
 11  7  2  0  0  0  0
 12  4  1  0  0  0  0
 14 21  1  0  0  0  0
 14 18  2  0  0  0  0
 15 19  1  0  0  0  0
 15 16  1  6  0  0  0
 18 15  1  0  0  0  0
 19 17  1  0  0  0  0
 20 17  1  1  0  0  0
 21 23  1  6  0  0  0
 21 20  1  0  0  0  0
 23 22  1  0  0  0  0
 24 23  1  0  0  0  0
 25 22  2  0  0  0  0
 26 27  1  0  0  0  0
 27 24  2  0  0  0  0
 27 25  1  0  0  0  0
 28  3  1  0  0  0  0
 29 28  2  0  0  0  0
 30 31  1  1  0  0  0
 30 29  1  0  0  0  0
 30 33  1  0  0  0  0
 33 32  2  0  0  0  0
 34 33  1  0  0  0  0
 34 36  1  0  0  0  0
 34 35  1  0  0  0  0
 36 35  1  0  0  0  0
 37 34  1  0  0  0  0
 38 37  1  0  0  0  0
M  END
>  <MODEL>
1

>  <REMARK>
 VINA RESULT:      -8.2      0.000      0.000
  Name = 
  7 active torsions:
  status: ('A' for Active; 'I' for Inactive)
    1  A    between atoms: N_5  and  C_37
    2  A    between atoms: C_6  and  N_12
    3  A    between atoms: C_6  and  C_15
    4  A    between atoms: C_7  and  C_16
    5  A    between atoms: C_10  and  C_36
    6  A    between atoms: C_13  and  C_15
    7  A    between atoms: C_13  and  C_26
                            x       y       z     vdW  Elec       q    Type
                         _______ _______ _______ _____ _____    ______ ____

>  <TORSDO>
F 7

$$$$
=
 OpenBabel11042422433D

 38 43  0  0  1  0  0  0  0  0999 V2000
  162.5490  208.3770  148.7290 C   0  0  0  0  0  3  0  0  0  0  0  0
  159.9410  208.8310  154.6120 C   0  0  1  0  0  3  0  0  0  0  0  0
  161.4630  206.7930  151.9230 C   0  0  0  0  0  0  0  0  0  0  0  0
  160.8630  207.2600  153.1080 C   0  0  0  0  0  0  0  0  0  0  0  0
  160.5600  208.5780  153.2770 C   0  0  0  0  0  0  0  0  0  0  0  0
  159.8570  207.4000  155.1980 C   0  0  0  0  0  3  0  0  0  0  0  0
  161.3660  209.1100  151.1310 C   0  0  0  0  0  0  0  0  0  0  0  0
  161.6150  210.0520  150.1310 C   0  0  0  0  0  3  0  0  0  0  0  0
  160.7900  209.4960  152.3030 N   0  0  0  0  0  0  0  0  0  0  0  0
  162.3200  207.3970  149.6970 C   0  0  0  0  0  3  0  0  0  0  0  0
  161.7230  207.7510  150.9150 C   0  0  0  0  0  0  0  0  0  0  0  0
  160.4830  206.4970  154.2320 N   0  0  0  0  0  0  0  0  0  0  0  0
  162.1960  209.6690  148.9630 N   0  0  0  0  0  0  0  0  0  0  0  0
  160.9330  211.8960  156.7680 C   0  0  0  0  0  3  0  0  0  0  0  0
  163.3230  211.1690  156.4820 C   0  0  2  0  0  3  0  0  0  0  0  0
  164.4770  211.2340  157.2610 O   0  0  0  0  0  1  0  0  0  0  0  0
  162.1680  209.6230  155.0840 O   0  0  0  0  0  0  0  0  0  0  0  0
  162.2070  211.8800  157.1910 C   0  0  0  0  0  3  0  0  0  0  0  0
  162.9630  209.7110  156.2330 C   0  0  0  0  0  2  0  0  0  0  0  0
  160.8340  209.7060  155.5150 C   0  0  1  0  0  3  0  0  0  0  0  0
  160.4310  211.2020  155.5270 C   0  0  1  0  0  3  0  0  0  0  0  0
  158.3640  211.7720  154.2550 C   0  0  0  0  0  3  0  0  0  0  0  0
  158.9930  211.4180  155.3890 N   0  0  0  0  0  0  0  0  0  0  0  0
  158.1040  211.2970  156.3590 N   0  0  0  0  0  0  0  0  0  0  0  0
  157.0380  211.8840  154.4730 N   0  0  0  0  0  0  0  0  0  0  0  0
  155.6280  211.5610  156.5110 C   0  0  0  0  0  1  0  0  0  0  0  0
  156.9230  211.5820  155.7830 C   0  0  0  0  0  0  0  0  0  0  0  0
  161.8250  205.3730  151.7090 C   0  0  0  0  0  3  0  0  0  0  0  0
  160.9850  204.4500  151.2520 C   0  0  0  0  0  3  0  0  0  0  0  0
  161.4360  203.0400  151.0820 C   0  0  1  0  0  3  0  0  0  0  0  0
  161.2990  202.3440  152.2830 O   0  0  0  0  0  1  0  0  0  0  0  0
  159.6000  201.7910  150.2680 O   0  0  0  0  0  0  0  0  0  0  0  0
  160.6470  202.3630  150.0020 C   0  0  0  0  0  0  0  0  0  0  0  0
  161.1650  202.3510  148.5960 C   0  0  0  0  0  0  0  0  0  0  0  0
  161.5290  201.0210  147.9750 C   0  0  0  0  0  2  0  0  0  0  0  0
  160.2520  201.7460  147.5540 C   0  0  0  0  0  2  0  0  0  0  0  0
  161.9200  203.5000  148.1160 N   0  0  0  0  0  2  0  0  0  0  0  0
  161.2910  203.9650  147.0090 O   0  0  0  0  0  1  0  0  0  0  0  0
  1 13  2  0  0  0  0
  1 10  1  0  0  0  0
  2  6  1  1  0  0  0
  2 20  1  0  0  0  0
  3  4  2  0  0  0  0
  4  5  1  0  0  0  0
  4 12  1  0  0  0  0
  5  2  1  0  0  0  0
  7  9  1  0  0  0  0
  8  7  2  0  0  0  0
  9  5  2  0  0  0  0
 10 11  2  0  0  0  0
 11  7  1  0  0  0  0
 11  3  1  0  0  0  0
 12  6  2  0  0  0  0
 13  8  1  0  0  0  0
 14 18  2  0  0  0  0
 15 18  1  0  0  0  0
 15 16  1  1  0  0  0
 17 19  1  0  0  0  0
 19 15  1  0  0  0  0
 20 17  1  6  0  0  0
 20 21  1  0  0  0  0
 21 23  1  1  0  0  0
 21 14  1  0  0  0  0
 22 25  2  0  0  0  0
 22 23  1  0  0  0  0
 23 24  1  0  0  0  0
 25 27  1  0  0  0  0
 27 24  2  0  0  0  0
 27 26  1  0  0  0  0
 28  3  1  0  0  0  0
 29 28  2  0  0  0  0
 30 29  1  0  0  0  0
 30 31  1  1  0  0  0
 33 32  2  0  0  0  0
 33 30  1  0  0  0  0
 34 33  1  0  0  0  0
 35 34  1  0  0  0  0
 36 35  1  0  0  0  0
 36 34  1  0  0  0  0
 37 34  1  0  0  0  0
 38 37  1  0  0  0  0
M  END
>  <MODEL>
2

>  <REMARK>
 VINA RESULT:      -7.8      3.232      6.180
  Name = 
  7 active torsions:
  status: ('A' for Active; 'I' for Inactive)
    1  A    between atoms: N_5  and  C_37
    2  A    between atoms: C_6  and  N_12
    3  A    between atoms: C_6  and  C_15
    4  A    between atoms: C_7  and  C_16
    5  A    between atoms: C_10  and  C_36
    6  A    between atoms: C_13  and  C_15
    7  A    between atoms: C_13  and  C_26
                            x       y       z     vdW  Elec       q    Type
                         _______ _______ _______ _____ _____    ______ ____

>  <TORSDO>
F 7

$$$$
=
 OpenBabel11042422433D

 38 43  0  0  1  0  0  0  0  0999 V2000
  160.9940  204.1250  152.2380 C   0  0  0  0  0  3  0  0  0  0  0  0
  161.3690  210.4930  153.2050 C   0  0  1  0  0  3  0  0  0  0  0  0
  161.2300  207.5980  150.9030 C   0  0  0  0  0  0  0  0  0  0  0  0
  161.3050  208.8790  151.4810 C   0  0  0  0  0  0  0  0  0  0  0  0
  161.2860  209.0500  152.8340 C   0  0  0  0  0  0  0  0  0  0  0  0
  161.5160  211.1680  151.8190 C   0  0  0  0  0  3  0  0  0  0  0  0
  161.1550  206.7270  153.1940 C   0  0  0  0  0  0  0  0  0  0  0  0
  161.0840  205.6410  154.0660 C   0  0  0  0  0  3  0  0  0  0  0  0
  161.2280  207.9940  153.6860 N   0  0  0  0  0  0  0  0  0  0  0  0
  161.0650  205.1780  151.3240 C   0  0  0  0  0  3  0  0  0  0  0  0
  161.1470  206.4980  151.7910 C   0  0  0  0  0  0  0  0  0  0  0  0
  161.4240  210.1140  150.8090 N   0  0  0  0  0  0  0  0  0  0  0  0
  161.0050  204.3750  153.5750 N   0  0  0  0  0  0  0  0  0  0  0  0
  158.9850  211.3720  156.1330 C   0  0  0  0  0  3  0  0  0  0  0  0
  157.1070  211.3040  154.4620 C   0  0  2  0  0  3  0  0  0  0  0  0
  155.8960  211.9750  154.3070 O   0  0  0  0  0  1  0  0  0  0  0  0
  158.9610  210.5880  153.1470 O   0  0  0  0  0  0  0  0  0  0  0  0
  157.7530  211.7380  155.7460 C   0  0  0  0  0  3  0  0  0  0  0  0
  158.0090  211.6070  153.2740 C   0  0  0  0  0  2  0  0  0  0  0  0
  160.0820  210.9960  153.8890 C   0  0  1  0  0  3  0  0  0  0  0  0
  159.9050  210.4790  155.3390 C   0  0  1  0  0  3  0  0  0  0  0  0
  161.5500  209.1990  156.7070 C   0  0  0  0  0  3  0  0  0  0  0  0
  161.1670  210.3100  156.0550 N   0  0  0  0  0  0  0  0  0  0  0  0
  162.1140  211.2250  156.1630 N   0  0  0  0  0  0  0  0  0  0  0  0
  162.7700  209.3770  157.2540 N   0  0  0  0  0  0  0  0  0  0  0  0
  164.3540  211.3100  157.2590 C   0  0  0  0  0  1  0  0  0  0  0  0
  163.0790  210.6390  156.8930 C   0  0  0  0  0  0  0  0  0  0  0  0
  161.2280  207.3730  149.4390 C   0  0  0  0  0  3  0  0  0  0  0  0
  160.6210  206.3520  148.8420 C   0  0  0  0  0  3  0  0  0  0  0  0
  160.6850  206.2000  147.3620 C   0  0  1  0  0  3  0  0  0  0  0  0
  161.1220  207.3890  146.7750 O   0  0  0  0  0  1  0  0  0  0  0  0
  162.6110  204.8570  147.6450 O   0  0  0  0  0  0  0  0  0  0  0  0
  161.6020  205.0750  146.9890 C   0  0  0  0  0  0  0  0  0  0  0  0
  161.3040  204.2380  145.7830 C   0  0  0  0  0  0  0  0  0  0  0  0
  160.5660  204.8780  144.6280 C   0  0  0  0  0  2  0  0  0  0  0  0
  162.0620  204.5900  144.5220 C   0  0  0  0  0  2  0  0  0  0  0  0
  161.0870  202.8090  145.9550 N   0  0  0  0  0  2  0  0  0  0  0  0
  160.3490  202.3810  144.9010 O   0  0  0  0  0  1  0  0  0  0  0  0
  1 13  1  0  0  0  0
  2  6  1  6  0  0  0
  2 20  1  0  0  0  0
  3  4  2  0  0  0  0
  3 11  1  0  0  0  0
  4  5  1  0  0  0  0
  5  2  1  0  0  0  0
  5  9  2  0  0  0  0
  7  9  1  0  0  0  0
  7  8  1  0  0  0  0
 10 11  1  0  0  0  0
 10  1  2  0  0  0  0
 11  7  2  0  0  0  0
 12  4  1  0  0  0  0
 12  6  2  0  0  0  0
 13  8  2  0  0  0  0
 15 16  1  6  0  0  0
 15 18  1  0  0  0  0
 17 19  1  0  0  0  0
 18 14  2  0  0  0  0
 19 15  1  0  0  0  0
 20 17  1  6  0  0  0
 20 21  1  0  0  0  0
 21 23  1  1  0  0  0
 21 14  1  0  0  0  0
 22 25  2  0  0  0  0
 23 24  1  0  0  0  0
 23 22  1  0  0  0  0
 24 27  2  0  0  0  0
 27 25  1  0  0  0  0
 27 26  1  0  0  0  0
 28  3  1  0  0  0  0
 29 28  2  0  0  0  0
 30 31  1  6  0  0  0
 30 29  1  0  0  0  0
 33 30  1  0  0  0  0
 33 32  2  0  0  0  0
 34 37  1  0  0  0  0
 34 33  1  0  0  0  0
 35 34  1  0  0  0  0
 36 35  1  0  0  0  0
 36 34  1  0  0  0  0
 38 37  1  0  0  0  0
M  END
>  <MODEL>
3

>  <REMARK>
 VINA RESULT:      -7.6      3.263      5.384
  Name = 
  7 active torsions:
  status: ('A' for Active; 'I' for Inactive)
    1  A    between atoms: N_5  and  C_37
    2  A    between atoms: C_6  and  N_12
    3  A    between atoms: C_6  and  C_15
    4  A    between atoms: C_7  and  C_16
    5  A    between atoms: C_10  and  C_36
    6  A    between atoms: C_13  and  C_15
    7  A    between atoms: C_13  and  C_26
                            x       y       z     vdW  Elec       q    Type
                         _______ _______ _______ _____ _____    ______ ____

>  <TORSDO>
F 7

$$$$
=
 OpenBabel11042422433D

 38 43  0  0  1  0  0  0  0  0999 V2000
  161.1910  206.4870  154.1780 C   0  0  0  0  0  3  0  0  0  0  0  0
  161.8280  211.2290  149.8500 C   0  0  1  0  0  3  0  0  0  0  0  0
  161.4130  207.6370  150.6390 C   0  0  0  0  0  0  0  0  0  0  0  0
  161.5730  208.8860  150.0110 C   0  0  0  0  0  0  0  0  0  0  0  0
  161.6730  210.0370  150.7340 C   0  0  0  0  0  0  0  0  0  0  0  0
  161.8760  210.5770  148.4460 C   0  0  0  0  0  3  0  0  0  0  0  0
  161.5060  208.8550  152.7630 C   0  0  0  0  0  0  0  0  0  0  0  0
  161.4770  208.8460  154.1580 C   0  0  0  0  0  3  0  0  0  0  0  0
  161.6560  210.0310  152.0920 N   0  0  0  0  0  0  0  0  0  0  0  0
  161.2150  206.4430  152.7820 C   0  0  0  0  0  3  0  0  0  0  0  0
  161.3740  207.6310  152.0540 C   0  0  0  0  0  0  0  0  0  0  0  0
  161.6700  209.1400  148.6260 N   0  0  0  0  0  0  0  0  0  0  0  0
  161.3210  207.6740  154.8300 N   0  0  0  0  0  0  0  0  0  0  0  0
  159.5160  214.1720  148.8360 C   0  0  0  0  0  3  0  0  0  0  0  0
  158.5770  214.0750  151.1670 C   0  0  2  0  0  3  0  0  0  0  0  0
  157.3330  214.3250  151.7430 O   0  0  0  0  0  1  0  0  0  0  0  0
  160.3350  212.4710  151.2790 O   0  0  0  0  0  0  0  0  0  0  0  0
  158.5220  214.4120  149.7040 C   0  0  0  0  0  3  0  0  0  0  0  0
  158.9450  212.6130  151.3710 C   0  0  0  0  0  2  0  0  0  0  0  0
  160.6180  212.1810  149.9340 C   0  0  1  0  0  3  0  0  0  0  0  0
  160.8310  213.5250  149.1940 C   0  0  1  0  0  3  0  0  0  0  0  0
  163.0060  213.4590  147.9760 C   0  0  0  0  0  3  0  0  0  0  0  0
  161.6630  213.4060  147.9990 N   0  0  0  0  0  0  0  0  0  0  0  0
  161.2150  213.2280  146.7690 N   0  0  0  0  0  0  0  0  0  0  0  0
  163.4570  213.3110  146.7130 N   0  0  0  0  0  0  0  0  0  0  0  0
  162.2880  212.9700  144.5310 C   0  0  0  0  0  1  0  0  0  0  0  0
  162.3180  213.1710  146.0030 C   0  0  0  0  0  0  0  0  0  0  0  0
  161.2810  206.3680  149.8870 C   0  0  0  0  0  3  0  0  0  0  0  0
  162.0200  206.0470  148.8300 C   0  0  0  0  0  3  0  0  0  0  0  0
  161.8060  204.7500  148.1280 C   0  0  1  0  0  3  0  0  0  0  0  0
  160.4670  204.3690  148.2210 O   0  0  0  0  0  1  0  0  0  0  0  0
  163.3920  204.9560  146.3850 O   0  0  0  0  0  0  0  0  0  0  0  0
  162.2120  204.8600  146.6890 C   0  0  0  0  0  0  0  0  0  0  0  0
  161.1630  204.8940  145.6190 C   0  0  0  0  0  0  0  0  0  0  0  0
  160.4560  206.2030  145.3470 C   0  0  0  0  0  2  0  0  0  0  0  0
  161.5070  205.6760  144.3720 C   0  0  0  0  0  2  0  0  0  0  0  0
  160.3850  203.6910  145.3590 N   0  0  0  0  0  2  0  0  0  0  0  0
  161.2550  202.6540  145.2840 O   0  0  0  0  0  1  0  0  0  0  0  0
  1 13  1  0  0  0  0
  2  6  1  6  0  0  0
  2 20  1  0  0  0  0
  2  5  1  0  0  0  0
  3 11  1  0  0  0  0
  4  3  2  0  0  0  0
  4  5  1  0  0  0  0
  5  9  2  0  0  0  0
  6 12  2  0  0  0  0
  7  8  1  0  0  0  0
  8 13  2  0  0  0  0
  9  7  1  0  0  0  0
 10  1  2  0  0  0  0
 11  7  2  0  0  0  0
 11 10  1  0  0  0  0
 12  4  1  0  0  0  0
 14 21  1  0  0  0  0
 14 18  2  0  0  0  0
 15 19  1  0  0  0  0
 15 16  1  6  0  0  0
 17 19  1  0  0  0  0
 18 15  1  0  0  0  0
 20 17  1  1  0  0  0
 21 23  1  6  0  0  0
 21 20  1  0  0  0  0
 22 23  1  0  0  0  0
 24 23  1  0  0  0  0
 25 22  2  0  0  0  0
 26 27  1  0  0  0  0
 27 25  1  0  0  0  0
 27 24  2  0  0  0  0
 28  3  1  0  0  0  0
 29 28  2  0  0  0  0
 30 31  1  6  0  0  0
 30 29  1  0  0  0  0
 32 33  2  0  0  0  0
 33 30  1  0  0  0  0
 34 33  1  0  0  0  0
 35 34  1  0  0  0  0
 36 35  1  0  0  0  0
 36 34  1  0  0  0  0
 37 34  1  0  0  0  0
 38 37  1  0  0  0  0
M  END
>  <MODEL>
4

>  <REMARK>
 VINA RESULT:      -6.7      1.391      2.082
  Name = 
  7 active torsions:
  status: ('A' for Active; 'I' for Inactive)
    1  A    between atoms: N_5  and  C_37
    2  A    between atoms: C_6  and  N_12
    3  A    between atoms: C_6  and  C_15
    4  A    between atoms: C_7  and  C_16
    5  A    between atoms: C_10  and  C_36
    6  A    between atoms: C_13  and  C_15
    7  A    between atoms: C_13  and  C_26
                            x       y       z     vdW  Elec       q    Type
                         _______ _______ _______ _____ _____    ______ ____

>  <TORSDO>
F 7

$$$$
=
 OpenBabel11042422433D

 38 43  0  0  1  0  0  0  0  0999 V2000
  161.8240  214.4530  147.4370 C   0  0  0  0  0  3  0  0  0  0  0  0
  162.0490  209.0650  150.9770 C   0  0  1  0  0  3  0  0  0  0  0  0
  160.6790  212.4480  150.3630 C   0  0  0  0  0  0  0  0  0  0  0  0
  160.9890  211.1740  150.8740 C   0  0  0  0  0  0  0  0  0  0  0  0
  161.8940  210.3620  150.2560 C   0  0  0  0  0  0  0  0  0  0  0  0
  161.1170  209.2680  152.1970 C   0  0  0  0  0  3  0  0  0  0  0  0
  162.3100  211.9770  148.5940 C   0  0  0  0  0  0  0  0  0  0  0  0
  162.9840  212.3800  147.4420 C   0  0  0  0  0  3  0  0  0  0  0  0
  162.5610  210.7550  149.1400 N   0  0  0  0  0  0  0  0  0  0  0  0
  161.1230  214.0970  148.5910 C   0  0  0  0  0  3  0  0  0  0  0  0
  161.3580  212.8500  149.1880 C   0  0  0  0  0  0  0  0  0  0  0  0
  160.4700  210.5710  152.0390 N   0  0  0  0  0  0  0  0  0  0  0  0
  162.7290  213.5970  146.8920 N   0  0  0  0  0  0  0  0  0  0  0  0
  160.7570  205.4740  150.2910 C   0  0  0  0  0  3  0  0  0  0  0  0
  161.4680  205.8070  147.9020 C   0  0  2  0  0  3  0  0  0  0  0  0
  161.0080  205.3660  146.6620 O   0  0  0  0  0  1  0  0  0  0  0  0
  162.2620  207.8020  148.9330 O   0  0  0  0  0  0  0  0  0  0  0  0
  160.6510  205.1690  148.9880 C   0  0  0  0  0  3  0  0  0  0  0  0
  161.3670  207.3230  147.9700 C   0  0  0  0  0  2  0  0  0  0  0  0
  161.5490  207.8680  150.1420 C   0  0  1  0  0  3  0  0  0  0  0  0
  161.7030  206.5030  150.8580 C   0  0  1  0  0  3  0  0  0  0  0  0
  162.4470  206.2130  153.2200 C   0  0  0  0  0  3  0  0  0  0  0  0
  161.5330  206.5830  152.3060 N   0  0  0  0  0  0  0  0  0  0  0  0
  160.4570  207.0320  152.9280 N   0  0  0  0  0  0  0  0  0  0  0  0
  161.9730  206.4210  154.4650 N   0  0  0  0  0  0  0  0  0  0  0  0
  159.8080  207.3320  155.3180 C   0  0  0  0  0  1  0  0  0  0  0  0
  160.7440  206.9280  154.2370 C   0  0  0  0  0  0  0  0  0  0  0  0
  159.6890  213.3500  150.9950 C   0  0  0  0  0  3  0  0  0  0  0  0
  159.0070  213.0550  152.0970 C   0  0  0  0  0  3  0  0  0  0  0  0
  158.0190  214.0220  152.6520 C   0  0  1  0  0  3  0  0  0  0  0  0
  157.1510  214.4520  151.6480 O   0  0  0  0  0  1  0  0  0  0  0  0
  156.0530  213.1480  153.6340 O   0  0  0  0  0  0  0  0  0  0  0  0
  157.2430  213.3950  153.7700 C   0  0  0  0  0  0  0  0  0  0  0  0
  157.9170  213.1080  155.0770 C   0  0  0  0  0  0  0  0  0  0  0  0
  159.0490  214.0110  155.5160 C   0  0  0  0  0  2  0  0  0  0  0  0
  157.6800  214.1100  156.1850 C   0  0  0  0  0  2  0  0  0  0  0  0
  157.9920  211.7310  155.5420 N   0  0  0  0  0  2  0  0  0  0  0  0
  159.0770  211.1640  154.9570 O   0  0  0  0  0  1  0  0  0  0  0  0
  1 10  1  0  0  0  0
  2  6  1  1  0  0  0
  3  4  2  0  0  0  0
  3 28  1  0  0  0  0
  4 12  1  0  0  0  0
  5  4  1  0  0  0  0
  5  2  1  0  0  0  0
  7  9  1  0  0  0  0
  7 11  1  0  0  0  0
  8  7  2  0  0  0  0
  9  5  2  0  0  0  0
 10 11  2  0  0  0  0
 11  3  1  0  0  0  0
 12  6  2  0  0  0  0
 13  1  2  0  0  0  0
 13  8  1  0  0  0  0
 15 16  1  6  0  0  0
 15 19  1  0  0  0  0
 15 18  1  0  0  0  0
 18 14  2  0  0  0  0
 19 17  1  0  0  0  0
 20 17  1  6  0  0  0
 20 21  1  0  0  0  0
 20  2  1  0  0  0  0
 21 14  1  6  0  0  0
 21 23  1  0  0  0  0
 22 25  2  0  0  0  0
 23 24  1  0  0  0  0
 23 22  1  0  0  0  0
 24 27  2  0  0  0  0
 27 25  1  0  0  0  0
 27 26  1  0  0  0  0
 28 29  2  0  0  0  0
 29 30  1  0  0  0  0
 30 31  1  6  0  0  0
 30 33  1  0  0  0  0
 32 33  2  0  0  0  0
 33 34  1  0  0  0  0
 34 35  1  0  0  0  0
 34 37  1  0  0  0  0
 34 36  1  0  0  0  0
 35 36  1  0  0  0  0
 38 37  1  0  0  0  0
M  END
>  <MODEL>
5

>  <REMARK>
 VINA RESULT:      -5.4      2.268      9.136
  Name = 
  7 active torsions:
  status: ('A' for Active; 'I' for Inactive)
    1  A    between atoms: N_5  and  C_37
    2  A    between atoms: C_6  and  N_12
    3  A    between atoms: C_6  and  C_15
    4  A    between atoms: C_7  and  C_16
    5  A    between atoms: C_10  and  C_36
    6  A    between atoms: C_13  and  C_15
    7  A    between atoms: C_13  and  C_26
                            x       y       z     vdW  Elec       q    Type
                         _______ _______ _______ _____ _____    ______ ____

>  <TORSDO>
F 7

$$$$
