=
 OpenBabel11042420463D

 27 29  0  0  1  0  0  0  0  0999 V2000
  161.2900  205.4230  151.9450 C   0  0  0  0  0  0  0  0  0  0  0  0
  161.1570  207.7920  151.0480 C   0  0  2  0  0  3  0  0  0  0  0  0
  160.7920  203.1040  152.1060 N   0  0  0  0  0  0  0  0  0  0  0  0
  161.6190  208.3730  148.2860 C   0  0  0  0  0  3  0  0  0  0  0  0
  160.9810  205.3980  150.6010 C   0  0  0  0  0  0  0  0  0  0  0  0
  160.5780  204.2080  149.9880 C   0  0  0  0  0  3  0  0  0  0  0  0
  160.4920  203.0530  150.7760 C   0  0  0  0  0  3  0  0  0  0  0  0
  161.9440  208.9490  150.6000 N   0  0  0  0  0  0  0  0  0  0  0  0
  161.8200  207.0110  152.5760 S   0  0  0  0  0  0  0  0  0  0  0  0
  161.2320  207.0070  148.6870 C   0  0  0  0  0  0  0  0  0  0  0  0
  161.1870  204.2610  152.7090 C   0  0  0  0  0  3  0  0  0  0  0  0
  161.9700  209.2780  149.2030 C   0  0  0  0  0  3  0  0  0  0  0  0
  161.0910  206.7200  149.9950 C   0  0  0  0  0  0  0  0  0  0  0  0
  161.1000  205.9720  147.6150 C   0  0  0  0  0  2  0  0  0  0  0  0
  162.2560  206.0160  146.7330 N   0  0  0  0  0  2  0  0  0  0  0  0
  162.4250  204.6890  146.1640 C   0  0  0  0  0  2  0  0  0  0  0  0
  161.8980  203.6430  147.1300 C   0  0  0  0  0  2  0  0  0  0  0  0
  161.4200  202.4130  146.3710 C   0  0  1  0  0  3  0  0  0  0  0  0
  160.5800  201.5110  147.2720 C   0  0  0  0  0  2  0  0  0  0  0  0
  161.4370  200.7130  148.2450 C   0  0  0  0  0  1  0  0  0  0  0  0
  159.9540  201.6550  144.8910 C   0  0  0  0  0  1  0  0  0  0  0  0
  160.6940  202.7880  145.2360 O   0  0  0  0  0  0  0  0  0  0  0  0
  162.3390  209.9770  151.5530 C   0  0  0  0  0  2  0  0  0  0  0  0
  159.8950  211.5890  154.0060 N   0  0  0  0  0  1  0  0  0  0  0  0
  161.0510  210.9160  153.5240 C   0  0  0  0  0  0  0  0  0  0  0  0
  161.1610  210.6090  152.1340 N   0  0  0  0  0  2  0  0  0  0  0  0
  161.9630  210.5880  154.3290 O   0  0  0  0  0  0  0  0  0  0  0  0
  1  9  1  0  0  0  0
  1 11  1  0  0  0  0
  2 13  1  6  0  0  0
  2  9  1  0  0  0  0
  3 11  2  0  0  0  0
  4 10  1  0  0  0  0
  4 12  2  0  0  0  0
  5  1  2  0  0  0  0
  6  5  1  0  0  0  0
  6  7  2  0  0  0  0
  7  3  1  0  0  0  0
  8  2  1  0  0  0  0
  8 23  1  0  0  0  0
 10 13  2  0  0  0  0
 12  8  1  0  0  0  0
 13  5  1  0  0  0  0
 14 10  1  0  0  0  0
 15 14  1  0  0  0  0
 16 15  1  0  0  0  0
 16 17  1  0  0  0  0
 18 17  1  1  0  0  0
 18 19  1  0  0  0  0
 19 20  1  0  0  0  0
 21 22  1  0  0  0  0
 22 18  1  0  0  0  0
 23 26  1  0  0  0  0
 25 24  1  0  0  0  0
 25 27  2  0  0  0  0
 26 25  1  0  0  0  0
M  END
>  <MODEL>
1

>  <REMARK>
 VINA RESULT:      -7.6      0.000      0.000
  Name = 
  9 active torsions:
  status: ('A' for Active; 'I' for Inactive)
    1  A    between atoms: C_4  and  C_26
    2  A    between atoms: C_8  and  C_13
    3  A    between atoms: C_8  and  C_26
    4  A    between atoms: C_10  and  C_16
    5  A    between atoms: C_10  and  N_17
    6  A    between atoms: C_13  and  N_17
    7  A    between atoms: N_14  and  C_22
    8  A    between atoms: N_21  and  C_22
    9  A    between atoms: C_26  and  O_27
                            x       y       z     vdW  Elec       q    Type
                         _______ _______ _______ _____ _____    ______ ____

>  <TORSDO>
F 9

$$$$
=
 OpenBabel11042420463D

 27 29  0  0  1  0  0  0  0  0999 V2000
  161.6950  208.1130  149.1500 C   0  0  0  0  0  0  0  0  0  0  0  0
  160.7020  205.7950  149.4180 C   0  0  2  0  0  3  0  0  0  0  0  0
  162.1910  210.3690  149.7140 N   0  0  0  0  0  0  0  0  0  0  0  0
  161.2220  204.2050  151.7380 C   0  0  0  0  0  3  0  0  0  0  0  0
  161.5960  207.8000  150.4890 C   0  0  0  0  0  0  0  0  0  0  0  0
  161.8050  208.7780  151.4640 C   0  0  0  0  0  3  0  0  0  0  0  0
  162.1090  210.0790  151.0440 C   0  0  0  0  0  3  0  0  0  0  0  0
  160.9850  204.3550  149.3480 N   0  0  0  0  0  0  0  0  0  0  0  0
  161.4330  206.7480  148.0250 S   0  0  0  0  0  0  0  0  0  0  0  0
  161.3910  205.6690  151.8070 C   0  0  0  0  0  0  0  0  0  0  0  0
  161.9900  209.4190  148.7580 C   0  0  0  0  0  3  0  0  0  0  0  0
  161.0470  203.5940  150.5630 C   0  0  0  0  0  3  0  0  0  0  0  0
  161.2210  206.4050  150.6920 C   0  0  0  0  0  0  0  0  0  0  0  0
  161.8380  206.2640  153.1050 C   0  0  0  0  0  2  0  0  0  0  0  0
  160.6830  206.6010  153.9230 N   0  0  0  0  0  2  0  0  0  0  0  0
  161.1500  207.4380  155.0170 C   0  0  0  0  0  2  0  0  0  0  0  0
  160.4450  208.7820  154.9740 C   0  0  0  0  0  2  0  0  0  0  0  0
  161.4550  209.9140  155.1030 C   0  0  1  0  0  3  0  0  0  0  0  0
  160.9680  211.1620  154.3710 C   0  0  0  0  0  2  0  0  0  0  0  0
  159.5280  211.0250  153.8970 C   0  0  0  0  0  1  0  0  0  0  0  0
  163.0210  210.6570  156.4840 C   0  0  0  0  0  1  0  0  0  0  0  0
  161.7030  210.1990  156.4500 O   0  0  0  0  0  0  0  0  0  0  0  0
  160.7940  203.6340  148.0970 C   0  0  0  0  0  2  0  0  0  0  0  0
  161.5340  199.9490  147.4160 N   0  0  0  0  0  1  0  0  0  0  0  0
  161.1110  201.2870  147.1910 C   0  0  0  0  0  0  0  0  0  0  0  0
  161.1520  202.2300  148.2620 N   0  0  0  0  0  2  0  0  0  0  0  0
  160.6940  201.6270  146.0520 O   0  0  0  0  0  0  0  0  0  0  0  0
  1  5  1  0  0  0  0
  2  9  1  6  0  0  0
  2 13  1  0  0  0  0
  3  7  2  0  0  0  0
  4 10  1  0  0  0  0
  5 13  1  0  0  0  0
  5  6  2  0  0  0  0
  7  6  1  0  0  0  0
  8  2  1  0  0  0  0
  8 12  1  0  0  0  0
  9  1  1  0  0  0  0
 10 14  1  0  0  0  0
 11  1  2  0  0  0  0
 11  3  1  0  0  0  0
 12  4  2  0  0  0  0
 13 10  2  0  0  0  0
 14 15  1  0  0  0  0
 15 16  1  0  0  0  0
 17 16  1  0  0  0  0
 17 18  1  0  0  0  0
 18 19  1  6  0  0  0
 18 22  1  0  0  0  0
 20 19  1  0  0  0  0
 22 21  1  0  0  0  0
 23 26  1  0  0  0  0
 23  8  1  0  0  0  0
 25 24  1  0  0  0  0
 25 26  1  0  0  0  0
 27 25  2  0  0  0  0
M  END
>  <MODEL>
2

>  <REMARK>
 VINA RESULT:      -7.3      2.400      8.653
  Name = 
  9 active torsions:
  status: ('A' for Active; 'I' for Inactive)
    1  A    between atoms: C_4  and  C_26
    2  A    between atoms: C_8  and  C_13
    3  A    between atoms: C_8  and  C_26
    4  A    between atoms: C_10  and  C_16
    5  A    between atoms: C_10  and  N_17
    6  A    between atoms: C_13  and  N_17
    7  A    between atoms: N_14  and  C_22
    8  A    between atoms: N_21  and  C_22
    9  A    between atoms: C_26  and  O_27
                            x       y       z     vdW  Elec       q    Type
                         _______ _______ _______ _____ _____    ______ ____

>  <TORSDO>
F 9

$$$$
=
 OpenBabel11042420463D

 27 29  0  0  1  0  0  0  0  0999 V2000
  160.8870  209.2250  154.7540 C   0  0  0  0  0  0  0  0  0  0  0  0
  161.0340  209.2770  152.2220 C   0  0  2  0  0  3  0  0  0  0  0  0
  160.2230  208.4480  156.9000 N   0  0  0  0  0  0  0  0  0  0  0  0
  161.9170  207.0010  150.7300 C   0  0  0  0  0  3  0  0  0  0  0  0
  160.7690  207.9460  154.2530 C   0  0  0  0  0  0  0  0  0  0  0  0
  160.3810  206.8910  155.0830 C   0  0  0  0  0  3  0  0  0  0  0  0
  160.1110  207.1720  156.4290 C   0  0  0  0  0  3  0  0  0  0  0  0
  161.9490  209.3830  151.0770 N   0  0  0  0  0  0  0  0  0  0  0  0
  161.4240  210.4590  153.5760 S   0  0  0  0  0  0  0  0  0  0  0  0
  161.3890  206.8150  152.0950 C   0  0  0  0  0  0  0  0  0  0  0  0
  160.6030  209.4800  156.0950 C   0  0  0  0  0  3  0  0  0  0  0  0
  162.1930  208.2230  150.2670 C   0  0  0  0  0  3  0  0  0  0  0  0
  161.0480  207.8970  152.8220 C   0  0  0  0  0  0  0  0  0  0  0  0
  161.3430  205.4260  152.6460 C   0  0  0  0  0  2  0  0  0  0  0  0
  162.0340  204.5100  151.7510 N   0  0  0  0  0  2  0  0  0  0  0  0
  161.1720  203.3560  151.5540 C   0  0  0  0  0  2  0  0  0  0  0  0
  160.3550  203.5340  150.2860 C   0  0  0  0  0  2  0  0  0  0  0  0
  161.2470  203.4030  149.0590 C   0  0  1  0  0  3  0  0  0  0  0  0
  160.7970  202.2350  148.1830 C   0  0  0  0  0  2  0  0  0  0  0  0
  161.2330  200.8920  148.7500 C   0  0  0  0  0  1  0  0  0  0  0  0
  161.7410  204.2400  147.0670 C   0  0  0  0  0  1  0  0  0  0  0  0
  161.2520  204.5940  148.3250 O   0  0  0  0  0  0  0  0  0  0  0  0
  162.2710  210.6890  150.5190 C   0  0  0  0  0  2  0  0  0  0  0  0
  161.1050  211.9700  147.1160 N   0  0  0  0  0  1  0  0  0  0  0  0
  161.4330  211.9700  148.4990 C   0  0  0  0  0  0  0  0  0  0  0  0
  161.8600  210.7590  149.1230 N   0  0  0  0  0  2  0  0  0  0  0  0
  161.3330  213.0350  149.1640 O   0  0  0  0  0  0  0  0  0  0  0  0
  1 11  1  0  0  0  0
  2 13  1  1  0  0  0
  2  9  1  0  0  0  0
  4 10  1  0  0  0  0
  5  1  2  0  0  0  0
  5  6  1  0  0  0  0
  6  7  2  0  0  0  0
  7  3  1  0  0  0  0
  8  2  1  0  0  0  0
  9  1  1  0  0  0  0
 10 14  1  0  0  0  0
 10 13  2  0  0  0  0
 11  3  2  0  0  0  0
 12  4  2  0  0  0  0
 12  8  1  0  0  0  0
 13  5  1  0  0  0  0
 15 14  1  0  0  0  0
 16 15  1  0  0  0  0
 17 16  1  0  0  0  0
 18 19  1  6  0  0  0
 18 17  1  0  0  0  0
 19 20  1  0  0  0  0
 21 22  1  0  0  0  0
 22 18  1  0  0  0  0
 23  8  1  0  0  0  0
 24 25  1  0  0  0  0
 25 26  1  0  0  0  0
 25 27  2  0  0  0  0
 26 23  1  0  0  0  0
M  END
>  <MODEL>
3

>  <REMARK>
 VINA RESULT:      -7.3      2.686      4.386
  Name = 
  9 active torsions:
  status: ('A' for Active; 'I' for Inactive)
    1  A    between atoms: C_4  and  C_26
    2  A    between atoms: C_8  and  C_13
    3  A    between atoms: C_8  and  C_26
    4  A    between atoms: C_10  and  C_16
    5  A    between atoms: C_10  and  N_17
    6  A    between atoms: C_13  and  N_17
    7  A    between atoms: N_14  and  C_22
    8  A    between atoms: N_21  and  C_22
    9  A    between atoms: C_26  and  O_27
                            x       y       z     vdW  Elec       q    Type
                         _______ _______ _______ _____ _____    ______ ____

>  <TORSDO>
F 9

$$$$
=
 OpenBabel11042420463D

 27 29  0  0  1  0  0  0  0  0999 V2000
  161.6760  209.8020  150.9370 C   0  0  0  0  0  0  0  0  0  0  0  0
  161.6710  209.0830  153.3690 C   0  0  2  0  0  3  0  0  0  0  0  0
  162.1920  209.7040  148.6180 N   0  0  0  0  0  0  0  0  0  0  0  0
  160.7910  206.4770  154.1550 C   0  0  0  0  0  3  0  0  0  0  0  0
  161.7750  208.4290  151.0180 C   0  0  0  0  0  0  0  0  0  0  0  0
  162.0790  207.6710  149.8840 C   0  0  0  0  0  3  0  0  0  0  0  0
  162.2840  208.3440  148.6730 C   0  0  0  0  0  3  0  0  0  0  0  0
  160.8260  208.8510  154.5480 N   0  0  0  0  0  0  0  0  0  0  0  0
  161.2500  210.6280  152.4660 S   0  0  0  0  0  0  0  0  0  0  0  0
  161.2350  206.7060  152.7670 C   0  0  0  0  0  0  0  0  0  0  0  0
  161.8950  210.4480  149.7200 C   0  0  0  0  0  3  0  0  0  0  0  0
  160.5850  207.5050  154.9840 C   0  0  0  0  0  3  0  0  0  0  0  0
  161.5740  207.9520  152.3820 C   0  0  0  0  0  0  0  0  0  0  0  0
  161.2000  205.5500  151.8190 C   0  0  0  0  0  2  0  0  0  0  0  0
  161.0860  204.3020  152.5580 N   0  0  0  0  0  2  0  0  0  0  0  0
  161.0020  203.2240  151.5860 C   0  0  0  0  0  2  0  0  0  0  0  0
  160.9300  203.7990  150.1820 C   0  0  0  0  0  2  0  0  0  0  0  0
  160.6600  202.6940  149.1710 C   0  0  1  0  0  3  0  0  0  0  0  0
  161.2690  203.0400  147.8140 C   0  0  0  0  0  2  0  0  0  0  0  0
  161.6170  204.5180  147.7010 C   0  0  0  0  0  1  0  0  0  0  0  0
  161.3340  200.6960  148.4870 C   0  0  0  0  0  1  0  0  0  0  0  0
  161.1560  201.4710  149.6350 O   0  0  0  0  0  0  0  0  0  0  0  0
  160.5820  209.9310  155.4950 C   0  0  0  0  0  2  0  0  0  0  0  0
  156.9390  211.0690  155.6320 N   0  0  0  0  0  1  0  0  0  0  0  0
  158.3300  211.0840  155.3390 C   0  0  0  0  0  0  0  0  0  0  0  0
  159.1610  210.0210  155.8060 N   0  0  0  0  0  2  0  0  0  0  0  0
  158.8180  212.0390  154.6790 O   0  0  0  0  0  0  0  0  0  0  0  0
  1  5  1  0  0  0  0
  1  9  1  0  0  0  0
  2 13  1  6  0  0  0
  2  8  1  0  0  0  0
  3  7  2  0  0  0  0
  3 11  1  0  0  0  0
  4 12  2  0  0  0  0
  5 13  1  0  0  0  0
  6  5  2  0  0  0  0
  7  6  1  0  0  0  0
  8 12  1  0  0  0  0
  8 23  1  0  0  0  0
  9  2  1  0  0  0  0
 10  4  1  0  0  0  0
 11  1  2  0  0  0  0
 13 10  2  0  0  0  0
 14 15  1  0  0  0  0
 14 10  1  0  0  0  0
 16 15  1  0  0  0  0
 17 16  1  0  0  0  0
 18 19  1  6  0  0  0
 18 22  1  0  0  0  0
 18 17  1  0  0  0  0
 20 19  1  0  0  0  0
 21 22  1  0  0  0  0
 23 26  1  0  0  0  0
 25 24  1  0  0  0  0
 25 26  1  0  0  0  0
 27 25  2  0  0  0  0
M  END
>  <MODEL>
4

>  <REMARK>
 VINA RESULT:      -7.3      2.245      4.550
  Name = 
  9 active torsions:
  status: ('A' for Active; 'I' for Inactive)
    1  A    between atoms: C_4  and  C_26
    2  A    between atoms: C_8  and  C_13
    3  A    between atoms: C_8  and  C_26
    4  A    between atoms: C_10  and  C_16
    5  A    between atoms: C_10  and  N_17
    6  A    between atoms: C_13  and  N_17
    7  A    between atoms: N_14  and  C_22
    8  A    between atoms: N_21  and  C_22
    9  A    between atoms: C_26  and  O_27
                            x       y       z     vdW  Elec       q    Type
                         _______ _______ _______ _____ _____    ______ ____

>  <TORSDO>
F 9

$$$$
=
 OpenBabel11042420463D

 27 29  0  0  1  0  0  0  0  0999 V2000
  161.1160  205.3250  152.5240 C   0  0  0  0  0  0  0  0  0  0  0  0
  160.9030  207.8510  152.4230 C   0  0  2  0  0  3  0  0  0  0  0  0
  160.9580  203.0760  151.7710 N   0  0  0  0  0  0  0  0  0  0  0  0
  162.1030  209.3690  150.3170 C   0  0  0  0  0  3  0  0  0  0  0  0
  161.2470  205.7530  151.2190 C   0  0  0  0  0  0  0  0  0  0  0  0
  161.2440  204.8350  150.1670 C   0  0  0  0  0  3  0  0  0  0  0  0
  161.0980  203.4760  150.4740 C   0  0  0  0  0  3  0  0  0  0  0  0
  161.6000  209.1220  152.6580 N   0  0  0  0  0  0  0  0  0  0  0  0
  161.1720  206.6170  153.7600 S   0  0  0  0  0  0  0  0  0  0  0  0
  161.8270  207.9350  150.1130 C   0  0  0  0  0  0  0  0  0  0  0  0
  160.9620  203.9670  152.8010 C   0  0  0  0  0  3  0  0  0  0  0  0
  162.0070  209.9150  151.5330 C   0  0  0  0  0  3  0  0  0  0  0  0
  161.3340  207.2070  151.1330 C   0  0  0  0  0  0  0  0  0  0  0  0
  162.1960  207.3300  148.7960 C   0  0  0  0  0  2  0  0  0  0  0  0
  161.1580  207.6020  147.8130 N   0  0  0  0  0  2  0  0  0  0  0  0
  160.8760  206.3580  147.1160 C   0  0  0  0  0  2  0  0  0  0  0  0
  162.1410  205.8390  146.4550 C   0  0  0  0  0  2  0  0  0  0  0  0
  161.8560  204.5430  145.7100 C   0  0  1  0  0  3  0  0  0  0  0  0
  161.5420  203.4120  146.6890 C   0  0  0  0  0  2  0  0  0  0  0  0
  160.8790  202.2270  146.0020 C   0  0  0  0  0  1  0  0  0  0  0  0
  161.3460  205.4600  143.7580 C   0  0  0  0  0  1  0  0  0  0  0  0
  160.8020  204.7170  144.8060 O   0  0  0  0  0  0  0  0  0  0  0  0
  161.5160  209.7720  153.9590 C   0  0  0  0  0  2  0  0  0  0  0  0
  158.1090  211.4710  154.2670 N   0  0  0  0  0  1  0  0  0  0  0  0
  159.4860  211.2900  153.9630 C   0  0  0  0  0  0  0  0  0  0  0  0
  160.1260  210.0570  154.2930 N   0  0  0  0  0  2  0  0  0  0  0  0
  160.1310  212.2220  153.4140 O   0  0  0  0  0  0  0  0  0  0  0  0
  1 11  1  0  0  0  0
  1  9  1  0  0  0  0
  2 13  1  6  0  0  0
  2  8  1  0  0  0  0
  2  9  1  0  0  0  0
  3 11  2  0  0  0  0
  4 12  2  0  0  0  0
  5  1  2  0  0  0  0
  6  7  2  0  0  0  0
  6  5  1  0  0  0  0
  7  3  1  0  0  0  0
  8 23  1  0  0  0  0
 10  4  1  0  0  0  0
 10 13  2  0  0  0  0
 12  8  1  0  0  0  0
 13  5  1  0  0  0  0
 14 10  1  0  0  0  0
 15 14  1  0  0  0  0
 16 15  1  0  0  0  0
 17 16  1  0  0  0  0
 18 17  1  1  0  0  0
 18 19  1  0  0  0  0
 20 19  1  0  0  0  0
 21 22  1  0  0  0  0
 22 18  1  0  0  0  0
 23 26  1  0  0  0  0
 25 24  1  0  0  0  0
 25 26  1  0  0  0  0
 27 25  2  0  0  0  0
M  END
>  <MODEL>
5

>  <REMARK>
 VINA RESULT:      -7.2      1.385      2.042
  Name = 
  9 active torsions:
  status: ('A' for Active; 'I' for Inactive)
    1  A    between atoms: C_4  and  C_26
    2  A    between atoms: C_8  and  C_13
    3  A    between atoms: C_8  and  C_26
    4  A    between atoms: C_10  and  C_16
    5  A    between atoms: C_10  and  N_17
    6  A    between atoms: C_13  and  N_17
    7  A    between atoms: N_14  and  C_22
    8  A    between atoms: N_21  and  C_22
    9  A    between atoms: C_26  and  O_27
                            x       y       z     vdW  Elec       q    Type
                         _______ _______ _______ _____ _____    ______ ____

>  <TORSDO>
F 9

$$$$
=
 OpenBabel11042420463D

 27 29  0  0  1  0  0  0  0  0999 V2000
  161.1860  205.0640  149.4180 C   0  0  0  0  0  0  0  0  0  0  0  0
  162.1200  207.3880  149.8200 C   0  0  2  0  0  3  0  0  0  0  0  0
  160.7560  202.7650  149.8460 N   0  0  0  0  0  0  0  0  0  0  0  0
  161.5820  208.8170  152.2390 C   0  0  0  0  0  3  0  0  0  0  0  0
  161.2910  205.2970  150.7740 C   0  0  0  0  0  0  0  0  0  0  0  0
  161.1190  204.2560  151.6880 C   0  0  0  0  0  3  0  0  0  0  0  0
  160.8450  202.9750  151.1910 C   0  0  0  0  0  3  0  0  0  0  0  0
  161.7980  208.8210  149.8420 N   0  0  0  0  0  0  0  0  0  0  0  0
  161.4000  206.5030  148.3780 S   0  0  0  0  0  0  0  0  0  0  0  0
  161.4530  207.3480  152.2190 C   0  0  0  0  0  0  0  0  0  0  0  0
  160.9220  203.7770  148.9490 C   0  0  0  0  0  3  0  0  0  0  0  0
  161.7290  209.5040  151.1020 C   0  0  0  0  0  3  0  0  0  0  0  0
  161.6310  206.6870  151.0590 C   0  0  0  0  0  0  0  0  0  0  0  0
  161.0370  206.6620  153.4810 C   0  0  0  0  0  2  0  0  0  0  0  0
  161.2050  207.5590  154.6150 N   0  0  0  0  0  2  0  0  0  0  0  0
  160.1390  207.2740  155.5610 C   0  0  0  0  0  2  0  0  0  0  0  0
  160.1440  208.3110  156.6710 C   0  0  0  0  0  2  0  0  0  0  0  0
  160.5820  209.6640  156.1280 C   0  0  1  0  0  3  0  0  0  0  0  0
  159.3710  210.5240  155.7710 C   0  0  0  0  0  2  0  0  0  0  0  0
  159.3590  210.9150  154.3000 C   0  0  0  0  0  1  0  0  0  0  0  0
  162.6660  210.3380  156.4710 C   0  0  0  0  0  1  0  0  0  0  0  0
  161.3980  210.3240  157.0540 O   0  0  0  0  0  0  0  0  0  0  0  0
  161.9560  209.6230  148.6360 C   0  0  0  0  0  2  0  0  0  0  0  0
  161.6390  213.4290  148.6510 N   0  0  0  0  0  1  0  0  0  0  0  0
  161.5060  212.0820  148.2170 C   0  0  0  0  0  0  0  0  0  0  0  0
  162.0990  211.0320  148.9800 N   0  0  0  0  0  2  0  0  0  0  0  0
  160.8750  211.8280  147.1570 O   0  0  0  0  0  0  0  0  0  0  0  0
  1  5  1  0  0  0  0
  2  9  1  6  0  0  0
  2  8  1  0  0  0  0
  2 13  1  0  0  0  0
  3  7  2  0  0  0  0
  5 13  1  0  0  0  0
  5  6  2  0  0  0  0
  7  6  1  0  0  0  0
  8 12  1  0  0  0  0
  9  1  1  0  0  0  0
 10  4  1  0  0  0  0
 10 14  1  0  0  0  0
 11  1  2  0  0  0  0
 11  3  1  0  0  0  0
 12  4  2  0  0  0  0
 13 10  2  0  0  0  0
 14 15  1  0  0  0  0
 15 16  1  0  0  0  0
 16 17  1  0  0  0  0
 18 19  1  1  0  0  0
 18 17  1  0  0  0  0
 18 22  1  0  0  0  0
 20 19  1  0  0  0  0
 21 22  1  0  0  0  0
 23 26  1  0  0  0  0
 23  8  1  0  0  0  0
 25 24  1  0  0  0  0
 25 26  1  0  0  0  0
 27 25  2  0  0  0  0
M  END
>  <MODEL>
6

>  <REMARK>
 VINA RESULT:      -7.1      3.018      7.207
  Name = 
  9 active torsions:
  status: ('A' for Active; 'I' for Inactive)
    1  A    between atoms: C_4  and  C_26
    2  A    between atoms: C_8  and  C_13
    3  A    between atoms: C_8  and  C_26
    4  A    between atoms: C_10  and  C_16
    5  A    between atoms: C_10  and  N_17
    6  A    between atoms: C_13  and  N_17
    7  A    between atoms: N_14  and  C_22
    8  A    between atoms: N_21  and  C_22
    9  A    between atoms: C_26  and  O_27
                            x       y       z     vdW  Elec       q    Type
                         _______ _______ _______ _____ _____    ______ ____

>  <TORSDO>
F 9

$$$$
=
 OpenBabel11042420463D

 27 29  0  0  1  0  0  0  0  0999 V2000
  161.0340  205.6180  152.9800 C   0  0  0  0  0  0  0  0  0  0  0  0
  160.6190  208.1190  153.0340 C   0  0  2  0  0  3  0  0  0  0  0  0
  161.1740  203.4340  152.0510 N   0  0  0  0  0  0  0  0  0  0  0  0
  161.9560  209.8960  151.2350 C   0  0  0  0  0  3  0  0  0  0  0  0
  161.3030  206.1630  151.7420 C   0  0  0  0  0  0  0  0  0  0  0  0
  161.5200  205.3380  150.6360 C   0  0  0  0  0  3  0  0  0  0  0  0
  161.4520  203.9510  150.8190 C   0  0  0  0  0  3  0  0  0  0  0  0
  161.1660  209.4160  153.4570 N   0  0  0  0  0  0  0  0  0  0  0  0
  160.8110  206.8020  154.3020 S   0  0  0  0  0  0  0  0  0  0  0  0
  161.8350  208.4670  150.8890 C   0  0  0  0  0  0  0  0  0  0  0  0
  160.9630  204.2330  153.1340 C   0  0  0  0  0  3  0  0  0  0  0  0
  161.6510  210.3290  152.4610 C   0  0  0  0  0  3  0  0  0  0  0  0
  161.2740  207.6210  151.7740 C   0  0  0  0  0  0  0  0  0  0  0  0
  162.4290  208.0040  149.5970 C   0  0  0  0  0  2  0  0  0  0  0  0
  161.4160  208.0090  148.5520 N   0  0  0  0  0  2  0  0  0  0  0  0
  161.9180  207.2030  147.4510 C   0  0  0  0  0  2  0  0  0  0  0  0
  160.9960  206.0190  147.2160 C   0  0  0  0  0  2  0  0  0  0  0  0
  161.6680  204.9970  146.3110 C   0  0  1  0  0  3  0  0  0  0  0  0
  162.0760  203.7560  147.1030 C   0  0  0  0  0  2  0  0  0  0  0  0
  160.8910  202.8470  147.3970 C   0  0  0  0  0  1  0  0  0  0  0  0
  161.2360  205.4450  144.1840 C   0  0  0  0  0  1  0  0  0  0  0  0
  160.8230  204.6470  145.2520 O   0  0  0  0  0  0  0  0  0  0  0  0
  160.8520  209.9460  154.7770 C   0  0  0  0  0  2  0  0  0  0  0  0
  163.8310  211.0700  156.8850 N   0  0  0  0  0  1  0  0  0  0  0  0
  162.7010  210.3140  156.4710 C   0  0  0  0  0  0  0  0  0  0  0  0
  161.9820  210.7030  155.3010 N   0  0  0  0  0  2  0  0  0  0  0  0
  162.3380  209.3150  157.1460 O   0  0  0  0  0  0  0  0  0  0  0  0
  1 11  1  0  0  0  0
  1  9  1  0  0  0  0
  2 13  1  6  0  0  0
  2  8  1  0  0  0  0
  2  9  1  0  0  0  0
  3 11  2  0  0  0  0
  4 12  2  0  0  0  0
  5 13  1  0  0  0  0
  5  1  2  0  0  0  0
  6  7  2  0  0  0  0
  6  5  1  0  0  0  0
  7  3  1  0  0  0  0
  8 23  1  0  0  0  0
 10  4  1  0  0  0  0
 10 13  2  0  0  0  0
 12  8  1  0  0  0  0
 14 10  1  0  0  0  0
 15 14  1  0  0  0  0
 16 15  1  0  0  0  0
 17 16  1  0  0  0  0
 18 19  1  1  0  0  0
 18 17  1  0  0  0  0
 19 20  1  0  0  0  0
 21 22  1  0  0  0  0
 22 18  1  0  0  0  0
 23 26  1  0  0  0  0
 25 24  1  0  0  0  0
 25 27  2  0  0  0  0
 26 25  1  0  0  0  0
M  END
>  <MODEL>
7

>  <REMARK>
 VINA RESULT:      -6.6      1.875      2.726
  Name = 
  9 active torsions:
  status: ('A' for Active; 'I' for Inactive)
    1  A    between atoms: C_4  and  C_26
    2  A    between atoms: C_8  and  C_13
    3  A    between atoms: C_8  and  C_26
    4  A    between atoms: C_10  and  C_16
    5  A    between atoms: C_10  and  N_17
    6  A    between atoms: C_13  and  N_17
    7  A    between atoms: N_14  and  C_22
    8  A    between atoms: N_21  and  C_22
    9  A    between atoms: C_26  and  O_27
                            x       y       z     vdW  Elec       q    Type
                         _______ _______ _______ _____ _____    ______ ____

>  <TORSDO>
F 9

$$$$
=
 OpenBabel11042420463D

 27 29  0  0  1  0  0  0  0  0999 V2000
  161.0740  203.0390  149.7220 C   0  0  0  0  0  0  0  0  0  0  0  0
  162.0210  204.3520  147.7690 C   0  0  2  0  0  3  0  0  0  0  0  0
  160.6730  202.4640  151.9940 N   0  0  0  0  0  0  0  0  0  0  0  0
  161.6040  207.1710  147.5210 C   0  0  0  0  0  3  0  0  0  0  0  0
  161.2480  204.3580  150.0860 C   0  0  0  0  0  0  0  0  0  0  0  0
  161.1260  204.7480  151.4220 C   0  0  0  0  0  3  0  0  0  0  0  0
  160.8300  203.7650  152.3750 C   0  0  0  0  0  3  0  0  0  0  0  0
  161.6970  204.9980  146.4900 N   0  0  0  0  0  0  0  0  0  0  0  0
  161.2300  202.7040  147.9720 S   0  0  0  0  0  0  0  0  0  0  0  0
  161.4780  206.5310  148.8440 C   0  0  0  0  0  0  0  0  0  0  0  0
  160.7890  202.0780  150.6920 C   0  0  0  0  0  3  0  0  0  0  0  0
  161.6910  206.4310  146.4120 C   0  0  0  0  0  3  0  0  0  0  0  0
  161.5980  205.1930  148.9430 C   0  0  0  0  0  0  0  0  0  0  0  0
  161.1290  207.3980  150.0120 C   0  0  0  0  0  2  0  0  0  0  0  0
  161.9540  208.5970  150.0080 N   0  0  0  0  0  2  0  0  0  0  0  0
  162.0980  209.0340  151.3870 C   0  0  0  0  0  2  0  0  0  0  0  0
  160.8460  208.6860  152.1720 C   0  0  0  0  0  2  0  0  0  0  0  0
  160.8100  209.4620  153.4810 C   0  0  1  0  0  3  0  0  0  0  0  0
  160.7340  208.5110  154.6740 C   0  0  0  0  0  2  0  0  0  0  0  0
  160.8870  207.0550  154.2570 C   0  0  0  0  0  1  0  0  0  0  0  0
  161.9460  210.7030  154.9240 C   0  0  0  0  0  1  0  0  0  0  0  0
  161.9270  210.2970  153.5890 O   0  0  0  0  0  0  0  0  0  0  0  0
  161.7910  204.2440  145.2470 C   0  0  0  0  0  2  0  0  0  0  0  0
  158.4170  203.2070  143.7880 N   0  0  0  0  0  1  0  0  0  0  0  0
  159.6800  203.1010  144.4300 C   0  0  0  0  0  0  0  0  0  0  0  0
  160.5110  204.2560  144.5500 N   0  0  0  0  0  2  0  0  0  0  0  0
  160.0620  201.9870  144.8780 O   0  0  0  0  0  0  0  0  0  0  0  0
  1  5  2  0  0  0  0
  1 11  1  0  0  0  0
  2  9  1  6  0  0  0
  2 13  1  0  0  0  0
  3  7  1  0  0  0  0
  4 10  1  0  0  0  0
  5  6  1  0  0  0  0
  6  7  2  0  0  0  0
  8  2  1  0  0  0  0
  9  1  1  0  0  0  0
 10 13  2  0  0  0  0
 10 14  1  0  0  0  0
 11  3  2  0  0  0  0
 12  8  1  0  0  0  0
 12  4  2  0  0  0  0
 13  5  1  0  0  0  0
 15 14  1  0  0  0  0
 15 16  1  0  0  0  0
 16 17  1  0  0  0  0
 18 17  1  6  0  0  0
 18 22  1  0  0  0  0
 18 19  1  0  0  0  0
 20 19  1  0  0  0  0
 22 21  1  0  0  0  0
 23  8  1  0  0  0  0
 24 25  1  0  0  0  0
 25 26  1  0  0  0  0
 25 27  2  0  0  0  0
 26 23  1  0  0  0  0
M  END
>  <MODEL>
8

>  <REMARK>
 VINA RESULT:      -6.5      2.160      7.515
  Name = 
  9 active torsions:
  status: ('A' for Active; 'I' for Inactive)
    1  A    between atoms: C_4  and  C_26
    2  A    between atoms: C_8  and  C_13
    3  A    between atoms: C_8  and  C_26
    4  A    between atoms: C_10  and  C_16
    5  A    between atoms: C_10  and  N_17
    6  A    between atoms: C_13  and  N_17
    7  A    between atoms: N_14  and  C_22
    8  A    between atoms: N_21  and  C_22
    9  A    between atoms: C_26  and  O_27
                            x       y       z     vdW  Elec       q    Type
                         _______ _______ _______ _____ _____    ______ ____

>  <TORSDO>
F 9

$$$$
=
 OpenBabel11042420463D

 27 29  0  0  1  0  0  0  0  0999 V2000
  161.8060  208.0200  149.2370 C   0  0  0  0  0  0  0  0  0  0  0  0
  160.8910  205.6710  149.5110 C   0  0  2  0  0  3  0  0  0  0  0  0
  162.1590  210.3140  149.7530 N   0  0  0  0  0  0  0  0  0  0  0  0
  161.2790  204.1870  151.9250 C   0  0  0  0  0  3  0  0  0  0  0  0
  161.6080  207.7490  150.5750 C   0  0  0  0  0  0  0  0  0  0  0  0
  161.6930  208.7690  151.5260 C   0  0  0  0  0  3  0  0  0  0  0  0
  161.9770  210.0670  151.0830 C   0  0  0  0  0  3  0  0  0  0  0  0
  161.2380  204.2430  149.5190 N   0  0  0  0  0  0  0  0  0  0  0  0
  161.6960  206.6060  148.1470 S   0  0  0  0  0  0  0  0  0  0  0  0
  161.3810  205.6580  151.9520 C   0  0  0  0  0  0  0  0  0  0  0  0
  162.0790  209.3230  148.8210 C   0  0  0  0  0  3  0  0  0  0  0  0
  161.2290  203.5280  150.7640 C   0  0  0  0  0  3  0  0  0  0  0  0
  161.2750  206.3470  150.7990 C   0  0  0  0  0  0  0  0  0  0  0  0
  161.6910  206.3170  153.2580 C   0  0  0  0  0  2  0  0  0  0  0  0
  160.4590  206.6130  153.9730 N   0  0  0  0  0  2  0  0  0  0  0  0
  160.8080  206.8670  155.3610 C   0  0  0  0  0  2  0  0  0  0  0  0
  159.9180  207.9620  155.9240 C   0  0  0  0  0  2  0  0  0  0  0  0
  160.6570  208.7430  157.0020 C   0  0  1  0  0  3  0  0  0  0  0  0
  162.1620  208.7370  156.7400 C   0  0  0  0  0  2  0  0  0  0  0  0
  162.8390  209.9970  157.2600 C   0  0  0  0  0  1  0  0  0  0  0  0
  159.4050  210.2210  155.9240 C   0  0  0  0  0  1  0  0  0  0  0  0
  160.1750  210.0540  157.0760 O   0  0  0  0  0  0  0  0  0  0  0  0
  161.1830  203.4710  148.2850 C   0  0  0  0  0  2  0  0  0  0  0  0
  161.7300  204.7620  144.7330 N   0  0  0  0  0  1  0  0  0  0  0  0
  161.4380  203.8620  145.7940 C   0  0  0  0  0  0  0  0  0  0  0  0
  161.5250  204.3130  147.1460 N   0  0  0  0  0  2  0  0  0  0  0  0
  161.1170  202.6730  145.5330 O   0  0  0  0  0  0  0  0  0  0  0  0
  1  5  1  0  0  0  0
  2  9  1  6  0  0  0
  2  8  1  0  0  0  0
  2 13  1  0  0  0  0
  3  7  2  0  0  0  0
  4 10  1  0  0  0  0
  5 13  1  0  0  0  0
  5  6  2  0  0  0  0
  7  6  1  0  0  0  0
  8 12  1  0  0  0  0
  9  1  1  0  0  0  0
 10 14  1  0  0  0  0
 11  1  2  0  0  0  0
 11  3  1  0  0  0  0
 12  4  2  0  0  0  0
 13 10  2  0  0  0  0
 14 15  1  0  0  0  0
 15 16  1  0  0  0  0
 16 17  1  0  0  0  0
 18 17  1  6  0  0  0
 18 22  1  0  0  0  0
 19 18  1  0  0  0  0
 19 20  1  0  0  0  0
 21 22  1  0  0  0  0
 23  8  1  0  0  0  0
 24 25  1  0  0  0  0
 25 26  1  0  0  0  0
 26 23  1  0  0  0  0
 27 25  2  0  0  0  0
M  END
>  <MODEL>
9

>  <REMARK>
 VINA RESULT:      -6.3      2.514      8.541
  Name = 
  9 active torsions:
  status: ('A' for Active; 'I' for Inactive)
    1  A    between atoms: C_4  and  C_26
    2  A    between atoms: C_8  and  C_13
    3  A    between atoms: C_8  and  C_26
    4  A    between atoms: C_10  and  C_16
    5  A    between atoms: C_10  and  N_17
    6  A    between atoms: C_13  and  N_17
    7  A    between atoms: N_14  and  C_22
    8  A    between atoms: N_21  and  C_22
    9  A    between atoms: C_26  and  O_27
                            x       y       z     vdW  Elec       q    Type
                         _______ _______ _______ _____ _____    ______ ____

>  <TORSDO>
F 9

$$$$
