=
 OpenBabel11052409383D

 38 41  0  0  1  0  0  0  0  0999 V2000
  160.5630  209.6660  152.6280 C   0  0  0  0  0  2  0  0  0  0  0  0
  160.2660  212.3400  155.1070 O   0  0  0  0  0  0  0  0  0  0  0  0
  160.8560  210.4960  153.7900 N   0  0  0  0  0  0  0  0  0  0  0  0
  159.9310  211.5140  154.2150 C   0  0  0  0  0  0  0  0  0  0  0  0
  158.6040  212.2180  152.3160 O   0  0  0  0  0  0  0  0  0  0  0  0
  158.4360  213.6120  152.4420 C   0  0  0  0  0  2  0  0  0  0  0  0
  157.5250  212.1860  154.5770 C   0  0  0  0  0  2  0  0  0  0  0  0
  158.5670  211.6110  153.5990 C   0  0  2  0  0  3  0  0  0  0  0  0
  157.0020  213.9510  152.8740 C   0  0  2  0  0  3  0  0  0  0  0  0
  156.4140  212.8820  153.8020 C   0  0  0  0  0  2  0  0  0  0  0  0
  156.0880  214.2140  151.6790 C   0  0  0  0  0  2  0  0  0  0  0  0
  156.8670  214.4530  150.3920 C   0  0  0  0  0  2  0  0  0  0  0  0
  156.2360  213.6850  149.2440 C   0  0  0  0  0  2  0  0  0  0  0  0
  157.3670  212.6670  147.2520 C   0  0  0  0  0  1  0  0  0  0  0  0
  156.9630  213.9600  147.9360 C   0  0  0  0  0  2  0  0  0  0  0  0
  162.2020  210.4300  154.3530 C   0  0  0  0  0  2  0  0  0  0  0  0
  163.3830  210.8520  156.4030 O   0  0  0  0  0  1  0  0  0  0  0  0
  162.1760  210.3910  155.8800 C   0  0  2  0  0  3  0  0  0  0  0  0
  161.9100  209.0460  156.3620 N   0  0  0  0  0  1  0  0  0  0  0  0
  161.8420  209.0440  152.0940 C   0  0  0  0  0  2  0  0  0  0  0  0
  161.0180  203.9960  149.8020 C   0  0  0  0  0  3  0  0  0  0  0  0
  161.0830  205.3520  151.9530 C   0  0  0  0  0  0  0  0  0  0  0  0
  161.3380  206.2290  149.7600 C   0  0  0  0  0  0  0  0  0  0  0  0
  161.2800  206.8430  153.8830 C   0  0  0  0  0  1  0  0  0  0  0  0
  161.3610  205.8210  148.4940 N   0  0  0  0  0  0  0  0  0  0  0  0
  161.1010  205.1600  150.5780 C   0  0  0  0  0  0  0  0  0  0  0  0
  160.8800  204.3780  152.7310 O   0  0  0  0  0  0  0  0  0  0  0  0
  161.4800  203.9510  147.2180 C   0  0  0  0  0  0  0  0  0  0  0  0
  161.3020  206.6190  152.4400 N   0  0  0  0  0  0  0  0  0  0  0  0
  161.8190  204.9920  146.4230 C   0  0  0  0  0  0  0  0  0  0  0  0
  161.1830  204.5120  148.5140 C   0  0  0  0  0  0  0  0  0  0  0  0
  161.8350  206.2890  147.2080 C   0  0  0  0  0  3  0  0  0  0  0  0
  161.5560  207.6710  151.5810 C   0  0  2  0  0  3  0  0  0  0  0  0
  161.5880  207.4710  150.2280 N   0  0  0  0  0  0  0  0  0  0  0  0
  161.4680  202.5850  146.9230 O   0  0  0  0  0  0  0  0  0  0  0  0
  160.7260  202.0340  145.8450 C   0  0  0  0  0  1  0  0  0  0  0  0
  162.1020  204.9430  145.0560 O   0  0  0  0  0  0  0  0  0  0  0  0
  161.2140  205.4570  144.0760 C   0  0  0  0  0  1  0  0  0  0  0  0
  1  3  1  0  0  0  0
  3  4  1  0  0  0  0
  3 16  1  0  0  0  0
  4  2  2  0  0  0  0
  5  6  1  0  0  0  0
  5  8  1  0  0  0  0
  6  9  1  0  0  0  0
  8  4  1  1  0  0  0
  8  7  1  0  0  0  0
  9 11  1  6  0  0  0
  9 10  1  0  0  0  0
 10  7  1  0  0  0  0
 12 11  1  0  0  0  0
 13 12  1  0  0  0  0
 14 15  1  0  0  0  0
 15 13  1  0  0  0  0
 16 18  1  0  0  0  0
 18 19  1  6  0  0  0
 18 17  1  0  0  0  0
 20  1  1  0  0  0  0
 21 26  2  0  0  0  0
 22 29  1  0  0  0  0
 22 27  2  0  0  0  0
 23 34  2  0  0  0  0
 23 26  1  0  0  0  0
 25 31  1  0  0  0  0
 25 23  1  0  0  0  0
 26 22  1  0  0  0  0
 28 31  2  0  0  0  0
 29 24  1  0  0  0  0
 30 32  2  0  0  0  0
 30 28  1  0  0  0  0
 31 21  1  0  0  0  0
 32 25  1  0  0  0  0
 33 20  1  1  0  0  0
 33 29  1  0  0  0  0
 34 33  1  0  0  0  0
 35 28  1  0  0  0  0
 36 35  1  0  0  0  0
 37 30  1  0  0  0  0
 38 37  1  0  0  0  0
M  END
>  <MODEL>
1

>  <REMARK>
 VINA RESULT:      -7.9      0.000      0.000
  Name = 
  12 active torsions:
  status: ('A' for Active; 'I' for Inactive)
    1  A    between atoms: C_4  and  C_12
    2  A    between atoms: C_4  and  N_21
    3  A    between atoms: O_9  and  C_14
    4  A    between atoms: C_12  and  C_24
    5  A    between atoms: C_13  and  C_32
    6  A    between atoms: C_16  and  O_28
    7  A    between atoms: N_21  and  C_32
    8  A    between atoms: C_22  and  C_30
    9  A    between atoms: C_26  and  C_31
   10  A    between atoms: C_26  and  C_35
   11  A    between atoms: C_27  and  C_38
   12  A    between atoms: C_30  and  C_31
                            x       y       z     vdW  Elec       q    Type
                         _______ _______ _______ _____ _____    ______ ____

>  <TORSDO>
F 12

$$$$
=
 OpenBabel11052409383D

 38 41  0  0  1  0  0  0  0  0999 V2000
  160.7150  209.0340  152.0550 C   0  0  0  0  0  2  0  0  0  0  0  0
  160.7840  212.6020  151.2500 O   0  0  0  0  0  0  0  0  0  0  0  0
  161.1900  210.3140  151.5460 N   0  0  0  0  0  0  0  0  0  0  0  0
  160.4710  211.5280  151.8330 C   0  0  0  0  0  0  0  0  0  0  0  0
  158.3500  212.4960  152.4900 O   0  0  0  0  0  0  0  0  0  0  0  0
  158.6500  213.7190  153.1240 C   0  0  0  0  0  2  0  0  0  0  0  0
  159.8330  211.5520  154.2750 C   0  0  0  0  0  2  0  0  0  0  0  0
  159.3380  211.5300  152.8160 C   0  0  2  0  0  3  0  0  0  0  0  0
  158.4470  213.6090  154.6420 C   0  0  2  0  0  3  0  0  0  0  0  0
  158.7900  212.2100  155.1680 C   0  0  0  0  0  2  0  0  0  0  0  0
  157.0430  214.0340  155.0670 C   0  0  0  0  0  2  0  0  0  0  0  0
  156.0400  212.8890  154.9940 C   0  0  0  0  0  2  0  0  0  0  0  0
  155.2970  212.7540  156.3120 C   0  0  0  0  0  2  0  0  0  0  0  0
  155.2850  210.3340  155.6610 C   0  0  0  0  0  1  0  0  0  0  0  0
  155.3320  211.3190  156.8150 C   0  0  0  0  0  2  0  0  0  0  0  0
  162.2600  210.3000  150.5530 C   0  0  0  0  0  2  0  0  0  0  0  0
  161.9650  209.1090  148.4860 O   0  0  0  0  0  1  0  0  0  0  0  0
  161.7120  210.3210  149.1280 C   0  0  2  0  0  3  0  0  0  0  0  0
  162.2890  211.4140  148.3640 N   0  0  0  0  0  1  0  0  0  0  0  0
  161.8820  208.0740  152.2230 C   0  0  0  0  0  2  0  0  0  0  0  0
  160.8870  203.2810  149.4940 C   0  0  0  0  0  3  0  0  0  0  0  0
  160.9800  204.4410  151.7560 C   0  0  0  0  0  0  0  0  0  0  0  0
  161.2950  205.4940  149.6500 C   0  0  0  0  0  0  0  0  0  0  0  0
  161.2140  205.7500  153.8100 C   0  0  0  0  0  1  0  0  0  0  0  0
  161.3160  205.1970  148.3530 N   0  0  0  0  0  0  0  0  0  0  0  0
  161.0060  204.3690  150.3690 C   0  0  0  0  0  0  0  0  0  0  0  0
  160.7310  203.4120  152.4440 O   0  0  0  0  0  0  0  0  0  0  0  0
  161.3760  203.4420  146.9200 C   0  0  0  0  0  0  0  0  0  0  0  0
  161.2440  205.6510  152.3530 N   0  0  0  0  0  0  0  0  0  0  0  0
  161.7640  204.5330  146.2210 C   0  0  0  0  0  0  0  0  0  0  0  0
  161.0870  203.9000  148.2570 C   0  0  0  0  0  0  0  0  0  0  0  0
  161.8220  205.7560  147.1170 C   0  0  0  0  0  3  0  0  0  0  0  0
  161.5480  206.7630  151.5910 C   0  0  2  0  0  3  0  0  0  0  0  0
  161.5870  206.6800  150.2260 N   0  0  0  0  0  0  0  0  0  0  0  0
  161.3140  202.1080  146.5060 O   0  0  0  0  0  0  0  0  0  0  0  0
  160.3450  201.6290  145.5870 C   0  0  0  0  0  1  0  0  0  0  0  0
  162.0610  204.5920  144.8580 O   0  0  0  0  0  0  0  0  0  0  0  0
  161.3040  205.3740  143.9470 C   0  0  0  0  0  1  0  0  0  0  0  0
  1 20  1  0  0  0  0
  2  4  2  0  0  0  0
  3  4  1  0  0  0  0
  3  1  1  0  0  0  0
  5  8  1  0  0  0  0
  5  6  1  0  0  0  0
  6  9  1  0  0  0  0
  7 10  1  0  0  0  0
  8  4  1  6  0  0  0
  8  7  1  0  0  0  0
  9 11  1  6  0  0  0
  9 10  1  0  0  0  0
 12 11  1  0  0  0  0
 12 13  1  0  0  0  0
 13 15  1  0  0  0  0
 14 15  1  0  0  0  0
 16  3  1  0  0  0  0
 17 18  1  0  0  0  0
 18 19  1  6  0  0  0
 18 16  1  0  0  0  0
 21 26  2  0  0  0  0
 22 29  1  0  0  0  0
 22 27  2  0  0  0  0
 23 34  2  0  0  0  0
 23 26  1  0  0  0  0
 25 23  1  0  0  0  0
 26 22  1  0  0  0  0
 28 31  2  0  0  0  0
 29 24  1  0  0  0  0
 30 28  1  0  0  0  0
 30 32  2  0  0  0  0
 31 25  1  0  0  0  0
 31 21  1  0  0  0  0
 32 25  1  0  0  0  0
 33 20  1  1  0  0  0
 33 29  1  0  0  0  0
 34 33  1  0  0  0  0
 35 28  1  0  0  0  0
 36 35  1  0  0  0  0
 37 30  1  0  0  0  0
 38 37  1  0  0  0  0
M  END
>  <MODEL>
2

>  <REMARK>
 VINA RESULT:      -7.7      2.363      3.679
  Name = 
  12 active torsions:
  status: ('A' for Active; 'I' for Inactive)
    1  A    between atoms: C_4  and  C_12
    2  A    between atoms: C_4  and  N_21
    3  A    between atoms: O_9  and  C_14
    4  A    between atoms: C_12  and  C_24
    5  A    between atoms: C_13  and  C_32
    6  A    between atoms: C_16  and  O_28
    7  A    between atoms: N_21  and  C_32
    8  A    between atoms: C_22  and  C_30
    9  A    between atoms: C_26  and  C_31
   10  A    between atoms: C_26  and  C_35
   11  A    between atoms: C_27  and  C_38
   12  A    between atoms: C_30  and  C_31
                            x       y       z     vdW  Elec       q    Type
                         _______ _______ _______ _____ _____    ______ ____

>  <TORSDO>
F 12

$$$$
=
 OpenBabel11052409383D

 38 41  0  0  1  0  0  0  0  0999 V2000
  161.4780  210.3770  150.7530 C   0  0  0  0  0  2  0  0  0  0  0  0
  160.3630  213.8200  150.2210 O   0  0  0  0  0  0  0  0  0  0  0  0
  160.8300  211.6600  150.9950 N   0  0  0  0  0  0  0  0  0  0  0  0
  160.7660  212.6550  149.9570 C   0  0  0  0  0  0  0  0  0  0  0  0
  162.4220  212.9310  148.2110 O   0  0  0  0  0  0  0  0  0  0  0  0
  162.1900  214.1980  147.6380 C   0  0  0  0  0  2  0  0  0  0  0  0
  160.0420  212.5250  147.5410 C   0  0  0  0  0  2  0  0  0  0  0  0
  161.1850  212.3240  148.5550 C   0  0  2  0  0  3  0  0  0  0  0  0
  161.5480  214.0580  146.2500 C   0  0  2  0  0  3  0  0  0  0  0  0
  160.6150  212.8440  146.1670 C   0  0  0  0  0  2  0  0  0  0  0  0
  162.5900  214.0350  145.1340 C   0  0  0  0  0  2  0  0  0  0  0  0
  161.9700  213.7970  143.7620 C   0  0  0  0  0  2  0  0  0  0  0  0
  162.7640  212.7490  143.0010 C   0  0  0  0  0  2  0  0  0  0  0  0
  160.6170  211.6430  142.3290 C   0  0  0  0  0  1  0  0  0  0  0  0
  161.9520  212.1800  141.8470 C   0  0  0  0  0  2  0  0  0  0  0  0
  160.4690  211.9930  152.3700 C   0  0  0  0  0  2  0  0  0  0  0  0
  158.5550  213.3570  152.8690 O   0  0  0  0  0  1  0  0  0  0  0  0
  158.9550  212.0580  152.5580 C   0  0  2  0  0  3  0  0  0  0  0  0
  158.5200  211.1440  153.6000 N   0  0  0  0  0  1  0  0  0  0  0  0
  161.4850  209.5460  152.0250 C   0  0  0  0  0  2  0  0  0  0  0  0
  161.1020  204.2120  150.3480 C   0  0  0  0  0  3  0  0  0  0  0  0
  161.0960  205.8060  152.3300 C   0  0  0  0  0  0  0  0  0  0  0  0
  161.1960  206.4460  150.0440 C   0  0  0  0  0  0  0  0  0  0  0  0
  161.2010  207.5210  154.0720 C   0  0  0  0  0  1  0  0  0  0  0  0
  161.2210  205.8990  148.8310 N   0  0  0  0  0  0  0  0  0  0  0  0
  161.0920  205.4600  150.9850 C   0  0  0  0  0  0  0  0  0  0  0  0
  161.0160  204.9140  153.2190 O   0  0  0  0  0  0  0  0  0  0  0  0
  161.4880  203.9150  147.7680 C   0  0  0  0  0  0  0  0  0  0  0  0
  161.2020  207.1360  152.6630 N   0  0  0  0  0  0  0  0  0  0  0  0
  161.6970  204.8850  146.8480 C   0  0  0  0  0  0  0  0  0  0  0  0
  161.1760  204.5900  149.0040 C   0  0  0  0  0  0  0  0  0  0  0  0
  161.6050  206.2590  147.4830 C   0  0  0  0  0  3  0  0  0  0  0  0
  161.3220  208.1020  151.6820 C   0  0  2  0  0  3  0  0  0  0  0  0
  161.3330  207.7510  150.3600 N   0  0  0  0  0  0  0  0  0  0  0  0
  161.6050  202.5280  147.6280 O   0  0  0  0  0  0  0  0  0  0  0  0
  160.7640  201.7650  146.7770 C   0  0  0  0  0  1  0  0  0  0  0  0
  161.9410  204.7060  145.4850 O   0  0  0  0  0  0  0  0  0  0  0  0
  161.0660  205.2000  144.4840 C   0  0  0  0  0  1  0  0  0  0  0  0
  1  3  1  0  0  0  0
  1 20  1  0  0  0  0
  3 16  1  0  0  0  0
  4  2  2  0  0  0  0
  4  3  1  0  0  0  0
  5  8  1  0  0  0  0
  6  5  1  0  0  0  0
  7  8  1  0  0  0  0
  8  4  1  1  0  0  0
  9 11  1  6  0  0  0
  9  6  1  0  0  0  0
 10  9  1  0  0  0  0
 10  7  1  0  0  0  0
 12 11  1  0  0  0  0
 13 12  1  0  0  0  0
 15 14  1  0  0  0  0
 15 13  1  0  0  0  0
 16 18  1  0  0  0  0
 18 17  1  1  0  0  0
 18 19  1  0  0  0  0
 21 26  2  0  0  0  0
 22 29  1  0  0  0  0
 22 27  2  0  0  0  0
 23 34  2  0  0  0  0
 23 26  1  0  0  0  0
 25 31  1  0  0  0  0
 25 23  1  0  0  0  0
 26 22  1  0  0  0  0
 28 31  2  0  0  0  0
 29 24  1  0  0  0  0
 30 32  2  0  0  0  0
 30 28  1  0  0  0  0
 31 21  1  0  0  0  0
 32 25  1  0  0  0  0
 33 20  1  1  0  0  0
 33 29  1  0  0  0  0
 34 33  1  0  0  0  0
 35 28  1  0  0  0  0
 36 35  1  0  0  0  0
 37 30  1  0  0  0  0
 38 37  1  0  0  0  0
M  END
>  <MODEL>
3

>  <REMARK>
 VINA RESULT:      -7.6      3.120      4.598
  Name = 
  12 active torsions:
  status: ('A' for Active; 'I' for Inactive)
    1  A    between atoms: C_4  and  C_12
    2  A    between atoms: C_4  and  N_21
    3  A    between atoms: O_9  and  C_14
    4  A    between atoms: C_12  and  C_24
    5  A    between atoms: C_13  and  C_32
    6  A    between atoms: C_16  and  O_28
    7  A    between atoms: N_21  and  C_32
    8  A    between atoms: C_22  and  C_30
    9  A    between atoms: C_26  and  C_31
   10  A    between atoms: C_26  and  C_35
   11  A    between atoms: C_27  and  C_38
   12  A    between atoms: C_30  and  C_31
                            x       y       z     vdW  Elec       q    Type
                         _______ _______ _______ _____ _____    ______ ____

>  <TORSDO>
F 12

$$$$
=
 OpenBabel11052409383D

 38 41  0  0  1  0  0  0  0  0999 V2000
  159.5020  210.6990  152.7060 C   0  0  0  0  0  2  0  0  0  0  0  0
  159.5440  214.3510  152.4910 O   0  0  0  0  0  0  0  0  0  0  0  0
  159.4520  212.0960  153.1180 N   0  0  0  0  0  0  0  0  0  0  0  0
  159.4110  213.1480  152.1360 C   0  0  0  0  0  0  0  0  0  0  0  0
  160.4580  212.7550  149.9870 O   0  0  0  0  0  0  0  0  0  0  0  0
  160.7900  214.0230  149.4680 C   0  0  0  0  0  2  0  0  0  0  0  0
  158.1420  213.7100  150.0270 C   0  0  0  0  0  2  0  0  0  0  0  0
  159.2220  212.8280  150.6830 C   0  0  2  0  0  3  0  0  0  0  0  0
  159.8430  214.4060  148.3210 C   0  0  2  0  0  3  0  0  0  0  0  0
  158.4270  213.8610  148.5390 C   0  0  0  0  0  2  0  0  0  0  0  0
  160.3940  213.9940  146.9580 C   0  0  0  0  0  2  0  0  0  0  0  0
  159.5140  212.9630  146.2610 C   0  0  0  0  0  2  0  0  0  0  0  0
  160.1220  212.5680  144.9260 C   0  0  0  0  0  2  0  0  0  0  0  0
  162.1180  212.7760  143.4250 C   0  0  0  0  0  1  0  0  0  0  0  0
  161.5070  213.1740  144.7550 C   0  0  0  0  0  2  0  0  0  0  0  0
  159.6850  212.4010  154.5270 C   0  0  0  0  0  2  0  0  0  0  0  0
  157.9480  212.9230  156.1030 O   0  0  0  0  0  1  0  0  0  0  0  0
  158.5590  211.8760  155.4140 C   0  0  2  0  0  3  0  0  0  0  0  0
  159.0550  210.8880  156.3560 N   0  0  0  0  0  1  0  0  0  0  0  0
  160.9070  210.1500  152.8900 C   0  0  0  0  0  2  0  0  0  0  0  0
  161.2780  204.9920  150.7290 C   0  0  0  0  0  3  0  0  0  0  0  0
  161.1520  206.3860  152.8530 C   0  0  0  0  0  0  0  0  0  0  0  0
  160.9870  207.2270  150.6370 C   0  0  0  0  0  0  0  0  0  0  0  0
  161.1000  207.9380  154.7440 C   0  0  0  0  0  1  0  0  0  0  0  0
  161.0150  206.7990  149.3780 N   0  0  0  0  0  0  0  0  0  0  0  0
  161.1100  206.1610  151.4830 C   0  0  0  0  0  0  0  0  0  0  0  0
  161.2800  205.4190  153.6550 O   0  0  0  0  0  0  0  0  0  0  0  0
  161.5260  204.9870  148.1160 C   0  0  0  0  0  0  0  0  0  0  0  0
  161.0640  207.6810  153.3060 N   0  0  0  0  0  0  0  0  0  0  0  0
  161.5100  206.0530  147.2830 C   0  0  0  0  0  0  0  0  0  0  0  0
  161.1950  205.4910  149.4260 C   0  0  0  0  0  0  0  0  0  0  0  0
  161.2410  207.3340  148.0520 C   0  0  0  0  0  3  0  0  0  0  0  0
  160.9570  208.7340  152.4180 C   0  0  2  0  0  3  0  0  0  0  0  0
  160.9320  208.5050  151.0700 N   0  0  0  0  0  0  0  0  0  0  0  0
  161.8560  203.6570  147.8360 O   0  0  0  0  0  0  0  0  0  0  0  0
  161.0550  202.5600  148.2480 C   0  0  0  0  0  1  0  0  0  0  0  0
  161.6840  206.0360  145.8980 O   0  0  0  0  0  0  0  0  0  0  0  0
  160.6380  205.6920  145.0030 C   0  0  0  0  0  1  0  0  0  0  0  0
  1 20  1  0  0  0  0
  1  3  1  0  0  0  0
  3 16  1  0  0  0  0
  4  2  2  0  0  0  0
  4  3  1  0  0  0  0
  5  8  1  0  0  0  0
  6  5  1  0  0  0  0
  7  8  1  0  0  0  0
  8  4  1  1  0  0  0
  9 11  1  6  0  0  0
  9 10  1  0  0  0  0
  9  6  1  0  0  0  0
 10  7  1  0  0  0  0
 12 11  1  0  0  0  0
 13 12  1  0  0  0  0
 14 15  1  0  0  0  0
 15 13  1  0  0  0  0
 16 18  1  0  0  0  0
 18 17  1  1  0  0  0
 18 19  1  0  0  0  0
 21 26  2  0  0  0  0
 22 29  1  0  0  0  0
 22 27  2  0  0  0  0
 23 34  2  0  0  0  0
 23 26  1  0  0  0  0
 25 31  1  0  0  0  0
 25 23  1  0  0  0  0
 26 22  1  0  0  0  0
 28 31  2  0  0  0  0
 29 24  1  0  0  0  0
 30 32  2  0  0  0  0
 30 28  1  0  0  0  0
 31 21  1  0  0  0  0
 32 25  1  0  0  0  0
 33 20  1  6  0  0  0
 33 29  1  0  0  0  0
 34 33  1  0  0  0  0
 35 28  1  0  0  0  0
 35 36  1  0  0  0  0
 37 30  1  0  0  0  0
 38 37  1  0  0  0  0
M  END
>  <MODEL>
4

>  <REMARK>
 VINA RESULT:      -7.6      2.250      3.360
  Name = 
  12 active torsions:
  status: ('A' for Active; 'I' for Inactive)
    1  A    between atoms: C_4  and  C_12
    2  A    between atoms: C_4  and  N_21
    3  A    between atoms: O_9  and  C_14
    4  A    between atoms: C_12  and  C_24
    5  A    between atoms: C_13  and  C_32
    6  A    between atoms: C_16  and  O_28
    7  A    between atoms: N_21  and  C_32
    8  A    between atoms: C_22  and  C_30
    9  A    between atoms: C_26  and  C_31
   10  A    between atoms: C_26  and  C_35
   11  A    between atoms: C_27  and  C_38
   12  A    between atoms: C_30  and  C_31
                            x       y       z     vdW  Elec       q    Type
                         _______ _______ _______ _____ _____    ______ ____

>  <TORSDO>
F 12

$$$$
=
 OpenBabel11052409383D

 38 41  0  0  1  0  0  0  0  0999 V2000
  161.4070  211.0150  147.8780 C   0  0  0  0  0  2  0  0  0  0  0  0
  161.0110  214.4520  146.6900 O   0  0  0  0  0  0  0  0  0  0  0  0
  161.1390  212.4470  147.8940 N   0  0  0  0  0  0  0  0  0  0  0  0
  161.0670  213.1930  146.6640 C   0  0  0  0  0  0  0  0  0  0  0  0
  162.2710  212.7100  144.6180 O   0  0  0  0  0  0  0  0  0  0  0  0
  162.1270  213.8450  143.7940 C   0  0  0  0  0  2  0  0  0  0  0  0
  159.7660  212.7170  144.5540 C   0  0  0  0  0  2  0  0  0  0  0  0
  161.0700  212.4850  145.3420 C   0  0  2  0  0  3  0  0  0  0  0  0
  161.1520  213.5600  142.6420 C   0  0  2  0  0  3  0  0  0  0  0  0
  160.0340  212.5980  143.0590 C   0  0  0  0  0  2  0  0  0  0  0  0
  161.8720  213.0660  141.3890 C   0  0  0  0  0  2  0  0  0  0  0  0
  161.9160  211.5460  141.3040 C   0  0  0  0  0  2  0  0  0  0  0  0
  162.5680  211.1100  140.0030 C   0  0  0  0  0  2  0  0  0  0  0  0
  160.2800  210.2190  139.5000 C   0  0  0  0  0  1  0  0  0  0  0  0
  161.5240  210.8680  138.9230 C   0  0  0  0  0  2  0  0  0  0  0  0
  161.1860  213.1360  149.1800 C   0  0  0  0  0  2  0  0  0  0  0  0
  159.0980  214.3180  149.2990 O   0  0  0  0  0  1  0  0  0  0  0  0
  159.8040  213.2350  149.8210 C   0  0  2  0  0  3  0  0  0  0  0  0
  159.9060  213.3620  151.2650 N   0  0  0  0  0  1  0  0  0  0  0  0
  162.2450  210.6270  149.0850 C   0  0  0  0  0  2  0  0  0  0  0  0
  161.2200  205.2300  150.2020 C   0  0  0  0  0  3  0  0  0  0  0  0
  161.5900  207.5530  151.1720 C   0  0  0  0  0  0  0  0  0  0  0  0
  161.4580  207.0270  148.8590 C   0  0  0  0  0  0  0  0  0  0  0  0
  162.0510  209.8530  151.8660 C   0  0  0  0  0  1  0  0  0  0  0  0
  161.2890  205.9780  148.0580 N   0  0  0  0  0  0  0  0  0  0  0  0
  161.3910  206.6210  150.1610 C   0  0  0  0  0  0  0  0  0  0  0  0
  161.5470  207.2000  152.3830 O   0  0  0  0  0  0  0  0  0  0  0  0
  161.2580  203.7110  148.0620 C   0  0  0  0  0  0  0  0  0  0  0  0
  161.8450  208.8560  150.8180 N   0  0  0  0  0  0  0  0  0  0  0  0
  161.4300  204.1000  146.7770 C   0  0  0  0  0  0  0  0  0  0  0  0
  161.1570  204.9210  148.8400 C   0  0  0  0  0  0  0  0  0  0  0  0
  161.5320  205.6110  146.6790 C   0  0  0  0  0  3  0  0  0  0  0  0
  161.9220  209.2250  149.4880 C   0  0  2  0  0  3  0  0  0  0  0  0
  161.7410  208.2980  148.4990 N   0  0  0  0  0  0  0  0  0  0  0  0
  161.2420  202.4190  148.5950 O   0  0  0  0  0  0  0  0  0  0  0  0
  160.0810  201.8340  149.1650 C   0  0  0  0  0  1  0  0  0  0  0  0
  161.4890  203.2740  145.6530 O   0  0  0  0  0  0  0  0  0  0  0  0
  160.5000  202.2940  145.3770 C   0  0  0  0  0  1  0  0  0  0  0  0
  1  3  1  0  0  0  0
  1 20  1  0  0  0  0
  3 16  1  0  0  0  0
  4  2  2  0  0  0  0
  4  3  1  0  0  0  0
  5  8  1  0  0  0  0
  6  5  1  0  0  0  0
  7  8  1  0  0  0  0
  8  4  1  1  0  0  0
  9 11  1  6  0  0  0
  9 10  1  0  0  0  0
  9  6  1  0  0  0  0
 10  7  1  0  0  0  0
 12 11  1  0  0  0  0
 13 12  1  0  0  0  0
 15 14  1  0  0  0  0
 15 13  1  0  0  0  0
 16 18  1  0  0  0  0
 18 17  1  6  0  0  0
 18 19  1  0  0  0  0
 22 27  2  0  0  0  0
 23 26  1  0  0  0  0
 25 31  1  0  0  0  0
 25 23  1  0  0  0  0
 26 21  2  0  0  0  0
 26 22  1  0  0  0  0
 28 35  1  0  0  0  0
 28 31  2  0  0  0  0
 29 22  1  0  0  0  0
 29 24  1  0  0  0  0
 30 28  1  0  0  0  0
 31 21  1  0  0  0  0
 32 30  2  0  0  0  0
 32 25  1  0  0  0  0
 33 20  1  1  0  0  0
 33 29  1  0  0  0  0
 34 23  2  0  0  0  0
 34 33  1  0  0  0  0
 35 36  1  0  0  0  0
 37 30  1  0  0  0  0
 38 37  1  0  0  0  0
M  END
>  <MODEL>
5

>  <REMARK>
 VINA RESULT:      -7.5      4.140      6.652
  Name = 
  12 active torsions:
  status: ('A' for Active; 'I' for Inactive)
    1  A    between atoms: C_4  and  C_12
    2  A    between atoms: C_4  and  N_21
    3  A    between atoms: O_9  and  C_14
    4  A    between atoms: C_12  and  C_24
    5  A    between atoms: C_13  and  C_32
    6  A    between atoms: C_16  and  O_28
    7  A    between atoms: N_21  and  C_32
    8  A    between atoms: C_22  and  C_30
    9  A    between atoms: C_26  and  C_31
   10  A    between atoms: C_26  and  C_35
   11  A    between atoms: C_27  and  C_38
   12  A    between atoms: C_30  and  C_31
                            x       y       z     vdW  Elec       q    Type
                         _______ _______ _______ _____ _____    ______ ____

>  <TORSDO>
F 12

$$$$
=
 OpenBabel11052409383D

 38 41  0  0  1  0  0  0  0  0999 V2000
  158.7700  211.9410  153.4440 C   0  0  0  0  0  2  0  0  0  0  0  0
  161.9660  210.5670  154.5760 O   0  0  0  0  0  0  0  0  0  0  0  0
  159.9860  211.7680  154.2290 N   0  0  0  0  0  0  0  0  0  0  0  0
  161.0030  210.8400  153.8090 C   0  0  0  0  0  0  0  0  0  0  0  0
  160.0910  209.0310  152.4810 O   0  0  0  0  0  0  0  0  0  0  0  0
  160.8590  207.8880  152.7850 C   0  0  0  0  0  2  0  0  0  0  0  0
  162.3170  209.9830  151.8310 C   0  0  0  0  0  2  0  0  0  0  0  0
  160.9260  210.1800  152.4640 C   0  0  2  0  0  3  0  0  0  0  0  0
  161.7980  207.5390  151.6210 C   0  0  2  0  0  3  0  0  0  0  0  0
  162.2920  208.7890  150.8850 C   0  0  0  0  0  2  0  0  0  0  0  0
  161.1690  206.5370  150.6550 C   0  0  0  0  0  2  0  0  0  0  0  0
  161.2490  206.9970  149.2050 C   0  0  0  0  0  2  0  0  0  0  0  0
  160.6750  205.9350  148.2830 C   0  0  0  0  0  2  0  0  0  0  0  0
  161.5750  203.9170  147.1010 C   0  0  0  0  0  1  0  0  0  0  0  0
  161.4180  204.6170  148.4380 C   0  0  0  0  0  2  0  0  0  0  0  0
  160.0330  212.3750  155.5560 C   0  0  0  0  0  2  0  0  0  0  0  0
  159.1350  210.2490  156.2260 O   0  0  0  0  0  1  0  0  0  0  0  0
  159.1850  211.6010  156.5630 C   0  0  2  0  0  3  0  0  0  0  0  0
  157.8380  212.1420  156.6350 N   0  0  0  0  0  1  0  0  0  0  0  0
  158.4860  213.4200  153.2390 C   0  0  0  0  0  2  0  0  0  0  0  0
  157.0300  214.0030  147.8580 C   0  0  0  0  0  3  0  0  0  0  0  0
  156.2560  214.1190  150.2780 C   0  0  0  0  0  0  0  0  0  0  0  0
  158.4830  213.7100  149.5590 C   0  0  0  0  0  0  0  0  0  0  0  0
  155.7300  214.0870  152.6680 C   0  0  0  0  0  1  0  0  0  0  0  0
  159.1870  213.5860  148.4370 N   0  0  0  0  0  0  0  0  0  0  0  0
  157.1820  213.9940  149.2510 C   0  0  0  0  0  0  0  0  0  0  0  0
  155.0450  214.3670  150.0190 O   0  0  0  0  0  0  0  0  0  0  0  0
  158.9520  213.3470  146.1950 C   0  0  0  0  0  0  0  0  0  0  0  0
  156.6880  213.9530  151.5730 N   0  0  0  0  0  0  0  0  0  0  0  0
  160.2130  212.9620  146.5020 C   0  0  0  0  0  0  0  0  0  0  0  0
  158.3380  213.7480  147.4370 C   0  0  0  0  0  0  0  0  0  0  0  0
  160.4470  213.0230  147.9990 C   0  0  0  0  0  3  0  0  0  0  0  0
  158.0090  213.6490  151.8420 C   0  0  2  0  0  3  0  0  0  0  0  0
  158.9120  213.5130  150.8240 N   0  0  0  0  0  0  0  0  0  0  0  0
  158.3000  213.3180  144.9590 O   0  0  0  0  0  0  0  0  0  0  0  0
  158.5800  214.2390  143.9160 C   0  0  0  0  0  1  0  0  0  0  0  0
  161.2110  212.5760  145.6050 O   0  0  0  0  0  0  0  0  0  0  0  0
  162.1280  213.5020  145.0430 C   0  0  0  0  0  1  0  0  0  0  0  0
  1  3  1  0  0  0  0
  3 16  1  0  0  0  0
  4  3  1  0  0  0  0
  4  2  2  0  0  0  0
  5  6  1  0  0  0  0
  7  8  1  0  0  0  0
  8  5  1  0  0  0  0
  8  4  1  1  0  0  0
  9 11  1  6  0  0  0
  9  6  1  0  0  0  0
 10  9  1  0  0  0  0
 10  7  1  0  0  0  0
 12 11  1  0  0  0  0
 13 15  1  0  0  0  0
 13 12  1  0  0  0  0
 14 15  1  0  0  0  0
 16 18  1  0  0  0  0
 18 17  1  6  0  0  0
 18 19  1  0  0  0  0
 20  1  1  0  0  0  0
 21 26  2  0  0  0  0
 22 29  1  0  0  0  0
 23 34  2  0  0  0  0
 25 23  1  0  0  0  0
 26 23  1  0  0  0  0
 26 22  1  0  0  0  0
 27 22  2  0  0  0  0
 28 30  1  0  0  0  0
 28 31  2  0  0  0  0
 29 33  1  0  0  0  0
 29 24  1  0  0  0  0
 30 32  2  0  0  0  0
 31 21  1  0  0  0  0
 31 25  1  0  0  0  0
 32 25  1  0  0  0  0
 33 20  1  6  0  0  0
 34 33  1  0  0  0  0
 35 28  1  0  0  0  0
 36 35  1  0  0  0  0
 37 30  1  0  0  0  0
 38 37  1  0  0  0  0
M  END
>  <MODEL>
6

>  <REMARK>
 VINA RESULT:      -7.1      3.200      7.847
  Name = 
  12 active torsions:
  status: ('A' for Active; 'I' for Inactive)
    1  A    between atoms: C_4  and  C_12
    2  A    between atoms: C_4  and  N_21
    3  A    between atoms: O_9  and  C_14
    4  A    between atoms: C_12  and  C_24
    5  A    between atoms: C_13  and  C_32
    6  A    between atoms: C_16  and  O_28
    7  A    between atoms: N_21  and  C_32
    8  A    between atoms: C_22  and  C_30
    9  A    between atoms: C_26  and  C_31
   10  A    between atoms: C_26  and  C_35
   11  A    between atoms: C_27  and  C_38
   12  A    between atoms: C_30  and  C_31
                            x       y       z     vdW  Elec       q    Type
                         _______ _______ _______ _____ _____    ______ ____

>  <TORSDO>
F 12

$$$$
=
 OpenBabel11052409383D

 38 41  0  0  1  0  0  0  0  0999 V2000
  161.3520  210.9540  149.2790 C   0  0  0  0  0  2  0  0  0  0  0  0
  160.4460  214.4520  149.8450 O   0  0  0  0  0  0  0  0  0  0  0  0
  161.4350  212.4080  149.2720 N   0  0  0  0  0  0  0  0  0  0  0  0
  160.4750  213.2000  149.9950 C   0  0  0  0  0  0  0  0  0  0  0  0
  158.1670  213.0040  150.7030 O   0  0  0  0  0  0  0  0  0  0  0  0
  157.9030  214.1240  151.5170 C   0  0  0  0  0  2  0  0  0  0  0  0
  159.9710  212.5790  152.3900 C   0  0  0  0  0  2  0  0  0  0  0  0
  159.4940  212.5490  150.9250 C   0  0  2  0  0  3  0  0  0  0  0  0
  157.8190  213.7150  152.9950 C   0  0  2  0  0  3  0  0  0  0  0  0
  158.7710  212.5600  153.3270 C   0  0  0  0  0  2  0  0  0  0  0  0
  156.3880  213.3960  153.4230 C   0  0  0  0  0  2  0  0  0  0  0  0
  156.1520  213.6520  154.9060 C   0  0  0  0  0  2  0  0  0  0  0  0
  155.9770  212.3370  155.6460 C   0  0  0  0  0  2  0  0  0  0  0  0
  155.1900  209.9710  155.3950 C   0  0  0  0  0  1  0  0  0  0  0  0
  155.7300  211.1920  154.6750 C   0  0  0  0  0  2  0  0  0  0  0  0
  162.3590  213.0340  148.3300 C   0  0  0  0  0  2  0  0  0  0  0  0
  162.7050  213.5510  146.0090 O   0  0  0  0  0  1  0  0  0  0  0  0
  161.9700  212.7490  146.8810 C   0  0  2  0  0  3  0  0  0  0  0  0
  160.5490  212.9630  146.6700 N   0  0  0  0  0  1  0  0  0  0  0  0
  162.2040  210.3870  150.4040 C   0  0  0  0  0  2  0  0  0  0  0  0
  161.0160  204.9330  150.9170 C   0  0  0  0  0  3  0  0  0  0  0  0
  161.3440  207.1450  152.1300 C   0  0  0  0  0  0  0  0  0  0  0  0
  161.3850  206.8440  149.7740 C   0  0  0  0  0  0  0  0  0  0  0  0
  161.7840  209.3590  153.0750 C   0  0  0  0  0  1  0  0  0  0  0  0
  161.2620  205.8790  148.8660 N   0  0  0  0  0  0  0  0  0  0  0  0
  161.2100  206.3170  151.0230 C   0  0  0  0  0  0  0  0  0  0  0  0
  161.2030  206.6800  153.2960 O   0  0  0  0  0  0  0  0  0  0  0  0
  161.1980  203.6230  148.6500 C   0  0  0  0  0  0  0  0  0  0  0  0
  161.6460  208.4700  151.9240 N   0  0  0  0  0  0  0  0  0  0  0  0
  161.4750  204.1280  147.4250 C   0  0  0  0  0  0  0  0  0  0  0  0
  161.0550  204.7560  149.5310 C   0  0  0  0  0  0  0  0  0  0  0  0
  161.6060  205.6380  147.4810 C   0  0  0  0  0  3  0  0  0  0  0  0
  161.8300  208.9610  150.6450 C   0  0  2  0  0  3  0  0  0  0  0  0
  161.7120  208.1360  149.5610 N   0  0  0  0  0  0  0  0  0  0  0  0
  161.1210  202.2870  149.0550 O   0  0  0  0  0  0  0  0  0  0  0  0
  159.8950  201.6410  149.3570 C   0  0  0  0  0  1  0  0  0  0  0  0
  161.6080  203.4100  146.2350 O   0  0  0  0  0  0  0  0  0  0  0  0
  161.7800  204.0460  144.9780 C   0  0  0  0  0  1  0  0  0  0  0  0
  1 20  1  0  0  0  0
  2  4  2  0  0  0  0
  3  1  1  0  0  0  0
  3  4  1  0  0  0  0
  5  8  1  0  0  0  0
  5  6  1  0  0  0  0
  6  9  1  0  0  0  0
  7 10  1  0  0  0  0
  8  4  1  6  0  0  0
  8  7  1  0  0  0  0
  9 10  1  0  0  0  0
  9 11  1  6  0  0  0
 11 12  1  0  0  0  0
 12 13  1  0  0  0  0
 15 14  1  0  0  0  0
 15 13  1  0  0  0  0
 16  3  1  0  0  0  0
 18 17  1  6  0  0  0
 18 16  1  0  0  0  0
 19 18  1  0  0  0  0
 21 26  2  0  0  0  0
 22 27  2  0  0  0  0
 23 26  1  0  0  0  0
 25 31  1  0  0  0  0
 25 23  1  0  0  0  0
 26 22  1  0  0  0  0
 28 35  1  0  0  0  0
 28 31  2  0  0  0  0
 29 22  1  0  0  0  0
 29 24  1  0  0  0  0
 30 32  2  0  0  0  0
 30 28  1  0  0  0  0
 31 21  1  0  0  0  0
 32 25  1  0  0  0  0
 33 20  1  1  0  0  0
 33 29  1  0  0  0  0
 34 23  2  0  0  0  0
 34 33  1  0  0  0  0
 35 36  1  0  0  0  0
 37 30  1  0  0  0  0
 38 37  1  0  0  0  0
M  END
>  <MODEL>
7

>  <REMARK>
 VINA RESULT:      -7.1      2.741      4.423
  Name = 
  12 active torsions:
  status: ('A' for Active; 'I' for Inactive)
    1  A    between atoms: C_4  and  C_12
    2  A    between atoms: C_4  and  N_21
    3  A    between atoms: O_9  and  C_14
    4  A    between atoms: C_12  and  C_24
    5  A    between atoms: C_13  and  C_32
    6  A    between atoms: C_16  and  O_28
    7  A    between atoms: N_21  and  C_32
    8  A    between atoms: C_22  and  C_30
    9  A    between atoms: C_26  and  C_31
   10  A    between atoms: C_26  and  C_35
   11  A    between atoms: C_27  and  C_38
   12  A    between atoms: C_30  and  C_31
                            x       y       z     vdW  Elec       q    Type
                         _______ _______ _______ _____ _____    ______ ____

>  <TORSDO>
F 12

$$$$
=
 OpenBabel11052409383D

 38 41  0  0  1  0  0  0  0  0999 V2000
  159.8440  210.8510  152.5900 C   0  0  0  0  0  2  0  0  0  0  0  0
  162.4410  208.3620  153.2560 O   0  0  0  0  0  0  0  0  0  0  0  0
  161.0440  210.2380  153.1450 N   0  0  0  0  0  0  0  0  0  0  0  0
  161.5090  208.9660  152.6580 C   0  0  0  0  0  0  0  0  0  0  0  0
  160.5810  206.9690  151.6500 O   0  0  0  0  0  0  0  0  0  0  0  0
  161.6770  206.1710  151.2650 C   0  0  0  0  0  2  0  0  0  0  0  0
  161.6730  208.6600  150.1570 C   0  0  0  0  0  2  0  0  0  0  0  0
  160.8880  208.3400  151.4440 C   0  0  2  0  0  3  0  0  0  0  0  0
  161.8590  206.1940  149.7400 C   0  0  2  0  0  3  0  0  0  0  0  0
  161.4710  207.5490  149.1360 C   0  0  0  0  0  2  0  0  0  0  0  0
  161.1190  205.0470  149.0550 C   0  0  0  0  0  2  0  0  0  0  0  0
  161.9770  204.3400  148.0130 C   0  0  0  0  0  2  0  0  0  0  0  0
  161.1970  204.1580  146.7230 C   0  0  0  0  0  2  0  0  0  0  0  0
  160.3890  206.2300  145.5670 C   0  0  0  0  0  1  0  0  0  0  0  0
  161.5370  205.2500  145.7190 C   0  0  0  0  0  2  0  0  0  0  0  0
  161.6140  210.8260  154.3540 C   0  0  0  0  0  2  0  0  0  0  0  0
  160.6100  211.5120  156.4270 O   0  0  0  0  0  1  0  0  0  0  0  0
  160.8420  210.4100  155.6050 C   0  0  2  0  0  3  0  0  0  0  0  0
  161.5590  209.3850  156.3420 N   0  0  0  0  0  1  0  0  0  0  0  0
  159.9350  212.3650  152.6910 C   0  0  0  0  0  2  0  0  0  0  0  0
  158.9330  214.3870  147.5610 C   0  0  0  0  0  3  0  0  0  0  0  0
  158.0040  214.0070  149.8980 C   0  0  0  0  0  0  0  0  0  0  0  0
  160.2230  213.5270  149.2000 C   0  0  0  0  0  0  0  0  0  0  0  0
  157.3090  213.4640  152.1800 C   0  0  0  0  0  1  0  0  0  0  0  0
  160.9890  213.5960  148.1140 N   0  0  0  0  0  0  0  0  0  0  0  0
  158.9840  214.0260  148.9140 C   0  0  0  0  0  0  0  0  0  0  0  0
  156.8460  214.4490  149.6550 O   0  0  0  0  0  0  0  0  0  0  0  0
  160.8920  213.9300  145.8740 C   0  0  0  0  0  0  0  0  0  0  0  0
  158.3240  213.4870  151.1300 N   0  0  0  0  0  0  0  0  0  0  0  0
  162.0820  213.3400  146.1320 C   0  0  0  0  0  0  0  0  0  0  0  0
  160.2350  214.0900  147.1480 C   0  0  0  0  0  0  0  0  0  0  0  0
  162.2130  213.0120  147.6070 C   0  0  0  0  0  3  0  0  0  0  0  0
  159.5840  212.9760  151.3740 C   0  0  2  0  0  3  0  0  0  0  0  0
  160.5390  212.9840  150.3950 N   0  0  0  0  0  0  0  0  0  0  0  0
  160.3290  214.2750  144.6410 O   0  0  0  0  0  0  0  0  0  0  0  0
  159.1490  213.6710  144.1350 C   0  0  0  0  0  1  0  0  0  0  0  0
  163.0970  213.0670  145.2130 O   0  0  0  0  0  0  0  0  0  0  0  0
  163.1600  213.6930  143.9400 C   0  0  0  0  0  1  0  0  0  0  0  0
  1 20  1  0  0  0  0
  1  3  1  0  0  0  0
  3 16  1  0  0  0  0
  4  3  1  0  0  0  0
  4  2  2  0  0  0  0
  6  5  1  0  0  0  0
  7  8  1  0  0  0  0
  8  5  1  0  0  0  0
  8  4  1  1  0  0  0
  9 11  1  6  0  0  0
  9  6  1  0  0  0  0
 10  9  1  0  0  0  0
 10  7  1  0  0  0  0
 12 11  1  0  0  0  0
 13 12  1  0  0  0  0
 14 15  1  0  0  0  0
 15 13  1  0  0  0  0
 16 18  1  0  0  0  0
 18 19  1  1  0  0  0
 18 17  1  0  0  0  0
 21 26  2  0  0  0  0
 22 29  1  0  0  0  0
 23 34  2  0  0  0  0
 25 23  1  0  0  0  0
 26 23  1  0  0  0  0
 26 22  1  0  0  0  0
 27 22  2  0  0  0  0
 28 30  1  0  0  0  0
 28 31  2  0  0  0  0
 29 33  1  0  0  0  0
 29 24  1  0  0  0  0
 30 32  2  0  0  0  0
 31 21  1  0  0  0  0
 31 25  1  0  0  0  0
 32 25  1  0  0  0  0
 33 20  1  6  0  0  0
 34 33  1  0  0  0  0
 35 28  1  0  0  0  0
 36 35  1  0  0  0  0
 37 30  1  0  0  0  0
 38 37  1  0  0  0  0
M  END
>  <MODEL>
8

>  <REMARK>
 VINA RESULT:      -6.0      3.405      7.917
  Name = 
  12 active torsions:
  status: ('A' for Active; 'I' for Inactive)
    1  A    between atoms: C_4  and  C_12
    2  A    between atoms: C_4  and  N_21
    3  A    between atoms: O_9  and  C_14
    4  A    between atoms: C_12  and  C_24
    5  A    between atoms: C_13  and  C_32
    6  A    between atoms: C_16  and  O_28
    7  A    between atoms: N_21  and  C_32
    8  A    between atoms: C_22  and  C_30
    9  A    between atoms: C_26  and  C_31
   10  A    between atoms: C_26  and  C_35
   11  A    between atoms: C_27  and  C_38
   12  A    between atoms: C_30  and  C_31
                            x       y       z     vdW  Elec       q    Type
                         _______ _______ _______ _____ _____    ______ ____

>  <TORSDO>
F 12

$$$$
=
 OpenBabel11052409383D

 38 41  0  0  1  0  0  0  0  0999 V2000
  162.1660  206.9840  152.0610 C   0  0  0  0  0  2  0  0  0  0  0  0
  160.5700  206.4470  148.8140 O   0  0  0  0  0  0  0  0  0  0  0  0
  161.3620  207.2350  150.8730 N   0  0  0  0  0  0  0  0  0  0  0  0
  161.1150  206.1830  149.9200 C   0  0  0  0  0  0  0  0  0  0  0  0
  161.9520  204.0770  149.0660 O   0  0  0  0  0  0  0  0  0  0  0  0
  160.8590  203.4350  148.4480 C   0  0  0  0  0  2  0  0  0  0  0  0
  160.4540  204.0370  151.0740 C   0  0  0  0  0  2  0  0  0  0  0  0
  161.5110  204.7690  150.2250 C   0  0  2  0  0  3  0  0  0  0  0  0
  160.3610  202.2620  149.3060 C   0  0  2  0  0  3  0  0  0  0  0  0
  160.5170  202.5400  150.8050 C   0  0  0  0  0  2  0  0  0  0  0  0
  161.0210  200.9420  148.9130 C   0  0  0  0  0  2  0  0  0  0  0  0
  161.6530  200.9970  147.5280 C   0  0  0  0  0  2  0  0  0  0  0  0
  161.2080  199.8040  146.6990 C   0  0  0  0  0  2  0  0  0  0  0  0
  160.0680  201.5800  145.3460 C   0  0  0  0  0  1  0  0  0  0  0  0
  160.7730  200.2370  145.3070 C   0  0  0  0  0  2  0  0  0  0  0  0
  161.0220  208.6190  150.5580 C   0  0  0  0  0  2  0  0  0  0  0  0
  161.9540  210.7390  149.9190 O   0  0  0  0  0  1  0  0  0  0  0  0
  162.2020  209.3680  149.9440 C   0  0  2  0  0  3  0  0  0  0  0  0
  162.4800  208.8910  148.6000 N   0  0  0  0  0  1  0  0  0  0  0  0
  161.2690  206.6100  153.2300 C   0  0  0  0  0  2  0  0  0  0  0  0
  159.6320  211.3870  155.6630 C   0  0  0  0  0  3  0  0  0  0  0  0
  160.2860  208.9540  156.0170 C   0  0  0  0  0  0  0  0  0  0  0  0
  160.3440  210.1110  153.9430 C   0  0  0  0  0  0  0  0  0  0  0  0
  160.8720  206.5800  156.0950 C   0  0  0  0  0  1  0  0  0  0  0  0
  160.0780  211.3130  153.4370 N   0  0  0  0  0  0  0  0  0  0  0  0
  160.1170  210.1260  155.2910 C   0  0  0  0  0  0  0  0  0  0  0  0
  160.0690  208.9380  157.2610 O   0  0  0  0  0  0  0  0  0  0  0  0
  159.0720  213.2820  153.9350 C   0  0  0  0  0  0  0  0  0  0  0  0
  160.6820  207.8200  155.3480 N   0  0  0  0  0  0  0  0  0  0  0  0
  159.1970  213.2330  152.5880 C   0  0  0  0  0  0  0  0  0  0  0  0
  159.6520  212.0610  154.4390 C   0  0  0  0  0  0  0  0  0  0  0  0
  159.8030  211.9140  152.1490 C   0  0  0  0  0  3  0  0  0  0  0  0
  160.8850  207.8420  153.9810 C   0  0  2  0  0  3  0  0  0  0  0  0
  160.7010  208.9960  153.2700 N   0  0  0  0  0  0  0  0  0  0  0  0
  158.4560  214.2550  154.7280 O   0  0  0  0  0  0  0  0  0  0  0  0
  157.1920  214.0620  155.3440 C   0  0  0  0  0  1  0  0  0  0  0  0
  158.8560  214.2380  151.6800 O   0  0  0  0  0  0  0  0  0  0  0  0
  158.0460  213.9910  150.5410 C   0  0  0  0  0  1  0  0  0  0  0  0
  1 20  1  0  0  0  0
  2  4  2  0  0  0  0
  3  1  1  0  0  0  0
  4  3  1  0  0  0  0
  5  8  1  0  0  0  0
  6  5  1  0  0  0  0
  6  9  1  0  0  0  0
  8  4  1  6  0  0  0
  8  7  1  0  0  0  0
  9 11  1  6  0  0  0
  9 10  1  0  0  0  0
 10  7  1  0  0  0  0
 12 11  1  0  0  0  0
 13 12  1  0  0  0  0
 15 14  1  0  0  0  0
 15 13  1  0  0  0  0
 16  3  1  0  0  0  0
 17 18  1  0  0  0  0
 18 19  1  6  0  0  0
 18 16  1  0  0  0  0
 22 27  2  0  0  0  0
 23 26  1  0  0  0  0
 25 23  1  0  0  0  0
 25 31  1  0  0  0  0
 26 21  2  0  0  0  0
 26 22  1  0  0  0  0
 28 31  2  0  0  0  0
 28 35  1  0  0  0  0
 29 22  1  0  0  0  0
 29 24  1  0  0  0  0
 30 28  1  0  0  0  0
 31 21  1  0  0  0  0
 32 30  2  0  0  0  0
 32 25  1  0  0  0  0
 33 20  1  6  0  0  0
 33 29  1  0  0  0  0
 34 23  2  0  0  0  0
 34 33  1  0  0  0  0
 35 36  1  0  0  0  0
 37 30  1  0  0  0  0
 38 37  1  0  0  0  0
M  END
>  <MODEL>
9

>  <REMARK>
 VINA RESULT:      -5.9      2.231      9.497
  Name = 
  12 active torsions:
  status: ('A' for Active; 'I' for Inactive)
    1  A    between atoms: C_4  and  C_12
    2  A    between atoms: C_4  and  N_21
    3  A    between atoms: O_9  and  C_14
    4  A    between atoms: C_12  and  C_24
    5  A    between atoms: C_13  and  C_32
    6  A    between atoms: C_16  and  O_28
    7  A    between atoms: N_21  and  C_32
    8  A    between atoms: C_22  and  C_30
    9  A    between atoms: C_26  and  C_31
   10  A    between atoms: C_26  and  C_35
   11  A    between atoms: C_27  and  C_38
   12  A    between atoms: C_30  and  C_31
                            x       y       z     vdW  Elec       q    Type
                         _______ _______ _______ _____ _____    ______ ____

>  <TORSDO>
F 12

$$$$
