=
 OpenBabel11042422493D

 38 42  0  0  1  0  0  0  0  0999 V2000
  161.1760  210.1260  154.4660 O   0  0  0  0  0  1  0  0  0  0  0  0
  159.7710  211.4190  155.9270 C   0  0  2  0  0  3  0  0  0  0  0  0
  158.1960  212.2700  153.6900 C   0  0  2  0  0  3  0  0  0  0  0  0
  160.3460  211.2490  154.5190 C   0  0  2  0  0  3  0  0  0  0  0  0
  159.0480  213.5990  151.9840 C   0  0  2  0  0  3  0  0  0  0  0  0
  159.7540  211.1160  152.0610 C   0  0  0  0  0  2  0  0  0  0  0  0
  159.9990  212.5100  151.5580 C   0  0  0  0  0  0  0  0  0  0  0  0
  160.9790  212.8030  150.6880 C   0  0  0  0  0  3  0  0  0  0  0  0
  158.7340  213.5420  153.3630 O   0  0  0  0  0  0  0  0  0  0  0  0
  159.1750  210.2340  156.3640 O   0  0  0  0  0  1  0  0  0  0  0  0
  158.7350  212.5450  155.9130 C   0  0  0  0  0  2  0  0  0  0  0  0
  157.6850  212.2630  155.0090 O   0  0  0  0  0  0  0  0  0  0  0  0
  159.2180  211.1290  153.4930 C   0  0  2  0  0  3  0  0  0  0  0  0
  162.5920  211.7170  147.8780 C   0  0  0  0  0  1  0  0  0  0  0  0
  162.0730  208.3250  150.9770 N   0  0  0  0  0  0  0  0  0  0  0  0
  161.6690  209.8500  148.9510 C   0  0  0  0  0  2  0  0  0  0  0  0
  161.9850  209.6120  150.3720 C   0  0  0  0  0  0  0  0  0  0  0  0
  162.1480  210.6910  151.0410 N   0  0  0  0  0  0  0  0  0  0  0  0
  161.9860  211.8230  150.1460 C   0  0  1  0  0  3  0  0  0  0  0  0
  161.5780  211.3050  148.8330 N   0  0  0  0  0  0  0  0  0  0  0  0
  161.8460  207.1630  150.2300 N   0  0  0  0  0  0  0  0  0  0  0  0
  161.4630  205.8800  152.1260 O   0  0  0  0  0  0  0  0  0  0  0  0
  161.5230  205.9260  150.8670 C   0  0  0  0  0  0  0  0  0  0  0  0
  160.6770  203.2640  152.1140 C   0  0  0  0  0  1  0  0  0  0  0  0
  161.4860  203.7580  146.1460 Cl  0  0  0  0  0  0  0  0  0  0  0  0
  161.4600  204.7590  148.6850 C   0  0  0  0  0  3  0  0  0  0  0  0
  160.8690  203.4580  150.6480 C   0  0  0  0  0  0  0  0  0  0  0  0
  161.2460  203.6430  147.8750 C   0  0  0  0  0  0  0  0  0  0  0  0
  160.6600  202.3450  149.8250 C   0  0  0  0  0  3  0  0  0  0  0  0
  160.8440  202.4360  148.4460 C   0  0  0  0  0  3  0  0  0  0  0  0
  161.2740  204.6930  150.0770 C   0  0  0  0  0  0  0  0  0  0  0  0
  157.8450  213.3130  149.7690 C   0  0  0  0  0  3  0  0  0  0  0  0
  156.6650  214.2800  151.6490 C   0  0  0  0  0  3  0  0  0  0  0  0
  156.6960  213.4420  148.9820 C   0  0  0  0  0  0  0  0  0  0  0  0
  155.5320  213.9880  149.5280 C   0  0  0  0  0  3  0  0  0  0  0  0
  156.7130  213.0310  147.6920 F   0  0  0  0  0  0  0  0  0  0  0  0
  155.5160  214.4060  150.8620 C   0  0  0  0  0  3  0  0  0  0  0  0
  157.8350  213.7390  151.1070 C   0  0  0  0  0  0  0  0  0  0  0  0
  2 10  1  6  0  0  0
  3  9  1  1  0  0  0
  3 12  1  0  0  0  0
  4  1  1  1  0  0  0
  4  2  1  0  0  0  0
  5 38  1  6  0  0  0
  5  9  1  0  0  0  0
  7  5  1  0  0  0  0
  7  6  1  0  0  0  0
  8  7  2  0  0  0  0
 11  2  1  0  0  0  0
 12 11  1  0  0  0  0
 13  6  1  6  0  0  0
 13  3  1  0  0  0  0
 13  4  1  0  0  0  0
 14 20  1  0  0  0  0
 16 17  1  0  0  0  0
 17 15  1  0  0  0  0
 17 18  2  0  0  0  0
 19  8  1  1  0  0  0
 19 18  1  0  0  0  0
 20 16  1  0  0  0  0
 20 19  1  0  0  0  0
 21 23  1  0  0  0  0
 21 15  2  0  0  0  0
 23 22  2  0  0  0  0
 25 28  1  0  0  0  0
 26 31  1  0  0  0  0
 27 24  1  0  0  0  0
 28 30  1  0  0  0  0
 28 26  2  0  0  0  0
 29 27  1  0  0  0  0
 30 29  2  0  0  0  0
 31 27  2  0  0  0  0
 31 23  1  0  0  0  0
 32 38  1  0  0  0  0
 34 35  1  0  0  0  0
 34 32  2  0  0  0  0
 35 37  2  0  0  0  0
 36 34  1  0  0  0  0
 37 33  1  0  0  0  0
 38 33  2  0  0  0  0
M  END
>  <MODEL>
1

>  <REMARK>
 VINA RESULT:      -8.2      0.000      0.000
  Name = 
  4 active torsions:
  status: ('A' for Active; 'I' for Inactive)
    1  A    between atoms: C_10  and  C_38
    2  A    between atoms: N_15  and  N_20
    3  A    between atoms: C_18  and  C_26
    4  A    between atoms: C_34  and  C_35
                            x       y       z     vdW  Elec       q    Type
                         _______ _______ _______ _____ _____    ______ ____

>  <TORSDO>
F 4

$$$$
=
 OpenBabel11042422493D

 38 42  0  0  1  0  0  0  0  0999 V2000
  161.2090  209.6220  154.1860 O   0  0  0  0  0  1  0  0  0  0  0  0
  159.7360  210.6220  155.8020 C   0  0  2  0  0  3  0  0  0  0  0  0
  158.1550  211.7470  153.6950 C   0  0  2  0  0  3  0  0  0  0  0  0
  160.3340  210.6920  154.3960 C   0  0  2  0  0  3  0  0  0  0  0  0
  158.9740  213.3540  152.2280 C   0  0  2  0  0  3  0  0  0  0  0  0
  159.7770  210.9160  151.9360 C   0  0  0  0  0  2  0  0  0  0  0  0
  159.9720  212.3790  151.6580 C   0  0  0  0  0  0  0  0  0  0  0  0
  160.9490  212.8390  150.8600 C   0  0  0  0  0  3  0  0  0  0  0  0
  158.6450  213.0730  153.5770 O   0  0  0  0  0  0  0  0  0  0  0  0
  159.1820  209.3620  156.0420 O   0  0  0  0  0  1  0  0  0  0  0  0
  158.6560  211.6970  155.9430 C   0  0  0  0  0  2  0  0  0  0  0  0
  157.6290  211.5180  154.9880 O   0  0  0  0  0  0  0  0  0  0  0  0
  159.2240  210.6880  153.3440 C   0  0  2  0  0  3  0  0  0  0  0  0
  162.4620  212.0860  147.8900 C   0  0  0  0  0  1  0  0  0  0  0  0
  162.4500  208.4710  150.7730 N   0  0  0  0  0  2  0  0  0  0  0  0
  161.7800  210.0780  148.8840 C   0  0  0  0  0  2  0  0  0  0  0  0
  162.2090  209.7810  150.2640 C   0  0  0  0  0  0  0  0  0  0  0  0
  162.3200  210.8260  150.9960 N   0  0  0  0  0  0  0  0  0  0  0  0
  162.0010  211.9920  150.1920 C   0  0  1  0  0  3  0  0  0  0  0  0
  161.5540  211.5230  148.8730 N   0  0  0  0  0  0  0  0  0  0  0  0
  162.2770  207.3430  149.9620 N   0  0  0  0  0  2  0  0  0  0  0  0
  160.8710  206.3140  151.4950 O   0  0  0  0  0  0  0  0  0  0  0  0
  161.4430  206.2590  150.3720 C   0  0  0  0  0  0  0  0  0  0  0  0
  161.5300  206.3500  147.3160 C   0  0  0  0  0  1  0  0  0  0  0  0
  160.4920  201.1540  150.2220 Cl  0  0  0  0  0  0  0  0  0  0  0  0
  160.9970  203.8350  150.1440 C   0  0  0  0  0  3  0  0  0  0  0  0
  161.3030  205.0970  148.0930 C   0  0  0  0  0  0  0  0  0  0  0  0
  160.8070  202.6680  149.4030 C   0  0  0  0  0  0  0  0  0  0  0  0
  161.1090  203.9200  147.3600 C   0  0  0  0  0  3  0  0  0  0  0  0
  160.8640  202.7100  148.0110 C   0  0  0  0  0  3  0  0  0  0  0  0
  161.2520  205.0640  149.5110 C   0  0  0  0  0  0  0  0  0  0  0  0
  157.7590  213.2200  150.0050 C   0  0  0  0  0  3  0  0  0  0  0  0
  156.6170  214.1380  151.9320 C   0  0  0  0  0  3  0  0  0  0  0  0
  156.6160  213.4290  149.2280 C   0  0  0  0  0  0  0  0  0  0  0  0
  155.4730  213.9920  149.8020 C   0  0  0  0  0  3  0  0  0  0  0  0
  156.6170  213.0810  147.9190 F   0  0  0  0  0  0  0  0  0  0  0  0
  155.4740  214.3450  151.1540 C   0  0  0  0  0  3  0  0  0  0  0  0
  157.7660  213.5810  151.3610 C   0  0  0  0  0  0  0  0  0  0  0  0
  2 11  1  0  0  0  0
  2 10  1  6  0  0  0
  3  9  1  1  0  0  0
  3 12  1  0  0  0  0
  4  1  1  6  0  0  0
  4  2  1  0  0  0  0
  5 38  1  6  0  0  0
  5  9  1  0  0  0  0
  7  6  1  0  0  0  0
  7  5  1  0  0  0  0
  8  7  2  0  0  0  0
 12 11  1  0  0  0  0
 13  6  1  6  0  0  0
 13  3  1  0  0  0  0
 13  4  1  0  0  0  0
 14 20  1  0  0  0  0
 16 17  1  0  0  0  0
 17 15  1  0  0  0  0
 17 18  2  0  0  0  0
 19  8  1  1  0  0  0
 19 18  1  0  0  0  0
 20 16  1  0  0  0  0
 20 19  1  0  0  0  0
 21 23  1  0  0  0  0
 21 15  1  0  0  0  0
 23 22  2  0  0  0  0
 24 27  1  0  0  0  0
 27 31  2  0  0  0  0
 28 26  2  0  0  0  0
 28 25  1  0  0  0  0
 29 30  2  0  0  0  0
 29 27  1  0  0  0  0
 30 28  1  0  0  0  0
 31 26  1  0  0  0  0
 31 23  1  0  0  0  0
 32 38  1  0  0  0  0
 34 35  1  0  0  0  0
 34 32  2  0  0  0  0
 35 37  2  0  0  0  0
 36 34  1  0  0  0  0
 37 33  1  0  0  0  0
 38 33  2  0  0  0  0
M  END
>  <MODEL>
2

>  <REMARK>
 VINA RESULT:      -7.9      1.005      1.543
  Name = 
  4 active torsions:
  status: ('A' for Active; 'I' for Inactive)
    1  A    between atoms: C_10  and  C_38
    2  A    between atoms: N_15  and  N_20
    3  A    between atoms: C_18  and  C_26
    4  A    between atoms: C_34  and  C_35
                            x       y       z     vdW  Elec       q    Type
                         _______ _______ _______ _____ _____    ______ ____

>  <TORSDO>
F 4

$$$$
=
 OpenBabel11042422493D

 38 42  0  0  1  0  0  0  0  0999 V2000
  160.8940  212.0020  149.1700 O   0  0  0  0  0  1  0  0  0  0  0  0
  158.9090  213.3570  149.1290 C   0  0  2  0  0  3  0  0  0  0  0  0
  158.8550  213.4010  151.9930 C   0  0  2  0  0  3  0  0  0  0  0  0
  159.7420  212.3260  149.8930 C   0  0  2  0  0  3  0  0  0  0  0  0
  158.5170  211.4910  153.2750 C   0  0  2  0  0  3  0  0  0  0  0  0
  160.8110  211.7980  152.1260 C   0  0  0  0  0  2  0  0  0  0  0  0
  159.8140  210.8930  152.7940 C   0  0  0  0  0  0  0  0  0  0  0  0
  160.0680  209.5990  153.0470 C   0  0  0  0  0  3  0  0  0  0  0  0
  157.9380  212.3720  152.3290 O   0  0  0  0  0  0  0  0  0  0  0  0
  159.6930  214.4530  148.7610 O   0  0  0  0  0  1  0  0  0  0  0  0
  157.7520  213.8230  150.0160 C   0  0  0  0  0  2  0  0  0  0  0  0
  158.2270  214.4020  151.2150 O   0  0  0  0  0  0  0  0  0  0  0  0
  160.1130  212.8610  151.2780 C   0  0  2  0  0  3  0  0  0  0  0  0
  162.7060  209.5260  150.8750 C   0  0  0  0  0  1  0  0  0  0  0  0
  161.5880  205.2910  152.3600 N   0  0  0  0  0  2  0  0  0  0  0  0
  161.7260  207.3980  150.8970 C   0  0  0  0  0  2  0  0  0  0  0  0
  161.5460  206.7060  152.1870 C   0  0  0  0  0  0  0  0  0  0  0  0
  161.3120  207.5030  153.1600 N   0  0  0  0  0  0  0  0  0  0  0  0
  161.3260  208.8660  152.6590 C   0  0  1  0  0  3  0  0  0  0  0  0
  161.4850  208.8080  151.1990 N   0  0  0  0  0  0  0  0  0  0  0  0
  161.8020  204.4410  151.2690 N   0  0  0  0  0  2  0  0  0  0  0  0
  159.5480  204.3910  150.7190 O   0  0  0  0  0  0  0  0  0  0  0  0
  160.7190  204.0110  150.4440 C   0  0  0  0  0  0  0  0  0  0  0  0
  160.8310  200.9620  150.6600 C   0  0  0  0  0  1  0  0  0  0  0  0
  161.5820  203.7080  145.3300 Cl  0  0  0  0  0  0  0  0  0  0  0  0
  161.1330  203.7100  148.0220 C   0  0  0  0  0  3  0  0  0  0  0  0
  160.9840  201.6980  149.3720 C   0  0  0  0  0  0  0  0  0  0  0  0
  161.3490  202.9350  146.8820 C   0  0  0  0  0  0  0  0  0  0  0  0
  161.2030  200.9310  148.2220 C   0  0  0  0  0  3  0  0  0  0  0  0
  161.3830  201.5450  146.9820 C   0  0  0  0  0  3  0  0  0  0  0  0
  160.9430  203.1150  149.2810 C   0  0  0  0  0  0  0  0  0  0  0  0
  157.4330  212.5650  155.3010 C   0  0  0  0  0  3  0  0  0  0  0  0
  159.8060  212.0910  155.3330 C   0  0  0  0  0  3  0  0  0  0  0  0
  157.5190  213.0840  156.5970 C   0  0  0  0  0  0  0  0  0  0  0  0
  158.7480  213.1060  157.2610 C   0  0  0  0  0  3  0  0  0  0  0  0
  156.4090  213.5610  157.2080 F   0  0  0  0  0  0  0  0  0  0  0  0
  159.8910  212.6080  156.6290 C   0  0  0  0  0  3  0  0  0  0  0  0
  158.5800  212.0710  154.6610 C   0  0  0  0  0  0  0  0  0  0  0  0
  2 10  1  1  0  0  0
  2  4  1  0  0  0  0
  2 11  1  0  0  0  0
  3 12  1  6  0  0  0
  3  9  1  0  0  0  0
  4  1  1  6  0  0  0
  4 13  1  0  0  0  0
  5 38  1  1  0  0  0
  6  7  1  0  0  0  0
  7  8  2  0  0  0  0
  7  5  1  0  0  0  0
  9  5  1  0  0  0  0
 11 12  1  0  0  0  0
 13  3  1  0  0  0  0
 13  6  1  1  0  0  0
 14 20  1  0  0  0  0
 16 20  1  0  0  0  0
 16 17  1  0  0  0  0
 17 15  1  0  0  0  0
 17 18  2  0  0  0  0
 19  8  1  6  0  0  0
 19 18  1  0  0  0  0
 20 19  1  0  0  0  0
 21 15  1  0  0  0  0
 23 22  2  0  0  0  0
 23 21  1  0  0  0  0
 25 28  1  0  0  0  0
 26 31  1  0  0  0  0
 27 24  1  0  0  0  0
 28 30  1  0  0  0  0
 28 26  2  0  0  0  0
 29 27  1  0  0  0  0
 30 29  2  0  0  0  0
 31 27  2  0  0  0  0
 31 23  1  0  0  0  0
 32 34  1  0  0  0  0
 33 37  2  0  0  0  0
 34 36  1  0  0  0  0
 34 35  2  0  0  0  0
 37 35  1  0  0  0  0
 38 32  2  0  0  0  0
 38 33  1  0  0  0  0
M  END
>  <MODEL>
3

>  <REMARK>
 VINA RESULT:      -7.7      2.478      4.509
  Name = 
  4 active torsions:
  status: ('A' for Active; 'I' for Inactive)
    1  A    between atoms: C_10  and  C_38
    2  A    between atoms: N_15  and  N_20
    3  A    between atoms: C_18  and  C_26
    4  A    between atoms: C_34  and  C_35
                            x       y       z     vdW  Elec       q    Type
                         _______ _______ _______ _____ _____    ______ ____

>  <TORSDO>
F 4

$$$$
=
 OpenBabel11042422493D

 38 42  0  0  1  0  0  0  0  0999 V2000
  161.2280  211.1510  151.8500 O   0  0  0  0  0  1  0  0  0  0  0  0
  162.2000  210.6310  149.7140 C   0  0  2  0  0  3  0  0  0  0  0  0
  161.4480  207.8830  150.0180 C   0  0  2  0  0  3  0  0  0  0  0  0
  161.8200  210.1260  151.1070 C   0  0  2  0  0  3  0  0  0  0  0  0
  162.3310  206.5130  151.6750 C   0  0  2  0  0  3  0  0  0  0  0  0
  160.5990  208.3010  152.3670 C   0  0  0  0  0  2  0  0  0  0  0  0
  161.6900  207.3440  152.7570 C   0  0  0  0  0  0  0  0  0  0  0  0
  162.0570  207.1470  154.0330 C   0  0  0  0  0  3  0  0  0  0  0  0
  162.6260  207.2640  150.5110 O   0  0  0  0  0  0  0  0  0  0  0  0
  161.1070  211.2430  149.0940 O   0  0  0  0  0  1  0  0  0  0  0  0
  162.6820  209.4520  148.8660 C   0  0  0  0  0  2  0  0  0  0  0  0
  161.6780  208.4630  148.7480 O   0  0  0  0  0  0  0  0  0  0  0  0
  160.8740  208.9280  151.0000 C   0  0  2  0  0  3  0  0  0  0  0  0
  159.7160  207.0390  156.5210 C   0  0  0  0  0  1  0  0  0  0  0  0
  160.7080  211.3840  155.2870 N   0  0  0  0  0  2  0  0  0  0  0  0
  159.5270  209.1080  155.4380 C   0  0  0  0  0  2  0  0  0  0  0  0
  160.7250  209.9580  155.3050 C   0  0  0  0  0  0  0  0  0  0  0  0
  161.8090  209.2890  155.1740 N   0  0  0  0  0  0  0  0  0  0  0  0
  161.4900  207.8740  155.2250 C   0  0  1  0  0  3  0  0  0  0  0  0
  160.0280  207.7420  155.2890 N   0  0  0  0  0  0  0  0  0  0  0  0
  159.5030  212.0880  155.3880 N   0  0  0  0  0  2  0  0  0  0  0  0
  158.9520  211.6930  153.1680 O   0  0  0  0  0  0  0  0  0  0  0  0
  158.6230  212.2120  154.2700 C   0  0  0  0  0  0  0  0  0  0  0  0
  157.5070  213.9810  152.0390 C   0  0  0  0  0  1  0  0  0  0  0  0
  154.5310  213.3540  157.2610 Cl  0  0  0  0  0  0  0  0  0  0  0  0
  156.6190  212.8440  155.5770 C   0  0  0  0  0  3  0  0  0  0  0  0
  156.8100  213.7660  153.3390 C   0  0  0  0  0  0  0  0  0  0  0  0
  155.4050  213.5100  155.7530 C   0  0  0  0  0  0  0  0  0  0  0  0
  155.5930  214.4300  153.5280 C   0  0  0  0  0  3  0  0  0  0  0  0
  154.8910  214.3020  154.7270 C   0  0  0  0  0  3  0  0  0  0  0  0
  157.3400  212.9530  154.3760 C   0  0  0  0  0  0  0  0  0  0  0  0
  161.4240  204.7760  150.0640 C   0  0  0  0  0  3  0  0  0  0  0  0
  161.1590  204.4430  152.4470 C   0  0  0  0  0  3  0  0  0  0  0  0
  160.7690  203.5650  149.8220 C   0  0  0  0  0  0  0  0  0  0  0  0
  160.3100  202.7920  150.8910 C   0  0  0  0  0  3  0  0  0  0  0  0
  160.5850  203.1400  148.5490 F   0  0  0  0  0  0  0  0  0  0  0  0
  160.5060  203.2300  152.2040 C   0  0  0  0  0  3  0  0  0  0  0  0
  161.6160  205.2240  151.3800 C   0  0  0  0  0  0  0  0  0  0  0  0
  2 10  1  6  0  0  0
  2  4  1  0  0  0  0
  3 12  1  6  0  0  0
  3  9  1  0  0  0  0
  3 13  1  0  0  0  0
  4  1  1  1  0  0  0
  5 38  1  6  0  0  0
  5  7  1  0  0  0  0
  6  7  1  0  0  0  0
  7  8  2  0  0  0  0
  9  5  1  0  0  0  0
 11  2  1  0  0  0  0
 12 11  1  0  0  0  0
 13  4  1  0  0  0  0
 13  6  1  1  0  0  0
 15 17  1  0  0  0  0
 15 21  1  0  0  0  0
 17 16  1  0  0  0  0
 18 19  1  0  0  0  0
 18 17  2  0  0  0  0
 19  8  1  6  0  0  0
 19 20  1  0  0  0  0
 20 16  1  0  0  0  0
 20 14  1  0  0  0  0
 22 23  2  0  0  0  0
 23 31  1  0  0  0  0
 23 21  1  0  0  0  0
 24 27  1  0  0  0  0
 26 28  1  0  0  0  0
 27 29  2  0  0  0  0
 27 31  1  0  0  0  0
 28 25  1  0  0  0  0
 29 30  1  0  0  0  0
 30 28  2  0  0  0  0
 31 26  2  0  0  0  0
 32 38  1  0  0  0  0
 34 32  2  0  0  0  0
 34 35  1  0  0  0  0
 35 37  2  0  0  0  0
 36 34  1  0  0  0  0
 37 33  1  0  0  0  0
 38 33  2  0  0  0  0
M  END
>  <MODEL>
4

>  <REMARK>
 VINA RESULT:      -7.3      4.146      9.162
  Name = 
  4 active torsions:
  status: ('A' for Active; 'I' for Inactive)
    1  A    between atoms: C_10  and  C_38
    2  A    between atoms: N_15  and  N_20
    3  A    between atoms: C_18  and  C_26
    4  A    between atoms: C_34  and  C_35
                            x       y       z     vdW  Elec       q    Type
                         _______ _______ _______ _____ _____    ______ ____

>  <TORSDO>
F 4

$$$$
=
 OpenBabel11042422493D

 38 42  0  0  1  0  0  0  0  0999 V2000
  161.5220  208.1130  154.1980 O   0  0  0  0  0  1  0  0  0  0  0  0
  160.4600  209.0690  156.1300 C   0  0  2  0  0  3  0  0  0  0  0  0
  158.9020  210.7870  154.4480 C   0  0  2  0  0  3  0  0  0  0  0  0
  160.9000  209.2680  154.6790 C   0  0  2  0  0  3  0  0  0  0  0  0
  159.8470  212.4490  153.1260 C   0  0  2  0  0  3  0  0  0  0  0  0
  160.1260  209.9920  152.3790 C   0  0  0  0  0  2  0  0  0  0  0  0
  160.5680  211.4250  152.2880 C   0  0  0  0  0  0  0  0  0  0  0  0
  161.5210  211.8350  151.4360 C   0  0  0  0  0  3  0  0  0  0  0  0
  159.6230  212.0090  154.4540 O   0  0  0  0  0  0  0  0  0  0  0  0
  159.7030  207.9030  156.2630 O   0  0  0  0  0  1  0  0  0  0  0  0
  159.6310  210.2770  156.5730 C   0  0  0  0  0  2  0  0  0  0  0  0
  158.4890  210.4400  155.7560 O   0  0  0  0  0  0  0  0  0  0  0  0
  159.7000  209.6330  153.8030 C   0  0  2  0  0  3  0  0  0  0  0  0
  162.7380  211.4690  148.2630 C   0  0  0  0  0  1  0  0  0  0  0  0
  161.8490  207.3840  150.2400 N   0  0  0  0  0  2  0  0  0  0  0  0
  161.5810  209.5110  148.8250 C   0  0  0  0  0  2  0  0  0  0  0  0
  161.9430  208.7960  150.0630 C   0  0  0  0  0  0  0  0  0  0  0  0
  162.3320  209.5750  151.0020 N   0  0  0  0  0  0  0  0  0  0  0  0
  162.3080  210.9410  150.5130 C   0  0  1  0  0  3  0  0  0  0  0  0
  161.7330  210.9260  149.1600 N   0  0  0  0  0  0  0  0  0  0  0  0
  161.3780  206.5620  149.2110 N   0  0  0  0  0  2  0  0  0  0  0  0
  163.4330  206.5420  148.1300 O   0  0  0  0  0  0  0  0  0  0  0  0
  162.2360  206.1430  148.1480 C   0  0  0  0  0  0  0  0  0  0  0  0
  161.3530  203.2480  148.5840 C   0  0  0  0  0  1  0  0  0  0  0  0
  161.2110  205.7210  143.0730 Cl  0  0  0  0  0  0  0  0  0  0  0  0
  161.7010  205.7940  145.7570 C   0  0  0  0  0  3  0  0  0  0  0  0
  161.3190  203.9230  147.2560 C   0  0  0  0  0  0  0  0  0  0  0  0
  161.2490  205.0310  144.6800 C   0  0  0  0  0  0  0  0  0  0  0  0
  160.8690  203.1660  146.1670 C   0  0  0  0  0  3  0  0  0  0  0  0
  160.8320  203.7160  144.8860 C   0  0  0  0  0  3  0  0  0  0  0  0
  161.7420  205.2640  147.0580 C   0  0  0  0  0  0  0  0  0  0  0  0
  158.4090  212.9350  151.0940 C   0  0  0  0  0  3  0  0  0  0  0  0
  157.6500  213.6330  153.2840 C   0  0  0  0  0  3  0  0  0  0  0  0
  157.2490  213.4650  150.5220 C   0  0  0  0  0  0  0  0  0  0  0  0
  156.2880  214.0780  151.3310 C   0  0  0  0  0  3  0  0  0  0  0  0
  157.0550  213.3790  149.1840 F   0  0  0  0  0  0  0  0  0  0  0  0
  156.4880  214.1610  152.7110 C   0  0  0  0  0  3  0  0  0  0  0  0
  158.6180  213.0230  152.4790 C   0  0  0  0  0  0  0  0  0  0  0  0
  2 10  1  6  0  0  0
  2 11  1  0  0  0  0
  3  9  1  1  0  0  0
  3 12  1  0  0  0  0
  4  1  1  6  0  0  0
  4  2  1  0  0  0  0
  5 38  1  6  0  0  0
  5  9  1  0  0  0  0
  7  6  1  0  0  0  0
  7  5  1  0  0  0  0
  8  7  2  0  0  0  0
 12 11  1  0  0  0  0
 13  6  1  6  0  0  0
 13  3  1  0  0  0  0
 13  4  1  0  0  0  0
 14 20  1  0  0  0  0
 16 20  1  0  0  0  0
 16 17  1  0  0  0  0
 17 15  1  0  0  0  0
 17 18  2  0  0  0  0
 19 18  1  0  0  0  0
 19  8  1  1  0  0  0
 20 19  1  0  0  0  0
 21 15  1  0  0  0  0
 22 23  2  0  0  0  0
 23 21  1  0  0  0  0
 25 28  1  0  0  0  0
 26 31  1  0  0  0  0
 27 24  1  0  0  0  0
 28 30  1  0  0  0  0
 28 26  2  0  0  0  0
 29 27  1  0  0  0  0
 30 29  2  0  0  0  0
 31 27  2  0  0  0  0
 31 23  1  0  0  0  0
 32 38  1  0  0  0  0
 34 32  2  0  0  0  0
 34 35  1  0  0  0  0
 35 37  2  0  0  0  0
 36 34  1  0  0  0  0
 37 33  1  0  0  0  0
 38 33  2  0  0  0  0
M  END
>  <MODEL>
5

>  <REMARK>
 VINA RESULT:      -6.1      1.818      2.327
  Name = 
  4 active torsions:
  status: ('A' for Active; 'I' for Inactive)
    1  A    between atoms: C_10  and  C_38
    2  A    between atoms: N_15  and  N_20
    3  A    between atoms: C_18  and  C_26
    4  A    between atoms: C_34  and  C_35
                            x       y       z     vdW  Elec       q    Type
                         _______ _______ _______ _____ _____    ______ ____

>  <TORSDO>
F 4

$$$$
=
 OpenBabel11042422493D

 38 42  0  0  1  0  0  0  0  0999 V2000
  161.7720  206.9940  153.9260 O   0  0  0  0  0  1  0  0  0  0  0  0
  160.9460  207.8660  156.0080 C   0  0  2  0  0  3  0  0  0  0  0  0
  159.4480  209.8620  154.6000 C   0  0  2  0  0  3  0  0  0  0  0  0
  161.3000  208.1530  154.5470 C   0  0  2  0  0  3  0  0  0  0  0  0
  160.4560  211.5420  153.3490 C   0  0  2  0  0  3  0  0  0  0  0  0
  160.4410  209.1470  152.3830 C   0  0  0  0  0  2  0  0  0  0  0  0
  161.0130  210.5360  152.3760 C   0  0  0  0  0  0  0  0  0  0  0  0
  161.9390  210.9320  151.4880 C   0  0  0  0  0  3  0  0  0  0  0  0
  160.2840  211.0080  154.6490 O   0  0  0  0  0  0  0  0  0  0  0  0
  160.0900  206.7660  156.1030 O   0  0  0  0  0  1  0  0  0  0  0  0
  160.2710  209.1000  156.6120 C   0  0  0  0  0  2  0  0  0  0  0  0
  159.0960  209.4390  155.9030 O   0  0  0  0  0  0  0  0  0  0  0  0
  160.0830  208.7020  153.8010 C   0  0  2  0  0  3  0  0  0  0  0  0
  162.7640  210.6880  148.1800 C   0  0  0  0  0  1  0  0  0  0  0  0
  161.9020  206.5450  150.0430 N   0  0  0  0  0  2  0  0  0  0  0  0
  161.5820  208.7560  148.7760 C   0  0  0  0  0  2  0  0  0  0  0  0
  162.0470  207.9580  149.9270 C   0  0  0  0  0  0  0  0  0  0  0  0
  162.5790  208.6660  150.8510 N   0  0  0  0  0  0  0  0  0  0  0  0
  162.5690  210.0570  150.4360 C   0  0  1  0  0  3  0  0  0  0  0  0
  161.8420  210.1420  149.1610 N   0  0  0  0  0  0  0  0  0  0  0  0
  161.2750  205.8020  149.0360 N   0  0  0  0  0  2  0  0  0  0  0  0
  163.2360  205.5910  147.8110 O   0  0  0  0  0  0  0  0  0  0  0  0
  162.0070  205.3210  147.9080 C   0  0  0  0  0  0  0  0  0  0  0  0
  160.5170  206.5720  145.5480 C   0  0  0  0  0  1  0  0  0  0  0  0
  160.8830  200.5690  146.1330 Cl  0  0  0  0  0  0  0  0  0  0  0  0
  161.3980  203.1250  146.9420 C   0  0  0  0  0  3  0  0  0  0  0  0
  160.6640  205.1010  145.7370 C   0  0  0  0  0  0  0  0  0  0  0  0
  160.8020  202.3100  145.9790 C   0  0  0  0  0  0  0  0  0  0  0  0
  160.0680  204.2730  144.7780 C   0  0  0  0  0  3  0  0  0  0  0  0
  160.1370  202.8850  144.8960 C   0  0  0  0  0  3  0  0  0  0  0  0
  161.3470  204.5260  146.8410 C   0  0  0  0  0  0  0  0  0  0  0  0
  158.1870  212.6200  153.7070 C   0  0  0  0  0  3  0  0  0  0  0  0
  159.1910  212.6630  151.5050 C   0  0  0  0  0  3  0  0  0  0  0  0
  157.0820  213.3210  153.2170 C   0  0  0  0  0  0  0  0  0  0  0  0
  157.0310  213.6950  151.8720 C   0  0  0  0  0  3  0  0  0  0  0  0
  156.0630  213.6430  154.0500 F   0  0  0  0  0  0  0  0  0  0  0  0
  158.0860  213.3660  151.0160 C   0  0  0  0  0  3  0  0  0  0  0  0
  159.2460  212.2820  152.8500 C   0  0  0  0  0  0  0  0  0  0  0  0
  2 10  1  6  0  0  0
  2 11  1  0  0  0  0
  3  9  1  1  0  0  0
  3 12  1  0  0  0  0
  4  1  1  6  0  0  0
  4  2  1  0  0  0  0
  5 38  1  6  0  0  0
  5  9  1  0  0  0  0
  7  6  1  0  0  0  0
  7  5  1  0  0  0  0
  8  7  2  0  0  0  0
 12 11  1  0  0  0  0
 13  6  1  6  0  0  0
 13  4  1  0  0  0  0
 13  3  1  0  0  0  0
 14 20  1  0  0  0  0
 16 20  1  0  0  0  0
 16 17  1  0  0  0  0
 17 15  1  0  0  0  0
 17 18  2  0  0  0  0
 19 18  1  0  0  0  0
 19  8  1  1  0  0  0
 20 19  1  0  0  0  0
 21 15  1  0  0  0  0
 22 23  2  0  0  0  0
 23 21  1  0  0  0  0
 24 27  1  0  0  0  0
 27 31  2  0  0  0  0
 28 25  1  0  0  0  0
 28 26  2  0  0  0  0
 29 30  2  0  0  0  0
 29 27  1  0  0  0  0
 30 28  1  0  0  0  0
 31 26  1  0  0  0  0
 31 23  1  0  0  0  0
 33 38  1  0  0  0  0
 34 32  1  0  0  0  0
 34 36  1  0  0  0  0
 35 34  2  0  0  0  0
 37 33  2  0  0  0  0
 37 35  1  0  0  0  0
 38 32  2  0  0  0  0
M  END
>  <MODEL>
6

>  <REMARK>
 VINA RESULT:      -5.9      2.377      3.398
  Name = 
  4 active torsions:
  status: ('A' for Active; 'I' for Inactive)
    1  A    between atoms: C_10  and  C_38
    2  A    between atoms: N_15  and  N_20
    3  A    between atoms: C_18  and  C_26
    4  A    between atoms: C_34  and  C_35
                            x       y       z     vdW  Elec       q    Type
                         _______ _______ _______ _____ _____    ______ ____

>  <TORSDO>
F 4

$$$$
=
 OpenBabel11042422493D

 38 42  0  0  1  0  0  0  0  0999 V2000
  158.7940  210.4140  156.2490 O   0  0  0  0  0  1  0  0  0  0  0  0
  157.4160  212.2990  156.8220 C   0  0  2  0  0  3  0  0  0  0  0  0
  156.9300  212.8130  154.0460 C   0  0  2  0  0  3  0  0  0  0  0  0
  158.3360  211.6500  155.7850 C   0  0  2  0  0  3  0  0  0  0  0  0
  158.6110  213.4450  152.5700 C   0  0  2  0  0  3  0  0  0  0  0  0
  158.5380  210.9840  153.3510 C   0  0  0  0  0  2  0  0  0  0  0  0
  159.3060  212.1180  152.7330 C   0  0  0  0  0  0  0  0  0  0  0  0
  160.5510  211.9710  152.2520 C   0  0  0  0  0  3  0  0  0  0  0  0
  157.8740  213.8210  153.7200 O   0  0  0  0  0  0  0  0  0  0  0  0
  156.4090  211.4140  157.2120 O   0  0  0  0  0  1  0  0  0  0  0  0
  156.7930  213.5600  156.2210 C   0  0  0  0  0  2  0  0  0  0  0  0
  156.0470  213.2580  155.0580 O   0  0  0  0  0  0  0  0  0  0  0  0
  157.6030  211.4830  154.4530 C   0  0  2  0  0  3  0  0  0  0  0  0
  163.6100  210.5810  151.6300 C   0  0  0  0  0  1  0  0  0  0  0  0
  160.2010  207.4860  151.2040 N   0  0  0  0  0  2  0  0  0  0  0  0
  161.9840  209.2370  150.6110 C   0  0  0  0  0  2  0  0  0  0  0  0
  160.8630  208.7290  151.4250 C   0  0  0  0  0  0  0  0  0  0  0  0
  160.5060  209.5340  152.3540 N   0  0  0  0  0  0  0  0  0  0  0  0
  161.3640  210.7040  152.3100 C   0  0  1  0  0  3  0  0  0  0  0  0
  162.2430  210.5760  151.1390 N   0  0  0  0  0  0  0  0  0  0  0  0
  160.5850  206.6450  150.1530 N   0  0  0  0  0  2  0  0  0  0  0  0
  160.3000  204.7270  151.4280 O   0  0  0  0  0  0  0  0  0  0  0  0
  160.6100  205.2260  150.3120 C   0  0  0  0  0  0  0  0  0  0  0  0
  160.2620  202.1880  150.3780 C   0  0  0  0  0  1  0  0  0  0  0  0
  162.7250  204.9090  145.5770 Cl  0  0  0  0  0  0  0  0  0  0  0  0
  161.5960  204.9200  148.0630 C   0  0  0  0  0  3  0  0  0  0  0  0
  160.8390  202.9220  149.2150 C   0  0  0  0  0  0  0  0  0  0  0  0
  161.9970  204.1450  146.9730 C   0  0  0  0  0  0  0  0  0  0  0  0
  161.2470  202.1550  148.1170 C   0  0  0  0  0  3  0  0  0  0  0  0
  161.8210  202.7620  147.0000 C   0  0  0  0  0  3  0  0  0  0  0  0
  161.0090  204.3310  149.1960 C   0  0  0  0  0  0  0  0  0  0  0  0
  156.4740  213.9560  151.3020 C   0  0  0  0  0  3  0  0  0  0  0  0
  158.4700  213.3520  150.0750 C   0  0  0  0  0  3  0  0  0  0  0  0
  155.7740  214.0890  150.1000 C   0  0  0  0  0  0  0  0  0  0  0  0
  156.4210  213.8540  148.8840 C   0  0  0  0  0  3  0  0  0  0  0  0
  154.4680  214.4500  150.1150 F   0  0  0  0  0  0  0  0  0  0  0  0
  157.7700  213.4870  148.8720 C   0  0  0  0  0  3  0  0  0  0  0  0
  157.8260  213.5800  151.2950 C   0  0  0  0  0  0  0  0  0  0  0  0
  2 10  1  6  0  0  0
  3  9  1  1  0  0  0
  3 13  1  0  0  0  0
  3 12  1  0  0  0  0
  4  1  1  1  0  0  0
  4  2  1  0  0  0  0
  5 38  1  6  0  0  0
  5  7  1  0  0  0  0
  5  9  1  0  0  0  0
  7  6  1  0  0  0  0
  8  7  2  0  0  0  0
 11  2  1  0  0  0  0
 12 11  1  0  0  0  0
 13  6  1  6  0  0  0
 13  4  1  0  0  0  0
 15 17  1  0  0  0  0
 16 20  1  0  0  0  0
 16 17  1  0  0  0  0
 17 18  2  0  0  0  0
 19  8  1  6  0  0  0
 19 18  1  0  0  0  0
 20 14  1  0  0  0  0
 20 19  1  0  0  0  0
 21 23  1  0  0  0  0
 21 15  1  0  0  0  0
 23 22  2  0  0  0  0
 25 28  1  0  0  0  0
 26 31  1  0  0  0  0
 27 24  1  0  0  0  0
 28 30  1  0  0  0  0
 28 26  2  0  0  0  0
 29 27  1  0  0  0  0
 30 29  2  0  0  0  0
 31 27  2  0  0  0  0
 31 23  1  0  0  0  0
 33 38  2  0  0  0  0
 34 36  1  0  0  0  0
 34 32  2  0  0  0  0
 35 34  1  0  0  0  0
 37 35  2  0  0  0  0
 37 33  1  0  0  0  0
 38 32  1  0  0  0  0
M  END
>  <MODEL>
7

>  <REMARK>
 VINA RESULT:      -5.8      1.617      2.085
  Name = 
  4 active torsions:
  status: ('A' for Active; 'I' for Inactive)
    1  A    between atoms: C_10  and  C_38
    2  A    between atoms: N_15  and  N_20
    3  A    between atoms: C_18  and  C_26
    4  A    between atoms: C_34  and  C_35
                            x       y       z     vdW  Elec       q    Type
                         _______ _______ _______ _____ _____    ______ ____

>  <TORSDO>
F 4

$$$$
=
 OpenBabel11042422493D

 38 42  0  0  1  0  0  0  0  0999 V2000
  161.4900  211.8890  149.0170 O   0  0  0  0  0  1  0  0  0  0  0  0
  159.8440  213.3850  149.9290 C   0  0  2  0  0  3  0  0  0  0  0  0
  160.1540  212.1840  152.5110 C   0  0  2  0  0  3  0  0  0  0  0  0
  160.5300  212.0210  150.0240 C   0  0  2  0  0  3  0  0  0  0  0  0
  159.5830  209.9730  152.9470 C   0  0  2  0  0  3  0  0  0  0  0  0
  161.7310  210.4320  151.5870 C   0  0  0  0  0  2  0  0  0  0  0  0
  160.6560  209.4730  152.0150 C   0  0  0  0  0  0  0  0  0  0  0  0
  160.6620  208.1770  151.6650 C   0  0  0  0  0  3  0  0  0  0  0  0
  159.0890  211.2480  152.5780 O   0  0  0  0  0  0  0  0  0  0  0  0
  160.7890  214.4130  149.8880 O   0  0  0  0  0  1  0  0  0  0  0  0
  158.9290  213.5730  151.1410 C   0  0  0  0  0  2  0  0  0  0  0  0
  159.6590  213.4990  152.3490 O   0  0  0  0  0  0  0  0  0  0  0  0
  161.1720  211.8430  151.4010 C   0  0  2  0  0  3  0  0  0  0  0  0
  162.5020  208.5160  148.8050 C   0  0  0  0  0  1  0  0  0  0  0  0
  161.5540  204.0830  149.7190 N   0  0  0  0  0  0  0  0  0  0  0  0
  161.4090  206.4450  148.7220 C   0  0  0  0  0  2  0  0  0  0  0  0
  161.5740  205.5030  149.8440 C   0  0  0  0  0  0  0  0  0  0  0  0
  161.7110  206.0840  150.9770 N   0  0  0  0  0  0  0  0  0  0  0  0
  161.6800  207.5200  150.7690 C   0  0  1  0  0  3  0  0  0  0  0  0
  161.3840  207.7650  149.3500 N   0  0  0  0  0  0  0  0  0  0  0  0
  161.3580  203.4750  148.4740 N   0  0  0  0  0  0  0  0  0  0  0  0
  161.1120  201.3660  149.4130 O   0  0  0  0  0  0  0  0  0  0  0  0
  161.1220  202.0700  148.3660 C   0  0  0  0  0  0  0  0  0  0  0  0
  160.0810  203.5600  145.9060 C   0  0  0  0  0  1  0  0  0  0  0  0
  161.3490  197.6580  145.6330 Cl  0  0  0  0  0  0  0  0  0  0  0  0
  161.1780  200.0490  146.9400 C   0  0  0  0  0  3  0  0  0  0  0  0
  160.4350  202.1120  145.8970 C   0  0  0  0  0  0  0  0  0  0  0  0
  161.0010  199.3700  145.7330 C   0  0  0  0  0  0  0  0  0  0  0  0
  160.2590  201.4190  144.6940 C   0  0  0  0  0  3  0  0  0  0  0  0
  160.5420  200.0560  144.6100 C   0  0  0  0  0  3  0  0  0  0  0  0
  160.9070  201.4230  147.0470 C   0  0  0  0  0  0  0  0  0  0  0  0
  161.1240  209.2650  154.8340 C   0  0  0  0  0  3  0  0  0  0  0  0
  159.0700  210.4370  155.3510 C   0  0  0  0  0  3  0  0  0  0  0  0
  161.4330  209.2040  156.1960 C   0  0  0  0  0  0  0  0  0  0  0  0
  160.5620  209.7600  157.1360 C   0  0  0  0  0  3  0  0  0  0  0  0
  162.5810  208.6100  156.6020 F   0  0  0  0  0  0  0  0  0  0  0  0
  159.3810  210.3770  156.7130 C   0  0  0  0  0  3  0  0  0  0  0  0
  159.9360  209.8770  154.4060 C   0  0  0  0  0  0  0  0  0  0  0  0
  2 10  1  1  0  0  0
  2  4  1  0  0  0  0
  2 11  1  0  0  0  0
  3 12  1  6  0  0  0
  3  9  1  0  0  0  0
  4  1  1  6  0  0  0
  4 13  1  0  0  0  0
  5 38  1  1  0  0  0
  6  7  1  0  0  0  0
  7  5  1  0  0  0  0
  8  7  2  0  0  0  0
  9  5  1  0  0  0  0
 11 12  1  0  0  0  0
 13  6  1  1  0  0  0
 13  3  1  0  0  0  0
 14 20  1  0  0  0  0
 15 17  1  0  0  0  0
 16 20  1  0  0  0  0
 16 17  1  0  0  0  0
 17 18  2  0  0  0  0
 19 18  1  0  0  0  0
 19  8  1  1  0  0  0
 20 19  1  0  0  0  0
 21 15  2  0  0  0  0
 23 21  1  0  0  0  0
 23 22  2  0  0  0  0
 25 28  1  0  0  0  0
 26 31  1  0  0  0  0
 27 24  1  0  0  0  0
 27 31  2  0  0  0  0
 28 26  2  0  0  0  0
 29 27  1  0  0  0  0
 30 29  2  0  0  0  0
 30 28  1  0  0  0  0
 31 23  1  0  0  0  0
 32 34  1  0  0  0  0
 33 37  2  0  0  0  0
 34 36  1  0  0  0  0
 34 35  2  0  0  0  0
 37 35  1  0  0  0  0
 38 32  2  0  0  0  0
 38 33  1  0  0  0  0
M  END
>  <MODEL>
8

>  <REMARK>
 VINA RESULT:      -5.7      3.285      5.547
  Name = 
  4 active torsions:
  status: ('A' for Active; 'I' for Inactive)
    1  A    between atoms: C_10  and  C_38
    2  A    between atoms: N_15  and  N_20
    3  A    between atoms: C_18  and  C_26
    4  A    between atoms: C_34  and  C_35
                            x       y       z     vdW  Elec       q    Type
                         _______ _______ _______ _____ _____    ______ ____

>  <TORSDO>
F 4

$$$$
=
 OpenBabel11042422493D

 38 42  0  0  1  0  0  0  0  0999 V2000
  158.3560  211.0550  156.0500 O   0  0  0  0  0  1  0  0  0  0  0  0
  157.0280  213.0580  156.0900 C   0  0  2  0  0  3  0  0  0  0  0  0
  157.0070  213.1250  153.2260 C   0  0  2  0  0  3  0  0  0  0  0  0
  158.0530  212.2140  155.3310 C   0  0  2  0  0  3  0  0  0  0  0  0
  158.9310  213.4420  151.9610 C   0  0  2  0  0  3  0  0  0  0  0  0
  158.5850  211.1480  153.0960 C   0  0  0  0  0  2  0  0  0  0  0  0
  159.5080  212.1350  152.4400 C   0  0  0  0  0  0  0  0  0  0  0  0
  160.8000  211.8650  152.1960 C   0  0  0  0  0  3  0  0  0  0  0  0
  158.0510  214.0300  152.9020 O   0  0  0  0  0  0  0  0  0  0  0  0
  155.9190  212.2880  156.4460 O   0  0  0  0  0  1  0  0  0  0  0  0
  156.5850  214.2250  155.2050 C   0  0  0  0  0  2  0  0  0  0  0  0
  156.0090  213.7630  153.9990 O   0  0  0  0  0  0  0  0  0  0  0  0
  157.5250  211.8570  153.9400 C   0  0  2  0  0  3  0  0  0  0  0  0
  163.8440  210.3290  152.4350 C   0  0  0  0  0  1  0  0  0  0  0  0
  160.4480  207.2920  151.6420 N   0  0  0  0  0  2  0  0  0  0  0  0
  162.4060  208.9070  151.2510 C   0  0  0  0  0  2  0  0  0  0  0  0
  161.1120  208.5360  151.8530 C   0  0  0  0  0  0  0  0  0  0  0  0
  160.6060  209.4620  152.5770 N   0  0  0  0  0  0  0  0  0  0  0  0
  161.5130  210.5950  152.5840 C   0  0  1  0  0  3  0  0  0  0  0  0
  162.6160  210.2960  151.6590 N   0  0  0  0  0  0  0  0  0  0  0  0
  161.0040  206.3140  150.8090 N   0  0  0  0  0  2  0  0  0  0  0  0
  159.3770  206.6100  149.1810 O   0  0  0  0  0  0  0  0  0  0  0  0
  160.4220  206.0040  149.5420 C   0  0  0  0  0  0  0  0  0  0  0  0
  161.9560  206.6630  146.9790 C   0  0  0  0  0  1  0  0  0  0  0  0
  161.1230  200.9280  148.6890 Cl  0  0  0  0  0  0  0  0  0  0  0  0
  160.8360  203.6240  149.0060 C   0  0  0  0  0  3  0  0  0  0  0  0
  161.7380  205.2720  147.4680 C   0  0  0  0  0  0  0  0  0  0  0  0
  161.3620  202.5970  148.2210 C   0  0  0  0  0  0  0  0  0  0  0  0
  162.2590  204.2330  146.6880 C   0  0  0  0  0  3  0  0  0  0  0  0
  162.0750  202.9020  147.0630 C   0  0  0  0  0  3  0  0  0  0  0  0
  161.0140  204.9720  148.6530 C   0  0  0  0  0  0  0  0  0  0  0  0
  159.1900  213.3280  149.4400 C   0  0  0  0  0  3  0  0  0  0  0  0
  156.9720  213.3860  150.4070 C   0  0  0  0  0  3  0  0  0  0  0  0
  158.6320  213.2680  148.1600 C   0  0  0  0  0  0  0  0  0  0  0  0
  157.2430  213.2660  148.0030 C   0  0  0  0  0  3  0  0  0  0  0  0
  159.4380  213.2070  147.0730 F   0  0  0  0  0  0  0  0  0  0  0  0
  156.4140  213.3240  149.1260 C   0  0  0  0  0  3  0  0  0  0  0  0
  158.3610  213.3940  150.5700 C   0  0  0  0  0  0  0  0  0  0  0  0
  2 10  1  6  0  0  0
  3  9  1  1  0  0  0
  3 13  1  0  0  0  0
  3 12  1  0  0  0  0
  4  1  1  1  0  0  0
  4  2  1  0  0  0  0
  5 38  1  6  0  0  0
  5  7  1  0  0  0  0
  5  9  1  0  0  0  0
  7  6  1  0  0  0  0
  8  7  2  0  0  0  0
 11  2  1  0  0  0  0
 12 11  1  0  0  0  0
 13  6  1  6  0  0  0
 13  4  1  0  0  0  0
 15 17  1  0  0  0  0
 16 20  1  0  0  0  0
 16 17  1  0  0  0  0
 17 18  2  0  0  0  0
 18 19  1  0  0  0  0
 19  8  1  6  0  0  0
 20 14  1  0  0  0  0
 20 19  1  0  0  0  0
 21 15  1  0  0  0  0
 22 23  2  0  0  0  0
 23 21  1  0  0  0  0
 24 27  1  0  0  0  0
 27 31  2  0  0  0  0
 28 25  1  0  0  0  0
 28 26  2  0  0  0  0
 29 30  2  0  0  0  0
 29 27  1  0  0  0  0
 30 28  1  0  0  0  0
 31 26  1  0  0  0  0
 31 23  1  0  0  0  0
 32 38  1  0  0  0  0
 33 38  2  0  0  0  0
 34 32  2  0  0  0  0
 35 34  1  0  0  0  0
 35 37  2  0  0  0  0
 36 34  1  0  0  0  0
 37 33  1  0  0  0  0
M  END
>  <MODEL>
9

>  <REMARK>
 VINA RESULT:      -5.3      1.970      2.684
  Name = 
  4 active torsions:
  status: ('A' for Active; 'I' for Inactive)
    1  A    between atoms: C_10  and  C_38
    2  A    between atoms: N_15  and  N_20
    3  A    between atoms: C_18  and  C_26
    4  A    between atoms: C_34  and  C_35
                            x       y       z     vdW  Elec       q    Type
                         _______ _______ _______ _____ _____    ______ ____

>  <TORSDO>
F 4

$$$$
