=
 OpenBabel11052409543D

 56 61  0  0  1  0  0  0  0  0999 V2000
  161.6630  211.7920  149.8890 C   0  0  0  0  0  2  0  0  0  0  0  0
  160.7180  212.4420  148.8700 C   0  0  1  0  0  3  0  0  0  0  0  0
  161.5580  209.1270  151.6490 C   0  0  0  0  0  3  0  0  0  0  0  0
  160.7170  208.3610  153.8210 C   0  0  0  0  0  0  0  0  0  0  0  0
  160.2170  212.4430  151.9420 C   0  0  0  0  0  0  0  0  0  0  0  0
  160.7510  214.4520  150.5400 C   0  0  0  0  0  2  0  0  0  0  0  0
  160.1480  209.6240  154.0620 C   0  0  0  0  0  3  0  0  0  0  0  0
  161.4200  208.1070  152.6140 C   0  0  0  0  0  0  0  0  0  0  0  0
  160.9980  210.3720  151.9290 C   0  0  0  0  0  0  0  0  0  0  0  0
  159.8200  211.8650  153.1010 N   0  0  0  0  0  0  0  0  0  0  0  0
  159.7590  213.8040  151.4970 C   0  0  0  0  0  2  0  0  0  0  0  0
  160.5540  213.9630  149.1020 C   0  0  0  0  0  2  0  0  0  0  0  0
  160.9580  211.5340  151.1840 C   0  0  0  0  0  0  0  0  0  0  0  0
  160.3060  210.6090  153.0870 C   0  0  0  0  0  0  0  0  0  0  0  0
  160.5770  207.3400  154.8100 N   0  0  0  0  0  1  0  0  0  0  0  0
  161.2140  212.1850  147.4340 C   0  0  1  0  0  3  0  0  0  0  0  0
  160.6010  211.0420  146.9040 O   0  0  0  0  0  1  0  0  0  0  0  0
  162.3460  213.4790  141.9820 C   0  0  0  0  0  2  0  0  0  0  0  0
  162.2490  213.8460  145.8080 C   0  0  0  0  0  2  0  0  0  0  0  0
  160.0320  212.9850  145.4790 O   0  0  0  0  0  0  0  0  0  0  0  0
  160.0830  212.8660  143.0180 C   0  0  0  0  0  2  0  0  0  0  0  0
  161.8640  213.8800  144.3690 C   0  0  2  0  0  3  0  0  0  0  0  0
  160.9580  213.3690  146.4840 C   0  0  1  0  0  3  0  0  0  0  0  0
  160.8260  212.8120  144.3400 C   0  0  1  0  0  3  0  0  0  0  0  0
  162.9580  213.4990  143.3910 C   0  0  0  0  0  2  0  0  0  0  0  0
  161.1050  212.5560  141.9000 C   0  0  1  0  0  3  0  0  0  0  0  0
  160.6150  211.1530  139.8790 C   0  0  0  0  0  1  0  0  0  0  0  0
  160.4720  212.5310  140.4970 C   0  0  0  0  0  0  0  0  0  0  0  0
  158.9880  212.8410  140.5870 C   0  0  0  0  0  1  0  0  0  0  0  0
  161.1300  213.5490  139.5800 C   0  0  0  0  0  1  0  0  0  0  0  0
  158.9610  212.4550  154.1220 C   0  0  0  0  0  2  0  0  0  0  0  0
  157.0160  213.8210  154.0210 O   0  0  0  0  0  1  0  0  0  0  0  0
  157.5490  212.6060  153.5890 C   0  0  0  0  0  2  0  0  0  0  0  0
  161.9070  206.7210  152.3170 C   0  0  0  0  0  2  0  0  0  0  0  0
  162.1820  206.5120  150.8340 C   0  0  0  0  0  2  0  0  0  0  0  0
  160.8850  206.4340  150.0380 C   0  0  1  0  0  3  0  0  0  0  0  0
  161.1140  206.7350  148.5740 C   0  0  0  0  0  0  0  0  0  0  0  0
  161.3610  207.8810  148.2360 O   0  0  0  0  0  0  0  0  0  0  0  0
  160.9730  205.6780  147.5180 C   0  0  0  0  0  2  0  0  0  0  0  0
  161.2600  206.2340  146.1310 C   0  0  2  0  0  3  0  0  0  0  0  0
  159.6210  203.2190  144.2520 C   0  0  0  0  0  2  0  0  0  0  0  0
  160.2990  205.6800  145.2100 N   0  0  0  0  0  0  0  0  0  0  0  0
  160.2290  204.4210  144.9740 C   0  0  0  0  0  0  0  0  0  0  0  0
  160.6790  202.9750  145.1770 C   0  0  0  0  0  2  0  0  0  0  0  0
  162.6110  205.8690  145.7240 N   0  0  0  0  0  2  0  0  0  0  0  0
  163.0960  204.9650  146.6810 N   0  0  0  0  0  1  0  0  0  0  0  0
  160.2750  205.0540  150.2490 C   0  0  0  0  0  2  0  0  0  0  0  0
  161.3590  203.9920  150.3300 C   0  0  1  0  0  3  0  0  0  0  0  0
  161.2830  203.2200  151.6130 C   0  0  0  0  0  0  0  0  0  0  0  0
  162.1970  202.2170  151.8980 O   0  0  0  0  0  0  0  0  0  0  0  0
  160.3880  203.4880  152.4550 O   0  0  0  0  0  1  0  0  0  0  0  0
  161.2040  203.0590  149.1400 C   0  0  0  0  0  2  0  0  0  0  0  0
  160.6450  201.7220  149.5940 C   0  0  1  0  0  3  0  0  0  0  0  0
  159.2920  201.6420  149.2630 O   0  0  0  0  0  1  0  0  0  0  0  0
  161.2100  200.4030  147.7260 O   0  0  0  0  0  0  0  0  0  0  0  0
  161.3800  200.6150  148.9160 C   0  0  0  0  0  3  0  0  0  0  0  0
  1 13  1  0  0  0  0
  2 16  1  6  0  0  0
  2 12  1  0  0  0  0
  2  1  1  0  0  0  0
  3  9  2  0  0  0  0
  3  8  1  0  0  0  0
  4  7  1  0  0  0  0
  4 15  1  0  0  0  0
  5 10  1  0  0  0  0
  6 11  1  0  0  0  0
  8  4  2  0  0  0  0
  9 14  1  0  0  0  0
 10 31  1  0  0  0  0
 11  5  1  0  0  0  0
 12  6  1  0  0  0  0
 13  9  1  0  0  0  0
 13  5  2  0  0  0  0
 14 10  1  0  0  0  0
 14  7  2  0  0  0  0
 16 17  1  6  0  0  0
 18 25  1  0  0  0  0
 19 23  1  0  0  0  0
 20 23  1  0  0  0  0
 22 25  1  6  0  0  0
 22 19  1  0  0  0  0
 23 16  1  1  0  0  0
 24 21  1  6  0  0  0
 24 22  1  0  0  0  0
 24 20  1  0  0  0  0
 26 28  1  6  0  0  0
 26 18  1  0  0  0  0
 26 21  1  0  0  0  0
 27 28  1  0  0  0  0
 28 29  1  0  0  0  0
 30 28  1  0  0  0  0
 33 32  1  0  0  0  0
 33 31  1  0  0  0  0
 34  8  1  0  0  0  0
 35 34  1  0  0  0  0
 36 47  1  6  0  0  0
 36 35  1  0  0  0  0
 37 36  1  0  0  0  0
 38 37  2  0  0  0  0
 39 37  1  0  0  0  0
 40 39  1  1  0  0  0
 41 43  1  0  0  0  0
 41 44  1  0  0  0  0
 42 40  1  0  0  0  0
 43 44  1  0  0  0  0
 43 42  2  0  0  0  0
 45 40  1  0  0  0  0
 45 46  1  0  0  0  0
 47 48  1  0  0  0  0
 48 52  1  6  0  0  0
 48 49  1  0  0  0  0
 49 50  2  0  0  0  0
 49 51  1  0  0  0  0
 52 53  1  0  0  0  0
 53 54  1  6  0  0  0
 55 56  2  0  0  0  0
 56 53  1  0  0  0  0
M  END
>  <MODEL>
1

>  <REMARK>
 VINA RESULT:      -7.1      0.000      0.000
  Name = 
  19 active torsions:
  status: ('A' for Active; 'I' for Inactive)
    1  A    between atoms: C_4  and  C_28
    2  A    between atoms: C_4  and  C_46
    3  A    between atoms: C_6  and  C_15
    4  A    between atoms: C_6  and  C_39
    5  A    between atoms: C_10  and  C_23
    6  A    between atoms: C_10  and  C_28
    7  A    between atoms: C_11  and  C_50
    8  A    between atoms: N_13  and  C_40
    9  A    between atoms: C_14  and  C_36
   10  A    between atoms: C_14  and  C_46
   11  A    between atoms: C_16  and  C_36
   12  A    between atoms: C_17  and  C_53
   13  A    between atoms: C_19  and  C_30
   14  A    between atoms: C_19  and  C_56
   15  A    between atoms: C_23  and  C_40
   16  A    between atoms: N_24  and  C_40
   17  A    between atoms: C_28  and  C_56
   18  A    between atoms: N_32  and  C_50
   19  A    between atoms: C_37  and  C_46
                            x       y       z     vdW  Elec       q    Type
                         _______ _______ _______ _____ _____    ______ ____

>  <TORSDO>
F 19

$$$$
=
 OpenBabel11052409543D

 56 61  0  0  1  0  0  0  0  0999 V2000
  159.6440  212.4390  151.4980 C   0  0  0  0  0  2  0  0  0  0  0  0
  158.2520  213.0170  151.2090 C   0  0  1  0  0  3  0  0  0  0  0  0
  160.7660  209.5080  152.0950 C   0  0  0  0  0  3  0  0  0  0  0  0
  161.1240  208.0010  153.9960 C   0  0  0  0  0  0  0  0  0  0  0  0
  159.1910  212.0880  154.0280 C   0  0  0  0  0  0  0  0  0  0  0  0
  158.7120  214.4530  153.3450 C   0  0  0  0  0  2  0  0  0  0  0  0
  160.5310  208.9340  154.8650 C   0  0  0  0  0  3  0  0  0  0  0  0
  161.2410  208.2820  152.6090 C   0  0  0  0  0  0  0  0  0  0  0  0
  160.2020  210.4170  152.9870 C   0  0  0  0  0  0  0  0  0  0  0  0
  159.4550  211.1440  154.9630 N   0  0  0  0  0  0  0  0  0  0  0  0
  158.3730  213.3190  154.3030 C   0  0  0  0  0  2  0  0  0  0  0  0
  157.9700  214.3100  152.0120 C   0  0  0  0  0  2  0  0  0  0  0  0
  159.6480  211.6640  152.7780 C   0  0  0  0  0  0  0  0  0  0  0  0
  160.0760  210.1360  154.3230 C   0  0  0  0  0  0  0  0  0  0  0  0
  161.6080  206.7690  154.5310 N   0  0  0  0  0  1  0  0  0  0  0  0
  158.0840  213.2920  149.7030 C   0  0  1  0  0  3  0  0  0  0  0  0
  156.8080  213.8090  149.4410 O   0  0  0  0  0  1  0  0  0  0  0  0
  162.6000  212.9990  146.2100 C   0  0  0  0  0  2  0  0  0  0  0  0
  160.5650  213.7600  149.3820 C   0  0  0  0  0  2  0  0  0  0  0  0
  158.9390  214.4350  147.7480 O   0  0  0  0  0  0  0  0  0  0  0  0
  160.3080  214.0440  145.7360 C   0  0  0  0  0  2  0  0  0  0  0  0
  161.1730  213.8700  148.0260 C   0  0  2  0  0  3  0  0  0  0  0  0
  159.1370  214.2660  149.1440 C   0  0  1  0  0  3  0  0  0  0  0  0
  159.9680  213.6830  147.1710 C   0  0  1  0  0  3  0  0  0  0  0  0
  162.1740  212.7870  147.6700 C   0  0  0  0  0  2  0  0  0  0  0  0
  161.3840  213.0460  145.2510 C   0  0  1  0  0  3  0  0  0  0  0  0
  161.4390  212.0500  142.9490 C   0  0  0  0  0  1  0  0  0  0  0  0
  161.7910  213.2680  143.7830 C   0  0  0  0  0  0  0  0  0  0  0  0
  161.0370  214.4530  143.2040 C   0  0  0  0  0  1  0  0  0  0  0  0
  163.2830  213.5300  143.6600 C   0  0  0  0  0  1  0  0  0  0  0  0
  159.0640  211.1730  156.3680 C   0  0  0  0  0  2  0  0  0  0  0  0
  157.0960  210.3160  155.3420 O   0  0  0  0  0  1  0  0  0  0  0  0
  157.5710  210.9400  156.4970 C   0  0  0  0  0  2  0  0  0  0  0  0
  161.7560  207.2270  151.6790 C   0  0  0  0  0  2  0  0  0  0  0  0
  160.6370  206.5380  150.9110 C   0  0  0  0  0  2  0  0  0  0  0  0
  161.1690  205.3700  150.0900 C   0  0  1  0  0  3  0  0  0  0  0  0
  160.8980  204.0460  150.7690 C   0  0  0  0  0  0  0  0  0  0  0  0
  161.4730  203.7850  151.8130 O   0  0  0  0  0  0  0  0  0  0  0  0
  159.9980  203.0130  150.1560 C   0  0  0  0  0  2  0  0  0  0  0  0
  160.7660  202.0850  149.2280 C   0  0  2  0  0  3  0  0  0  0  0  0
  160.4970  200.9520  145.4930 C   0  0  0  0  0  2  0  0  0  0  0  0
  160.1620  202.1470  147.9200 N   0  0  0  0  0  0  0  0  0  0  0  0
  160.5650  201.4140  146.9470 C   0  0  0  0  0  0  0  0  0  0  0  0
  161.4720  200.3450  146.3380 C   0  0  0  0  0  2  0  0  0  0  0  0
  160.7090  200.7210  149.7390 N   0  0  0  0  0  2  0  0  0  0  0  0
  161.7650  200.5820  150.6510 N   0  0  0  0  0  1  0  0  0  0  0  0
  160.5490  205.4370  148.7010 C   0  0  0  0  0  2  0  0  0  0  0  0
  161.4630  206.1750  147.7370 C   0  0  1  0  0  3  0  0  0  0  0  0
  162.1090  207.3630  148.3860 C   0  0  0  0  0  0  0  0  0  0  0  0
  163.4290  207.3160  148.8100 O   0  0  0  0  0  1  0  0  0  0  0  0
  161.4550  208.4260  148.5400 O   0  0  0  0  0  0  0  0  0  0  0  0
  162.5210  205.2020  147.2410 C   0  0  0  0  0  2  0  0  0  0  0  0
  162.4400  205.0700  145.7300 C   0  0  1  0  0  3  0  0  0  0  0  0
  163.3820  204.1400  145.2890 O   0  0  0  0  0  1  0  0  0  0  0  0
  160.6370  204.8600  144.2280 O   0  0  0  0  0  0  0  0  0  0  0  0
  161.0770  204.6080  145.3390 C   0  0  0  0  0  3  0  0  0  0  0  0
  1 13  1  0  0  0  0
  2 16  1  6  0  0  0
  2  1  1  0  0  0  0
  2 12  1  0  0  0  0
  3  8  2  0  0  0  0
  3  9  1  0  0  0  0
  4 15  1  0  0  0  0
  4  7  2  0  0  0  0
  5 11  1  0  0  0  0
  5 10  1  0  0  0  0
  6 11  1  0  0  0  0
  8  4  1  0  0  0  0
  9 14  2  0  0  0  0
 10 31  1  0  0  0  0
 12  6  1  0  0  0  0
 13  9  1  0  0  0  0
 13  5  2  0  0  0  0
 14  7  1  0  0  0  0
 14 10  1  0  0  0  0
 16 17  1  1  0  0  0
 18 25  1  0  0  0  0
 20 23  1  0  0  0  0
 22 25  1  6  0  0  0
 22 19  1  0  0  0  0
 23 19  1  0  0  0  0
 23 16  1  6  0  0  0
 24 21  1  6  0  0  0
 24 20  1  0  0  0  0
 24 22  1  0  0  0  0
 26 28  1  6  0  0  0
 26 21  1  0  0  0  0
 26 18  1  0  0  0  0
 27 28  1  0  0  0  0
 29 28  1  0  0  0  0
 30 28  1  0  0  0  0
 31 33  1  0  0  0  0
 32 33  1  0  0  0  0
 34  8  1  0  0  0  0
 35 34  1  0  0  0  0
 36 47  1  6  0  0  0
 36 37  1  0  0  0  0
 36 35  1  0  0  0  0
 37 38  2  0  0  0  0
 39 37  1  0  0  0  0
 40 45  1  0  0  0  0
 40 39  1  1  0  0  0
 41 44  1  0  0  0  0
 41 43  1  0  0  0  0
 42 40  1  0  0  0  0
 43 42  2  0  0  0  0
 44 43  1  0  0  0  0
 45 46  1  0  0  0  0
 48 52  1  1  0  0  0
 48 49  1  0  0  0  0
 48 47  1  0  0  0  0
 49 51  2  0  0  0  0
 49 50  1  0  0  0  0
 53 54  1  1  0  0  0
 53 52  1  0  0  0  0
 55 56  2  0  0  0  0
 56 53  1  0  0  0  0
M  END
>  <MODEL>
2

>  <REMARK>
 VINA RESULT:      -6.1      2.243      3.803
  Name = 
  19 active torsions:
  status: ('A' for Active; 'I' for Inactive)
    1  A    between atoms: C_4  and  C_28
    2  A    between atoms: C_4  and  C_46
    3  A    between atoms: C_6  and  C_15
    4  A    between atoms: C_6  and  C_39
    5  A    between atoms: C_10  and  C_23
    6  A    between atoms: C_10  and  C_28
    7  A    between atoms: C_11  and  C_50
    8  A    between atoms: N_13  and  C_40
    9  A    between atoms: C_14  and  C_36
   10  A    between atoms: C_14  and  C_46
   11  A    between atoms: C_16  and  C_36
   12  A    between atoms: C_17  and  C_53
   13  A    between atoms: C_19  and  C_30
   14  A    between atoms: C_19  and  C_56
   15  A    between atoms: C_23  and  C_40
   16  A    between atoms: N_24  and  C_40
   17  A    between atoms: C_28  and  C_56
   18  A    between atoms: N_32  and  C_50
   19  A    between atoms: C_37  and  C_46
                            x       y       z     vdW  Elec       q    Type
                         _______ _______ _______ _____ _____    ______ ____

>  <TORSDO>
F 19

$$$$
=
 OpenBabel11052409543D

 56 61  0  0  1  0  0  0  0  0999 V2000
  161.4170  211.8890  150.6910 C   0  0  0  0  0  2  0  0  0  0  0  0
  160.5910  212.4670  149.5350 C   0  0  1  0  0  3  0  0  0  0  0  0
  161.2820  209.1960  152.4060 C   0  0  0  0  0  3  0  0  0  0  0  0
  160.1790  208.3170  154.4110 C   0  0  0  0  0  0  0  0  0  0  0  0
  159.6050  212.3680  152.4850 C   0  0  0  0  0  0  0  0  0  0  0  0
  160.1660  214.4420  151.1930 C   0  0  0  0  0  2  0  0  0  0  0  0
  159.4620  209.5180  154.5610 C   0  0  0  0  0  3  0  0  0  0  0  0
  161.0880  208.1500  153.3340 C   0  0  0  0  0  0  0  0  0  0  0  0
  160.5700  210.3780  152.5940 C   0  0  0  0  0  0  0  0  0  0  0  0
  159.0840  211.7350  153.5640 N   0  0  0  0  0  0  0  0  0  0  0  0
  159.0990  213.6880  151.9750 C   0  0  0  0  0  2  0  0  0  0  0  0
  160.2500  213.9620  149.7410 C   0  0  0  0  0  2  0  0  0  0  0  0
  160.5410  211.5440  151.8560 C   0  0  0  0  0  0  0  0  0  0  0  0
  159.6810  210.5300  153.6260 C   0  0  0  0  0  0  0  0  0  0  0  0
  159.9790  207.2710  155.3630 N   0  0  0  0  0  1  0  0  0  0  0  0
  161.3330  212.2810  148.1980 C   0  0  1  0  0  3  0  0  0  0  0  0
  161.0390  211.0270  147.6460 O   0  0  0  0  0  1  0  0  0  0  0  0
  162.6940  213.4370  142.7660 C   0  0  0  0  0  2  0  0  0  0  0  0
  162.2580  213.9840  146.5480 C   0  0  0  0  0  2  0  0  0  0  0  0
  160.2070  212.8090  146.1200 O   0  0  0  0  0  0  0  0  0  0  0  0
  160.4610  212.5720  143.6800 C   0  0  0  0  0  2  0  0  0  0  0  0
  161.9810  213.8900  145.0860 C   0  0  2  0  0  3  0  0  0  0  0  0
  160.9940  213.3690  147.1610 C   0  0  1  0  0  3  0  0  0  0  0  0
  161.1010  212.6890  145.0510 C   0  0  1  0  0  3  0  0  0  0  0  0
  163.1880  213.6140  144.2100 C   0  0  0  0  0  2  0  0  0  0  0  0
  161.5970  212.3490  142.6570 C   0  0  1  0  0  3  0  0  0  0  0  0
  161.5880  210.8570  140.6400 C   0  0  0  0  0  1  0  0  0  0  0  0
  161.0820  212.1660  141.2170 C   0  0  0  0  0  0  0  0  0  0  0  0
  159.5640  212.1140  141.2070 C   0  0  0  0  0  1  0  0  0  0  0  0
  161.5390  213.3050  140.3210 C   0  0  0  0  0  1  0  0  0  0  0  0
  158.0200  212.2250  154.4340 C   0  0  0  0  0  2  0  0  0  0  0  0
  157.0270  211.4010  156.4330 O   0  0  0  0  0  1  0  0  0  0  0  0
  158.2500  211.7470  155.8550 C   0  0  0  0  0  2  0  0  0  0  0  0
  161.7450  206.8220  153.1160 C   0  0  0  0  0  2  0  0  0  0  0  0
  161.0640  206.0140  152.0190 C   0  0  0  0  0  2  0  0  0  0  0  0
  162.0080  204.9670  151.4390 C   0  0  1  0  0  3  0  0  0  0  0  0
  161.3750  203.5930  151.4340 C   0  0  0  0  0  0  0  0  0  0  0  0
  161.8440  202.7210  152.1450 O   0  0  0  0  0  0  0  0  0  0  0  0
  160.2310  203.2540  150.5230 C   0  0  0  0  0  2  0  0  0  0  0  0
  160.5000  201.9750  149.7440 C   0  0  2  0  0  3  0  0  0  0  0  0
  160.9340  201.0590  145.9660 C   0  0  0  0  0  2  0  0  0  0  0  0
  160.3230  202.2500  148.3400 N   0  0  0  0  0  0  0  0  0  0  0  0
  160.7370  201.4470  147.4300 C   0  0  0  0  0  0  0  0  0  0  0  0
  161.4150  200.1590  146.9620 C   0  0  0  0  0  2  0  0  0  0  0  0
  159.5710  200.9350  150.1710 N   0  0  0  0  0  2  0  0  0  0  0  0
  158.3600  201.1690  149.5030 N   0  0  0  0  0  1  0  0  0  0  0  0
  162.4180  205.4130  150.0420 C   0  0  0  0  0  2  0  0  0  0  0  0
  161.3820  206.3540  149.4500 C   0  0  1  0  0  3  0  0  0  0  0  0
  161.9970  207.6500  149.0130 C   0  0  0  0  0  0  0  0  0  0  0  0
  161.2320  208.8010  148.8970 O   0  0  0  0  0  1  0  0  0  0  0  0
  163.2270  207.7060  148.7580 O   0  0  0  0  0  0  0  0  0  0  0  0
  160.7200  205.6570  148.2730 C   0  0  0  0  0  2  0  0  0  0  0  0
  161.4180  206.0410  146.9790 C   0  0  1  0  0  3  0  0  0  0  0  0
  161.9240  204.8980  146.3610 O   0  0  0  0  0  1  0  0  0  0  0  0
  160.0300  206.1120  145.0770 O   0  0  0  0  0  0  0  0  0  0  0  0
  160.4450  206.7030  146.0620 C   0  0  0  0  0  3  0  0  0  0  0  0
  1 13  1  0  0  0  0
  2 16  1  6  0  0  0
  2 12  1  0  0  0  0
  2  1  1  0  0  0  0
  3  9  2  0  0  0  0
  3  8  1  0  0  0  0
  4  7  1  0  0  0  0
  4 15  1  0  0  0  0
  5 10  1  0  0  0  0
  6 11  1  0  0  0  0
  8  4  2  0  0  0  0
  9 14  1  0  0  0  0
 10 14  1  0  0  0  0
 10 31  1  0  0  0  0
 11  5  1  0  0  0  0
 12  6  1  0  0  0  0
 13  5  2  0  0  0  0
 13  9  1  0  0  0  0
 14  7  2  0  0  0  0
 16 17  1  6  0  0  0
 18 25  1  0  0  0  0
 19 23  1  0  0  0  0
 20 23  1  0  0  0  0
 22 25  1  6  0  0  0
 22 19  1  0  0  0  0
 23 16  1  1  0  0  0
 24 21  1  6  0  0  0
 24 22  1  0  0  0  0
 24 20  1  0  0  0  0
 26 28  1  6  0  0  0
 26 18  1  0  0  0  0
 26 21  1  0  0  0  0
 27 28  1  0  0  0  0
 29 28  1  0  0  0  0
 30 28  1  0  0  0  0
 31 33  1  0  0  0  0
 33 32  1  0  0  0  0
 34  8  1  0  0  0  0
 35 34  1  0  0  0  0
 36 47  1  6  0  0  0
 36 35  1  0  0  0  0
 37 36  1  0  0  0  0
 37 38  2  0  0  0  0
 39 37  1  0  0  0  0
 40 45  1  0  0  0  0
 40 39  1  1  0  0  0
 41 44  1  0  0  0  0
 41 43  1  0  0  0  0
 42 40  1  0  0  0  0
 43 42  2  0  0  0  0
 44 43  1  0  0  0  0
 46 45  1  0  0  0  0
 48 52  1  6  0  0  0
 48 47  1  0  0  0  0
 49 48  1  0  0  0  0
 50 49  1  0  0  0  0
 51 49  2  0  0  0  0
 53 54  1  6  0  0  0
 53 52  1  0  0  0  0
 55 56  2  0  0  0  0
 56 53  1  0  0  0  0
M  END
>  <MODEL>
3

>  <REMARK>
 VINA RESULT:      -5.5      1.870      3.247
  Name = 
  19 active torsions:
  status: ('A' for Active; 'I' for Inactive)
    1  A    between atoms: C_4  and  C_28
    2  A    between atoms: C_4  and  C_46
    3  A    between atoms: C_6  and  C_15
    4  A    between atoms: C_6  and  C_39
    5  A    between atoms: C_10  and  C_23
    6  A    between atoms: C_10  and  C_28
    7  A    between atoms: C_11  and  C_50
    8  A    between atoms: N_13  and  C_40
    9  A    between atoms: C_14  and  C_36
   10  A    between atoms: C_14  and  C_46
   11  A    between atoms: C_16  and  C_36
   12  A    between atoms: C_17  and  C_53
   13  A    between atoms: C_19  and  C_30
   14  A    between atoms: C_19  and  C_56
   15  A    between atoms: C_23  and  C_40
   16  A    between atoms: N_24  and  C_40
   17  A    between atoms: C_28  and  C_56
   18  A    between atoms: N_32  and  C_50
   19  A    between atoms: C_37  and  C_46
                            x       y       z     vdW  Elec       q    Type
                         _______ _______ _______ _____ _____    ______ ____

>  <TORSDO>
F 19

$$$$
=
 OpenBabel11052409543D

 56 61  0  0  1  0  0  0  0  0999 V2000
  160.1960  212.4510  151.7700 C   0  0  0  0  0  2  0  0  0  0  0  0
  159.1380  212.9840  150.7950 C   0  0  1  0  0  3  0  0  0  0  0  0
  160.9170  209.5590  152.9220 C   0  0  0  0  0  3  0  0  0  0  0  0
  160.2810  208.0770  154.7690 C   0  0  0  0  0  0  0  0  0  0  0  0
  158.5150  212.1040  153.7150 C   0  0  0  0  0  0  0  0  0  0  0  0
  158.4020  214.4480  152.8320 C   0  0  0  0  0  2  0  0  0  0  0  0
  159.3050  208.9980  155.1900 C   0  0  0  0  0  3  0  0  0  0  0  0
  161.0870  208.3520  153.6330 C   0  0  0  0  0  0  0  0  0  0  0  0
  159.9540  210.4570  153.3780 C   0  0  0  0  0  0  0  0  0  0  0  0
  158.2810  211.1750  154.6730 N   0  0  0  0  0  0  0  0  0  0  0  0
  157.6440  213.3120  153.5040 C   0  0  0  0  0  2  0  0  0  0  0  0
  158.4540  214.2730  151.3110 C   0  0  0  0  0  2  0  0  0  0  0  0
  159.5580  211.6850  152.8870 C   0  0  0  0  0  0  0  0  0  0  0  0
  159.1660  210.1810  154.4640 C   0  0  0  0  0  0  0  0  0  0  0  0
  160.4480  206.8640  155.5030 N   0  0  0  0  0  1  0  0  0  0  0  0
  159.7610  213.2430  149.4110 C   0  0  1  0  0  3  0  0  0  0  0  0
  161.1170  212.8890  149.4120 O   0  0  0  0  0  1  0  0  0  0  0  0
  158.5860  214.1380  143.8880 C   0  0  0  0  0  2  0  0  0  0  0  0
  157.9760  213.3410  147.6000 C   0  0  0  0  0  2  0  0  0  0  0  0
  160.0030  212.0880  147.2970 O   0  0  0  0  0  0  0  0  0  0  0  0
  160.3070  212.5250  144.8910 C   0  0  0  0  0  2  0  0  0  0  0  0
  158.3150  213.2010  146.1560 C   0  0  2  0  0  3  0  0  0  0  0  0
  159.0520  212.4820  148.2750 C   0  0  1  0  0  3  0  0  0  0  0  0
  159.7860  212.9800  146.2410 C   0  0  1  0  0  3  0  0  0  0  0  0
  158.0740  214.4330  145.3060 C   0  0  0  0  0  2  0  0  0  0  0  0
  160.0650  213.6760  143.8890 C   0  0  1  0  0  3  0  0  0  0  0  0
  160.6450  211.8660  142.2520 C   0  0  0  0  0  1  0  0  0  0  0  0
  160.5930  213.3660  142.4760 C   0  0  0  0  0  0  0  0  0  0  0  0
  159.6630  213.9540  141.4290 C   0  0  0  0  0  1  0  0  0  0  0  0
  161.9860  213.9390  142.2720 C   0  0  0  0  0  1  0  0  0  0  0  0
  157.2240  211.2020  155.6770 C   0  0  0  0  0  2  0  0  0  0  0  0
  154.9310  211.2950  155.0490 O   0  0  0  0  0  1  0  0  0  0  0  0
  156.0170  210.4280  155.1810 C   0  0  0  0  0  2  0  0  0  0  0  0
  162.0310  207.3060  153.1230 C   0  0  0  0  0  2  0  0  0  0  0  0
  161.3060  206.0470  152.6680 C   0  0  0  0  0  2  0  0  0  0  0  0
  161.0070  206.0910  151.1750 C   0  0  1  0  0  3  0  0  0  0  0  0
  162.2630  206.3270  150.3660 C   0  0  0  0  0  0  0  0  0  0  0  0
  163.3260  206.4670  150.9460 O   0  0  0  0  0  0  0  0  0  0  0  0
  162.2260  206.4670  148.8720 C   0  0  0  0  0  2  0  0  0  0  0  0
  161.0750  207.3550  148.4240 C   0  0  2  0  0  3  0  0  0  0  0  0
  161.3170  205.2880  145.1110 C   0  0  0  0  0  2  0  0  0  0  0  0
  160.4920  206.7820  147.2370 N   0  0  0  0  0  0  0  0  0  0  0  0
  161.1800  206.0930  146.4020 C   0  0  0  0  0  0  0  0  0  0  0  0
  162.4810  205.4530  145.9180 C   0  0  0  0  0  2  0  0  0  0  0  0
  161.5720  208.6960  148.1390 N   0  0  0  0  0  2  0  0  0  0  0  0
  162.1390  209.1840  149.3250 N   0  0  0  0  0  1  0  0  0  0  0  0
  160.3120  204.7930  150.7860 C   0  0  0  0  0  2  0  0  0  0  0  0
  161.3290  203.7200  150.4370 C   0  0  1  0  0  3  0  0  0  0  0  0
  161.4010  202.6600  151.4960 C   0  0  0  0  0  0  0  0  0  0  0  0
  162.5150  201.8430  151.6140 O   0  0  0  0  0  0  0  0  0  0  0  0
  160.4460  202.5120  152.3020 O   0  0  0  0  0  1  0  0  0  0  0  0
  160.9400  203.1080  149.1010 C   0  0  0  0  0  2  0  0  0  0  0  0
  160.4940  201.6690  149.2960 C   0  0  1  0  0  3  0  0  0  0  0  0
  159.1000  201.6060  149.3080 O   0  0  0  0  0  1  0  0  0  0  0  0
  162.1230  200.3290  148.2470 O   0  0  0  0  0  0  0  0  0  0  0  0
  161.0110  200.8280  148.1770 C   0  0  0  0  0  3  0  0  0  0  0  0
  1 13  1  0  0  0  0
  2 16  1  6  0  0  0
  2 12  1  0  0  0  0
  2  1  1  0  0  0  0
  3  9  2  0  0  0  0
  3  8  1  0  0  0  0
  4  7  1  0  0  0  0
  4 15  1  0  0  0  0
  5 10  1  0  0  0  0
  6 11  1  0  0  0  0
  8  4  2  0  0  0  0
  9 14  1  0  0  0  0
 10 31  1  0  0  0  0
 11  5  1  0  0  0  0
 12  6  1  0  0  0  0
 13  9  1  0  0  0  0
 13  5  2  0  0  0  0
 14 10  1  0  0  0  0
 14  7  2  0  0  0  0
 16 17  1  1  0  0  0
 18 26  1  0  0  0  0
 18 25  1  0  0  0  0
 19 23  1  0  0  0  0
 20 23  1  0  0  0  0
 22 25  1  6  0  0  0
 22 24  1  0  0  0  0
 22 19  1  0  0  0  0
 23 16  1  1  0  0  0
 24 21  1  6  0  0  0
 24 20  1  0  0  0  0
 26 28  1  6  0  0  0
 26 21  1  0  0  0  0
 27 28  1  0  0  0  0
 29 28  1  0  0  0  0
 30 28  1  0  0  0  0
 32 33  1  0  0  0  0
 33 31  1  0  0  0  0
 34  8  1  0  0  0  0
 35 34  1  0  0  0  0
 36 47  1  6  0  0  0
 36 35  1  0  0  0  0
 37 38  2  0  0  0  0
 37 36  1  0  0  0  0
 39 37  1  0  0  0  0
 40 39  1  6  0  0  0
 41 44  1  0  0  0  0
 41 43  1  0  0  0  0
 42 40  1  0  0  0  0
 43 42  2  0  0  0  0
 44 43  1  0  0  0  0
 45 40  1  0  0  0  0
 45 46  1  0  0  0  0
 48 52  1  6  0  0  0
 48 47  1  0  0  0  0
 48 49  1  0  0  0  0
 49 50  2  0  0  0  0
 49 51  1  0  0  0  0
 52 53  1  0  0  0  0
 53 54  1  6  0  0  0
 56 55  2  0  0  0  0
 56 53  1  0  0  0  0
M  END
>  <MODEL>
4

>  <REMARK>
 VINA RESULT:      -5.4      1.785      2.532
  Name = 
  19 active torsions:
  status: ('A' for Active; 'I' for Inactive)
    1  A    between atoms: C_4  and  C_28
    2  A    between atoms: C_4  and  C_46
    3  A    between atoms: C_6  and  C_15
    4  A    between atoms: C_6  and  C_39
    5  A    between atoms: C_10  and  C_23
    6  A    between atoms: C_10  and  C_28
    7  A    between atoms: C_11  and  C_50
    8  A    between atoms: N_13  and  C_40
    9  A    between atoms: C_14  and  C_36
   10  A    between atoms: C_14  and  C_46
   11  A    between atoms: C_16  and  C_36
   12  A    between atoms: C_17  and  C_53
   13  A    between atoms: C_19  and  C_30
   14  A    between atoms: C_19  and  C_56
   15  A    between atoms: C_23  and  C_40
   16  A    between atoms: N_24  and  C_40
   17  A    between atoms: C_28  and  C_56
   18  A    between atoms: N_32  and  C_50
   19  A    between atoms: C_37  and  C_46
                            x       y       z     vdW  Elec       q    Type
                         _______ _______ _______ _____ _____    ______ ____

>  <TORSDO>
F 19

$$$$
=
 OpenBabel11052409543D

 56 61  0  0  1  0  0  0  0  0999 V2000
  159.8890  211.8380  152.5040 C   0  0  0  0  0  2  0  0  0  0  0  0
  158.4830  212.4100  152.7250 C   0  0  1  0  0  3  0  0  0  0  0  0
  161.0370  208.9440  151.7820 C   0  0  0  0  0  3  0  0  0  0  0  0
  161.7390  206.8840  152.9100 C   0  0  0  0  0  0  0  0  0  0  0  0
  159.9570  210.5950  154.7800 C   0  0  0  0  0  0  0  0  0  0  0  0
  159.4070  213.0210  155.0930 C   0  0  0  0  0  2  0  0  0  0  0  0
  161.3610  207.4190  154.1540 C   0  0  0  0  0  3  0  0  0  0  0  0
  161.5760  207.6420  151.7200 C   0  0  0  0  0  0  0  0  0  0  0  0
  160.6900  209.4510  153.0330 C   0  0  0  0  0  0  0  0  0  0  0  0
  160.3830  209.3960  155.2450 N   0  0  0  0  0  0  0  0  0  0  0  0
  159.2440  211.6070  155.6330 C   0  0  0  0  0  2  0  0  0  0  0  0
  158.4040  213.3200  153.9740 C   0  0  0  0  0  2  0  0  0  0  0  0
  160.1360  210.6620  153.3960 C   0  0  0  0  0  0  0  0  0  0  0  0
  160.8340  208.7100  154.1770 C   0  0  0  0  0  0  0  0  0  0  0  0
  162.2920  205.5680  152.8630 N   0  0  0  0  0  1  0  0  0  0  0  0
  158.0160  213.1890  151.4820 C   0  0  1  0  0  3  0  0  0  0  0  0
  156.9980  214.0890  151.8230 O   0  0  0  0  0  1  0  0  0  0  0  0
  161.3610  212.5000  146.8970 C   0  0  0  0  0  2  0  0  0  0  0  0
  160.3900  213.0890  150.5700 C   0  0  0  0  0  2  0  0  0  0  0  0
  158.7060  214.4530  149.5350 O   0  0  0  0  0  0  0  0  0  0  0  0
  159.4200  214.1460  147.1960 C   0  0  0  0  0  2  0  0  0  0  0  0
  160.6870  213.3140  149.1270 C   0  0  2  0  0  3  0  0  0  0  0  0
  159.1520  213.9670  150.7920 C   0  0  1  0  0  3  0  0  0  0  0  0
  159.3200  213.6030  148.6100 C   0  0  1  0  0  3  0  0  0  0  0  0
  161.2290  212.1130  148.3780 C   0  0  0  0  0  2  0  0  0  0  0  0
  160.0280  213.0330  146.3140 C   0  0  1  0  0  3  0  0  0  0  0  0
  159.9380  212.2260  143.9410 C   0  0  0  0  0  1  0  0  0  0  0  0
  160.1450  213.4350  144.8330 C   0  0  0  0  0  0  0  0  0  0  0  0
  159.0720  214.4520  144.4810 C   0  0  0  0  0  1  0  0  0  0  0  0
  161.5070  214.0380  144.5330 C   0  0  0  0  0  1  0  0  0  0  0  0
  160.2900  208.9070  156.6160 C   0  0  0  0  0  2  0  0  0  0  0  0
  159.0710  206.9090  156.1900 O   0  0  0  0  0  1  0  0  0  0  0  0
  160.3060  207.3900  156.6300 C   0  0  0  0  0  2  0  0  0  0  0  0
  161.8630  207.0100  150.3930 C   0  0  0  0  0  2  0  0  0  0  0  0
  160.7050  206.1530  149.8990 C   0  0  0  0  0  2  0  0  0  0  0  0
  161.2080  204.8950  149.2010 C   0  0  1  0  0  3  0  0  0  0  0  0
  160.5690  203.6500  149.7750 C   0  0  0  0  0  0  0  0  0  0  0  0
  160.3990  203.5720  150.9800 O   0  0  0  0  0  0  0  0  0  0  0  0
  160.2050  202.4780  148.9110 C   0  0  0  0  0  2  0  0  0  0  0  0
  161.3000  201.4220  148.9140 C   0  0  2  0  0  3  0  0  0  0  0  0
  160.2200  200.6840  145.2270 C   0  0  0  0  0  2  0  0  0  0  0  0
  161.0680  200.5220  147.8130 N   0  0  0  0  0  0  0  0  0  0  0  0
  160.6570  200.9330  146.6690 C   0  0  0  0  0  0  0  0  0  0  0  0
  160.2210  202.0300  145.6990 C   0  0  0  0  0  2  0  0  0  0  0  0
  161.2720  200.6890  150.1740 N   0  0  0  0  0  2  0  0  0  0  0  0
  159.9490  200.2680  150.3730 N   0  0  0  0  0  1  0  0  0  0  0  0
  160.9450  205.0360  147.7080 C   0  0  0  0  0  2  0  0  0  0  0  0
  162.1750  205.5670  146.9920 C   0  0  1  0  0  3  0  0  0  0  0  0
  163.1210  204.4630  146.6230 C   0  0  0  0  0  0  0  0  0  0  0  0
  164.4130  204.7400  146.2020 O   0  0  0  0  0  0  0  0  0  0  0  0
  162.7490  203.2650  146.7060 O   0  0  0  0  0  1  0  0  0  0  0  0
  161.7190  206.3130  145.7470 C   0  0  0  0  0  2  0  0  0  0  0  0
  160.6210  205.5330  145.0440 C   0  0  1  0  0  3  0  0  0  0  0  0
  159.4510  206.2920  145.0160 O   0  0  0  0  0  1  0  0  0  0  0  0
  161.5770  206.0870  142.9630 O   0  0  0  0  0  0  0  0  0  0  0  0
  161.0400  205.2280  143.6450 C   0  0  0  0  0  3  0  0  0  0  0  0
  1  2  1  0  0  0  0
  1 13  1  0  0  0  0
  2 16  1  6  0  0  0
  2 12  1  0  0  0  0
  3  9  1  0  0  0  0
  4  7  2  0  0  0  0
  5 10  1  0  0  0  0
  5 11  1  0  0  0  0
  6 11  1  0  0  0  0
  7 14  1  0  0  0  0
  8  3  2  0  0  0  0
  8  4  1  0  0  0  0
  9 13  1  0  0  0  0
  9 14  2  0  0  0  0
 10 31  1  0  0  0  0
 12  6  1  0  0  0  0
 13  5  2  0  0  0  0
 14 10  1  0  0  0  0
 15  4  1  0  0  0  0
 16 17  1  1  0  0  0
 18 25  1  0  0  0  0
 19 23  1  0  0  0  0
 20 23  1  0  0  0  0
 22 25  1  6  0  0  0
 22 19  1  0  0  0  0
 23 16  1  6  0  0  0
 24 21  1  6  0  0  0
 24 22  1  0  0  0  0
 24 20  1  0  0  0  0
 26 28  1  6  0  0  0
 26 18  1  0  0  0  0
 26 21  1  0  0  0  0
 27 28  1  0  0  0  0
 29 28  1  0  0  0  0
 30 28  1  0  0  0  0
 31 33  1  0  0  0  0
 32 33  1  0  0  0  0
 34  8  1  0  0  0  0
 35 34  1  0  0  0  0
 36 47  1  6  0  0  0
 36 37  1  0  0  0  0
 36 35  1  0  0  0  0
 37 38  2  0  0  0  0
 39 37  1  0  0  0  0
 40 39  1  1  0  0  0
 40 45  1  0  0  0  0
 41 44  1  0  0  0  0
 41 43  1  0  0  0  0
 42 40  1  0  0  0  0
 43 42  2  0  0  0  0
 44 43  1  0  0  0  0
 45 46  1  0  0  0  0
 48 52  1  6  0  0  0
 48 47  1  0  0  0  0
 49 51  1  0  0  0  0
 49 48  1  0  0  0  0
 50 49  2  0  0  0  0
 53 54  1  6  0  0  0
 53 52  1  0  0  0  0
 55 56  2  0  0  0  0
 56 53  1  0  0  0  0
M  END
>  <MODEL>
5

>  <REMARK>
 VINA RESULT:      -5.3      2.467      4.686
  Name = 
  19 active torsions:
  status: ('A' for Active; 'I' for Inactive)
    1  A    between atoms: C_4  and  C_28
    2  A    between atoms: C_4  and  C_46
    3  A    between atoms: C_6  and  C_15
    4  A    between atoms: C_6  and  C_39
    5  A    between atoms: C_10  and  C_23
    6  A    between atoms: C_10  and  C_28
    7  A    between atoms: C_11  and  C_50
    8  A    between atoms: N_13  and  C_40
    9  A    between atoms: C_14  and  C_36
   10  A    between atoms: C_14  and  C_46
   11  A    between atoms: C_16  and  C_36
   12  A    between atoms: C_17  and  C_53
   13  A    between atoms: C_19  and  C_30
   14  A    between atoms: C_19  and  C_56
   15  A    between atoms: C_23  and  C_40
   16  A    between atoms: N_24  and  C_40
   17  A    between atoms: C_28  and  C_56
   18  A    between atoms: N_32  and  C_50
   19  A    between atoms: C_37  and  C_46
                            x       y       z     vdW  Elec       q    Type
                         _______ _______ _______ _____ _____    ______ ____

>  <TORSDO>
F 19

$$$$
