=
 OpenBabel11052411533D

 32 35  0  0  1  0  0  0  0  0999 V2000
  161.1360  204.3710  151.9910 C   0  0  0  0  0  2  0  0  0  0  0  0
  161.7510  207.2050  149.9390 N   0  0  0  0  0  0  0  0  0  0  0  0
  160.3100  203.9880  149.8150 N   0  0  0  0  0  2  0  0  0  0  0  0
  160.8800  206.2880  147.9190 O   0  0  0  0  0  0  0  0  0  0  0  0
  160.4710  203.3270  151.1160 C   0  0  1  0  0  3  0  0  0  0  0  0
  160.9980  206.2610  149.1740 C   0  0  0  0  0  0  0  0  0  0  0  0
  161.8260  206.7540  151.3420 C   0  0  2  0  0  3  0  0  0  0  0  0
  160.4920  205.2380  150.0470 C   0  0  2  0  0  3  0  0  0  0  0  0
  160.9950  205.5050  151.3350 C   0  0  1  0  0  3  0  0  0  0  0  0
  160.2960  208.5740  156.6310 C   0  0  0  0  0  1  0  0  0  0  0  0
  161.6040  206.7700  154.4620 O   0  0  0  0  0  0  0  0  0  0  0  0
  160.0110  209.3390  155.3820 C   0  0  0  0  0  0  0  0  0  0  0  0
  159.4600  210.7450  152.9780 C   0  0  0  0  0  3  0  0  0  0  0  0
  159.0210  211.2520  154.2140 C   0  0  0  0  0  0  0  0  0  0  0  0
  161.1520  207.6860  153.7240 C   0  0  0  0  0  0  0  0  0  0  0  0
  160.1710  209.5480  152.9730 C   0  0  0  0  0  0  0  0  0  0  0  0
  159.2930  210.5530  155.4160 C   0  0  0  0  0  0  0  0  0  0  0  0
  160.6680  208.8600  151.8240 N   0  0  0  0  0  0  0  0  0  0  0  0
  158.8500  211.0640  156.6330 O   0  0  0  0  0  1  0  0  0  0  0  0
  161.2450  207.7830  152.2630 C   0  0  0  0  0  0  0  0  0  0  0  0
  158.2580  212.5320  154.2360 C   0  0  0  0  0  1  0  0  0  0  0  0
  160.4360  208.8710  154.1380 C   0  0  0  0  0  0  0  0  0  0  0  0
  161.0510  201.1740  150.0030 O   0  0  0  0  0  0  0  0  0  0  0  0
  161.3320  202.1130  150.9870 C   0  0  0  0  0  0  0  0  0  0  0  0
  162.2990  201.9240  151.7720 O   0  0  0  0  0  1  0  0  0  0  0  0
  162.6580  208.1830  149.3500 C   0  0  0  0  0  2  0  0  0  0  0  0
  161.8840  209.2070  148.5320 C   0  0  0  0  0  2  0  0  0  0  0  0
  162.6700  210.5580  150.3650 O   0  0  0  0  0  1  0  0  0  0  0  0
  161.9230  210.5830  149.1850 C   0  0  1  0  0  3  0  0  0  0  0  0
  162.4730  211.6420  148.2310 C   0  0  0  0  0  2  0  0  0  0  0  0
  160.8320  213.3170  149.0890 C   0  0  0  0  0  1  0  0  0  0  0  0
  161.4350  212.6910  147.8470 C   0  0  0  0  0  2  0  0  0  0  0  0
  2  7  1  0  0  0  0
  3  8  1  0  0  0  0
  3  5  1  0  0  0  0
  4  6  2  0  0  0  0
  5 24  1  6  0  0  0
  5  1  1  0  0  0  0
  6  2  1  0  0  0  0
  7 20  1  1  0  0  0
  8  6  1  6  0  0  0
  8  9  1  0  0  0  0
  9  7  1  0  0  0  0
  9  1  1  6  0  0  0
 12 17  1  0  0  0  0
 12 10  1  0  0  0  0
 13 14  1  0  0  0  0
 14 21  1  0  0  0  0
 14 17  2  0  0  0  0
 15 22  1  0  0  0  0
 15 11  2  0  0  0  0
 16 13  2  0  0  0  0
 16 22  1  0  0  0  0
 17 19  1  0  0  0  0
 18 20  2  0  0  0  0
 18 16  1  0  0  0  0
 20 15  1  0  0  0  0
 22 12  2  0  0  0  0
 23 24  2  0  0  0  0
 24 25  1  0  0  0  0
 26  2  1  0  0  0  0
 27 29  1  0  0  0  0
 27 26  1  0  0  0  0
 29 28  1  1  0  0  0
 30 29  1  0  0  0  0
 32 30  1  0  0  0  0
 32 31  1  0  0  0  0
M  END
>  <MODEL>
1

>  <REMARK>
 VINA RESULT:      -7.0      0.000      0.000
  Name = 
  7 active torsions:
  status: ('A' for Active; 'I' for Inactive)
    1  A    between atoms: C_5  and  N_9
    2  A    between atoms: C_5  and  C_25
    3  A    between atoms: C_8  and  C_18
    4  A    between atoms: C_8  and  C_29
    5  A    between atoms: CA_19  and  C_23
    6  A    between atoms: C_22  and  C_30
    7  A    between atoms: C_25  and  C_29
                            x       y       z     vdW  Elec       q    Type
                         _______ _______ _______ _____ _____    ______ ____

>  <TORSDO>
F 7

$$$$
=
 OpenBabel11052411533D

 32 35  0  0  1  0  0  0  0  0999 V2000
  162.3300  211.3490  148.5250 C   0  0  0  0  0  2  0  0  0  0  0  0
  161.4990  210.7340  151.9250 N   0  0  0  0  0  0  0  0  0  0  0  0
  160.6710  212.8660  149.2400 N   0  0  0  0  0  2  0  0  0  0  0  0
  159.9540  212.5310  152.1690 O   0  0  0  0  0  0  0  0  0  0  0  0
  161.5080  212.5400  148.0780 C   0  0  1  0  0  3  0  0  0  0  0  0
  160.6340  211.7620  151.4380 C   0  0  0  0  0  0  0  0  0  0  0  0
  162.2740  210.1700  150.8020 C   0  0  2  0  0  3  0  0  0  0  0  0
  160.7460  211.8380  150.0070 C   0  0  2  0  0  3  0  0  0  0  0  0
  161.7340  210.9140  149.6180 C   0  0  1  0  0  3  0  0  0  0  0  0
  161.0690  205.4640  147.6340 C   0  0  0  0  0  1  0  0  0  0  0  0
  161.8140  208.4200  148.2510 O   0  0  0  0  0  0  0  0  0  0  0  0
  161.1830  205.4490  149.1210 C   0  0  0  0  0  0  0  0  0  0  0  0
  161.3780  205.4710  151.9540 C   0  0  0  0  0  3  0  0  0  0  0  0
  161.0490  204.2850  151.2740 C   0  0  0  0  0  0  0  0  0  0  0  0
  161.7860  207.9650  149.4250 C   0  0  0  0  0  0  0  0  0  0  0  0
  161.6070  206.6200  151.2010 C   0  0  0  0  0  0  0  0  0  0  0  0
  160.9510  204.2700  149.8600 C   0  0  0  0  0  0  0  0  0  0  0  0
  161.9170  207.9190  151.7060 N   0  0  0  0  0  0  0  0  0  0  0  0
  160.6220  203.0900  149.1990 O   0  0  0  0  0  1  0  0  0  0  0  0
  162.0290  208.6980  150.6720 C   0  0  0  0  0  0  0  0  0  0  0  0
  160.8000  203.0480  152.0660 C   0  0  0  0  0  1  0  0  0  0  0  0
  161.5120  206.6050  149.8310 C   0  0  0  0  0  0  0  0  0  0  0  0
  162.7220  213.9180  146.3940 O   0  0  0  0  0  0  0  0  0  0  0  0
  162.3890  213.6930  147.7230 C   0  0  0  0  0  0  0  0  0  0  0  0
  162.8440  214.4530  148.6190 O   0  0  0  0  0  1  0  0  0  0  0  0
  161.8760  210.5900  153.3260 C   0  0  0  0  0  2  0  0  0  0  0  0
  160.7120  210.0430  154.1400 C   0  0  0  0  0  2  0  0  0  0  0  0
  159.8610  210.5150  156.3440 O   0  0  0  0  0  1  0  0  0  0  0  0
  160.9970  210.1170  155.6350 C   0  0  1  0  0  3  0  0  0  0  0  0
  161.5180  208.7850  156.1730 C   0  0  0  0  0  2  0  0  0  0  0  0
  159.7340  207.0390  156.1770 C   0  0  0  0  0  1  0  0  0  0  0  0
  160.9400  207.5810  155.4370 C   0  0  0  0  0  2  0  0  0  0  0  0
  2 26  1  0  0  0  0
  5 24  1  1  0  0  0
  5  1  1  0  0  0  0
  5  3  1  0  0  0  0
  6  2  1  0  0  0  0
  6  4  2  0  0  0  0
  7 20  1  6  0  0  0
  7  2  1  0  0  0  0
  8  3  1  1  0  0  0
  8  6  1  0  0  0  0
  9  1  1  1  0  0  0
  9  8  1  0  0  0  0
  9  7  1  0  0  0  0
 10 12  1  0  0  0  0
 11 15  2  0  0  0  0
 12 22  2  0  0  0  0
 12 17  1  0  0  0  0
 14 13  1  0  0  0  0
 14 21  1  0  0  0  0
 15 22  1  0  0  0  0
 15 20  1  0  0  0  0
 16 18  1  0  0  0  0
 16 13  2  0  0  0  0
 17 14  2  0  0  0  0
 19 17  1  0  0  0  0
 20 18  2  0  0  0  0
 22 16  1  0  0  0  0
 23 24  2  0  0  0  0
 24 25  1  0  0  0  0
 26 27  1  0  0  0  0
 27 29  1  0  0  0  0
 29 30  1  0  0  0  0
 29 28  1  1  0  0  0
 32 30  1  0  0  0  0
 32 31  1  0  0  0  0
M  END
>  <MODEL>
2

>  <REMARK>
 VINA RESULT:      -6.5      2.090      7.822
  Name = 
  7 active torsions:
  status: ('A' for Active; 'I' for Inactive)
    1  A    between atoms: C_5  and  N_9
    2  A    between atoms: C_5  and  C_25
    3  A    between atoms: C_8  and  C_18
    4  A    between atoms: C_8  and  C_29
    5  A    between atoms: CA_19  and  C_23
    6  A    between atoms: C_22  and  C_30
    7  A    between atoms: C_25  and  C_29
                            x       y       z     vdW  Elec       q    Type
                         _______ _______ _______ _____ _____    ______ ____

>  <TORSDO>
F 7

$$$$
=
 OpenBabel11052411533D

 32 35  0  0  1  0  0  0  0  0999 V2000
  159.9510  208.6430  153.5150 C   0  0  0  0  0  2  0  0  0  0  0  0
  162.0850  209.4150  150.7800 N   0  0  0  0  0  0  0  0  0  0  0  0
  161.8090  209.8880  154.2650 N   0  0  0  0  0  2  0  0  0  0  0  0
  163.6560  210.7210  152.0060 O   0  0  0  0  0  0  0  0  0  0  0  0
  160.5580  209.2880  154.7450 C   0  0  1  0  0  3  0  0  0  0  0  0
  162.7090  209.8910  151.9750 C   0  0  0  0  0  0  0  0  0  0  0  0
  160.8970  208.6110  151.1320 C   0  0  2  0  0  3  0  0  0  0  0  0
  162.0210  209.3520  153.1160 C   0  0  2  0  0  3  0  0  0  0  0  0
  160.9290  208.6090  152.6310 C   0  0  1  0  0  3  0  0  0  0  0  0
  161.3340  204.8920  146.7040 C   0  0  0  0  0  1  0  0  0  0  0  0
  161.2790  207.6240  148.1880 O   0  0  0  0  0  0  0  0  0  0  0  0
  161.1960  204.4660  148.1270 C   0  0  0  0  0  0  0  0  0  0  0  0
  160.9020  203.7000  150.8450 C   0  0  0  0  0  3  0  0  0  0  0  0
  160.9680  202.7240  149.8350 C   0  0  0  0  0  0  0  0  0  0  0  0
  161.1580  206.8510  149.1750 C   0  0  0  0  0  0  0  0  0  0  0  0
  160.9900  205.0390  150.4730 C   0  0  0  0  0  0  0  0  0  0  0  0
  161.1150  203.1020  148.4780 C   0  0  0  0  0  0  0  0  0  0  0  0
  160.9100  206.1690  151.3430 N   0  0  0  0  0  0  0  0  0  0  0  0
  161.1760  202.1260  147.4870 O   0  0  0  0  0  1  0  0  0  0  0  0
  161.0150  207.2210  150.5870 C   0  0  0  0  0  0  0  0  0  0  0  0
  160.8740  201.2870  150.2170 C   0  0  0  0  0  1  0  0  0  0  0  0
  161.1330  205.4050  149.1570 C   0  0  0  0  0  0  0  0  0  0  0  0
  159.5540  210.5020  156.6760 O   0  0  0  0  0  1  0  0  0  0  0  0
  159.6500  210.3360  155.3000 C   0  0  0  0  0  0  0  0  0  0  0  0
  158.9600  211.0600  154.5340 O   0  0  0  0  0  0  0  0  0  0  0  0
  162.3130  209.9950  149.4630 C   0  0  0  0  0  2  0  0  0  0  0  0
  161.7670  211.4140  149.4000 C   0  0  0  0  0  2  0  0  0  0  0  0
  160.4210  212.5560  147.7610 O   0  0  0  0  0  1  0  0  0  0  0  0
  161.6350  211.8960  147.9600 C   0  0  1  0  0  3  0  0  0  0  0  0
  162.8010  212.7990  147.5620 C   0  0  0  0  0  2  0  0  0  0  0  0
  162.6510  213.3590  145.1330 C   0  0  0  0  0  1  0  0  0  0  0  0
  162.4070  213.8620  146.5420 C   0  0  0  0  0  2  0  0  0  0  0  0
  1  5  1  0  0  0  0
  2  7  1  0  0  0  0
  2  6  1  0  0  0  0
  3  5  1  0  0  0  0
  5 24  1  6  0  0  0
  6  4  2  0  0  0  0
  7 20  1  6  0  0  0
  7  9  1  0  0  0  0
  8  6  1  6  0  0  0
  8  3  1  0  0  0  0
  9  8  1  0  0  0  0
  9  1  1  1  0  0  0
 10 12  1  0  0  0  0
 11 15  2  0  0  0  0
 12 17  2  0  0  0  0
 12 22  1  0  0  0  0
 14 21  1  0  0  0  0
 14 13  2  0  0  0  0
 15 20  1  0  0  0  0
 16 13  1  0  0  0  0
 16 18  1  0  0  0  0
 17 14  1  0  0  0  0
 19 17  1  0  0  0  0
 20 18  2  0  0  0  0
 22 15  1  0  0  0  0
 22 16  2  0  0  0  0
 24 23  1  0  0  0  0
 25 24  2  0  0  0  0
 26  2  1  0  0  0  0
 27 26  1  0  0  0  0
 29 28  1  1  0  0  0
 29 27  1  0  0  0  0
 30 29  1  0  0  0  0
 31 32  1  0  0  0  0
 32 30  1  0  0  0  0
M  END
>  <MODEL>
3

>  <REMARK>
 VINA RESULT:      -6.5      1.889      6.912
  Name = 
  7 active torsions:
  status: ('A' for Active; 'I' for Inactive)
    1  A    between atoms: C_5  and  N_9
    2  A    between atoms: C_5  and  C_25
    3  A    between atoms: C_8  and  C_18
    4  A    between atoms: C_8  and  C_29
    5  A    between atoms: CA_19  and  C_23
    6  A    between atoms: C_22  and  C_30
    7  A    between atoms: C_25  and  C_29
                            x       y       z     vdW  Elec       q    Type
                         _______ _______ _______ _____ _____    ______ ____

>  <TORSDO>
F 7

$$$$
=
 OpenBabel11052411533D

 32 35  0  0  1  0  0  0  0  0999 V2000
  159.9690  209.0310  153.6600 C   0  0  0  0  0  2  0  0  0  0  0  0
  162.0650  209.4800  150.8250 N   0  0  0  0  0  0  0  0  0  0  0  0
  161.9400  210.1670  154.2830 N   0  0  0  0  0  2  0  0  0  0  0  0
  163.7700  210.7260  151.9270 O   0  0  0  0  0  0  0  0  0  0  0  0
  160.6630  209.6950  154.8320 C   0  0  1  0  0  3  0  0  0  0  0  0
  162.7620  209.9720  151.9720 C   0  0  0  0  0  0  0  0  0  0  0  0
  160.8320  208.7920  151.2560 C   0  0  2  0  0  3  0  0  0  0  0  0
  162.0720  209.5540  153.1620 C   0  0  2  0  0  3  0  0  0  0  0  0
  160.9110  208.8720  152.7510 C   0  0  1  0  0  3  0  0  0  0  0  0
  161.0740  203.0920  152.2930 C   0  0  0  0  0  1  0  0  0  0  0  0
  160.8570  206.1340  152.9040 O   0  0  0  0  0  0  0  0  0  0  0  0
  161.0430  203.6790  150.9220 C   0  0  0  0  0  0  0  0  0  0  0  0
  161.0110  204.8400  148.3310 C   0  0  0  0  0  3  0  0  0  0  0  0
  161.1030  203.4460  148.4840 C   0  0  0  0  0  0  0  0  0  0  0  0
  160.8760  206.1760  151.6450 C   0  0  0  0  0  0  0  0  0  0  0  0
  160.9310  205.6230  149.4790 C   0  0  0  0  0  0  0  0  0  0  0  0
  161.1200  202.8620  149.7750 C   0  0  0  0  0  0  0  0  0  0  0  0
  160.8660  207.0490  149.5320 N   0  0  0  0  0  0  0  0  0  0  0  0
  161.2140  201.4790  149.9120 O   0  0  0  0  0  1  0  0  0  0  0  0
  160.8260  207.3680  150.7910 C   0  0  0  0  0  0  0  0  0  0  0  0
  161.1920  202.5930  147.2640 C   0  0  0  0  0  1  0  0  0  0  0  0
  160.9460  205.0580  150.7310 C   0  0  0  0  0  0  0  0  0  0  0  0
  158.5660  210.6170  155.8130 O   0  0  0  0  0  1  0  0  0  0  0  0
  159.8560  210.8400  155.3500 C   0  0  0  0  0  0  0  0  0  0  0  0
  160.3290  212.0080  155.3570 O   0  0  0  0  0  0  0  0  0  0  0  0
  162.2940  209.9650  149.4700 C   0  0  0  0  0  2  0  0  0  0  0  0
  161.8070  211.4000  149.3260 C   0  0  0  0  0  2  0  0  0  0  0  0
  160.4690  212.3390  147.5560 O   0  0  0  0  0  1  0  0  0  0  0  0
  161.7270  211.8150  147.8620 C   0  0  1  0  0  3  0  0  0  0  0  0
  162.8210  212.8190  147.5030 C   0  0  0  0  0  2  0  0  0  0  0  0
  162.7210  213.3260  145.0600 C   0  0  0  0  0  1  0  0  0  0  0  0
  162.3780  213.8280  146.4480 C   0  0  0  0  0  2  0  0  0  0  0  0
  1  5  1  0  0  0  0
  2  7  1  0  0  0  0
  2  6  1  0  0  0  0
  3  5  1  0  0  0  0
  4  6  2  0  0  0  0
  5 24  1  6  0  0  0
  7 20  1  1  0  0  0
  7  9  1  0  0  0  0
  8  6  1  6  0  0  0
  8  3  1  0  0  0  0
  9  8  1  0  0  0  0
  9  1  1  6  0  0  0
 12 10  1  0  0  0  0
 13 14  2  0  0  0  0
 13 16  1  0  0  0  0
 14 17  1  0  0  0  0
 15 11  2  0  0  0  0
 16 18  1  0  0  0  0
 16 22  2  0  0  0  0
 17 19  1  0  0  0  0
 17 12  2  0  0  0  0
 18 20  2  0  0  0  0
 20 15  1  0  0  0  0
 21 14  1  0  0  0  0
 22 12  1  0  0  0  0
 22 15  1  0  0  0  0
 24 25  2  0  0  0  0
 24 23  1  0  0  0  0
 26  2  1  0  0  0  0
 27 26  1  0  0  0  0
 29 28  1  1  0  0  0
 29 27  1  0  0  0  0
 30 29  1  0  0  0  0
 31 32  1  0  0  0  0
 32 30  1  0  0  0  0
M  END
>  <MODEL>
4

>  <REMARK>
 VINA RESULT:      -5.9      1.827      6.596
  Name = 
  7 active torsions:
  status: ('A' for Active; 'I' for Inactive)
    1  A    between atoms: C_5  and  N_9
    2  A    between atoms: C_5  and  C_25
    3  A    between atoms: C_8  and  C_18
    4  A    between atoms: C_8  and  C_29
    5  A    between atoms: CA_19  and  C_23
    6  A    between atoms: C_22  and  C_30
    7  A    between atoms: C_25  and  C_29
                            x       y       z     vdW  Elec       q    Type
                         _______ _______ _______ _____ _____    ______ ____

>  <TORSDO>
F 7

$$$$
=
 OpenBabel11052411533D

 32 35  0  0  1  0  0  0  0  0999 V2000
  162.3910  211.5000  148.3110 C   0  0  0  0  0  2  0  0  0  0  0  0
  161.0470  211.1150  151.5780 N   0  0  0  0  0  0  0  0  0  0  0  0
  160.6950  213.0970  148.6810 N   0  0  0  0  0  2  0  0  0  0  0  0
  159.5420  212.9590  151.4850 O   0  0  0  0  0  0  0  0  0  0  0  0
  161.6830  212.6810  147.6790 C   0  0  1  0  0  3  0  0  0  0  0  0
  160.2980  212.1320  150.9090 C   0  0  0  0  0  0  0  0  0  0  0  0
  161.9610  210.4650  150.6180 C   0  0  2  0  0  3  0  0  0  0  0  0
  160.6220  212.1170  149.5090 C   0  0  2  0  0  3  0  0  0  0  0  0
  161.6260  211.1470  149.3250 C   0  0  1  0  0  3  0  0  0  0  0  0
  161.2140  205.2770  153.0990 C   0  0  0  0  0  1  0  0  0  0  0  0
  161.5580  208.3610  152.8970 O   0  0  0  0  0  0  0  0  0  0  0  0
  161.2510  205.4860  151.6220 C   0  0  0  0  0  0  0  0  0  0  0  0
  161.3560  205.9260  148.8190 C   0  0  0  0  0  3  0  0  0  0  0  0
  161.2030  204.6240  149.3290 C   0  0  0  0  0  0  0  0  0  0  0  0
  161.5500  208.0730  151.6710 C   0  0  0  0  0  0  0  0  0  0  0  0
  161.4480  206.9800  149.7230 C   0  0  0  0  0  0  0  0  0  0  0  0
  161.1500  204.4000  150.7270 C   0  0  0  0  0  0  0  0  0  0  0  0
  161.6390  208.3590  149.4040 N   0  0  0  0  0  0  0  0  0  0  0  0
  161.0020  203.1060  151.2190 O   0  0  0  0  0  1  0  0  0  0  0  0
  161.6890  208.9940  150.5370 C   0  0  0  0  0  0  0  0  0  0  0  0
  161.1060  203.4850  148.3730 C   0  0  0  0  0  1  0  0  0  0  0  0
  161.3950  206.7630  151.0790 C   0  0  0  0  0  0  0  0  0  0  0  0
  163.4340  214.2920  148.4190 O   0  0  0  0  0  1  0  0  0  0  0  0
  162.6440  213.7890  147.3940 C   0  0  0  0  0  0  0  0  0  0  0  0
  162.7330  214.2820  146.2380 O   0  0  0  0  0  0  0  0  0  0  0  0
  161.2080  211.0480  153.0250 C   0  0  0  0  0  2  0  0  0  0  0  0
  159.8970  211.3760  153.7250 C   0  0  0  0  0  2  0  0  0  0  0  0
  160.8310  211.6670  155.9270 O   0  0  0  0  0  1  0  0  0  0  0  0
  159.9150  210.9220  155.1800 C   0  0  1  0  0  3  0  0  0  0  0  0
  158.5260  211.0050  155.8110 C   0  0  0  0  0  2  0  0  0  0  0  0
  156.7840  212.6600  155.1320 C   0  0  0  0  0  1  0  0  0  0  0  0
  157.4340  211.3320  154.7980 C   0  0  0  0  0  2  0  0  0  0  0  0
  2 26  1  0  0  0  0
  5 24  1  1  0  0  0
  5  1  1  0  0  0  0
  5  3  1  0  0  0  0
  6  4  2  0  0  0  0
  6  2  1  0  0  0  0
  7 20  1  6  0  0  0
  7  2  1  0  0  0  0
  8  3  1  1  0  0  0
  8  6  1  0  0  0  0
  9  1  1  1  0  0  0
  9  8  1  0  0  0  0
  9  7  1  0  0  0  0
 12 10  1  0  0  0  0
 13 14  2  0  0  0  0
 13 16  1  0  0  0  0
 14 17  1  0  0  0  0
 15 11  2  0  0  0  0
 16 22  2  0  0  0  0
 17 19  1  0  0  0  0
 17 12  2  0  0  0  0
 18 16  1  0  0  0  0
 18 20  2  0  0  0  0
 20 15  1  0  0  0  0
 21 14  1  0  0  0  0
 22 12  1  0  0  0  0
 22 15  1  0  0  0  0
 24 23  1  0  0  0  0
 25 24  2  0  0  0  0
 26 27  1  0  0  0  0
 27 29  1  0  0  0  0
 29 30  1  0  0  0  0
 29 28  1  1  0  0  0
 32 31  1  0  0  0  0
 32 30  1  0  0  0  0
M  END
>  <MODEL>
5

>  <REMARK>
 VINA RESULT:      -5.5      2.192      7.539
  Name = 
  7 active torsions:
  status: ('A' for Active; 'I' for Inactive)
    1  A    between atoms: C_5  and  N_9
    2  A    between atoms: C_5  and  C_25
    3  A    between atoms: C_8  and  C_18
    4  A    between atoms: C_8  and  C_29
    5  A    between atoms: CA_19  and  C_23
    6  A    between atoms: C_22  and  C_30
    7  A    between atoms: C_25  and  C_29
                            x       y       z     vdW  Elec       q    Type
                         _______ _______ _______ _____ _____    ______ ____

>  <TORSDO>
F 7

$$$$
=
 OpenBabel11052411533D

 32 35  0  0  1  0  0  0  0  0999 V2000
  161.4850  204.3070  152.0850 C   0  0  0  0  0  2  0  0  0  0  0  0
  161.2010  206.9560  149.7350 N   0  0  0  0  0  0  0  0  0  0  0  0
  160.0810  203.6600  150.3040 N   0  0  0  0  0  2  0  0  0  0  0  0
  159.8480  205.7910  148.1570 O   0  0  0  0  0  0  0  0  0  0  0  0
  160.6840  203.1430  151.5380 C   0  0  1  0  0  3  0  0  0  0  0  0
  160.3390  205.8960  149.3120 C   0  0  0  0  0  0  0  0  0  0  0  0
  161.7330  206.6520  151.0770 C   0  0  2  0  0  3  0  0  0  0  0  0
  160.2130  204.9360  150.3740 C   0  0  2  0  0  3  0  0  0  0  0  0
  161.0540  205.3600  151.4200 C   0  0  1  0  0  3  0  0  0  0  0  0
  160.6680  208.4970  156.4710 C   0  0  0  0  0  1  0  0  0  0  0  0
  161.5820  206.5780  154.2000 O   0  0  0  0  0  0  0  0  0  0  0  0
  160.5000  209.3510  155.2590 C   0  0  0  0  0  0  0  0  0  0  0  0
  160.1640  210.9330  152.9250 C   0  0  0  0  0  3  0  0  0  0  0  0
  159.8490  211.4580  154.1900 C   0  0  0  0  0  0  0  0  0  0  0  0
  161.2890  207.5900  153.5100 C   0  0  0  0  0  0  0  0  0  0  0  0
  160.6450  209.6280  152.8560 C   0  0  0  0  0  0  0  0  0  0  0  0
  160.0150  210.6730  155.3580 C   0  0  0  0  0  0  0  0  0  0  0  0
  160.9860  208.9100  151.6690 N   0  0  0  0  0  0  0  0  0  0  0  0
  159.6960  211.2040  156.6050 O   0  0  0  0  0  1  0  0  0  0  0  0
  161.3680  207.7290  152.0520 C   0  0  0  0  0  0  0  0  0  0  0  0
  159.3310  212.8530  154.2810 C   0  0  0  0  0  1  0  0  0  0  0  0
  160.8070  208.8670  153.9870 C   0  0  0  0  0  0  0  0  0  0  0  0
  161.2940  201.1640  150.1530 O   0  0  0  0  0  0  0  0  0  0  0  0
  161.5700  201.9770  151.2430 C   0  0  0  0  0  0  0  0  0  0  0  0
  162.5560  201.7150  151.9830 O   0  0  0  0  0  1  0  0  0  0  0  0
  161.7980  207.9240  148.8230 C   0  0  0  0  0  2  0  0  0  0  0  0
  162.7840  207.2420  147.8860 C   0  0  0  0  0  2  0  0  0  0  0  0
  161.4890  206.7340  145.9200 O   0  0  0  0  0  1  0  0  0  0  0  0
  162.1010  206.1720  147.0430 C   0  0  1  0  0  3  0  0  0  0  0  0
  163.0810  205.0790  146.6220 C   0  0  0  0  0  2  0  0  0  0  0  0
  161.4540  203.1970  146.4110 C   0  0  0  0  0  1  0  0  0  0  0  0
  162.4600  204.0580  145.6740 C   0  0  0  0  0  2  0  0  0  0  0  0
  2  7  1  0  0  0  0
  3  8  1  0  0  0  0
  3  5  1  0  0  0  0
  4  6  2  0  0  0  0
  5 24  1  6  0  0  0
  5  1  1  0  0  0  0
  6  2  1  0  0  0  0
  7  9  1  0  0  0  0
  7 20  1  1  0  0  0
  8  6  1  6  0  0  0
  8  9  1  0  0  0  0
  9  1  1  6  0  0  0
 12 17  1  0  0  0  0
 12 10  1  0  0  0  0
 13 14  1  0  0  0  0
 14 21  1  0  0  0  0
 14 17  2  0  0  0  0
 15 22  1  0  0  0  0
 15 11  2  0  0  0  0
 16 13  2  0  0  0  0
 16 22  1  0  0  0  0
 17 19  1  0  0  0  0
 18 20  2  0  0  0  0
 18 16  1  0  0  0  0
 20 15  1  0  0  0  0
 22 12  2  0  0  0  0
 23 24  2  0  0  0  0
 24 25  1  0  0  0  0
 26  2  1  0  0  0  0
 27 26  1  0  0  0  0
 29 28  1  6  0  0  0
 29 27  1  0  0  0  0
 30 29  1  0  0  0  0
 32 31  1  0  0  0  0
 32 30  1  0  0  0  0
M  END
>  <MODEL>
6

>  <REMARK>
 VINA RESULT:      -5.2      1.854      3.119
  Name = 
  7 active torsions:
  status: ('A' for Active; 'I' for Inactive)
    1  A    between atoms: C_5  and  N_9
    2  A    between atoms: C_5  and  C_25
    3  A    between atoms: C_8  and  C_18
    4  A    between atoms: C_8  and  C_29
    5  A    between atoms: CA_19  and  C_23
    6  A    between atoms: C_22  and  C_30
    7  A    between atoms: C_25  and  C_29
                            x       y       z     vdW  Elec       q    Type
                         _______ _______ _______ _____ _____    ______ ____

>  <TORSDO>
F 7

$$$$
=
 OpenBabel11052411533D

 32 35  0  0  1  0  0  0  0  0999 V2000
  160.1420  208.2060  153.2580 C   0  0  0  0  0  2  0  0  0  0  0  0
  161.9430  209.5470  150.5050 N   0  0  0  0  0  0  0  0  0  0  0  0
  162.0440  209.3690  154.0260 N   0  0  0  0  0  2  0  0  0  0  0  0
  163.6120  210.6730  151.7790 O   0  0  0  0  0  0  0  0  0  0  0  0
  160.8670  208.6420  154.5150 C   0  0  1  0  0  3  0  0  0  0  0  0
  162.6850  209.8240  151.6950 C   0  0  0  0  0  0  0  0  0  0  0  0
  160.8190  208.6460  150.8240 C   0  0  2  0  0  3  0  0  0  0  0  0
  162.1390  209.0600  152.7820 C   0  0  2  0  0  3  0  0  0  0  0  0
  161.0160  208.3730  152.2850 C   0  0  1  0  0  3  0  0  0  0  0  0
  160.8490  202.8610  150.4190 C   0  0  0  0  0  1  0  0  0  0  0  0
  160.5150  205.6650  151.7220 O   0  0  0  0  0  0  0  0  0  0  0  0
  161.0910  203.7690  149.2600 C   0  0  0  0  0  0  0  0  0  0  0  0
  161.5770  205.5340  147.0890 C   0  0  0  0  0  3  0  0  0  0  0  0
  161.6370  204.1420  146.9000 C   0  0  0  0  0  0  0  0  0  0  0  0
  160.7840  206.0160  150.5420 C   0  0  0  0  0  0  0  0  0  0  0  0
  161.2700  206.0120  148.3600 C   0  0  0  0  0  0  0  0  0  0  0  0
  161.3950  203.2570  147.9810 C   0  0  0  0  0  0  0  0  0  0  0  0
  161.1960  207.3820  148.7570 N   0  0  0  0  0  0  0  0  0  0  0  0
  161.4600  201.8810  147.7810 O   0  0  0  0  0  1  0  0  0  0  0  0
  160.9060  207.3820  150.0230 C   0  0  0  0  0  0  0  0  0  0  0  0
  161.9660  203.6130  145.5460 C   0  0  0  0  0  1  0  0  0  0  0  0
  161.0350  205.1550  149.4080 C   0  0  0  0  0  0  0  0  0  0  0  0
  159.9750  209.3710  156.7250 O   0  0  0  0  0  1  0  0  0  0  0  0
  160.0040  209.5350  155.3460 C   0  0  0  0  0  0  0  0  0  0  0  0
  159.2900  210.4230  154.8080 O   0  0  0  0  0  0  0  0  0  0  0  0
  162.0130  210.3650  149.3000 C   0  0  0  0  0  2  0  0  0  0  0  0
  161.6300  211.8060  149.6080 C   0  0  0  0  0  2  0  0  0  0  0  0
  160.8850  211.6850  147.3200 O   0  0  0  0  0  1  0  0  0  0  0  0
  161.2560  212.5640  148.3400 C   0  0  1  0  0  3  0  0  0  0  0  0
  160.1410  213.5760  148.6000 C   0  0  0  0  0  2  0  0  0  0  0  0
  157.6600  213.4030  148.8260 C   0  0  0  0  0  1  0  0  0  0  0  0
  158.8390  213.2190  147.8910 C   0  0  0  0  0  2  0  0  0  0  0  0
  1  5  1  0  0  0  0
  2  7  1  0  0  0  0
  2  6  1  0  0  0  0
  3  5  1  0  0  0  0
  5 24  1  1  0  0  0
  6  4  2  0  0  0  0
  7 20  1  6  0  0  0
  7  9  1  0  0  0  0
  8  6  1  6  0  0  0
  8  3  1  0  0  0  0
  9  8  1  0  0  0  0
  9  1  1  1  0  0  0
 12 22  1  0  0  0  0
 12 10  1  0  0  0  0
 13 16  1  0  0  0  0
 14 13  2  0  0  0  0
 14 17  1  0  0  0  0
 15 11  2  0  0  0  0
 16 18  1  0  0  0  0
 16 22  2  0  0  0  0
 17 12  2  0  0  0  0
 18 20  2  0  0  0  0
 19 17  1  0  0  0  0
 20 15  1  0  0  0  0
 21 14  1  0  0  0  0
 22 15  1  0  0  0  0
 24 23  1  0  0  0  0
 25 24  2  0  0  0  0
 26 27  1  0  0  0  0
 26  2  1  0  0  0  0
 29 28  1  6  0  0  0
 29 30  1  0  0  0  0
 29 27  1  0  0  0  0
 32 30  1  0  0  0  0
 32 31  1  0  0  0  0
M  END
>  <MODEL>
7

>  <REMARK>
 VINA RESULT:      -5.0      2.088      6.696
  Name = 
  7 active torsions:
  status: ('A' for Active; 'I' for Inactive)
    1  A    between atoms: C_5  and  N_9
    2  A    between atoms: C_5  and  C_25
    3  A    between atoms: C_8  and  C_18
    4  A    between atoms: C_8  and  C_29
    5  A    between atoms: CA_19  and  C_23
    6  A    between atoms: C_22  and  C_30
    7  A    between atoms: C_25  and  C_29
                            x       y       z     vdW  Elec       q    Type
                         _______ _______ _______ _____ _____    ______ ____

>  <TORSDO>
F 7

$$$$
=
 OpenBabel11052411533D

 32 35  0  0  1  0  0  0  0  0999 V2000
  160.2770  209.6710  153.4060 C   0  0  0  0  0  2  0  0  0  0  0  0
  159.0750  212.9860  153.8430 N   0  0  0  0  0  0  0  0  0  0  0  0
  161.1030  210.5710  155.4240 N   0  0  0  0  0  2  0  0  0  0  0  0
  160.0520  213.3620  155.9840 O   0  0  0  0  0  0  0  0  0  0  0  0
  161.1060  209.3360  154.6300 C   0  0  1  0  0  3  0  0  0  0  0  0
  159.9750  212.6970  154.9160 C   0  0  0  0  0  0  0  0  0  0  0  0
  159.1260  211.8940  152.8510 C   0  0  2  0  0  3  0  0  0  0  0  0
  160.6910  211.4860  154.6220 C   0  0  2  0  0  3  0  0  0  0  0  0
  160.1800  210.9860  153.4100 C   0  0  1  0  0  3  0  0  0  0  0  0
  157.8510  214.4050  147.7810 C   0  0  0  0  0  1  0  0  0  0  0  0
  157.4340  213.4020  150.6960 O   0  0  0  0  0  0  0  0  0  0  0  0
  159.2020  213.8690  148.1180 C   0  0  0  0  0  0  0  0  0  0  0  0
  161.7490  212.8090  148.7900 C   0  0  0  0  0  3  0  0  0  0  0  0
  161.5260  213.3710  147.5210 C   0  0  0  0  0  0  0  0  0  0  0  0
  158.6430  213.0860  150.5390 C   0  0  0  0  0  0  0  0  0  0  0  0
  160.6930  212.7930  149.6980 C   0  0  0  0  0  0  0  0  0  0  0  0
  160.2560  213.9010  147.1820 C   0  0  0  0  0  0  0  0  0  0  0  0
  160.7130  212.2390  151.0140 N   0  0  0  0  0  0  0  0  0  0  0  0
  160.0480  214.4530  145.9210 O   0  0  0  0  0  1  0  0  0  0  0  0
  159.5230  212.4170  151.5040 C   0  0  0  0  0  0  0  0  0  0  0  0
  162.6450  213.3930  146.5380 C   0  0  0  0  0  1  0  0  0  0  0  0
  159.4630  213.3080  149.3690 C   0  0  0  0  0  0  0  0  0  0  0  0
  159.4580  208.4760  156.2900 O   0  0  0  0  0  1  0  0  0  0  0  0
  160.4910  208.2130  155.3990 C   0  0  0  0  0  0  0  0  0  0  0  0
  160.9110  207.0330  155.2600 O   0  0  0  0  0  0  0  0  0  0  0  0
  157.9830  213.9460  153.9410 C   0  0  0  0  0  2  0  0  0  0  0  0
  156.6610  213.2310  154.1810 C   0  0  0  0  0  2  0  0  0  0  0  0
  154.9960  213.7980  155.8280 O   0  0  0  0  0  1  0  0  0  0  0  0
  156.2730  213.2590  155.6550 C   0  0  1  0  0  3  0  0  0  0  0  0
  156.3510  211.8690  156.2820 C   0  0  0  0  0  2  0  0  0  0  0  0
  155.1970  210.0430  155.0280 C   0  0  0  0  0  1  0  0  0  0  0  0
  156.5150  210.7600  155.2470 C   0  0  0  0  0  2  0  0  0  0  0  0
  1  5  1  0  0  0  0
  2 26  1  0  0  0  0
  2  6  1  0  0  0  0
  5 24  1  1  0  0  0
  5  3  1  0  0  0  0
  6  4  2  0  0  0  0
  7 20  1  6  0  0  0
  7  9  1  0  0  0  0
  7  2  1  0  0  0  0
  8  6  1  1  0  0  0
  8  3  1  0  0  0  0
  9  1  1  1  0  0  0
  9  8  1  0  0  0  0
 10 12  1  0  0  0  0
 12 22  1  0  0  0  0
 13 16  1  0  0  0  0
 14 13  2  0  0  0  0
 15 11  2  0  0  0  0
 15 20  1  0  0  0  0
 16 18  1  0  0  0  0
 17 14  1  0  0  0  0
 17 12  2  0  0  0  0
 18 20  2  0  0  0  0
 19 17  1  0  0  0  0
 21 14  1  0  0  0  0
 22 16  2  0  0  0  0
 22 15  1  0  0  0  0
 24 23  1  0  0  0  0
 25 24  2  0  0  0  0
 26 27  1  0  0  0  0
 27 29  1  0  0  0  0
 29 28  1  6  0  0  0
 29 30  1  0  0  0  0
 31 32  1  0  0  0  0
 32 30  1  0  0  0  0
M  END
>  <MODEL>
8

>  <REMARK>
 VINA RESULT:      -4.9      4.333      8.112
  Name = 
  7 active torsions:
  status: ('A' for Active; 'I' for Inactive)
    1  A    between atoms: C_5  and  N_9
    2  A    between atoms: C_5  and  C_25
    3  A    between atoms: C_8  and  C_18
    4  A    between atoms: C_8  and  C_29
    5  A    between atoms: CA_19  and  C_23
    6  A    between atoms: C_22  and  C_30
    7  A    between atoms: C_25  and  C_29
                            x       y       z     vdW  Elec       q    Type
                         _______ _______ _______ _____ _____    ______ ____

>  <TORSDO>
F 7

$$$$
=
 OpenBabel11052411533D

 32 35  0  0  1  0  0  0  0  0999 V2000
  160.8310  208.0180  149.2250 C   0  0  0  0  0  2  0  0  0  0  0  0
  161.9110  206.7030  152.3440 N   0  0  0  0  0  0  0  0  0  0  0  0
  162.9880  207.0880  149.0070 N   0  0  0  0  0  2  0  0  0  0  0  0
  163.9850  205.8160  151.5760 O   0  0  0  0  0  0  0  0  0  0  0  0
  161.9260  207.7260  148.2190 C   0  0  1  0  0  3  0  0  0  0  0  0
  162.9860  206.5660  151.4110 C   0  0  0  0  0  0  0  0  0  0  0  0
  160.8330  207.5090  151.7390 C   0  0  2  0  0  3  0  0  0  0  0  0
  162.6910  207.3340  150.2330 C   0  0  2  0  0  3  0  0  0  0  0  0
  161.4060  207.8810  150.4040 C   0  0  1  0  0  3  0  0  0  0  0  0
  159.8970  210.1050  156.8390 C   0  0  0  0  0  1  0  0  0  0  0  0
  160.6630  207.8460  154.8440 O   0  0  0  0  0  0  0  0  0  0  0  0
  159.8030  210.8090  155.5270 C   0  0  0  0  0  0  0  0  0  0  0  0
  159.6070  212.1020  153.0070 C   0  0  0  0  0  3  0  0  0  0  0  0
  159.3300  212.8080  154.1910 C   0  0  0  0  0  0  0  0  0  0  0  0
  160.4560  208.7820  154.0270 C   0  0  0  0  0  0  0  0  0  0  0  0
  159.9820  210.7650  153.1100 C   0  0  0  0  0  0  0  0  0  0  0  0
  159.4270  212.1660  155.4510 C   0  0  0  0  0  0  0  0  0  0  0  0
  160.2690  209.8770  152.0290 N   0  0  0  0  0  0  0  0  0  0  0  0
  159.1470  212.8760  156.6160 O   0  0  0  0  0  1  0  0  0  0  0  0
  160.5520  208.7270  152.5640 C   0  0  0  0  0  0  0  0  0  0  0  0
  158.9260  214.2390  154.0970 C   0  0  0  0  0  1  0  0  0  0  0  0
  160.0760  210.1430  154.3320 C   0  0  0  0  0  0  0  0  0  0  0  0
  162.3480  206.2030  146.2920 O   0  0  0  0  0  0  0  0  0  0  0  0
  161.4360  206.8030  147.1510 C   0  0  0  0  0  0  0  0  0  0  0  0
  160.2040  206.5770  147.0120 O   0  0  0  0  0  1  0  0  0  0  0  0
  161.7240  205.8290  153.4950 C   0  0  0  0  0  2  0  0  0  0  0  0
  160.8310  204.6510  153.1340 C   0  0  0  0  0  2  0  0  0  0  0  0
  161.5350  202.5470  152.1960 O   0  0  0  0  0  1  0  0  0  0  0  0
  161.3600  203.9040  151.9160 C   0  0  1  0  0  3  0  0  0  0  0  0
  160.4440  204.0830  150.7070 C   0  0  0  0  0  2  0  0  0  0  0  0
  160.8310  202.6270  148.7150 C   0  0  0  0  0  1  0  0  0  0  0  0
  161.1800  203.9440  149.3790 C   0  0  0  0  0  2  0  0  0  0  0  0
  2 26  1  0  0  0  0
  5 24  1  6  0  0  0
  5  3  1  0  0  0  0
  5  1  1  0  0  0  0
  6  4  2  0  0  0  0
  6  2  1  0  0  0  0
  7  2  1  0  0  0  0
  7 20  1  1  0  0  0
  8  3  1  6  0  0  0
  8  9  1  0  0  0  0
  8  6  1  0  0  0  0
  9  1  1  6  0  0  0
  9  7  1  0  0  0  0
 12 10  1  0  0  0  0
 13 16  2  0  0  0  0
 13 14  1  0  0  0  0
 14 17  2  0  0  0  0
 15 22  1  0  0  0  0
 15 11  2  0  0  0  0
 16 22  1  0  0  0  0
 17 12  1  0  0  0  0
 17 19  1  0  0  0  0
 18 20  2  0  0  0  0
 18 16  1  0  0  0  0
 20 15  1  0  0  0  0
 21 14  1  0  0  0  0
 22 12  2  0  0  0  0
 23 24  2  0  0  0  0
 25 24  1  0  0  0  0
 27 26  1  0  0  0  0
 29 28  1  1  0  0  0
 29 27  1  0  0  0  0
 30 29  1  0  0  0  0
 31 32  1  0  0  0  0
 32 30  1  0  0  0  0
M  END
>  <MODEL>
9

>  <REMARK>
 VINA RESULT:      -4.5      2.209      4.768
  Name = 
  7 active torsions:
  status: ('A' for Active; 'I' for Inactive)
    1  A    between atoms: C_5  and  N_9
    2  A    between atoms: C_5  and  C_25
    3  A    between atoms: C_8  and  C_18
    4  A    between atoms: C_8  and  C_29
    5  A    between atoms: CA_19  and  C_23
    6  A    between atoms: C_22  and  C_30
    7  A    between atoms: C_25  and  C_29
                            x       y       z     vdW  Elec       q    Type
                         _______ _______ _______ _____ _____    ______ ____

>  <TORSDO>
F 7

$$$$
