=
 OpenBabel11052411223D

 41 44  0  0  1  0  0  0  0  0999 V2000
  160.8750  210.9590  153.7410 F   0  0  0  0  0  0  0  0  0  0  0  0
  161.7540  208.7770  152.3080 C   0  0  0  0  0  3  0  0  0  0  0  0
  160.3620  207.1360  155.3860 C   0  0  0  0  0  3  0  0  0  0  0  0
  161.0450  209.7920  154.4790 C   0  0  0  0  0  0  0  0  0  0  0  0
  161.5650  205.3480  151.1120 C   0  0  0  0  0  0  0  0  0  0  0  0
  162.0760  209.9660  155.3920 F   0  0  0  0  0  0  0  0  0  0  0  0
  161.3530  208.6180  153.5770 C   0  0  0  0  0  0  0  0  0  0  0  0
  161.5420  207.3750  150.2620 C   0  0  2  0  0  3  0  0  0  0  0  0
  159.8020  208.1790  155.9210 N   0  0  0  0  0  0  0  0  0  0  0  0
  161.2880  205.9880  150.0240 N   0  0  0  0  0  0  0  0  0  0  0  0
  161.3230  206.1780  153.4150 N   0  0  0  0  0  0  0  0  0  0  0  0
  159.7350  209.4720  155.2340 C   0  0  1  0  0  3  0  0  0  0  0  0
  162.1120  206.2320  152.1780 C   0  0  2  0  0  3  0  0  0  0  0  0
  161.9600  207.5590  151.5070 C   0  0  2  0  0  3  0  0  0  0  0  0
  161.0520  207.2520  154.0990 C   0  0  0  0  0  0  0  0  0  0  0  0
  161.0820  208.4600  149.3400 C   0  0  0  0  0  2  0  0  0  0  0  0
  162.2640  209.3250  148.9110 C   0  0  0  0  0  2  0  0  0  0  0  0
  162.1500  210.7370  149.4860 C   0  0  0  0  0  2  0  0  0  0  0  0
  162.1720  211.7890  148.4200 C   0  0  0  0  0  0  0  0  0  0  0  0
  163.3050  212.1390  147.8870 N   0  0  0  0  0  2  0  0  0  0  0  0
  160.2290  213.4780  148.6070 C   0  0  0  0  0  1  0  0  0  0  0  0
  160.9090  212.3490  147.9070 C   0  0  0  0  0  0  0  0  0  0  0  0
  160.3790  211.8680  146.8730 O   0  0  0  0  0  0  0  0  0  0  0  0
  159.2760  210.5640  156.2070 C   0  0  0  0  0  2  0  0  0  0  0  0
  157.9200  210.8620  156.0060 O   0  0  0  0  0  0  0  0  0  0  0  0
  158.7140  212.8250  155.1050 O   0  0  0  0  0  1  0  0  0  0  0  0
  157.8910  211.7110  154.8870 C   0  0  0  0  0  2  0  0  0  0  0  0
  161.4360  203.8650  151.2280 C   0  0  0  0  0  2  0  0  0  0  0  0
  160.4120  201.8410  149.8840 C   0  0  1  0  0  3  0  0  0  0  0  0
  161.1640  200.9630  148.8530 C   0  0  0  0  0  2  0  0  0  0  0  0
  161.4840  201.6860  147.5210 C   0  0  0  0  0  2  0  0  0  0  0  0
  161.0150  203.2310  149.9310 C   0  0  0  0  0  0  0  0  0  0  0  0
  161.3230  203.8420  148.7820 C   0  0  0  0  0  3  0  0  0  0  0  0
  161.0090  203.1560  147.4690 C   0  0  1  0  0  3  0  0  0  0  0  0
  161.1840  203.3770  145.0610 O   0  0  0  0  0  1  0  0  0  0  0  0
  161.5980  203.9400  146.2820 C   0  0  1  0  0  3  0  0  0  0  0  0
  162.3580  206.3470  146.5990 C   0  0  0  0  0  1  0  0  0  0  0  0
  161.1930  205.4190  146.3040 C   0  0  1  0  0  3  0  0  0  0  0  0
  160.6370  205.7660  145.0680 O   0  0  0  0  0  1  0  0  0  0  0  0
  159.0630  201.9380  149.5280 O   0  0  0  0  0  0  0  0  0  0  0  0
  158.5710  200.6340  149.6060 C   0  0  0  0  0  1  0  0  0  0  0  0
  1  4  1  0  0  0  0
  2  7  2  0  0  0  0
  3  9  2  0  0  0  0
  4 12  1  0  0  0  0
  4  6  1  0  0  0  0
  5 28  1  0  0  0  0
  7 15  1  0  0  0  0
  7  4  1  0  0  0  0
  8 16  1  1  0  0  0
  8 14  1  0  0  0  0
 10  8  1  0  0  0  0
 10  5  2  0  0  0  0
 11 15  2  0  0  0  0
 12  9  1  0  0  0  0
 12 24  1  1  0  0  0
 13  5  1  6  0  0  0
 13 11  1  0  0  0  0
 14 13  1  0  0  0  0
 14  2  1  1  0  0  0
 15  3  1  0  0  0  0
 17 16  1  0  0  0  0
 17 18  1  0  0  0  0
 19 18  1  0  0  0  0
 20 19  2  0  0  0  0
 22 19  1  0  0  0  0
 22 21  1  0  0  0  0
 23 22  2  0  0  0  0
 25 24  1  0  0  0  0
 27 26  1  0  0  0  0
 27 25  1  0  0  0  0
 29 40  1  6  0  0  0
 29 32  1  0  0  0  0
 30 29  1  0  0  0  0
 31 30  1  0  0  0  0
 32 28  1  0  0  0  0
 33 32  2  0  0  0  0
 34 36  1  6  0  0  0
 34 31  1  0  0  0  0
 34 33  1  0  0  0  0
 36 35  1  6  0  0  0
 36 38  1  0  0  0  0
 38 37  1  6  0  0  0
 39 38  1  0  0  0  0
 40 41  1  0  0  0  0
M  END
>  <MODEL>
1

>  <REMARK>
 VINA RESULT:      -7.1      0.000      0.000
  Name = 
  13 active torsions:
  status: ('A' for Active; 'I' for Inactive)
    1  A    between atoms: C_1  and  C_5
    2  A    between atoms: C_1  and  C_25
    3  A    between atoms: C_4  and  O_10
    4  A    between atoms: C_5  and  C_40
    5  A    between atoms: C_8  and  O_28
    6  A    between atoms: C_8  and  C_31
    7  A    between atoms: C_13  and  O_28
    8  A    between atoms: C_14  and  C_19
    9  A    between atoms: C_14  and  C_33
   10  A    between atoms: C_18  and  C_23
   11  A    between atoms: C_21  and  C_36
   12  A    between atoms: C_23  and  C_40
   13  A    between atoms: C_36  and  C_39
                            x       y       z     vdW  Elec       q    Type
                         _______ _______ _______ _____ _____    ______ ____

>  <TORSDO>
F 13

$$$$
=
 OpenBabel11052411223D

 41 44  0  0  1  0  0  0  0  0999 V2000
  160.9390  203.2990  147.9200 F   0  0  0  0  0  0  0  0  0  0  0  0
  160.7200  205.3810  149.7100 C   0  0  0  0  0  3  0  0  0  0  0  0
  161.1140  202.4480  152.0230 C   0  0  0  0  0  3  0  0  0  0  0  0
  160.6080  202.9330  149.2200 C   0  0  0  0  0  0  0  0  0  0  0  0
  161.5040  207.1570  152.7850 C   0  0  0  0  0  0  0  0  0  0  0  0
  159.3240  202.4040  149.2400 F   0  0  0  0  0  0  0  0  0  0  0  0
  160.6880  204.1170  150.1570 C   0  0  0  0  0  0  0  0  0  0  0  0
  161.6830  207.4880  150.6190 C   0  0  2  0  0  3  0  0  0  0  0  0
  161.3990  201.5430  151.1350 N   0  0  0  0  0  0  0  0  0  0  0  0
  162.0860  207.9220  151.9200 N   0  0  0  0  0  0  0  0  0  0  0  0
  160.9190  204.7850  152.4970 N   0  0  0  0  0  0  0  0  0  0  0  0
  161.6110  201.8700  149.7210 C   0  0  1  0  0  3  0  0  0  0  0  0
  160.5820  206.1720  152.1540 C   0  0  2  0  0  3  0  0  0  0  0  0
  160.8660  206.4480  150.7140 C   0  0  2  0  0  3  0  0  0  0  0  0
  160.8830  203.8340  151.6090 C   0  0  0  0  0  0  0  0  0  0  0  0
  162.3540  207.9440  149.3610 C   0  0  0  0  0  2  0  0  0  0  0  0
  161.5080  207.5740  148.1470 C   0  0  0  0  0  2  0  0  0  0  0  0
  162.2620  206.6190  147.2210 C   0  0  0  0  0  2  0  0  0  0  0  0
  161.3840  206.0590  146.1440 C   0  0  0  0  0  0  0  0  0  0  0  0
  160.1760  206.5150  145.9990 N   0  0  0  0  0  2  0  0  0  0  0  0
  163.1380  204.2720  145.5180 C   0  0  0  0  0  1  0  0  0  0  0  0
  161.9200  205.0700  145.1930 C   0  0  0  0  0  0  0  0  0  0  0  0
  161.3600  204.8960  144.0800 O   0  0  0  0  0  0  0  0  0  0  0  0
  161.6540  200.5870  148.8840 C   0  0  0  0  0  2  0  0  0  0  0  0
  162.0260  200.8750  147.5620 O   0  0  0  0  0  0  0  0  0  0  0  0
  160.6420  201.0900  145.7370 O   0  0  0  0  0  1  0  0  0  0  0  0
  161.0660  200.2330  146.7620 C   0  0  0  0  0  2  0  0  0  0  0  0
  161.6790  207.3290  154.2570 C   0  0  0  0  0  2  0  0  0  0  0  0
  161.7580  209.2900  156.0180 C   0  0  1  0  0  3  0  0  0  0  0  0
  160.5750  209.7720  156.8930 C   0  0  0  0  0  2  0  0  0  0  0  0
  159.4720  210.5220  156.1060 C   0  0  0  0  0  2  0  0  0  0  0  0
  161.2460  208.6910  154.7230 C   0  0  0  0  0  0  0  0  0  0  0  0
  160.2700  209.3210  154.0600 C   0  0  0  0  0  3  0  0  0  0  0  0
  159.7450  210.6400  154.5900 C   0  0  1  0  0  3  0  0  0  0  0  0
  157.4640  211.4600  154.6540 O   0  0  0  0  0  1  0  0  0  0  0  0
  158.5160  211.1060  153.7890 C   0  0  1  0  0  3  0  0  0  0  0  0
  158.2550  213.6080  153.4060 C   0  0  0  0  0  1  0  0  0  0  0  0
  158.8320  212.3050  152.8840 C   0  0  1  0  0  3  0  0  0  0  0  0
  160.2190  212.4390  152.7610 O   0  0  0  0  0  1  0  0  0  0  0  0
  162.5990  210.3680  155.7250 O   0  0  0  0  0  0  0  0  0  0  0  0
  163.1560  210.7400  156.9490 C   0  0  0  0  0  1  0  0  0  0  0  0
  1  4  1  0  0  0  0
  2  7  2  0  0  0  0
  4  6  1  0  0  0  0
  4 12  1  0  0  0  0
  4  7  1  0  0  0  0
  5 28  1  0  0  0  0
  7 15  1  0  0  0  0
  8 16  1  6  0  0  0
  8 14  1  0  0  0  0
  8 10  1  0  0  0  0
  9  3  2  0  0  0  0
 10  5  2  0  0  0  0
 12 24  1  6  0  0  0
 12  9  1  0  0  0  0
 13 11  1  1  0  0  0
 13  5  1  0  0  0  0
 14  2  1  1  0  0  0
 14 13  1  0  0  0  0
 15  3  1  0  0  0  0
 15 11  2  0  0  0  0
 17 16  1  0  0  0  0
 18 17  1  0  0  0  0
 19 18  1  0  0  0  0
 20 19  2  0  0  0  0
 22 21  1  0  0  0  0
 22 19  1  0  0  0  0
 23 22  2  0  0  0  0
 25 24  1  0  0  0  0
 26 27  1  0  0  0  0
 27 25  1  0  0  0  0
 28 32  1  0  0  0  0
 29 40  1  6  0  0  0
 29 30  1  0  0  0  0
 31 30  1  0  0  0  0
 32 29  1  0  0  0  0
 33 34  1  0  0  0  0
 33 32  2  0  0  0  0
 34 36  1  6  0  0  0
 34 31  1  0  0  0  0
 36 35  1  1  0  0  0
 38 37  1  1  0  0  0
 38 36  1  0  0  0  0
 39 38  1  0  0  0  0
 40 41  1  0  0  0  0
M  END
>  <MODEL>
2

>  <REMARK>
 VINA RESULT:      -6.7      3.258      8.852
  Name = 
  13 active torsions:
  status: ('A' for Active; 'I' for Inactive)
    1  A    between atoms: C_1  and  C_5
    2  A    between atoms: C_1  and  C_25
    3  A    between atoms: C_4  and  O_10
    4  A    between atoms: C_5  and  C_40
    5  A    between atoms: C_8  and  O_28
    6  A    between atoms: C_8  and  C_31
    7  A    between atoms: C_13  and  O_28
    8  A    between atoms: C_14  and  C_19
    9  A    between atoms: C_14  and  C_33
   10  A    between atoms: C_18  and  C_23
   11  A    between atoms: C_21  and  C_36
   12  A    between atoms: C_23  and  C_40
   13  A    between atoms: C_36  and  C_39
                            x       y       z     vdW  Elec       q    Type
                         _______ _______ _______ _____ _____    ______ ____

>  <TORSDO>
F 13

$$$$
=
 OpenBabel11052411223D

 41 44  0  0  1  0  0  0  0  0999 V2000
  160.7880  204.3150  149.1730 F   0  0  0  0  0  0  0  0  0  0  0  0
  160.7840  206.9080  150.1010 C   0  0  0  0  0  3  0  0  0  0  0  0
  161.2430  204.9760  153.2890 C   0  0  0  0  0  3  0  0  0  0  0  0
  160.5430  204.4590  150.5340 C   0  0  0  0  0  0  0  0  0  0  0  0
  161.8670  209.6130  152.2780 C   0  0  0  0  0  0  0  0  0  0  0  0
  159.2450  204.0530  150.8170 F   0  0  0  0  0  0  0  0  0  0  0  0
  160.7390  205.8920  150.9750 C   0  0  0  0  0  0  0  0  0  0  0  0
  161.8920  209.1370  150.1330 C   0  0  2  0  0  3  0  0  0  0  0  0
  161.4260  203.7980  152.7720 N   0  0  0  0  0  0  0  0  0  0  0  0
  162.4090  209.9810  151.1640 N   0  0  0  0  0  0  0  0  0  0  0  0
  161.1730  207.3350  152.9000 N   0  0  0  0  0  0  0  0  0  0  0  0
  161.5410  203.5840  151.3260 C   0  0  1  0  0  3  0  0  0  0  0  0
  160.8630  208.5270  152.1000 C   0  0  2  0  0  3  0  0  0  0  0  0
  161.0460  208.2520  150.6430 C   0  0  2  0  0  3  0  0  0  0  0  0
  161.0330  206.1340  152.4180 C   0  0  0  0  0  0  0  0  0  0  0  0
  162.4820  209.0710  148.7590 C   0  0  0  0  0  2  0  0  0  0  0  0
  161.6470  208.1550  147.8690 C   0  0  0  0  0  2  0  0  0  0  0  0
  162.4430  206.9160  147.4540 C   0  0  0  0  0  2  0  0  0  0  0  0
  161.6680  206.0250  146.5330 C   0  0  0  0  0  0  0  0  0  0  0  0
  160.4640  206.3610  146.1750 N   0  0  0  0  0  2  0  0  0  0  0  0
  161.4890  203.7780  145.2760 C   0  0  0  0  0  1  0  0  0  0  0  0
  162.3030  204.8270  145.9550 C   0  0  0  0  0  0  0  0  0  0  0  0
  163.5470  204.6680  146.0420 O   0  0  0  0  0  0  0  0  0  0  0  0
  161.4720  202.0870  151.0070 C   0  0  0  0  0  2  0  0  0  0  0  0
  160.4280  201.8240  150.1070 O   0  0  0  0  0  0  0  0  0  0  0  0
  161.1710  201.6140  147.9390 O   0  0  0  0  0  1  0  0  0  0  0  0
  160.9750  200.9460  149.1560 C   0  0  0  0  0  2  0  0  0  0  0  0
  162.1590  210.2880  153.5770 C   0  0  0  0  0  2  0  0  0  0  0  0
  160.4380  210.7340  155.5230 C   0  0  1  0  0  3  0  0  0  0  0  0
  158.9210  210.4240  155.4820 C   0  0  0  0  0  2  0  0  0  0  0  0
  158.1100  211.3580  154.5500 C   0  0  0  0  0  2  0  0  0  0  0  0
  160.9580  211.0050  154.1260 C   0  0  0  0  0  0  0  0  0  0  0  0
  160.2410  211.7850  153.3080 C   0  0  0  0  0  3  0  0  0  0  0  0
  158.9640  212.4190  153.8180 C   0  0  1  0  0  3  0  0  0  0  0  0
  157.7880  214.4070  153.0810 O   0  0  0  0  0  1  0  0  0  0  0  0
  158.2050  213.1240  152.6800 C   0  0  1  0  0  3  0  0  0  0  0  0
  158.2270  213.2410  150.1380 C   0  0  0  0  0  1  0  0  0  0  0  0
  159.0560  213.2590  151.4100 C   0  0  1  0  0  3  0  0  0  0  0  0
  159.7820  214.4530  151.4630 O   0  0  0  0  0  1  0  0  0  0  0  0
  160.6690  211.8570  156.3250 O   0  0  0  0  0  0  0  0  0  0  0  0
  161.7050  211.4840  157.1830 C   0  0  0  0  0  1  0  0  0  0  0  0
  1  4  1  0  0  0  0
  2  7  2  0  0  0  0
  4  6  1  0  0  0  0
  4  7  1  0  0  0  0
  4 12  1  0  0  0  0
  5 28  1  0  0  0  0
  7 15  1  0  0  0  0
  8 16  1  1  0  0  0
  8 14  1  0  0  0  0
  8 10  1  0  0  0  0
  9  3  2  0  0  0  0
 10  5  2  0  0  0  0
 12 24  1  1  0  0  0
 12  9  1  0  0  0  0
 13  5  1  1  0  0  0
 13 11  1  0  0  0  0
 14  2  1  1  0  0  0
 14 13  1  0  0  0  0
 15 11  2  0  0  0  0
 15  3  1  0  0  0  0
 17 16  1  0  0  0  0
 18 17  1  0  0  0  0
 19 18  1  0  0  0  0
 20 19  2  0  0  0  0
 21 22  1  0  0  0  0
 22 23  2  0  0  0  0
 22 19  1  0  0  0  0
 25 24  1  0  0  0  0
 26 27  1  0  0  0  0
 27 25  1  0  0  0  0
 28 32  1  0  0  0  0
 29 40  1  1  0  0  0
 30 29  1  0  0  0  0
 31 30  1  0  0  0  0
 32 29  1  0  0  0  0
 33 34  1  0  0  0  0
 33 32  2  0  0  0  0
 34 36  1  6  0  0  0
 34 31  1  0  0  0  0
 36 35  1  1  0  0  0
 38 37  1  6  0  0  0
 38 39  1  0  0  0  0
 38 36  1  0  0  0  0
 40 41  1  0  0  0  0
M  END
>  <MODEL>
3

>  <REMARK>
 VINA RESULT:      -6.5      2.750      8.482
  Name = 
  13 active torsions:
  status: ('A' for Active; 'I' for Inactive)
    1  A    between atoms: C_1  and  C_5
    2  A    between atoms: C_1  and  C_25
    3  A    between atoms: C_4  and  O_10
    4  A    between atoms: C_5  and  C_40
    5  A    between atoms: C_8  and  O_28
    6  A    between atoms: C_8  and  C_31
    7  A    between atoms: C_13  and  O_28
    8  A    between atoms: C_14  and  C_19
    9  A    between atoms: C_14  and  C_33
   10  A    between atoms: C_18  and  C_23
   11  A    between atoms: C_21  and  C_36
   12  A    between atoms: C_23  and  C_40
   13  A    between atoms: C_36  and  C_39
                            x       y       z     vdW  Elec       q    Type
                         _______ _______ _______ _____ _____    ______ ____

>  <TORSDO>
F 13

$$$$
=
 OpenBabel11052411223D

 41 44  0  0  1  0  0  0  0  0999 V2000
  161.6400  206.4350  145.7390 F   0  0  0  0  0  0  0  0  0  0  0  0
  161.1980  207.7130  148.1380 C   0  0  0  0  0  3  0  0  0  0  0  0
  161.2010  204.1120  149.2020 C   0  0  0  0  0  3  0  0  0  0  0  0
  161.1160  205.6370  146.7500 C   0  0  0  0  0  0  0  0  0  0  0  0
  161.5560  208.1610  151.7300 C   0  0  0  0  0  0  0  0  0  0  0  0
  159.8340  205.2310  146.4040 F   0  0  0  0  0  0  0  0  0  0  0  0
  161.0790  206.3800  148.0670 C   0  0  0  0  0  0  0  0  0  0  0  0
  162.0530  209.2590  149.8920 C   0  0  2  0  0  3  0  0  0  0  0  0
  161.5970  203.5830  148.0830 N   0  0  0  0  0  0  0  0  0  0  0  0
  162.2700  209.1490  151.3010 N   0  0  0  0  0  0  0  0  0  0  0  0
  160.9780  206.1120  150.4950 N   0  0  0  0  0  0  0  0  0  0  0  0
  162.0180  204.3960  146.9370 C   0  0  1  0  0  3  0  0  0  0  0  0
  160.7180  207.5480  150.6610 C   0  0  2  0  0  3  0  0  0  0  0  0
  161.2140  208.3180  149.4800 C   0  0  2  0  0  3  0  0  0  0  0  0
  161.0550  205.5640  149.3160 C   0  0  0  0  0  0  0  0  0  0  0  0
  162.9080  210.1010  148.9970 C   0  0  0  0  0  2  0  0  0  0  0  0
  162.3860  211.5340  148.9630 C   0  0  0  0  0  2  0  0  0  0  0  0
  161.5520  211.7870  147.7070 C   0  0  0  0  0  2  0  0  0  0  0  0
  160.4350  212.7560  147.9510 C   0  0  0  0  0  0  0  0  0  0  0  0
  160.4150  213.4480  149.0510 N   0  0  0  0  0  2  0  0  0  0  0  0
  158.4270  214.0990  147.0420 C   0  0  0  0  0  1  0  0  0  0  0  0
  159.4230  212.9960  146.9080 C   0  0  0  0  0  0  0  0  0  0  0  0
  159.3770  212.2580  145.8910 O   0  0  0  0  0  0  0  0  0  0  0  0
  162.1610  203.5160  145.6910 C   0  0  0  0  0  2  0  0  0  0  0  0
  160.9000  203.1040  145.2330 O   0  0  0  0  0  0  0  0  0  0  0  0
  160.0800  201.0000  144.7950 O   0  0  0  0  0  1  0  0  0  0  0  0
  160.7310  201.8050  145.7390 C   0  0  0  0  0  2  0  0  0  0  0  0
  161.5170  207.7610  153.1670 C   0  0  0  0  0  2  0  0  0  0  0  0
  161.4700  208.9790  155.5050 C   0  0  1  0  0  3  0  0  0  0  0  0
  160.2310  209.1430  156.4190 C   0  0  0  0  0  2  0  0  0  0  0  0
  159.1750  210.1380  155.8790 C   0  0  0  0  0  2  0  0  0  0  0  0
  161.0450  208.8800  154.0540 C   0  0  0  0  0  0  0  0  0  0  0  0
  160.1090  209.7170  153.5950 C   0  0  0  0  0  3  0  0  0  0  0  0
  159.5420  210.7750  154.5190 C   0  0  1  0  0  3  0  0  0  0  0  0
  157.1970  211.3810  154.6360 O   0  0  0  0  0  1  0  0  0  0  0  0
  158.3620  211.5110  153.8590 C   0  0  1  0  0  3  0  0  0  0  0  0
  158.8910  213.3650  152.1970 C   0  0  0  0  0  1  0  0  0  0  0  0
  158.6520  213.0040  153.6530 C   0  0  1  0  0  3  0  0  0  0  0  0
  157.5760  213.7560  154.1370 O   0  0  0  0  0  1  0  0  0  0  0  0
  162.3210  210.0790  155.6610 O   0  0  0  0  0  0  0  0  0  0  0  0
  162.7730  210.0060  156.9790 C   0  0  0  0  0  1  0  0  0  0  0  0
  1  4  1  0  0  0  0
  3 15  1  0  0  0  0
  4 12  1  0  0  0  0
  4  7  1  0  0  0  0
  5 28  1  0  0  0  0
  6  4  1  0  0  0  0
  7  2  2  0  0  0  0
  7 15  1  0  0  0  0
  8 16  1  6  0  0  0
  8 10  1  0  0  0  0
  9  3  2  0  0  0  0
 10  5  2  0  0  0  0
 12 24  1  6  0  0  0
 12  9  1  0  0  0  0
 13 11  1  6  0  0  0
 13  5  1  0  0  0  0
 14  2  1  6  0  0  0
 14  8  1  0  0  0  0
 14 13  1  0  0  0  0
 15 11  2  0  0  0  0
 17 16  1  0  0  0  0
 18 19  1  0  0  0  0
 18 17  1  0  0  0  0
 19 20  2  0  0  0  0
 22 21  1  0  0  0  0
 22 19  1  0  0  0  0
 23 22  2  0  0  0  0
 25 24  1  0  0  0  0
 25 27  1  0  0  0  0
 26 27  1  0  0  0  0
 28 32  1  0  0  0  0
 29 40  1  6  0  0  0
 29 30  1  0  0  0  0
 31 30  1  0  0  0  0
 32 29  1  0  0  0  0
 33 32  2  0  0  0  0
 33 34  1  0  0  0  0
 34 36  1  6  0  0  0
 34 31  1  0  0  0  0
 36 35  1  1  0  0  0
 38 37  1  6  0  0  0
 38 36  1  0  0  0  0
 38 39  1  0  0  0  0
 40 41  1  0  0  0  0
M  END
>  <MODEL>
4

>  <REMARK>
 VINA RESULT:      -6.3      2.932      8.544
  Name = 
  13 active torsions:
  status: ('A' for Active; 'I' for Inactive)
    1  A    between atoms: C_1  and  C_5
    2  A    between atoms: C_1  and  C_25
    3  A    between atoms: C_4  and  O_10
    4  A    between atoms: C_5  and  C_40
    5  A    between atoms: C_8  and  O_28
    6  A    between atoms: C_8  and  C_31
    7  A    between atoms: C_13  and  O_28
    8  A    between atoms: C_14  and  C_19
    9  A    between atoms: C_14  and  C_33
   10  A    between atoms: C_18  and  C_23
   11  A    between atoms: C_21  and  C_36
   12  A    between atoms: C_23  and  C_40
   13  A    between atoms: C_36  and  C_39
                            x       y       z     vdW  Elec       q    Type
                         _______ _______ _______ _____ _____    ______ ____

>  <TORSDO>
F 13

$$$$
=
 OpenBabel11052411223D

 41 44  0  0  1  0  0  0  0  0999 V2000
  162.0090  203.6090  147.9440 F   0  0  0  0  0  0  0  0  0  0  0  0
  162.1610  205.5310  149.9100 C   0  0  0  0  0  3  0  0  0  0  0  0
  161.1170  207.5820  146.9430 C   0  0  0  0  0  3  0  0  0  0  0  0
  162.0970  204.9200  147.4880 C   0  0  0  0  0  0  0  0  0  0  0  0
  161.0980  208.5540  151.6300 C   0  0  0  0  0  0  0  0  0  0  0  0
  163.3020  205.1000  146.8210 F   0  0  0  0  0  0  0  0  0  0  0  0
  161.9950  205.9020  148.6330 C   0  0  0  0  0  0  0  0  0  0  0  0
  161.2900  206.4090  152.0710 C   0  0  2  0  0  3  0  0  0  0  0  0
  160.8810  206.6100  146.1130 N   0  0  0  0  0  0  0  0  0  0  0  0
  160.7380  207.6590  152.4910 N   0  0  0  0  0  0  0  0  0  0  0  0
  161.4740  208.2180  149.2220 N   0  0  0  0  0  0  0  0  0  0  0  0
  160.9250  205.2030  146.5220 C   0  0  1  0  0  3  0  0  0  0  0  0
  162.0010  208.0110  150.5770 C   0  0  2  0  0  3  0  0  0  0  0  0
  161.9720  206.5630  150.9440 C   0  0  2  0  0  3  0  0  0  0  0  0
  161.5500  207.2900  148.3110 C   0  0  0  0  0  0  0  0  0  0  0  0
  160.8720  205.0940  152.6510 C   0  0  0  0  0  2  0  0  0  0  0  0
  161.5030  203.9460  151.8690 C   0  0  0  0  0  2  0  0  0  0  0  0
  160.4710  203.2520  150.9810 C   0  0  0  0  0  2  0  0  0  0  0  0
  160.9300  201.9000  150.5250 C   0  0  0  0  0  0  0  0  0  0  0  0
  161.7560  201.2200  151.2630 N   0  0  0  0  0  2  0  0  0  0  0  0
  161.2520  200.6270  148.3030 C   0  0  0  0  0  1  0  0  0  0  0  0
  160.3710  201.3040  149.2990 C   0  0  0  0  0  0  0  0  0  0  0  0
  159.1360  201.3730  149.0690 O   0  0  0  0  0  0  0  0  0  0  0  0
  160.8810  204.2940  145.2880 C   0  0  0  0  0  2  0  0  0  0  0  0
  161.0070  202.9480  145.6640 O   0  0  0  0  0  0  0  0  0  0  0  0
  160.2620  200.8890  144.9580 O   0  0  0  0  0  1  0  0  0  0  0  0
  160.0150  202.2690  144.9380 C   0  0  0  0  0  2  0  0  0  0  0  0
  160.7160  209.9910  151.7570 C   0  0  0  0  0  2  0  0  0  0  0  0
  161.3110  209.8320  154.3210 C   0  0  1  0  0  3  0  0  0  0  0  0
  160.3990  209.2540  155.4300 C   0  0  0  0  0  2  0  0  0  0  0  0
  159.1760  210.1410  155.7690 C   0  0  0  0  0  2  0  0  0  0  0  0
  160.4740  210.3880  153.1870 C   0  0  0  0  0  0  0  0  0  0  0  0
  159.3980  211.1270  153.4790 C   0  0  0  0  0  3  0  0  0  0  0  0
  159.0800  211.4340  154.9270 C   0  0  1  0  0  3  0  0  0  0  0  0
  157.2410  212.5350  153.7930 O   0  0  0  0  0  1  0  0  0  0  0  0
  157.7170  212.1390  155.0560 C   0  0  1  0  0  3  0  0  0  0  0  0
  155.8910  211.9580  156.8180 C   0  0  0  0  0  1  0  0  0  0  0  0
  156.6620  211.2450  155.7210 C   0  0  1  0  0  3  0  0  0  0  0  0
  155.7610  210.7920  154.7520 O   0  0  0  0  0  1  0  0  0  0  0  0
  162.1070  210.8540  154.8480 O   0  0  0  0  0  0  0  0  0  0  0  0
  162.6290  210.3340  156.0340 C   0  0  0  0  0  1  0  0  0  0  0  0
  3 15  1  0  0  0  0
  4  1  1  0  0  0  0
  4  7  1  0  0  0  0
  5 28  1  0  0  0  0
  5 10  2  0  0  0  0
  6  4  1  0  0  0  0
  7  2  2  0  0  0  0
  8 10  1  0  0  0  0
  8 16  1  6  0  0  0
  9 12  1  0  0  0  0
  9  3  2  0  0  0  0
 12 24  1  6  0  0  0
 12  4  1  0  0  0  0
 13 11  1  6  0  0  0
 13 14  1  0  0  0  0
 13  5  1  0  0  0  0
 14  2  1  6  0  0  0
 14  8  1  0  0  0  0
 15  7  1  0  0  0  0
 15 11  2  0  0  0  0
 17 16  1  0  0  0  0
 18 17  1  0  0  0  0
 19 18  1  0  0  0  0
 19 20  2  0  0  0  0
 21 22  1  0  0  0  0
 22 19  1  0  0  0  0
 23 22  2  0  0  0  0
 24 25  1  0  0  0  0
 27 26  1  0  0  0  0
 27 25  1  0  0  0  0
 28 32  1  0  0  0  0
 29 40  1  1  0  0  0
 29 30  1  0  0  0  0
 30 31  1  0  0  0  0
 32 33  2  0  0  0  0
 32 29  1  0  0  0  0
 33 34  1  0  0  0  0
 34 36  1  6  0  0  0
 34 31  1  0  0  0  0
 36 35  1  6  0  0  0
 36 38  1  0  0  0  0
 38 37  1  1  0  0  0
 39 38  1  0  0  0  0
 40 41  1  0  0  0  0
M  END
>  <MODEL>
5

>  <REMARK>
 VINA RESULT:      -6.3      3.190      9.787
  Name = 
  13 active torsions:
  status: ('A' for Active; 'I' for Inactive)
    1  A    between atoms: C_1  and  C_5
    2  A    between atoms: C_1  and  C_25
    3  A    between atoms: C_4  and  O_10
    4  A    between atoms: C_5  and  C_40
    5  A    between atoms: C_8  and  O_28
    6  A    between atoms: C_8  and  C_31
    7  A    between atoms: C_13  and  O_28
    8  A    between atoms: C_14  and  C_19
    9  A    between atoms: C_14  and  C_33
   10  A    between atoms: C_18  and  C_23
   11  A    between atoms: C_21  and  C_36
   12  A    between atoms: C_23  and  C_40
   13  A    between atoms: C_36  and  C_39
                            x       y       z     vdW  Elec       q    Type
                         _______ _______ _______ _____ _____    ______ ____

>  <TORSDO>
F 13

$$$$
=
 OpenBabel11052411223D

 41 44  0  0  1  0  0  0  0  0999 V2000
  160.6920  206.8240  152.1510 F   0  0  0  0  0  0  0  0  0  0  0  0
  161.4140  209.3780  151.4150 C   0  0  0  0  0  3  0  0  0  0  0  0
  161.9150  207.5050  148.1980 C   0  0  0  0  0  3  0  0  0  0  0  0
  161.4480  206.9160  150.9880 C   0  0  0  0  0  0  0  0  0  0  0  0
  161.6260  212.1930  149.1230 C   0  0  0  0  0  0  0  0  0  0  0  0
  162.6850  206.3180  151.1890 F   0  0  0  0  0  0  0  0  0  0  0  0
  161.6390  208.3580  150.5750 C   0  0  0  0  0  0  0  0  0  0  0  0
  160.7300  211.7470  151.0800 C   0  0  2  0  0  3  0  0  0  0  0  0
  161.3850  206.3730  148.5530 N   0  0  0  0  0  0  0  0  0  0  0  0
  160.7640  212.6490  149.9710 N   0  0  0  0  0  0  0  0  0  0  0  0
  162.1700  209.8320  148.6970 N   0  0  0  0  0  0  0  0  0  0  0  0
  160.7060  206.1940  149.8400 C   0  0  1  0  0  3  0  0  0  0  0  0
  162.3240  210.9710  149.6110 C   0  0  2  0  0  3  0  0  0  0  0  0
  161.5690  210.7400  150.8800 C   0  0  2  0  0  3  0  0  0  0  0  0
  161.9460  208.6270  149.1390 C   0  0  0  0  0  0  0  0  0  0  0  0
  159.6640  211.7840  152.1300 C   0  0  0  0  0  2  0  0  0  0  0  0
  160.2930  211.8170  153.5200 C   0  0  0  0  0  2  0  0  0  0  0  0
  159.7960  210.6520  154.3770 C   0  0  0  0  0  2  0  0  0  0  0  0
  160.1970  210.7920  155.8140 C   0  0  0  0  0  0  0  0  0  0  0  0
  159.8600  211.8590  156.4740 N   0  0  0  0  0  2  0  0  0  0  0  0
  162.3660  209.6720  156.6540 C   0  0  0  0  0  1  0  0  0  0  0  0
  160.8810  209.6830  156.5020 C   0  0  0  0  0  0  0  0  0  0  0  0
  160.2170  208.7180  156.9590 O   0  0  0  0  0  0  0  0  0  0  0  0
  160.4360  204.7060  150.0910 C   0  0  0  0  0  2  0  0  0  0  0  0
  161.4570  203.9210  149.5350 O   0  0  0  0  0  0  0  0  0  0  0  0
  160.4140  201.9030  149.9060 O   0  0  0  0  0  1  0  0  0  0  0  0
  160.7990  202.8350  148.9320 C   0  0  0  0  0  2  0  0  0  0  0  0
  161.9420  212.8920  147.8420 C   0  0  0  0  0  2  0  0  0  0  0  0
  159.3210  213.1360  147.7000 C   0  0  1  0  0  3  0  0  0  0  0  0
  158.3880  212.3630  146.7350 C   0  0  0  0  0  2  0  0  0  0  0  0
  158.5100  212.7980  145.2540 C   0  0  0  0  0  2  0  0  0  0  0  0
  160.7010  213.2860  147.0910 C   0  0  0  0  0  0  0  0  0  0  0  0
  160.8060  213.6290  145.8030 C   0  0  0  0  0  3  0  0  0  0  0  0
  159.5500  213.9140  145.0060 C   0  0  1  0  0  3  0  0  0  0  0  0
  161.2640  214.0370  143.2940 O   0  0  0  0  0  1  0  0  0  0  0  0
  159.8770  214.1150  143.5150 C   0  0  1  0  0  3  0  0  0  0  0  0
  158.4670  213.7040  141.4360 C   0  0  0  0  0  1  0  0  0  0  0  0
  159.1790  213.0790  142.6230 C   0  0  1  0  0  3  0  0  0  0  0  0
  160.1230  212.1590  142.1550 O   0  0  0  0  0  1  0  0  0  0  0  0
  158.7900  214.4050  147.9530 O   0  0  0  0  0  0  0  0  0  0  0  0
  157.6670  214.1780  148.7500 C   0  0  0  0  0  1  0  0  0  0  0  0
  3  9  2  0  0  0  0
  3 15  1  0  0  0  0
  4  6  1  0  0  0  0
  4  1  1  0  0  0  0
  5 13  1  0  0  0  0
  5 10  2  0  0  0  0
  7  4  1  0  0  0  0
  7  2  2  0  0  0  0
  8 16  1  6  0  0  0
  9 12  1  0  0  0  0
 10  8  1  0  0  0  0
 11 15  2  0  0  0  0
 12 24  1  1  0  0  0
 12  4  1  0  0  0  0
 13 11  1  6  0  0  0
 13 14  1  0  0  0  0
 14  8  1  0  0  0  0
 14  2  1  6  0  0  0
 15  7  1  0  0  0  0
 16 17  1  0  0  0  0
 17 18  1  0  0  0  0
 18 19  1  0  0  0  0
 19 20  2  0  0  0  0
 19 22  1  0  0  0  0
 22 21  1  0  0  0  0
 22 23  2  0  0  0  0
 25 24  1  0  0  0  0
 27 25  1  0  0  0  0
 27 26  1  0  0  0  0
 28  5  1  0  0  0  0
 29 40  1  6  0  0  0
 30 29  1  0  0  0  0
 31 30  1  0  0  0  0
 32 29  1  0  0  0  0
 32 28  1  0  0  0  0
 33 32  2  0  0  0  0
 34 36  1  6  0  0  0
 34 31  1  0  0  0  0
 34 33  1  0  0  0  0
 36 35  1  1  0  0  0
 38 37  1  6  0  0  0
 38 36  1  0  0  0  0
 39 38  1  0  0  0  0
 40 41  1  0  0  0  0
M  END
>  <MODEL>
6

>  <REMARK>
 VINA RESULT:      -6.1      2.984      8.621
  Name = 
  13 active torsions:
  status: ('A' for Active; 'I' for Inactive)
    1  A    between atoms: C_1  and  C_5
    2  A    between atoms: C_1  and  C_25
    3  A    between atoms: C_4  and  O_10
    4  A    between atoms: C_5  and  C_40
    5  A    between atoms: C_8  and  O_28
    6  A    between atoms: C_8  and  C_31
    7  A    between atoms: C_13  and  O_28
    8  A    between atoms: C_14  and  C_19
    9  A    between atoms: C_14  and  C_33
   10  A    between atoms: C_18  and  C_23
   11  A    between atoms: C_21  and  C_36
   12  A    between atoms: C_23  and  C_40
   13  A    between atoms: C_36  and  C_39
                            x       y       z     vdW  Elec       q    Type
                         _______ _______ _______ _____ _____    ______ ____

>  <TORSDO>
F 13

$$$$
=
 OpenBabel11052411223D

 41 44  0  0  1  0  0  0  0  0999 V2000
  160.7810  204.9730  152.6480 F   0  0  0  0  0  0  0  0  0  0  0  0
  161.6470  207.4700  151.8750 C   0  0  0  0  0  3  0  0  0  0  0  0
  161.6350  205.6380  148.5970 C   0  0  0  0  0  3  0  0  0  0  0  0
  161.4150  205.0260  151.4110 C   0  0  0  0  0  0  0  0  0  0  0  0
  161.8670  210.3100  149.6130 C   0  0  0  0  0  0  0  0  0  0  0  0
  162.6070  204.3170  151.4710 F   0  0  0  0  0  0  0  0  0  0  0  0
  161.6890  206.4550  151.0000 C   0  0  0  0  0  0  0  0  0  0  0  0
  161.1460  209.8980  151.6480 C   0  0  2  0  0  3  0  0  0  0  0  0
  161.0470  204.5480  148.9900 N   0  0  0  0  0  0  0  0  0  0  0  0
  161.1440  210.8190  150.5550 N   0  0  0  0  0  0  0  0  0  0  0  0
  162.1490  207.9200  149.0980 N   0  0  0  0  0  0  0  0  0  0  0  0
  160.4940  204.3990  150.3400 C   0  0  1  0  0  3  0  0  0  0  0  0
  162.5000  209.0200  150.0060 C   0  0  2  0  0  3  0  0  0  0  0  0
  161.8660  208.8260  151.3450 C   0  0  2  0  0  3  0  0  0  0  0  0
  161.8660  206.7300  149.5440 C   0  0  0  0  0  0  0  0  0  0  0  0
  160.2060  210.0030  152.8070 C   0  0  0  0  0  2  0  0  0  0  0  0
  159.3330  211.2470  152.6690 C   0  0  0  0  0  2  0  0  0  0  0  0
  159.5280  212.1910  153.8560 C   0  0  0  0  0  2  0  0  0  0  0  0
  158.3250  212.2400  154.7470 C   0  0  0  0  0  0  0  0  0  0  0  0
  158.2240  211.4050  155.7380 N   0  0  0  0  0  2  0  0  0  0  0  0
  157.2920  214.1350  153.3300 C   0  0  0  0  0  1  0  0  0  0  0  0
  157.3110  213.2940  154.5620 C   0  0  0  0  0  0  0  0  0  0  0  0
  156.4520  213.5070  155.4560 O   0  0  0  0  0  0  0  0  0  0  0  0
  160.1190  202.9350  150.5970 C   0  0  0  0  0  2  0  0  0  0  0  0
  160.0970  202.2150  149.3930 O   0  0  0  0  0  0  0  0  0  0  0  0
  161.3140  200.5800  148.3250 O   0  0  0  0  0  1  0  0  0  0  0  0
  161.0510  201.1960  149.5560 C   0  0  0  0  0  2  0  0  0  0  0  0
  162.1070  211.0080  148.3160 C   0  0  0  0  0  2  0  0  0  0  0  0
  161.2180  213.2900  149.2900 C   0  0  1  0  0  3  0  0  0  0  0  0
  159.7440  213.6160  149.6390 C   0  0  0  0  0  2  0  0  0  0  0  0
  158.8250  213.7840  148.4040 C   0  0  0  0  0  2  0  0  0  0  0  0
  161.2810  212.2570  148.1840 C   0  0  0  0  0  0  0  0  0  0  0  0
  160.4640  212.3830  147.1320 C   0  0  0  0  0  3  0  0  0  0  0  0
  159.5420  213.5820  147.0490 C   0  0  1  0  0  3  0  0  0  0  0  0
  158.9170  212.3510  145.0560 O   0  0  0  0  0  1  0  0  0  0  0  0
  158.5670  213.4480  145.8650 C   0  0  1  0  0  3  0  0  0  0  0  0
  156.1550  214.2200  145.6210 C   0  0  0  0  0  1  0  0  0  0  0  0
  157.1140  213.2760  146.3250 C   0  0  1  0  0  3  0  0  0  0  0  0
  156.7070  211.9580  146.0940 O   0  0  0  0  0  1  0  0  0  0  0  0
  161.8720  214.4530  148.8710 O   0  0  0  0  0  0  0  0  0  0  0  0
  163.0190  214.0090  148.2110 C   0  0  0  0  0  1  0  0  0  0  0  0
  3  9  2  0  0  0  0
  3 15  1  0  0  0  0
  4  6  1  0  0  0  0
  4  1  1  0  0  0  0
  5 13  1  0  0  0  0
  5 10  2  0  0  0  0
  7  4  1  0  0  0  0
  7  2  2  0  0  0  0
  8 16  1  6  0  0  0
  9 12  1  0  0  0  0
 10  8  1  0  0  0  0
 11 15  2  0  0  0  0
 12 24  1  1  0  0  0
 12  4  1  0  0  0  0
 13 11  1  6  0  0  0
 13 14  1  0  0  0  0
 14  8  1  0  0  0  0
 14  2  1  6  0  0  0
 15  7  1  0  0  0  0
 17 16  1  0  0  0  0
 17 18  1  0  0  0  0
 18 19  1  0  0  0  0
 19 20  2  0  0  0  0
 21 22  1  0  0  0  0
 22 19  1  0  0  0  0
 22 23  2  0  0  0  0
 25 27  1  0  0  0  0
 25 24  1  0  0  0  0
 26 27  1  0  0  0  0
 28  5  1  0  0  0  0
 29 40  1  6  0  0  0
 29 30  1  0  0  0  0
 31 30  1  0  0  0  0
 32 28  1  0  0  0  0
 32 29  1  0  0  0  0
 33 32  2  0  0  0  0
 34 36  1  6  0  0  0
 34 33  1  0  0  0  0
 34 31  1  0  0  0  0
 36 35  1  1  0  0  0
 36 38  1  0  0  0  0
 38 37  1  6  0  0  0
 39 38  1  0  0  0  0
 41 40  1  0  0  0  0
M  END
>  <MODEL>
7

>  <REMARK>
 VINA RESULT:      -6.1      2.662      8.463
  Name = 
  13 active torsions:
  status: ('A' for Active; 'I' for Inactive)
    1  A    between atoms: C_1  and  C_5
    2  A    between atoms: C_1  and  C_25
    3  A    between atoms: C_4  and  O_10
    4  A    between atoms: C_5  and  C_40
    5  A    between atoms: C_8  and  O_28
    6  A    between atoms: C_8  and  C_31
    7  A    between atoms: C_13  and  O_28
    8  A    between atoms: C_14  and  C_19
    9  A    between atoms: C_14  and  C_33
   10  A    between atoms: C_18  and  C_23
   11  A    between atoms: C_21  and  C_36
   12  A    between atoms: C_23  and  C_40
   13  A    between atoms: C_36  and  C_39
                            x       y       z     vdW  Elec       q    Type
                         _______ _______ _______ _____ _____    ______ ____

>  <TORSDO>
F 13

$$$$
=
 OpenBabel11052411223D

 41 44  0  0  1  0  0  0  0  0999 V2000
  160.1680  212.6670  153.2440 F   0  0  0  0  0  0  0  0  0  0  0  0
  161.5020  210.4740  152.2440 C   0  0  0  0  0  3  0  0  0  0  0  0
  159.5250  208.9320  155.0400 C   0  0  0  0  0  3  0  0  0  0  0  0
  160.2320  211.5700  154.0960 C   0  0  0  0  0  0  0  0  0  0  0  0
  161.8260  206.9690  151.3290 C   0  0  0  0  0  0  0  0  0  0  0  0
  161.0020  211.8890  155.2070 F   0  0  0  0  0  0  0  0  0  0  0  0
  160.8210  210.3670  153.3940 C   0  0  0  0  0  0  0  0  0  0  0  0
  161.8740  208.9260  150.3300 C   0  0  2  0  0  3  0  0  0  0  0  0
  158.7880  209.9590  155.3410 N   0  0  0  0  0  0  0  0  0  0  0  0
  161.7750  207.5110  150.1570 N   0  0  0  0  0  0  0  0  0  0  0  0
  160.9880  207.9280  153.4350 N   0  0  0  0  0  0  0  0  0  0  0  0
  158.8030  211.1940  154.5500 C   0  0  1  0  0  3  0  0  0  0  0  0
  162.0440  207.9650  152.4160 C   0  0  2  0  0  3  0  0  0  0  0  0
  161.9710  209.2270  151.6180 C   0  0  2  0  0  3  0  0  0  0  0  0
  160.4930  209.0200  153.9440 C   0  0  0  0  0  0  0  0  0  0  0  0
  161.5790  209.9060  149.2380 C   0  0  0  0  0  2  0  0  0  0  0  0
  162.5770  211.0600  149.2790 C   0  0  0  0  0  2  0  0  0  0  0  0
  162.4040  211.9800  148.0700 C   0  0  0  0  0  2  0  0  0  0  0  0
  161.1290  212.7650  148.1300 C   0  0  0  0  0  0  0  0  0  0  0  0
  160.7690  213.3210  149.2480 N   0  0  0  0  0  2  0  0  0  0  0  0
  160.9270  213.7000  145.7330 C   0  0  0  0  0  1  0  0  0  0  0  0
  160.3400  212.9890  146.9060 C   0  0  0  0  0  0  0  0  0  0  0  0
  159.1480  212.5930  146.8410 O   0  0  0  0  0  0  0  0  0  0  0  0
  158.0560  212.3060  155.2940 C   0  0  0  0  0  2  0  0  0  0  0  0
  156.6740  212.2010  155.0760 O   0  0  0  0  0  0  0  0  0  0  0  0
  155.1640  211.1930  156.4890 O   0  0  0  0  0  1  0  0  0  0  0  0
  156.0960  212.2310  156.3560 C   0  0  0  0  0  2  0  0  0  0  0  0
  161.7680  205.4920  151.5360 C   0  0  0  0  0  2  0  0  0  0  0  0
  161.1620  203.2570  150.2760 C   0  0  1  0  0  3  0  0  0  0  0  0
  161.9230  202.6630  149.0650 C   0  0  0  0  0  2  0  0  0  0  0  0
  161.7340  203.4570  147.7490 C   0  0  0  0  0  2  0  0  0  0  0  0
  161.3100  204.7650  150.3030 C   0  0  0  0  0  0  0  0  0  0  0  0
  161.1800  205.4490  149.1610 C   0  0  0  0  0  3  0  0  0  0  0  0
  160.8330  204.7060  147.8870 C   0  0  1  0  0  3  0  0  0  0  0  0
  161.4600  206.8830  147.0230 O   0  0  0  0  0  1  0  0  0  0  0  0
  160.9050  205.6400  146.6660 C   0  0  1  0  0  3  0  0  0  0  0  0
  161.2060  205.4090  144.1490 C   0  0  0  0  0  1  0  0  0  0  0  0
  161.7360  205.0400  145.5240 C   0  0  1  0  0  3  0  0  0  0  0  0
  163.0600  205.4790  145.6340 O   0  0  0  0  0  1  0  0  0  0  0  0
  159.8050  202.9300  150.1890 O   0  0  0  0  0  0  0  0  0  0  0  0
  159.7780  201.6020  149.7600 C   0  0  0  0  0  1  0  0  0  0  0  0
  1  4  1  0  0  0  0
  2  7  2  0  0  0  0
  3  9  2  0  0  0  0
  4 12  1  0  0  0  0
  4  6  1  0  0  0  0
  5 28  1  0  0  0  0
  7 15  1  0  0  0  0
  7  4  1  0  0  0  0
  8 16  1  1  0  0  0
  8 14  1  0  0  0  0
 10  8  1  0  0  0  0
 10  5  2  0  0  0  0
 11 15  2  0  0  0  0
 12 24  1  1  0  0  0
 12  9  1  0  0  0  0
 13  5  1  6  0  0  0
 13 11  1  0  0  0  0
 14  2  1  1  0  0  0
 14 13  1  0  0  0  0
 15  3  1  0  0  0  0
 16 17  1  0  0  0  0
 18 19  1  0  0  0  0
 18 17  1  0  0  0  0
 19 20  2  0  0  0  0
 21 22  1  0  0  0  0
 22 19  1  0  0  0  0
 23 22  2  0  0  0  0
 25 24  1  0  0  0  0
 25 27  1  0  0  0  0
 27 26  1  0  0  0  0
 29 40  1  6  0  0  0
 29 32  1  0  0  0  0
 30 29  1  0  0  0  0
 31 34  1  0  0  0  0
 31 30  1  0  0  0  0
 32 28  1  0  0  0  0
 33 32  2  0  0  0  0
 34 36  1  6  0  0  0
 34 33  1  0  0  0  0
 36 35  1  1  0  0  0
 38 37  1  6  0  0  0
 38 39  1  0  0  0  0
 38 36  1  0  0  0  0
 41 40  1  0  0  0  0
M  END
>  <MODEL>
8

>  <REMARK>
 VINA RESULT:      -5.5      1.568      2.083
  Name = 
  13 active torsions:
  status: ('A' for Active; 'I' for Inactive)
    1  A    between atoms: C_1  and  C_5
    2  A    between atoms: C_1  and  C_25
    3  A    between atoms: C_4  and  O_10
    4  A    between atoms: C_5  and  C_40
    5  A    between atoms: C_8  and  O_28
    6  A    between atoms: C_8  and  C_31
    7  A    between atoms: C_13  and  O_28
    8  A    between atoms: C_14  and  C_19
    9  A    between atoms: C_14  and  C_33
   10  A    between atoms: C_18  and  C_23
   11  A    between atoms: C_21  and  C_36
   12  A    between atoms: C_23  and  C_40
   13  A    between atoms: C_36  and  C_39
                            x       y       z     vdW  Elec       q    Type
                         _______ _______ _______ _____ _____    ______ ____

>  <TORSDO>
F 13

$$$$
=
 OpenBabel11052411223D

 41 44  0  0  1  0  0  0  0  0999 V2000
  158.7840  214.2060  151.7170 F   0  0  0  0  0  0  0  0  0  0  0  0
  160.7540  212.3100  151.3870 C   0  0  0  0  0  3  0  0  0  0  0  0
  158.6560  210.7450  154.0810 C   0  0  0  0  0  3  0  0  0  0  0  0
  158.9220  213.3030  152.7660 C   0  0  0  0  0  0  0  0  0  0  0  0
  162.0420  208.9120  151.2380 C   0  0  0  0  0  0  0  0  0  0  0  0
  159.3590  213.9740  153.9000 F   0  0  0  0  0  0  0  0  0  0  0  0
  159.8980  212.2030  152.4130 C   0  0  0  0  0  0  0  0  0  0  0  0
  161.8460  210.6420  149.8970 C   0  0  2  0  0  3  0  0  0  0  0  0
  157.6610  211.5790  154.0550 N   0  0  0  0  0  0  0  0  0  0  0  0
  162.1080  209.2400  149.9890 N   0  0  0  0  0  0  0  0  0  0  0  0
  160.6020  209.9260  152.9560 N   0  0  0  0  0  0  0  0  0  0  0  0
  157.5540  212.6430  153.0510 C   0  0  1  0  0  3  0  0  0  0  0  0
  161.8060  210.0810  152.1290 C   0  0  2  0  0  3  0  0  0  0  0  0
  161.6100  211.1470  151.1000 C   0  0  2  0  0  3  0  0  0  0  0  0
  159.7800  210.9150  153.1570 C   0  0  0  0  0  0  0  0  0  0  0  0
  161.5630  211.3370  148.6020 C   0  0  0  0  0  2  0  0  0  0  0  0
  162.7650  212.1750  148.1770 C   0  0  0  0  0  2  0  0  0  0  0  0
  162.3570  213.6210  147.8960 C   0  0  0  0  0  2  0  0  0  0  0  0
  161.2140  213.7120  146.9310 C   0  0  0  0  0  0  0  0  0  0  0  0
  160.0920  214.2440  147.3130 N   0  0  0  0  0  2  0  0  0  0  0  0
  160.3200  212.5590  144.8020 C   0  0  0  0  0  1  0  0  0  0  0  0
  161.3950  213.2940  145.5300 C   0  0  0  0  0  0  0  0  0  0  0  0
  162.4730  213.5410  144.9310 O   0  0  0  0  0  0  0  0  0  0  0  0
  156.4400  213.6220  153.4370 C   0  0  0  0  0  2  0  0  0  0  0  0
  156.6290  214.0930  154.7450 O   0  0  0  0  0  0  0  0  0  0  0  0
  155.3010  212.9710  156.2520 O   0  0  0  0  0  1  0  0  0  0  0  0
  155.3600  214.0370  155.3430 C   0  0  0  0  0  2  0  0  0  0  0  0
  162.2810  207.5190  151.7170 C   0  0  0  0  0  2  0  0  0  0  0  0
  161.4940  206.8930  149.2800 C   0  0  1  0  0  3  0  0  0  0  0  0
  160.1690  206.1840  148.9070 C   0  0  0  0  0  2  0  0  0  0  0  0
  160.1180  204.6890  149.3080 C   0  0  0  0  0  2  0  0  0  0  0  0
  161.9320  206.4940  150.6740 C   0  0  0  0  0  0  0  0  0  0  0  0
  161.8570  205.2070  151.0330 C   0  0  0  0  0  3  0  0  0  0  0  0
  161.3920  204.1810  150.0200 C   0  0  1  0  0  3  0  0  0  0  0  0
  160.5250  202.9210  151.9020 O   0  0  0  0  0  1  0  0  0  0  0  0
  161.2070  202.8010  150.6770 C   0  0  1  0  0  3  0  0  0  0  0  0
  161.2010  201.4430  148.5250 C   0  0  0  0  0  1  0  0  0  0  0  0
  160.4330  201.8290  149.7770 C   0  0  1  0  0  3  0  0  0  0  0  0
  160.1300  200.6700  150.4990 O   0  0  0  0  0  1  0  0  0  0  0  0
  162.4920  206.5390  148.3660 O   0  0  0  0  0  0  0  0  0  0  0  0
  161.8950  206.6590  147.1100 C   0  0  0  0  0  1  0  0  0  0  0  0
  1  4  1  0  0  0  0
  2  7  2  0  0  0  0
  4 12  1  0  0  0  0
  4  6  1  0  0  0  0
  5 28  1  0  0  0  0
  7  4  1  0  0  0  0
  7 15  1  0  0  0  0
  8 16  1  6  0  0  0
  8 10  1  0  0  0  0
  8 14  1  0  0  0  0
  9  3  2  0  0  0  0
 10  5  2  0  0  0  0
 11 15  2  0  0  0  0
 12 24  1  1  0  0  0
 12  9  1  0  0  0  0
 13  5  1  6  0  0  0
 13 11  1  0  0  0  0
 14  2  1  6  0  0  0
 14 13  1  0  0  0  0
 15  3  1  0  0  0  0
 17 16  1  0  0  0  0
 18 17  1  0  0  0  0
 19 20  2  0  0  0  0
 19 18  1  0  0  0  0
 21 22  1  0  0  0  0
 22 19  1  0  0  0  0
 23 22  2  0  0  0  0
 24 25  1  0  0  0  0
 25 27  1  0  0  0  0
 27 26  1  0  0  0  0
 29 40  1  6  0  0  0
 29 32  1  0  0  0  0
 30 29  1  0  0  0  0
 30 31  1  0  0  0  0
 31 34  1  0  0  0  0
 32 33  2  0  0  0  0
 32 28  1  0  0  0  0
 34 36  1  1  0  0  0
 34 33  1  0  0  0  0
 36 35  1  1  0  0  0
 38 37  1  6  0  0  0
 38 39  1  0  0  0  0
 38 36  1  0  0  0  0
 41 40  1  0  0  0  0
M  END
>  <MODEL>
9

>  <REMARK>
 VINA RESULT:      -5.3      2.453      4.335
  Name = 
  13 active torsions:
  status: ('A' for Active; 'I' for Inactive)
    1  A    between atoms: C_1  and  C_5
    2  A    between atoms: C_1  and  C_25
    3  A    between atoms: C_4  and  O_10
    4  A    between atoms: C_5  and  C_40
    5  A    between atoms: C_8  and  O_28
    6  A    between atoms: C_8  and  C_31
    7  A    between atoms: C_13  and  O_28
    8  A    between atoms: C_14  and  C_19
    9  A    between atoms: C_14  and  C_33
   10  A    between atoms: C_18  and  C_23
   11  A    between atoms: C_21  and  C_36
   12  A    between atoms: C_23  and  C_40
   13  A    between atoms: C_36  and  C_39
                            x       y       z     vdW  Elec       q    Type
                         _______ _______ _______ _____ _____    ______ ____

>  <TORSDO>
F 13

$$$$
