=
 OpenBabel11042421333D

 27 32  0  0  1  0  0  0  0  0999 V2000
  157.5740  212.1160  156.2420 C   0  0  0  0  0  0  0  0  0  0  0  0
  160.8460  209.1580  154.5830 C   0  0  1  0  0  0  0  0  0  0  0  0
  162.0170  210.1320  154.6390 C   0  0  0  0  0  2  0  0  0  0  0  0
  161.0320  207.8910  155.0910 C   0  0  0  0  0  2  0  0  0  0  0  0
  159.9520  212.3960  154.1190 C   0  0  0  0  0  1  0  0  0  0  0  0
  159.1320  210.5310  155.6330 N   0  0  1  0  0  0  0  0  0  0  0  0
  159.4210  209.6800  154.4830 C   0  0  0  0  0  2  0  0  0  0  0  0
  159.7290  211.8920  155.5520 C   0  0  1  0  0  0  0  0  0  0  0  0
  161.0420  211.9310  156.3370 C   0  0  0  0  0  2  0  0  0  0  0  0
  157.6870  210.7280  155.7610 C   0  0  0  0  0  2  0  0  0  0  0  0
  158.7870  212.7580  156.1590 O   0  0  0  0  0  0  0  0  0  0  0  0
  162.0620  210.8870  155.9400 C   0  0  0  0  0  0  0  0  0  0  0  0
  161.0940  208.0670  153.6050 N   0  0  0  0  0  0  0  0  0  0  0  0
  163.0980  210.6860  156.7470 C   0  0  0  0  0  2  0  0  0  0  0  0
  156.4660  212.6830  156.6900 C   0  0  0  0  0  2  0  0  0  0  0  0
  160.8400  203.8000  151.6600 C   0  0  0  0  0  3  0  0  0  0  0  0
  161.3950  206.2790  150.4620 C   0  0  1  0  0  3  0  0  0  0  0  0
  161.1530  206.2590  151.8310 C   0  0  0  0  0  0  0  0  0  0  0  0
  161.2590  207.5790  152.2780 C   0  0  0  0  0  0  0  0  0  0  0  0
  161.7780  209.6080  150.9080 N   0  0  0  0  0  0  0  0  0  0  0  0
  161.9250  208.3040  149.0300 C   0  0  0  0  0  3  0  0  0  0  0  0
  160.8460  205.0020  152.5900 C   0  0  0  0  0  3  0  0  0  0  0  0
  162.0120  209.6040  149.5600 C   0  0  0  0  0  3  0  0  0  0  0  0
  161.0840  203.8920  150.3380 C   0  0  0  0  0  3  0  0  0  0  0  0
  161.5570  208.3090  151.1480 C   0  0  0  0  0  0  0  0  0  0  0  0
  161.3770  205.1930  149.6930 C   0  0  0  0  0  3  0  0  0  0  0  0
  161.6360  207.5450  150.0890 N   0  0  0  0  0  0  0  0  0  0  0  0
  1 15  2  0  0  0  0
  2  7  1  1  0  0  0
  2  3  1  0  0  0  0
  2  4  1  0  0  0  0
  3 12  1  0  0  0  0
  6  7  1  6  0  0  0
  6 10  1  0  0  0  0
  8  5  1  6  0  0  0
  8  6  1  0  0  0  0
  8 11  1  0  0  0  0
  8  9  1  0  0  0  0
 10  1  1  0  0  0  0
 11  1  1  0  0  0  0
 12  9  1  0  0  0  0
 12 14  2  0  0  0  0
 13  2  1  0  0  0  0
 13  4  1  0  0  0  0
 16 22  2  0  0  0  0
 17 26  1  6  0  0  0
 17 18  1  0  0  0  0
 18 19  2  0  0  0  0
 18 22  1  0  0  0  0
 19 13  1  0  0  0  0
 20 25  2  0  0  0  0
 21 23  2  0  0  0  0
 21 27  1  0  0  0  0
 23 20  1  0  0  0  0
 24 16  1  0  0  0  0
 25 19  1  0  0  0  0
 26 24  2  0  0  0  0
 27 17  1  0  0  0  0
 27 25  1  0  0  0  0
M  END
>  <MODEL>
1

>  <REMARK>
 VINA RESULT:      -8.0      0.000      0.000
  Name = 
  1 active torsions:
  status: ('A' for Active; 'I' for Inactive)
    1  A    between atoms: C_5  and  N_23
                            x       y       z     vdW  Elec       q    Type
                         _______ _______ _______ _____ _____    ______ ____

>  <TORSDO>
F 1

$$$$
=
 OpenBabel11042421333D

 27 32  0  0  1  0  0  0  0  0999 V2000
  162.1110  205.7500  146.5390 C   0  0  0  0  0  0  0  0  0  0  0  0
  161.7870  206.2310  151.2150 C   0  0  1  0  0  0  0  0  0  0  0  0
  160.6990  205.1850  151.4300 C   0  0  0  0  0  2  0  0  0  0  0  0
  162.8850  206.2030  152.0460 C   0  0  0  0  0  2  0  0  0  0  0  0
  159.6620  205.9100  148.5930 C   0  0  0  0  0  1  0  0  0  0  0  0
  162.1880  205.9070  148.8360 N   0  0  1  0  0  0  0  0  0  0  0  0
  161.9360  206.9130  149.8640 C   0  0  0  0  0  2  0  0  0  0  0  0
  160.9800  205.1440  148.4170 C   0  0  1  0  0  0  0  0  0  0  0  0
  160.9230  203.8110  149.1660 C   0  0  0  0  0  2  0  0  0  0  0  0
  162.7060  206.5460  147.6260 C   0  0  0  0  0  2  0  0  0  0  0  0
  161.1450  204.9040  147.0310 O   0  0  0  0  0  0  0  0  0  0  0  0
  160.9790  203.9150  150.6740 C   0  0  0  0  0  0  0  0  0  0  0  0
  161.8190  207.2170  152.3270 N   0  0  0  0  0  0  0  0  0  0  0  0
  161.2060  202.8060  151.3700 C   0  0  0  0  0  2  0  0  0  0  0  0
  162.4440  205.8280  145.2610 C   0  0  0  0  0  2  0  0  0  0  0  0
  160.2610  207.6470  156.7360 C   0  0  0  0  0  3  0  0  0  0  0  0
  160.3630  209.5610  154.6830 C   0  0  1  0  0  3  0  0  0  0  0  0
  160.8310  208.2820  154.4020 C   0  0  0  0  0  0  0  0  0  0  0  0
  161.2600  208.2930  153.0710 C   0  0  0  0  0  0  0  0  0  0  0  0
  161.2110  210.2210  151.4770 N   0  0  0  0  0  0  0  0  0  0  0  0
  160.2920  211.5460  153.1050 C   0  0  0  0  0  3  0  0  0  0  0  0
  160.8310  207.1710  155.4100 C   0  0  0  0  0  3  0  0  0  0  0  0
  160.7460  211.4720  151.7760 C   0  0  0  0  0  3  0  0  0  0  0  0
  159.8240  208.9060  156.9390 C   0  0  0  0  0  3  0  0  0  0  0  0
  161.0220  209.5790  152.6370 C   0  0  0  0  0  0  0  0  0  0  0  0
  159.8730  209.9250  155.8650 C   0  0  0  0  0  3  0  0  0  0  0  0
  160.4980  210.3160  153.5820 N   0  0  0  0  0  0  0  0  0  0  0  0
  1 11  1  0  0  0  0
  1 10  1  0  0  0  0
  2  7  1  6  0  0  0
  2  3  1  0  0  0  0
  2  4  1  0  0  0  0
  2 13  1  0  0  0  0
  4 13  1  0  0  0  0
  6 10  1  6  0  0  0
  6  7  1  0  0  0  0
  8  5  1  1  0  0  0
  8  6  1  0  0  0  0
  8  9  1  0  0  0  0
  9 12  1  0  0  0  0
 11  8  1  0  0  0  0
 12 14  2  0  0  0  0
 12  3  1  0  0  0  0
 13 19  1  0  0  0  0
 15  1  2  0  0  0  0
 16 24  1  0  0  0  0
 17 26  1  1  0  0  0
 18 17  1  0  0  0  0
 18 22  1  0  0  0  0
 19 18  2  0  0  0  0
 20 23  1  0  0  0  0
 20 25  2  0  0  0  0
 21 27  1  0  0  0  0
 22 16  2  0  0  0  0
 23 21  2  0  0  0  0
 25 19  1  0  0  0  0
 25 27  1  0  0  0  0
 26 24  2  0  0  0  0
 27 17  1  0  0  0  0
M  END
>  <MODEL>
2

>  <REMARK>
 VINA RESULT:      -7.5      3.076      7.627
  Name = 
  1 active torsions:
  status: ('A' for Active; 'I' for Inactive)
    1  A    between atoms: C_5  and  N_23
                            x       y       z     vdW  Elec       q    Type
                         _______ _______ _______ _____ _____    ______ ____

>  <TORSDO>
F 1

$$$$
=
 OpenBabel11042421333D

 27 32  0  0  1  0  0  0  0  0999 V2000
  157.6140  212.1600  156.1910 C   0  0  0  0  0  0  0  0  0  0  0  0
  160.8710  209.0430  154.8190 C   0  0  1  0  0  0  0  0  0  0  0  0
  162.0560  210.0020  154.8320 C   0  0  0  0  0  2  0  0  0  0  0  0
  161.0260  207.8140  155.4200 C   0  0  0  0  0  2  0  0  0  0  0  0
  160.0400  212.2530  154.1060 C   0  0  0  0  0  1  0  0  0  0  0  0
  159.1570  210.5130  155.7310 N   0  0  1  0  0  0  0  0  0  0  0  0
  159.4570  209.5780  154.6510 C   0  0  0  0  0  2  0  0  0  0  0  0
  159.7790  211.8570  155.5660 C   0  0  1  0  0  0  0  0  0  0  0  0
  161.0750  211.9320  156.3750 C   0  0  0  0  0  2  0  0  0  0  0  0
  157.7140  210.7400  155.8130 C   0  0  0  0  0  2  0  0  0  0  0  0
  158.8380  212.7770  156.0900 O   0  0  0  0  0  0  0  0  0  0  0  0
  162.0860  210.8470  156.0770 C   0  0  0  0  0  0  0  0  0  0  0  0
  161.1220  207.8820  153.9270 N   0  0  0  0  0  0  0  0  0  0  0  0
  163.1020  210.6890  156.9190 C   0  0  0  0  0  2  0  0  0  0  0  0
  156.5060  212.7740  156.5730 C   0  0  0  0  0  2  0  0  0  0  0  0
  161.9930  209.6390  149.6610 C   0  0  0  0  0  3  0  0  0  0  0  0
  161.6670  206.9660  150.4590 C   0  0  2  0  0  3  0  0  0  0  0  0
  161.5640  207.9530  151.4340 C   0  0  0  0  0  0  0  0  0  0  0  0
  161.3060  207.2990  152.6430 C   0  0  0  0  0  0  0  0  0  0  0  0
  161.0720  204.8350  153.0150 N   0  0  0  0  0  0  0  0  0  0  0  0
  161.4370  204.4610  150.7840 C   0  0  0  0  0  3  0  0  0  0  0  0
  161.7170  209.4150  151.1380 C   0  0  0  0  0  3  0  0  0  0  0  0
  161.1780  203.8820  152.0390 C   0  0  0  0  0  3  0  0  0  0  0  0
  162.0800  208.6330  148.7680 C   0  0  0  0  0  3  0  0  0  0  0  0
  161.2710  205.9600  152.3160 C   0  0  0  0  0  0  0  0  0  0  0  0
  161.9100  207.2190  149.1760 C   0  0  0  0  0  3  0  0  0  0  0  0
  161.4820  205.7710  151.0390 N   0  0  0  0  0  0  0  0  0  0  0  0
  1 15  2  0  0  0  0
  2  7  1  6  0  0  0
  2  3  1  0  0  0  0
  2  4  1  0  0  0  0
  3 12  1  0  0  0  0
  6  7  1  6  0  0  0
  6 10  1  0  0  0  0
  8  5  1  6  0  0  0
  8  6  1  0  0  0  0
  8 11  1  0  0  0  0
  8  9  1  0  0  0  0
 10  1  1  0  0  0  0
 11  1  1  0  0  0  0
 12  9  1  0  0  0  0
 12 14  2  0  0  0  0
 13  2  1  0  0  0  0
 13  4  1  0  0  0  0
 16 22  2  0  0  0  0
 17 26  1  6  0  0  0
 17 27  1  0  0  0  0
 17 18  1  0  0  0  0
 18 19  2  0  0  0  0
 19 13  1  0  0  0  0
 21 27  1  0  0  0  0
 21 23  2  0  0  0  0
 22 18  1  0  0  0  0
 23 20  1  0  0  0  0
 24 26  2  0  0  0  0
 24 16  1  0  0  0  0
 25 19  1  0  0  0  0
 25 20  2  0  0  0  0
 27 25  1  0  0  0  0
M  END
>  <MODEL>
3

>  <REMARK>
 VINA RESULT:      -7.4      0.913      2.676
  Name = 
  1 active torsions:
  status: ('A' for Active; 'I' for Inactive)
    1  A    between atoms: C_5  and  N_23
                            x       y       z     vdW  Elec       q    Type
                         _______ _______ _______ _____ _____    ______ ____

>  <TORSDO>
F 1

$$$$
=
 OpenBabel11042421333D

 27 32  0  0  1  0  0  0  0  0999 V2000
  162.0310  205.7590  146.8110 C   0  0  0  0  0  0  0  0  0  0  0  0
  161.7670  206.2010  151.4950 C   0  0  1  0  0  0  0  0  0  0  0  0
  160.7170  205.1200  151.7200 C   0  0  0  0  0  2  0  0  0  0  0  0
  162.8790  206.2030  152.3070 C   0  0  0  0  0  2  0  0  0  0  0  0
  159.6120  205.8290  148.9040 C   0  0  0  0  0  1  0  0  0  0  0  0
  162.1410  205.9050  149.1070 N   0  0  1  0  0  0  0  0  0  0  0  0
  161.8730  206.8950  150.1460 C   0  0  0  0  0  2  0  0  0  0  0  0
  160.9510  205.1060  148.7020 C   0  0  1  0  0  0  0  0  0  0  0  0
  160.9470  203.7670  149.4430 C   0  0  0  0  0  2  0  0  0  0  0  0
  162.6180  206.5670  147.8930 C   0  0  0  0  0  2  0  0  0  0  0  0
  161.1010  204.8800  147.3130 O   0  0  0  0  0  0  0  0  0  0  0  0
  161.0250  203.8640  150.9510 C   0  0  0  0  0  0  0  0  0  0  0  0
  161.7860  207.1810  152.6120 N   0  0  0  0  0  0  0  0  0  0  0  0
  161.2980  202.7580  151.6350 C   0  0  0  0  0  2  0  0  0  0  0  0
  162.3410  205.8560  145.5280 C   0  0  0  0  0  2  0  0  0  0  0  0
  160.6090  211.6200  151.6360 C   0  0  0  0  0  3  0  0  0  0  0  0
  160.3500  210.1910  154.0400 C   0  0  0  0  0  0  0  0  0  0  0  0
  160.9030  209.5310  152.9480 C   0  0  0  0  0  0  0  0  0  0  0  0
  161.2050  208.2340  153.3720 C   0  0  0  0  0  0  0  0  0  0  0  0
  160.8340  207.2560  155.6460 N   0  0  0  0  0  0  0  0  0  0  0  0
  159.9540  209.2470  156.3610 C   0  0  0  0  0  3  0  0  0  0  0  0
  161.0950  210.1810  151.6100 C   0  0  0  0  0  2  0  0  0  0  0  0
  160.2870  207.9250  156.7060 C   0  0  0  0  0  3  0  0  0  0  0  0
  160.0810  212.1990  152.7330 C   0  0  0  0  0  3  0  0  0  0  0  0
  160.8140  208.1970  154.6930 C   0  0  0  0  0  0  0  0  0  0  0  0
  159.9390  211.4560  154.0070 C   0  0  0  0  0  3  0  0  0  0  0  0
  160.3150  209.3430  155.0790 N   0  0  0  0  0  0  0  0  0  0  0  0
  1 11  1  0  0  0  0
  1 10  1  0  0  0  0
  2  7  1  6  0  0  0
  2  3  1  0  0  0  0
  2  4  1  0  0  0  0
  2 13  1  0  0  0  0
  4 13  1  0  0  0  0
  6 10  1  6  0  0  0
  6  7  1  0  0  0  0
  8  5  1  1  0  0  0
  8  6  1  0  0  0  0
  8  9  1  0  0  0  0
  9 12  1  0  0  0  0
 11  8  1  0  0  0  0
 12 14  2  0  0  0  0
 12  3  1  0  0  0  0
 13 19  1  0  0  0  0
 15  1  2  0  0  0  0
 16 24  2  0  0  0  0
 17 27  1  0  0  0  0
 18 19  2  0  0  0  0
 18 17  1  0  0  0  0
 19 25  1  0  0  0  0
 20 23  1  0  0  0  0
 21 23  2  0  0  0  0
 22 16  1  0  0  0  0
 22 18  1  0  0  0  0
 24 26  1  0  0  0  0
 25 27  1  0  0  0  0
 25 20  2  0  0  0  0
 26 17  2  0  0  0  0
 27 21  1  0  0  0  0
M  END
>  <MODEL>
4

>  <REMARK>
 VINA RESULT:      -7.2      3.078      7.893
  Name = 
  1 active torsions:
  status: ('A' for Active; 'I' for Inactive)
    1  A    between atoms: C_5  and  N_23
                            x       y       z     vdW  Elec       q    Type
                         _______ _______ _______ _____ _____    ______ ____

>  <TORSDO>
F 1

$$$$
=
 OpenBabel11042421333D

 27 32  0  0  1  0  0  0  0  0999 V2000
  159.9570  212.2650  155.9930 C   0  0  0  0  0  0  0  0  0  0  0  0
  161.2620  210.3710  151.8800 C   0  0  1  0  0  0  0  0  0  0  0  0
  160.2560  211.1160  151.0100 C   0  0  0  0  0  2  0  0  0  0  0  0
  162.5730  210.3280  151.4620 C   0  0  0  0  0  2  0  0  0  0  0  0
  158.3600  211.1090  153.4720 C   0  0  0  0  0  1  0  0  0  0  0  0
  160.8160  211.4470  154.0180 N   0  0  1  0  0  0  0  0  0  0  0  0
  160.9810  210.1550  153.3590 C   0  0  0  0  0  2  0  0  0  0  0  0
  159.4980  212.0950  153.7720 C   0  0  1  0  0  0  0  0  0  0  0  0
  159.6250  213.1170  152.6410 C   0  0  0  0  0  2  0  0  0  0  0  0
  160.9270  211.2890  155.4680 C   0  0  0  0  0  2  0  0  0  0  0  0
  159.1700  212.7590  154.9790 O   0  0  0  0  0  0  0  0  0  0  0  0
  160.1940  212.5810  151.3460 C   0  0  0  0  0  0  0  0  0  0  0  0
  161.7220  209.1180  151.2260 N   0  0  0  0  0  0  0  0  0  0  0  0
  160.5820  213.4550  150.4240 C   0  0  0  0  0  2  0  0  0  0  0  0
  159.8420  212.6240  157.2610 C   0  0  0  0  0  2  0  0  0  0  0  0
  160.9870  204.9910  153.3420 C   0  0  0  0  0  3  0  0  0  0  0  0
  161.1370  205.5920  150.6020 C   0  0  1  0  0  3  0  0  0  0  0  0
  161.2980  206.6360  151.5070 C   0  0  0  0  0  0  0  0  0  0  0  0
  161.5070  207.7940  150.7510 C   0  0  0  0  0  0  0  0  0  0  0  0
  161.5820  207.9860  148.2570 N   0  0  0  0  0  0  0  0  0  0  0  0
  161.2040  205.7330  148.0710 C   0  0  0  0  0  3  0  0  0  0  0  0
  161.2400  206.4480  152.9930 C   0  0  0  0  0  3  0  0  0  0  0  0
  161.4200  206.9430  147.3870 C   0  0  0  0  0  3  0  0  0  0  0  0
  160.8400  204.0270  152.4120 C   0  0  0  0  0  3  0  0  0  0  0  0
  161.4590  207.3710  149.4400 C   0  0  0  0  0  0  0  0  0  0  0  0
  160.9160  204.3310  150.9640 C   0  0  0  0  0  3  0  0  0  0  0  0
  161.2420  206.0840  149.3590 N   0  0  0  0  0  0  0  0  0  0  0  0
  1 15  2  0  0  0  0
  2  3  1  6  0  0  0
  2  7  1  0  0  0  0
  3 12  1  0  0  0  0
  4  2  1  0  0  0  0
  6  7  1  6  0  0  0
  6 10  1  0  0  0  0
  8  5  1  6  0  0  0
  8  6  1  0  0  0  0
  8 11  1  0  0  0  0
  9  8  1  0  0  0  0
 10  1  1  0  0  0  0
 11  1  1  0  0  0  0
 12  9  1  0  0  0  0
 13  4  1  0  0  0  0
 13  2  1  0  0  0  0
 14 12  2  0  0  0  0
 17 26  1  6  0  0  0
 17 18  1  0  0  0  0
 18 22  1  0  0  0  0
 19 13  1  0  0  0  0
 19 18  2  0  0  0  0
 20 25  2  0  0  0  0
 21 27  1  0  0  0  0
 22 16  2  0  0  0  0
 23 21  2  0  0  0  0
 23 20  1  0  0  0  0
 24 16  1  0  0  0  0
 25 19  1  0  0  0  0
 26 24  2  0  0  0  0
 27 25  1  0  0  0  0
 27 17  1  0  0  0  0
M  END
>  <MODEL>
5

>  <REMARK>
 VINA RESULT:      -6.8      1.743      3.072
  Name = 
  1 active torsions:
  status: ('A' for Active; 'I' for Inactive)
    1  A    between atoms: C_5  and  N_23
                            x       y       z     vdW  Elec       q    Type
                         _______ _______ _______ _____ _____    ______ ____

>  <TORSDO>
F 1

$$$$
=
 OpenBabel11042421333D

 27 32  0  0  1  0  0  0  0  0999 V2000
  159.8850  212.5390  156.0280 C   0  0  0  0  0  0  0  0  0  0  0  0
  161.2220  210.3210  152.0910 C   0  0  1  0  0  0  0  0  0  0  0  0
  160.1940  210.9610  151.1640 C   0  0  0  0  0  2  0  0  0  0  0  0
  162.5320  210.2730  151.6700 C   0  0  0  0  0  2  0  0  0  0  0  0
  158.3080  211.1250  153.6280 C   0  0  0  0  0  1  0  0  0  0  0  0
  160.7570  211.5710  154.1280 N   0  0  1  0  0  0  0  0  0  0  0  0
  160.9520  210.2300  153.5850 C   0  0  0  0  0  2  0  0  0  0  0  0
  159.4220  212.1620  153.8330 C   0  0  1  0  0  0  0  0  0  0  0  0
  159.5190  213.0830  152.6160 C   0  0  0  0  0  2  0  0  0  0  0  0
  160.8770  211.5440  155.5860 C   0  0  0  0  0  2  0  0  0  0  0  0
  159.0820  212.9220  154.9790 O   0  0  0  0  0  0  0  0  0  0  0  0
  160.0970  212.4490  151.3700 C   0  0  0  0  0  0  0  0  0  0  0  0
  161.7110  209.0270  151.5470 N   0  0  0  0  0  0  0  0  0  0  0  0
  160.4600  213.2470  150.3720 C   0  0  0  0  0  2  0  0  0  0  0  0
  159.7650  213.0060  157.2600 C   0  0  0  0  0  2  0  0  0  0  0  0
  161.3810  206.7550  147.4510 C   0  0  0  0  0  3  0  0  0  0  0  0
  161.2660  205.7440  150.0690 C   0  0  0  0  0  0  0  0  0  0  0  0
  161.4450  207.1130  149.9090 C   0  0  0  0  0  0  0  0  0  0  0  0
  161.5270  207.6610  151.1930 C   0  0  0  0  0  0  0  0  0  0  0  0
  161.3830  206.4430  153.3740 N   0  0  0  0  0  0  0  0  0  0  0  0
  161.1130  204.4640  152.2530 C   0  0  0  0  0  3  0  0  0  0  0  0
  161.5240  207.7770  148.5660 C   0  0  0  0  0  2  0  0  0  0  0  0
  161.2070  205.0940  153.5070 C   0  0  0  0  0  3  0  0  0  0  0  0
  161.2090  205.4380  147.6780 C   0  0  0  0  0  3  0  0  0  0  0  0
  161.3910  206.5850  152.0420 C   0  0  0  0  0  0  0  0  0  0  0  0
  161.1470  204.8920  149.0540 C   0  0  0  0  0  3  0  0  0  0  0  0
  161.2380  205.4670  151.3810 N   0  0  0  0  0  0  0  0  0  0  0  0
  1 15  2  0  0  0  0
  2  3  1  6  0  0  0
  2  7  1  0  0  0  0
  3 12  1  0  0  0  0
  4  2  1  0  0  0  0
  6  7  1  1  0  0  0
  6 10  1  0  0  0  0
  8  5  1  6  0  0  0
  8  6  1  0  0  0  0
  8 11  1  0  0  0  0
  9  8  1  0  0  0  0
 10  1  1  0  0  0  0
 11  1  1  0  0  0  0
 12  9  1  0  0  0  0
 13  4  1  0  0  0  0
 13  2  1  0  0  0  0
 14 12  2  0  0  0  0
 16 24  2  0  0  0  0
 16 22  1  0  0  0  0
 17 27  1  0  0  0  0
 18 17  1  0  0  0  0
 18 19  2  0  0  0  0
 19 13  1  0  0  0  0
 19 25  1  0  0  0  0
 20 23  1  0  0  0  0
 21 23  2  0  0  0  0
 22 18  1  0  0  0  0
 24 26  1  0  0  0  0
 25 20  2  0  0  0  0
 26 17  2  0  0  0  0
 27 25  1  0  0  0  0
 27 21  1  0  0  0  0
M  END
>  <MODEL>
6

>  <REMARK>
 VINA RESULT:      -6.7      1.788      3.601
  Name = 
  1 active torsions:
  status: ('A' for Active; 'I' for Inactive)
    1  A    between atoms: C_5  and  N_23
                            x       y       z     vdW  Elec       q    Type
                         _______ _______ _______ _____ _____    ______ ____

>  <TORSDO>
F 1

$$$$
=
 OpenBabel11042421333D

 27 32  0  0  1  0  0  0  0  0999 V2000
  162.3340  205.8140  147.5340 C   0  0  0  0  0  0  0  0  0  0  0  0
  161.6680  208.8590  151.0680 C   0  0  1  0  0  0  0  0  0  0  0  0
  160.8670  207.9220  151.9660 C   0  0  0  0  0  2  0  0  0  0  0  0
  162.6950  209.5780  151.6350 C   0  0  0  0  0  2  0  0  0  0  0  0
  159.8230  206.5780  149.3660 C   0  0  0  0  0  1  0  0  0  0  0  0
  162.2550  207.3030  149.2900 N   0  0  1  0  0  0  0  0  0  0  0  0
  161.7080  208.6280  149.5650 C   0  0  0  0  0  2  0  0  0  0  0  0
  161.2990  206.1850  149.5240 C   0  0  1  0  0  0  0  0  0  0  0  0
  161.5400  205.5780  150.9080 C   0  0  0  0  0  2  0  0  0  0  0  0
  162.6560  207.2070  147.8860 C   0  0  0  0  0  2  0  0  0  0  0  0
  161.5870  205.2230  148.5260 O   0  0  0  0  0  0  0  0  0  0  0  0
  161.4940  206.5570  152.0600 C   0  0  0  0  0  0  0  0  0  0  0  0
  161.3970  210.2840  151.3910 N   0  0  0  0  0  0  0  0  0  0  0  0
  161.9560  206.1580  153.2400 C   0  0  0  0  0  2  0  0  0  0  0  0
  162.6990  205.2010  146.4200 C   0  0  0  0  0  2  0  0  0  0  0  0
  158.0950  211.7740  154.3790 C   0  0  0  0  0  3  0  0  0  0  0  0
  159.0230  212.9580  152.0070 C   0  0  2  0  0  3  0  0  0  0  0  0
  159.5930  211.7510  152.3970 C   0  0  0  0  0  0  0  0  0  0  0  0
  160.5500  211.4260  151.4300 C   0  0  0  0  0  0  0  0  0  0  0  0
  161.1450  212.7390  149.3840 N   0  0  0  0  0  0  0  0  0  0  0  0
  159.5890  214.3240  149.9470 C   0  0  0  0  0  3  0  0  0  0  0  0
  159.1870  211.0180  153.6410 C   0  0  0  0  0  3  0  0  0  0  0  0
  160.5700  213.9250  149.0210 C   0  0  0  0  0  3  0  0  0  0  0  0
  157.5850  212.9430  153.9420 C   0  0  0  0  0  3  0  0  0  0  0  0
  160.4930  212.4590  150.5200 C   0  0  0  0  0  0  0  0  0  0  0  0
  158.0670  213.5780  152.6930 C   0  0  0  0  0  3  0  0  0  0  0  0
  159.5990  213.3510  150.8610 N   0  0  0  0  0  0  0  0  0  0  0  0
  1 10  1  0  0  0  0
  1 11  1  0  0  0  0
  2  7  1  6  0  0  0
  2 13  1  0  0  0  0
  2  4  1  0  0  0  0
  2  3  1  0  0  0  0
  3 12  1  0  0  0  0
  6 10  1  6  0  0  0
  6  8  1  0  0  0  0
  6  7  1  0  0  0  0
  8  5  1  6  0  0  0
  8  9  1  0  0  0  0
  9 12  1  0  0  0  0
 11  8  1  0  0  0  0
 12 14  2  0  0  0  0
 13 19  1  0  0  0  0
 13  4  1  0  0  0  0
 15  1  2  0  0  0  0
 17 18  1  0  0  0  0
 17 26  1  6  0  0  0
 18 22  1  0  0  0  0
 19 18  2  0  0  0  0
 20 25  2  0  0  0  0
 21 27  1  0  0  0  0
 22 16  2  0  0  0  0
 23 20  1  0  0  0  0
 23 21  2  0  0  0  0
 24 16  1  0  0  0  0
 25 27  1  0  0  0  0
 25 19  1  0  0  0  0
 26 24  2  0  0  0  0
 27 17  1  0  0  0  0
M  END
>  <MODEL>
7

>  <REMARK>
 VINA RESULT:      -6.5      3.221      7.509
  Name = 
  1 active torsions:
  status: ('A' for Active; 'I' for Inactive)
    1  A    between atoms: C_5  and  N_23
                            x       y       z     vdW  Elec       q    Type
                         _______ _______ _______ _____ _____    ______ ____

>  <TORSDO>
F 1

$$$$
=
 OpenBabel11042421333D

 27 32  0  0  1  0  0  0  0  0999 V2000
  162.3290  205.6680  147.4720 C   0  0  0  0  0  0  0  0  0  0  0  0
  161.6960  208.6800  151.0410 C   0  0  1  0  0  0  0  0  0  0  0  0
  160.8050  207.7750  151.8850 C   0  0  0  0  0  2  0  0  0  0  0  0
  162.7390  209.3260  151.6650 C   0  0  0  0  0  2  0  0  0  0  0  0
  159.7940  206.5450  149.2170 C   0  0  0  0  0  1  0  0  0  0  0  0
  162.2650  207.1260  149.2550 N   0  0  1  0  0  0  0  0  0  0  0  0
  161.7850  208.4760  149.5360 C   0  0  0  0  0  2  0  0  0  0  0  0
  161.2360  206.0630  149.4270 C   0  0  1  0  0  0  0  0  0  0  0  0
  161.3830  205.4160  150.8050 C   0  0  0  0  0  2  0  0  0  0  0  0
  162.7170  207.0330  147.8660 C   0  0  0  0  0  2  0  0  0  0  0  0
  161.5090  205.1050  148.4200 O   0  0  0  0  0  0  0  0  0  0  0  0
  161.3460  206.3740  151.9750 C   0  0  0  0  0  0  0  0  0  0  0  0
  161.4950  210.1120  151.3840 N   0  0  0  0  0  0  0  0  0  0  0  0
  161.7350  205.9260  153.1640 C   0  0  0  0  0  2  0  0  0  0  0  0
  162.7040  205.0570  146.3600 C   0  0  0  0  0  2  0  0  0  0  0  0
  160.6920  213.5420  148.2790 C   0  0  0  0  0  3  0  0  0  0  0  0
  159.7070  213.2300  150.8910 C   0  0  0  0  0  0  0  0  0  0  0  0
  160.5630  212.2510  150.3980 C   0  0  0  0  0  0  0  0  0  0  0  0
  160.7150  211.3010  151.4130 C   0  0  0  0  0  0  0  0  0  0  0  0
  159.6650  211.3260  153.6840 N   0  0  0  0  0  0  0  0  0  0  0  0
  158.6200  213.3020  153.1810 C   0  0  0  0  0  3  0  0  0  0  0  0
  161.1570  212.3010  149.0220 C   0  0  0  0  0  2  0  0  0  0  0  0
  158.8250  212.3010  154.1480 C   0  0  0  0  0  3  0  0  0  0  0  0
  159.8580  214.4530  148.8190 C   0  0  0  0  0  3  0  0  0  0  0  0
  159.9410  211.7710  152.4510 C   0  0  0  0  0  0  0  0  0  0  0  0
  159.3320  214.3000  150.1950 C   0  0  0  0  0  3  0  0  0  0  0  0
  159.3540  212.8980  152.1410 N   0  0  0  0  0  0  0  0  0  0  0  0
  1 10  1  0  0  0  0
  1 11  1  0  0  0  0
  2  7  1  6  0  0  0
  2 13  1  0  0  0  0
  2  4  1  0  0  0  0
  2  3  1  0  0  0  0
  3 12  1  0  0  0  0
  6 10  1  6  0  0  0
  6  8  1  0  0  0  0
  6  7  1  0  0  0  0
  8  5  1  6  0  0  0
  8  9  1  0  0  0  0
  9 12  1  0  0  0  0
 11  8  1  0  0  0  0
 12 14  2  0  0  0  0
 13 19  1  0  0  0  0
 13  4  1  0  0  0  0
 15  1  2  0  0  0  0
 16 24  2  0  0  0  0
 16 22  1  0  0  0  0
 17 27  1  0  0  0  0
 18 17  1  0  0  0  0
 18 19  2  0  0  0  0
 19 25  1  0  0  0  0
 20 23  1  0  0  0  0
 21 23  2  0  0  0  0
 22 18  1  0  0  0  0
 24 26  1  0  0  0  0
 25 20  2  0  0  0  0
 26 17  2  0  0  0  0
 27 25  1  0  0  0  0
 27 21  1  0  0  0  0
M  END
>  <MODEL>
8

>  <REMARK>
 VINA RESULT:      -6.2      3.314      7.793
  Name = 
  1 active torsions:
  status: ('A' for Active; 'I' for Inactive)
    1  A    between atoms: C_5  and  N_23
                            x       y       z     vdW  Elec       q    Type
                         _______ _______ _______ _____ _____    ______ ____

>  <TORSDO>
F 1

$$$$
=
 OpenBabel11042421333D

 27 32  0  0  1  0  0  0  0  0999 V2000
  162.0970  204.8790  146.3570 C   0  0  0  0  0  0  0  0  0  0  0  0
  161.9050  207.3610  150.3580 C   0  0  1  0  0  0  0  0  0  0  0  0
  160.8310  206.5220  151.0410 C   0  0  0  0  0  2  0  0  0  0  0  0
  163.0270  207.6930  151.0840 C   0  0  0  0  0  2  0  0  0  0  0  0
  159.7070  205.9370  148.2050 C   0  0  0  0  0  1  0  0  0  0  0  0
  162.2390  206.0260  148.3500 N   0  0  1  0  0  0  0  0  0  0  0  0
  162.0090  207.3820  148.8410 C   0  0  0  0  0  2  0  0  0  0  0  0
  161.0250  205.1640  148.3430 C   0  0  1  0  0  0  0  0  0  0  0  0
  160.9990  204.2940  149.6010 C   0  0  0  0  0  2  0  0  0  0  0  0
  162.7170  206.0670  146.9680 C   0  0  0  0  0  2  0  0  0  0  0  0
  161.1520  204.3400  147.1980 O   0  0  0  0  0  0  0  0  0  0  0  0
  161.0990  205.0470  150.9090 C   0  0  0  0  0  0  0  0  0  0  0  0
  161.9620  208.7340  150.9250 N   0  0  0  0  0  0  0  0  0  0  0  0
  161.3540  204.3530  152.0140 C   0  0  0  0  0  2  0  0  0  0  0  0
  162.3920  204.3880  145.1650 C   0  0  0  0  0  2  0  0  0  0  0  0
  161.7040  212.6200  148.3020 C   0  0  0  0  0  3  0  0  0  0  0  0
  160.7650  212.1590  150.9080 C   0  0  0  0  0  0  0  0  0  0  0  0
  161.4090  211.1140  150.2550 C   0  0  0  0  0  0  0  0  0  0  0  0
  161.4160  210.0310  151.1390 C   0  0  0  0  0  0  0  0  0  0  0  0
  160.4630  209.9530  153.4520 N   0  0  0  0  0  0  0  0  0  0  0  0
  159.7850  212.1320  153.2470 C   0  0  0  0  0  3  0  0  0  0  0  0
  161.9560  211.2320  148.8630 C   0  0  0  0  0  2  0  0  0  0  0  0
  159.8330  210.9950  154.0740 C   0  0  0  0  0  3  0  0  0  0  0  0
  161.0710  213.5900  148.9920 C   0  0  0  0  0  3  0  0  0  0  0  0
  160.7760  210.4950  152.2680 C   0  0  0  0  0  0  0  0  0  0  0  0
  160.5700  213.3590  150.3670 C   0  0  0  0  0  3  0  0  0  0  0  0
  160.3970  211.7390  152.1280 N   0  0  0  0  0  0  0  0  0  0  0  0
  1 10  1  0  0  0  0
  1 11  1  0  0  0  0
  2  7  1  6  0  0  0
  2 13  1  0  0  0  0
  2  3  1  0  0  0  0
  2  4  1  0  0  0  0
  6 10  1  6  0  0  0
  6  7  1  0  0  0  0
  8  5  1  6  0  0  0
  8  6  1  0  0  0  0
  8  9  1  0  0  0  0
  9 12  1  0  0  0  0
 11  8  1  0  0  0  0
 12  3  1  0  0  0  0
 12 14  2  0  0  0  0
 13  4  1  0  0  0  0
 13 19  1  0  0  0  0
 15  1  2  0  0  0  0
 16 22  1  0  0  0  0
 16 24  2  0  0  0  0
 17 27  1  0  0  0  0
 18 17  1  0  0  0  0
 18 19  2  0  0  0  0
 19 25  1  0  0  0  0
 20 23  1  0  0  0  0
 21 23  2  0  0  0  0
 22 18  1  0  0  0  0
 24 26  1  0  0  0  0
 25 20  2  0  0  0  0
 26 17  2  0  0  0  0
 27 25  1  0  0  0  0
 27 21  1  0  0  0  0
M  END
>  <MODEL>
9

>  <REMARK>
 VINA RESULT:      -5.8      3.372      8.112
  Name = 
  1 active torsions:
  status: ('A' for Active; 'I' for Inactive)
    1  A    between atoms: C_5  and  N_23
                            x       y       z     vdW  Elec       q    Type
                         _______ _______ _______ _____ _____    ______ ____

>  <TORSDO>
F 1

$$$$
