=
 OpenBabel11052410493D

 28 32  0  0  1  0  0  0  0  0999 V2000
  160.9010  205.1250  149.9970 C   0  0  0  0  0  0  0  0  0  0  0  0
  160.8620  207.0860  147.9870 C   0  0  0  0  0  3  0  0  0  0  0  0
  161.5090  210.4640  154.8950 N   0  0  0  0  0  0  0  0  0  0  0  0
  161.5100  208.2090  155.6940 C   0  0  0  0  0  3  0  0  0  0  0  0
  160.9040  207.4610  149.3280 C   0  0  0  0  0  3  0  0  0  0  0  0
  160.8640  205.7330  147.6310 C   0  0  0  0  0  0  0  0  0  0  0  0
  161.1260  205.9590  152.7820 C   0  0  0  0  0  0  0  0  0  0  0  0
  161.3590  210.0450  153.6090 C   0  0  0  0  0  3  0  0  0  0  0  0
  160.9320  206.4930  150.3390 C   0  0  0  0  0  0  0  0  0  0  0  0
  161.3580  207.7570  154.3830 C   0  0  0  0  0  0  0  0  0  0  0  0
  161.1330  208.2440  152.0500 N   0  0  0  0  0  0  0  0  0  0  0  0
  161.2800  208.6800  153.3280 C   0  0  0  0  0  0  0  0  0  0  0  0
  160.9140  204.0660  151.0790 C   0  0  2  0  0  0  0  0  0  0  0  0
  161.5850  209.5850  155.9320 C   0  0  0  0  0  0  0  0  0  0  0  0
  160.1630  202.7610  150.8840 C   0  0  0  0  0  1  0  0  0  0  0  0
  161.2770  206.3950  154.1020 C   0  0  0  0  0  3  0  0  0  0  0  0
  160.9960  204.4810  152.5430 C   0  0  1  0  0  3  0  0  0  0  0  0
  161.7410  210.0670  157.2610 N   0  0  0  0  0  1  0  0  0  0  0  0
  161.0510  206.9150  151.7470 C   0  0  0  0  0  0  0  0  0  0  0  0
  162.2250  203.9340  151.8220 C   0  0  0  0  0  2  0  0  0  0  0  0
  160.9260  203.4470  148.2740 F   0  0  0  0  0  0  0  0  0  0  0  0
  160.8950  204.7560  148.6350 C   0  0  0  0  0  0  0  0  0  0  0  0
  160.8400  205.3250  146.2540 N   0  0  0  0  0  2  0  0  0  0  0  0
  162.0810  205.4290  144.1490 C   0  0  0  0  0  1  0  0  0  0  0  0
  161.9500  204.7430  145.4990 C   0  0  0  0  0  0  0  0  0  0  0  0
  163.2460  204.8870  146.2810 C   0  0  0  0  0  1  0  0  0  0  0  0
  161.6570  203.2650  145.2830 C   0  0  0  0  0  2  0  0  0  0  0  0
  160.3630  203.0700  144.8290 F   0  0  0  0  0  0  0  0  0  0  0  0
  1  9  1  0  0  0  0
  1 13  1  0  0  0  0
  2  5  1  0  0  0  0
  3 14  1  0  0  0  0
  4 14  2  0  0  0  0
  5  9  2  0  0  0  0
  6  2  2  0  0  0  0
  6 22  1  0  0  0  0
  7 16  1  0  0  0  0
  8  3  2  0  0  0  0
  9 19  1  0  0  0  0
 10  4  1  0  0  0  0
 11 12  2  0  0  0  0
 12  8  1  0  0  0  0
 12 10  1  0  0  0  0
 13 15  1  6  0  0  0
 13 20  1  0  0  0  0
 13 17  1  0  0  0  0
 14 18  1  0  0  0  0
 16 10  2  0  0  0  0
 17 20  1  6  0  0  0
 17  7  1  0  0  0  0
 19 11  1  0  0  0  0
 19  7  2  0  0  0  0
 21 22  1  0  0  0  0
 22  1  2  0  0  0  0
 23  6  1  0  0  0  0
 24 25  1  0  0  0  0
 25 23  1  0  0  0  0
 25 26  1  0  0  0  0
 27 25  1  0  0  0  0
 28 27  1  0  0  0  0
M  END
>  <MODEL>
1

>  <REMARK>
 VINA RESULT:      -9.5      0.000      0.000
  Name = 
  3 active torsions:
  status: ('A' for Active; 'I' for Inactive)
    1  A    between atoms: N_3  and  C_7
    2  A    between atoms: N_3  and  C_11
    3  A    between atoms: C_11  and  C_21
                            x       y       z     vdW  Elec       q    Type
                         _______ _______ _______ _____ _____    ______ ____

>  <TORSDO>
F 3

$$$$
=
 OpenBabel11052410493D

 28 32  0  0  1  0  0  0  0  0999 V2000
  161.5540  207.9720  150.6550 C   0  0  0  0  0  0  0  0  0  0  0  0
  160.9830  207.2460  153.3070 C   0  0  0  0  0  3  0  0  0  0  0  0
  160.6790  201.0000  148.7860 N   0  0  0  0  0  0  0  0  0  0  0  0
  161.2950  202.5480  147.0690 C   0  0  0  0  0  3  0  0  0  0  0  0
  160.9200  206.2930  152.2930 C   0  0  0  0  0  3  0  0  0  0  0  0
  161.3540  208.5630  153.0170 C   0  0  0  0  0  0  0  0  0  0  0  0
  161.5410  205.9120  148.5920 C   0  0  0  0  0  0  0  0  0  0  0  0
  160.6500  201.9910  149.7170 C   0  0  0  0  0  3  0  0  0  0  0  0
  161.2110  206.6400  150.9690 C   0  0  0  0  0  0  0  0  0  0  0  0
  161.2720  203.5800  148.0070 C   0  0  0  0  0  0  0  0  0  0  0  0
  160.9250  204.3050  150.2630 N   0  0  0  0  0  0  0  0  0  0  0  0
  160.9460  203.3030  149.3460 C   0  0  0  0  0  0  0  0  0  0  0  0
  161.8540  208.3670  149.2250 C   0  0  2  0  0  0  0  0  0  0  0  0
  160.9910  201.2480  147.4840 C   0  0  0  0  0  0  0  0  0  0  0  0
  161.4890  209.7510  148.7180 C   0  0  0  0  0  1  0  0  0  0  0  0
  161.5660  204.8900  147.6370 C   0  0  0  0  0  3  0  0  0  0  0  0
  161.8190  207.3130  148.1250 C   0  0  1  0  0  3  0  0  0  0  0  0
  161.0090  200.1820  146.5430 N   0  0  0  0  0  1  0  0  0  0  0  0
  161.2090  205.5970  149.9260 C   0  0  0  0  0  0  0  0  0  0  0  0
  163.1520  207.8170  148.6740 C   0  0  0  0  0  2  0  0  0  0  0  0
  162.0370  210.1960  151.4320 F   0  0  0  0  0  0  0  0  0  0  0  0
  161.6500  208.9220  151.6950 C   0  0  0  0  0  0  0  0  0  0  0  0
  161.4430  209.5570  154.0500 N   0  0  0  0  0  2  0  0  0  0  0  0
  159.4210  210.8310  153.5320 C   0  0  0  0  0  1  0  0  0  0  0  0
  160.3320  210.3100  154.6320 C   0  0  0  0  0  0  0  0  0  0  0  0
  159.5420  209.4240  155.5820 C   0  0  0  0  0  1  0  0  0  0  0  0
  160.9060  211.4880  155.4070 C   0  0  0  0  0  2  0  0  0  0  0  0
  162.2360  211.2750  155.7310 F   0  0  0  0  0  0  0  0  0  0  0  0
  1  9  2  0  0  0  0
  1 22  1  0  0  0  0
  3  8  1  0  0  0  0
  4 14  1  0  0  0  0
  4 10  2  0  0  0  0
  5  2  2  0  0  0  0
  6  2  1  0  0  0  0
  6 23  1  0  0  0  0
  7 19  1  0  0  0  0
  9  5  1  0  0  0  0
 10 12  1  0  0  0  0
 12  8  2  0  0  0  0
 12 11  1  0  0  0  0
 13 15  1  6  0  0  0
 13  1  1  0  0  0  0
 14  3  2  0  0  0  0
 16 10  1  0  0  0  0
 16  7  2  0  0  0  0
 17  7  1  0  0  0  0
 17 20  1  1  0  0  0
 17 13  1  0  0  0  0
 18 14  1  0  0  0  0
 19 11  2  0  0  0  0
 19  9  1  0  0  0  0
 20 13  1  0  0  0  0
 21 22  1  0  0  0  0
 22  6  2  0  0  0  0
 23 25  1  0  0  0  0
 24 25  1  0  0  0  0
 25 27  1  0  0  0  0
 25 26  1  0  0  0  0
 27 28  1  0  0  0  0
M  END
>  <MODEL>
2

>  <REMARK>
 VINA RESULT:      -8.9      3.305      8.368
  Name = 
  3 active torsions:
  status: ('A' for Active; 'I' for Inactive)
    1  A    between atoms: N_3  and  C_7
    2  A    between atoms: N_3  and  C_11
    3  A    between atoms: C_11  and  C_21
                            x       y       z     vdW  Elec       q    Type
                         _______ _______ _______ _____ _____    ______ ____

>  <TORSDO>
F 3

$$$$
=
 OpenBabel11052410493D

 28 32  0  0  1  0  0  0  0  0999 V2000
  160.7660  209.2110  154.5270 C   0  0  0  0  0  0  0  0  0  0  0  0
  160.2920  211.5120  152.9890 C   0  0  0  0  0  3  0  0  0  0  0  0
  160.9620  205.3830  148.3470 N   0  0  0  0  0  0  0  0  0  0  0  0
  161.2320  204.1960  150.4070 C   0  0  0  0  0  3  0  0  0  0  0  0
  160.5170  210.2880  152.3630 C   0  0  0  0  0  3  0  0  0  0  0  0
  160.2770  211.6000  154.3850 C   0  0  0  0  0  0  0  0  0  0  0  0
  161.0950  206.6490  153.1730 C   0  0  0  0  0  0  0  0  0  0  0  0
  160.8580  206.5700  149.0050 C   0  0  0  0  0  3  0  0  0  0  0  0
  160.7460  209.1330  153.1180 C   0  0  0  0  0  0  0  0  0  0  0  0
  161.1250  205.4000  151.1020 C   0  0  0  0  0  0  0  0  0  0  0  0
  160.8310  207.7760  151.0720 N   0  0  0  0  0  0  0  0  0  0  0  0
  160.9370  206.6020  150.3980 C   0  0  0  0  0  0  0  0  0  0  0  0
  161.0300  207.9730  155.3570 C   0  0  2  0  0  0  0  0  0  0  0  0
  161.1460  204.2090  149.0110 C   0  0  0  0  0  0  0  0  0  0  0  0
  161.7810  208.0780  156.6730 C   0  0  0  0  0  1  0  0  0  0  0  0
  161.2070  205.4330  152.4920 C   0  0  0  0  0  3  0  0  0  0  0  0
  161.2390  206.6300  154.6690 C   0  0  1  0  0  3  0  0  0  0  0  0
  161.2520  202.9920  148.2830 N   0  0  0  0  0  1  0  0  0  0  0  0
  160.9070  207.8360  152.4330 C   0  0  0  0  0  0  0  0  0  0  0  0
  159.9110  206.9540  155.3490 C   0  0  0  0  0  2  0  0  0  0  0  0
  160.4550  210.5430  156.5050 F   0  0  0  0  0  0  0  0  0  0  0  0
  160.5020  210.4490  155.1510 C   0  0  0  0  0  0  0  0  0  0  0  0
  160.0290  212.8490  155.0500 N   0  0  0  0  0  2  0  0  0  0  0  0
  157.6460  212.3780  155.3300 C   0  0  0  0  0  1  0  0  0  0  0  0
  158.7220  213.4520  155.3100 C   0  0  0  0  0  0  0  0  0  0  0  0
  158.7420  214.1890  156.6390 C   0  0  0  0  0  1  0  0  0  0  0  0
  158.4210  214.4410  154.1940 C   0  0  0  0  0  2  0  0  0  0  0  0
  157.8050  213.8160  153.1200 F   0  0  0  0  0  0  0  0  0  0  0  0
  1 22  1  0  0  0  0
  1 13  1  0  0  0  0
  2  6  1  0  0  0  0
  3  8  2  0  0  0  0
  3 14  1  0  0  0  0
  4 10  1  0  0  0  0
  5  2  2  0  0  0  0
  5  9  1  0  0  0  0
  6 23  1  0  0  0  0
  6 22  2  0  0  0  0
  7 17  1  0  0  0  0
  8 12  1  0  0  0  0
  9  1  2  0  0  0  0
 10 16  2  0  0  0  0
 11 19  1  0  0  0  0
 12 11  2  0  0  0  0
 12 10  1  0  0  0  0
 13 15  1  1  0  0  0
 14  4  2  0  0  0  0
 16  7  1  0  0  0  0
 17 20  1  1  0  0  0
 17 13  1  0  0  0  0
 18 14  1  0  0  0  0
 19  9  1  0  0  0  0
 19  7  2  0  0  0  0
 20 13  1  0  0  0  0
 22 21  1  0  0  0  0
 23 25  1  0  0  0  0
 25 24  1  0  0  0  0
 25 26  1  0  0  0  0
 27 25  1  0  0  0  0
 28 27  1  0  0  0  0
M  END
>  <MODEL>
3

>  <REMARK>
 VINA RESULT:      -8.7      3.907      8.541
  Name = 
  3 active torsions:
  status: ('A' for Active; 'I' for Inactive)
    1  A    between atoms: N_3  and  C_7
    2  A    between atoms: N_3  and  C_11
    3  A    between atoms: C_11  and  C_21
                            x       y       z     vdW  Elec       q    Type
                         _______ _______ _______ _____ _____    ______ ____

>  <TORSDO>
F 3

$$$$
=
 OpenBabel11052410493D

 28 32  0  0  1  0  0  0  0  0999 V2000
  161.4780  206.7630  151.3720 C   0  0  0  0  0  0  0  0  0  0  0  0
  161.7150  209.0660  149.7800 C   0  0  0  0  0  3  0  0  0  0  0  0
  161.0020  202.8510  145.2610 N   0  0  0  0  0  0  0  0  0  0  0  0
  160.8330  201.6910  147.3470 C   0  0  0  0  0  3  0  0  0  0  0  0
  161.6430  207.8090  149.1840 C   0  0  0  0  0  3  0  0  0  0  0  0
  161.6460  209.1920  151.1720 C   0  0  0  0  0  0  0  0  0  0  0  0
  161.1950  204.1690  150.0710 C   0  0  0  0  0  0  0  0  0  0  0  0
  161.1770  204.0410  145.8970 C   0  0  0  0  0  3  0  0  0  0  0  0
  161.5170  206.6550  149.9650 C   0  0  0  0  0  0  0  0  0  0  0  0
  161.0090  202.9000  148.0200 C   0  0  0  0  0  0  0  0  0  0  0  0
  161.3550  205.2680  147.9440 N   0  0  0  0  0  0  0  0  0  0  0  0
  161.1850  204.0890  147.2920 C   0  0  0  0  0  0  0  0  0  0  0  0
  161.3590  205.5230  152.2310 C   0  0  2  0  0  0  0  0  0  0  0  0
  160.8320  201.6880  145.9480 C   0  0  0  0  0  0  0  0  0  0  0  0
  162.0370  205.4630  153.5890 C   0  0  0  0  0  1  0  0  0  0  0  0
  161.0190  202.9490  149.4120 C   0  0  0  0  0  3  0  0  0  0  0  0
  161.2450  204.1540  151.5730 C   0  0  1  0  0  3  0  0  0  0  0  0
  160.6530  200.4670  145.2430 N   0  0  0  0  0  1  0  0  0  0  0  0
  161.3680  205.3430  149.3070 C   0  0  0  0  0  0  0  0  0  0  0  0
  160.0140  204.8340  152.1670 C   0  0  0  0  0  2  0  0  0  0  0  0
  161.4200  208.1850  153.3110 F   0  0  0  0  0  0  0  0  0  0  0  0
  161.5160  208.0440  151.9640 C   0  0  0  0  0  0  0  0  0  0  0  0
  161.6990  210.4810  151.8060 N   0  0  0  0  0  2  0  0  0  0  0  0
  160.3300  212.5060  151.7400 C   0  0  0  0  0  1  0  0  0  0  0  0
  160.5870  211.1830  152.4440 C   0  0  0  0  0  0  0  0  0  0  0  0
  159.3330  210.3240  152.4030 C   0  0  0  0  0  1  0  0  0  0  0  0
  160.9610  211.4520  153.8950 C   0  0  0  0  0  2  0  0  0  0  0  0
  162.0820  210.7280  154.2670 F   0  0  0  0  0  0  0  0  0  0  0  0
  1 22  1  0  0  0  0
  1 13  1  0  0  0  0
  2  6  1  0  0  0  0
  3  8  2  0  0  0  0
  3 14  1  0  0  0  0
  4 10  1  0  0  0  0
  5  2  2  0  0  0  0
  5  9  1  0  0  0  0
  6 23  1  0  0  0  0
  6 22  2  0  0  0  0
  7 17  1  0  0  0  0
  8 12  1  0  0  0  0
  9  1  2  0  0  0  0
 10 16  2  0  0  0  0
 11 19  1  0  0  0  0
 12 11  2  0  0  0  0
 12 10  1  0  0  0  0
 13 15  1  1  0  0  0
 14  4  2  0  0  0  0
 16  7  1  0  0  0  0
 17 20  1  1  0  0  0
 17 13  1  0  0  0  0
 18 14  1  0  0  0  0
 19  9  1  0  0  0  0
 19  7  2  0  0  0  0
 20 13  1  0  0  0  0
 22 21  1  0  0  0  0
 23 25  1  0  0  0  0
 24 25  1  0  0  0  0
 25 27  1  0  0  0  0
 26 25  1  0  0  0  0
 27 28  1  0  0  0  0
M  END
>  <MODEL>
4

>  <REMARK>
 VINA RESULT:      -7.4      3.024      7.868
  Name = 
  3 active torsions:
  status: ('A' for Active; 'I' for Inactive)
    1  A    between atoms: N_3  and  C_7
    2  A    between atoms: N_3  and  C_11
    3  A    between atoms: C_11  and  C_21
                            x       y       z     vdW  Elec       q    Type
                         _______ _______ _______ _____ _____    ______ ____

>  <TORSDO>
F 3

$$$$
=
 OpenBabel11052410493D

 28 32  0  0  1  0  0  0  0  0999 V2000
  161.5830  206.2250  149.9490 C   0  0  0  0  0  0  0  0  0  0  0  0
  160.7420  203.7020  150.8530 C   0  0  0  0  0  3  0  0  0  0  0  0
  160.4180  208.7780  156.6570 N   0  0  0  0  0  0  0  0  0  0  0  0
  161.1640  210.3210  154.9880 C   0  0  0  0  0  3  0  0  0  0  0  0
  160.8340  204.7690  151.7450 C   0  0  0  0  0  3  0  0  0  0  0  0
  161.0430  203.8850  149.4990 C   0  0  0  0  0  0  0  0  0  0  0  0
  161.6290  208.4560  151.8260 C   0  0  0  0  0  0  0  0  0  0  0  0
  160.4500  207.7470  155.7690 C   0  0  0  0  0  3  0  0  0  0  0  0
  161.2440  206.0330  151.3050 C   0  0  0  0  0  0  0  0  0  0  0  0
  161.2030  209.2800  154.0600 C   0  0  0  0  0  0  0  0  0  0  0  0
  160.8790  206.9640  153.5490 N   0  0  0  0  0  0  0  0  0  0  0  0
  160.8440  207.9790  154.4500 C   0  0  0  0  0  0  0  0  0  0  0  0
  162.0440  207.5820  149.4620 C   0  0  2  0  0  0  0  0  0  0  0  0
  160.7630  210.0450  156.2990 C   0  0  0  0  0  0  0  0  0  0  0  0
  163.0730  207.6880  148.3500 C   0  0  0  0  0  1  0  0  0  0  0  0
  161.5980  209.5100  152.7440 C   0  0  0  0  0  3  0  0  0  0  0  0
  162.1090  208.7540  150.4340 C   0  0  1  0  0  3  0  0  0  0  0  0
  160.7160  211.0920  157.2610 N   0  0  0  0  0  1  0  0  0  0  0  0
  161.2620  207.1620  152.2540 C   0  0  0  0  0  0  0  0  0  0  0  0
  160.9670  208.6430  149.4270 C   0  0  0  0  0  2  0  0  0  0  0  0
  161.7130  205.3170  147.7250 F   0  0  0  0  0  0  0  0  0  0  0  0
  161.4520  205.1470  149.0470 C   0  0  0  0  0  0  0  0  0  0  0  0
  160.9370  202.8030  148.5600 N   0  0  0  0  0  2  0  0  0  0  0  0
  161.2050  201.0190  150.2100 C   0  0  0  0  0  1  0  0  0  0  0  0
  160.6080  201.4120  148.8690 C   0  0  0  0  0  0  0  0  0  0  0  0
  159.0990  201.2270  148.9000 C   0  0  0  0  0  1  0  0  0  0  0  0
  161.1980  200.5280  147.7790 C   0  0  0  0  0  2  0  0  0  0  0  0
  160.9920  201.0740  146.5220 F   0  0  0  0  0  0  0  0  0  0  0  0
  1  9  1  0  0  0  0
  2  5  1  0  0  0  0
  4 14  2  0  0  0  0
  6  2  2  0  0  0  0
  7 19  2  0  0  0  0
  7 16  1  0  0  0  0
  8  3  2  0  0  0  0
  9  5  2  0  0  0  0
  9 19  1  0  0  0  0
 10 12  1  0  0  0  0
 10  4  1  0  0  0  0
 11 12  2  0  0  0  0
 12  8  1  0  0  0  0
 13 15  1  6  0  0  0
 13  1  1  0  0  0  0
 13 17  1  0  0  0  0
 14  3  1  0  0  0  0
 14 18  1  0  0  0  0
 16 10  2  0  0  0  0
 17 20  1  6  0  0  0
 17  7  1  0  0  0  0
 19 11  1  0  0  0  0
 20 13  1  0  0  0  0
 21 22  1  0  0  0  0
 22  6  1  0  0  0  0
 22  1  2  0  0  0  0
 23 25  1  0  0  0  0
 23  6  1  0  0  0  0
 25 26  1  0  0  0  0
 25 24  1  0  0  0  0
 27 25  1  0  0  0  0
 28 27  1  0  0  0  0
M  END
>  <MODEL>
5

>  <REMARK>
 VINA RESULT:      -7.4      2.088      3.595
  Name = 
  3 active torsions:
  status: ('A' for Active; 'I' for Inactive)
    1  A    between atoms: N_3  and  C_7
    2  A    between atoms: N_3  and  C_11
    3  A    between atoms: C_11  and  C_21
                            x       y       z     vdW  Elec       q    Type
                         _______ _______ _______ _____ _____    ______ ____

>  <TORSDO>
F 3

$$$$
=
 OpenBabel11052410493D

 28 32  0  0  1  0  0  0  0  0999 V2000
  161.7500  209.1940  150.9410 C   0  0  0  0  0  0  0  0  0  0  0  0
  162.0320  209.9740  148.2580 C   0  0  0  0  0  3  0  0  0  0  0  0
  161.0260  202.3320  148.6450 N   0  0  0  0  0  0  0  0  0  0  0  0
  160.8600  202.7490  150.9960 C   0  0  0  0  0  3  0  0  0  0  0  0
  161.9070  208.6250  148.5830 C   0  0  0  0  0  3  0  0  0  0  0  0
  161.9940  210.9500  149.2600 C   0  0  0  0  0  0  0  0  0  0  0  0
  161.3560  206.3720  151.5590 C   0  0  0  0  0  0  0  0  0  0  0  0
  161.2530  203.6500  148.3930 C   0  0  0  0  0  3  0  0  0  0  0  0
  161.7580  208.2250  149.9160 C   0  0  0  0  0  0  0  0  0  0  0  0
  161.0890  204.1040  150.7610 C   0  0  0  0  0  0  0  0  0  0  0  0
  161.5110  205.8830  149.2150 N   0  0  0  0  0  0  0  0  0  0  0  0
  161.2900  204.5640  149.4480 C   0  0  0  0  0  0  0  0  0  0  0  0
  161.6060  208.7750  152.3880 C   0  0  2  0  0  0  0  0  0  0  0  0
  160.8320  201.8670  149.9100 C   0  0  0  0  0  0  0  0  0  0  0  0
  162.3080  209.5560  153.4860 C   0  0  0  0  0  1  0  0  0  0  0  0
  161.1270  205.0160  151.8120 C   0  0  0  0  0  3  0  0  0  0  0  0
  161.4340  207.3020  152.7370 C   0  0  1  0  0  3  0  0  0  0  0  0
  160.5990  200.4820  150.1280 N   0  0  0  0  0  1  0  0  0  0  0  0
  161.5530  206.7970  150.2280 C   0  0  0  0  0  0  0  0  0  0  0  0
  160.2380  208.2500  152.7640 C   0  0  0  0  0  2  0  0  0  0  0  0
  161.7760  211.5190  151.5560 F   0  0  0  0  0  0  0  0  0  0  0  0
  161.8410  210.5600  150.5970 C   0  0  0  0  0  0  0  0  0  0  0  0
  162.1020  212.3470  148.9430 N   0  0  0  0  0  2  0  0  0  0  0  0
  160.3230  212.4650  147.2690 C   0  0  0  0  0  1  0  0  0  0  0  0
  161.0500  213.1970  148.3860 C   0  0  0  0  0  0  0  0  0  0  0  0
  160.0640  213.5900  149.4750 C   0  0  0  0  0  1  0  0  0  0  0  0
  161.6990  214.4530  147.8220 C   0  0  0  0  0  2  0  0  0  0  0  0
  163.0790  214.4050  147.9460 F   0  0  0  0  0  0  0  0  0  0  0  0
  1 13  1  0  0  0  0
  2  5  2  0  0  0  0
  2  6  1  0  0  0  0
  3 14  1  0  0  0  0
  5  9  1  0  0  0  0
  6 22  2  0  0  0  0
  7 16  1  0  0  0  0
  7 17  1  0  0  0  0
  8  3  2  0  0  0  0
  8 12  1  0  0  0  0
  9 19  1  0  0  0  0
  9  1  2  0  0  0  0
 10  4  1  0  0  0  0
 10 16  2  0  0  0  0
 11 12  2  0  0  0  0
 11 19  1  0  0  0  0
 12 10  1  0  0  0  0
 13 17  1  0  0  0  0
 13 20  1  0  0  0  0
 13 15  1  1  0  0  0
 14 18  1  0  0  0  0
 14  4  2  0  0  0  0
 17 20  1  6  0  0  0
 19  7  2  0  0  0  0
 22  1  1  0  0  0  0
 22 21  1  0  0  0  0
 23  6  1  0  0  0  0
 24 25  1  0  0  0  0
 25 23  1  0  0  0  0
 25 26  1  0  0  0  0
 27 28  1  0  0  0  0
 27 25  1  0  0  0  0
M  END
>  <MODEL>
6

>  <REMARK>
 VINA RESULT:      -7.2      4.194      7.119
  Name = 
  3 active torsions:
  status: ('A' for Active; 'I' for Inactive)
    1  A    between atoms: N_3  and  C_7
    2  A    between atoms: N_3  and  C_11
    3  A    between atoms: C_11  and  C_21
                            x       y       z     vdW  Elec       q    Type
                         _______ _______ _______ _____ _____    ______ ____

>  <TORSDO>
F 3

$$$$
=
 OpenBabel11052410493D

 28 32  0  0  1  0  0  0  0  0999 V2000
  161.7380  207.1510  150.2520 C   0  0  0  0  0  0  0  0  0  0  0  0
  161.9530  209.0030  148.1510 C   0  0  0  0  0  3  0  0  0  0  0  0
  160.9950  201.9090  145.2670 N   0  0  0  0  0  0  0  0  0  0  0  0
  160.8800  201.2830  147.5740 C   0  0  0  0  0  3  0  0  0  0  0  0
  161.8430  207.6420  147.8740 C   0  0  0  0  0  3  0  0  0  0  0  0
  161.9340  209.4590  149.4730 C   0  0  0  0  0  0  0  0  0  0  0  0
  161.3720  204.3290  149.6160 C   0  0  0  0  0  0  0  0  0  0  0  0
  161.2090  203.2120  145.5960 C   0  0  0  0  0  3  0  0  0  0  0  0
  161.7260  206.7100  148.9110 C   0  0  0  0  0  0  0  0  0  0  0  0
  161.0980  202.6130  147.9340 C   0  0  0  0  0  0  0  0  0  0  0  0
  161.4750  204.8860  147.2850 N   0  0  0  0  0  0  0  0  0  0  0  0
  161.2650  203.5900  146.9380 C   0  0  0  0  0  0  0  0  0  0  0  0
  161.6300  206.1540  151.3850 C   0  0  2  0  0  0  0  0  0  0  0  0
  160.8320  200.9470  146.2170 C   0  0  0  0  0  0  0  0  0  0  0  0
  162.3530  206.4030  152.6970 C   0  0  0  0  0  1  0  0  0  0  0  0
  161.1560  202.9910  149.2730 C   0  0  0  0  0  3  0  0  0  0  0  0
  161.4730  204.6700  151.0760 C   0  0  1  0  0  3  0  0  0  0  0  0
  160.6110  199.5970  145.8290 N   0  0  0  0  0  1  0  0  0  0  0  0
  161.5360  205.2830  148.5900 C   0  0  0  0  0  0  0  0  0  0  0  0
  160.2730  205.4990  151.5270 C   0  0  0  0  0  2  0  0  0  0  0  0
  161.7670  208.9940  151.7970 F   0  0  0  0  0  0  0  0  0  0  0  0
  161.8140  208.5350  150.5200 C   0  0  0  0  0  0  0  0  0  0  0  0
  162.0280  210.8590  149.7800 N   0  0  0  0  0  2  0  0  0  0  0  0
  160.8650  211.5380  147.7390 C   0  0  0  0  0  1  0  0  0  0  0  0
  161.8030  211.9690  148.8540 C   0  0  0  0  0  0  0  0  0  0  0  0
  161.2120  213.1570  149.5970 C   0  0  0  0  0  1  0  0  0  0  0  0
  163.1430  212.3710  148.2550 C   0  0  0  0  0  2  0  0  0  0  0  0
  163.0050  212.7610  146.9320 F   0  0  0  0  0  0  0  0  0  0  0  0
  1 22  1  0  0  0  0
  1 13  1  0  0  0  0
  2  6  1  0  0  0  0
  3  8  2  0  0  0  0
  3 14  1  0  0  0  0
  4 10  1  0  0  0  0
  5  2  2  0  0  0  0
  5  9  1  0  0  0  0
  6 23  1  0  0  0  0
  6 22  2  0  0  0  0
  7 17  1  0  0  0  0
  8 12  1  0  0  0  0
  9  1  2  0  0  0  0
 10 16  2  0  0  0  0
 11 19  1  0  0  0  0
 12 11  2  0  0  0  0
 12 10  1  0  0  0  0
 13 20  1  0  0  0  0
 13 15  1  1  0  0  0
 14  4  2  0  0  0  0
 16  7  1  0  0  0  0
 17 13  1  0  0  0  0
 17 20  1  1  0  0  0
 18 14  1  0  0  0  0
 19  9  1  0  0  0  0
 19  7  2  0  0  0  0
 22 21  1  0  0  0  0
 24 25  1  0  0  0  0
 25 26  1  0  0  0  0
 25 23  1  0  0  0  0
 27 25  1  0  0  0  0
 28 27  1  0  0  0  0
M  END
>  <MODEL>
7

>  <REMARK>
 VINA RESULT:      -6.9      3.520      7.574
  Name = 
  3 active torsions:
  status: ('A' for Active; 'I' for Inactive)
    1  A    between atoms: N_3  and  C_7
    2  A    between atoms: N_3  and  C_11
    3  A    between atoms: C_11  and  C_21
                            x       y       z     vdW  Elec       q    Type
                         _______ _______ _______ _____ _____    ______ ____

>  <TORSDO>
F 3

$$$$
=
 OpenBabel11052410493D

 28 32  0  0  1  0  0  0  0  0999 V2000
  160.9820  203.6490  149.6980 C   0  0  0  0  0  0  0  0  0  0  0  0
  161.2060  204.8050  147.1480 C   0  0  0  0  0  3  0  0  0  0  0  0
  161.4740  210.3260  152.5340 N   0  0  0  0  0  0  0  0  0  0  0  0
  161.2940  208.4800  154.0450 C   0  0  0  0  0  3  0  0  0  0  0  0
  161.1600  205.6150  148.2810 C   0  0  0  0  0  3  0  0  0  0  0  0
  161.1660  203.4130  147.2730 C   0  0  0  0  0  0  0  0  0  0  0  0
  161.0270  205.3790  152.0440 C   0  0  0  0  0  0  0  0  0  0  0  0
  161.4050  209.4960  151.4580 C   0  0  0  0  0  3  0  0  0  0  0  0
  161.0570  205.0510  149.5570 C   0  0  0  0  0  0  0  0  0  0  0  0
  161.2230  207.6110  152.9570 C   0  0  0  0  0  0  0  0  0  0  0  0
  161.2110  207.2760  150.5860 N   0  0  0  0  0  0  0  0  0  0  0  0
  161.2780  208.1200  151.6480 C   0  0  0  0  0  0  0  0  0  0  0  0
  160.8530  203.0240  151.0700 C   0  0  2  0  0  0  0  0  0  0  0  0
  161.4210  209.8530  153.8090 C   0  0  0  0  0  0  0  0  0  0  0  0
  160.0530  201.7470  151.2590 C   0  0  0  0  0  1  0  0  0  0  0  0
  161.0940  206.2370  153.1460 C   0  0  0  0  0  3  0  0  0  0  0  0
  160.8390  203.9120  152.3080 C   0  0  1  0  0  3  0  0  0  0  0  0
  161.4950  210.7560  154.9050 N   0  0  0  0  0  1  0  0  0  0  0  0
  161.0850  205.9260  150.7440 C   0  0  0  0  0  0  0  0  0  0  0  0
  162.0920  203.1250  151.9320 C   0  0  0  0  0  2  0  0  0  0  0  0
  161.0570  201.4830  148.6540 F   0  0  0  0  0  0  0  0  0  0  0  0
  161.0660  202.8370  148.5460 C   0  0  0  0  0  0  0  0  0  0  0  0
  161.2310  202.5590  146.1190 N   0  0  0  0  0  2  0  0  0  0  0  0
  160.5370  200.5670  144.8820 C   0  0  0  0  0  1  0  0  0  0  0  0
  160.1020  201.9070  145.4550 C   0  0  0  0  0  0  0  0  0  0  0  0
  158.9630  201.7030  146.4400 C   0  0  0  0  0  1  0  0  0  0  0  0
  159.6290  202.8060  144.3220 C   0  0  0  0  0  2  0  0  0  0  0  0
  160.4550  203.9100  144.1780 F   0  0  0  0  0  0  0  0  0  0  0  0
  1 13  1  0  0  0  0
  2  6  2  0  0  0  0
  2  5  1  0  0  0  0
  3 14  1  0  0  0  0
  5  9  2  0  0  0  0
  6 22  1  0  0  0  0
  7 17  1  0  0  0  0
  7 16  1  0  0  0  0
  8 12  1  0  0  0  0
  8  3  2  0  0  0  0
  9  1  1  0  0  0  0
  9 19  1  0  0  0  0
 10 16  2  0  0  0  0
 10  4  1  0  0  0  0
 11 19  1  0  0  0  0
 11 12  2  0  0  0  0
 12 10  1  0  0  0  0
 13 15  1  1  0  0  0
 13 20  1  0  0  0  0
 13 17  1  0  0  0  0
 14  4  2  0  0  0  0
 14 18  1  0  0  0  0
 17 20  1  1  0  0  0
 19  7  2  0  0  0  0
 22 21  1  0  0  0  0
 22  1  2  0  0  0  0
 23  6  1  0  0  0  0
 24 25  1  0  0  0  0
 25 23  1  0  0  0  0
 25 26  1  0  0  0  0
 27 25  1  0  0  0  0
 28 27  1  0  0  0  0
M  END
>  <MODEL>
8

>  <REMARK>
 VINA RESULT:      -6.9      1.622      2.308
  Name = 
  3 active torsions:
  status: ('A' for Active; 'I' for Inactive)
    1  A    between atoms: N_3  and  C_7
    2  A    between atoms: N_3  and  C_11
    3  A    between atoms: C_11  and  C_21
                            x       y       z     vdW  Elec       q    Type
                         _______ _______ _______ _____ _____    ______ ____

>  <TORSDO>
F 3

$$$$
=
 OpenBabel11052410493D

 28 32  0  0  1  0  0  0  0  0999 V2000
  161.1950  207.8940  152.8120 C   0  0  0  0  0  0  0  0  0  0  0  0
  161.0450  210.5210  151.8300 C   0  0  0  0  0  3  0  0  0  0  0  0
  161.5030  205.5670  145.9300 N   0  0  0  0  0  0  0  0  0  0  0  0
  161.5110  203.9220  147.6670 C   0  0  0  0  0  3  0  0  0  0  0  0
  161.2040  209.4540  150.9480 C   0  0  0  0  0  3  0  0  0  0  0  0
  160.9340  210.2910  153.2050 C   0  0  0  0  0  0  0  0  0  0  0  0
  161.3920  205.6860  150.9180 C   0  0  0  0  0  0  0  0  0  0  0  0
  161.4570  206.5780  146.8400 C   0  0  0  0  0  3  0  0  0  0  0  0
  161.2720  208.1390  151.4250 C   0  0  0  0  0  0  0  0  0  0  0  0
  161.4620  204.9420  148.6170 C   0  0  0  0  0  0  0  0  0  0  0  0
  161.3860  207.2810  149.1260 N   0  0  0  0  0  0  0  0  0  0  0  0
  161.4360  206.2850  148.2040 C   0  0  0  0  0  0  0  0  0  0  0  0
  161.2840  206.4790  153.3440 C   0  0  2  0  0  0  0  0  0  0  0  0
  161.5310  204.2610  146.3100 C   0  0  0  0  0  0  0  0  0  0  0  0
  161.9410  206.2040  154.6840 C   0  0  0  0  0  1  0  0  0  0  0  0
  161.4430  204.6510  149.9790 C   0  0  0  0  0  3  0  0  0  0  0  0
  161.4220  205.3130  152.3730 C   0  0  1  0  0  3  0  0  0  0  0  0
  161.5800  203.2360  145.3250 N   0  0  0  0  0  1  0  0  0  0  0  0
  161.3660  207.0220  150.4660 C   0  0  0  0  0  0  0  0  0  0  0  0
  160.0820  205.6110  153.0410 C   0  0  0  0  0  2  0  0  0  0  0  0
  160.8590  208.7680  155.0270 F   0  0  0  0  0  0  0  0  0  0  0  0
  160.9980  208.9790  153.6930 C   0  0  0  0  0  0  0  0  0  0  0  0
  160.7510  211.3760  154.1290 N   0  0  0  0  0  2  0  0  0  0  0  0
  159.3350  213.3100  154.6140 C   0  0  0  0  0  1  0  0  0  0  0  0
  159.4880  211.8020  154.7310 C   0  0  0  0  0  0  0  0  0  0  0  0
  158.3220  211.1090  154.0440 C   0  0  0  0  0  1  0  0  0  0  0  0
  159.5040  211.4130  156.2020 C   0  0  0  0  0  2  0  0  0  0  0  0
  158.6390  210.3600  156.4530 F   0  0  0  0  0  0  0  0  0  0  0  0
  1 13  1  0  0  0  0
  1 22  1  0  0  0  0
  2  6  1  0  0  0  0
  3 14  2  0  0  0  0
  3  8  1  0  0  0  0
  4 10  2  0  0  0  0
  5  9  1  0  0  0  0
  5  2  2  0  0  0  0
  6 22  2  0  0  0  0
  6 23  1  0  0  0  0
  7 17  1  0  0  0  0
  8 12  2  0  0  0  0
  9  1  2  0  0  0  0
 10 16  1  0  0  0  0
 11 19  2  0  0  0  0
 12 10  1  0  0  0  0
 12 11  1  0  0  0  0
 13 15  1  1  0  0  0
 14  4  1  0  0  0  0
 16  7  2  0  0  0  0
 17 20  1  6  0  0  0
 17 13  1  0  0  0  0
 18 14  1  0  0  0  0
 19  7  1  0  0  0  0
 19  9  1  0  0  0  0
 20 13  1  0  0  0  0
 22 21  1  0  0  0  0
 23 25  1  0  0  0  0
 24 25  1  0  0  0  0
 25 27  1  0  0  0  0
 26 25  1  0  0  0  0
 27 28  1  0  0  0  0
M  END
>  <MODEL>
9

>  <REMARK>
 VINA RESULT:      -6.6      3.168      8.149
  Name = 
  3 active torsions:
  status: ('A' for Active; 'I' for Inactive)
    1  A    between atoms: N_3  and  C_7
    2  A    between atoms: N_3  and  C_11
    3  A    between atoms: C_11  and  C_21
                            x       y       z     vdW  Elec       q    Type
                         _______ _______ _______ _____ _____    ______ ____

>  <TORSDO>
F 3

$$$$
