=
 OpenBabel11042421323D

 27 29  0  0  1  0  0  0  0  0999 V2000
  160.8190  204.0960  149.3510 N   0  0  0  0  0  0  0  0  0  0  0  0
  160.8100  203.3380  150.4670 C   0  0  0  0  0  0  0  0  0  0  0  0
  161.1610  204.0770  151.5960 C   0  0  0  0  0  3  0  0  0  0  0  0
  161.3310  206.4680  148.8450 C   0  0  1  0  0  3  0  0  0  0  0  0
  161.7490  206.5710  151.7100 C   0  0  0  0  0  0  0  0  0  0  0  0
  161.6860  208.9800  148.8860 N   0  0  0  0  0  2  0  0  0  0  0  0
  161.1700  205.3100  149.7290 N   0  0  0  0  0  0  0  0  0  0  0  0
  161.3780  205.3290  151.0490 C   0  0  0  0  0  0  0  0  0  0  0  0
  161.8210  207.7570  150.9100 N   0  0  0  0  0  0  0  0  0  0  0  0
  161.9530  206.6250  152.9850 N   0  0  0  0  0  2  0  0  0  0  0  0
  161.6230  207.7530  149.6160 C   0  0  0  0  0  0  0  0  0  0  0  0
  160.4820  201.9820  150.4520 O   0  0  0  0  0  0  0  0  0  0  0  0
  161.0540  201.0810  149.5150 C   0  0  0  0  0  1  0  0  0  0  0  0
  162.4030  206.1980  147.7900 C   0  0  0  0  0  2  0  0  0  0  0  0
  161.9060  206.5080  146.3770 C   0  0  0  0  0  2  0  0  0  0  0  0
  161.0960  205.3240  144.3630 N   0  0  0  0  0  0  0  0  0  0  0  0
  162.0680  204.0220  146.1110 C   0  0  0  0  0  3  0  0  0  0  0  0
  160.7580  201.9330  145.8860 C   0  0  0  0  0  1  0  0  0  0  0  0
  162.1280  205.3450  145.4120 C   0  0  2  0  0  3  0  0  0  0  0  0
  161.1440  203.3170  145.5080 C   0  0  0  0  0  0  0  0  0  0  0  0
  160.5410  204.0400  144.4590 N   0  0  0  0  0  0  0  0  0  0  0  0
  161.9640  210.2580  149.5230 C   0  0  0  0  0  2  0  0  0  0  0  0
  162.4540  211.2620  148.4930 C   0  0  0  0  0  2  0  0  0  0  0  0
  160.8950  212.9570  149.3370 C   0  0  0  0  0  2  0  0  0  0  0  0
  161.4570  212.3590  148.2860 C   0  0  0  0  0  0  0  0  0  0  0  0
  160.9000  212.5830  146.9190 C   0  0  0  0  0  2  0  0  0  0  0  0
  161.9520  213.1960  146.0120 C   0  0  0  0  0  1  0  0  0  0  0  0
  1  7  1  0  0  0  0
  1  2  2  0  0  0  0
  2  3  1  0  0  0  0
  4 14  1  6  0  0  0
  4 11  1  0  0  0  0
  4  7  1  0  0  0  0
  5 10  2  0  0  0  0
  6 22  1  0  0  0  0
  6 11  1  0  0  0  0
  7  8  1  0  0  0  0
  8  3  2  0  0  0  0
  8  5  1  0  0  0  0
  9  5  1  0  0  0  0
 11  9  2  0  0  0  0
 12  2  1  0  0  0  0
 13 12  1  0  0  0  0
 15 14  1  0  0  0  0
 16 21  2  0  0  0  0
 16 19  1  0  0  0  0
 19 17  1  0  0  0  0
 19 15  1  1  0  0  0
 20 18  1  0  0  0  0
 20 17  2  0  0  0  0
 21 20  1  0  0  0  0
 23 22  1  0  0  0  0
 25 23  1  0  0  0  0
 25 24  2  0  0  0  0
 26 25  1  0  0  0  0
 27 26  1  0  0  0  0
M  END
>  <MODEL>
1

>  <REMARK>
 VINA RESULT:      -7.7      0.000      0.000
  Name = 
  8 active torsions:
  status: ('A' for Active; 'I' for Inactive)
    1  A    between atoms: C_3  and  O_10
    2  A    between atoms: C_6  and  C_23
    3  A    between atoms: N_8  and  C_24
    4  A    between atoms: C_9  and  C_25
    5  A    between atoms: C_14  and  C_24
    6  A    between atoms: C_14  and  C_25
    7  A    between atoms: C_17  and  C_18
    8  A    between atoms: C_18  and  C_23
                            x       y       z     vdW  Elec       q    Type
                         _______ _______ _______ _____ _____    ______ ____

>  <TORSDO>
F 8

$$$$
=
 OpenBabel11042421323D

 27 29  0  0  1  0  0  0  0  0999 V2000
  160.5850  204.2940  149.1940 N   0  0  0  0  0  0  0  0  0  0  0  0
  160.5300  203.2700  150.0710 C   0  0  0  0  0  0  0  0  0  0  0  0
  160.9480  203.6560  151.3440 C   0  0  0  0  0  3  0  0  0  0  0  0
  161.2730  206.6720  149.3160 C   0  0  1  0  0  3  0  0  0  0  0  0
  161.7270  205.9830  152.0930 C   0  0  0  0  0  0  0  0  0  0  0  0
  161.8200  209.0520  150.0060 N   0  0  0  0  0  2  0  0  0  0  0  0
  161.0320  205.3360  149.8680 N   0  0  0  0  0  0  0  0  0  0  0  0
  161.2550  204.9890  151.1400 C   0  0  0  0  0  0  0  0  0  0  0  0
  161.8810  207.3290  151.6320 N   0  0  0  0  0  0  0  0  0  0  0  0
  161.9470  205.6810  153.3300 N   0  0  0  0  0  2  0  0  0  0  0  0
  161.6700  207.6830  150.3890 C   0  0  0  0  0  0  0  0  0  0  0  0
  160.0990  201.9930  149.7090 O   0  0  0  0  0  0  0  0  0  0  0  0
  161.0130  200.9490  149.4080 C   0  0  0  0  0  1  0  0  0  0  0  0
  162.3090  206.6160  148.1950 C   0  0  0  0  0  2  0  0  0  0  0  0
  161.6680  206.7570  146.8140 C   0  0  0  0  0  2  0  0  0  0  0  0
  161.3280  205.6860  144.6110 N   0  0  0  0  0  0  0  0  0  0  0  0
  162.0360  204.3090  146.4280 C   0  0  0  0  0  3  0  0  0  0  0  0
  160.9270  202.1780  145.8240 C   0  0  0  0  0  1  0  0  0  0  0  0
  162.1410  205.6820  145.8380 C   0  0  2  0  0  3  0  0  0  0  0  0
  161.2870  203.6050  145.6160 C   0  0  0  0  0  0  0  0  0  0  0  0
  160.8470  204.3720  144.5190 N   0  0  0  0  0  0  0  0  0  0  0  0
  162.2010  210.0920  150.9490 C   0  0  0  0  0  2  0  0  0  0  0  0
  160.9990  210.9600  151.2850 C   0  0  0  0  0  2  0  0  0  0  0  0
  159.2380  211.0340  152.9900 C   0  0  0  0  0  2  0  0  0  0  0  0
  160.4710  210.6530  152.6510 C   0  0  0  0  0  0  0  0  0  0  0  0
  161.4160  210.1730  153.7030 C   0  0  0  0  0  2  0  0  0  0  0  0
  160.7620  209.0980  154.5510 C   0  0  0  0  0  1  0  0  0  0  0  0
  1  7  1  0  0  0  0
  1  2  2  0  0  0  0
  2  3  1  0  0  0  0
  4 14  1  6  0  0  0
  4  7  1  0  0  0  0
  4 11  1  0  0  0  0
  5 10  2  0  0  0  0
  6 11  1  0  0  0  0
  6 22  1  0  0  0  0
  7  8  1  0  0  0  0
  8  3  2  0  0  0  0
  8  5  1  0  0  0  0
  9  5  1  0  0  0  0
 11  9  2  0  0  0  0
 12  2  1  0  0  0  0
 13 12  1  0  0  0  0
 15 14  1  0  0  0  0
 16 19  1  0  0  0  0
 19 17  1  0  0  0  0
 19 15  1  1  0  0  0
 20 18  1  0  0  0  0
 20 17  2  0  0  0  0
 21 16  2  0  0  0  0
 21 20  1  0  0  0  0
 22 23  1  0  0  0  0
 23 25  1  0  0  0  0
 25 24  2  0  0  0  0
 25 26  1  0  0  0  0
 26 27  1  0  0  0  0
M  END
>  <MODEL>
2

>  <REMARK>
 VINA RESULT:      -7.6      1.843      2.761
  Name = 
  8 active torsions:
  status: ('A' for Active; 'I' for Inactive)
    1  A    between atoms: C_3  and  O_10
    2  A    between atoms: C_6  and  C_23
    3  A    between atoms: N_8  and  C_24
    4  A    between atoms: C_9  and  C_25
    5  A    between atoms: C_14  and  C_24
    6  A    between atoms: C_14  and  C_25
    7  A    between atoms: C_17  and  C_18
    8  A    between atoms: C_18  and  C_23
                            x       y       z     vdW  Elec       q    Type
                         _______ _______ _______ _____ _____    ______ ____

>  <TORSDO>
F 8

$$$$
=
 OpenBabel11042421323D

 27 29  0  0  1  0  0  0  0  0999 V2000
  162.2020  209.6040  148.4830 N   0  0  0  0  0  0  0  0  0  0  0  0
  162.1890  210.8840  148.9090 C   0  0  0  0  0  0  0  0  0  0  0  0
  161.9370  210.9710  150.2780 C   0  0  0  0  0  3  0  0  0  0  0  0
  161.8640  207.3950  149.5560 C   0  0  1  0  0  3  0  0  0  0  0  0
  161.5550  209.0390  151.9210 C   0  0  0  0  0  0  0  0  0  0  0  0
  161.7130  205.4140  151.1340 N   0  0  0  0  0  2  0  0  0  0  0  0
  161.9630  208.8580  149.5440 N   0  0  0  0  0  0  0  0  0  0  0  0
  161.8020  209.6370  150.6180 C   0  0  0  0  0  0  0  0  0  0  0  0
  161.5500  207.6100  152.0090 N   0  0  0  0  0  0  0  0  0  0  0  0
  161.4000  209.7640  152.9790 N   0  0  0  0  0  2  0  0  0  0  0  0
  161.7030  206.8340  150.9660 C   0  0  0  0  0  0  0  0  0  0  0  0
  162.4060  211.9640  148.0520 O   0  0  0  0  0  0  0  0  0  0  0  0
  162.0120  213.2850  148.3930 C   0  0  0  0  0  1  0  0  0  0  0  0
  160.7380  206.9210  148.6370 C   0  0  0  0  0  2  0  0  0  0  0  0
  161.2000  206.7910  147.1860 C   0  0  0  0  0  2  0  0  0  0  0  0
  162.6090  205.5400  145.5840 N   0  0  0  0  0  0  0  0  0  0  0  0
  161.3960  204.2930  147.2190 C   0  0  0  0  0  3  0  0  0  0  0  0
  160.9360  202.2220  145.9420 C   0  0  0  0  0  1  0  0  0  0  0  0
  162.1130  205.5850  146.9690 C   0  0  2  0  0  3  0  0  0  0  0  0
  161.5070  203.5820  146.1250 C   0  0  0  0  0  0  0  0  0  0  0  0
  162.2230  204.2710  145.1270 N   0  0  0  0  0  0  0  0  0  0  0  0
  161.5600  204.7780  152.4340 C   0  0  0  0  0  2  0  0  0  0  0  0
  160.6110  203.5960  152.3300 C   0  0  0  0  0  2  0  0  0  0  0  0
  162.2960  201.9450  151.6610 C   0  0  0  0  0  2  0  0  0  0  0  0
  161.1390  202.5530  151.3960 C   0  0  0  0  0  0  0  0  0  0  0  0
  160.5130  202.4030  150.0490 C   0  0  0  0  0  2  0  0  0  0  0  0
  160.9240  201.0850  149.4180 C   0  0  0  0  0  1  0  0  0  0  0  0
  1  2  2  0  0  0  0
  1  7  1  0  0  0  0
  2  3  1  0  0  0  0
  3  8  2  0  0  0  0
  4 14  1  6  0  0  0
  4 11  1  0  0  0  0
  5  9  1  0  0  0  0
  5 10  2  0  0  0  0
  6 22  1  0  0  0  0
  7  4  1  0  0  0  0
  7  8  1  0  0  0  0
  8  5  1  0  0  0  0
 11  6  1  0  0  0  0
 11  9  2  0  0  0  0
 12 13  1  0  0  0  0
 12  2  1  0  0  0  0
 15 14  1  0  0  0  0
 16 19  1  0  0  0  0
 18 20  1  0  0  0  0
 19 15  1  6  0  0  0
 19 17  1  0  0  0  0
 20 17  2  0  0  0  0
 21 16  2  0  0  0  0
 21 20  1  0  0  0  0
 23 22  1  0  0  0  0
 25 24  2  0  0  0  0
 25 23  1  0  0  0  0
 26 25  1  0  0  0  0
 27 26  1  0  0  0  0
M  END
>  <MODEL>
3

>  <REMARK>
 VINA RESULT:      -7.6      2.409      6.431
  Name = 
  8 active torsions:
  status: ('A' for Active; 'I' for Inactive)
    1  A    between atoms: C_3  and  O_10
    2  A    between atoms: C_6  and  C_23
    3  A    between atoms: N_8  and  C_24
    4  A    between atoms: C_9  and  C_25
    5  A    between atoms: C_14  and  C_24
    6  A    between atoms: C_14  and  C_25
    7  A    between atoms: C_17  and  C_18
    8  A    between atoms: C_18  and  C_23
                            x       y       z     vdW  Elec       q    Type
                         _______ _______ _______ _____ _____    ______ ____

>  <TORSDO>
F 8

$$$$
=
 OpenBabel11042421323D

 27 29  0  0  1  0  0  0  0  0999 V2000
  160.9090  206.6770  153.5650 N   0  0  0  0  0  0  0  0  0  0  0  0
  161.0270  207.7750  154.3390 C   0  0  0  0  0  0  0  0  0  0  0  0
  161.3110  208.9130  153.5840 C   0  0  0  0  0  3  0  0  0  0  0  0
  161.1010  206.2140  151.1370 C   0  0  1  0  0  3  0  0  0  0  0  0
  161.5800  209.0700  151.0380 C   0  0  0  0  0  0  0  0  0  0  0  0
  161.1350  206.3040  148.6020 N   0  0  0  0  0  2  0  0  0  0  0  0
  161.1130  207.0750  152.3240 N   0  0  0  0  0  0  0  0  0  0  0  0
  161.3530  208.3900  152.3040 C   0  0  0  0  0  0  0  0  0  0  0  0
  161.4790  208.2960  149.8380 N   0  0  0  0  0  0  0  0  0  0  0  0
  161.8100  210.3400  150.9840 N   0  0  0  0  0  2  0  0  0  0  0  0
  161.2480  207.0070  149.8410 C   0  0  0  0  0  0  0  0  0  0  0  0
  160.8740  207.7380  155.7260 O   0  0  0  0  0  0  0  0  0  0  0  0
  159.7920  207.0590  156.3450 C   0  0  0  0  0  1  0  0  0  0  0  0
  162.1700  205.1270  151.2470 C   0  0  0  0  0  2  0  0  0  0  0  0
  161.5620  203.7530  151.5290 C   0  0  0  0  0  2  0  0  0  0  0  0
  159.9560  202.0250  150.7870 N   0  0  0  0  0  0  0  0  0  0  0  0
  161.0400  203.3380  149.1140 C   0  0  0  0  0  3  0  0  0  0  0  0
  161.1880  201.6810  147.2790 C   0  0  0  0  0  1  0  0  0  0  0  0
  160.4930  203.3670  150.5080 C   0  0  2  0  0  3  0  0  0  0  0  0
  160.8070  202.1400  148.6410 C   0  0  0  0  0  0  0  0  0  0  0  0
  160.1590  201.3240  149.5890 N   0  0  0  0  0  0  0  0  0  0  0  0
  161.2650  206.9640  147.3120 C   0  0  0  0  0  2  0  0  0  0  0  0
  160.4040  206.2610  146.2750 C   0  0  0  0  0  2  0  0  0  0  0  0
  160.6920  204.3690  144.7420 C   0  0  0  0  0  2  0  0  0  0  0  0
  161.2350  205.4190  145.3580 C   0  0  0  0  0  0  0  0  0  0  0  0
  162.7170  205.5960  145.3580 C   0  0  0  0  0  2  0  0  0  0  0  0
  163.3870  204.4580  146.1070 C   0  0  0  0  0  1  0  0  0  0  0  0
  1  2  2  0  0  0  0
  2 12  1  0  0  0  0
  3  2  1  0  0  0  0
  4 14  1  1  0  0  0
  4  7  1  0  0  0  0
  5  8  1  0  0  0  0
  6 11  1  0  0  0  0
  7  1  1  0  0  0  0
  8  7  1  0  0  0  0
  8  3  2  0  0  0  0
  9 11  2  0  0  0  0
  9  5  1  0  0  0  0
 10  5  2  0  0  0  0
 11  4  1  0  0  0  0
 12 13  1  0  0  0  0
 14 15  1  0  0  0  0
 17 19  1  0  0  0  0
 18 20  1  0  0  0  0
 19 16  1  0  0  0  0
 19 15  1  1  0  0  0
 20 17  2  0  0  0  0
 20 21  1  0  0  0  0
 21 16  2  0  0  0  0
 22  6  1  0  0  0  0
 23 22  1  0  0  0  0
 24 25  2  0  0  0  0
 25 23  1  0  0  0  0
 26 25  1  0  0  0  0
 26 27  1  0  0  0  0
M  END
>  <MODEL>
4

>  <REMARK>
 VINA RESULT:      -7.5      3.069      5.506
  Name = 
  8 active torsions:
  status: ('A' for Active; 'I' for Inactive)
    1  A    between atoms: C_3  and  O_10
    2  A    between atoms: C_6  and  C_23
    3  A    between atoms: N_8  and  C_24
    4  A    between atoms: C_9  and  C_25
    5  A    between atoms: C_14  and  C_24
    6  A    between atoms: C_14  and  C_25
    7  A    between atoms: C_17  and  C_18
    8  A    between atoms: C_18  and  C_23
                            x       y       z     vdW  Elec       q    Type
                         _______ _______ _______ _____ _____    ______ ____

>  <TORSDO>
F 8

$$$$
=
 OpenBabel11042421323D

 27 29  0  0  1  0  0  0  0  0999 V2000
  161.9520  204.8350  147.7700 N   0  0  0  0  0  0  0  0  0  0  0  0
  162.0120  205.6910  146.7300 C   0  0  0  0  0  0  0  0  0  0  0  0
  161.9510  207.0200  147.1490 C   0  0  0  0  0  3  0  0  0  0  0  0
  161.7370  205.0750  150.2280 C   0  0  1  0  0  3  0  0  0  0  0  0
  161.7740  207.8920  149.5540 C   0  0  0  0  0  0  0  0  0  0  0  0
  161.7780  205.8390  152.6470 N   0  0  0  0  0  2  0  0  0  0  0  0
  161.8510  205.5780  148.8560 N   0  0  0  0  0  0  0  0  0  0  0  0
  161.8470  206.8710  148.5200 C   0  0  0  0  0  0  0  0  0  0  0  0
  161.7640  207.4590  150.9190 N   0  0  0  0  0  0  0  0  0  0  0  0
  161.7740  209.1510  149.2630 N   0  0  0  0  0  2  0  0  0  0  0  0
  161.7630  206.1960  151.2630 C   0  0  0  0  0  0  0  0  0  0  0  0
  162.1230  205.2600  145.4070 O   0  0  0  0  0  0  0  0  0  0  0  0
  161.0680  205.4260  144.4710 C   0  0  0  0  0  1  0  0  0  0  0  0
  160.4900  204.2040  150.3840 C   0  0  0  0  0  2  0  0  0  0  0  0
  160.8320  202.7970  150.8750 C   0  0  0  0  0  2  0  0  0  0  0  0
  161.3100  200.6320  149.7800 N   0  0  0  0  0  0  0  0  0  0  0  0
  160.0370  202.2450  148.5640 C   0  0  0  0  0  3  0  0  0  0  0  0
  160.7680  201.7330  146.2540 C   0  0  0  0  0  1  0  0  0  0  0  0
  160.3180  201.7090  149.9350 C   0  0  2  0  0  3  0  0  0  0  0  0
  160.7500  201.5340  147.7270 C   0  0  0  0  0  0  0  0  0  0  0  0
  161.5170  200.5590  148.3940 N   0  0  0  0  0  0  0  0  0  0  0  0
  161.7980  206.8300  153.7120 C   0  0  0  0  0  2  0  0  0  0  0  0
  160.4620  206.8460  154.4370 C   0  0  0  0  0  2  0  0  0  0  0  0
  160.0400  207.0490  156.8440 C   0  0  0  0  0  2  0  0  0  0  0  0
  160.5570  207.5820  155.7360 C   0  0  0  0  0  0  0  0  0  0  0  0
  160.9790  209.0140  155.7280 C   0  0  0  0  0  2  0  0  0  0  0  0
  162.1280  209.2330  156.6950 C   0  0  0  0  0  1  0  0  0  0  0  0
  1  7  1  0  0  0  0
  2  3  1  0  0  0  0
  2  1  2  0  0  0  0
  3  8  2  0  0  0  0
  4 14  1  6  0  0  0
  4 11  1  0  0  0  0
  5  9  1  0  0  0  0
  6 22  1  0  0  0  0
  7  4  1  0  0  0  0
  8  7  1  0  0  0  0
  8  5  1  0  0  0  0
  9 11  2  0  0  0  0
 10  5  2  0  0  0  0
 11  6  1  0  0  0  0
 12  2  1  0  0  0  0
 13 12  1  0  0  0  0
 14 15  1  0  0  0  0
 16 19  1  0  0  0  0
 17 19  1  0  0  0  0
 18 20  1  0  0  0  0
 19 15  1  1  0  0  0
 20 21  1  0  0  0  0
 20 17  2  0  0  0  0
 21 16  2  0  0  0  0
 22 23  1  0  0  0  0
 23 25  1  0  0  0  0
 25 24  2  0  0  0  0
 26 25  1  0  0  0  0
 26 27  1  0  0  0  0
M  END
>  <MODEL>
5

>  <REMARK>
 VINA RESULT:      -7.3      2.871      5.694
  Name = 
  8 active torsions:
  status: ('A' for Active; 'I' for Inactive)
    1  A    between atoms: C_3  and  O_10
    2  A    between atoms: C_6  and  C_23
    3  A    between atoms: N_8  and  C_24
    4  A    between atoms: C_9  and  C_25
    5  A    between atoms: C_14  and  C_24
    6  A    between atoms: C_14  and  C_25
    7  A    between atoms: C_17  and  C_18
    8  A    between atoms: C_18  and  C_23
                            x       y       z     vdW  Elec       q    Type
                         _______ _______ _______ _____ _____    ______ ____

>  <TORSDO>
F 8

$$$$
=
 OpenBabel11042421323D

 27 29  0  0  1  0  0  0  0  0999 V2000
  160.3730  209.5730  153.1670 N   0  0  0  0  0  0  0  0  0  0  0  0
  160.7400  210.6160  152.3950 C   0  0  0  0  0  0  0  0  0  0  0  0
  161.4710  210.2030  151.2810 C   0  0  0  0  0  3  0  0  0  0  0  0
  160.7120  207.1190  153.0780 C   0  0  1  0  0  3  0  0  0  0  0  0
  162.0970  207.8040  150.6270 C   0  0  0  0  0  0  0  0  0  0  0  0
  161.0950  204.7030  152.4050 N   0  0  0  0  0  2  0  0  0  0  0  0
  160.8500  208.4920  152.5820 N   0  0  0  0  0  0  0  0  0  0  0  0
  161.5030  208.8330  151.4670 C   0  0  0  0  0  0  0  0  0  0  0  0
  161.9050  206.4380  151.0090 N   0  0  0  0  0  0  0  0  0  0  0  0
  162.7310  208.1000  149.5400 N   0  0  0  0  0  2  0  0  0  0  0  0
  161.2710  206.0880  152.1000 C   0  0  0  0  0  0  0  0  0  0  0  0
  160.4080  211.9360  152.7060 O   0  0  0  0  0  0  0  0  0  0  0  0
  159.0790  212.3230  153.0180 C   0  0  0  0  0  1  0  0  0  0  0  0
  161.3480  206.9760  154.4600 C   0  0  0  0  0  2  0  0  0  0  0  0
  160.3000  206.9540  155.5730 C   0  0  0  0  0  2  0  0  0  0  0  0
  159.7050  209.1260  156.5930 N   0  0  0  0  0  0  0  0  0  0  0  0
  162.0040  208.4830  156.5920 C   0  0  0  0  0  3  0  0  0  0  0  0
  163.0830  210.7040  156.4020 C   0  0  0  0  0  1  0  0  0  0  0  0
  160.6020  207.9620  156.6790 C   0  0  2  0  0  3  0  0  0  0  0  0
  161.9180  209.7870  156.5070 C   0  0  0  0  0  0  0  0  0  0  0  0
  160.5780  210.2210  156.5110 N   0  0  0  0  0  0  0  0  0  0  0  0
  161.5940  203.6420  151.5450 C   0  0  0  0  0  2  0  0  0  0  0  0
  160.4550  203.0450  150.7340 C   0  0  0  0  0  2  0  0  0  0  0  0
  160.9480  201.8320  148.6610 C   0  0  0  0  0  2  0  0  0  0  0  0
  160.7880  203.0050  149.2760 C   0  0  0  0  0  0  0  0  0  0  0  0
  161.2060  204.2650  148.5930 C   0  0  0  0  0  2  0  0  0  0  0  0
  161.8650  203.9530  147.2620 C   0  0  0  0  0  1  0  0  0  0  0  0
  2 12  1  0  0  0  0
  2  1  2  0  0  0  0
  3  8  2  0  0  0  0
  3  2  1  0  0  0  0
  4 14  1  1  0  0  0
  5  9  1  0  0  0  0
  5  8  1  0  0  0  0
  7  4  1  0  0  0  0
  7  1  1  0  0  0  0
  8  7  1  0  0  0  0
  9 11  2  0  0  0  0
 10  5  2  0  0  0  0
 11  6  1  0  0  0  0
 11  4  1  0  0  0  0
 12 13  1  0  0  0  0
 14 15  1  0  0  0  0
 16 19  1  0  0  0  0
 17 19  1  0  0  0  0
 18 20  1  0  0  0  0
 19 15  1  6  0  0  0
 20 21  1  0  0  0  0
 20 17  2  0  0  0  0
 21 16  2  0  0  0  0
 22  6  1  0  0  0  0
 23 22  1  0  0  0  0
 24 25  2  0  0  0  0
 25 23  1  0  0  0  0
 26 25  1  0  0  0  0
 27 26  1  0  0  0  0
M  END
>  <MODEL>
6

>  <REMARK>
 VINA RESULT:      -7.3      3.770      8.812
  Name = 
  8 active torsions:
  status: ('A' for Active; 'I' for Inactive)
    1  A    between atoms: C_3  and  O_10
    2  A    between atoms: C_6  and  C_23
    3  A    between atoms: N_8  and  C_24
    4  A    between atoms: C_9  and  C_25
    5  A    between atoms: C_14  and  C_24
    6  A    between atoms: C_14  and  C_25
    7  A    between atoms: C_17  and  C_18
    8  A    between atoms: C_18  and  C_23
                            x       y       z     vdW  Elec       q    Type
                         _______ _______ _______ _____ _____    ______ ____

>  <TORSDO>
F 8

$$$$
=
 OpenBabel11042421323D

 27 29  0  0  1  0  0  0  0  0999 V2000
  161.4610  204.7970  151.0680 N   0  0  0  0  0  0  0  0  0  0  0  0
  161.1760  203.7280  150.2970 C   0  0  0  0  0  0  0  0  0  0  0  0
  161.0250  204.0820  148.9570 C   0  0  0  0  0  3  0  0  0  0  0  0
  161.7540  207.2250  150.6610 C   0  0  1  0  0  3  0  0  0  0  0  0
  161.2560  206.4190  147.9230 C   0  0  0  0  0  0  0  0  0  0  0  0
  162.2140  209.5300  149.7070 N   0  0  0  0  0  2  0  0  0  0  0  0
  161.4970  205.8380  150.2590 N   0  0  0  0  0  0  0  0  0  0  0  0
  161.2430  205.4470  149.0070 C   0  0  0  0  0  0  0  0  0  0  0  0
  161.6020  207.7700  148.2440 N   0  0  0  0  0  0  0  0  0  0  0  0
  161.0190  206.0720  146.7020 N   0  0  0  0  0  2  0  0  0  0  0  0
  161.8500  208.1690  149.4660 C   0  0  0  0  0  0  0  0  0  0  0  0
  161.0560  202.4370  150.8150 O   0  0  0  0  0  0  0  0  0  0  0  0
  160.7270  201.3260  149.9950 C   0  0  0  0  0  1  0  0  0  0  0  0
  160.7040  207.7010  151.6630 C   0  0  0  0  0  2  0  0  0  0  0  0
  161.2700  207.8090  153.0790 C   0  0  0  0  0  2  0  0  0  0  0  0
  160.8370  209.3470  154.9670 N   0  0  0  0  0  0  0  0  0  0  0  0
  160.4610  210.1580  152.7540 C   0  0  0  0  0  3  0  0  0  0  0  0
  158.5800  211.7140  153.1680 C   0  0  0  0  0  1  0  0  0  0  0  0
  161.3210  209.2510  153.5800 C   0  0  2  0  0  3  0  0  0  0  0  0
  159.6180  210.7310  153.5750 C   0  0  0  0  0  0  0  0  0  0  0  0
  159.8020  210.2910  154.9010 N   0  0  0  0  0  0  0  0  0  0  0  0
  162.3280  210.5120  148.6400 C   0  0  0  0  0  2  0  0  0  0  0  0
  161.8320  211.8670  149.1190 C   0  0  0  0  0  2  0  0  0  0  0  0
  162.3170  214.1080  148.2510 C   0  0  0  0  0  2  0  0  0  0  0  0
  161.8600  212.8780  148.0160 C   0  0  0  0  0  0  0  0  0  0  0  0
  161.1260  212.5870  146.7490 C   0  0  0  0  0  2  0  0  0  0  0  0
  159.6270  212.6690  146.9750 C   0  0  0  0  0  1  0  0  0  0  0  0
  2 12  1  0  0  0  0
  2  1  2  0  0  0  0
  3  8  2  0  0  0  0
  3  2  1  0  0  0  0
  4 14  1  1  0  0  0
  5  9  1  0  0  0  0
  5  8  1  0  0  0  0
  7  4  1  0  0  0  0
  7  1  1  0  0  0  0
  8  7  1  0  0  0  0
  9 11  2  0  0  0  0
 10  5  2  0  0  0  0
 11  6  1  0  0  0  0
 11  4  1  0  0  0  0
 13 12  1  0  0  0  0
 14 15  1  0  0  0  0
 17 20  2  0  0  0  0
 17 19  1  0  0  0  0
 18 20  1  0  0  0  0
 19 15  1  6  0  0  0
 19 16  1  0  0  0  0
 20 21  1  0  0  0  0
 21 16  2  0  0  0  0
 22 23  1  0  0  0  0
 22  6  1  0  0  0  0
 25 24  2  0  0  0  0
 25 23  1  0  0  0  0
 26 27  1  0  0  0  0
 26 25  1  0  0  0  0
M  END
>  <MODEL>
7

>  <REMARK>
 VINA RESULT:      -7.1      2.237      5.729
  Name = 
  8 active torsions:
  status: ('A' for Active; 'I' for Inactive)
    1  A    between atoms: C_3  and  O_10
    2  A    between atoms: C_6  and  C_23
    3  A    between atoms: N_8  and  C_24
    4  A    between atoms: C_9  and  C_25
    5  A    between atoms: C_14  and  C_24
    6  A    between atoms: C_14  and  C_25
    7  A    between atoms: C_17  and  C_18
    8  A    between atoms: C_18  and  C_23
                            x       y       z     vdW  Elec       q    Type
                         _______ _______ _______ _____ _____    ______ ____

>  <TORSDO>
F 8

$$$$
=
 OpenBabel11042421323D

 27 29  0  0  1  0  0  0  0  0999 V2000
  161.7090  208.9050  150.5220 N   0  0  0  0  0  0  0  0  0  0  0  0
  161.9540  209.6760  149.4420 C   0  0  0  0  0  0  0  0  0  0  0  0
  161.9040  208.9400  148.2590 C   0  0  0  0  0  3  0  0  0  0  0  0
  161.2160  206.5030  150.8860 C   0  0  1  0  0  3  0  0  0  0  0  0
  161.3940  206.4400  147.9950 C   0  0  0  0  0  0  0  0  0  0  0  0
  160.4920  204.0780  150.7130 N   0  0  0  0  0  2  0  0  0  0  0  0
  161.5020  207.6850  150.0660 N   0  0  0  0  0  0  0  0  0  0  0  0
  161.6110  207.6740  148.7340 C   0  0  0  0  0  0  0  0  0  0  0  0
  161.0110  205.2770  148.7370 N   0  0  0  0  0  0  0  0  0  0  0  0
  161.4880  206.3970  146.7070 N   0  0  0  0  0  2  0  0  0  0  0  0
  160.9040  205.2700  150.0420 C   0  0  0  0  0  0  0  0  0  0  0  0
  162.2210  211.0420  149.5390 O   0  0  0  0  0  0  0  0  0  0  0  0
  162.3000  211.8760  148.3920 C   0  0  0  0  0  1  0  0  0  0  0  0
  162.3590  206.2330  151.8630 C   0  0  0  0  0  2  0  0  0  0  0  0
  161.8550  206.0290  153.2920 C   0  0  0  0  0  2  0  0  0  0  0  0
  161.3660  208.4420  153.5240 N   0  0  0  0  0  0  0  0  0  0  0  0
  160.4490  206.9530  155.1490 C   0  0  0  0  0  3  0  0  0  0  0  0
  160.4640  208.4160  157.1470 C   0  0  0  0  0  1  0  0  0  0  0  0
  160.8300  207.0830  153.7060 C   0  0  2  0  0  3  0  0  0  0  0  0
  160.6990  208.1080  155.7120 C   0  0  0  0  0  0  0  0  0  0  0  0
  161.2370  209.0290  154.7910 N   0  0  0  0  0  0  0  0  0  0  0  0
  160.1780  202.8480  150.0030 C   0  0  0  0  0  2  0  0  0  0  0  0
  161.4420  202.2480  149.4080 C   0  0  0  0  0  2  0  0  0  0  0  0
  161.3150  200.2940  147.9320 C   0  0  0  0  0  2  0  0  0  0  0  0
  161.1700  201.6120  148.0820 C   0  0  0  0  0  0  0  0  0  0  0  0
  161.0100  202.4830  146.8800 C   0  0  0  0  0  2  0  0  0  0  0  0
  160.4850  201.6760  145.7070 C   0  0  0  0  0  1  0  0  0  0  0  0
  2 12  1  0  0  0  0
  2  1  2  0  0  0  0
  3  8  2  0  0  0  0
  3  2  1  0  0  0  0
  4 14  1  6  0  0  0
  5  8  1  0  0  0  0
  5  9  1  0  0  0  0
  7  1  1  0  0  0  0
  7  4  1  0  0  0  0
  8  7  1  0  0  0  0
  9 11  2  0  0  0  0
 10  5  2  0  0  0  0
 11  6  1  0  0  0  0
 11  4  1  0  0  0  0
 13 12  1  0  0  0  0
 14 15  1  0  0  0  0
 16 19  1  0  0  0  0
 16 21  2  0  0  0  0
 17 20  2  0  0  0  0
 19 15  1  1  0  0  0
 19 17  1  0  0  0  0
 20 18  1  0  0  0  0
 21 20  1  0  0  0  0
 22  6  1  0  0  0  0
 23 22  1  0  0  0  0
 24 25  2  0  0  0  0
 25 23  1  0  0  0  0
 26 25  1  0  0  0  0
 27 26  1  0  0  0  0
M  END
>  <MODEL>
8

>  <REMARK>
 VINA RESULT:      -7.1      2.755      8.255
  Name = 
  8 active torsions:
  status: ('A' for Active; 'I' for Inactive)
    1  A    between atoms: C_3  and  O_10
    2  A    between atoms: C_6  and  C_23
    3  A    between atoms: N_8  and  C_24
    4  A    between atoms: C_9  and  C_25
    5  A    between atoms: C_14  and  C_24
    6  A    between atoms: C_14  and  C_25
    7  A    between atoms: C_17  and  C_18
    8  A    between atoms: C_18  and  C_23
                            x       y       z     vdW  Elec       q    Type
                         _______ _______ _______ _____ _____    ______ ____

>  <TORSDO>
F 8

$$$$
=
 OpenBabel11042421323D

 27 29  0  0  1  0  0  0  0  0999 V2000
  161.1220  206.0060  150.6370 N   0  0  0  0  0  0  0  0  0  0  0  0
  161.1590  205.6800  151.9450 C   0  0  0  0  0  0  0  0  0  0  0  0
  161.5310  206.7650  152.7390 C   0  0  0  0  0  3  0  0  0  0  0  0
  161.5800  208.0620  149.3280 C   0  0  1  0  0  3  0  0  0  0  0  0
  162.0810  209.1490  151.9670 C   0  0  0  0  0  0  0  0  0  0  0  0
  161.8950  210.4350  148.4890 N   0  0  0  0  0  2  0  0  0  0  0  0
  161.4640  207.2780  150.5630 N   0  0  0  0  0  0  0  0  0  0  0  0
  161.7120  207.7530  151.7870 C   0  0  0  0  0  0  0  0  0  0  0  0
  162.1100  209.9860  150.8060 N   0  0  0  0  0  0  0  0  0  0  0  0
  162.3220  209.6390  153.1370 N   0  0  0  0  0  2  0  0  0  0  0  0
  161.8730  209.5350  149.5990 C   0  0  0  0  0  0  0  0  0  0  0  0
  160.8540  204.4000  152.4100 O   0  0  0  0  0  0  0  0  0  0  0  0
  160.9790  203.2510  151.5860 C   0  0  0  0  0  1  0  0  0  0  0  0
  162.6250  207.4500  148.3950 C   0  0  0  0  0  2  0  0  0  0  0  0
  161.9830  206.7540  147.1950 C   0  0  0  0  0  2  0  0  0  0  0  0
  162.6840  205.1780  145.4230 N   0  0  0  0  0  0  0  0  0  0  0  0
  161.8920  204.2670  147.4830 C   0  0  0  0  0  3  0  0  0  0  0  0
  160.8310  202.1840  146.6650 C   0  0  0  0  0  1  0  0  0  0  0  0
  162.6410  205.4140  146.8750 C   0  0  2  0  0  3  0  0  0  0  0  0
  161.5820  203.4570  146.5020 C   0  0  0  0  0  0  0  0  0  0  0  0
  162.0340  203.9460  145.2600 N   0  0  0  0  0  0  0  0  0  0  0  0
  162.1700  211.8560  148.6380 C   0  0  0  0  0  2  0  0  0  0  0  0
  163.0710  212.3360  147.5110 C   0  0  0  0  0  2  0  0  0  0  0  0
  162.6370  213.3280  145.3110 C   0  0  0  0  0  2  0  0  0  0  0  0
  162.3550  213.2960  146.6140 C   0  0  0  0  0  0  0  0  0  0  0  0
  161.5390  214.3870  147.2250 C   0  0  0  0  0  2  0  0  0  0  0  0
  160.0760  214.2240  146.8580 C   0  0  0  0  0  1  0  0  0  0  0  0
  1  2  2  0  0  0  0
  2 12  1  0  0  0  0
  2  3  1  0  0  0  0
  4 14  1  6  0  0  0
  4 11  1  0  0  0  0
  4  7  1  0  0  0  0
  5 10  2  0  0  0  0
  6 22  1  0  0  0  0
  6 11  1  0  0  0  0
  7  1  1  0  0  0  0
  7  8  1  0  0  0  0
  8  5  1  0  0  0  0
  8  3  2  0  0  0  0
  9  5  1  0  0  0  0
 11  9  2  0  0  0  0
 13 12  1  0  0  0  0
 15 14  1  0  0  0  0
 16 19  1  0  0  0  0
 19 15  1  6  0  0  0
 19 17  1  0  0  0  0
 20 18  1  0  0  0  0
 20 17  2  0  0  0  0
 21 16  2  0  0  0  0
 21 20  1  0  0  0  0
 23 22  1  0  0  0  0
 24 25  2  0  0  0  0
 25 26  1  0  0  0  0
 25 23  1  0  0  0  0
 27 26  1  0  0  0  0
M  END
>  <MODEL>
9

>  <REMARK>
 VINA RESULT:      -7.0      1.544      2.242
  Name = 
  8 active torsions:
  status: ('A' for Active; 'I' for Inactive)
    1  A    between atoms: C_3  and  O_10
    2  A    between atoms: C_6  and  C_23
    3  A    between atoms: N_8  and  C_24
    4  A    between atoms: C_9  and  C_25
    5  A    between atoms: C_14  and  C_24
    6  A    between atoms: C_14  and  C_25
    7  A    between atoms: C_17  and  C_18
    8  A    between atoms: C_18  and  C_23
                            x       y       z     vdW  Elec       q    Type
                         _______ _______ _______ _____ _____    ______ ____

>  <TORSDO>
F 8

$$$$
