=
 OpenBabel11042421023D

 28 29  0  0  1  0  0  0  0  0999 V2000
  160.8030  203.6310  149.0510 C   0  0  0  0  0  3  0  0  0  0  0  0
  161.2290  204.5320  150.0390 C   0  0  0  0  0  0  0  0  0  0  0  0
  160.9570  201.8030  150.6280 C   0  0  0  0  0  3  0  0  0  0  0  0
  161.5200  204.0590  151.3300 C   0  0  0  0  0  0  0  0  0  0  0  0
  161.3810  202.6930  151.6160 C   0  0  0  0  0  3  0  0  0  0  0  0
  160.6710  202.2700  149.3420 C   0  0  0  0  0  0  0  0  0  0  0  0
  161.3660  205.9260  149.7450 N   0  0  0  0  0  2  0  0  0  0  0  0
  160.5580  206.6100  148.7450 C   0  0  0  0  0  2  0  0  0  0  0  0
  162.4920  208.1250  148.4690 C   0  0  0  0  0  1  0  0  0  0  0  0
  162.1600  206.2700  146.8730 C   0  0  0  0  0  1  0  0  0  0  0  0
  161.4560  207.2990  147.7350 C   0  0  0  0  0  3  0  0  0  0  0  0
  161.9540  204.9710  152.3420 N   0  0  0  0  0  2  0  0  0  0  0  0
  161.0620  205.5030  153.2850 N   0  0  0  0  0  2  0  0  0  0  0  0
  160.7650  208.7040  155.0920 N   0  0  0  0  0  0  0  0  0  0  0  0
  161.0110  209.2010  152.7690 C   0  0  0  0  0  3  0  0  0  0  0  0
  161.0820  207.8350  152.4920 C   0  0  0  0  0  3  0  0  0  0  0  0
  160.9920  206.9060  153.5350 C   0  0  0  0  0  0  0  0  0  0  0  0
  160.8330  207.3690  154.8420 C   0  0  0  0  0  3  0  0  0  0  0  0
  160.8490  209.6280  154.0930 C   0  0  0  0  0  0  0  0  0  0  0  0
  160.3020  211.8790  153.5810 O   0  0  0  0  0  0  0  0  0  0  0  0
  161.2190  211.5200  155.6470 O   0  0  0  0  0  1  0  0  0  0  0  0
  160.7720  211.0590  154.4140 C   0  0  0  0  0  0  0  0  0  0  0  0
  160.2010  201.3240  148.2900 C   0  0  0  0  0  2  0  0  0  0  0  0
  161.2510  201.1610  147.1980 C   0  0  1  0  0  3  0  0  0  0  0  0
  161.5540  199.8100  147.0180 O   0  0  0  0  0  1  0  0  0  0  0  0
  161.1850  203.0430  145.5240 N   0  0  0  0  0  1  0  0  0  0  0  0
  159.9450  201.1080  145.1950 O   0  0  0  0  0  0  0  0  0  0  0  0
  160.7550  201.7460  145.9190 C   0  0  0  0  0  0  0  0  0  0  0  0
  1  6  2  0  0  0  0
  1  2  1  0  0  0  0
  2  4  2  0  0  0  0
  3  5  2  0  0  0  0
  4  5  1  0  0  0  0
  4 12  1  0  0  0  0
  6  3  1  0  0  0  0
  7  2  1  0  0  0  0
  8  7  1  0  0  0  0
 10 11  1  0  0  0  0
 11  9  1  0  0  0  0
 11  8  1  0  0  0  0
 12 13  1  0  0  0  0
 13 17  1  0  0  0  0
 15 19  1  0  0  0  0
 16 15  2  0  0  0  0
 16 17  1  0  0  0  0
 17 18  2  0  0  0  0
 18 14  1  0  0  0  0
 19 22  1  0  0  0  0
 19 14  2  0  0  0  0
 20 22  2  0  0  0  0
 22 21  1  0  0  0  0
 23  6  1  0  0  0  0
 24 25  1  6  0  0  0
 24 23  1  0  0  0  0
 26 28  1  0  0  0  0
 27 28  2  0  0  0  0
 28 24  1  0  0  0  0
M  END
>  <MODEL>
1

>  <REMARK>
 VINA RESULT:      -7.9      0.000      0.000
  Name = 
  10 active torsions:
  status: ('A' for Active; 'I' for Inactive)
    1  A    between atoms: N_2  and  C_15
    2  A    between atoms: N_2  and  N_23
    3  A    between atoms: C_7  and  N_11
    4  A    between atoms: C_8  and  N_11
    5  A    between atoms: C_8  and  C_14
    6  A    between atoms: C_18  and  C_25
    7  A    between atoms: C_18  and  C_26
    8  A    between atoms: CA_19  and  C_22
    9  A    between atoms: N_23  and  C_24
   10  A    between atoms: C_26  and  C_28
                            x       y       z     vdW  Elec       q    Type
                         _______ _______ _______ _____ _____    ______ ____

>  <TORSDO>
F 10

$$$$
=
 OpenBabel11042421023D

 28 29  0  0  1  0  0  0  0  0999 V2000
  161.0600  208.2620  152.6200 C   0  0  0  0  0  3  0  0  0  0  0  0
  161.4420  207.0960  151.9390 C   0  0  0  0  0  0  0  0  0  0  0  0
  160.7540  206.9920  154.6560 C   0  0  0  0  0  3  0  0  0  0  0  0
  161.4770  205.8710  152.6270 C   0  0  0  0  0  0  0  0  0  0  0  0
  161.1330  205.8270  153.9860 C   0  0  0  0  0  3  0  0  0  0  0  0
  160.7130  208.2110  153.9730 C   0  0  0  0  0  0  0  0  0  0  0  0
  161.7960  207.1430  150.5530 N   0  0  0  0  0  2  0  0  0  0  0  0
  160.8300  206.9610  149.4790 C   0  0  0  0  0  2  0  0  0  0  0  0
  162.1490  208.8540  148.5920 C   0  0  0  0  0  1  0  0  0  0  0  0
  162.1830  206.6860  147.4100 C   0  0  0  0  0  1  0  0  0  0  0  0
  161.3240  207.6410  148.2160 C   0  0  0  0  0  3  0  0  0  0  0  0
  161.8660  204.6790  151.9400 N   0  0  0  0  0  2  0  0  0  0  0  0
  160.9390  203.6770  151.6210 N   0  0  0  0  0  2  0  0  0  0  0  0
  160.7030  201.0430  149.0500 N   0  0  0  0  0  0  0  0  0  0  0  0
  161.1930  203.0990  147.9400 C   0  0  0  0  0  3  0  0  0  0  0  0
  161.1940  203.7550  149.1710 C   0  0  0  0  0  3  0  0  0  0  0  0
  160.9450  203.0350  150.3450 C   0  0  0  0  0  0  0  0  0  0  0  0
  160.6980  201.6640  150.2600 C   0  0  0  0  0  3  0  0  0  0  0  0
  160.9420  201.7220  147.8940 C   0  0  0  0  0  0  0  0  0  0  0  0
  160.4790  201.5530  145.5720 O   0  0  0  0  0  0  0  0  0  0  0  0
  161.4350  199.7100  146.5360 O   0  0  0  0  0  1  0  0  0  0  0  0
  160.9350  201.0050  146.6110 C   0  0  0  0  0  0  0  0  0  0  0  0
  160.3250  209.4580  154.6910 C   0  0  0  0  0  2  0  0  0  0  0  0
  161.3880  210.5360  154.5200 C   0  0  1  0  0  3  0  0  0  0  0  0
  160.8130  211.7030  154.0120 O   0  0  0  0  0  1  0  0  0  0  0  0
  161.2480  211.1500  156.9600 N   0  0  0  0  0  1  0  0  0  0  0  0
  163.3000  210.7880  155.9360 O   0  0  0  0  0  0  0  0  0  0  0  0
  162.0440  210.8200  155.8290 C   0  0  0  0  0  0  0  0  0  0  0  0
  1  6  1  0  0  0  0
  2  1  2  0  0  0  0
  2  4  1  0  0  0  0
  4  5  2  0  0  0  0
  5  3  1  0  0  0  0
  6  3  2  0  0  0  0
  6 23  1  0  0  0  0
  7  2  1  0  0  0  0
  8  7  1  0  0  0  0
 10 11  1  0  0  0  0
 11  9  1  0  0  0  0
 11  8  1  0  0  0  0
 12  4  1  0  0  0  0
 13 12  1  0  0  0  0
 14 18  1  0  0  0  0
 15 16  2  0  0  0  0
 16 17  1  0  0  0  0
 17 13  1  0  0  0  0
 18 17  2  0  0  0  0
 19 15  1  0  0  0  0
 19 14  2  0  0  0  0
 20 22  2  0  0  0  0
 21 22  1  0  0  0  0
 22 19  1  0  0  0  0
 24 25  1  1  0  0  0
 24 23  1  0  0  0  0
 24 28  1  0  0  0  0
 28 27  2  0  0  0  0
 28 26  1  0  0  0  0
M  END
>  <MODEL>
2

>  <REMARK>
 VINA RESULT:      -7.7      1.428      8.728
  Name = 
  10 active torsions:
  status: ('A' for Active; 'I' for Inactive)
    1  A    between atoms: N_2  and  C_15
    2  A    between atoms: N_2  and  N_23
    3  A    between atoms: C_7  and  N_11
    4  A    between atoms: C_8  and  N_11
    5  A    between atoms: C_8  and  C_14
    6  A    between atoms: C_18  and  C_25
    7  A    between atoms: C_18  and  C_26
    8  A    between atoms: CA_19  and  C_22
    9  A    between atoms: N_23  and  C_24
   10  A    between atoms: C_26  and  C_28
                            x       y       z     vdW  Elec       q    Type
                         _______ _______ _______ _____ _____    ______ ____

>  <TORSDO>
F 10

$$$$
=
 OpenBabel11042421023D

 28 29  0  0  1  0  0  0  0  0999 V2000
  161.2110  208.6420  152.6290 C   0  0  0  0  0  3  0  0  0  0  0  0
  161.5220  207.4110  152.0310 C   0  0  0  0  0  0  0  0  0  0  0  0
  160.8210  207.5360  154.7440 C   0  0  0  0  0  3  0  0  0  0  0  0
  161.4800  206.2360  152.8010 C   0  0  0  0  0  0  0  0  0  0  0  0
  161.1290  206.3070  154.1570 C   0  0  0  0  0  3  0  0  0  0  0  0
  160.8570  208.7050  153.9800 C   0  0  0  0  0  0  0  0  0  0  0  0
  161.8840  207.3420  150.6480 N   0  0  0  0  0  2  0  0  0  0  0  0
  160.9120  207.1450  149.5820 C   0  0  0  0  0  2  0  0  0  0  0  0
  162.1800  209.0510  148.6510 C   0  0  0  0  0  1  0  0  0  0  0  0
  162.3070  206.8470  147.5440 C   0  0  0  0  0  1  0  0  0  0  0  0
  161.4030  207.7980  148.3040 C   0  0  0  0  0  3  0  0  0  0  0  0
  161.7970  204.9780  152.2000 N   0  0  0  0  0  2  0  0  0  0  0  0
  160.7980  204.0670  151.8290 N   0  0  0  0  0  2  0  0  0  0  0  0
  160.7660  201.2460  149.4530 N   0  0  0  0  0  0  0  0  0  0  0  0
  161.1910  203.2390  148.2090 C   0  0  0  0  0  3  0  0  0  0  0  0
  161.1230  203.9810  149.3880 C   0  0  0  0  0  3  0  0  0  0  0  0
  160.8740  203.3360  150.6050 C   0  0  0  0  0  0  0  0  0  0  0  0
  160.6960  201.9520  150.6140 C   0  0  0  0  0  3  0  0  0  0  0  0
  161.0080  201.8510  148.2570 C   0  0  0  0  0  0  0  0  0  0  0  0
  161.5600  199.8830  147.0510 O   0  0  0  0  0  1  0  0  0  0  0  0
  160.5940  201.5620  145.8330 O   0  0  0  0  0  0  0  0  0  0  0  0
  161.0730  201.0450  147.0300 C   0  0  0  0  0  0  0  0  0  0  0  0
  160.5450  210.0200  154.6080 C   0  0  0  0  0  2  0  0  0  0  0  0
  159.3700  209.8970  155.5700 C   0  0  1  0  0  3  0  0  0  0  0  0
  159.7870  210.1570  156.8770 O   0  0  0  0  0  1  0  0  0  0  0  0
  158.3190  211.4650  153.9010 N   0  0  0  0  0  1  0  0  0  0  0  0
  157.3600  211.1260  155.9880 O   0  0  0  0  0  0  0  0  0  0  0  0
  158.2900  210.8500  155.1820 C   0  0  0  0  0  0  0  0  0  0  0  0
  1  6  1  0  0  0  0
  2  1  2  0  0  0  0
  2  4  1  0  0  0  0
  4  5  2  0  0  0  0
  5  3  1  0  0  0  0
  6 23  1  0  0  0  0
  6  3  2  0  0  0  0
  7  2  1  0  0  0  0
  8  7  1  0  0  0  0
 10 11  1  0  0  0  0
 11  9  1  0  0  0  0
 11  8  1  0  0  0  0
 12  4  1  0  0  0  0
 13 12  1  0  0  0  0
 14 18  1  0  0  0  0
 15 19  1  0  0  0  0
 15 16  2  0  0  0  0
 16 17  1  0  0  0  0
 17 18  2  0  0  0  0
 17 13  1  0  0  0  0
 19 14  2  0  0  0  0
 21 22  2  0  0  0  0
 22 20  1  0  0  0  0
 22 19  1  0  0  0  0
 23 24  1  0  0  0  0
 24 25  1  1  0  0  0
 26 28  1  0  0  0  0
 28 24  1  0  0  0  0
 28 27  2  0  0  0  0
M  END
>  <MODEL>
3

>  <REMARK>
 VINA RESULT:      -7.3      1.731      8.643
  Name = 
  10 active torsions:
  status: ('A' for Active; 'I' for Inactive)
    1  A    between atoms: N_2  and  C_15
    2  A    between atoms: N_2  and  N_23
    3  A    between atoms: C_7  and  N_11
    4  A    between atoms: C_8  and  N_11
    5  A    between atoms: C_8  and  C_14
    6  A    between atoms: C_18  and  C_25
    7  A    between atoms: C_18  and  C_26
    8  A    between atoms: CA_19  and  C_22
    9  A    between atoms: N_23  and  C_24
   10  A    between atoms: C_26  and  C_28
                            x       y       z     vdW  Elec       q    Type
                         _______ _______ _______ _____ _____    ______ ____

>  <TORSDO>
F 10

$$$$
=
 OpenBabel11042421023D

 28 29  0  0  1  0  0  0  0  0999 V2000
  161.1220  204.8610  148.8150 C   0  0  0  0  0  3  0  0  0  0  0  0
  160.9020  204.6810  150.1890 C   0  0  0  0  0  0  0  0  0  0  0  0
  161.8060  207.1480  149.2050 C   0  0  0  0  0  3  0  0  0  0  0  0
  161.1370  205.7480  151.0730 C   0  0  0  0  0  0  0  0  0  0  0  0
  161.5890  206.9770  150.5740 C   0  0  0  0  0  3  0  0  0  0  0  0
  161.5680  206.0910  148.3230 C   0  0  0  0  0  0  0  0  0  0  0  0
  160.4440  203.4240  150.6970 N   0  0  0  0  0  2  0  0  0  0  0  0
  161.2810  202.2330  150.7430 C   0  0  0  0  0  2  0  0  0  0  0  0
  159.2790  201.4960  149.4960 C   0  0  0  0  0  1  0  0  0  0  0  0
  161.5200  201.1270  148.5280 C   0  0  0  0  0  1  0  0  0  0  0  0
  160.7220  201.1700  149.8160 C   0  0  0  0  0  3  0  0  0  0  0  0
  160.9170  205.5730  152.4760 N   0  0  0  0  0  2  0  0  0  0  0  0
  161.6430  206.2980  153.4310 N   0  0  0  0  0  2  0  0  0  0  0  0
  160.5940  209.7270  154.2970 N   0  0  0  0  0  0  0  0  0  0  0  0
  159.8210  208.2720  156.0260 C   0  0  0  0  0  3  0  0  0  0  0  0
  160.3850  207.1870  155.3540 C   0  0  0  0  0  3  0  0  0  0  0  0
  161.0560  207.3880  154.1430 C   0  0  0  0  0  0  0  0  0  0  0  0
  161.1490  208.6810  153.6260 C   0  0  0  0  0  3  0  0  0  0  0  0
  159.9360  209.5560  155.4770 C   0  0  0  0  0  0  0  0  0  0  0  0
  158.1090  210.9190  156.1370 O   0  0  0  0  0  0  0  0  0  0  0  0
  160.1740  211.6050  156.8480 O   0  0  0  0  0  1  0  0  0  0  0  0
  159.3520  210.7170  156.1630 C   0  0  0  0  0  0  0  0  0  0  0  0
  161.8140  206.2650  146.8630 C   0  0  0  0  0  2  0  0  0  0  0  0
  160.8950  205.3670  146.0460 C   0  0  1  0  0  3  0  0  0  0  0  0
  160.3230  206.0890  144.9970 O   0  0  0  0  0  1  0  0  0  0  0  0
  160.9910  202.9780  145.2520 N   0  0  0  0  0  1  0  0  0  0  0  0
  162.8990  204.3010  145.2900 O   0  0  0  0  0  0  0  0  0  0  0  0
  161.6610  204.2060  145.5060 C   0  0  0  0  0  0  0  0  0  0  0  0
  1  2  1  0  0  0  0
  2  7  1  0  0  0  0
  2  4  2  0  0  0  0
  3  5  2  0  0  0  0
  4 12  1  0  0  0  0
  5  4  1  0  0  0  0
  6  1  2  0  0  0  0
  6  3  1  0  0  0  0
  7  8  1  0  0  0  0
  9 11  1  0  0  0  0
 10 11  1  0  0  0  0
 11  8  1  0  0  0  0
 12 13  1  0  0  0  0
 13 17  1  0  0  0  0
 14 19  1  0  0  0  0
 16 15  1  0  0  0  0
 17 16  2  0  0  0  0
 18 17  1  0  0  0  0
 18 14  2  0  0  0  0
 19 15  2  0  0  0  0
 19 22  1  0  0  0  0
 20 22  2  0  0  0  0
 22 21  1  0  0  0  0
 23  6  1  0  0  0  0
 24 25  1  6  0  0  0
 24 23  1  0  0  0  0
 26 28  1  0  0  0  0
 27 28  2  0  0  0  0
 28 24  1  0  0  0  0
M  END
>  <MODEL>
4

>  <REMARK>
 VINA RESULT:      -7.2      1.967      3.795
  Name = 
  10 active torsions:
  status: ('A' for Active; 'I' for Inactive)
    1  A    between atoms: N_2  and  C_15
    2  A    between atoms: N_2  and  N_23
    3  A    between atoms: C_7  and  N_11
    4  A    between atoms: C_8  and  N_11
    5  A    between atoms: C_8  and  C_14
    6  A    between atoms: C_18  and  C_25
    7  A    between atoms: C_18  and  C_26
    8  A    between atoms: CA_19  and  C_22
    9  A    between atoms: N_23  and  C_24
   10  A    between atoms: C_26  and  C_28
                            x       y       z     vdW  Elec       q    Type
                         _______ _______ _______ _____ _____    ______ ____

>  <TORSDO>
F 10

$$$$
=
 OpenBabel11042421023D

 28 29  0  0  1  0  0  0  0  0999 V2000
  161.4950  208.1700  151.3310 C   0  0  0  0  0  3  0  0  0  0  0  0
  161.2760  207.4340  150.1560 C   0  0  0  0  0  0  0  0  0  0  0  0
  162.1850  210.0840  150.0230 C   0  0  0  0  0  3  0  0  0  0  0  0
  161.5160  208.0330  148.9080 C   0  0  0  0  0  0  0  0  0  0  0  0
  161.9700  209.3590  148.8500 C   0  0  0  0  0  3  0  0  0  0  0  0
  161.9520  209.4900  151.2660 C   0  0  0  0  0  0  0  0  0  0  0  0
  160.8100  206.0830  150.2190 N   0  0  0  0  0  2  0  0  0  0  0  0
  161.5800  205.0030  150.8190 C   0  0  0  0  0  2  0  0  0  0  0  0
  161.0850  202.8990  152.0190 C   0  0  0  0  0  1  0  0  0  0  0  0
  161.2190  205.0180  153.2800 C   0  0  0  0  0  1  0  0  0  0  0  0
  160.8020  204.3860  151.9670 C   0  0  0  0  0  3  0  0  0  0  0  0
  161.2940  207.2900  147.7070 N   0  0  0  0  0  2  0  0  0  0  0  0
  162.2170  206.3390  147.2480 N   0  0  0  0  0  2  0  0  0  0  0  0
  161.2230  203.4430  145.1910 N   0  0  0  0  0  0  0  0  0  0  0  0
  161.2080  202.7510  147.4770 C   0  0  0  0  0  3  0  0  0  0  0  0
  161.6050  204.0330  147.8590 C   0  0  0  0  0  3  0  0  0  0  0  0
  161.8100  205.0190  146.8880 C   0  0  0  0  0  0  0  0  0  0  0  0
  161.6120  204.6980  145.5450 C   0  0  0  0  0  3  0  0  0  0  0  0
  161.0180  202.4660  146.1180 C   0  0  0  0  0  0  0  0  0  0  0  0
  159.6930  200.9830  144.8230 O   0  0  0  0  0  0  0  0  0  0  0  0
  161.2080  200.0000  146.2290 O   0  0  0  0  0  1  0  0  0  0  0  0
  160.6000  201.1260  145.6860 C   0  0  0  0  0  0  0  0  0  0  0  0
  162.1650  210.2680  152.5200 C   0  0  0  0  0  2  0  0  0  0  0  0
  160.9160  210.2470  153.3910 C   0  0  1  0  0  3  0  0  0  0  0  0
  161.2620  210.0250  154.7250 O   0  0  0  0  0  1  0  0  0  0  0  0
  159.5990  212.1350  154.4170 N   0  0  0  0  0  1  0  0  0  0  0  0
  160.0590  212.0990  152.1410 O   0  0  0  0  0  0  0  0  0  0  0  0
  160.1820  211.5390  153.2640 C   0  0  0  0  0  0  0  0  0  0  0  0
  2  7  1  0  0  0  0
  2  1  2  0  0  0  0
  3  6  2  0  0  0  0
  4  2  1  0  0  0  0
  5  4  2  0  0  0  0
  5  3  1  0  0  0  0
  6  1  1  0  0  0  0
  6 23  1  0  0  0  0
  7  8  1  0  0  0  0
  8 11  1  0  0  0  0
 11  9  1  0  0  0  0
 11 10  1  0  0  0  0
 12  4  1  0  0  0  0
 13 12  1  0  0  0  0
 14 18  2  0  0  0  0
 14 19  1  0  0  0  0
 15 16  1  0  0  0  0
 17 13  1  0  0  0  0
 17 16  2  0  0  0  0
 18 17  1  0  0  0  0
 19 15  2  0  0  0  0
 20 22  2  0  0  0  0
 22 19  1  0  0  0  0
 22 21  1  0  0  0  0
 23 24  1  0  0  0  0
 24 25  1  1  0  0  0
 27 28  2  0  0  0  0
 28 24  1  0  0  0  0
 28 26  1  0  0  0  0
M  END
>  <MODEL>
5

>  <REMARK>
 VINA RESULT:      -7.0      1.703      9.209
  Name = 
  10 active torsions:
  status: ('A' for Active; 'I' for Inactive)
    1  A    between atoms: N_2  and  C_15
    2  A    between atoms: N_2  and  N_23
    3  A    between atoms: C_7  and  N_11
    4  A    between atoms: C_8  and  N_11
    5  A    between atoms: C_8  and  C_14
    6  A    between atoms: C_18  and  C_25
    7  A    between atoms: C_18  and  C_26
    8  A    between atoms: CA_19  and  C_22
    9  A    between atoms: N_23  and  C_24
   10  A    between atoms: C_26  and  C_28
                            x       y       z     vdW  Elec       q    Type
                         _______ _______ _______ _____ _____    ______ ____

>  <TORSDO>
F 10

$$$$
=
 OpenBabel11042421023D

 28 29  0  0  1  0  0  0  0  0999 V2000
  161.3500  209.9870  152.0360 C   0  0  0  0  0  3  0  0  0  0  0  0
  161.8410  209.4600  150.8310 C   0  0  0  0  0  0  0  0  0  0  0  0
  160.9970  207.7530  152.8900 C   0  0  0  0  0  3  0  0  0  0  0  0
  161.9080  208.0670  150.6610 C   0  0  0  0  0  0  0  0  0  0  0  0
  161.4840  207.2200  151.6950 C   0  0  0  0  0  3  0  0  0  0  0  0
  160.9250  209.1370  153.0610 C   0  0  0  0  0  0  0  0  0  0  0  0
  162.2760  210.3260  149.7790 N   0  0  0  0  0  2  0  0  0  0  0  0
  161.7040  211.6450  149.5480 C   0  0  0  0  0  2  0  0  0  0  0  0
  160.7390  212.0210  147.3040 C   0  0  0  0  0  1  0  0  0  0  0  0
  162.5050  213.5320  148.1390 C   0  0  0  0  0  1  0  0  0  0  0  0
  162.0040  212.1010  148.1320 C   0  0  0  0  0  3  0  0  0  0  0  0
  162.4080  207.5210  149.4380 N   0  0  0  0  0  2  0  0  0  0  0  0
  161.5490  207.0210  148.4490 N   0  0  0  0  0  2  0  0  0  0  0  0
  161.5940  203.7730  146.7010 N   0  0  0  0  0  0  0  0  0  0  0  0
  160.9140  203.3760  148.9550 C   0  0  0  0  0  3  0  0  0  0  0  0
  161.0250  204.7410  149.2210 C   0  0  0  0  0  3  0  0  0  0  0  0
  161.4250  205.6190  148.2080 C   0  0  0  0  0  0  0  0  0  0  0  0
  161.7090  205.1080  146.9410 C   0  0  0  0  0  3  0  0  0  0  0  0
  161.2060  202.8990  147.6710 C   0  0  0  0  0  0  0  0  0  0  0  0
  160.7970  201.0810  146.2010 O   0  0  0  0  0  0  0  0  0  0  0  0
  161.3310  200.5230  148.3550 O   0  0  0  0  0  1  0  0  0  0  0  0
  161.0980  201.4670  147.3620 C   0  0  0  0  0  0  0  0  0  0  0  0
  160.4210  209.7090  154.3420 C   0  0  0  0  0  2  0  0  0  0  0  0
  161.4570  210.6310  154.9710 C   0  0  1  0  0  3  0  0  0  0  0  0
  160.8740  211.8550  155.3050 O   0  0  0  0  0  1  0  0  0  0  0  0
  162.6290  210.8080  157.1940 N   0  0  0  0  0  1  0  0  0  0  0  0
  162.0230  208.7420  156.3250 O   0  0  0  0  0  0  0  0  0  0  0  0
  162.0380  209.9950  156.1890 C   0  0  0  0  0  0  0  0  0  0  0  0
  1  6  1  0  0  0  0
  2  1  2  0  0  0  0
  3  6  2  0  0  0  0
  4  2  1  0  0  0  0
  4  5  2  0  0  0  0
  5  3  1  0  0  0  0
  6 23  1  0  0  0  0
  7  2  1  0  0  0  0
  8  7  1  0  0  0  0
  9 11  1  0  0  0  0
 11 10  1  0  0  0  0
 11  8  1  0  0  0  0
 12  4  1  0  0  0  0
 13 12  1  0  0  0  0
 14 18  2  0  0  0  0
 14 19  1  0  0  0  0
 15 16  1  0  0  0  0
 17 13  1  0  0  0  0
 17 16  2  0  0  0  0
 18 17  1  0  0  0  0
 19 15  2  0  0  0  0
 20 22  2  0  0  0  0
 22 19  1  0  0  0  0
 22 21  1  0  0  0  0
 23 24  1  0  0  0  0
 24 25  1  1  0  0  0
 24 28  1  0  0  0  0
 28 27  2  0  0  0  0
 28 26  1  0  0  0  0
M  END
>  <MODEL>
6

>  <REMARK>
 VINA RESULT:      -6.9      2.386      9.000
  Name = 
  10 active torsions:
  status: ('A' for Active; 'I' for Inactive)
    1  A    between atoms: N_2  and  C_15
    2  A    between atoms: N_2  and  N_23
    3  A    between atoms: C_7  and  N_11
    4  A    between atoms: C_8  and  N_11
    5  A    between atoms: C_8  and  C_14
    6  A    between atoms: C_18  and  C_25
    7  A    between atoms: C_18  and  C_26
    8  A    between atoms: CA_19  and  C_22
    9  A    between atoms: N_23  and  C_24
   10  A    between atoms: C_26  and  C_28
                            x       y       z     vdW  Elec       q    Type
                         _______ _______ _______ _____ _____    ______ ____

>  <TORSDO>
F 10

$$$$
=
 OpenBabel11042421023D

 28 29  0  0  1  0  0  0  0  0999 V2000
  161.9890  210.3600  150.9110 C   0  0  0  0  0  3  0  0  0  0  0  0
  161.9910  209.0410  151.3920 C   0  0  0  0  0  0  0  0  0  0  0  0
  161.9410  209.5470  148.6340 C   0  0  0  0  0  3  0  0  0  0  0  0
  161.9680  207.9710  150.4820 C   0  0  0  0  0  0  0  0  0  0  0  0
  161.9420  208.2320  149.1040 C   0  0  0  0  0  3  0  0  0  0  0  0
  161.9680  210.6130  149.5370 C   0  0  0  0  0  0  0  0  0  0  0  0
  162.0140  208.7780  152.7990 N   0  0  0  0  0  2  0  0  0  0  0  0
  161.0420  209.3360  153.7280 C   0  0  0  0  0  2  0  0  0  0  0  0
  159.6490  208.8170  155.7030 C   0  0  0  0  0  1  0  0  0  0  0  0
  160.7740  206.9840  154.4890 C   0  0  0  0  0  1  0  0  0  0  0  0
  160.8950  208.4280  154.9340 C   0  0  0  0  0  3  0  0  0  0  0  0
  161.9690  206.6250  150.9640 N   0  0  0  0  0  2  0  0  0  0  0  0
  160.8710  205.7740  150.7720 N   0  0  0  0  0  2  0  0  0  0  0  0
  160.7810  202.3040  149.5220 N   0  0  0  0  0  0  0  0  0  0  0  0
  161.2780  203.7300  147.6720 C   0  0  0  0  0  3  0  0  0  0  0  0
  161.2200  204.8370  148.5200 C   0  0  0  0  0  3  0  0  0  0  0  0
  160.9380  204.6610  149.8790 C   0  0  0  0  0  0  0  0  0  0  0  0
  160.7190  203.3710  150.3640 C   0  0  0  0  0  3  0  0  0  0  0  0
  161.0540  202.4510  148.1950 C   0  0  0  0  0  0  0  0  0  0  0  0
  161.5550  200.1720  147.7610 O   0  0  0  0  0  1  0  0  0  0  0  0
  160.6630  201.3490  146.0120 O   0  0  0  0  0  0  0  0  0  0  0  0
  161.1080  201.2670  147.3260 C   0  0  0  0  0  0  0  0  0  0  0  0
  161.9490  212.0170  149.0370 C   0  0  0  0  0  2  0  0  0  0  0  0
  161.6120  212.0610  147.5530 C   0  0  1  0  0  3  0  0  0  0  0  0
  160.2370  212.2270  147.3750 O   0  0  0  0  0  1  0  0  0  0  0  0
  162.3110  213.3080  145.4780 N   0  0  0  0  0  1  0  0  0  0  0  0
  163.0150  213.9980  147.5790 O   0  0  0  0  0  0  0  0  0  0  0  0
  162.3480  213.1790  146.8930 C   0  0  0  0  0  0  0  0  0  0  0  0
  1  2  1  0  0  0  0
  2  7  1  0  0  0  0
  3  5  2  0  0  0  0
  3  6  1  0  0  0  0
  4 12  1  0  0  0  0
  4  2  2  0  0  0  0
  5  4  1  0  0  0  0
  6  1  2  0  0  0  0
  7  8  1  0  0  0  0
  8 11  1  0  0  0  0
 10 11  1  0  0  0  0
 11  9  1  0  0  0  0
 13 12  1  0  0  0  0
 14 18  1  0  0  0  0
 15 19  1  0  0  0  0
 15 16  2  0  0  0  0
 16 17  1  0  0  0  0
 17 18  2  0  0  0  0
 17 13  1  0  0  0  0
 19 14  2  0  0  0  0
 21 22  2  0  0  0  0
 22 20  1  0  0  0  0
 22 19  1  0  0  0  0
 23  6  1  0  0  0  0
 24 25  1  1  0  0  0
 24 23  1  0  0  0  0
 26 28  1  0  0  0  0
 28 24  1  0  0  0  0
 28 27  2  0  0  0  0
M  END
>  <MODEL>
7

>  <REMARK>
 VINA RESULT:      -6.9      3.184      8.707
  Name = 
  10 active torsions:
  status: ('A' for Active; 'I' for Inactive)
    1  A    between atoms: N_2  and  C_15
    2  A    between atoms: N_2  and  N_23
    3  A    between atoms: C_7  and  N_11
    4  A    between atoms: C_8  and  N_11
    5  A    between atoms: C_8  and  C_14
    6  A    between atoms: C_18  and  C_25
    7  A    between atoms: C_18  and  C_26
    8  A    between atoms: CA_19  and  C_22
    9  A    between atoms: N_23  and  C_24
   10  A    between atoms: C_26  and  C_28
                            x       y       z     vdW  Elec       q    Type
                         _______ _______ _______ _____ _____    ______ ____

>  <TORSDO>
F 10

$$$$
=
 OpenBabel11042421023D

 28 29  0  0  1  0  0  0  0  0999 V2000
  161.1770  208.9170  153.3560 C   0  0  0  0  0  3  0  0  0  0  0  0
  161.5450  207.8370  152.5390 C   0  0  0  0  0  0  0  0  0  0  0  0
  160.4630  207.3870  155.0880 C   0  0  0  0  0  3  0  0  0  0  0  0
  161.3680  206.5240  153.0060 C   0  0  0  0  0  0  0  0  0  0  0  0
  160.8270  206.3070  154.2810 C   0  0  0  0  0  3  0  0  0  0  0  0
  160.6340  208.6940  154.6250 C   0  0  0  0  0  0  0  0  0  0  0  0
  162.1010  208.0610  151.2400 N   0  0  0  0  0  2  0  0  0  0  0  0
  162.3310  209.3910  150.6920 C   0  0  0  0  0  2  0  0  0  0  0  0
  162.3290  210.7320  148.6160 C   0  0  0  0  0  1  0  0  0  0  0  0
  162.3280  208.2660  148.4740 C   0  0  0  0  0  1  0  0  0  0  0  0
  161.8250  209.4590  149.2640 C   0  0  0  0  0  3  0  0  0  0  0  0
  161.7420  205.4180  152.1810 N   0  0  0  0  0  2  0  0  0  0  0  0
  160.8720  204.3420  151.9520 N   0  0  0  0  0  2  0  0  0  0  0  0
  161.2090  203.5100  148.3750 N   0  0  0  0  0  0  0  0  0  0  0  0
  160.8260  201.4730  149.5620 C   0  0  0  0  0  3  0  0  0  0  0  0
  160.7650  202.1900  150.7570 C   0  0  0  0  0  3  0  0  0  0  0  0
  160.9290  203.5800  150.7460 C   0  0  0  0  0  0  0  0  0  0  0  0
  161.1530  204.2260  149.5300 C   0  0  0  0  0  3  0  0  0  0  0  0
  161.0520  202.1560  148.3600 C   0  0  0  0  0  0  0  0  0  0  0  0
  161.4440  200.2090  147.0610 O   0  0  0  0  0  1  0  0  0  0  0  0
  160.8320  202.0810  145.8950 O   0  0  0  0  0  0  0  0  0  0  0  0
  161.1220  201.4270  147.0860 C   0  0  0  0  0  0  0  0  0  0  0  0
  160.2620  209.8490  155.4900 C   0  0  0  0  0  2  0  0  0  0  0  0
  159.0890  210.6180  154.8960 C   0  0  1  0  0  3  0  0  0  0  0  0
  158.0480  210.7010  155.8230 O   0  0  0  0  0  1  0  0  0  0  0  0
  159.2960  213.0840  155.3730 N   0  0  0  0  0  1  0  0  0  0  0  0
  160.0770  212.1830  153.3810 O   0  0  0  0  0  0  0  0  0  0  0  0
  159.5240  211.9880  154.4960 C   0  0  0  0  0  0  0  0  0  0  0  0
  1  6  1  0  0  0  0
  2  4  1  0  0  0  0
  2  1  2  0  0  0  0
  4  5  2  0  0  0  0
  5  3  1  0  0  0  0
  6  3  2  0  0  0  0
  6 23  1  0  0  0  0
  7  2  1  0  0  0  0
  8  7  1  0  0  0  0
  9 11  1  0  0  0  0
 10 11  1  0  0  0  0
 11  8  1  0  0  0  0
 12  4  1  0  0  0  0
 13 12  1  0  0  0  0
 14 18  1  0  0  0  0
 15 16  2  0  0  0  0
 17 16  1  0  0  0  0
 17 13  1  0  0  0  0
 18 17  2  0  0  0  0
 19 14  2  0  0  0  0
 19 15  1  0  0  0  0
 20 22  1  0  0  0  0
 21 22  2  0  0  0  0
 22 19  1  0  0  0  0
 24 23  1  0  0  0  0
 24 25  1  1  0  0  0
 27 28  2  0  0  0  0
 28 24  1  0  0  0  0
 28 26  1  0  0  0  0
M  END
>  <MODEL>
8

>  <REMARK>
 VINA RESULT:      -6.8      1.718      8.765
  Name = 
  10 active torsions:
  status: ('A' for Active; 'I' for Inactive)
    1  A    between atoms: N_2  and  C_15
    2  A    between atoms: N_2  and  N_23
    3  A    between atoms: C_7  and  N_11
    4  A    between atoms: C_8  and  N_11
    5  A    between atoms: C_8  and  C_14
    6  A    between atoms: C_18  and  C_25
    7  A    between atoms: C_18  and  C_26
    8  A    between atoms: CA_19  and  C_22
    9  A    between atoms: N_23  and  C_24
   10  A    between atoms: C_26  and  C_28
                            x       y       z     vdW  Elec       q    Type
                         _______ _______ _______ _____ _____    ______ ____

>  <TORSDO>
F 10

$$$$
=
 OpenBabel11042421023D

 28 29  0  0  1  0  0  0  0  0999 V2000
  161.2220  203.7660  147.8380 C   0  0  0  0  0  3  0  0  0  0  0  0
  161.1250  204.9150  148.6380 C   0  0  0  0  0  0  0  0  0  0  0  0
  161.5270  205.1400  145.8710 C   0  0  0  0  0  3  0  0  0  0  0  0
  161.2300  206.1840  148.0440 C   0  0  0  0  0  0  0  0  0  0  0  0
  161.4310  206.2890  146.6600 C   0  0  0  0  0  3  0  0  0  0  0  0
  161.4190  203.8770  146.4580 C   0  0  0  0  0  0  0  0  0  0  0  0
  160.9230  204.8050  150.0510 N   0  0  0  0  0  2  0  0  0  0  0  0
  161.9650  204.3710  150.9710 C   0  0  0  0  0  2  0  0  0  0  0  0
  160.4400  203.6250  152.7660 C   0  0  0  0  0  1  0  0  0  0  0  0
  160.8800  202.1370  150.8450 C   0  0  0  0  0  1  0  0  0  0  0  0
  161.4870  203.1740  151.7690 C   0  0  0  0  0  3  0  0  0  0  0  0
  161.1330  207.3590  148.8520 N   0  0  0  0  0  2  0  0  0  0  0  0
  162.1540  207.7300  149.7380 N   0  0  0  0  0  2  0  0  0  0  0  0
  162.0070  210.2040  152.4700 N   0  0  0  0  0  0  0  0  0  0  0  0
  160.8990  208.2260  153.2200 C   0  0  0  0  0  3  0  0  0  0  0  0
  161.1680  207.6190  151.9930 C   0  0  0  0  0  3  0  0  0  0  0  0
  161.8640  208.3230  151.0040 C   0  0  0  0  0  0  0  0  0  0  0  0
  162.2780  209.6290  151.2670 C   0  0  0  0  0  3  0  0  0  0  0  0
  161.3310  209.5390  153.4490 C   0  0  0  0  0  0  0  0  0  0  0  0
  161.6170  209.8050  155.7890 O   0  0  0  0  0  1  0  0  0  0  0  0
  160.1880  211.2830  154.7830 O   0  0  0  0  0  0  0  0  0  0  0  0
  161.0620  210.2030  154.7310 C   0  0  0  0  0  0  0  0  0  0  0  0
  161.5370  202.6500  145.6210 C   0  0  0  0  0  2  0  0  0  0  0  0
  160.4710  201.6300  145.9970 C   0  0  1  0  0  3  0  0  0  0  0  0
  159.6830  201.3220  144.8850 O   0  0  0  0  0  1  0  0  0  0  0  0
  161.2250  199.2460  145.6900 N   0  0  0  0  0  1  0  0  0  0  0  0
  161.5350  200.3450  147.7110 O   0  0  0  0  0  0  0  0  0  0  0  0
  161.1110  200.3910  146.5250 C   0  0  0  0  0  0  0  0  0  0  0  0
  1  2  1  0  0  0  0
  2  7  1  0  0  0  0
  3  6  1  0  0  0  0
  3  5  2  0  0  0  0
  4  2  2  0  0  0  0
  4 12  1  0  0  0  0
  5  4  1  0  0  0  0
  6  1  2  0  0  0  0
  7  8  1  0  0  0  0
  8 11  1  0  0  0  0
 10 11  1  0  0  0  0
 11  9  1  0  0  0  0
 12 13  1  0  0  0  0
 13 17  1  0  0  0  0
 14 19  1  0  0  0  0
 15 19  2  0  0  0  0
 16 15  1  0  0  0  0
 17 18  1  0  0  0  0
 17 16  2  0  0  0  0
 18 14  2  0  0  0  0
 19 22  1  0  0  0  0
 22 21  2  0  0  0  0
 22 20  1  0  0  0  0
 23 24  1  0  0  0  0
 23  6  1  0  0  0  0
 24 25  1  6  0  0  0
 24 28  1  0  0  0  0
 26 28  1  0  0  0  0
 28 27  2  0  0  0  0
M  END
>  <MODEL>
9

>  <REMARK>
 VINA RESULT:      -6.8      1.661      3.629
  Name = 
  10 active torsions:
  status: ('A' for Active; 'I' for Inactive)
    1  A    between atoms: N_2  and  C_15
    2  A    between atoms: N_2  and  N_23
    3  A    between atoms: C_7  and  N_11
    4  A    between atoms: C_8  and  N_11
    5  A    between atoms: C_8  and  C_14
    6  A    between atoms: C_18  and  C_25
    7  A    between atoms: C_18  and  C_26
    8  A    between atoms: CA_19  and  C_22
    9  A    between atoms: N_23  and  C_24
   10  A    between atoms: C_26  and  C_28
                            x       y       z     vdW  Elec       q    Type
                         _______ _______ _______ _____ _____    ______ ____

>  <TORSDO>
F 10

$$$$
