=
 OpenBabel11052410383D

 47 50  0  0  1  0  0  0  0  0999 V2000
  160.7410  212.8260  147.2790 C   0  0  1  0  0  3  0  0  0  0  0  0
  159.9240  212.1450  144.9880 C   0  0  0  0  0  3  0  0  0  0  0  0
  162.0970  213.1890  145.2110 C   0  0  0  0  0  3  0  0  0  0  0  0
  161.2930  212.5270  143.0220 C   0  0  0  0  0  0  0  0  0  0  0  0
  162.2820  213.0980  143.8280 C   0  0  0  0  0  3  0  0  0  0  0  0
  160.1070  212.0570  143.6050 C   0  0  0  0  0  3  0  0  0  0  0  0
  160.9190  212.7140  145.7960 C   0  0  0  0  0  0  0  0  0  0  0  0
  161.4830  212.4920  141.5420 C   0  0  0  0  0  2  0  0  0  0  0  0
  160.6300  211.3990  140.8780 C   0  0  1  0  0  3  0  0  0  0  0  0
  159.8030  211.9990  139.8110 N   0  0  0  0  0  0  0  0  0  0  0  0
  158.1400  213.5860  139.7180 C   0  0  0  0  0  2  0  0  0  0  0  0
  158.5410  212.3300  140.3420 N   0  0  0  0  0  2  0  0  0  0  0  0
  159.2900  214.1570  139.0420 N   0  0  0  0  0  2  0  0  0  0  0  0
  160.3810  213.2800  139.4130 C   0  0  0  0  0  2  0  0  0  0  0  0
  162.9260  210.8410  139.9830 C   0  0  0  0  0  1  0  0  0  0  0  0
  161.0180  209.7290  139.1490 O   0  0  0  0  0  1  0  0  0  0  0  0
  161.5520  210.2920  140.3130 C   0  0  2  0  0  3  0  0  0  0  0  0
  161.8350  212.1070  148.0140 C   0  0  0  0  0  0  0  0  0  0  0  0
  161.5500  210.9460  148.8060 N   0  0  0  0  0  2  0  0  0  0  0  0
  163.0110  212.5560  147.9550 O   0  0  0  0  0  0  0  0  0  0  0  0
  162.5470  210.3200  149.6680 C   0  0  0  0  0  2  0  0  0  0  0  0
  161.8730  209.6300  150.8480 C   0  0  0  0  0  2  0  0  0  0  0  0
  161.2610  207.2870  151.4770 C   0  0  0  0  0  3  0  0  0  0  0  0
  161.0040  205.5780  149.7700 C   0  0  0  0  0  0  0  0  0  0  0  0
  161.3500  206.2670  147.3270 C   0  0  0  0  0  1  0  0  0  0  0  0
  161.5700  207.8390  149.1780 N   0  0  0  0  0  0  0  0  0  0  0  0
  160.9850  205.9680  151.1130 C   0  0  0  0  0  3  0  0  0  0  0  0
  161.5580  208.2200  150.4840 C   0  0  0  0  0  0  0  0  0  0  0  0
  161.3060  206.5620  148.7890 C   0  0  0  0  0  0  0  0  0  0  0  0
  160.7420  204.1920  149.4830 N   0  0  0  0  0  0  0  0  0  0  0  0
  161.0610  203.1960  150.2430 C   0  0  0  0  0  3  0  0  0  0  0  0
  160.7200  201.8000  149.8510 C   0  0  0  0  0  2  0  0  0  0  0  0
  160.0440  201.7750  148.4850 C   0  0  0  0  0  2  0  0  0  0  0  0
  161.0020  201.5310  147.4610 O   0  0  0  0  0  0  0  0  0  0  0  0
  160.8520  202.0340  146.1670 C   0  0  0  0  0  0  0  0  0  0  0  0
  161.3640  203.1390  145.8390 O   0  0  0  0  0  0  0  0  0  0  0  0
  160.0970  201.2380  145.1600 C   0  0  0  0  0  1  0  0  0  0  0  0
  160.6680  214.2280  147.6630 N   0  0  0  0  0  2  0  0  0  0  0  0
  160.2080  214.2700  149.0400 C   0  0  0  0  0  2  0  0  0  0  0  0
  158.9600  213.6550  149.1280 O   0  0  0  0  0  0  0  0  0  0  0  0
  158.5550  213.8510  150.4520 C   0  0  0  0  0  2  0  0  0  0  0  0
  159.6490  213.3860  151.4030 C   0  0  0  0  0  2  0  0  0  0  0  0
  159.0620  212.8840  152.6870 C   0  0  0  0  0  0  0  0  0  0  0  0
  157.8680  213.0280  152.9050 O   0  0  0  0  0  0  0  0  0  0  0  0
  159.9170  212.1640  153.6840 C   0  0  0  0  0  3  0  0  0  0  0  0
  159.6980  210.6630  153.5600 C   0  0  0  0  0  2  0  0  0  0  0  0
  159.0530  211.4230  154.6930 C   0  0  0  0  0  2  0  0  0  0  0  0
  1 38  1  1  0  0  0
  1 18  1  0  0  0  0
  2  7  1  0  0  0  0
  3  7  2  0  0  0  0
  4  6  1  0  0  0  0
  4  5  2  0  0  0  0
  5  3  1  0  0  0  0
  6  2  2  0  0  0  0
  7  1  1  0  0  0  0
  8  4  1  0  0  0  0
  9  8  1  6  0  0  0
 10 12  1  0  0  0  0
 10  9  1  0  0  0  0
 11 12  1  0  0  0  0
 13 14  1  0  0  0  0
 13 11  1  0  0  0  0
 14 10  1  0  0  0  0
 16 17  1  0  0  0  0
 17 15  1  6  0  0  0
 17  9  1  0  0  0  0
 18 19  1  0  0  0  0
 19 21  1  0  0  0  0
 20 18  2  0  0  0  0
 21 22  1  0  0  0  0
 24 27  2  0  0  0  0
 25 29  1  0  0  0  0
 26 28  1  0  0  0  0
 27 23  1  0  0  0  0
 28 22  1  0  0  0  0
 28 23  2  0  0  0  0
 29 26  2  0  0  0  0
 29 24  1  0  0  0  0
 30 24  1  0  0  0  0
 30 31  2  0  0  0  0
 32 31  1  0  0  0  0
 33 32  1  0  0  0  0
 34 33  1  0  0  0  0
 35 34  1  0  0  0  0
 36 35  2  0  0  0  0
 37 35  1  0  0  0  0
 38 39  1  0  0  0  0
 39 40  1  0  0  0  0
 40 41  1  0  0  0  0
 41 42  1  0  0  0  0
 42 43  1  0  0  0  0
 43 44  2  0  0  0  0
 43 45  1  0  0  0  0
 45 47  1  0  0  0  0
 46 45  1  0  0  0  0
 46 47  1  0  0  0  0
M  END
>  <MODEL>
1

>  <REMARK>
 VINA RESULT:      -6.6      0.000      0.000
  Name = 
  21 active torsions:
  status: ('A' for Active; 'I' for Inactive)
    1  A    between atoms: C_3  and  C_13
    2  A    between atoms: C_3  and  C_32
    3  A    between atoms: C_6  and  C_33
    4  A    between atoms: C_7  and  N_18
    5  A    between atoms: N_8  and  C_29
    6  A    between atoms: C_9  and  C_38
    7  A    between atoms: C_13  and  N_26
    8  A    between atoms: C_15  and  C_20
    9  A    between atoms: C_15  and  O_37
   10  A    between atoms: C_16  and  C_28
   11  A    between atoms: C_20  and  C_36
   12  A    between atoms: C_22  and  O_37
   13  A    between atoms: C_28  and  C_34
   14  A    between atoms: C_29  and  C_31
   15  A    between atoms: C_29  and  C_33
   16  A    between atoms: C_34  and  C_42
   17  A    between atoms: C_35  and  C_38
   18  A    between atoms: C_38  and  N_46
   19  A    between atoms: O_41  and  C_42
   20  A    between atoms: O_41  and  C_47
   21  A    between atoms: N_46  and  C_47
                            x       y       z     vdW  Elec       q    Type
                         _______ _______ _______ _____ _____    ______ ____

>  <TORSDO>
F 21

$$$$
=
 OpenBabel11052410383D

 47 50  0  0  1  0  0  0  0  0999 V2000
  162.0490  209.8320  151.0430 C   0  0  1  0  0  3  0  0  0  0  0  0
  161.8640  208.5210  148.8920 C   0  0  0  0  0  3  0  0  0  0  0  0
  161.0810  207.5290  150.9570 C   0  0  0  0  0  3  0  0  0  0  0  0
  160.9130  206.2900  148.8800 C   0  0  0  0  0  0  0  0  0  0  0  0
  160.7120  206.3740  150.2610 C   0  0  0  0  0  3  0  0  0  0  0  0
  161.5000  207.3650  148.1970 C   0  0  0  0  0  3  0  0  0  0  0  0
  161.6580  208.6060  150.2760 C   0  0  0  0  0  0  0  0  0  0  0  0
  160.5680  205.0260  148.1650 C   0  0  0  0  0  2  0  0  0  0  0  0
  161.8210  204.2190  147.7860 C   0  0  1  0  0  3  0  0  0  0  0  0
  161.7290  202.8640  148.3690 N   0  0  0  0  0  0  0  0  0  0  0  0
  160.0700  201.6070  149.3480 C   0  0  0  0  0  2  0  0  0  0  0  0
  160.7830  202.8780  149.4110 N   0  0  0  0  0  2  0  0  0  0  0  0
  160.3830  200.9610  148.0870 N   0  0  0  0  0  2  0  0  0  0  0  0
  161.1690  201.9490  147.3770 C   0  0  0  0  0  2  0  0  0  0  0  0
  163.2940  204.7010  145.7900 C   0  0  0  0  0  1  0  0  0  0  0  0
  160.9470  204.8960  145.6180 O   0  0  0  0  0  1  0  0  0  0  0  0
  161.9540  204.1560  146.2460 C   0  0  2  0  0  3  0  0  0  0  0  0
  161.6810  211.0820  150.2970 C   0  0  0  0  0  0  0  0  0  0  0  0
  162.2340  211.3560  149.0030 N   0  0  0  0  0  2  0  0  0  0  0  0
  160.9000  211.9110  150.8380 O   0  0  0  0  0  0  0  0  0  0  0  0
  162.0380  212.6310  148.3210 C   0  0  0  0  0  2  0  0  0  0  0  0
  160.5810  212.7940  147.9060 C   0  0  0  0  0  2  0  0  0  0  0  0
  159.2500  212.7730  145.7870 C   0  0  0  0  0  3  0  0  0  0  0  0
  160.3600  212.9260  143.6320 C   0  0  0  0  0  0  0  0  0  0  0  0
  162.9130  213.1370  143.6140 C   0  0  0  0  0  1  0  0  0  0  0  0
  161.6240  212.9670  145.6770 N   0  0  0  0  0  0  0  0  0  0  0  0
  159.1920  212.8120  144.3940 C   0  0  0  0  0  3  0  0  0  0  0  0
  160.4900  212.8500  146.4200 C   0  0  0  0  0  0  0  0  0  0  0  0
  161.6030  213.0070  144.3170 C   0  0  0  0  0  0  0  0  0  0  0  0
  160.2150  212.9230  142.2000 N   0  0  0  0  0  0  0  0  0  0  0  0
  159.6580  211.9870  141.5050 C   0  0  0  0  0  3  0  0  0  0  0  0
  159.5460  212.1030  140.0240 C   0  0  0  0  0  2  0  0  0  0  0  0
  159.5860  210.7250  139.3720 C   0  0  0  0  0  2  0  0  0  0  0  0
  160.8920  210.4460  138.8800 O   0  0  0  0  0  0  0  0  0  0  0  0
  161.8790  209.8640  139.6780 C   0  0  0  0  0  0  0  0  0  0  0  0
  161.8010  208.6550  140.0250 O   0  0  0  0  0  0  0  0  0  0  0  0
  163.0480  210.6830  140.1030 C   0  0  0  0  0  1  0  0  0  0  0  0
  161.4440  209.7990  152.3670 N   0  0  0  0  0  2  0  0  0  0  0  0
  162.4720  210.1900  153.3150 C   0  0  0  0  0  2  0  0  0  0  0  0
  161.8900  210.9190  154.3520 O   0  0  0  0  0  0  0  0  0  0  0  0
  162.5580  210.4980  155.5070 C   0  0  0  0  0  2  0  0  0  0  0  0
  161.5810  210.4240  156.6720 C   0  0  0  0  0  2  0  0  0  0  0  0
  160.5070  209.4130  156.4040 C   0  0  0  0  0  0  0  0  0  0  0  0
  159.3690  209.7870  156.1660 O   0  0  0  0  0  0  0  0  0  0  0  0
  160.8290  207.9510  156.3780 C   0  0  0  0  0  3  0  0  0  0  0  0
  160.6460  207.4080  154.9690 C   0  0  0  0  0  2  0  0  0  0  0  0
  159.5950  207.1380  156.0180 C   0  0  0  0  0  2  0  0  0  0  0  0
  1 18  1  6  0  0  0
  1 38  1  0  0  0  0
  2  7  1  0  0  0  0
  4  5  2  0  0  0  0
  5  3  1  0  0  0  0
  6  4  1  0  0  0  0
  6  2  2  0  0  0  0
  7  3  2  0  0  0  0
  7  1  1  0  0  0  0
  8  4  1  0  0  0  0
  9  8  1  6  0  0  0
  9 10  1  0  0  0  0
 10 12  1  0  0  0  0
 11 12  1  0  0  0  0
 13 11  1  0  0  0  0
 14 13  1  0  0  0  0
 14 10  1  0  0  0  0
 16 17  1  0  0  0  0
 17 15  1  1  0  0  0
 17  9  1  0  0  0  0
 18 20  2  0  0  0  0
 19 18  1  0  0  0  0
 21 19  1  0  0  0  0
 22 21  1  0  0  0  0
 23 28  1  0  0  0  0
 24 29  2  0  0  0  0
 24 27  1  0  0  0  0
 25 29  1  0  0  0  0
 26 28  2  0  0  0  0
 27 23  2  0  0  0  0
 28 22  1  0  0  0  0
 29 26  1  0  0  0  0
 30 24  1  0  0  0  0
 31 30  2  0  0  0  0
 32 31  1  0  0  0  0
 33 32  1  0  0  0  0
 34 33  1  0  0  0  0
 34 35  1  0  0  0  0
 35 36  2  0  0  0  0
 35 37  1  0  0  0  0
 38 39  1  0  0  0  0
 39 40  1  0  0  0  0
 40 41  1  0  0  0  0
 41 42  1  0  0  0  0
 43 42  1  0  0  0  0
 44 43  2  0  0  0  0
 45 43  1  0  0  0  0
 46 47  1  0  0  0  0
 46 45  1  0  0  0  0
 47 45  1  0  0  0  0
M  END
>  <MODEL>
2

>  <REMARK>
 VINA RESULT:      -6.5      2.266      8.918
  Name = 
  21 active torsions:
  status: ('A' for Active; 'I' for Inactive)
    1  A    between atoms: C_3  and  C_13
    2  A    between atoms: C_3  and  C_32
    3  A    between atoms: C_6  and  C_33
    4  A    between atoms: C_7  and  N_18
    5  A    between atoms: N_8  and  C_29
    6  A    between atoms: C_9  and  C_38
    7  A    between atoms: C_13  and  N_26
    8  A    between atoms: C_15  and  C_20
    9  A    between atoms: C_15  and  O_37
   10  A    between atoms: C_16  and  C_28
   11  A    between atoms: C_20  and  C_36
   12  A    between atoms: C_22  and  O_37
   13  A    between atoms: C_28  and  C_34
   14  A    between atoms: C_29  and  C_31
   15  A    between atoms: C_29  and  C_33
   16  A    between atoms: C_34  and  C_42
   17  A    between atoms: C_35  and  C_38
   18  A    between atoms: C_38  and  N_46
   19  A    between atoms: O_41  and  C_42
   20  A    between atoms: O_41  and  C_47
   21  A    between atoms: N_46  and  C_47
                            x       y       z     vdW  Elec       q    Type
                         _______ _______ _______ _____ _____    ______ ____

>  <TORSDO>
F 21

$$$$
=
 OpenBabel11052410383D

 47 50  0  0  1  0  0  0  0  0999 V2000
  160.4660  207.4810  151.8470 C   0  0  1  0  0  3  0  0  0  0  0  0
  160.6080  206.5700  149.4960 C   0  0  0  0  0  3  0  0  0  0  0  0
  161.3250  205.1870  151.3490 C   0  0  0  0  0  3  0  0  0  0  0  0
  161.4530  204.3330  149.0840 C   0  0  0  0  0  0  0  0  0  0  0  0
  161.6520  204.1610  150.4570 C   0  0  0  0  0  3  0  0  0  0  0  0
  160.9370  205.5450  148.6030 C   0  0  0  0  0  3  0  0  0  0  0  0
  160.8040  206.3940  150.8720 C   0  0  0  0  0  0  0  0  0  0  0  0
  161.8620  203.2500  148.1420 C   0  0  0  0  0  2  0  0  0  0  0  0
  160.8600  203.0820  146.9880 C   0  0  1  0  0  3  0  0  0  0  0  0
  161.4790  203.5430  145.7280 N   0  0  0  0  0  0  0  0  0  0  0  0
  161.3890  205.4590  144.4580 C   0  0  0  0  0  2  0  0  0  0  0  0
  160.5840  204.4060  145.0670 N   0  0  0  0  0  2  0  0  0  0  0  0
  162.7320  205.3910  145.0040 N   0  0  0  0  0  2  0  0  0  0  0  0
  162.6360  204.3790  146.0350 C   0  0  0  0  0  2  0  0  0  0  0  0
  161.2020  200.7350  147.8620 C   0  0  0  0  0  1  0  0  0  0  0  0
  160.6330  201.0960  145.5990 O   0  0  0  0  0  1  0  0  0  0  0  0
  160.4260  201.6000  146.8870 C   0  0  2  0  0  3  0  0  0  0  0  0
  161.0920  207.2240  153.1870 C   0  0  0  0  0  0  0  0  0  0  0  0
  160.6910  207.9720  154.3420 N   0  0  0  0  0  2  0  0  0  0  0  0
  162.0050  206.3600  153.2820 O   0  0  0  0  0  0  0  0  0  0  0  0
  161.3870  207.8750  155.6210 C   0  0  0  0  0  2  0  0  0  0  0  0
  161.2460  209.1750  156.4030 C   0  0  0  0  0  2  0  0  0  0  0  0
  161.0220  210.9960  154.7020 C   0  0  0  0  0  3  0  0  0  0  0  0
  158.8460  211.9520  154.1990 C   0  0  0  0  0  0  0  0  0  0  0  0
  156.8110  211.0150  155.4420 C   0  0  0  0  0  1  0  0  0  0  0  0
  159.0740  210.1870  155.8160 N   0  0  0  0  0  0  0  0  0  0  0  0
  160.2290  211.9010  153.9940 C   0  0  0  0  0  3  0  0  0  0  0  0
  160.4200  210.1390  155.6230 C   0  0  0  0  0  0  0  0  0  0  0  0
  158.2730  211.0570  155.1430 C   0  0  0  0  0  0  0  0  0  0  0  0
  158.1060  212.9370  153.4550 N   0  0  0  0  0  0  0  0  0  0  0  0
  158.0280  213.0000  152.1660 C   0  0  0  0  0  3  0  0  0  0  0  0
  157.2130  214.0550  151.5030 C   0  0  0  0  0  2  0  0  0  0  0  0
  157.7610  214.3660  150.1150 C   0  0  0  0  0  2  0  0  0  0  0  0
  156.7690  214.1220  149.1230 O   0  0  0  0  0  0  0  0  0  0  0  0
  157.0960  213.7260  147.8250 C   0  0  0  0  0  0  0  0  0  0  0  0
  157.8940  212.7700  147.6220 O   0  0  0  0  0  0  0  0  0  0  0  0
  156.4740  214.4300  146.6700 C   0  0  0  0  0  1  0  0  0  0  0  0
  160.8660  208.7710  151.3050 N   0  0  0  0  0  2  0  0  0  0  0  0
  162.2630  208.6590  150.9230 C   0  0  0  0  0  2  0  0  0  0  0  0
  162.4540  209.2790  149.6890 O   0  0  0  0  0  0  0  0  0  0  0  0
  162.0360  210.6000  149.8810 C   0  0  0  0  0  2  0  0  0  0  0  0
  162.1400  211.3710  148.5720 C   0  0  0  0  0  2  0  0  0  0  0  0
  161.5830  212.7540  148.7220 C   0  0  0  0  0  0  0  0  0  0  0  0
  160.7870  212.9920  149.6180 O   0  0  0  0  0  0  0  0  0  0  0  0
  162.0310  213.8570  147.8140 C   0  0  0  0  0  3  0  0  0  0  0  0
  161.0580  213.9940  146.6520 C   0  0  0  0  0  2  0  0  0  0  0  0
  162.3860  213.3080  146.4410 C   0  0  0  0  0  2  0  0  0  0  0  0
  1 38  1  6  0  0  0
  1 18  1  0  0  0  0
  2  7  1  0  0  0  0
  4  5  2  0  0  0  0
  5  3  1  0  0  0  0
  6  4  1  0  0  0  0
  6  2  2  0  0  0  0
  7  3  2  0  0  0  0
  7  1  1  0  0  0  0
  8  4  1  0  0  0  0
  9  8  1  1  0  0  0
 10 14  1  0  0  0  0
 10  9  1  0  0  0  0
 11 13  1  0  0  0  0
 11 12  1  0  0  0  0
 12 10  1  0  0  0  0
 13 14  1  0  0  0  0
 16 17  1  0  0  0  0
 17  9  1  0  0  0  0
 17 15  1  1  0  0  0
 18 20  2  0  0  0  0
 18 19  1  0  0  0  0
 19 21  1  0  0  0  0
 21 22  1  0  0  0  0
 23 28  1  0  0  0  0
 24 29  2  0  0  0  0
 27 24  1  0  0  0  0
 27 23  2  0  0  0  0
 28 26  2  0  0  0  0
 28 22  1  0  0  0  0
 29 25  1  0  0  0  0
 29 26  1  0  0  0  0
 30 24  1  0  0  0  0
 31 30  2  0  0  0  0
 32 31  1  0  0  0  0
 33 32  1  0  0  0  0
 34 33  1  0  0  0  0
 35 34  1  0  0  0  0
 36 35  2  0  0  0  0
 37 35  1  0  0  0  0
 39 38  1  0  0  0  0
 40 41  1  0  0  0  0
 40 39  1  0  0  0  0
 42 43  1  0  0  0  0
 42 41  1  0  0  0  0
 43 44  2  0  0  0  0
 45 43  1  0  0  0  0
 46 45  1  0  0  0  0
 47 46  1  0  0  0  0
 47 45  1  0  0  0  0
M  END
>  <MODEL>
3

>  <REMARK>
 VINA RESULT:      -5.6      4.210      9.155
  Name = 
  21 active torsions:
  status: ('A' for Active; 'I' for Inactive)
    1  A    between atoms: C_3  and  C_13
    2  A    between atoms: C_3  and  C_32
    3  A    between atoms: C_6  and  C_33
    4  A    between atoms: C_7  and  N_18
    5  A    between atoms: N_8  and  C_29
    6  A    between atoms: C_9  and  C_38
    7  A    between atoms: C_13  and  N_26
    8  A    between atoms: C_15  and  C_20
    9  A    between atoms: C_15  and  O_37
   10  A    between atoms: C_16  and  C_28
   11  A    between atoms: C_20  and  C_36
   12  A    between atoms: C_22  and  O_37
   13  A    between atoms: C_28  and  C_34
   14  A    between atoms: C_29  and  C_31
   15  A    between atoms: C_29  and  C_33
   16  A    between atoms: C_34  and  C_42
   17  A    between atoms: C_35  and  C_38
   18  A    between atoms: C_38  and  N_46
   19  A    between atoms: O_41  and  C_42
   20  A    between atoms: O_41  and  C_47
   21  A    between atoms: N_46  and  C_47
                            x       y       z     vdW  Elec       q    Type
                         _______ _______ _______ _____ _____    ______ ____

>  <TORSDO>
F 21

$$$$
=
 OpenBabel11052410383D

 47 50  0  0  1  0  0  0  0  0999 V2000
  160.3840  210.0860  153.4150 C   0  0  1  0  0  3  0  0  0  0  0  0
  161.3070  211.0870  151.2870 C   0  0  0  0  0  3  0  0  0  0  0  0
  159.4470  212.1680  152.3980 C   0  0  0  0  0  3  0  0  0  0  0  0
  160.3490  213.1110  150.3550 C   0  0  0  0  0  0  0  0  0  0  0  0
  159.4270  213.1530  151.4050 C   0  0  0  0  0  3  0  0  0  0  0  0
  161.2850  212.0690  150.2920 C   0  0  0  0  0  3  0  0  0  0  0  0
  160.3850  211.1320  152.3420 C   0  0  0  0  0  0  0  0  0  0  0  0
  160.2750  214.1370  149.2730 C   0  0  0  0  0  2  0  0  0  0  0  0
  160.3650  213.5060  147.8740 C   0  0  1  0  0  3  0  0  0  0  0  0
  159.1540  213.8470  147.1000 N   0  0  0  0  0  0  0  0  0  0  0  0
  157.4690  212.6620  146.0770 C   0  0  0  0  0  2  0  0  0  0  0  0
  158.9150  212.8340  146.1530 N   0  0  0  0  0  2  0  0  0  0  0  0
  156.8600  213.3600  147.1940 N   0  0  0  0  0  2  0  0  0  0  0  0
  157.9900  213.8080  147.9810 C   0  0  0  0  0  2  0  0  0  0  0  0
  162.1370  212.9900  146.1470 C   0  0  0  0  0  1  0  0  0  0  0  0
  162.6760  214.2460  148.0720 O   0  0  0  0  0  1  0  0  0  0  0  0
  161.6430  214.0060  147.1600 C   0  0  2  0  0  3  0  0  0  0  0  0
  160.8210  208.7550  152.8770 C   0  0  0  0  0  0  0  0  0  0  0  0
  161.5490  207.8320  153.6980 N   0  0  0  0  0  2  0  0  0  0  0  0
  160.5690  208.4660  151.6760 O   0  0  0  0  0  0  0  0  0  0  0  0
  162.1370  206.6060  153.1700 C   0  0  0  0  0  2  0  0  0  0  0  0
  161.1930  205.4290  153.3800 C   0  0  0  0  0  2  0  0  0  0  0  0
  160.8820  205.3230  150.8990 C   0  0  0  0  0  3  0  0  0  0  0  0
  160.8080  203.1820  149.7560 C   0  0  0  0  0  0  0  0  0  0  0  0
  161.0850  201.0620  151.1680 C   0  0  0  0  0  1  0  0  0  0  0  0
  161.1270  203.2990  152.1360 N   0  0  0  0  0  0  0  0  0  0  0  0
  160.7530  204.5790  149.7260 C   0  0  0  0  0  3  0  0  0  0  0  0
  161.0680  204.6580  152.1110 C   0  0  0  0  0  0  0  0  0  0  0  0
  161.0040  202.5440  151.0110 C   0  0  0  0  0  0  0  0  0  0  0  0
  160.6310  202.4890  148.5070 N   0  0  0  0  0  0  0  0  0  0  0  0
  161.1310  202.8510  147.3710 C   0  0  0  0  0  3  0  0  0  0  0  0
  160.8960  202.0410  146.1430 C   0  0  0  0  0  2  0  0  0  0  0  0
  160.7080  202.9460  144.9310 C   0  0  0  0  0  2  0  0  0  0  0  0
  161.5670  204.0770  145.0160 O   0  0  0  0  0  0  0  0  0  0  0  0
  161.1370  205.3640  144.6900 C   0  0  0  0  0  0  0  0  0  0  0  0
  161.5120  205.9210  143.6220 O   0  0  0  0  0  0  0  0  0  0  0  0
  160.2040  206.0750  145.6080 C   0  0  0  0  0  1  0  0  0  0  0  0
  161.2200  210.5180  154.5260 N   0  0  0  0  0  2  0  0  0  0  0  0
  160.3280  210.9300  155.5950 C   0  0  0  0  0  2  0  0  0  0  0  0
  160.9720  211.8750  156.3940 O   0  0  0  0  0  0  0  0  0  0  0  0
  160.0090  212.8610  156.6320 C   0  0  0  0  0  2  0  0  0  0  0  0
  158.6160  212.2540  156.5500 C   0  0  0  0  0  2  0  0  0  0  0  0
  157.6230  213.2620  156.0540 C   0  0  0  0  0  0  0  0  0  0  0  0
  157.8380  214.4530  156.2150 O   0  0  0  0  0  0  0  0  0  0  0  0
  156.3950  212.8210  155.3190 C   0  0  0  0  0  3  0  0  0  0  0  0
  155.7480  211.6540  156.0510 C   0  0  0  0  0  2  0  0  0  0  0  0
  156.5610  211.3990  154.8040 C   0  0  0  0  0  2  0  0  0  0  0  0
  1 18  1  6  0  0  0
  1 38  1  0  0  0  0
  2  7  1  0  0  0  0
  4  5  2  0  0  0  0
  5  3  1  0  0  0  0
  6  4  1  0  0  0  0
  6  2  2  0  0  0  0
  7  3  2  0  0  0  0
  7  1  1  0  0  0  0
  8  4  1  0  0  0  0
  9  8  1  1  0  0  0
 10  9  1  0  0  0  0
 10 14  1  0  0  0  0
 11 12  1  0  0  0  0
 11 13  1  0  0  0  0
 12 10  1  0  0  0  0
 13 14  1  0  0  0  0
 17 15  1  6  0  0  0
 17  9  1  0  0  0  0
 17 16  1  0  0  0  0
 18 19  1  0  0  0  0
 20 18  2  0  0  0  0
 21 22  1  0  0  0  0
 21 19  1  0  0  0  0
 23 28  1  0  0  0  0
 24 29  2  0  0  0  0
 27 24  1  0  0  0  0
 27 23  2  0  0  0  0
 28 26  2  0  0  0  0
 28 22  1  0  0  0  0
 29 25  1  0  0  0  0
 29 26  1  0  0  0  0
 30 24  1  0  0  0  0
 31 30  2  0  0  0  0
 32 31  1  0  0  0  0
 33 34  1  0  0  0  0
 33 32  1  0  0  0  0
 35 34  1  0  0  0  0
 35 37  1  0  0  0  0
 36 35  2  0  0  0  0
 38 39  1  0  0  0  0
 39 40  1  0  0  0  0
 40 41  1  0  0  0  0
 42 41  1  0  0  0  0
 43 44  2  0  0  0  0
 43 42  1  0  0  0  0
 45 46  1  0  0  0  0
 45 43  1  0  0  0  0
 47 45  1  0  0  0  0
 47 46  1  0  0  0  0
M  END
>  <MODEL>
4

>  <REMARK>
 VINA RESULT:      -5.4      3.483      5.957
  Name = 
  21 active torsions:
  status: ('A' for Active; 'I' for Inactive)
    1  A    between atoms: C_3  and  C_13
    2  A    between atoms: C_3  and  C_32
    3  A    between atoms: C_6  and  C_33
    4  A    between atoms: C_7  and  N_18
    5  A    between atoms: N_8  and  C_29
    6  A    between atoms: C_9  and  C_38
    7  A    between atoms: C_13  and  N_26
    8  A    between atoms: C_15  and  C_20
    9  A    between atoms: C_15  and  O_37
   10  A    between atoms: C_16  and  C_28
   11  A    between atoms: C_20  and  C_36
   12  A    between atoms: C_22  and  O_37
   13  A    between atoms: C_28  and  C_34
   14  A    between atoms: C_29  and  C_31
   15  A    between atoms: C_29  and  C_33
   16  A    between atoms: C_34  and  C_42
   17  A    between atoms: C_35  and  C_38
   18  A    between atoms: C_38  and  N_46
   19  A    between atoms: O_41  and  C_42
   20  A    between atoms: O_41  and  C_47
   21  A    between atoms: N_46  and  C_47
                            x       y       z     vdW  Elec       q    Type
                         _______ _______ _______ _____ _____    ______ ____

>  <TORSDO>
F 21

$$$$
=
 OpenBabel11052410383D

 47 50  0  0  1  0  0  0  0  0999 V2000
  161.8860  209.0850  151.9340 C   0  0  1  0  0  3  0  0  0  0  0  0
  160.7240  207.5030  150.3440 C   0  0  0  0  0  3  0  0  0  0  0  0
  162.2980  206.6190  151.9580 C   0  0  0  0  0  3  0  0  0  0  0  0
  161.1700  205.1200  150.4230 C   0  0  0  0  0  0  0  0  0  0  0  0
  162.0730  205.3280  151.4700 C   0  0  0  0  0  3  0  0  0  0  0  0
  160.5010  206.2130  149.8540 C   0  0  0  0  0  3  0  0  0  0  0  0
  161.6260  207.7110  151.3970 C   0  0  0  0  0  0  0  0  0  0  0  0
  160.9870  203.7430  149.8760 C   0  0  0  0  0  2  0  0  0  0  0  0
  160.8950  203.7420  148.3410 C   0  0  1  0  0  3  0  0  0  0  0  0
  161.8080  204.7650  147.7920 N   0  0  0  0  0  0  0  0  0  0  0  0
  163.1590  204.9370  145.9380 C   0  0  0  0  0  2  0  0  0  0  0  0
  162.8590  204.1230  147.1100 N   0  0  0  0  0  2  0  0  0  0  0  0
  162.0910  205.9020  145.7570 N   0  0  0  0  0  2  0  0  0  0  0  0
  161.1130  205.5290  146.7580 C   0  0  0  0  0  2  0  0  0  0  0  0
  160.4780  202.0310  146.5280 C   0  0  0  0  0  1  0  0  0  0  0  0
  160.9450  201.3400  148.7370 O   0  0  0  0  0  1  0  0  0  0  0  0
  161.2450  202.3350  147.8000 C   0  0  2  0  0  3  0  0  0  0  0  0
  161.7810  210.1210  150.8530 C   0  0  0  0  0  0  0  0  0  0  0  0
  162.3620  209.8980  149.5610 N   0  0  0  0  0  2  0  0  0  0  0  0
  161.2010  211.2110  151.1040 O   0  0  0  0  0  0  0  0  0  0  0  0
  162.4300  210.9400  148.5420 C   0  0  0  0  0  2  0  0  0  0  0  0
  161.1340  211.7410  148.5110 C   0  0  0  0  0  2  0  0  0  0  0  0
  159.6040  212.1930  146.5830 C   0  0  0  0  0  3  0  0  0  0  0  0
  160.4670  213.1380  144.5180 C   0  0  0  0  0  0  0  0  0  0  0  0
  162.9700  213.6740  144.4030 C   0  0  0  0  0  1  0  0  0  0  0  0
  161.9220  212.7180  146.3860 N   0  0  0  0  0  0  0  0  0  0  0  0
  159.4010  212.6460  145.2790 C   0  0  0  0  0  3  0  0  0  0  0  0
  160.8870  212.2340  147.1260 C   0  0  0  0  0  0  0  0  0  0  0  0
  161.7580  213.1670  145.1130 C   0  0  0  0  0  0  0  0  0  0  0  0
  160.1790  213.5520  143.1710 N   0  0  0  0  0  0  0  0  0  0  0  0
  159.2550  213.0560  142.4150 C   0  0  0  0  0  3  0  0  0  0  0  0
  159.0330  213.5810  141.0390 C   0  0  0  0  0  2  0  0  0  0  0  0
  159.2330  212.4790  140.0050 C   0  0  0  0  0  2  0  0  0  0  0  0
  160.2470  211.5760  140.4310 O   0  0  0  0  0  0  0  0  0  0  0  0
  160.5880  210.4390  139.6950 C   0  0  0  0  0  0  0  0  0  0  0  0
  159.7840  209.9430  138.8600 O   0  0  0  0  0  0  0  0  0  0  0  0
  161.9310  209.8240  139.8860 C   0  0  0  0  0  1  0  0  0  0  0  0
  160.9780  209.3650  153.0360 N   0  0  0  0  0  2  0  0  0  0  0  0
  161.7510  210.0340  154.0670 C   0  0  0  0  0  2  0  0  0  0  0  0
  161.6040  209.3480  155.2720 O   0  0  0  0  0  0  0  0  0  0  0  0
  160.2420  209.0380  155.3460 C   0  0  0  0  0  2  0  0  0  0  0  0
  159.6010  209.7980  156.4990 C   0  0  0  0  0  2  0  0  0  0  0  0
  159.0970  211.1340  156.0420 C   0  0  0  0  0  0  0  0  0  0  0  0
  159.7600  212.1370  156.2590 O   0  0  0  0  0  0  0  0  0  0  0  0
  157.8140  211.2430  155.2790 C   0  0  0  0  0  3  0  0  0  0  0  0
  158.1040  211.6010  153.8290 C   0  0  0  0  0  2  0  0  0  0  0  0
  157.6080  212.6640  154.7780 C   0  0  0  0  0  2  0  0  0  0  0  0
  1 18  1  6  0  0  0
  1 38  1  0  0  0  0
  2  7  1  0  0  0  0
  4  5  2  0  0  0  0
  5  3  1  0  0  0  0
  6  2  2  0  0  0  0
  6  4  1  0  0  0  0
  7  1  1  0  0  0  0
  7  3  2  0  0  0  0
  8  4  1  0  0  0  0
  9  8  1  1  0  0  0
 10  9  1  0  0  0  0
 11 12  1  0  0  0  0
 12 10  1  0  0  0  0
 13 11  1  0  0  0  0
 13 14  1  0  0  0  0
 14 10  1  0  0  0  0
 17 15  1  6  0  0  0
 17  9  1  0  0  0  0
 17 16  1  0  0  0  0
 18 20  2  0  0  0  0
 19 18  1  0  0  0  0
 21 19  1  0  0  0  0
 22 21  1  0  0  0  0
 23 28  1  0  0  0  0
 24 29  2  0  0  0  0
 24 27  1  0  0  0  0
 25 29  1  0  0  0  0
 26 28  2  0  0  0  0
 27 23  2  0  0  0  0
 28 22  1  0  0  0  0
 29 26  1  0  0  0  0
 30 24  1  0  0  0  0
 31 30  2  0  0  0  0
 32 31  1  0  0  0  0
 33 34  1  0  0  0  0
 33 32  1  0  0  0  0
 35 37  1  0  0  0  0
 35 34  1  0  0  0  0
 36 35  2  0  0  0  0
 38 39  1  0  0  0  0
 39 40  1  0  0  0  0
 40 41  1  0  0  0  0
 41 42  1  0  0  0  0
 43 44  2  0  0  0  0
 43 42  1  0  0  0  0
 45 43  1  0  0  0  0
 46 47  1  0  0  0  0
 46 45  1  0  0  0  0
 47 45  1  0  0  0  0
M  END
>  <MODEL>
5

>  <REMARK>
 VINA RESULT:      -5.2      2.122      8.907
  Name = 
  21 active torsions:
  status: ('A' for Active; 'I' for Inactive)
    1  A    between atoms: C_3  and  C_13
    2  A    between atoms: C_3  and  C_32
    3  A    between atoms: C_6  and  C_33
    4  A    between atoms: C_7  and  N_18
    5  A    between atoms: N_8  and  C_29
    6  A    between atoms: C_9  and  C_38
    7  A    between atoms: C_13  and  N_26
    8  A    between atoms: C_15  and  C_20
    9  A    between atoms: C_15  and  O_37
   10  A    between atoms: C_16  and  C_28
   11  A    between atoms: C_20  and  C_36
   12  A    between atoms: C_22  and  O_37
   13  A    between atoms: C_28  and  C_34
   14  A    between atoms: C_29  and  C_31
   15  A    between atoms: C_29  and  C_33
   16  A    between atoms: C_34  and  C_42
   17  A    between atoms: C_35  and  C_38
   18  A    between atoms: C_38  and  N_46
   19  A    between atoms: O_41  and  C_42
   20  A    between atoms: O_41  and  C_47
   21  A    between atoms: N_46  and  C_47
                            x       y       z     vdW  Elec       q    Type
                         _______ _______ _______ _____ _____    ______ ____

>  <TORSDO>
F 21

$$$$
=
 OpenBabel11052410383D

 47 50  0  0  1  0  0  0  0  0999 V2000
  160.8120  207.4240  152.4380 C   0  0  1  0  0  3  0  0  0  0  0  0
  160.3720  205.8630  150.5020 C   0  0  0  0  0  3  0  0  0  0  0  0
  161.8110  205.1370  152.3080 C   0  0  0  0  0  3  0  0  0  0  0  0
  161.3740  203.6550  150.4400 C   0  0  0  0  0  0  0  0  0  0  0  0
  162.0020  203.9110  151.6630 C   0  0  0  0  0  3  0  0  0  0  0  0
  160.5640  204.6390  149.8550 C   0  0  0  0  0  3  0  0  0  0  0  0
  160.9970  206.1170  151.7300 C   0  0  0  0  0  0  0  0  0  0  0  0
  161.6360  202.3640  149.7380 C   0  0  0  0  0  2  0  0  0  0  0  0
  160.5580  202.0520  148.6870 C   0  0  1  0  0  3  0  0  0  0  0  0
  161.2050  201.6040  147.4370 N   0  0  0  0  0  0  0  0  0  0  0  0
  161.2660  199.6470  146.2280 C   0  0  0  0  0  2  0  0  0  0  0  0
  161.5050  200.2330  147.5430 N   0  0  0  0  0  2  0  0  0  0  0  0
  160.5380  200.6060  145.4180 N   0  0  0  0  0  2  0  0  0  0  0  0
  160.2440  201.6850  146.3390 C   0  0  0  0  0  2  0  0  0  0  0  0
  158.1510  201.4220  149.1270 C   0  0  0  0  0  1  0  0  0  0  0  0
  159.8620  200.6850  150.5770 O   0  0  0  0  0  1  0  0  0  0  0  0
  159.5950  200.9720  149.2340 C   0  0  2  0  0  3  0  0  0  0  0  0
  161.0580  207.2860  153.9120 C   0  0  0  0  0  0  0  0  0  0  0  0
  160.2400  207.9780  154.8640 N   0  0  0  0  0  2  0  0  0  0  0  0
  162.0210  206.5740  154.3080 O   0  0  0  0  0  0  0  0  0  0  0  0
  160.5470  208.0070  156.2900 C   0  0  0  0  0  2  0  0  0  0  0  0
  160.1350  209.3430  156.8960 C   0  0  0  0  0  2  0  0  0  0  0  0
  160.7260  210.8280  154.9710 C   0  0  0  0  0  3  0  0  0  0  0  0
  159.0010  212.0730  153.7990 C   0  0  0  0  0  0  0  0  0  0  0  0
  156.5790  211.7870  154.5820 C   0  0  0  0  0  1  0  0  0  0  0  0
  158.4450  210.6250  155.6360 N   0  0  0  0  0  0  0  0  0  0  0  0
  160.3440  211.7210  153.9690 C   0  0  0  0  0  3  0  0  0  0  0  0
  159.7510  210.2850  155.8080 C   0  0  0  0  0  0  0  0  0  0  0  0
  158.0390  211.4930  154.6700 C   0  0  0  0  0  0  0  0  0  0  0  0
  158.6970  213.0270  152.7650 N   0  0  0  0  0  0  0  0  0  0  0  0
  159.4630  213.3200  151.7660 C   0  0  0  0  0  3  0  0  0  0  0  0
  159.0320  214.3120  150.7420 C   0  0  0  0  0  2  0  0  0  0  0  0
  159.3750  213.8200  149.3400 C   0  0  0  0  0  2  0  0  0  0  0  0
  160.6900  214.2280  148.9780 O   0  0  0  0  0  0  0  0  0  0  0  0
  161.6600  213.3190  148.5530 C   0  0  0  0  0  0  0  0  0  0  0  0
  161.7020  212.1500  149.0230 O   0  0  0  0  0  0  0  0  0  0  0  0
  162.6420  213.7360  147.5130 C   0  0  0  0  0  1  0  0  0  0  0  0
  161.6740  208.4350  151.8420 N   0  0  0  0  0  2  0  0  0  0  0  0
  162.0490  207.9520  150.5240 C   0  0  0  0  0  2  0  0  0  0  0  0
  162.1910  209.0370  149.6600 O   0  0  0  0  0  0  0  0  0  0  0  0
  161.8450  208.5400  148.3990 C   0  0  0  0  0  2  0  0  0  0  0  0
  162.5670  207.2250  148.1450 C   0  0  0  0  0  2  0  0  0  0  0  0
  161.7850  206.3610  147.2000 C   0  0  0  0  0  0  0  0  0  0  0  0
  160.6160  206.6250  146.9650 O   0  0  0  0  0  0  0  0  0  0  0  0
  162.4410  205.2080  146.5060 C   0  0  0  0  0  3  0  0  0  0  0  0
  162.6790  205.5550  145.0440 C   0  0  0  0  0  2  0  0  0  0  0  0
  161.5320  204.6500  145.4210 C   0  0  0  0  0  2  0  0  0  0  0  0
  1 38  1  6  0  0  0
  1 18  1  0  0  0  0
  2  7  1  0  0  0  0
  4  5  2  0  0  0  0
  5  3  1  0  0  0  0
  6  4  1  0  0  0  0
  6  2  2  0  0  0  0
  7  3  2  0  0  0  0
  7  1  1  0  0  0  0
  8  4  1  0  0  0  0
  9 17  1  0  0  0  0
  9  8  1  1  0  0  0
 10 12  1  0  0  0  0
 10  9  1  0  0  0  0
 11 12  1  0  0  0  0
 13 11  1  0  0  0  0
 13 14  1  0  0  0  0
 14 10  1  0  0  0  0
 17 15  1  1  0  0  0
 17 16  1  0  0  0  0
 18 20  2  0  0  0  0
 18 19  1  0  0  0  0
 19 21  1  0  0  0  0
 21 22  1  0  0  0  0
 23 28  1  0  0  0  0
 24 27  1  0  0  0  0
 24 29  2  0  0  0  0
 25 29  1  0  0  0  0
 26 28  2  0  0  0  0
 27 23  2  0  0  0  0
 28 22  1  0  0  0  0
 29 26  1  0  0  0  0
 30 24  1  0  0  0  0
 31 30  2  0  0  0  0
 32 31  1  0  0  0  0
 33 32  1  0  0  0  0
 34 33  1  0  0  0  0
 35 34  1  0  0  0  0
 35 36  2  0  0  0  0
 37 35  1  0  0  0  0
 39 38  1  0  0  0  0
 40 39  1  0  0  0  0
 41 40  1  0  0  0  0
 42 41  1  0  0  0  0
 43 42  1  0  0  0  0
 44 43  2  0  0  0  0
 45 43  1  0  0  0  0
 46 47  1  0  0  0  0
 46 45  1  0  0  0  0
 47 45  1  0  0  0  0
M  END
>  <MODEL>
6

>  <REMARK>
 VINA RESULT:      -5.0      4.973     10.423
  Name = 
  21 active torsions:
  status: ('A' for Active; 'I' for Inactive)
    1  A    between atoms: C_3  and  C_13
    2  A    between atoms: C_3  and  C_32
    3  A    between atoms: C_6  and  C_33
    4  A    between atoms: C_7  and  N_18
    5  A    between atoms: N_8  and  C_29
    6  A    between atoms: C_9  and  C_38
    7  A    between atoms: C_13  and  N_26
    8  A    between atoms: C_15  and  C_20
    9  A    between atoms: C_15  and  O_37
   10  A    between atoms: C_16  and  C_28
   11  A    between atoms: C_20  and  C_36
   12  A    between atoms: C_22  and  O_37
   13  A    between atoms: C_28  and  C_34
   14  A    between atoms: C_29  and  C_31
   15  A    between atoms: C_29  and  C_33
   16  A    between atoms: C_34  and  C_42
   17  A    between atoms: C_35  and  C_38
   18  A    between atoms: C_38  and  N_46
   19  A    between atoms: O_41  and  C_42
   20  A    between atoms: O_41  and  C_47
   21  A    between atoms: N_46  and  C_47
                            x       y       z     vdW  Elec       q    Type
                         _______ _______ _______ _____ _____    ______ ____

>  <TORSDO>
F 21

$$$$
=
 OpenBabel11052410383D

 47 50  0  0  1  0  0  0  0  0999 V2000
  160.9320  208.8500  151.8110 C   0  0  1  0  0  3  0  0  0  0  0  0
  161.2270  210.1360  153.9650 C   0  0  0  0  0  3  0  0  0  0  0  0
  159.5540  210.8590  152.3710 C   0  0  0  0  0  3  0  0  0  0  0  0
  159.8550  212.0780  154.4450 C   0  0  0  0  0  0  0  0  0  0  0  0
  159.2010  211.9130  153.2200 C   0  0  0  0  0  3  0  0  0  0  0  0
  160.8770  211.1920  154.8130 C   0  0  0  0  0  3  0  0  0  0  0  0
  160.5680  209.9680  152.7390 C   0  0  0  0  0  0  0  0  0  0  0  0
  159.5060  213.2430  155.3110 C   0  0  0  0  0  2  0  0  0  0  0  0
  158.0620  213.1590  155.8340 C   0  0  1  0  0  3  0  0  0  0  0  0
  157.1740  213.9470  154.9560 N   0  0  0  0  0  0  0  0  0  0  0  0
  155.2630  213.5250  153.7460 C   0  0  0  0  0  2  0  0  0  0  0  0
  156.6410  213.1010  153.9650 N   0  0  0  0  0  2  0  0  0  0  0  0
  154.8800  214.4270  154.8160 N   0  0  0  0  0  2  0  0  0  0  0  0
  156.0110  214.3940  155.7190 C   0  0  0  0  0  2  0  0  0  0  0  0
  156.2290  211.5480  156.4910 C   0  0  0  0  0  1  0  0  0  0  0  0
  158.4960  210.9130  156.6670 O   0  0  0  0  0  1  0  0  0  0  0  0
  157.6170  211.6780  155.8940 C   0  0  2  0  0  3  0  0  0  0  0  0
  161.6750  209.3590  150.6110 C   0  0  0  0  0  0  0  0  0  0  0  0
  161.6210  210.7430  150.2430 N   0  0  0  0  0  2  0  0  0  0  0  0
  162.3280  208.5440  149.9040 O   0  0  0  0  0  0  0  0  0  0  0  0
  162.1860  211.2470  148.9950 C   0  0  0  0  0  2  0  0  0  0  0  0
  161.5420  212.5760  148.6180 C   0  0  0  0  0  2  0  0  0  0  0  0
  160.1450  212.1850  146.5790 C   0  0  0  0  0  3  0  0  0  0  0  0
  161.0100  212.7150  144.3720 C   0  0  0  0  0  0  0  0  0  0  0  0
  163.3680  213.7040  144.2170 C   0  0  0  0  0  1  0  0  0  0  0  0
  162.3320  213.1050  146.3410 N   0  0  0  0  0  0  0  0  0  0  0  0
  159.9860  212.2310  145.1930 C   0  0  0  0  0  3  0  0  0  0  0  0
  161.3400  212.6290  147.1420 C   0  0  0  0  0  0  0  0  0  0  0  0
  162.2100  213.1620  144.9880 C   0  0  0  0  0  0  0  0  0  0  0  0
  160.7790  212.6950  142.9510 N   0  0  0  0  0  0  0  0  0  0  0  0
  161.2070  211.7900  142.1340 C   0  0  0  0  0  3  0  0  0  0  0  0
  160.8860  211.8620  140.6810 C   0  0  0  0  0  2  0  0  0  0  0  0
  162.1100  211.5090  139.8430 C   0  0  0  0  0  2  0  0  0  0  0  0
  161.7700  210.5480  138.8490 O   0  0  0  0  0  0  0  0  0  0  0  0
  161.1190  209.3530  139.1610 C   0  0  0  0  0  0  0  0  0  0  0  0
  159.9060  209.1800  138.8660 O   0  0  0  0  0  0  0  0  0  0  0  0
  161.8810  208.2620  139.8310 C   0  0  0  0  0  1  0  0  0  0  0  0
  161.6980  207.8420  152.5300 N   0  0  0  0  0  2  0  0  0  0  0  0
  160.9530  206.5990  152.4440 C   0  0  0  0  0  2  0  0  0  0  0  0
  161.8380  205.5450  152.2190 O   0  0  0  0  0  0  0  0  0  0  0  0
  161.0240  204.4180  152.0640 C   0  0  0  0  0  2  0  0  0  0  0  0
  161.6430  203.4690  151.0470 C   0  0  0  0  0  2  0  0  0  0  0  0
  160.9880  203.6210  149.7070 C   0  0  0  0  0  0  0  0  0  0  0  0
  160.6420  204.7280  149.3250 O   0  0  0  0  0  0  0  0  0  0  0  0
  160.8000  202.4340  148.8140 C   0  0  0  0  0  3  0  0  0  0  0  0
  159.6390  201.5900  149.3160 C   0  0  0  0  0  2  0  0  0  0  0  0
  161.0570  201.1440  149.5780 C   0  0  0  0  0  2  0  0  0  0  0  0
  1 18  1  6  0  0  0
  1 38  1  0  0  0  0
  1  7  1  0  0  0  0
  2  6  1  0  0  0  0
  3  7  1  0  0  0  0
  3  5  2  0  0  0  0
  4  6  2  0  0  0  0
  4  8  1  0  0  0  0
  5  4  1  0  0  0  0
  7  2  2  0  0  0  0
  9  8  1  6  0  0  0
  9 17  1  0  0  0  0
 10 14  1  0  0  0  0
 10  9  1  0  0  0  0
 11 12  1  0  0  0  0
 11 13  1  0  0  0  0
 12 10  1  0  0  0  0
 13 14  1  0  0  0  0
 17 15  1  1  0  0  0
 17 16  1  0  0  0  0
 19 18  1  0  0  0  0
 20 18  2  0  0  0  0
 21 19  1  0  0  0  0
 22 21  1  0  0  0  0
 23 28  1  0  0  0  0
 24 29  2  0  0  0  0
 24 27  1  0  0  0  0
 25 29  1  0  0  0  0
 26 28  2  0  0  0  0
 27 23  2  0  0  0  0
 28 22  1  0  0  0  0
 29 26  1  0  0  0  0
 30 24  1  0  0  0  0
 31 30  2  0  0  0  0
 32 31  1  0  0  0  0
 33 32  1  0  0  0  0
 34 35  1  0  0  0  0
 34 33  1  0  0  0  0
 35 37  1  0  0  0  0
 36 35  2  0  0  0  0
 39 38  1  0  0  0  0
 40 39  1  0  0  0  0
 41 40  1  0  0  0  0
 42 41  1  0  0  0  0
 43 42  1  0  0  0  0
 44 43  2  0  0  0  0
 45 46  1  0  0  0  0
 45 47  1  0  0  0  0
 45 43  1  0  0  0  0
 46 47  1  0  0  0  0
M  END
>  <MODEL>
7

>  <REMARK>
 VINA RESULT:      -5.0      3.023     10.882
  Name = 
  21 active torsions:
  status: ('A' for Active; 'I' for Inactive)
    1  A    between atoms: C_3  and  C_13
    2  A    between atoms: C_3  and  C_32
    3  A    between atoms: C_6  and  C_33
    4  A    between atoms: C_7  and  N_18
    5  A    between atoms: N_8  and  C_29
    6  A    between atoms: C_9  and  C_38
    7  A    between atoms: C_13  and  N_26
    8  A    between atoms: C_15  and  C_20
    9  A    between atoms: C_15  and  O_37
   10  A    between atoms: C_16  and  C_28
   11  A    between atoms: C_20  and  C_36
   12  A    between atoms: C_22  and  O_37
   13  A    between atoms: C_28  and  C_34
   14  A    between atoms: C_29  and  C_31
   15  A    between atoms: C_29  and  C_33
   16  A    between atoms: C_34  and  C_42
   17  A    between atoms: C_35  and  C_38
   18  A    between atoms: C_38  and  N_46
   19  A    between atoms: O_41  and  C_42
   20  A    between atoms: O_41  and  C_47
   21  A    between atoms: N_46  and  C_47
                            x       y       z     vdW  Elec       q    Type
                         _______ _______ _______ _____ _____    ______ ____

>  <TORSDO>
F 21

$$$$
=
 OpenBabel11052410383D

 47 50  0  0  1  0  0  0  0  0999 V2000
  161.3410  208.5130  151.3130 C   0  0  1  0  0  3  0  0  0  0  0  0
  161.8450  209.7320  153.4660 C   0  0  0  0  0  3  0  0  0  0  0  0
  159.8930  210.3570  152.1780 C   0  0  0  0  0  3  0  0  0  0  0  0
  160.3960  211.5140  154.2480 C   0  0  0  0  0  0  0  0  0  0  0  0
  159.5810  211.3370  153.1260 C   0  0  0  0  0  3  0  0  0  0  0  0
  161.5360  210.7140  154.4130 C   0  0  0  0  0  3  0  0  0  0  0  0
  161.0250  209.5520  152.3440 C   0  0  0  0  0  0  0  0  0  0  0  0
  160.0810  212.6030  155.2180 C   0  0  0  0  0  2  0  0  0  0  0  0
  158.6750  212.4490  155.8210 C   0  0  1  0  0  3  0  0  0  0  0  0
  157.6640  212.5810  154.7520 N   0  0  0  0  0  0  0  0  0  0  0  0
  155.5100  213.3790  154.6160 C   0  0  0  0  0  2  0  0  0  0  0  0
  156.3810  212.4400  155.3140 N   0  0  0  0  0  2  0  0  0  0  0  0
  156.3350  214.2900  153.8440 N   0  0  0  0  0  2  0  0  0  0  0  0
  157.6880  213.9450  154.2290 C   0  0  0  0  0  2  0  0  0  0  0  0
  159.8460  210.7300  157.2560 C   0  0  0  0  0  1  0  0  0  0  0  0
  158.2850  210.0550  155.6190 O   0  0  0  0  0  1  0  0  0  0  0  0
  158.5600  211.0790  156.5300 C   0  0  2  0  0  3  0  0  0  0  0  0
  161.8940  209.1340  150.0640 C   0  0  0  0  0  0  0  0  0  0  0  0
  162.1370  210.5450  149.9890 N   0  0  0  0  0  2  0  0  0  0  0  0
  162.1140  208.4030  149.0610 O   0  0  0  0  0  0  0  0  0  0  0  0
  162.5120  211.2120  148.7470 C   0  0  0  0  0  2  0  0  0  0  0  0
  161.5640  212.3700  148.4580 C   0  0  0  0  0  2  0  0  0  0  0  0
  162.7240  213.0730  146.3550 C   0  0  0  0  0  3  0  0  0  0  0  0
  161.5040  213.2090  144.2590 C   0  0  0  0  0  0  0  0  0  0  0  0
  159.0190  212.5850  144.2800 C   0  0  0  0  0  1  0  0  0  0  0  0
  160.4070  212.5150  146.2830 N   0  0  0  0  0  0  0  0  0  0  0  0
  162.6900  213.3480  144.9880 C   0  0  0  0  0  3  0  0  0  0  0  0
  161.5580  212.6550  146.9950 C   0  0  0  0  0  0  0  0  0  0  0  0
  160.3390  212.7760  144.9500 C   0  0  0  0  0  0  0  0  0  0  0  0
  161.5460  213.5470  142.8610 N   0  0  0  0  0  0  0  0  0  0  0  0
  162.4740  213.1940  142.0320 C   0  0  0  0  0  3  0  0  0  0  0  0
  162.4010  213.5870  140.5970 C   0  0  0  0  0  2  0  0  0  0  0  0
  162.9980  212.4990  139.7120 C   0  0  0  0  0  2  0  0  0  0  0  0
  162.7160  211.2110  140.2490 O   0  0  0  0  0  0  0  0  0  0  0  0
  162.0590  210.2250  139.5100 C   0  0  0  0  0  0  0  0  0  0  0  0
  161.8880  209.0690  139.9820 O   0  0  0  0  0  0  0  0  0  0  0  0
  161.5360  210.5580  138.1550 C   0  0  0  0  0  1  0  0  0  0  0  0
  162.2530  207.5250  151.8710 N   0  0  0  0  0  2  0  0  0  0  0  0
  161.6600  206.2190  151.6440 C   0  0  0  0  0  2  0  0  0  0  0  0
  160.4860  206.3680  150.9050 O   0  0  0  0  0  0  0  0  0  0  0  0
  160.3580  205.1740  150.1890 C   0  0  0  0  0  2  0  0  0  0  0  0
  161.7050  204.7750  149.6020 C   0  0  0  0  0  2  0  0  0  0  0  0
  161.5500  204.2860  148.1940 C   0  0  0  0  0  0  0  0  0  0  0  0
  160.9950  203.2190  147.9810 O   0  0  0  0  0  0  0  0  0  0  0  0
  162.0250  205.1180  147.0430 C   0  0  0  0  0  3  0  0  0  0  0  0
  160.9190  206.0640  146.5990 C   0  0  0  0  0  2  0  0  0  0  0  0
  161.2100  204.8210  145.7940 C   0  0  0  0  0  2  0  0  0  0  0  0
  1 18  1  6  0  0  0
  1 38  1  0  0  0  0
  1  7  1  0  0  0  0
  2  6  1  0  0  0  0
  3  7  1  0  0  0  0
  3  5  2  0  0  0  0
  4  6  2  0  0  0  0
  4  8  1  0  0  0  0
  5  4  1  0  0  0  0
  7  2  2  0  0  0  0
  9  8  1  6  0  0  0
  9 17  1  0  0  0  0
 10 12  1  0  0  0  0
 10  9  1  0  0  0  0
 11 12  1  0  0  0  0
 13 14  1  0  0  0  0
 13 11  1  0  0  0  0
 14 10  1  0  0  0  0
 16 17  1  0  0  0  0
 17 15  1  6  0  0  0
 19 18  1  0  0  0  0
 20 18  2  0  0  0  0
 21 19  1  0  0  0  0
 22 21  1  0  0  0  0
 23 28  1  0  0  0  0
 24 29  2  0  0  0  0
 24 27  1  0  0  0  0
 25 29  1  0  0  0  0
 26 28  2  0  0  0  0
 27 23  2  0  0  0  0
 28 22  1  0  0  0  0
 29 26  1  0  0  0  0
 30 24  1  0  0  0  0
 31 30  2  0  0  0  0
 32 31  1  0  0  0  0
 33 34  1  0  0  0  0
 33 32  1  0  0  0  0
 35 36  2  0  0  0  0
 35 34  1  0  0  0  0
 37 35  1  0  0  0  0
 39 38  1  0  0  0  0
 40 39  1  0  0  0  0
 41 40  1  0  0  0  0
 42 41  1  0  0  0  0
 43 42  1  0  0  0  0
 44 43  2  0  0  0  0
 45 43  1  0  0  0  0
 46 45  1  0  0  0  0
 47 46  1  0  0  0  0
 47 45  1  0  0  0  0
M  END
>  <MODEL>
8

>  <REMARK>
 VINA RESULT:      -4.8      2.860     10.861
  Name = 
  21 active torsions:
  status: ('A' for Active; 'I' for Inactive)
    1  A    between atoms: C_3  and  C_13
    2  A    between atoms: C_3  and  C_32
    3  A    between atoms: C_6  and  C_33
    4  A    between atoms: C_7  and  N_18
    5  A    between atoms: N_8  and  C_29
    6  A    between atoms: C_9  and  C_38
    7  A    between atoms: C_13  and  N_26
    8  A    between atoms: C_15  and  C_20
    9  A    between atoms: C_15  and  O_37
   10  A    between atoms: C_16  and  C_28
   11  A    between atoms: C_20  and  C_36
   12  A    between atoms: C_22  and  O_37
   13  A    between atoms: C_28  and  C_34
   14  A    between atoms: C_29  and  C_31
   15  A    between atoms: C_29  and  C_33
   16  A    between atoms: C_34  and  C_42
   17  A    between atoms: C_35  and  C_38
   18  A    between atoms: C_38  and  N_46
   19  A    between atoms: O_41  and  C_42
   20  A    between atoms: O_41  and  C_47
   21  A    between atoms: N_46  and  C_47
                            x       y       z     vdW  Elec       q    Type
                         _______ _______ _______ _____ _____    ______ ____

>  <TORSDO>
F 21

$$$$
=
 OpenBabel11052410383D

 47 50  0  0  1  0  0  0  0  0999 V2000
  162.1690  207.6870  148.9120 C   0  0  1  0  0  3  0  0  0  0  0  0
  161.6340  209.9310  147.8850 C   0  0  0  0  0  3  0  0  0  0  0  0
  162.1390  209.7980  150.2490 C   0  0  0  0  0  3  0  0  0  0  0  0
  161.6230  211.9420  149.2420 C   0  0  0  0  0  0  0  0  0  0  0  0
  161.9600  211.1800  150.3650 C   0  0  0  0  0  3  0  0  0  0  0  0
  161.4520  211.3130  148.0010 C   0  0  0  0  0  3  0  0  0  0  0  0
  161.9760  209.1690  149.0100 C   0  0  0  0  0  0  0  0  0  0  0  0
  161.3780  213.4060  149.3960 C   0  0  0  0  0  2  0  0  0  0  0  0
  159.9310  213.7880  149.0430 C   0  0  1  0  0  3  0  0  0  0  0  0
  159.5290  213.0960  147.8020 N   0  0  0  0  0  0  0  0  0  0  0  0
  157.6060  212.9590  146.5460 C   0  0  0  0  0  2  0  0  0  0  0  0
  158.1610  212.7700  147.8820 N   0  0  0  0  0  2  0  0  0  0  0  0
  158.5710  213.6820  145.7400 N   0  0  0  0  0  2  0  0  0  0  0  0
  159.6190  214.0250  146.6780 C   0  0  0  0  0  2  0  0  0  0  0  0
  157.8950  214.4480  150.3860 C   0  0  0  0  0  1  0  0  0  0  0  0
  159.6980  213.3320  151.4230 O   0  0  0  0  0  1  0  0  0  0  0  0
  158.9940  213.4180  150.2170 C   0  0  2  0  0  3  0  0  0  0  0  0
  161.2680  206.9560  149.8640 C   0  0  0  0  0  0  0  0  0  0  0  0
  161.6850  206.6790  151.2070 N   0  0  0  0  0  2  0  0  0  0  0  0
  160.1430  206.5560  149.4580 O   0  0  0  0  0  0  0  0  0  0  0  0
  160.9150  205.8280  152.1090 C   0  0  0  0  0  2  0  0  0  0  0  0
  161.5650  205.7890  153.4870 C   0  0  0  0  0  2  0  0  0  0  0  0
  160.4190  206.7680  155.4850 C   0  0  0  0  0  3  0  0  0  0  0  0
  160.2320  209.1760  155.7430 C   0  0  0  0  0  0  0  0  0  0  0  0
  161.2650  210.6570  153.9250 C   0  0  0  0  0  1  0  0  0  0  0  0
  161.3480  208.2220  153.8390 N   0  0  0  0  0  0  0  0  0  0  0  0
  159.9850  207.8800  156.2080 C   0  0  0  0  0  3  0  0  0  0  0  0
  161.1050  206.9600  154.2860 C   0  0  0  0  0  0  0  0  0  0  0  0
  160.9390  209.3260  154.5180 C   0  0  0  0  0  0  0  0  0  0  0  0
  159.7200  210.2660  156.5300 N   0  0  0  0  0  0  0  0  0  0  0  0
  159.9750  211.5180  156.3330 C   0  0  0  0  0  3  0  0  0  0  0  0
  159.3690  212.5640  157.2030 C   0  0  0  0  0  2  0  0  0  0  0  0
  158.0390  213.0380  156.6280 C   0  0  0  0  0  2  0  0  0  0  0  0
  158.2000  213.4440  155.2730 O   0  0  0  0  0  0  0  0  0  0  0  0
  157.3750  212.9710  154.2520 C   0  0  0  0  0  0  0  0  0  0  0  0
  157.4150  211.7620  153.8950 O   0  0  0  0  0  0  0  0  0  0  0  0
  156.4190  213.9060  153.5950 C   0  0  0  0  0  1  0  0  0  0  0  0
  161.9640  207.2520  147.5370 N   0  0  0  0  0  2  0  0  0  0  0  0
  162.6550  205.9850  147.3830 C   0  0  0  0  0  2  0  0  0  0  0  0
  162.3440  205.4390  146.1380 O   0  0  0  0  0  0  0  0  0  0  0  0
  161.4010  204.4410  146.4080 C   0  0  0  0  0  2  0  0  0  0  0  0
  161.5740  203.9380  147.8330 C   0  0  0  0  0  2  0  0  0  0  0  0
  160.9710  202.5740  147.9940 C   0  0  0  0  0  0  0  0  0  0  0  0
  161.0830  201.7530  147.0970 O   0  0  0  0  0  0  0  0  0  0  0  0
  160.2770  202.1960  149.2660 C   0  0  0  0  0  3  0  0  0  0  0  0
  161.2300  202.3580  150.4410 C   0  0  0  0  0  2  0  0  0  0  0  0
  160.9400  200.9800  149.8960 C   0  0  0  0  0  2  0  0  0  0  0  0
  1 38  1  6  0  0  0
  1  7  1  0  0  0  0
  1 18  1  0  0  0  0
  2  6  2  0  0  0  0
  2  7  1  0  0  0  0
  3  5  1  0  0  0  0
  4  8  1  0  0  0  0
  4  5  2  0  0  0  0
  6  4  1  0  0  0  0
  7  3  2  0  0  0  0
  9  8  1  1  0  0  0
  9 17  1  0  0  0  0
 10 12  1  0  0  0  0
 10  9  1  0  0  0  0
 11 12  1  0  0  0  0
 13 11  1  0  0  0  0
 13 14  1  0  0  0  0
 14 10  1  0  0  0  0
 17 15  1  1  0  0  0
 17 16  1  0  0  0  0
 18 19  1  0  0  0  0
 19 21  1  0  0  0  0
 20 18  2  0  0  0  0
 21 22  1  0  0  0  0
 22 28  1  0  0  0  0
 23 27  1  0  0  0  0
 24 27  2  0  0  0  0
 24 30  1  0  0  0  0
 25 29  1  0  0  0  0
 26 28  1  0  0  0  0
 26 29  2  0  0  0  0
 28 23  2  0  0  0  0
 29 24  1  0  0  0  0
 31 30  2  0  0  0  0
 31 32  1  0  0  0  0
 33 32  1  0  0  0  0
 34 33  1  0  0  0  0
 35 34  1  0  0  0  0
 36 35  2  0  0  0  0
 37 35  1  0  0  0  0
 39 38  1  0  0  0  0
 40 41  1  0  0  0  0
 40 39  1  0  0  0  0
 41 42  1  0  0  0  0
 42 43  1  0  0  0  0
 43 45  1  0  0  0  0
 44 43  2  0  0  0  0
 45 47  1  0  0  0  0
 45 46  1  0  0  0  0
 47 46  1  0  0  0  0
M  END
>  <MODEL>
9

>  <REMARK>
 VINA RESULT:      -4.8      3.754      9.087
  Name = 
  21 active torsions:
  status: ('A' for Active; 'I' for Inactive)
    1  A    between atoms: C_3  and  C_13
    2  A    between atoms: C_3  and  C_32
    3  A    between atoms: C_6  and  C_33
    4  A    between atoms: C_7  and  N_18
    5  A    between atoms: N_8  and  C_29
    6  A    between atoms: C_9  and  C_38
    7  A    between atoms: C_13  and  N_26
    8  A    between atoms: C_15  and  C_20
    9  A    between atoms: C_15  and  O_37
   10  A    between atoms: C_16  and  C_28
   11  A    between atoms: C_20  and  C_36
   12  A    between atoms: C_22  and  O_37
   13  A    between atoms: C_28  and  C_34
   14  A    between atoms: C_29  and  C_31
   15  A    between atoms: C_29  and  C_33
   16  A    between atoms: C_34  and  C_42
   17  A    between atoms: C_35  and  C_38
   18  A    between atoms: C_38  and  N_46
   19  A    between atoms: O_41  and  C_42
   20  A    between atoms: O_41  and  C_47
   21  A    between atoms: N_46  and  C_47
                            x       y       z     vdW  Elec       q    Type
                         _______ _______ _______ _____ _____    ______ ____

>  <TORSDO>
F 21

$$$$
