=
 OpenBabel11052411003D

 37 41  0  0  1  0  0  0  0  0999 V2000
  161.6480  212.8120  147.7570 C   0  0  0  0  0  2  0  0  0  0  0  0
  161.0880  210.5790  151.9560 C   0  0  1  0  0  3  0  0  0  0  0  0
  161.7560  211.4860  149.8610 C   0  0  0  0  0  0  0  0  0  0  0  0
  160.3560  211.7940  151.6140 N   0  0  0  0  0  0  0  0  0  0  0  0
  162.0940  210.3810  150.8090 C   0  0  2  0  0  3  0  0  0  0  0  0
  161.2040  213.9170  148.6110 N   0  0  0  0  0  2  0  0  0  0  0  0
  162.4630  211.7990  148.5750 C   0  0  0  0  0  2  0  0  0  0  0  0
  160.2340  213.4120  149.5900 C   0  0  0  0  0  2  0  0  0  0  0  0
  160.8170  212.2620  150.3600 C   0  0  0  0  0  0  0  0  0  0  0  0
  161.6460  207.5570  148.7170 O   0  0  0  0  0  0  0  0  0  0  0  0
  161.8890  209.0420  150.1760 C   0  0  0  0  0  0  0  0  0  0  0  0
  161.8810  208.8270  148.8450 N   0  0  0  0  0  0  0  0  0  0  0  0
  161.5090  207.0140  149.9020 C   0  0  0  0  0  0  0  0  0  0  0  0
  161.6530  207.9210  150.8870 N   0  0  0  0  0  0  0  0  0  0  0  0
  160.7520  203.2430  150.0710 C   0  0  0  0  0  0  0  0  0  0  0  0
  161.2310  205.5950  150.1310 C   0  0  0  0  0  0  0  0  0  0  0  0
  161.1490  205.0360  151.3580 N   0  0  0  0  0  0  0  0  0  0  0  0
  160.9680  204.4550  148.9190 S   0  0  0  0  0  0  0  0  0  0  0  0
  160.8840  203.7310  151.3240 N   0  0  0  0  0  0  0  0  0  0  0  0
  161.3490  200.8430  150.1520 O   0  0  0  0  0  1  0  0  0  0  0  0
  159.4000  201.5290  149.1650 O   0  0  0  0  0  0  0  0  0  0  0  0
  160.4600  201.8400  149.7710 C   0  0  0  0  0  0  0  0  0  0  0  0
  159.0720  212.1560  152.1960 C   0  0  0  0  0  2  0  0  0  0  0  0
  157.4200  213.7670  153.4160 C   0  0  0  0  0  1  0  0  0  0  0  0
  159.1480  213.8410  152.8700 S   0  0  0  0  0  0  0  0  0  0  0  0
  161.8390  210.7550  153.2680 C   0  0  0  0  0  2  0  0  0  0  0  0
  156.9750  211.3610  156.2830 C   0  0  0  0  0  0  0  0  0  0  0  0
  161.5990  210.4270  155.7150 C   0  0  0  0  0  0  0  0  0  0  0  0
  162.4770  209.7650  156.4630 C   0  0  0  0  0  2  0  0  0  0  0  0
  159.7810  209.9660  154.2970 N   0  0  0  0  0  0  0  0  0  0  0  0
  161.2300  209.8980  154.3690 C   0  0  1  0  0  3  0  0  0  0  0  0
  157.5060  211.9510  157.2600 O   0  0  0  0  0  0  0  0  0  0  0  0
  159.1990  210.6070  155.2570 C   0  0  0  0  0  0  0  0  0  0  0  0
  157.7690  210.6930  155.2950 N   0  0  0  0  0  2  0  0  0  0  0  0
  160.2740  211.3330  156.4950 S   0  0  0  0  0  0  0  0  0  0  0  0
  155.0650  210.1300  155.3460 C   0  0  0  0  0  1  0  0  0  0  0  0
  155.4930  211.3300  156.1660 C   0  0  0  0  0  2  0  0  0  0  0  0
  1  7  1  0  0  0  0
  1  6  1  0  0  0  0
  2 26  1  1  0  0  0
  3  9  2  0  0  0  0
  3  5  1  0  0  0  0
  4  2  1  0  0  0  0
  4 23  1  0  0  0  0
  5 11  1  6  0  0  0
  5  2  1  0  0  0  0
  6  8  1  0  0  0  0
  7  3  1  0  0  0  0
  8  9  1  0  0  0  0
  9  4  1  0  0  0  0
 10 12  1  0  0  0  0
 10 13  1  0  0  0  0
 11 14  1  0  0  0  0
 12 11  2  0  0  0  0
 13 16  1  0  0  0  0
 13 14  2  0  0  0  0
 15 19  2  0  0  0  0
 16 17  2  0  0  0  0
 18 15  1  0  0  0  0
 18 16  1  0  0  0  0
 19 17  1  0  0  0  0
 21 22  2  0  0  0  0
 22 15  1  0  0  0  0
 22 20  1  0  0  0  0
 23 25  1  0  0  0  0
 25 24  1  0  0  0  0
 27 32  2  0  0  0  0
 28 29  2  0  0  0  0
 28 35  1  0  0  0  0
 30 31  1  0  0  0  0
 30 33  2  0  0  0  0
 31 26  1  6  0  0  0
 31 28  1  0  0  0  0
 33 34  1  0  0  0  0
 33 35  1  0  0  0  0
 34 27  1  0  0  0  0
 36 37  1  0  0  0  0
 37 27  1  0  0  0  0
M  END
>  <MODEL>
1

>  <REMARK>
 VINA RESULT:      -6.7      0.000      0.000
  Name = 
  8 active torsions:
  status: ('A' for Active; 'I' for Inactive)
    1  A    between atoms: C_1  and  C_10
    2  A    between atoms: C_6  and  C_32
    3  A    between atoms: C_11  and  C_24
    4  A    between atoms: C_12  and  C_31
    5  A    between atoms: C_13  and  C_35
    6  A    between atoms: C_17  and  C_35
    7  A    between atoms: N_23  and  C_28
    8  A    between atoms: C_28  and  S_37
                            x       y       z     vdW  Elec       q    Type
                         _______ _______ _______ _____ _____    ______ ____

>  <TORSDO>
F 8

$$$$
=
 OpenBabel11052411003D

 37 41  0  0  1  0  0  0  0  0999 V2000
  162.8690  213.0500  145.5600 C   0  0  0  0  0  2  0  0  0  0  0  0
  160.1690  213.3690  149.5010 C   0  0  1  0  0  3  0  0  0  0  0  0
  161.8420  213.1470  147.8250 C   0  0  0  0  0  0  0  0  0  0  0  0
  159.7690  213.9650  148.2310 N   0  0  0  0  0  0  0  0  0  0  0  0
  161.6020  212.8610  149.2720 C   0  0  2  0  0  3  0  0  0  0  0  0
  162.1130  214.2770  145.2900 N   0  0  0  0  0  2  0  0  0  0  0  0
  163.1120  212.8940  147.0680 C   0  0  0  0  0  2  0  0  0  0  0  0
  160.7590  214.1410  145.8390 C   0  0  0  0  0  2  0  0  0  0  0  0
  160.8190  213.7880  147.2990 C   0  0  0  0  0  0  0  0  0  0  0  0
  161.8970  209.5850  150.5870 O   0  0  0  0  0  0  0  0  0  0  0  0
  161.6760  211.3940  149.5540 C   0  0  0  0  0  0  0  0  0  0  0  0
  161.8640  210.8670  150.7800 N   0  0  0  0  0  0  0  0  0  0  0  0
  161.7430  209.3280  149.3120 C   0  0  0  0  0  0  0  0  0  0  0  0
  161.5980  210.4560  148.5890 N   0  0  0  0  0  0  0  0  0  0  0  0
  161.5390  205.6560  148.1740 C   0  0  0  0  0  0  0  0  0  0  0  0
  161.7350  207.9820  148.7370 C   0  0  0  0  0  0  0  0  0  0  0  0
  162.2130  207.6880  147.5080 N   0  0  0  0  0  0  0  0  0  0  0  0
  161.1410  206.6070  149.5070 S   0  0  0  0  0  0  0  0  0  0  0  0
  162.1040  206.3970  147.1960 N   0  0  0  0  0  0  0  0  0  0  0  0
  161.5760  203.5460  146.8820 O   0  0  0  0  0  0  0  0  0  0  0  0
  160.8710  203.5690  149.0610 O   0  0  0  0  0  1  0  0  0  0  0  0
  161.3110  204.2130  148.0710 C   0  0  0  0  0  0  0  0  0  0  0  0
  158.3860  214.2270  147.8590 C   0  0  0  0  0  2  0  0  0  0  0  0
  157.0670  213.7230  145.6640 C   0  0  0  0  0  1  0  0  0  0  0  0
  157.6640  212.7550  147.0770 S   0  0  0  0  0  0  0  0  0  0  0  0
  160.1690  214.4140  150.6090 C   0  0  0  0  0  2  0  0  0  0  0  0
  159.6180  211.5840  155.5890 C   0  0  0  0  0  0  0  0  0  0  0  0
  158.2700  212.9500  151.2420 C   0  0  0  0  0  0  0  0  0  0  0  0
  157.0860  212.9690  150.6380 C   0  0  0  0  0  2  0  0  0  0  0  0
  159.4240  214.1410  152.9090 N   0  0  0  0  0  0  0  0  0  0  0  0
  158.9720  214.2350  151.5320 C   0  0  1  0  0  3  0  0  0  0  0  0
  159.1790  210.5190  155.0800 O   0  0  0  0  0  0  0  0  0  0  0  0
  159.3050  212.9790  153.4630 C   0  0  0  0  0  0  0  0  0  0  0  0
  159.6860  212.7980  154.8320 N   0  0  0  0  0  2  0  0  0  0  0  0
  158.6360  211.6720  152.4330 S   0  0  0  0  0  0  0  0  0  0  0  0
  161.5530  211.4540  157.1000 C   0  0  0  0  0  1  0  0  0  0  0  0
  160.0450  211.5900  157.0130 C   0  0  0  0  0  2  0  0  0  0  0  0
  1  7  1  0  0  0  0
  2 26  1  1  0  0  0
  3  5  1  0  0  0  0
  4  2  1  0  0  0  0
  5  2  1  0  0  0  0
  5 11  1  6  0  0  0
  6  1  1  0  0  0  0
  6  8  1  0  0  0  0
  7  3  1  0  0  0  0
  8  9  1  0  0  0  0
  9  3  2  0  0  0  0
  9  4  1  0  0  0  0
 10 12  1  0  0  0  0
 11 12  2  0  0  0  0
 13 10  1  0  0  0  0
 14 13  2  0  0  0  0
 14 11  1  0  0  0  0
 15 18  1  0  0  0  0
 16 13  1  0  0  0  0
 16 18  1  0  0  0  0
 17 16  2  0  0  0  0
 19 17  1  0  0  0  0
 19 15  2  0  0  0  0
 20 22  2  0  0  0  0
 22 15  1  0  0  0  0
 22 21  1  0  0  0  0
 23  4  1  0  0  0  0
 24 25  1  0  0  0  0
 25 23  1  0  0  0  0
 27 37  1  0  0  0  0
 28 31  1  0  0  0  0
 28 35  1  0  0  0  0
 29 28  2  0  0  0  0
 30 33  2  0  0  0  0
 31 26  1  6  0  0  0
 31 30  1  0  0  0  0
 32 27  2  0  0  0  0
 33 34  1  0  0  0  0
 34 27  1  0  0  0  0
 35 33  1  0  0  0  0
 37 36  1  0  0  0  0
M  END
>  <MODEL>
2

>  <REMARK>
 VINA RESULT:      -5.3      2.639      4.249
  Name = 
  8 active torsions:
  status: ('A' for Active; 'I' for Inactive)
    1  A    between atoms: C_1  and  C_10
    2  A    between atoms: C_6  and  C_32
    3  A    between atoms: C_11  and  C_24
    4  A    between atoms: C_12  and  C_31
    5  A    between atoms: C_13  and  C_35
    6  A    between atoms: C_17  and  C_35
    7  A    between atoms: N_23  and  C_28
    8  A    between atoms: C_28  and  S_37
                            x       y       z     vdW  Elec       q    Type
                         _______ _______ _______ _____ _____    ______ ____

>  <TORSDO>
F 8

$$$$
=
 OpenBabel11052411003D

 37 41  0  0  1  0  0  0  0  0999 V2000
  158.5010  214.1280  149.7630 C   0  0  0  0  0  2  0  0  0  0  0  0
  160.0810  211.0600  153.0830 C   0  0  1  0  0  3  0  0  0  0  0  0
  159.7210  212.6790  151.3780 C   0  0  0  0  0  0  0  0  0  0  0  0
  158.7220  211.5910  153.0950 N   0  0  0  0  0  0  0  0  0  0  0  0
  160.8030  211.8310  151.9640 C   0  0  2  0  0  3  0  0  0  0  0  0
  157.6250  214.4530  150.8930 N   0  0  0  0  0  2  0  0  0  0  0  0
  159.8790  213.6770  150.2690 C   0  0  0  0  0  2  0  0  0  0  0  0
  157.3270  213.2270  151.6420 C   0  0  0  0  0  2  0  0  0  0  0  0
  158.6000  212.5430  152.0540 C   0  0  0  0  0  0  0  0  0  0  0  0
  162.4870  210.0910  149.3790 O   0  0  0  0  0  0  0  0  0  0  0  0
  161.3480  210.8720  150.9540 C   0  0  0  0  0  0  0  0  0  0  0  0
  162.3400  211.1660  150.0900 N   0  0  0  0  0  0  0  0  0  0  0  0
  161.6310  209.1810  149.7740 C   0  0  0  0  0  0  0  0  0  0  0  0
  160.8640  209.6250  150.7880 N   0  0  0  0  0  0  0  0  0  0  0  0
  161.6690  205.7780  147.9740 C   0  0  0  0  0  0  0  0  0  0  0  0
  161.5170  207.8460  149.1860 C   0  0  0  0  0  0  0  0  0  0  0  0
  160.5800  206.9430  149.5510 N   0  0  0  0  0  0  0  0  0  0  0  0
  162.5170  207.2350  147.9760 S   0  0  0  0  0  0  0  0  0  0  0  0
  160.6650  205.7960  148.8790 N   0  0  0  0  0  0  0  0  0  0  0  0
  161.1930  203.4810  147.1880 O   0  0  0  0  0  1  0  0  0  0  0  0
  162.9280  204.6840  146.3000 O   0  0  0  0  0  0  0  0  0  0  0  0
  161.9670  204.6320  147.1130 C   0  0  0  0  0  0  0  0  0  0  0  0
  157.5930  210.9120  153.7140 C   0  0  0  0  0  2  0  0  0  0  0  0
  156.6050  212.8570  155.1480 C   0  0  0  0  0  1  0  0  0  0  0  0
  157.5140  211.3240  155.4820 S   0  0  0  0  0  0  0  0  0  0  0  0
  160.7730  211.3250  154.4130 C   0  0  0  0  0  2  0  0  0  0  0  0
  161.2700  205.7420  153.1100 C   0  0  0  0  0  0  0  0  0  0  0  0
  161.6870  209.5640  155.9020 C   0  0  0  0  0  0  0  0  0  0  0  0
  162.4370  209.8130  156.9700 C   0  0  0  0  0  2  0  0  0  0  0  0
  161.9380  209.3610  153.5730 N   0  0  0  0  0  0  0  0  0  0  0  0
  161.9100  210.3390  154.6460 C   0  0  1  0  0  3  0  0  0  0  0  0
  160.8880  205.3160  154.2310 O   0  0  0  0  0  0  0  0  0  0  0  0
  161.5880  208.1600  153.8960 C   0  0  0  0  0  0  0  0  0  0  0  0
  161.6240  207.1160  152.9140 N   0  0  0  0  0  2  0  0  0  0  0  0
  161.0940  207.9070  155.6020 S   0  0  0  0  0  0  0  0  0  0  0  0
  160.7840  203.4550  152.3510 C   0  0  0  0  0  1  0  0  0  0  0  0
  161.3860  204.7930  151.9700 C   0  0  0  0  0  2  0  0  0  0  0  0
  1  7  1  0  0  0  0
  1  6  1  0  0  0  0
  2  4  1  0  0  0  0
  2 26  1  1  0  0  0
  3  5  1  0  0  0  0
  3  9  2  0  0  0  0
  4 23  1  0  0  0  0
  5 11  1  6  0  0  0
  5  2  1  0  0  0  0
  6  8  1  0  0  0  0
  7  3  1  0  0  0  0
  8  9  1  0  0  0  0
  9  4  1  0  0  0  0
 10 13  1  0  0  0  0
 10 12  1  0  0  0  0
 12 11  2  0  0  0  0
 13 14  2  0  0  0  0
 14 11  1  0  0  0  0
 15 18  1  0  0  0  0
 15 19  2  0  0  0  0
 16 17  2  0  0  0  0
 16 13  1  0  0  0  0
 18 16  1  0  0  0  0
 19 17  1  0  0  0  0
 21 22  2  0  0  0  0
 22 20  1  0  0  0  0
 22 15  1  0  0  0  0
 23 25  1  0  0  0  0
 24 25  1  0  0  0  0
 27 32  2  0  0  0  0
 28 29  2  0  0  0  0
 30 33  2  0  0  0  0
 30 31  1  0  0  0  0
 31 26  1  6  0  0  0
 31 28  1  0  0  0  0
 33 35  1  0  0  0  0
 34 27  1  0  0  0  0
 34 33  1  0  0  0  0
 35 28  1  0  0  0  0
 37 36  1  0  0  0  0
 37 27  1  0  0  0  0
M  END
>  <MODEL>
3

>  <REMARK>
 VINA RESULT:      -4.7      2.664      4.118
  Name = 
  8 active torsions:
  status: ('A' for Active; 'I' for Inactive)
    1  A    between atoms: C_1  and  C_10
    2  A    between atoms: C_6  and  C_32
    3  A    between atoms: C_11  and  C_24
    4  A    between atoms: C_12  and  C_31
    5  A    between atoms: C_13  and  C_35
    6  A    between atoms: C_17  and  C_35
    7  A    between atoms: N_23  and  C_28
    8  A    between atoms: C_28  and  S_37
                            x       y       z     vdW  Elec       q    Type
                         _______ _______ _______ _____ _____    ______ ____

>  <TORSDO>
F 8

$$$$
=
 OpenBabel11052411003D

 37 41  0  0  1  0  0  0  0  0999 V2000
  159.4180  213.4050  148.7660 C   0  0  0  0  0  2  0  0  0  0  0  0
  159.1160  212.5560  153.4680 C   0  0  1  0  0  3  0  0  0  0  0  0
  159.6980  213.0000  151.2050 C   0  0  0  0  0  0  0  0  0  0  0  0
  157.9990  213.0930  152.6990 N   0  0  0  0  0  0  0  0  0  0  0  0
  160.3050  212.5430  152.4930 C   0  0  2  0  0  3  0  0  0  0  0  0
  158.3690  214.3500  149.1590 N   0  0  0  0  0  2  0  0  0  0  0  0
  160.4250  213.2170  149.9100 C   0  0  0  0  0  2  0  0  0  0  0  0
  157.5590  213.7540  150.2290 C   0  0  0  0  0  2  0  0  0  0  0  0
  158.4350  213.3270  151.3730 C   0  0  0  0  0  0  0  0  0  0  0  0
  162.0180  209.4500  152.7170 O   0  0  0  0  0  0  0  0  0  0  0  0
  160.8510  211.1560  152.3720 C   0  0  0  0  0  0  0  0  0  0  0  0
  161.8150  210.6500  153.1670 N   0  0  0  0  0  0  0  0  0  0  0  0
  161.2280  209.2230  151.6970 C   0  0  0  0  0  0  0  0  0  0  0  0
  160.4500  210.2880  151.4220 N   0  0  0  0  0  0  0  0  0  0  0  0
  161.2660  206.1590  149.3670 C   0  0  0  0  0  0  0  0  0  0  0  0
  161.1950  207.9690  150.9430 C   0  0  0  0  0  0  0  0  0  0  0  0
  160.8430  206.7810  151.4790 N   0  0  0  0  0  0  0  0  0  0  0  0
  161.5810  207.8140  149.3110 S   0  0  0  0  0  0  0  0  0  0  0  0
  160.8830  205.7760  150.6050 N   0  0  0  0  0  0  0  0  0  0  0  0
  161.3410  203.8670  148.4380 O   0  0  0  0  0  1  0  0  0  0  0  0
  161.5350  205.6900  147.0660 O   0  0  0  0  0  0  0  0  0  0  0  0
  161.3880  205.2400  148.2330 C   0  0  0  0  0  0  0  0  0  0  0  0
  156.6030  212.9350  153.0810 C   0  0  0  0  0  2  0  0  0  0  0  0
  154.3320  214.2110  153.2570 C   0  0  0  0  0  1  0  0  0  0  0  0
  156.0100  214.4440  153.9030 S   0  0  0  0  0  0  0  0  0  0  0  0
  159.4370  213.4600  154.6510 C   0  0  0  0  0  2  0  0  0  0  0  0
  160.1230  207.8640  155.8030 C   0  0  0  0  0  0  0  0  0  0  0  0
  158.0080  212.1040  156.1580 C   0  0  0  0  0  0  0  0  0  0  0  0
  157.1930  212.6230  157.0710 C   0  0  0  0  0  2  0  0  0  0  0  0
  160.2860  211.5670  155.9230 N   0  0  0  0  0  0  0  0  0  0  0  0
  159.3670  212.6910  155.9640 C   0  0  1  0  0  3  0  0  0  0  0  0
  158.8990  207.5740  155.7550 O   0  0  0  0  0  0  0  0  0  0  0  0
  159.7410  210.3960  155.8650 C   0  0  0  0  0  0  0  0  0  0  0  0
  160.5660  209.2240  155.8630 N   0  0  0  0  0  2  0  0  0  0  0  0
  157.9490  210.3540  155.8090 S   0  0  0  0  0  0  0  0  0  0  0  0
  161.1400  206.0480  154.4940 C   0  0  0  0  0  1  0  0  0  0  0  0
  161.1300  206.7700  155.8270 C   0  0  0  0  0  2  0  0  0  0  0  0
  1  6  1  0  0  0  0
  1  7  1  0  0  0  0
  2 26  1  1  0  0  0
  3  9  2  0  0  0  0
  3  5  1  0  0  0  0
  4 23  1  0  0  0  0
  4  2  1  0  0  0  0
  5 11  1  6  0  0  0
  5  2  1  0  0  0  0
  6  8  1  0  0  0  0
  7  3  1  0  0  0  0
  8  9  1  0  0  0  0
  9  4  1  0  0  0  0
 10 12  1  0  0  0  0
 11 12  2  0  0  0  0
 13 10  1  0  0  0  0
 14 13  2  0  0  0  0
 14 11  1  0  0  0  0
 15 19  2  0  0  0  0
 16 17  2  0  0  0  0
 16 13  1  0  0  0  0
 18 15  1  0  0  0  0
 18 16  1  0  0  0  0
 19 17  1  0  0  0  0
 21 22  2  0  0  0  0
 22 20  1  0  0  0  0
 22 15  1  0  0  0  0
 23 25  1  0  0  0  0
 24 25  1  0  0  0  0
 27 37  1  0  0  0  0
 27 34  1  0  0  0  0
 28 29  2  0  0  0  0
 30 31  1  0  0  0  0
 31 26  1  6  0  0  0
 31 28  1  0  0  0  0
 32 27  2  0  0  0  0
 33 30  2  0  0  0  0
 34 33  1  0  0  0  0
 35 33  1  0  0  0  0
 35 28  1  0  0  0  0
 36 37  1  0  0  0  0
M  END
>  <MODEL>
4

>  <REMARK>
 VINA RESULT:      -4.3      2.413      3.740
  Name = 
  8 active torsions:
  status: ('A' for Active; 'I' for Inactive)
    1  A    between atoms: C_1  and  C_10
    2  A    between atoms: C_6  and  C_32
    3  A    between atoms: C_11  and  C_24
    4  A    between atoms: C_12  and  C_31
    5  A    between atoms: C_13  and  C_35
    6  A    between atoms: C_17  and  C_35
    7  A    between atoms: N_23  and  C_28
    8  A    between atoms: C_28  and  S_37
                            x       y       z     vdW  Elec       q    Type
                         _______ _______ _______ _____ _____    ______ ____

>  <TORSDO>
F 8

$$$$
=
 OpenBabel11052411003D

 37 41  0  0  1  0  0  0  0  0999 V2000
  161.8170  205.1730  152.5740 C   0  0  0  0  0  2  0  0  0  0  0  0
  161.4670  209.0420  149.7750 C   0  0  1  0  0  3  0  0  0  0  0  0
  161.8780  207.3810  151.4280 C   0  0  0  0  0  0  0  0  0  0  0  0
  161.3050  207.6880  149.2580 N   0  0  0  0  0  0  0  0  0  0  0  0
  161.9200  208.8630  151.2340 C   0  0  2  0  0  3  0  0  0  0  0  0
  162.1730  204.6130  151.2670 N   0  0  0  0  0  2  0  0  0  0  0  0
  162.2710  206.6370  152.6700 C   0  0  0  0  0  2  0  0  0  0  0  0
  161.3850  205.2810  150.2240 C   0  0  0  0  0  2  0  0  0  0  0  0
  161.5680  206.7700  150.3040 C   0  0  0  0  0  0  0  0  0  0  0  0
  159.8720  210.0410  153.8730 O   0  0  0  0  0  0  0  0  0  0  0  0
  160.9680  209.5570  152.1540 C   0  0  0  0  0  0  0  0  0  0  0  0
  160.7930  209.2310  153.4500 N   0  0  0  0  0  0  0  0  0  0  0  0
  159.4910  210.8240  152.8940 C   0  0  0  0  0  0  0  0  0  0  0  0
  160.1600  210.5600  151.7550 N   0  0  0  0  0  0  0  0  0  0  0  0
  156.6420  213.3240  153.5690 C   0  0  0  0  0  0  0  0  0  0  0  0
  158.4610  211.8570  153.0170 C   0  0  0  0  0  0  0  0  0  0  0  0
  158.3340  212.8940  152.1610 N   0  0  0  0  0  0  0  0  0  0  0  0
  157.2890  211.9130  154.2250 S   0  0  0  0  0  0  0  0  0  0  0  0
  157.3250  213.7080  152.4670 N   0  0  0  0  0  0  0  0  0  0  0  0
  154.3880  214.3090  153.3060 O   0  0  0  0  0  0  0  0  0  0  0  0
  155.5000  214.4530  155.3020 O   0  0  0  0  0  1  0  0  0  0  0  0
  155.4930  214.0530  154.1080 C   0  0  0  0  0  0  0  0  0  0  0  0
  160.5360  207.3640  148.0650 C   0  0  0  0  0  2  0  0  0  0  0  0
  160.2080  206.3020  145.7030 C   0  0  0  0  0  1  0  0  0  0  0  0
  161.5640  206.4210  146.9010 S   0  0  0  0  0  0  0  0  0  0  0  0
  162.5410  209.7900  148.9960 C   0  0  0  0  0  2  0  0  0  0  0  0
  158.8510  213.3260  146.3520 C   0  0  0  0  0  0  0  0  0  0  0  0
  163.0980  212.0010  148.0210 C   0  0  0  0  0  0  0  0  0  0  0  0
  164.1940  212.6890  148.3240 C   0  0  0  0  0  2  0  0  0  0  0  0
  160.9480  211.6260  148.8960 N   0  0  0  0  0  0  0  0  0  0  0  0
  162.3470  211.2960  149.1020 C   0  0  1  0  0  3  0  0  0  0  0  0
  159.6350  213.6550  145.4240 O   0  0  0  0  0  0  0  0  0  0  0  0
  160.6700  212.2390  147.7930 C   0  0  0  0  0  0  0  0  0  0  0  0
  159.3220  212.6430  147.5200 N   0  0  0  0  0  2  0  0  0  0  0  0
  162.0470  212.5500  146.6860 S   0  0  0  0  0  0  0  0  0  0  0  0
  156.8300  213.8860  147.6340 C   0  0  0  0  0  1  0  0  0  0  0  0
  157.4100  213.6800  146.2490 C   0  0  0  0  0  2  0  0  0  0  0  0
  1  7  1  0  0  0  0
  2 26  1  6  0  0  0
  2  5  1  0  0  0  0
  3  7  1  0  0  0  0
  4  2  1  0  0  0  0
  4  9  1  0  0  0  0
  5  3  1  0  0  0  0
  5 11  1  1  0  0  0
  6  1  1  0  0  0  0
  8  9  1  0  0  0  0
  8  6  1  0  0  0  0
  9  3  2  0  0  0  0
 11 12  2  0  0  0  0
 12 10  1  0  0  0  0
 13 16  1  0  0  0  0
 13 10  1  0  0  0  0
 14 11  1  0  0  0  0
 14 13  2  0  0  0  0
 15 22  1  0  0  0  0
 15 18  1  0  0  0  0
 16 18  1  0  0  0  0
 17 19  1  0  0  0  0
 17 16  2  0  0  0  0
 19 15  2  0  0  0  0
 20 22  2  0  0  0  0
 22 21  1  0  0  0  0
 23  4  1  0  0  0  0
 24 25  1  0  0  0  0
 25 23  1  0  0  0  0
 27 34  1  0  0  0  0
 28 29  2  0  0  0  0
 28 31  1  0  0  0  0
 30 31  1  0  0  0  0
 31 26  1  6  0  0  0
 32 27  2  0  0  0  0
 33 30  2  0  0  0  0
 34 33  1  0  0  0  0
 35 33  1  0  0  0  0
 35 28  1  0  0  0  0
 37 27  1  0  0  0  0
 37 36  1  0  0  0  0
M  END
>  <MODEL>
5

>  <REMARK>
 VINA RESULT:      -4.2      3.418      8.612
  Name = 
  8 active torsions:
  status: ('A' for Active; 'I' for Inactive)
    1  A    between atoms: C_1  and  C_10
    2  A    between atoms: C_6  and  C_32
    3  A    between atoms: C_11  and  C_24
    4  A    between atoms: C_12  and  C_31
    5  A    between atoms: C_13  and  C_35
    6  A    between atoms: C_17  and  C_35
    7  A    between atoms: N_23  and  C_28
    8  A    between atoms: C_28  and  S_37
                            x       y       z     vdW  Elec       q    Type
                         _______ _______ _______ _____ _____    ______ ____

>  <TORSDO>
F 8

$$$$
=
 OpenBabel11052411003D

 37 41  0  0  1  0  0  0  0  0999 V2000
  161.0780  206.1900  156.0020 C   0  0  0  0  0  2  0  0  0  0  0  0
  160.5720  209.8880  153.0030 C   0  0  1  0  0  3  0  0  0  0  0  0
  160.5420  207.8470  154.2240 C   0  0  0  0  0  0  0  0  0  0  0  0
  161.0010  210.0580  154.3860 N   0  0  0  0  0  0  0  0  0  0  0  0
  160.1910  208.4020  152.8810 C   0  0  2  0  0  3  0  0  0  0  0  0
  160.8220  207.2860  156.9410 N   0  0  0  0  0  2  0  0  0  0  0  0
  160.3330  206.4330  154.6810 C   0  0  0  0  0  2  0  0  0  0  0  0
  161.4360  208.5160  156.4270 C   0  0  0  0  0  2  0  0  0  0  0  0
  160.9510  208.8000  155.0330 C   0  0  0  0  0  0  0  0  0  0  0  0
  162.6270  207.2070  150.6030 O   0  0  0  0  0  0  0  0  0  0  0  0
  160.9970  207.7560  151.7990 C   0  0  0  0  0  0  0  0  0  0  0  0
  162.3310  207.8890  151.6670 N   0  0  0  0  0  0  0  0  0  0  0  0
  161.5370  206.6840  150.0990 C   0  0  0  0  0  0  0  0  0  0  0  0
  160.4480  207.0030  150.8250 N   0  0  0  0  0  0  0  0  0  0  0  0
  161.3930  204.8790  146.7010 C   0  0  0  0  0  0  0  0  0  0  0  0
  161.5010  205.8570  148.8920 C   0  0  0  0  0  0  0  0  0  0  0  0
  161.6000  204.5090  148.9030 N   0  0  0  0  0  0  0  0  0  0  0  0
  161.3300  206.4450  147.3230 S   0  0  0  0  0  0  0  0  0  0  0  0
  161.5400  203.9670  147.6880 N   0  0  0  0  0  0  0  0  0  0  0  0
  161.6450  205.4650  144.3110 O   0  0  0  0  0  0  0  0  0  0  0  0
  160.9120  203.3870  144.9330 O   0  0  0  0  0  1  0  0  0  0  0  0
  161.3020  204.5330  145.2810 C   0  0  0  0  0  0  0  0  0  0  0  0
  161.7990  211.1830  154.8540 C   0  0  0  0  0  2  0  0  0  0  0  0
  163.3500  211.1870  156.9530 C   0  0  0  0  0  1  0  0  0  0  0  0
  161.5760  211.4020  156.6430 S   0  0  0  0  0  0  0  0  0  0  0  0
  159.3530  210.7520  152.7070 C   0  0  0  0  0  2  0  0  0  0  0  0
  155.5660  213.7600  155.8260 C   0  0  0  0  0  0  0  0  0  0  0  0
  158.9150  213.1840  152.5050 C   0  0  0  0  0  0  0  0  0  0  0  0
  159.7430  214.0390  151.9120 C   0  0  0  0  0  2  0  0  0  0  0  0
  158.6590  212.1280  154.5900 N   0  0  0  0  0  0  0  0  0  0  0  0
  159.4670  212.1110  153.3830 C   0  0  1  0  0  3  0  0  0  0  0  0
  155.1360  214.4530  154.8670 O   0  0  0  0  0  0  0  0  0  0  0  0
  157.6020  212.8710  154.5500 C   0  0  0  0  0  0  0  0  0  0  0  0
  156.7650  212.9840  155.7070 N   0  0  0  0  0  2  0  0  0  0  0  0
  157.2890  213.7270  153.0050 S   0  0  0  0  0  0  0  0  0  0  0  0
  153.4860  214.4440  156.9430 C   0  0  0  0  0  1  0  0  0  0  0  0
  154.8320  213.7690  157.1190 C   0  0  0  0  0  2  0  0  0  0  0  0
  1  6  1  0  0  0  0
  2 26  1  1  0  0  0
  2  4  1  0  0  0  0
  3  7  1  0  0  0  0
  3  9  2  0  0  0  0
  4 23  1  0  0  0  0
  4  9  1  0  0  0  0
  5 11  1  6  0  0  0
  5  2  1  0  0  0  0
  5  3  1  0  0  0  0
  7  1  1  0  0  0  0
  8  6  1  0  0  0  0
  9  8  1  0  0  0  0
 10 12  1  0  0  0  0
 12 11  2  0  0  0  0
 13 10  1  0  0  0  0
 13 14  2  0  0  0  0
 14 11  1  0  0  0  0
 15 18  1  0  0  0  0
 15 19  2  0  0  0  0
 16 17  2  0  0  0  0
 16 13  1  0  0  0  0
 18 16  1  0  0  0  0
 19 17  1  0  0  0  0
 20 22  2  0  0  0  0
 21 22  1  0  0  0  0
 22 15  1  0  0  0  0
 23 25  1  0  0  0  0
 25 24  1  0  0  0  0
 27 37  1  0  0  0  0
 28 35  1  0  0  0  0
 28 31  1  0  0  0  0
 29 28  2  0  0  0  0
 31 26  1  6  0  0  0
 31 30  1  0  0  0  0
 32 27  2  0  0  0  0
 33 30  2  0  0  0  0
 33 34  1  0  0  0  0
 34 27  1  0  0  0  0
 35 33  1  0  0  0  0
 36 37  1  0  0  0  0
M  END
>  <MODEL>
6

>  <REMARK>
 VINA RESULT:      -4.1      2.998      4.984
  Name = 
  8 active torsions:
  status: ('A' for Active; 'I' for Inactive)
    1  A    between atoms: C_1  and  C_10
    2  A    between atoms: C_6  and  C_32
    3  A    between atoms: C_11  and  C_24
    4  A    between atoms: C_12  and  C_31
    5  A    between atoms: C_13  and  C_35
    6  A    between atoms: C_17  and  C_35
    7  A    between atoms: N_23  and  C_28
    8  A    between atoms: C_28  and  S_37
                            x       y       z     vdW  Elec       q    Type
                         _______ _______ _______ _____ _____    ______ ____

>  <TORSDO>
F 8

$$$$
=
 OpenBabel11052411003D

 37 41  0  0  1  0  0  0  0  0999 V2000
  161.7410  207.6160  156.1740 C   0  0  0  0  0  2  0  0  0  0  0  0
  159.6270  211.1220  153.6920 C   0  0  1  0  0  3  0  0  0  0  0  0
  160.4550  209.1130  154.6580 C   0  0  0  0  0  0  0  0  0  0  0  0
  160.1320  211.3200  155.0460 N   0  0  0  0  0  0  0  0  0  0  0  0
  159.7750  209.6150  153.4250 C   0  0  2  0  0  3  0  0  0  0  0  0
  161.2340  208.4660  157.2560 N   0  0  0  0  0  2  0  0  0  0  0  0
  160.8070  207.6850  154.9580 C   0  0  0  0  0  2  0  0  0  0  0  0
  161.3160  209.8720  156.8440 C   0  0  0  0  0  2  0  0  0  0  0  0
  160.6000  210.0790  155.5390 C   0  0  0  0  0  0  0  0  0  0  0  0
  162.0030  209.7240  150.6720 O   0  0  0  0  0  0  0  0  0  0  0  0
  160.6200  209.3920  152.2110 C   0  0  0  0  0  0  0  0  0  0  0  0
  161.5150  210.2810  151.7380 N   0  0  0  0  0  0  0  0  0  0  0  0
  161.4380  208.5570  150.4890 C   0  0  0  0  0  0  0  0  0  0  0  0
  160.5320  208.2840  151.4480 N   0  0  0  0  0  0  0  0  0  0  0  0
  162.0030  205.8940  147.7660 C   0  0  0  0  0  0  0  0  0  0  0  0
  161.7460  207.6570  149.3760 C   0  0  0  0  0  0  0  0  0  0  0  0
  162.5410  207.9950  148.3370 N   0  0  0  0  0  0  0  0  0  0  0  0
  161.1730  206.0810  149.2210 S   0  0  0  0  0  0  0  0  0  0  0  0
  162.6830  207.0170  147.4430 N   0  0  0  0  0  0  0  0  0  0  0  0
  162.1040  204.7730  145.5630 O   0  0  0  0  0  0  0  0  0  0  0  0
  161.9030  203.5500  147.4880 O   0  0  0  0  0  1  0  0  0  0  0  0
  162.0000  204.6820  146.9450 C   0  0  0  0  0  0  0  0  0  0  0  0
  160.5390  212.6130  155.5780 C   0  0  0  0  0  2  0  0  0  0  0  0
  158.5490  213.9820  156.5680 C   0  0  0  0  0  1  0  0  0  0  0  0
  159.8150  212.8620  157.2260 S   0  0  0  0  0  0  0  0  0  0  0  0
  158.1580  211.5140  153.6030 C   0  0  0  0  0  2  0  0  0  0  0  0
  157.7740  213.0950  148.0830 C   0  0  0  0  0  0  0  0  0  0  0  0
  159.3190  213.4430  152.5630 C   0  0  0  0  0  0  0  0  0  0  0  0
  159.8430  214.4520  153.2530 C   0  0  0  0  0  2  0  0  0  0  0  0
  157.2250  212.7650  151.7370 N   0  0  0  0  0  0  0  0  0  0  0  0
  157.9930  212.8860  152.9630 C   0  0  1  0  0  3  0  0  0  0  0  0
  158.9980  213.3550  147.9420 O   0  0  0  0  0  0  0  0  0  0  0  0
  157.8800  212.9600  150.6400 C   0  0  0  0  0  0  0  0  0  0  0  0
  157.1980  212.9030  149.3810 N   0  0  0  0  0  2  0  0  0  0  0  0
  159.6300  213.3110  150.8100 S   0  0  0  0  0  0  0  0  0  0  0  0
  157.5470  213.7540  145.7260 C   0  0  0  0  0  1  0  0  0  0  0  0
  156.9020  213.0140  146.8820 C   0  0  0  0  0  2  0  0  0  0  0  0
  1  6  1  0  0  0  0
  2 26  1  1  0  0  0
  2  4  1  0  0  0  0
  3  7  1  0  0  0  0
  3  9  2  0  0  0  0
  4  9  1  0  0  0  0
  4 23  1  0  0  0  0
  5 11  1  6  0  0  0
  5  2  1  0  0  0  0
  5  3  1  0  0  0  0
  7  1  1  0  0  0  0
  8  6  1  0  0  0  0
  9  8  1  0  0  0  0
 10 12  1  0  0  0  0
 12 11  2  0  0  0  0
 13 10  1  0  0  0  0
 13 14  2  0  0  0  0
 14 11  1  0  0  0  0
 15 18  1  0  0  0  0
 16 13  1  0  0  0  0
 17 16  2  0  0  0  0
 18 16  1  0  0  0  0
 19 15  2  0  0  0  0
 19 17  1  0  0  0  0
 20 22  2  0  0  0  0
 22 21  1  0  0  0  0
 22 15  1  0  0  0  0
 23 25  1  0  0  0  0
 24 25  1  0  0  0  0
 27 34  1  0  0  0  0
 28 31  1  0  0  0  0
 28 29  2  0  0  0  0
 30 31  1  0  0  0  0
 31 26  1  6  0  0  0
 32 27  2  0  0  0  0
 33 35  1  0  0  0  0
 33 30  2  0  0  0  0
 34 33  1  0  0  0  0
 35 28  1  0  0  0  0
 36 37  1  0  0  0  0
 37 27  1  0  0  0  0
M  END
>  <MODEL>
7

>  <REMARK>
 VINA RESULT:      -3.9      2.986      5.756
  Name = 
  8 active torsions:
  status: ('A' for Active; 'I' for Inactive)
    1  A    between atoms: C_1  and  C_10
    2  A    between atoms: C_6  and  C_32
    3  A    between atoms: C_11  and  C_24
    4  A    between atoms: C_12  and  C_31
    5  A    between atoms: C_13  and  C_35
    6  A    between atoms: C_17  and  C_35
    7  A    between atoms: N_23  and  C_28
    8  A    between atoms: C_28  and  S_37
                            x       y       z     vdW  Elec       q    Type
                         _______ _______ _______ _____ _____    ______ ____

>  <TORSDO>
F 8

$$$$
