=
 OpenBabel11052409513D

 26 28  0  0  1  0  0  0  0  0999 V2000
  160.8800  207.0330  152.3530 N   0  0  0  0  0  0  0  0  0  0  0  0
  161.3860  206.6210  153.6570 C   0  0  0  0  0  1  0  0  0  0  0  0
  160.5360  205.4880  150.4870 C   0  0  2  0  0  3  0  0  0  0  0  0
  161.5640  206.2450  151.3260 C   0  0  2  0  0  3  0  0  0  0  0  0
  161.3250  204.7710  151.5700 C   0  0  0  0  0  2  0  0  0  0  0  0
  161.4290  206.1760  148.2130 C   0  0  0  0  0  0  0  0  0  0  0  0
  161.6450  203.5040  147.4140 C   0  0  0  0  0  3  0  0  0  0  0  0
  161.1680  203.8060  148.6920 C   0  0  0  0  0  0  0  0  0  0  0  0
  162.5050  204.2150  145.2790 O   0  0  0  0  0  1  0  0  0  0  0  0
  162.0230  204.5250  146.5430 C   0  0  0  0  0  0  0  0  0  0  0  0
  161.2950  207.5140  148.5600 O   0  0  0  0  0  1  0  0  0  0  0  0
  161.9070  205.8570  146.9390 C   0  0  0  0  0  3  0  0  0  0  0  0
  160.7550  202.7370  149.5410 N   0  0  0  0  0  1  0  0  0  0  0  0
  161.0840  205.1510  149.1210 C   0  0  0  0  0  0  0  0  0  0  0  0
  161.1430  208.4720  152.1940 C   0  0  2  0  0  3  0  0  0  0  0  0
  162.3240  208.6680  151.4730 O   0  0  0  0  0  1  0  0  0  0  0  0
  161.1860  209.2400  153.5210 C   0  0  0  0  0  2  0  0  0  0  0  0
  159.3320  210.5160  154.6000 N   0  0  0  0  0  0  0  0  0  0  0  0
  158.2600  212.9560  152.0910 C   0  0  0  0  0  1  0  0  0  0  0  0
  158.5410  211.5260  154.1920 C   0  0  1  0  0  3  0  0  0  0  0  0
  159.9080  211.1190  152.4900 N   0  0  0  0  0  0  0  0  0  0  0  0
  158.8920  211.8880  152.9130 C   0  0  0  0  0  0  0  0  0  0  0  0
  160.1470  210.3080  153.5430 C   0  0  0  0  0  0  0  0  0  0  0  0
  157.9090  212.3250  156.4450 C   0  0  0  0  0  1  0  0  0  0  0  0
  156.2160  211.2520  154.9840 C   0  0  0  0  0  1  0  0  0  0  0  0
  157.4490  212.1320  155.0130 C   0  0  0  0  0  3  0  0  0  0  0  0
  1  2  1  0  0  0  0
  3 14  1  6  0  0  0
  3  4  1  0  0  0  0
  3  5  1  0  0  0  0
  4  5  1  0  0  0  0
  4  1  1  1  0  0  0
  6 11  1  0  0  0  0
  6 14  1  0  0  0  0
  7  8  1  0  0  0  0
  8 14  2  0  0  0  0
  8 13  1  0  0  0  0
  9 10  1  0  0  0  0
 10 12  1  0  0  0  0
 10  7  2  0  0  0  0
 12  6  2  0  0  0  0
 15 16  1  1  0  0  0
 15  1  1  0  0  0  0
 15 17  1  0  0  0  0
 17 23  1  0  0  0  0
 19 22  1  0  0  0  0
 20 18  1  0  0  0  0
 20 26  1  6  0  0  0
 21 22  2  0  0  0  0
 21 23  1  0  0  0  0
 22 20  1  0  0  0  0
 23 18  2  0  0  0  0
 25 26  1  0  0  0  0
 26 24  1  0  0  0  0
M  END
>  <MODEL>
1

>  <REMARK>
 VINA RESULT:      -7.8      0.000      0.000
  Name = 
  6 active torsions:
  status: ('A' for Active; 'I' for Inactive)
    1  A    between atoms: N_7  and  C_14
    2  A    between atoms: N_7  and  C_23
    3  A    between atoms: C_10  and  C_21
    4  A    between atoms: C_11  and  C_26
    5  A    between atoms: C_14  and  C_24
    6  A    between atoms: C_17  and  C_24
                            x       y       z     vdW  Elec       q    Type
                         _______ _______ _______ _____ _____    ______ ____

>  <TORSDO>
F 6

$$$$
=
 OpenBabel11052409513D

 26 28  0  0  1  0  0  0  0  0999 V2000
  161.8180  206.1810  152.6560 N   0  0  0  0  0  0  0  0  0  0  0  0
  161.2660  204.8670  152.9620 C   0  0  0  0  0  1  0  0  0  0  0  0
  161.4690  208.0690  154.1720 C   0  0  2  0  0  3  0  0  0  0  0  0
  160.8520  207.1950  153.0810 C   0  0  2  0  0  3  0  0  0  0  0  0
  160.4810  206.9710  154.5300 C   0  0  0  0  0  2  0  0  0  0  0  0
  161.0320  210.3830  153.2240 C   0  0  0  0  0  0  0  0  0  0  0  0
  159.4250  211.0520  155.4130 C   0  0  0  0  0  3  0  0  0  0  0  0
  160.0130  209.7850  155.3500 C   0  0  0  0  0  0  0  0  0  0  0  0
  159.0320  213.2270  154.4570 O   0  0  0  0  0  1  0  0  0  0  0  0
  159.6270  211.9750  154.3890 C   0  0  0  0  0  0  0  0  0  0  0  0
  161.8580  210.1000  152.1430 O   0  0  0  0  0  1  0  0  0  0  0  0
  160.4350  211.6440  153.3020 C   0  0  0  0  0  3  0  0  0  0  0  0
  159.8150  208.8810  156.4340 N   0  0  0  0  0  1  0  0  0  0  0  0
  160.8010  209.4230  154.2330 C   0  0  0  0  0  0  0  0  0  0  0  0
  162.0680  206.2460  151.2080 C   0  0  2  0  0  3  0  0  0  0  0  0
  162.6910  207.4540  150.8810 O   0  0  0  0  0  1  0  0  0  0  0  0
  160.8090  206.0400  150.3560 C   0  0  0  0  0  2  0  0  0  0  0  0
  161.4900  205.3180  148.0660 N   0  0  0  0  0  0  0  0  0  0  0  0
  160.9920  201.6920  148.0160 C   0  0  0  0  0  1  0  0  0  0  0  0
  161.5290  204.1250  147.4430 C   0  0  1  0  0  3  0  0  0  0  0  0
  160.7960  203.6980  149.4950 N   0  0  0  0  0  0  0  0  0  0  0  0
  161.1070  203.1460  148.3110 C   0  0  0  0  0  0  0  0  0  0  0  0
  161.0480  205.0110  149.3050 C   0  0  0  0  0  0  0  0  0  0  0  0
  163.2180  204.7090  145.7340 C   0  0  0  0  0  1  0  0  0  0  0  0
  160.8520  204.3550  145.0770 C   0  0  0  0  0  1  0  0  0  0  0  0
  161.9540  203.9240  146.0240 C   0  0  0  0  0  3  0  0  0  0  0  0
  1  2  1  0  0  0  0
  3 14  1  6  0  0  0
  3  5  1  0  0  0  0
  4  1  1  1  0  0  0
  4  3  1  0  0  0  0
  4  5  1  0  0  0  0
  6 12  2  0  0  0  0
  6 14  1  0  0  0  0
  8  7  1  0  0  0  0
  8 13  1  0  0  0  0
 10  9  1  0  0  0  0
 10  7  2  0  0  0  0
 11  6  1  0  0  0  0
 12 10  1  0  0  0  0
 14  8  2  0  0  0  0
 15 16  1  1  0  0  0
 15  1  1  0  0  0  0
 17 15  1  0  0  0  0
 18 23  2  0  0  0  0
 19 22  1  0  0  0  0
 20 26  1  6  0  0  0
 20 18  1  0  0  0  0
 20 22  1  0  0  0  0
 22 21  2  0  0  0  0
 23 21  1  0  0  0  0
 23 17  1  0  0  0  0
 24 26  1  0  0  0  0
 25 26  1  0  0  0  0
M  END
>  <MODEL>
2

>  <REMARK>
 VINA RESULT:      -7.8      2.225      8.631
  Name = 
  6 active torsions:
  status: ('A' for Active; 'I' for Inactive)
    1  A    between atoms: N_7  and  C_14
    2  A    between atoms: N_7  and  C_23
    3  A    between atoms: C_10  and  C_21
    4  A    between atoms: C_11  and  C_26
    5  A    between atoms: C_14  and  C_24
    6  A    between atoms: C_17  and  C_24
                            x       y       z     vdW  Elec       q    Type
                         _______ _______ _______ _____ _____    ______ ____

>  <TORSDO>
F 6

$$$$
=
 OpenBabel11052409513D

 26 28  0  0  1  0  0  0  0  0999 V2000
  160.8760  207.1590  152.2300 N   0  0  0  0  0  0  0  0  0  0  0  0
  161.3380  206.7440  153.5490 C   0  0  0  0  0  1  0  0  0  0  0  0
  160.5330  205.5680  150.4040 C   0  0  2  0  0  3  0  0  0  0  0  0
  161.5610  206.3430  151.2260 C   0  0  2  0  0  3  0  0  0  0  0  0
  161.3170  204.8770  151.5080 C   0  0  0  0  0  2  0  0  0  0  0  0
  161.4320  206.1940  148.1130 C   0  0  0  0  0  0  0  0  0  0  0  0
  161.6520  203.5010  147.3890 C   0  0  0  0  0  3  0  0  0  0  0  0
  161.1710  203.8380  148.6570 C   0  0  0  0  0  0  0  0  0  0  0  0
  162.5160  204.1540  145.2370 O   0  0  0  0  0  1  0  0  0  0  0  0
  162.0320  204.4980  146.4910 C   0  0  0  0  0  0  0  0  0  0  0  0
  161.2960  207.5410  148.4240 O   0  0  0  0  0  1  0  0  0  0  0  0
  161.9130  205.8400  146.8500 C   0  0  0  0  0  3  0  0  0  0  0  0
  160.7570  202.7920  149.5340 N   0  0  0  0  0  1  0  0  0  0  0  0
  161.0850  205.1930  149.0480 C   0  0  0  0  0  0  0  0  0  0  0  0
  161.1850  208.5880  152.0670 C   0  0  2  0  0  3  0  0  0  0  0  0
  162.3450  208.7450  151.3020 O   0  0  0  0  0  1  0  0  0  0  0  0
  161.3070  209.3470  153.3940 C   0  0  0  0  0  2  0  0  0  0  0  0
  160.4100  211.3210  152.1560 N   0  0  0  0  0  0  0  0  0  0  0  0
  158.9790  213.4950  154.7300 C   0  0  0  0  0  1  0  0  0  0  0  0
  159.7810  212.4470  152.5390 C   0  0  1  0  0  3  0  0  0  0  0  0
  160.1390  211.3040  154.4090 N   0  0  0  0  0  0  0  0  0  0  0  0
  159.6180  212.4350  153.9040 C   0  0  0  0  0  0  0  0  0  0  0  0
  160.6010  210.6570  153.3170 C   0  0  0  0  0  0  0  0  0  0  0  0
  157.8730  213.4020  151.2890 C   0  0  0  0  0  1  0  0  0  0  0  0
  160.1590  213.4870  150.3290 C   0  0  0  0  0  1  0  0  0  0  0  0
  159.3490  213.5340  151.6090 C   0  0  0  0  0  3  0  0  0  0  0  0
  1  2  1  0  0  0  0
  3 14  1  6  0  0  0
  3  4  1  0  0  0  0
  3  5  1  0  0  0  0
  4  5  1  0  0  0  0
  4  1  1  1  0  0  0
  6 11  1  0  0  0  0
  6 14  1  0  0  0  0
  7  8  1  0  0  0  0
  8 14  2  0  0  0  0
  8 13  1  0  0  0  0
  9 10  1  0  0  0  0
 10 12  1  0  0  0  0
 10  7  2  0  0  0  0
 12  6  2  0  0  0  0
 15 16  1  1  0  0  0
 15  1  1  0  0  0  0
 15 17  1  0  0  0  0
 18 20  1  0  0  0  0
 18 23  2  0  0  0  0
 20 26  1  1  0  0  0
 20 22  1  0  0  0  0
 22 21  2  0  0  0  0
 22 19  1  0  0  0  0
 23 17  1  0  0  0  0
 23 21  1  0  0  0  0
 24 26  1  0  0  0  0
 25 26  1  0  0  0  0
M  END
>  <MODEL>
3

>  <REMARK>
 VINA RESULT:      -7.8      1.059      2.094
  Name = 
  6 active torsions:
  status: ('A' for Active; 'I' for Inactive)
    1  A    between atoms: N_7  and  C_14
    2  A    between atoms: N_7  and  C_23
    3  A    between atoms: C_10  and  C_21
    4  A    between atoms: C_11  and  C_26
    5  A    between atoms: C_14  and  C_24
    6  A    between atoms: C_17  and  C_24
                            x       y       z     vdW  Elec       q    Type
                         _______ _______ _______ _____ _____    ______ ____

>  <TORSDO>
F 6

$$$$
=
 OpenBabel11052409513D

 26 28  0  0  1  0  0  0  0  0999 V2000
  162.4060  207.4740  149.8260 N   0  0  0  0  0  0  0  0  0  0  0  0
  161.9560  208.8280  149.5290 C   0  0  0  0  0  1  0  0  0  0  0  0
  162.2630  206.0920  147.8130 C   0  0  2  0  0  3  0  0  0  0  0  0
  161.5550  206.5360  149.0920 C   0  0  2  0  0  3  0  0  0  0  0  0
  161.1620  207.1390  147.7610 C   0  0  0  0  0  2  0  0  0  0  0  0
  161.4380  203.7330  148.2610 C   0  0  0  0  0  0  0  0  0  0  0  0
  161.2060  203.2200  145.5220 C   0  0  0  0  0  3  0  0  0  0  0  0
  161.6550  204.4710  145.9540 C   0  0  0  0  0  0  0  0  0  0  0  0
  160.4110  200.9990  146.0080 O   0  0  0  0  0  1  0  0  0  0  0  0
  160.8640  202.2350  146.4470 C   0  0  0  0  0  0  0  0  0  0  0  0
  161.5810  203.9390  149.6280 O   0  0  0  0  0  1  0  0  0  0  0  0
  160.9890  202.4890  147.8120 C   0  0  0  0  0  3  0  0  0  0  0  0
  162.0310  205.4400  144.9790 N   0  0  0  0  0  1  0  0  0  0  0  0
  161.7460  204.7550  147.3360 C   0  0  0  0  0  0  0  0  0  0  0  0
  162.3080  207.2680  151.2790 C   0  0  2  0  0  3  0  0  0  0  0  0
  162.9490  206.0810  151.6420 O   0  0  0  0  0  1  0  0  0  0  0  0
  160.8680  207.2880  151.8070 C   0  0  0  0  0  2  0  0  0  0  0  0
  161.0410  209.0630  153.5530 N   0  0  0  0  0  0  0  0  0  0  0  0
  160.5550  207.3270  156.7380 C   0  0  0  0  0  1  0  0  0  0  0  0
  160.9570  209.0550  154.8960 C   0  0  1  0  0  3  0  0  0  0  0  0
  160.6310  206.9500  154.2680 N   0  0  0  0  0  0  0  0  0  0  0  0
  160.7090  207.7720  155.3270 C   0  0  0  0  0  0  0  0  0  0  0  0
  160.8300  207.7730  153.2150 C   0  0  0  0  0  0  0  0  0  0  0  0
  160.6150  211.4990  155.0530 C   0  0  0  0  0  1  0  0  0  0  0  0
  162.5830  210.4440  156.1350 C   0  0  0  0  0  1  0  0  0  0  0  0
  161.1260  210.2600  155.7630 C   0  0  0  0  0  3  0  0  0  0  0  0
  1 15  1  0  0  0  0
  2  1  1  0  0  0  0
  3 14  1  6  0  0  0
  3  4  1  0  0  0  0
  4  1  1  1  0  0  0
  5  3  1  0  0  0  0
  5  4  1  0  0  0  0
  6 11  1  0  0  0  0
  7  8  2  0  0  0  0
  7 10  1  0  0  0  0
  8 14  1  0  0  0  0
  9 10  1  0  0  0  0
 10 12  2  0  0  0  0
 12  6  1  0  0  0  0
 13  8  1  0  0  0  0
 14  6  2  0  0  0  0
 15 16  1  6  0  0  0
 15 17  1  0  0  0  0
 17 23  1  0  0  0  0
 18 20  1  0  0  0  0
 20 22  1  0  0  0  0
 20 26  1  1  0  0  0
 21 22  2  0  0  0  0
 22 19  1  0  0  0  0
 23 18  2  0  0  0  0
 23 21  1  0  0  0  0
 24 26  1  0  0  0  0
 26 25  1  0  0  0  0
M  END
>  <MODEL>
4

>  <REMARK>
 VINA RESULT:      -7.6      2.589      3.854
  Name = 
  6 active torsions:
  status: ('A' for Active; 'I' for Inactive)
    1  A    between atoms: N_7  and  C_14
    2  A    between atoms: N_7  and  C_23
    3  A    between atoms: C_10  and  C_21
    4  A    between atoms: C_11  and  C_26
    5  A    between atoms: C_14  and  C_24
    6  A    between atoms: C_17  and  C_24
                            x       y       z     vdW  Elec       q    Type
                         _______ _______ _______ _____ _____    ______ ____

>  <TORSDO>
F 6

$$$$
=
 OpenBabel11052409513D

 26 28  0  0  1  0  0  0  0  0999 V2000
  160.8670  207.2600  152.2150 N   0  0  0  0  0  0  0  0  0  0  0  0
  161.3150  206.8090  153.5270 C   0  0  0  0  0  1  0  0  0  0  0  0
  160.5150  205.6470  150.4100 C   0  0  2  0  0  3  0  0  0  0  0  0
  161.5450  206.4550  151.1970 C   0  0  2  0  0  3  0  0  0  0  0  0
  161.3480  204.9840  151.4960 C   0  0  0  0  0  2  0  0  0  0  0  0
  161.2070  203.9210  148.6810 C   0  0  0  0  0  0  0  0  0  0  0  0
  161.9700  205.9270  146.8860 C   0  0  0  0  0  3  0  0  0  0  0  0
  161.4570  206.2790  148.1370 C   0  0  0  0  0  0  0  0  0  0  0  0
  162.5940  204.2450  145.2780 O   0  0  0  0  0  1  0  0  0  0  0  0
  162.0920  204.5860  146.5260 C   0  0  0  0  0  0  0  0  0  0  0  0
  160.8790  202.9000  149.5630 O   0  0  0  0  0  1  0  0  0  0  0  0
  161.7200  203.5870  147.4250 C   0  0  0  0  0  3  0  0  0  0  0  0
  161.3820  207.6600  148.4850 N   0  0  0  0  0  1  0  0  0  0  0  0
  161.0380  205.2770  149.0420 C   0  0  0  0  0  0  0  0  0  0  0  0
  161.2000  208.6870  152.0840 C   0  0  2  0  0  3  0  0  0  0  0  0
  162.4080  208.8390  151.3970 O   0  0  0  0  0  1  0  0  0  0  0  0
  161.2420  209.4340  153.4230 C   0  0  0  0  0  2  0  0  0  0  0  0
  159.3370  210.5770  154.5600 N   0  0  0  0  0  0  0  0  0  0  0  0
  158.1340  213.0600  152.1550 C   0  0  0  0  0  1  0  0  0  0  0  0
  158.4960  211.5630  154.1960 C   0  0  1  0  0  3  0  0  0  0  0  0
  159.8700  211.2890  152.4730 N   0  0  0  0  0  0  0  0  0  0  0  0
  158.8210  211.9920  152.9310 C   0  0  0  0  0  0  0  0  0  0  0  0
  160.1540  210.4490  153.4930 C   0  0  0  0  0  0  0  0  0  0  0  0
  157.8090  212.1470  156.4990 C   0  0  0  0  0  1  0  0  0  0  0  0
  156.1570  211.1990  154.9090 C   0  0  0  0  0  1  0  0  0  0  0  0
  157.3810  212.0820  155.0450 C   0  0  0  0  0  3  0  0  0  0  0  0
  1  2  1  0  0  0  0
  3 14  1  6  0  0  0
  3  4  1  0  0  0  0
  3  5  1  0  0  0  0
  4  5  1  0  0  0  0
  4  1  1  1  0  0  0
  6 14  1  0  0  0  0
  6 11  1  0  0  0  0
  7  8  1  0  0  0  0
  8 13  1  0  0  0  0
  8 14  2  0  0  0  0
  9 10  1  0  0  0  0
 10  7  2  0  0  0  0
 10 12  1  0  0  0  0
 12  6  2  0  0  0  0
 15 16  1  1  0  0  0
 15  1  1  0  0  0  0
 15 17  1  0  0  0  0
 17 23  1  0  0  0  0
 19 22  1  0  0  0  0
 20 18  1  0  0  0  0
 20 26  1  6  0  0  0
 21 22  2  0  0  0  0
 21 23  1  0  0  0  0
 22 20  1  0  0  0  0
 23 18  2  0  0  0  0
 25 26  1  0  0  0  0
 26 24  1  0  0  0  0
M  END
>  <MODEL>
5

>  <REMARK>
 VINA RESULT:      -7.6      1.221      1.669
  Name = 
  6 active torsions:
  status: ('A' for Active; 'I' for Inactive)
    1  A    between atoms: N_7  and  C_14
    2  A    between atoms: N_7  and  C_23
    3  A    between atoms: C_10  and  C_21
    4  A    between atoms: C_11  and  C_26
    5  A    between atoms: C_14  and  C_24
    6  A    between atoms: C_17  and  C_24
                            x       y       z     vdW  Elec       q    Type
                         _______ _______ _______ _____ _____    ______ ____

>  <TORSDO>
F 6

$$$$
=
 OpenBabel11052409513D

 26 28  0  0  1  0  0  0  0  0999 V2000
  161.5510  208.4310  150.3570 N   0  0  0  0  0  0  0  0  0  0  0  0
  162.2740  209.0570  151.4570 C   0  0  0  0  0  1  0  0  0  0  0  0
  160.8640  206.1060  150.6890 C   0  0  2  0  0  3  0  0  0  0  0  0
  161.9920  207.0380  150.2510 C   0  0  2  0  0  3  0  0  0  0  0  0
  162.0220  206.4070  151.6260 C   0  0  0  0  0  2  0  0  0  0  0  0
  161.1170  204.5770  148.6780 C   0  0  0  0  0  0  0  0  0  0  0  0
  161.0830  202.3080  150.3130 C   0  0  0  0  0  3  0  0  0  0  0  0
  160.9710  203.5760  150.8900 C   0  0  0  0  0  0  0  0  0  0  0  0
  161.3420  200.9080  148.3700 O   0  0  0  0  0  1  0  0  0  0  0  0
  161.2230  202.1710  148.9330 C   0  0  0  0  0  0  0  0  0  0  0  0
  161.0950  205.6790  147.8330 O   0  0  0  0  0  1  0  0  0  0  0  0
  161.2310  203.3030  148.1180 C   0  0  0  0  0  3  0  0  0  0  0  0
  160.7920  203.6750  152.3000 N   0  0  0  0  0  1  0  0  0  0  0  0
  161.0190  204.7330  150.0780 C   0  0  0  0  0  0  0  0  0  0  0  0
  161.8450  209.1850  149.1290 C   0  0  2  0  0  3  0  0  0  0  0  0
  162.7280  208.4640  148.3210 O   0  0  0  0  0  1  0  0  0  0  0  0
  162.3810  210.5980  149.3880 C   0  0  0  0  0  2  0  0  0  0  0  0
  160.7480  211.6050  147.7920 N   0  0  0  0  0  0  0  0  0  0  0  0
  162.7180  213.8910  145.7200 C   0  0  0  0  0  1  0  0  0  0  0  0
  160.8590  212.5010  146.7930 C   0  0  1  0  0  3  0  0  0  0  0  0
  162.9040  212.2920  147.6330 N   0  0  0  0  0  0  0  0  0  0  0  0
  162.1670  212.9150  146.6980 C   0  0  0  0  0  0  0  0  0  0  0  0
  162.0050  211.5150  148.2750 C   0  0  0  0  0  0  0  0  0  0  0  0
  158.4020  212.7250  146.6290 C   0  0  0  0  0  1  0  0  0  0  0  0
  159.7420  212.1990  144.6080 C   0  0  0  0  0  1  0  0  0  0  0  0
  159.7270  212.9480  145.9260 C   0  0  0  0  0  3  0  0  0  0  0  0
  1  2  1  0  0  0  0
  3 14  1  6  0  0  0
  3  5  1  0  0  0  0
  4  1  1  1  0  0  0
  4  3  1  0  0  0  0
  4  5  1  0  0  0  0
  6 14  1  0  0  0  0
  7  8  1  0  0  0  0
  8 13  1  0  0  0  0
  9 10  1  0  0  0  0
 10  7  2  0  0  0  0
 11  6  1  0  0  0  0
 12  6  2  0  0  0  0
 12 10  1  0  0  0  0
 14  8  2  0  0  0  0
 15 16  1  1  0  0  0
 15 17  1  0  0  0  0
 15  1  1  0  0  0  0
 18 23  2  0  0  0  0
 19 22  1  0  0  0  0
 20 26  1  6  0  0  0
 20 18  1  0  0  0  0
 21 23  1  0  0  0  0
 22 20  1  0  0  0  0
 22 21  2  0  0  0  0
 23 17  1  0  0  0  0
 25 26  1  0  0  0  0
 26 24  1  0  0  0  0
M  END
>  <MODEL>
6

>  <REMARK>
 VINA RESULT:      -7.6      4.056      5.310
  Name = 
  6 active torsions:
  status: ('A' for Active; 'I' for Inactive)
    1  A    between atoms: N_7  and  C_14
    2  A    between atoms: N_7  and  C_23
    3  A    between atoms: C_10  and  C_21
    4  A    between atoms: C_11  and  C_26
    5  A    between atoms: C_14  and  C_24
    6  A    between atoms: C_17  and  C_24
                            x       y       z     vdW  Elec       q    Type
                         _______ _______ _______ _____ _____    ______ ____

>  <TORSDO>
F 6

$$$$
=
 OpenBabel11052409513D

 26 28  0  0  1  0  0  0  0  0999 V2000
  161.8630  206.4520  152.6830 N   0  0  0  0  0  0  0  0  0  0  0  0
  161.4120  205.1400  153.1280 C   0  0  0  0  0  1  0  0  0  0  0  0
  161.3810  208.4270  154.0440 C   0  0  2  0  0  3  0  0  0  0  0  0
  160.8310  207.4330  153.0220 C   0  0  2  0  0  3  0  0  0  0  0  0
  160.4610  207.2990  154.4830 C   0  0  0  0  0  2  0  0  0  0  0  0
  159.8140  210.1360  155.0780 C   0  0  0  0  0  0  0  0  0  0  0  0
  159.9240  211.7280  152.7820 C   0  0  0  0  0  3  0  0  0  0  0  0
  160.6500  210.5350  152.8290 C   0  0  0  0  0  0  0  0  0  0  0  0
  158.4480  213.3230  153.8210 O   0  0  0  0  0  1  0  0  0  0  0  0
  159.1580  212.1320  153.8740 C   0  0  0  0  0  0  0  0  0  0  0  0
  159.7030  209.3490  156.2180 O   0  0  0  0  0  1  0  0  0  0  0  0
  159.0970  211.3330  155.0150 C   0  0  0  0  0  3  0  0  0  0  0  0
  161.3910  210.1350  151.6790 N   0  0  0  0  0  1  0  0  0  0  0  0
  160.6290  209.7360  153.9960 C   0  0  0  0  0  0  0  0  0  0  0  0
  162.0910  206.3890  151.2310 C   0  0  2  0  0  3  0  0  0  0  0  0
  162.7050  207.5640  150.7880 O   0  0  0  0  0  1  0  0  0  0  0  0
  160.8200  206.1050  150.4200 C   0  0  0  0  0  2  0  0  0  0  0  0
  161.4940  205.3250  148.1470 N   0  0  0  0  0  0  0  0  0  0  0  0
  161.0780  201.6890  148.2200 C   0  0  0  0  0  1  0  0  0  0  0  0
  161.5540  204.1140  147.5620 C   0  0  1  0  0  3  0  0  0  0  0  0
  160.8510  203.7370  149.6350 N   0  0  0  0  0  0  0  0  0  0  0  0
  161.1630  203.1540  148.4660 C   0  0  0  0  0  0  0  0  0  0  0  0
  161.0720  205.0490  149.4000 C   0  0  0  0  0  0  0  0  0  0  0  0
  163.1920  204.7050  145.8070 C   0  0  0  0  0  1  0  0  0  0  0  0
  160.8360  204.2210  145.1990 C   0  0  0  0  0  1  0  0  0  0  0  0
  161.9680  203.8770  146.1460 C   0  0  0  0  0  3  0  0  0  0  0  0
  1  2  1  0  0  0  0
  3 14  1  6  0  0  0
  3  5  1  0  0  0  0
  4  1  1  1  0  0  0
  4  3  1  0  0  0  0
  4  5  1  0  0  0  0
  6 11  1  0  0  0  0
  7  8  2  0  0  0  0
  7 10  1  0  0  0  0
  8 14  1  0  0  0  0
  9 10  1  0  0  0  0
 10 12  2  0  0  0  0
 12  6  1  0  0  0  0
 13  8  1  0  0  0  0
 14  6  2  0  0  0  0
 15 16  1  6  0  0  0
 15  1  1  0  0  0  0
 17 15  1  0  0  0  0
 18 23  2  0  0  0  0
 19 22  1  0  0  0  0
 20 26  1  6  0  0  0
 20 18  1  0  0  0  0
 20 22  1  0  0  0  0
 22 21  2  0  0  0  0
 23 21  1  0  0  0  0
 23 17  1  0  0  0  0
 24 26  1  0  0  0  0
 25 26  1  0  0  0  0
M  END
>  <MODEL>
7

>  <REMARK>
 VINA RESULT:      -7.6      2.103      8.639
  Name = 
  6 active torsions:
  status: ('A' for Active; 'I' for Inactive)
    1  A    between atoms: N_7  and  C_14
    2  A    between atoms: N_7  and  C_23
    3  A    between atoms: C_10  and  C_21
    4  A    between atoms: C_11  and  C_26
    5  A    between atoms: C_14  and  C_24
    6  A    between atoms: C_17  and  C_24
                            x       y       z     vdW  Elec       q    Type
                         _______ _______ _______ _____ _____    ______ ____

>  <TORSDO>
F 6

$$$$
=
 OpenBabel11052409513D

 26 28  0  0  1  0  0  0  0  0999 V2000
  161.8480  206.4180  152.3380 N   0  0  0  0  0  0  0  0  0  0  0  0
  161.4090  205.0790  152.7100 C   0  0  0  0  0  1  0  0  0  0  0  0
  161.4450  208.3510  153.7830 C   0  0  2  0  0  3  0  0  0  0  0  0
  160.8310  207.3740  152.7820 C   0  0  2  0  0  3  0  0  0  0  0  0
  160.5780  207.1990  154.2630 C   0  0  0  0  0  2  0  0  0  0  0  0
  160.7740  210.5810  152.7690 C   0  0  0  0  0  0  0  0  0  0  0  0
  159.2290  211.2130  155.0130 C   0  0  0  0  0  3  0  0  0  0  0  0
  159.9140  209.9960  154.9680 C   0  0  0  0  0  0  0  0  0  0  0  0
  158.6130  213.3070  153.9940 O   0  0  0  0  0  1  0  0  0  0  0  0
  159.3040  212.1050  153.9440 C   0  0  0  0  0  0  0  0  0  0  0  0
  161.5660  210.3180  151.6580 O   0  0  0  0  0  1  0  0  0  0  0  0
  160.0820  211.7920  152.8300 C   0  0  0  0  0  3  0  0  0  0  0  0
  159.8450  209.1270  156.0960 N   0  0  0  0  0  1  0  0  0  0  0  0
  160.6730  209.6490  153.8260 C   0  0  0  0  0  0  0  0  0  0  0  0
  162.0210  206.4540  150.8780 C   0  0  2  0  0  3  0  0  0  0  0  0
  162.4830  207.7100  150.4780 O   0  0  0  0  0  1  0  0  0  0  0  0
  160.7560  206.0700  150.0990 C   0  0  0  0  0  2  0  0  0  0  0  0
  160.9030  203.8080  149.0550 N   0  0  0  0  0  0  0  0  0  0  0  0
  162.4020  204.3670  145.7620 C   0  0  0  0  0  1  0  0  0  0  0  0
  161.3600  203.3610  147.8700 C   0  0  1  0  0  3  0  0  0  0  0  0
  161.6460  205.5630  147.8240 N   0  0  0  0  0  0  0  0  0  0  0  0
  161.8110  204.4260  147.1260 C   0  0  0  0  0  0  0  0  0  0  0  0
  161.0890  205.1430  148.9800 C   0  0  0  0  0  0  0  0  0  0  0  0
  160.4560  201.7030  146.2730 C   0  0  0  0  0  1  0  0  0  0  0  0
  160.9590  201.0370  148.6100 C   0  0  0  0  0  1  0  0  0  0  0  0
  161.3790  201.9250  147.4560 C   0  0  0  0  0  3  0  0  0  0  0  0
  1  2  1  0  0  0  0
  3 14  1  6  0  0  0
  3  5  1  0  0  0  0
  4  1  1  1  0  0  0
  4  3  1  0  0  0  0
  4  5  1  0  0  0  0
  6 12  2  0  0  0  0
  6 14  1  0  0  0  0
  8  7  1  0  0  0  0
  8 13  1  0  0  0  0
 10  9  1  0  0  0  0
 10  7  2  0  0  0  0
 11  6  1  0  0  0  0
 12 10  1  0  0  0  0
 14  8  2  0  0  0  0
 15 16  1  6  0  0  0
 15  1  1  0  0  0  0
 17 15  1  0  0  0  0
 19 22  1  0  0  0  0
 20 26  1  1  0  0  0
 20 18  1  0  0  0  0
 21 23  1  0  0  0  0
 22 21  2  0  0  0  0
 22 20  1  0  0  0  0
 23 18  2  0  0  0  0
 23 17  1  0  0  0  0
 24 26  1  0  0  0  0
 26 25  1  0  0  0  0
M  END
>  <MODEL>
8

>  <REMARK>
 VINA RESULT:      -7.4      2.040      8.592
  Name = 
  6 active torsions:
  status: ('A' for Active; 'I' for Inactive)
    1  A    between atoms: N_7  and  C_14
    2  A    between atoms: N_7  and  C_23
    3  A    between atoms: C_10  and  C_21
    4  A    between atoms: C_11  and  C_26
    5  A    between atoms: C_14  and  C_24
    6  A    between atoms: C_17  and  C_24
                            x       y       z     vdW  Elec       q    Type
                         _______ _______ _______ _____ _____    ______ ____

>  <TORSDO>
F 6

$$$$
=
 OpenBabel11052409513D

 26 28  0  0  1  0  0  0  0  0999 V2000
  160.8420  207.0740  152.3450 N   0  0  0  0  0  0  0  0  0  0  0  0
  161.3250  206.6040  153.6370 C   0  0  0  0  0  1  0  0  0  0  0  0
  160.4560  205.5540  150.4680 C   0  0  2  0  0  3  0  0  0  0  0  0
  161.5030  206.2950  151.2960 C   0  0  2  0  0  3  0  0  0  0  0  0
  161.2610  204.8200  151.5280 C   0  0  0  0  0  2  0  0  0  0  0  0
  161.1900  203.8880  148.6980 C   0  0  0  0  0  0  0  0  0  0  0  0
  161.8660  205.9540  146.9370 C   0  0  0  0  0  3  0  0  0  0  0  0
  161.3540  206.2630  148.2000 C   0  0  0  0  0  0  0  0  0  0  0  0
  162.5310  204.3270  145.2900 O   0  0  0  0  0  1  0  0  0  0  0  0
  162.0300  204.6240  146.5490 C   0  0  0  0  0  0  0  0  0  0  0  0
  160.9040  202.8380  149.5620 O   0  0  0  0  0  1  0  0  0  0  0  0
  161.7010  203.5960  147.4310 C   0  0  0  0  0  3  0  0  0  0  0  0
  161.2350  207.6330  148.5760 N   0  0  0  0  0  1  0  0  0  0  0  0
  160.9770  205.2290  149.0880 C   0  0  0  0  0  0  0  0  0  0  0  0
  161.1580  208.5070  152.2320 C   0  0  2  0  0  3  0  0  0  0  0  0
  162.3280  208.6850  151.4900 O   0  0  0  0  0  1  0  0  0  0  0  0
  161.2610  209.2220  153.5850 C   0  0  0  0  0  2  0  0  0  0  0  0
  159.8310  211.1270  152.8390 N   0  0  0  0  0  0  0  0  0  0  0  0
  157.4680  211.6810  155.5800 C   0  0  0  0  0  1  0  0  0  0  0  0
  158.8020  211.7880  153.4000 C   0  0  1  0  0  3  0  0  0  0  0  0
  159.3710  210.2230  154.8690 N   0  0  0  0  0  0  0  0  0  0  0  0
  158.5250  211.2390  154.6300 C   0  0  0  0  0  0  0  0  0  0  0  0
  160.1380  210.1850  153.7580 C   0  0  0  0  0  0  0  0  0  0  0  0
  158.3220  212.9530  151.2720 C   0  0  0  0  0  1  0  0  0  0  0  0
  158.5810  214.2500  153.3710 C   0  0  0  0  0  1  0  0  0  0  0  0
  158.0950  212.9460  152.7720 C   0  0  0  0  0  3  0  0  0  0  0  0
  1  2  1  0  0  0  0
  3 14  1  6  0  0  0
  3  4  1  0  0  0  0
  3  5  1  0  0  0  0
  4  5  1  0  0  0  0
  4  1  1  1  0  0  0
  6 14  1  0  0  0  0
  6 11  1  0  0  0  0
  7  8  1  0  0  0  0
  8 13  1  0  0  0  0
  8 14  2  0  0  0  0
  9 10  1  0  0  0  0
 10  7  2  0  0  0  0
 10 12  1  0  0  0  0
 12  6  2  0  0  0  0
 15 16  1  1  0  0  0
 15  1  1  0  0  0  0
 15 17  1  0  0  0  0
 17 23  1  0  0  0  0
 18 20  1  0  0  0  0
 18 23  2  0  0  0  0
 20 26  1  1  0  0  0
 20 22  1  0  0  0  0
 22 21  2  0  0  0  0
 22 19  1  0  0  0  0
 23 21  1  0  0  0  0
 24 26  1  0  0  0  0
 26 25  1  0  0  0  0
M  END
>  <MODEL>
9

>  <REMARK>
 VINA RESULT:      -7.4      1.296      2.415
  Name = 
  6 active torsions:
  status: ('A' for Active; 'I' for Inactive)
    1  A    between atoms: N_7  and  C_14
    2  A    between atoms: N_7  and  C_23
    3  A    between atoms: C_10  and  C_21
    4  A    between atoms: C_11  and  C_26
    5  A    between atoms: C_14  and  C_24
    6  A    between atoms: C_17  and  C_24
                            x       y       z     vdW  Elec       q    Type
                         _______ _______ _______ _____ _____    ______ ____

>  <TORSDO>
F 6

$$$$
