=
 OpenBabel11052410173D

 57 62  0  0  1  0  0  0  0  0999 V2000
  160.3110  212.8990  149.3790 N   0  0  0  0  0  0  0  0  0  0  0  0
  158.6910  213.9420  147.1150 C   0  0  0  0  0  0  0  0  0  0  0  0
  157.8000  213.7620  148.1000 C   0  0  0  0  0  3  0  0  0  0  0  0
  160.8470  213.7260  148.3480 C   0  0  0  0  0  3  0  0  0  0  0  0
  156.6450  214.1820  150.5380 Cl  0  0  0  0  0  0  0  0  0  0  0  0
  158.0310  213.7380  149.5550 C   0  0  0  0  0  0  0  0  0  0  0  0
  160.1250  214.1960  147.3420 C   0  0  0  0  0  3  0  0  0  0  0  0
  159.1710  213.3550  150.1490 C   0  0  0  0  0  0  0  0  0  0  0  0
  162.9540  210.1520  149.6550 C   0  0  0  0  0  2  0  0  0  0  0  0
  162.1830  211.3410  149.1410 C   0  0  0  0  0  0  0  0  0  0  0  0
  162.2380  207.8330  150.3960 N   0  0  0  0  0  0  0  0  0  0  0  0
  161.0730  209.7500  151.1360 N   0  0  0  0  0  0  0  0  0  0  0  0
  160.8480  211.1940  151.1980 C   0  0  0  0  0  2  0  0  0  0  0  0
  161.1470  211.8270  149.8590 C   0  0  0  0  0  0  0  0  0  0  0  0
  162.6320  211.9770  147.8670 C   0  0  0  0  0  1  0  0  0  0  0  0
  162.0520  209.2450  150.4450 C   0  0  0  0  0  0  0  0  0  0  0  0
  161.2720  206.9730  150.9260 N   0  0  0  0  0  0  0  0  0  0  0  0
  161.0500  203.3020  151.5540 C   0  0  0  0  0  3  0  0  0  0  0  0
  161.0020  205.2870  153.4060 Cl  0  0  0  0  0  0  0  0  0  0  0  0
  161.2210  205.5630  150.6630 C   0  0  0  0  0  0  0  0  0  0  0  0
  161.2680  203.6420  149.1710 C   0  0  0  0  0  3  0  0  0  0  0  0
  161.3070  205.0290  149.3540 C   0  0  0  0  0  0  0  0  0  0  0  0
  161.1050  204.6820  151.7580 C   0  0  0  0  0  0  0  0  0  0  0  0
  161.1320  202.7810  150.2640 C   0  0  0  0  0  3  0  0  0  0  0  0
  161.5410  205.8760  148.1550 C   0  0  0  0  0  2  0  0  0  0  0  0
  160.2220  206.2330  147.5050 C   0  0  0  0  0  1  0  0  0  0  0  0
  159.1290  214.0360  144.6400 N   0  0  0  0  0  2  0  0  0  0  0  0
  158.2010  213.9940  145.7220 C   0  0  0  0  0  0  0  0  0  0  0  0
  156.9620  214.0000  145.4790 O   0  0  0  0  0  0  0  0  0  0  0  0
  158.6940  214.0900  143.3060 N   0  0  0  0  0  2  0  0  0  0  0  0
  159.4530  213.6970  140.9630 C   0  0  0  0  0  1  0  0  0  0  0  0
  160.9820  214.4530  142.7270 C   0  0  0  0  0  2  0  0  0  0  0  0
  161.7100  213.2870  143.1870 N   0  0  0  0  0  0  0  0  0  0  0  0
  163.0430  213.0340  143.7020 C   0  0  0  0  0  1  0  0  0  0  0  0
  160.5150  212.4690  142.9040 C   0  0  0  0  0  0  0  0  0  0  0  0
  159.8020  213.7000  142.4430 C   0  0  1  0  0  0  0  0  0  0  0  0
  160.2290  211.2470  142.9990 O   0  0  0  0  0  0  0  0  0  0  0  0
  159.2110  213.4080  151.5510 O   0  0  0  0  0  0  0  0  0  0  0  0
  156.8020  212.1430  153.9330 N   0  0  0  0  0  2  0  0  0  0  0  0
  158.0040  212.7590  154.3650 C   0  0  2  0  0  0  0  0  0  0  0  0
  158.0670  213.3900  152.3930 C   0  0  2  0  0  3  0  0  0  0  0  0
  158.3530  214.4530  153.8290 S   0  0  0  0  0  0  0  0  0  0  0  0
  157.9690  212.1190  153.0920 N   0  0  2  0  0  0  0  0  0  0  0  0
  158.8690  212.0110  155.2660 N   0  0  0  0  0  2  0  0  0  0  0  0
  159.7040  212.9630  155.9860 C   0  0  2  0  0  3  0  0  0  0  0  0
  160.6750  212.2160  156.8890 C   0  0  0  0  0  2  0  0  0  0  0  0
  161.0350  210.8900  156.2970 C   0  0  0  0  0  0  0  0  0  0  0  0
  160.1590  209.9280  156.3780 N   0  0  0  0  0  0  0  0  0  0  0  0
  160.6420  207.6660  156.8850 C   0  0  0  0  0  2  0  0  0  0  0  0
  160.3110  208.5620  155.9720 C   0  0  0  0  0  0  0  0  0  0  0  0
  160.5400  208.2120  154.5380 C   0  0  0  0  0  1  0  0  0  0  0  0
  162.3390  210.7210  154.1670 O   0  0  0  0  0  0  0  0  0  0  0  0
  162.3160  210.7790  155.5570 C   0  0  0  0  0  0  0  0  0  0  0  0
  163.4070  210.8090  156.1870 O   0  0  0  0  0  1  0  0  0  0  0  0
  158.9030  213.8130  156.7520 O   0  0  0  0  0  0  0  0  0  0  0  0
  156.5790  213.7330  157.2600 C   0  0  0  0  0  1  0  0  0  0  0  0
  157.8940  212.9850  157.2580 C   0  0  0  0  0  2  0  0  0  0  0  0
  1 14  1  0  0  0  0
  1  8  1  0  0  0  0
  2  7  1  0  0  0  0
  2  3  2  0  0  0  0
  3  6  1  0  0  0  0
  4  1  1  0  0  0  0
  6  8  2  0  0  0  0
  6  5  1  0  0  0  0
  7  4  2  0  0  0  0
  8 38  1  0  0  0  0
  9 16  1  0  0  0  0
 10  9  1  0  0  0  0
 10 14  2  0  0  0  0
 11 16  1  0  0  0  0
 11 17  2  0  0  0  0
 12 13  1  0  0  0  0
 14 13  1  0  0  0  0
 15 10  1  0  0  0  0
 16 12  2  0  0  0  0
 18 23  1  0  0  0  0
 20 17  1  0  0  0  0
 20 23  2  0  0  0  0
 21 22  2  0  0  0  0
 21 24  1  0  0  0  0
 22 20  1  0  0  0  0
 23 19  1  0  0  0  0
 24 18  2  0  0  0  0
 25 22  1  0  0  0  0
 26 25  1  0  0  0  0
 27 28  1  0  0  0  0
 28  2  1  0  0  0  0
 29 28  2  0  0  0  0
 30 27  1  0  0  0  0
 32 33  1  0  0  0  0
 33 34  1  0  0  0  0
 35 37  2  0  0  0  0
 35 33  1  0  0  0  0
 36 31  1  6  0  0  0
 36 32  1  0  0  0  0
 36 35  1  0  0  0  0
 36 30  1  0  0  0  0
 39 40  1  0  0  0  0
 40 44  1  1  0  0  0
 41 38  1  6  0  0  0
 41 43  1  0  0  0  0
 41 42  1  0  0  0  0
 42 40  1  0  0  0  0
 43 39  1  6  0  0  0
 43 40  1  0  0  0  0
 44 45  1  0  0  0  0
 45 55  1  0  0  0  0
 45 46  1  1  0  0  0
 47 48  2  0  0  0  0
 47 46  1  0  0  0  0
 50 48  1  0  0  0  0
 50 49  2  0  0  0  0
 51 50  1  0  0  0  0
 52 53  2  0  0  0  0
 53 54  1  0  0  0  0
 53 47  1  0  0  0  0
 55 57  1  0  0  0  0
 57 56  1  0  0  0  0
M  END
>  <MODEL>
1

>  <REMARK>
 VINA RESULT:      -6.0      0.000      0.000
  Name = 
  17 active torsions:
  status: ('A' for Active; 'I' for Inactive)
    1  A    between atoms: N_2  and  N_30
    2  A    between atoms: C_7  and  N_32
    3  A    between atoms: CA_8  and  C_27
    4  A    between atoms: CA_8  and  C_29
    5  A    between atoms: C_9  and  C_45
    6  A    between atoms: N_10  and  C_40
    7  A    between atoms: C_11  and  C_23
    8  A    between atoms: C_12  and  O_14
    9  A    between atoms: C_12  and  N_19
   10  A    between atoms: C_12  and  C_27
   11  A    between atoms: N_13  and  C_26
   12  A    between atoms: N_13  and  N_28
   13  A    between atoms: O_14  and  C_53
   14  A    between atoms: N_19  and  C_24
   15  A    between atoms: C_25  and  O_50
   16  A    between atoms: N_30  and  C_46
   17  A    between atoms: O_50  and  C_56
                            x       y       z     vdW  Elec       q    Type
                         _______ _______ _______ _____ _____    ______ ____

>  <TORSDO>
F 17

$$$$
=
 OpenBabel11052410173D

 57 62  0  0  1  0  0  0  0  0999 V2000
  161.8950  208.1200  151.8630 N   0  0  0  0  0  0  0  0  0  0  0  0
  161.5500  205.4260  150.6540 C   0  0  0  0  0  0  0  0  0  0  0  0
  161.1890  206.2720  149.6790 C   0  0  0  0  0  3  0  0  0  0  0  0
  162.6360  206.9750  152.2790 C   0  0  0  0  0  3  0  0  0  0  0  0
  161.5280  208.2520  147.8290 Cl  0  0  0  0  0  0  0  0  0  0  0  0
  161.5860  207.6780  149.4890 C   0  0  0  0  0  0  0  0  0  0  0  0
  162.4870  205.7750  151.7370 C   0  0  0  0  0  3  0  0  0  0  0  0
  161.9170  208.5270  150.4730 C   0  0  0  0  0  0  0  0  0  0  0  0
  160.1650  209.6810  154.8930 C   0  0  0  0  0  2  0  0  0  0  0  0
  160.6560  208.6540  153.9050 C   0  0  0  0  0  0  0  0  0  0  0  0
  158.9610  211.8960  154.6110 N   0  0  0  0  0  2  0  0  0  0  0  0
  160.8270  211.3570  153.2660 N   0  0  0  0  0  0  0  0  0  0  0  0
  161.9140  210.4750  152.8410 C   0  0  0  0  0  2  0  0  0  0  0  0
  161.4680  209.0330  152.8950 C   0  0  0  0  0  0  0  0  0  0  0  0
  160.2620  207.2290  154.1130 C   0  0  0  0  0  1  0  0  0  0  0  0
  160.0170  211.0200  154.2270 C   0  0  0  0  0  0  0  0  0  0  0  0
  158.6650  213.0280  153.8450 N   0  0  0  0  0  2  0  0  0  0  0  0
  155.7980  214.4020  151.8930 C   0  0  0  0  0  3  0  0  0  0  0  0
  158.3480  214.0510  151.0310 Cl  0  0  0  0  0  0  0  0  0  0  0  0
  157.3330  213.4620  153.5350 C   0  0  0  0  0  0  0  0  0  0  0  0
  155.0070  213.8750  154.1160 C   0  0  0  0  0  3  0  0  0  0  0  0
  156.2800  213.4210  154.4810 C   0  0  0  0  0  0  0  0  0  0  0  0
  157.0780  213.9690  152.2430 C   0  0  0  0  0  0  0  0  0  0  0  0
  154.7630  214.3570  152.8250 C   0  0  0  0  0  3  0  0  0  0  0  0
  156.4840  213.0060  155.8940 C   0  0  0  0  0  2  0  0  0  0  0  0
  156.0660  211.5630  156.0780 C   0  0  0  0  0  1  0  0  0  0  0  0
  160.6770  203.4680  149.3400 N   0  0  0  0  0  2  0  0  0  0  0  0
  161.0690  204.0310  150.5900 C   0  0  0  0  0  0  0  0  0  0  0  0
  161.0030  203.3280  151.6360 O   0  0  0  0  0  0  0  0  0  0  0  0
  160.2120  202.1470  149.2470 N   0  0  0  0  0  2  0  0  0  0  0  0
  161.9950  200.5420  148.5660 C   0  0  0  0  0  1  0  0  0  0  0  0
  159.9660  200.8900  147.2310 C   0  0  0  0  0  2  0  0  0  0  0  0
  160.3200  201.7840  146.1470 N   0  0  0  0  0  0  0  0  0  0  0  0
  159.8980  201.9590  144.7700 C   0  0  0  0  0  1  0  0  0  0  0  0
  161.2920  202.4360  147.0430 C   0  0  0  0  0  0  0  0  0  0  0  0
  160.8920  201.4950  148.1350 C   0  0  1  0  0  0  0  0  0  0  0  0
  162.1190  203.3790  146.9270 O   0  0  0  0  0  0  0  0  0  0  0  0
  162.2790  209.8310  150.0990 O   0  0  0  0  0  0  0  0  0  0  0  0
  161.0490  213.1570  149.3930 N   0  0  0  0  0  2  0  0  0  0  0  0
  161.7000  212.3900  148.3930 C   0  0  2  0  0  0  0  0  0  0  0  0
  161.3610  210.8530  149.7390 C   0  0  2  0  0  3  0  0  0  0  0  0
  161.0220  210.7670  147.9640 S   0  0  0  0  0  0  0  0  0  0  0  0
  162.0100  212.1530  149.7640 N   0  0  2  0  0  0  0  0  0  0  0  0
  162.8530  212.9770  147.7260 N   0  0  0  0  0  2  0  0  0  0  0  0
  162.3690  213.7850  146.6140 C   0  0  2  0  0  3  0  0  0  0  0  0
  160.9820  214.3220  146.9340 C   0  0  0  0  0  2  0  0  0  0  0  0
  159.9890  213.8700  145.9100 C   0  0  0  0  0  0  0  0  0  0  0  0
  160.2670  214.0860  144.6550 N   0  0  0  0  0  0  0  0  0  0  0  0
  158.2630  214.4270  143.4390 C   0  0  0  0  0  2  0  0  0  0  0  0
  159.4390  213.8300  143.5130 C   0  0  0  0  0  0  0  0  0  0  0  0
  159.6580  212.6180  142.6680 C   0  0  0  0  0  1  0  0  0  0  0  0
  158.1380  213.4530  147.5430 O   0  0  0  0  0  1  0  0  0  0  0  0
  158.8060  213.1040  146.3730 C   0  0  0  0  0  0  0  0  0  0  0  0
  158.3500  212.1670  145.6650 O   0  0  0  0  0  0  0  0  0  0  0  0
  162.3200  213.0110  145.4520 O   0  0  0  0  0  0  0  0  0  0  0  0
  163.4450  213.8110  143.5130 C   0  0  0  0  0  1  0  0  0  0  0  0
  163.5850  213.1620  144.8730 C   0  0  0  0  0  2  0  0  0  0  0  0
  1  4  1  0  0  0  0
  1 14  1  0  0  0  0
  2  7  1  0  0  0  0
  3  2  2  0  0  0  0
  5  6  1  0  0  0  0
  6  3  1  0  0  0  0
  6  8  2  0  0  0  0
  7  4  2  0  0  0  0
  8  1  1  0  0  0  0
 10 15  1  0  0  0  0
 10  9  1  0  0  0  0
 12 16  2  0  0  0  0
 13 14  1  0  0  0  0
 13 12  1  0  0  0  0
 14 10  2  0  0  0  0
 16 11  1  0  0  0  0
 16  9  1  0  0  0  0
 17 11  1  0  0  0  0
 18 23  2  0  0  0  0
 18 24  1  0  0  0  0
 19 23  1  0  0  0  0
 20 17  1  0  0  0  0
 20 22  2  0  0  0  0
 21 22  1  0  0  0  0
 22 25  1  0  0  0  0
 23 20  1  0  0  0  0
 24 21  2  0  0  0  0
 25 26  1  0  0  0  0
 27 28  1  0  0  0  0
 28  2  1  0  0  0  0
 28 29  2  0  0  0  0
 30 27  1  0  0  0  0
 32 36  1  0  0  0  0
 33 35  1  0  0  0  0
 33 32  1  0  0  0  0
 34 33  1  0  0  0  0
 35 36  1  0  0  0  0
 36 31  1  1  0  0  0
 36 30  1  0  0  0  0
 37 35  2  0  0  0  0
 38  8  1  0  0  0  0
 40 44  1  6  0  0  0
 40 39  1  0  0  0  0
 40 43  1  0  0  0  0
 41 43  1  0  0  0  0
 41 38  1  6  0  0  0
 42 40  1  0  0  0  0
 42 41  1  0  0  0  0
 43 39  1  1  0  0  0
 45 46  1  1  0  0  0
 45 44  1  0  0  0  0
 47 53  1  0  0  0  0
 47 46  1  0  0  0  0
 48 47  2  0  0  0  0
 49 50  2  0  0  0  0
 50 48  1  0  0  0  0
 51 50  1  0  0  0  0
 53 52  1  0  0  0  0
 54 53  2  0  0  0  0
 55 45  1  0  0  0  0
 56 57  1  0  0  0  0
 57 55  1  0  0  0  0
M  END
>  <MODEL>
2

>  <REMARK>
 VINA RESULT:      -5.2      3.135     10.148
  Name = 
  17 active torsions:
  status: ('A' for Active; 'I' for Inactive)
    1  A    between atoms: N_2  and  N_30
    2  A    between atoms: C_7  and  N_32
    3  A    between atoms: CA_8  and  C_27
    4  A    between atoms: CA_8  and  C_29
    5  A    between atoms: C_9  and  C_45
    6  A    between atoms: N_10  and  C_40
    7  A    between atoms: C_11  and  C_23
    8  A    between atoms: C_12  and  O_14
    9  A    between atoms: C_12  and  N_19
   10  A    between atoms: C_12  and  C_27
   11  A    between atoms: N_13  and  C_26
   12  A    between atoms: N_13  and  N_28
   13  A    between atoms: O_14  and  C_53
   14  A    between atoms: N_19  and  C_24
   15  A    between atoms: C_25  and  O_50
   16  A    between atoms: N_30  and  C_46
   17  A    between atoms: O_50  and  C_56
                            x       y       z     vdW  Elec       q    Type
                         _______ _______ _______ _____ _____    ______ ____

>  <TORSDO>
F 17

$$$$
=
 OpenBabel11052410173D

 57 62  0  0  1  0  0  0  0  0999 V2000
  161.8820  208.0190  152.1070 N   0  0  0  0  0  0  0  0  0  0  0  0
  161.4080  205.3820  150.8180 C   0  0  0  0  0  0  0  0  0  0  0  0
  160.9170  206.2690  149.9410 C   0  0  0  0  0  3  0  0  0  0  0  0
  162.6800  206.8650  152.3670 C   0  0  0  0  0  3  0  0  0  0  0  0
  160.9990  208.3420  148.1650 Cl  0  0  0  0  0  0  0  0  0  0  0  0
  161.2750  207.6880  149.7720 C   0  0  0  0  0  0  0  0  0  0  0  0
  162.4730  205.6920  151.7890 C   0  0  0  0  0  3  0  0  0  0  0  0
  161.7220  208.4930  150.7470 C   0  0  0  0  0  0  0  0  0  0  0  0
  160.4770  209.4340  155.3680 C   0  0  0  0  0  2  0  0  0  0  0  0
  160.8370  208.4590  154.2760 C   0  0  0  0  0  0  0  0  0  0  0  0
  159.3630  211.7130  155.3350 N   0  0  0  0  0  2  0  0  0  0  0  0
  161.0880  211.1910  153.8080 N   0  0  0  0  0  0  0  0  0  0  0  0
  162.0930  210.2950  153.2360 C   0  0  0  0  0  2  0  0  0  0  0  0
  161.5840  208.8730  153.2300 C   0  0  0  0  0  0  0  0  0  0  0  0
  160.3920  207.0410  154.4200 C   0  0  0  0  0  1  0  0  0  0  0  0
  160.3410  210.8220  154.8070 C   0  0  0  0  0  0  0  0  0  0  0  0
  159.0630  212.9080  154.6740 N   0  0  0  0  0  2  0  0  0  0  0  0
  156.3120  214.4140  152.6530 C   0  0  0  0  0  3  0  0  0  0  0  0
  158.9620  214.4040  152.0630 Cl  0  0  0  0  0  0  0  0  0  0  0  0
  157.7390  213.2980  154.2830 C   0  0  0  0  0  0  0  0  0  0  0  0
  155.3350  213.4360  154.6370 C   0  0  0  0  0  3  0  0  0  0  0  0
  156.5970  213.0120  155.0710 C   0  0  0  0  0  0  0  0  0  0  0  0
  157.5800  214.0140  153.0780 C   0  0  0  0  0  0  0  0  0  0  0  0
  155.1910  214.1280  153.4290 C   0  0  0  0  0  3  0  0  0  0  0  0
  156.6840  212.3600  156.4040 C   0  0  0  0  0  2  0  0  0  0  0  0
  155.4190  212.6200  157.1930 C   0  0  0  0  0  1  0  0  0  0  0  0
  160.6280  203.3990  149.4820 N   0  0  0  0  0  2  0  0  0  0  0  0
  160.9350  203.9840  150.7460 C   0  0  0  0  0  0  0  0  0  0  0  0
  160.8000  203.2990  151.7970 O   0  0  0  0  0  0  0  0  0  0  0  0
  160.1720  202.0750  149.3810 N   0  0  0  0  0  2  0  0  0  0  0  0
  162.0410  200.5370  148.7780 C   0  0  0  0  0  1  0  0  0  0  0  0
  160.0130  200.7370  147.4100 C   0  0  0  0  0  2  0  0  0  0  0  0
  160.3360  201.6080  146.2980 N   0  0  0  0  0  0  0  0  0  0  0  0
  159.9230  201.7130  144.9100 C   0  0  0  0  0  1  0  0  0  0  0  0
  161.2650  202.3390  147.1800 C   0  0  0  0  0  0  0  0  0  0  0  0
  160.8970  201.4180  148.3000 C   0  0  1  0  0  0  0  0  0  0  0  0
  162.0460  203.3160  147.0390 O   0  0  0  0  0  0  0  0  0  0  0  0
  162.0220  209.8190  150.3970 O   0  0  0  0  0  0  0  0  0  0  0  0
  161.4980  211.3140  147.1460 N   0  0  0  0  0  2  0  0  0  0  0  0
  161.8570  212.1060  148.2670 C   0  0  2  0  0  0  0  0  0  0  0  0
  162.3200  210.2580  149.0790 C   0  0  2  0  0  3  0  0  0  0  0  0
  163.3880  211.7160  149.1510 S   0  0  0  0  0  0  0  0  0  0  0  0
  161.1540  210.8830  148.4750 N   0  0  2  0  0  0  0  0  0  0  0  0
  160.9970  213.2290  148.6120 N   0  0  0  0  0  2  0  0  0  0  0  0
  160.9680  214.1420  147.4770 C   0  0  2  0  0  3  0  0  0  0  0  0
  160.0600  213.5840  146.3910 C   0  0  0  0  0  2  0  0  0  0  0  0
  158.6360  213.5630  146.8500 C   0  0  0  0  0  0  0  0  0  0  0  0
  158.3920  213.8730  148.0930 N   0  0  0  0  0  0  0  0  0  0  0  0
  156.9610  212.9300  149.7270 C   0  0  0  0  0  2  0  0  0  0  0  0
  157.1350  213.8340  148.7790 C   0  0  0  0  0  0  0  0  0  0  0  0
  155.9160  214.4530  148.1780 C   0  0  0  0  0  1  0  0  0  0  0  0
  157.3090  214.2180  144.8310 O   0  0  0  0  0  0  0  0  0  0  0  0
  157.5790  213.3010  145.8420 C   0  0  0  0  0  0  0  0  0  0  0  0
  156.9630  212.2030  145.8530 O   0  0  0  0  0  1  0  0  0  0  0  0
  162.2590  214.3130  146.9730 O   0  0  0  0  0  0  0  0  0  0  0  0
  163.2430  213.8050  144.8660 C   0  0  0  0  0  1  0  0  0  0  0  0
  162.0830  214.4530  145.5920 C   0  0  0  0  0  2  0  0  0  0  0  0
  1  4  1  0  0  0  0
  1 14  1  0  0  0  0
  2  7  1  0  0  0  0
  3  2  2  0  0  0  0
  5  6  1  0  0  0  0
  6  3  1  0  0  0  0
  6  8  2  0  0  0  0
  7  4  2  0  0  0  0
  8  1  1  0  0  0  0
 10 15  1  0  0  0  0
 10  9  1  0  0  0  0
 12 16  2  0  0  0  0
 13 12  1  0  0  0  0
 14 13  1  0  0  0  0
 14 10  2  0  0  0  0
 16 11  1  0  0  0  0
 16  9  1  0  0  0  0
 17 11  1  0  0  0  0
 18 23  2  0  0  0  0
 18 24  1  0  0  0  0
 19 23  1  0  0  0  0
 20 17  1  0  0  0  0
 20 22  2  0  0  0  0
 21 22  1  0  0  0  0
 22 25  1  0  0  0  0
 23 20  1  0  0  0  0
 24 21  2  0  0  0  0
 25 26  1  0  0  0  0
 27 28  1  0  0  0  0
 28  2  1  0  0  0  0
 28 29  2  0  0  0  0
 30 27  1  0  0  0  0
 32 36  1  0  0  0  0
 33 35  1  0  0  0  0
 33 32  1  0  0  0  0
 34 33  1  0  0  0  0
 35 36  1  0  0  0  0
 36 31  1  1  0  0  0
 36 30  1  0  0  0  0
 37 35  2  0  0  0  0
 38  8  1  0  0  0  0
 39 40  1  0  0  0  0
 40 43  1  0  0  0  0
 40 44  1  1  0  0  0
 40 42  1  0  0  0  0
 41 42  1  0  0  0  0
 41 38  1  1  0  0  0
 43 39  1  6  0  0  0
 43 41  1  0  0  0  0
 45 46  1  6  0  0  0
 45 44  1  0  0  0  0
 46 47  1  0  0  0  0
 47 48  2  0  0  0  0
 48 50  1  0  0  0  0
 50 49  2  0  0  0  0
 51 50  1  0  0  0  0
 52 53  2  0  0  0  0
 53 54  1  0  0  0  0
 53 47  1  0  0  0  0
 55 45  1  0  0  0  0
 56 57  1  0  0  0  0
 57 55  1  0  0  0  0
M  END
>  <MODEL>
3

>  <REMARK>
 VINA RESULT:      -5.0      3.131      9.885
  Name = 
  17 active torsions:
  status: ('A' for Active; 'I' for Inactive)
    1  A    between atoms: N_2  and  N_30
    2  A    between atoms: C_7  and  N_32
    3  A    between atoms: CA_8  and  C_27
    4  A    between atoms: CA_8  and  C_29
    5  A    between atoms: C_9  and  C_45
    6  A    between atoms: N_10  and  C_40
    7  A    between atoms: C_11  and  C_23
    8  A    between atoms: C_12  and  O_14
    9  A    between atoms: C_12  and  N_19
   10  A    between atoms: C_12  and  C_27
   11  A    between atoms: N_13  and  C_26
   12  A    between atoms: N_13  and  N_28
   13  A    between atoms: O_14  and  C_53
   14  A    between atoms: N_19  and  C_24
   15  A    between atoms: C_25  and  O_50
   16  A    between atoms: N_30  and  C_46
   17  A    between atoms: O_50  and  C_56
                            x       y       z     vdW  Elec       q    Type
                         _______ _______ _______ _____ _____    ______ ____

>  <TORSDO>
F 17

$$$$
=
 OpenBabel11052410173D

 57 62  0  0  1  0  0  0  0  0999 V2000
  161.9300  208.2360  151.7800 N   0  0  0  0  0  0  0  0  0  0  0  0
  161.6030  205.5200  150.6150 C   0  0  0  0  0  0  0  0  0  0  0  0
  161.1850  206.3450  149.6450 C   0  0  0  0  0  3  0  0  0  0  0  0
  162.7130  207.1130  152.1790 C   0  0  0  0  0  3  0  0  0  0  0  0
  161.4060  208.3100  147.7610 Cl  0  0  0  0  0  0  0  0  0  0  0  0
  161.5410  207.7570  149.4240 C   0  0  0  0  0  0  0  0  0  0  0  0
  162.5720  205.9040  151.6570 C   0  0  0  0  0  3  0  0  0  0  0  0
  161.8890  208.6260  150.3840 C   0  0  0  0  0  0  0  0  0  0  0  0
  160.2800  209.7930  154.8560 C   0  0  0  0  0  2  0  0  0  0  0  0
  160.7570  208.7660  153.8610 C   0  0  0  0  0  0  0  0  0  0  0  0
  159.0160  211.9770  154.5940 N   0  0  0  0  0  2  0  0  0  0  0  0
  160.8420  211.4640  153.1860 N   0  0  0  0  0  0  0  0  0  0  0  0
  161.9320  210.6020  152.7300 C   0  0  0  0  0  2  0  0  0  0  0  0
  161.5220  209.1500  152.8170 C   0  0  0  0  0  0  0  0  0  0  0  0
  160.4040  207.3340  154.1000 C   0  0  0  0  0  1  0  0  0  0  0  0
  160.0760  211.1200  154.1800 C   0  0  0  0  0  0  0  0  0  0  0  0
  158.6660  213.0930  153.8280 N   0  0  0  0  0  2  0  0  0  0  0  0
  155.0280  213.7230  154.3620 C   0  0  0  0  0  3  0  0  0  0  0  0
  156.8030  212.7410  156.1670 Cl  0  0  0  0  0  0  0  0  0  0  0  0
  157.3130  213.4850  153.5530 C   0  0  0  0  0  0  0  0  0  0  0  0
  155.5650  214.3270  152.0840 C   0  0  0  0  0  3  0  0  0  0  0  0
  156.9060  213.9770  152.2880 C   0  0  0  0  0  0  0  0  0  0  0  0
  156.3560  213.3520  154.5800 C   0  0  0  0  0  0  0  0  0  0  0  0
  154.6310  214.2080  153.1180 C   0  0  0  0  0  3  0  0  0  0  0  0
  157.8220  214.0460  151.1200 C   0  0  0  0  0  2  0  0  0  0  0  0
  157.0240  214.0680  149.8340 C   0  0  0  0  0  1  0  0  0  0  0  0
  160.5840  203.5710  149.3950 N   0  0  0  0  0  2  0  0  0  0  0  0
  161.1530  204.1130  150.5850 C   0  0  0  0  0  0  0  0  0  0  0  0
  161.2690  203.3820  151.6070 O   0  0  0  0  0  0  0  0  0  0  0  0
  160.1430  202.2400  149.3370 N   0  0  0  0  0  2  0  0  0  0  0  0
  161.9240  200.5930  148.7550 C   0  0  0  0  0  1  0  0  0  0  0  0
  159.9640  200.9650  147.3250 C   0  0  0  0  0  2  0  0  0  0  0  0
  160.3850  201.8400  146.2490 N   0  0  0  0  0  0  0  0  0  0  0  0
  160.0290  202.0080  144.8520 C   0  0  0  0  0  1  0  0  0  0  0  0
  161.3280  202.4840  147.1820 C   0  0  0  0  0  0  0  0  0  0  0  0
  160.8600  201.5620  148.2640 C   0  0  1  0  0  0  0  0  0  0  0  0
  162.1780  203.4090  147.0940 O   0  0  0  0  0  0  0  0  0  0  0  0
  162.2060  209.9330  149.9830 O   0  0  0  0  0  0  0  0  0  0  0  0
  160.8570  213.2350  149.3920 N   0  0  0  0  0  2  0  0  0  0  0  0
  161.5260  212.5240  148.3640 C   0  0  2  0  0  0  0  0  0  0  0  0
  161.2500  210.9330  149.6620 C   0  0  2  0  0  3  0  0  0  0  0  0
  160.9000  210.8930  147.8870 S   0  0  0  0  0  0  0  0  0  0  0  0
  161.8550  212.2540  149.7240 N   0  0  2  0  0  0  0  0  0  0  0  0
  162.6530  213.1720  147.7080 N   0  0  0  0  0  2  0  0  0  0  0  0
  162.1280  214.0540  146.6740 C   0  0  2  0  0  3  0  0  0  0  0  0
  160.6730  214.3870  146.9720 C   0  0  0  0  0  2  0  0  0  0  0  0
  159.7830  213.8990  145.8740 C   0  0  0  0  0  0  0  0  0  0  0  0
  160.2910  213.7970  144.6770 N   0  0  0  0  0  0  0  0  0  0  0  0
  160.0340  212.3830  142.7950 C   0  0  0  0  0  2  0  0  0  0  0  0
  159.6180  213.4460  143.4610 C   0  0  0  0  0  0  0  0  0  0  0  0
  158.7990  214.4530  142.7230 C   0  0  0  0  0  1  0  0  0  0  0  0
  158.1940  212.5780  147.2860 O   0  0  0  0  0  1  0  0  0  0  0  0
  158.4120  213.4550  146.2280 C   0  0  0  0  0  0  0  0  0  0  0  0
  157.4220  213.9300  145.6120 O   0  0  0  0  0  0  0  0  0  0  0  0
  162.2250  213.4350  145.4270 O   0  0  0  0  0  0  0  0  0  0  0  0
  163.4890  213.5000  143.4100 C   0  0  0  0  0  1  0  0  0  0  0  0
  163.2840  214.0910  144.7880 C   0  0  0  0  0  2  0  0  0  0  0  0
  1  4  1  0  0  0  0
  1 14  1  0  0  0  0
  2  7  1  0  0  0  0
  3  2  2  0  0  0  0
  5  6  1  0  0  0  0
  6  3  1  0  0  0  0
  6  8  2  0  0  0  0
  7  4  2  0  0  0  0
  8  1  1  0  0  0  0
 10 15  1  0  0  0  0
 10  9  1  0  0  0  0
 12 16  2  0  0  0  0
 13 14  1  0  0  0  0
 13 12  1  0  0  0  0
 14 10  2  0  0  0  0
 16 11  1  0  0  0  0
 16  9  1  0  0  0  0
 17 11  1  0  0  0  0
 18 23  1  0  0  0  0
 20 17  1  0  0  0  0
 20 23  2  0  0  0  0
 21 22  2  0  0  0  0
 21 24  1  0  0  0  0
 22 20  1  0  0  0  0
 23 19  1  0  0  0  0
 24 18  2  0  0  0  0
 25 22  1  0  0  0  0
 26 25  1  0  0  0  0
 27 28  1  0  0  0  0
 28  2  1  0  0  0  0
 28 29  2  0  0  0  0
 30 27  1  0  0  0  0
 32 36  1  0  0  0  0
 33 35  1  0  0  0  0
 33 32  1  0  0  0  0
 34 33  1  0  0  0  0
 35 36  1  0  0  0  0
 36 31  1  1  0  0  0
 36 30  1  0  0  0  0
 37 35  2  0  0  0  0
 38  8  1  0  0  0  0
 40 44  1  6  0  0  0
 40 39  1  0  0  0  0
 40 43  1  0  0  0  0
 41 43  1  0  0  0  0
 41 38  1  6  0  0  0
 42 40  1  0  0  0  0
 42 41  1  0  0  0  0
 43 39  1  1  0  0  0
 45 46  1  1  0  0  0
 45 44  1  0  0  0  0
 47 53  1  0  0  0  0
 47 46  1  0  0  0  0
 48 47  2  0  0  0  0
 49 50  2  0  0  0  0
 50 48  1  0  0  0  0
 51 50  1  0  0  0  0
 53 52  1  0  0  0  0
 54 53  2  0  0  0  0
 55 45  1  0  0  0  0
 56 57  1  0  0  0  0
 57 55  1  0  0  0  0
M  END
>  <MODEL>
4

>  <REMARK>
 VINA RESULT:      -4.6      3.170     10.046
  Name = 
  17 active torsions:
  status: ('A' for Active; 'I' for Inactive)
    1  A    between atoms: N_2  and  N_30
    2  A    between atoms: C_7  and  N_32
    3  A    between atoms: CA_8  and  C_27
    4  A    between atoms: CA_8  and  C_29
    5  A    between atoms: C_9  and  C_45
    6  A    between atoms: N_10  and  C_40
    7  A    between atoms: C_11  and  C_23
    8  A    between atoms: C_12  and  O_14
    9  A    between atoms: C_12  and  N_19
   10  A    between atoms: C_12  and  C_27
   11  A    between atoms: N_13  and  C_26
   12  A    between atoms: N_13  and  N_28
   13  A    between atoms: O_14  and  C_53
   14  A    between atoms: N_19  and  C_24
   15  A    between atoms: C_25  and  O_50
   16  A    between atoms: N_30  and  C_46
   17  A    between atoms: O_50  and  C_56
                            x       y       z     vdW  Elec       q    Type
                         _______ _______ _______ _____ _____    ______ ____

>  <TORSDO>
F 17

$$$$
=
 OpenBabel11052410173D

 57 62  0  0  1  0  0  0  0  0999 V2000
  161.9400  208.1170  151.3430 N   0  0  0  0  0  0  0  0  0  0  0  0
  161.3250  205.4760  150.1240 C   0  0  0  0  0  0  0  0  0  0  0  0
  161.0340  206.3590  149.1580 C   0  0  0  0  0  3  0  0  0  0  0  0
  162.5730  206.9040  151.7430 C   0  0  0  0  0  3  0  0  0  0  0  0
  161.5370  208.3090  147.3140 Cl  0  0  0  0  0  0  0  0  0  0  0  0
  161.5610  207.7220  148.9700 C   0  0  0  0  0  0  0  0  0  0  0  0
  162.3040  205.7280  151.1970 C   0  0  0  0  0  3  0  0  0  0  0  0
  161.9830  208.5290  149.9540 C   0  0  0  0  0  0  0  0  0  0  0  0
  160.4630  209.7870  154.4480 C   0  0  0  0  0  2  0  0  0  0  0  0
  160.8500  208.7280  153.4470 C   0  0  0  0  0  0  0  0  0  0  0  0
  159.3380  212.0480  154.2050 N   0  0  0  0  0  2  0  0  0  0  0  0
  161.0950  211.4130  152.7600 N   0  0  0  0  0  0  0  0  0  0  0  0
  162.1160  210.4810  152.2830 C   0  0  0  0  0  2  0  0  0  0  0  0
  161.6150  209.0600  152.3850 C   0  0  0  0  0  0  0  0  0  0  0  0
  160.4100  207.3240  153.7000 C   0  0  0  0  0  1  0  0  0  0  0  0
  160.3310  211.1230  153.7710 C   0  0  0  0  0  0  0  0  0  0  0  0
  159.0440  213.1820  153.4420 N   0  0  0  0  0  2  0  0  0  0  0  0
  156.0640  214.1010  151.3940 C   0  0  0  0  0  3  0  0  0  0  0  0
  158.4810  213.2630  150.4850 Cl  0  0  0  0  0  0  0  0  0  0  0  0
  157.7130  213.6100  153.1190 C   0  0  0  0  0  0  0  0  0  0  0  0
  155.4920  214.3960  153.7240 C   0  0  0  0  0  3  0  0  0  0  0  0
  156.7690  213.9720  154.1110 C   0  0  0  0  0  0  0  0  0  0  0  0
  157.3480  213.6920  151.7590 C   0  0  0  0  0  0  0  0  0  0  0  0
  155.1370  214.4530  152.3730 C   0  0  0  0  0  3  0  0  0  0  0  0
  157.1030  214.0210  155.5580 C   0  0  0  0  0  2  0  0  0  0  0  0
  156.5420  212.8040  156.2620 C   0  0  0  0  0  1  0  0  0  0  0  0
  160.8570  203.3390  148.8840 N   0  0  0  0  0  2  0  0  0  0  0  0
  160.7120  204.1330  150.0590 C   0  0  0  0  0  0  0  0  0  0  0  0
  160.0600  203.6800  151.0390 O   0  0  0  0  0  0  0  0  0  0  0  0
  160.2840  202.0610  148.7900 N   0  0  0  0  0  2  0  0  0  0  0  0
  161.7380  200.2910  147.8030 C   0  0  0  0  0  1  0  0  0  0  0  0
  159.6780  201.0560  146.7100 C   0  0  0  0  0  2  0  0  0  0  0  0
  160.0690  201.9910  145.6750 N   0  0  0  0  0  0  0  0  0  0  0  0
  159.5620  202.3590  144.3660 C   0  0  0  0  0  1  0  0  0  0  0  0
  161.2030  202.4070  146.5220 C   0  0  0  0  0  0  0  0  0  0  0  0
  160.7590  201.4300  147.5650 C   0  0  1  0  0  0  0  0  0  0  0  0
  162.1500  203.2280  146.4040 O   0  0  0  0  0  0  0  0  0  0  0  0
  162.4640  209.7940  149.5830 O   0  0  0  0  0  0  0  0  0  0  0  0
  161.6290  213.2630  148.9900 N   0  0  0  0  0  2  0  0  0  0  0  0
  161.7150  212.3370  147.9190 C   0  0  2  0  0  0  0  0  0  0  0  0
  161.6610  210.9610  149.4650 C   0  0  2  0  0  3  0  0  0  0  0  0
  160.6640  210.8630  147.9590 S   0  0  0  0  0  0  0  0  0  0  0  0
  162.4780  212.1070  149.1000 N   0  0  2  0  0  0  0  0  0  0  0  0
  162.6080  212.6540  146.8130 N   0  0  0  0  0  2  0  0  0  0  0  0
  161.8220  213.2930  145.7660 C   0  0  2  0  0  3  0  0  0  0  0  0
  162.7230  213.6500  144.5930 C   0  0  0  0  0  2  0  0  0  0  0  0
  162.1730  213.0980  143.3160 C   0  0  0  0  0  0  0  0  0  0  0  0
  163.0080  212.8680  142.3410 N   0  0  0  0  0  0  0  0  0  0  0  0
  162.3620  211.1710  140.8200 C   0  0  0  0  0  2  0  0  0  0  0  0
  162.7080  212.4330  141.0090 C   0  0  0  0  0  0  0  0  0  0  0  0
  163.1910  213.2060  139.8260 C   0  0  0  0  0  1  0  0  0  0  0  0
  159.8490  213.4310  142.4460 O   0  0  0  0  0  0  0  0  0  0  0  0
  160.7330  212.7410  143.2700 C   0  0  0  0  0  0  0  0  0  0  0  0
  160.3120  211.7560  143.9310 O   0  0  0  0  0  1  0  0  0  0  0  0
  161.2160  214.4480  146.2660 O   0  0  0  0  0  0  0  0  0  0  0  0
  159.2500  214.4470  147.6080 C   0  0  0  0  0  1  0  0  0  0  0  0
  159.8460  214.1650  146.2460 C   0  0  0  0  0  2  0  0  0  0  0  0
  1  4  1  0  0  0  0
  1 14  1  0  0  0  0
  2  7  1  0  0  0  0
  3  2  2  0  0  0  0
  5  6  1  0  0  0  0
  6  3  1  0  0  0  0
  6  8  2  0  0  0  0
  7  4  2  0  0  0  0
  8  1  1  0  0  0  0
 10 15  1  0  0  0  0
 10  9  1  0  0  0  0
 12 16  2  0  0  0  0
 13 14  1  0  0  0  0
 13 12  1  0  0  0  0
 14 10  2  0  0  0  0
 16 11  1  0  0  0  0
 16  9  1  0  0  0  0
 17 11  1  0  0  0  0
 18 23  2  0  0  0  0
 18 24  1  0  0  0  0
 19 23  1  0  0  0  0
 20 17  1  0  0  0  0
 20 22  2  0  0  0  0
 21 22  1  0  0  0  0
 22 25  1  0  0  0  0
 23 20  1  0  0  0  0
 24 21  2  0  0  0  0
 25 26  1  0  0  0  0
 27 28  1  0  0  0  0
 28  2  1  0  0  0  0
 28 29  2  0  0  0  0
 30 27  1  0  0  0  0
 32 36  1  0  0  0  0
 33 35  1  0  0  0  0
 33 32  1  0  0  0  0
 34 33  1  0  0  0  0
 35 36  1  0  0  0  0
 36 31  1  1  0  0  0
 36 30  1  0  0  0  0
 37 35  2  0  0  0  0
 38  8  1  0  0  0  0
 40 44  1  6  0  0  0
 40 42  1  0  0  0  0
 40 39  1  0  0  0  0
 40 43  1  0  0  0  0
 41 38  1  6  0  0  0
 42 41  1  0  0  0  0
 43 39  1  1  0  0  0
 43 41  1  0  0  0  0
 45 46  1  6  0  0  0
 45 55  1  0  0  0  0
 45 44  1  0  0  0  0
 47 46  1  0  0  0  0
 48 47  2  0  0  0  0
 49 50  2  0  0  0  0
 50 48  1  0  0  0  0
 51 50  1  0  0  0  0
 52 53  2  0  0  0  0
 53 47  1  0  0  0  0
 53 54  1  0  0  0  0
 57 55  1  0  0  0  0
 57 56  1  0  0  0  0
M  END
>  <MODEL>
5

>  <REMARK>
 VINA RESULT:      -4.4      3.271     10.335
  Name = 
  17 active torsions:
  status: ('A' for Active; 'I' for Inactive)
    1  A    between atoms: N_2  and  N_30
    2  A    between atoms: C_7  and  N_32
    3  A    between atoms: CA_8  and  C_27
    4  A    between atoms: CA_8  and  C_29
    5  A    between atoms: C_9  and  C_45
    6  A    between atoms: N_10  and  C_40
    7  A    between atoms: C_11  and  C_23
    8  A    between atoms: C_12  and  O_14
    9  A    between atoms: C_12  and  N_19
   10  A    between atoms: C_12  and  C_27
   11  A    between atoms: N_13  and  C_26
   12  A    between atoms: N_13  and  N_28
   13  A    between atoms: O_14  and  C_53
   14  A    between atoms: N_19  and  C_24
   15  A    between atoms: C_25  and  O_50
   16  A    between atoms: N_30  and  C_46
   17  A    between atoms: O_50  and  C_56
                            x       y       z     vdW  Elec       q    Type
                         _______ _______ _______ _____ _____    ______ ____

>  <TORSDO>
F 17

$$$$
=
 OpenBabel11052410173D

 57 62  0  0  1  0  0  0  0  0999 V2000
  159.6880  212.4800  146.6540 N   0  0  0  0  0  0  0  0  0  0  0  0
  161.1760  213.1280  144.1630 C   0  0  0  0  0  0  0  0  0  0  0  0
  161.9690  213.5780  145.1450 C   0  0  0  0  0  3  0  0  0  0  0  0
  159.5370  211.7490  145.4390 C   0  0  0  0  0  3  0  0  0  0  0  0
  163.5750  213.3980  147.3470 Cl  0  0  0  0  0  0  0  0  0  0  0  0
  162.0300  213.1390  146.5500 C   0  0  0  0  0  0  0  0  0  0  0  0
  160.2040  212.0330  144.3300 C   0  0  0  0  0  3  0  0  0  0  0  0
  161.0030  212.6310  147.2460 C   0  0  0  0  0  0  0  0  0  0  0  0
  156.4240  213.9240  148.0210 C   0  0  0  0  0  2  0  0  0  0  0  0
  157.5970  213.6670  147.1100 C   0  0  0  0  0  0  0  0  0  0  0  0
  156.2570  214.4460  150.4980 N   0  0  0  0  0  2  0  0  0  0  0  0
  157.6590  212.7100  149.7220 N   0  0  0  0  0  0  0  0  0  0  0  0
  158.2430  211.8810  148.6680 C   0  0  0  0  0  2  0  0  0  0  0  0
  158.4950  212.7110  147.4300 C   0  0  0  0  0  0  0  0  0  0  0  0
  157.6950  214.4530  145.8440 C   0  0  0  0  0  1  0  0  0  0  0  0
  156.8000  213.6490  149.4490 C   0  0  0  0  0  0  0  0  0  0  0  0
  156.7760  214.3620  151.7940 N   0  0  0  0  0  2  0  0  0  0  0  0
  153.7460  214.4530  153.9690 C   0  0  0  0  0  3  0  0  0  0  0  0
  153.8150  214.4370  151.2540 Cl  0  0  0  0  0  0  0  0  0  0  0  0
  155.9730  214.3860  152.9830 C   0  0  0  0  0  0  0  0  0  0  0  0
  155.6940  214.4280  155.3990 C   0  0  0  0  0  3  0  0  0  0  0  0
  156.5370  214.3880  154.2820 C   0  0  0  0  0  0  0  0  0  0  0  0
  154.5700  214.4310  152.8420 C   0  0  0  0  0  0  0  0  0  0  0  0
  154.3040  214.4520  155.2450 C   0  0  0  0  0  3  0  0  0  0  0  0
  158.0030  214.4520  154.5210 C   0  0  0  0  0  2  0  0  0  0  0  0
  158.4840  213.1610  155.1460 C   0  0  0  0  0  1  0  0  0  0  0  0
  160.3850  213.4110  141.7920 N   0  0  0  0  0  2  0  0  0  0  0  0
  161.3510  213.6850  142.8050 C   0  0  0  0  0  0  0  0  0  0  0  0
  162.3500  214.4050  142.5330 O   0  0  0  0  0  0  0  0  0  0  0  0
  160.5250  213.9210  140.4920 N   0  0  0  0  0  2  0  0  0  0  0  0
  162.1890  212.8620  138.9660 C   0  0  0  0  0  1  0  0  0  0  0  0
  160.5160  211.5520  140.1940 C   0  0  0  0  0  2  0  0  0  0  0  0
  159.4410  211.2610  139.2670 N   0  0  0  0  0  0  0  0  0  0  0  0
  158.5080  210.1660  139.0740 C   0  0  0  0  0  1  0  0  0  0  0  0
  159.7030  212.5530  138.6060 C   0  0  0  0  0  0  0  0  0  0  0  0
  160.8020  212.8130  139.5870 C   0  0  1  0  0  0  0  0  0  0  0  0
  159.2140  213.1660  137.6210 O   0  0  0  0  0  0  0  0  0  0  0  0
  161.2510  212.2570  148.5760 O   0  0  0  0  0  0  0  0  0  0  0  0
  163.1700  209.9850  150.6320 N   0  0  0  0  0  2  0  0  0  0  0  0
  162.2710  209.5000  149.6490 C   0  0  2  0  0  0  0  0  0  0  0  0
  162.3510  211.4650  149.0000 C   0  0  2  0  0  3  0  0  0  0  0  0
  162.5050  210.0150  147.9290 S   0  0  0  0  0  0  0  0  0  0  0  0
  162.0340  210.7750  150.2400 N   0  0  2  0  0  0  0  0  0  0  0  0
  161.2370  208.5650  150.0700 N   0  0  0  0  0  2  0  0  0  0  0  0
  161.7090  207.2140  149.7950 C   0  0  2  0  0  3  0  0  0  0  0  0
  160.5620  206.3670  149.2640 C   0  0  0  0  0  2  0  0  0  0  0  0
  161.0150  205.5230  148.1150 C   0  0  0  0  0  0  0  0  0  0  0  0
  161.3470  206.1270  147.0080 N   0  0  0  0  0  0  0  0  0  0  0  0
  162.8910  204.9280  145.6710 C   0  0  0  0  0  2  0  0  0  0  0  0
  161.7190  205.5330  145.7580 C   0  0  0  0  0  0  0  0  0  0  0  0
  161.0550  205.9500  144.4870 C   0  0  0  0  0  1  0  0  0  0  0  0
  161.7480  203.5720  149.5010 O   0  0  0  0  0  1  0  0  0  0  0  0
  161.1680  204.0640  148.3360 C   0  0  0  0  0  0  0  0  0  0  0  0
  160.7030  203.2510  147.4930 O   0  0  0  0  0  0  0  0  0  0  0  0
  162.2180  206.6430  150.9630 O   0  0  0  0  0  0  0  0  0  0  0  0
  161.5450  206.0250  153.1620 C   0  0  0  0  0  1  0  0  0  0  0  0
  161.0980  206.4530  151.7810 C   0  0  0  0  0  2  0  0  0  0  0  0
  1  8  1  0  0  0  0
  1 14  1  0  0  0  0
  2  7  1  0  0  0  0
  2  3  2  0  0  0  0
  3  6  1  0  0  0  0
  4  1  1  0  0  0  0
  6  8  2  0  0  0  0
  6  5  1  0  0  0  0
  7  4  2  0  0  0  0
  8 38  1  0  0  0  0
  9 16  1  0  0  0  0
 10 14  2  0  0  0  0
 10  9  1  0  0  0  0
 11 17  1  0  0  0  0
 13 12  1  0  0  0  0
 14 13  1  0  0  0  0
 15 10  1  0  0  0  0
 16 12  2  0  0  0  0
 16 11  1  0  0  0  0
 17 20  1  0  0  0  0
 18 24  1  0  0  0  0
 19 23  1  0  0  0  0
 20 22  2  0  0  0  0
 22 25  1  0  0  0  0
 22 21  1  0  0  0  0
 23 20  1  0  0  0  0
 23 18  2  0  0  0  0
 24 21  2  0  0  0  0
 25 26  1  0  0  0  0
 27 28  1  0  0  0  0
 28  2  1  0  0  0  0
 29 28  2  0  0  0  0
 30 27  1  0  0  0  0
 33 32  1  0  0  0  0
 34 33  1  0  0  0  0
 35 33  1  0  0  0  0
 35 36  1  0  0  0  0
 36 31  1  6  0  0  0
 36 32  1  0  0  0  0
 36 30  1  0  0  0  0
 37 35  2  0  0  0  0
 40 44  1  1  0  0  0
 40 43  1  0  0  0  0
 40 39  1  0  0  0  0
 41 38  1  6  0  0  0
 41 43  1  0  0  0  0
 42 41  1  0  0  0  0
 42 40  1  0  0  0  0
 43 39  1  1  0  0  0
 45 46  1  1  0  0  0
 45 44  1  0  0  0  0
 45 55  1  0  0  0  0
 47 53  1  0  0  0  0
 47 46  1  0  0  0  0
 48 47  2  0  0  0  0
 49 50  2  0  0  0  0
 50 48  1  0  0  0  0
 51 50  1  0  0  0  0
 53 52  1  0  0  0  0
 54 53  2  0  0  0  0
 55 57  1  0  0  0  0
 57 56  1  0  0  0  0
M  END
>  <MODEL>
6

>  <REMARK>
 VINA RESULT:      -4.0      3.449      8.109
  Name = 
  17 active torsions:
  status: ('A' for Active; 'I' for Inactive)
    1  A    between atoms: N_2  and  N_30
    2  A    between atoms: C_7  and  N_32
    3  A    between atoms: CA_8  and  C_27
    4  A    between atoms: CA_8  and  C_29
    5  A    between atoms: C_9  and  C_45
    6  A    between atoms: N_10  and  C_40
    7  A    between atoms: C_11  and  C_23
    8  A    between atoms: C_12  and  O_14
    9  A    between atoms: C_12  and  N_19
   10  A    between atoms: C_12  and  C_27
   11  A    between atoms: N_13  and  C_26
   12  A    between atoms: N_13  and  N_28
   13  A    between atoms: O_14  and  C_53
   14  A    between atoms: N_19  and  C_24
   15  A    between atoms: C_25  and  O_50
   16  A    between atoms: N_30  and  C_46
   17  A    between atoms: O_50  and  C_56
                            x       y       z     vdW  Elec       q    Type
                         _______ _______ _______ _____ _____    ______ ____

>  <TORSDO>
F 17

$$$$
=
 OpenBabel11052410173D

 57 62  0  0  1  0  0  0  0  0999 V2000
  160.4360  212.7190  149.8020 N   0  0  0  0  0  0  0  0  0  0  0  0
  158.9830  213.8350  147.4610 C   0  0  0  0  0  0  0  0  0  0  0  0
  158.0240  213.6280  148.3750 C   0  0  0  0  0  3  0  0  0  0  0  0
  161.0450  213.5740  148.8380 C   0  0  0  0  0  3  0  0  0  0  0  0
  156.6990  213.9780  150.7370 Cl  0  0  0  0  0  0  0  0  0  0  0  0
  158.1510  213.5590  149.8410 C   0  0  0  0  0  0  0  0  0  0  0  0
  160.3970  214.0770  147.7980 C   0  0  0  0  0  3  0  0  0  0  0  0
  159.2450  213.1540  150.5030 C   0  0  0  0  0  0  0  0  0  0  0  0
  163.1430  210.0580  150.2540 C   0  0  0  0  0  2  0  0  0  0  0  0
  162.4080  211.2690  149.7410 C   0  0  0  0  0  0  0  0  0  0  0  0
  162.4420  207.6430  150.5980 N   0  0  0  0  0  2  0  0  0  0  0  0
  161.0560  209.4160  151.3170 N   0  0  0  0  0  0  0  0  0  0  0  0
  160.7410  210.8330  151.4920 C   0  0  0  0  0  2  0  0  0  0  0  0
  161.2350  211.6290  150.3070 C   0  0  0  0  0  0  0  0  0  0  0  0
  163.0370  212.0670  148.6470 C   0  0  0  0  0  1  0  0  0  0  0  0
  162.1700  209.0320  150.7640 C   0  0  0  0  0  0  0  0  0  0  0  0
  161.4490  206.6910  150.8460 N   0  0  0  0  0  2  0  0  0  0  0  0
  160.8820  204.5640  147.8340 C   0  0  0  0  0  3  0  0  0  0  0  0
  161.1450  207.2650  147.9060 Cl  0  0  0  0  0  0  0  0  0  0  0  0
  161.2450  205.5170  150.0470 C   0  0  0  0  0  0  0  0  0  0  0  0
  160.9610  203.1170  149.7690 C   0  0  0  0  0  3  0  0  0  0  0  0
  161.1790  204.2180  150.6060 C   0  0  0  0  0  0  0  0  0  0  0  0
  161.0810  205.6760  148.6550 C   0  0  0  0  0  0  0  0  0  0  0  0
  160.8210  203.2870  148.3880 C   0  0  0  0  0  3  0  0  0  0  0  0
  161.2310  203.9700  152.0710 C   0  0  0  0  0  2  0  0  0  0  0  0
  160.2950  202.8390  152.4400 C   0  0  0  0  0  1  0  0  0  0  0  0
  159.5500  214.3370  145.0630 N   0  0  0  0  0  2  0  0  0  0  0  0
  158.5930  213.9310  146.0400 C   0  0  0  0  0  0  0  0  0  0  0  0
  157.4160  213.6540  145.6790 O   0  0  0  0  0  0  0  0  0  0  0  0
  159.2090  214.4420  143.7060 N   0  0  0  0  0  2  0  0  0  0  0  0
  159.9030  212.0560  143.4890 C   0  0  0  0  0  1  0  0  0  0  0  0
  159.7390  213.5540  141.5530 C   0  0  0  0  0  2  0  0  0  0  0  0
  161.0840  214.0010  141.2470 N   0  0  0  0  0  0  0  0  0  0  0  0
  161.8060  214.3610  140.0410 C   0  0  0  0  0  1  0  0  0  0  0  0
  161.4010  213.9300  142.6860 C   0  0  0  0  0  0  0  0  0  0  0  0
  160.0010  213.4760  142.9540 C   0  0  1  0  0  0  0  0  0  0  0  0
  162.4250  214.1480  143.3850 O   0  0  0  0  0  0  0  0  0  0  0  0
  159.1850  213.1640  151.9050 O   0  0  0  0  0  0  0  0  0  0  0  0
  155.9710  213.5430  153.5170 N   0  0  0  0  0  2  0  0  0  0  0  0
  157.0390  212.8710  154.1640 C   0  0  2  0  0  0  0  0  0  0  0  0
  158.1500  213.7710  152.6650 C   0  0  2  0  0  3  0  0  0  0  0  0
  158.5960  213.7590  154.4180 S   0  0  0  0  0  0  0  0  0  0  0  0
  156.9920  212.8940  152.7390 N   0  0  2  0  0  0  0  0  0  0  0  0
  156.8030  211.5150  154.6380 N   0  0  0  0  0  2  0  0  0  0  0  0
  157.7030  211.2650  155.7570 C   0  0  2  0  0  3  0  0  0  0  0  0
  158.0320  209.7810  155.8310 C   0  0  0  0  0  2  0  0  0  0  0  0
  159.5120  209.5660  155.8350 C   0  0  0  0  0  0  0  0  0  0  0  0
  160.2760  210.5890  156.1030 N   0  0  0  0  0  0  0  0  0  0  0  0
  162.3140  210.6950  154.9020 C   0  0  0  0  0  2  0  0  0  0  0  0
  161.7070  210.6500  156.0750 C   0  0  0  0  0  0  0  0  0  0  0  0
  162.5140  210.2280  157.2600 C   0  0  0  0  0  1  0  0  0  0  0  0
  161.1700  207.9400  154.9010 O   0  0  0  0  0  0  0  0  0  0  0  0
  160.0200  208.1850  155.6440 C   0  0  0  0  0  0  0  0  0  0  0  0
  159.4460  207.2230  156.2200 O   0  0  0  0  0  1  0  0  0  0  0  0
  157.1040  211.6770  156.9490 O   0  0  0  0  0  0  0  0  0  0  0  0
  154.8090  212.2290  157.2580 C   0  0  0  0  0  1  0  0  0  0  0  0
  156.1020  212.5700  156.5500 C   0  0  0  0  0  2  0  0  0  0  0  0
  1 14  1  0  0  0  0
  1  8  1  0  0  0  0
  2  7  1  0  0  0  0
  2  3  2  0  0  0  0
  3  6  1  0  0  0  0
  4  1  1  0  0  0  0
  6  8  2  0  0  0  0
  6  5  1  0  0  0  0
  7  4  2  0  0  0  0
  8 38  1  0  0  0  0
  9 16  1  0  0  0  0
 10  9  1  0  0  0  0
 10 14  2  0  0  0  0
 11 16  1  0  0  0  0
 11 17  1  0  0  0  0
 12 13  1  0  0  0  0
 14 13  1  0  0  0  0
 15 10  1  0  0  0  0
 16 12  2  0  0  0  0
 18 24  2  0  0  0  0
 18 23  1  0  0  0  0
 19 23  1  0  0  0  0
 20 22  1  0  0  0  0
 20 17  1  0  0  0  0
 21 22  2  0  0  0  0
 22 25  1  0  0  0  0
 23 20  2  0  0  0  0
 24 21  1  0  0  0  0
 25 26  1  0  0  0  0
 27 28  1  0  0  0  0
 28  2  1  0  0  0  0
 29 28  2  0  0  0  0
 30 27  1  0  0  0  0
 32 36  1  0  0  0  0
 33 32  1  0  0  0  0
 33 35  1  0  0  0  0
 34 33  1  0  0  0  0
 35 36  1  0  0  0  0
 35 37  2  0  0  0  0
 36 31  1  1  0  0  0
 36 30  1  0  0  0  0
 39 40  1  0  0  0  0
 40 42  1  0  0  0  0
 40 44  1  1  0  0  0
 41 38  1  6  0  0  0
 41 43  1  0  0  0  0
 41 42  1  0  0  0  0
 43 39  1  1  0  0  0
 43 40  1  0  0  0  0
 44 45  1  0  0  0  0
 45 46  1  1  0  0  0
 45 55  1  0  0  0  0
 46 47  1  0  0  0  0
 47 48  2  0  0  0  0
 49 50  2  0  0  0  0
 50 48  1  0  0  0  0
 50 51  1  0  0  0  0
 52 53  2  0  0  0  0
 53 47  1  0  0  0  0
 53 54  1  0  0  0  0
 57 55  1  0  0  0  0
 57 56  1  0  0  0  0
M  END
>  <MODEL>
7

>  <REMARK>
 VINA RESULT:      -3.6      1.624      2.376
  Name = 
  17 active torsions:
  status: ('A' for Active; 'I' for Inactive)
    1  A    between atoms: N_2  and  N_30
    2  A    between atoms: C_7  and  N_32
    3  A    between atoms: CA_8  and  C_27
    4  A    between atoms: CA_8  and  C_29
    5  A    between atoms: C_9  and  C_45
    6  A    between atoms: N_10  and  C_40
    7  A    between atoms: C_11  and  C_23
    8  A    between atoms: C_12  and  O_14
    9  A    between atoms: C_12  and  N_19
   10  A    between atoms: C_12  and  C_27
   11  A    between atoms: N_13  and  C_26
   12  A    between atoms: N_13  and  N_28
   13  A    between atoms: O_14  and  C_53
   14  A    between atoms: N_19  and  C_24
   15  A    between atoms: C_25  and  O_50
   16  A    between atoms: N_30  and  C_46
   17  A    between atoms: O_50  and  C_56
                            x       y       z     vdW  Elec       q    Type
                         _______ _______ _______ _____ _____    ______ ____

>  <TORSDO>
F 17

$$$$
=
 OpenBabel11052410173D

 57 62  0  0  1  0  0  0  0  0999 V2000
  161.8420  210.7770  150.6230 N   0  0  0  0  0  0  0  0  0  0  0  0
  161.0850  210.0440  153.4030 C   0  0  0  0  0  0  0  0  0  0  0  0
  160.3890  209.1920  152.6380 C   0  0  0  0  0  3  0  0  0  0  0  0
  162.6860  211.0030  151.7500 C   0  0  0  0  0  3  0  0  0  0  0  0
  160.0200  207.1640  150.8470 Cl  0  0  0  0  0  0  0  0  0  0  0  0
  160.6850  208.7340  151.2690 C   0  0  0  0  0  0  0  0  0  0  0  0
  162.3530  210.6710  152.9880 C   0  0  0  0  0  3  0  0  0  0  0  0
  161.3500  209.4420  150.3450 C   0  0  0  0  0  0  0  0  0  0  0  0
  160.9040  213.8020  148.4820 C   0  0  0  0  0  2  0  0  0  0  0  0
  160.9400  212.8240  149.6290 C   0  0  0  0  0  0  0  0  0  0  0  0
  160.6560  213.5000  145.9760 N   0  0  0  0  0  2  0  0  0  0  0  0
  162.1440  212.1450  147.2140 N   0  0  0  0  0  0  0  0  0  0  0  0
  162.7930  211.7210  148.4540 C   0  0  0  0  0  2  0  0  0  0  0  0
  161.8210  211.8000  149.6070 C   0  0  0  0  0  0  0  0  0  0  0  0
  160.0240  213.0560  150.7850 C   0  0  0  0  0  1  0  0  0  0  0  0
  161.2800  213.1180  147.1980 C   0  0  0  0  0  0  0  0  0  0  0  0
  160.8150  212.7200  144.8250 N   0  0  0  0  0  2  0  0  0  0  0  0
  163.0900  214.0430  142.1810 C   0  0  0  0  0  3  0  0  0  0  0  0
  163.7710  213.2750  144.6950 Cl  0  0  0  0  0  0  0  0  0  0  0  0
  161.2500  213.2370  143.5600 C   0  0  0  0  0  0  0  0  0  0  0  0
  160.8470  213.9940  141.2820 C   0  0  0  0  0  3  0  0  0  0  0  0
  160.3570  213.4730  142.4860 C   0  0  0  0  0  0  0  0  0  0  0  0
  162.6180  213.5400  143.3950 C   0  0  0  0  0  0  0  0  0  0  0  0
  162.2090  214.2710  141.1270 C   0  0  0  0  0  3  0  0  0  0  0  0
  158.8870  213.2860  142.6080 C   0  0  0  0  0  2  0  0  0  0  0  0
  158.2300  213.4340  141.2530 C   0  0  0  0  0  1  0  0  0  0  0  0
  159.6990  211.3550  155.0420 N   0  0  0  0  0  2  0  0  0  0  0  0
  160.6180  210.2960  154.7820 C   0  0  0  0  0  0  0  0  0  0  0  0
  161.0250  209.5780  155.7370 O   0  0  0  0  0  0  0  0  0  0  0  0
  159.2400  211.6210  156.3410 N   0  0  0  0  0  2  0  0  0  0  0  0
  158.5000  213.8240  157.2480 C   0  0  0  0  0  1  0  0  0  0  0  0
  158.0580  213.1450  154.9320 C   0  0  0  0  0  2  0  0  0  0  0  0
  156.6880  212.6750  154.8810 N   0  0  0  0  0  0  0  0  0  0  0  0
  155.6270  212.6820  153.8920 C   0  0  0  0  0  1  0  0  0  0  0  0
  156.8360  212.1900  156.2660 C   0  0  0  0  0  0  0  0  0  0  0  0
  158.2470  212.6870  156.2710 C   0  0  1  0  0  0  0  0  0  0  0  0
  156.0830  211.6140  157.0940 O   0  0  0  0  0  0  0  0  0  0  0  0
  161.5470  208.8380  149.0940 O   0  0  0  0  0  0  0  0  0  0  0  0
  162.8310  205.4790  149.4720 N   0  0  0  0  0  2  0  0  0  0  0  0
  161.7260  205.7490  148.6260 C   0  0  2  0  0  0  0  0  0  0  0  0
  162.3690  207.7030  148.8660 C   0  0  2  0  0  3  0  0  0  0  0  0
  161.9330  206.9450  147.2820 S   0  0  0  0  0  0  0  0  0  0  0  0
  161.9770  206.6060  149.7360 N   0  0  2  0  0  0  0  0  0  0  0  0
  160.4950  205.0040  148.8520 N   0  0  0  0  0  2  0  0  0  0  0  0
  160.8420  203.7390  149.4850 C   0  0  2  0  0  3  0  0  0  0  0  0
  160.3370  202.5820  148.6350 C   0  0  0  0  0  2  0  0  0  0  0  0
  160.8810  202.6700  147.2440 C   0  0  0  0  0  0  0  0  0  0  0  0
  161.4690  203.7780  146.8890 N   0  0  0  0  0  0  0  0  0  0  0  0
  161.1220  204.4420  144.6420 C   0  0  0  0  0  2  0  0  0  0  0  0
  161.9810  204.1280  145.5970 C   0  0  0  0  0  0  0  0  0  0  0  0
  163.3610  203.7300  145.1880 C   0  0  0  0  0  1  0  0  0  0  0  0
  160.0720  201.4430  145.2180 O   0  0  0  0  0  0  0  0  0  0  0  0
  160.8210  201.4580  146.3910 C   0  0  0  0  0  0  0  0  0  0  0  0
  161.5110  200.4480  146.6900 O   0  0  0  0  0  1  0  0  0  0  0  0
  160.2730  203.6740  150.7590 O   0  0  0  0  0  0  0  0  0  0  0  0
  161.2900  204.4420  152.7690 C   0  0  0  0  0  1  0  0  0  0  0  0
  161.3560  203.4610  151.6190 C   0  0  0  0  0  2  0  0  0  0  0  0
  1  4  1  0  0  0  0
  2 28  1  0  0  0  0
  3  2  2  0  0  0  0
  4  7  2  0  0  0  0
  5  6  1  0  0  0  0
  6  3  1  0  0  0  0
  7  2  1  0  0  0  0
  8  1  1  0  0  0  0
  8  6  2  0  0  0  0
  9 10  1  0  0  0  0
 10 15  1  0  0  0  0
 11 16  1  0  0  0  0
 12 13  1  0  0  0  0
 13 14  1  0  0  0  0
 14 10  2  0  0  0  0
 14  1  1  0  0  0  0
 16 12  2  0  0  0  0
 16  9  1  0  0  0  0
 17 11  1  0  0  0  0
 18 23  1  0  0  0  0
 20 17  1  0  0  0  0
 21 22  2  0  0  0  0
 22 25  1  0  0  0  0
 22 20  1  0  0  0  0
 23 20  2  0  0  0  0
 23 19  1  0  0  0  0
 24 21  1  0  0  0  0
 24 18  2  0  0  0  0
 26 25  1  0  0  0  0
 27 30  1  0  0  0  0
 28 27  1  0  0  0  0
 28 29  2  0  0  0  0
 32 36  1  0  0  0  0
 33 32  1  0  0  0  0
 33 35  1  0  0  0  0
 34 33  1  0  0  0  0
 35 36  1  0  0  0  0
 35 37  2  0  0  0  0
 36 30  1  0  0  0  0
 36 31  1  1  0  0  0
 38  8  1  0  0  0  0
 40 44  1  1  0  0  0
 40 39  1  0  0  0  0
 40 43  1  0  0  0  0
 41 38  1  1  0  0  0
 41 43  1  0  0  0  0
 42 40  1  0  0  0  0
 42 41  1  0  0  0  0
 43 39  1  1  0  0  0
 44 45  1  0  0  0  0
 45 46  1  6  0  0  0
 45 55  1  0  0  0  0
 47 46  1  0  0  0  0
 48 47  2  0  0  0  0
 49 50  2  0  0  0  0
 50 48  1  0  0  0  0
 51 50  1  0  0  0  0
 52 53  2  0  0  0  0
 53 54  1  0  0  0  0
 53 47  1  0  0  0  0
 55 57  1  0  0  0  0
 57 56  1  0  0  0  0
M  END
>  <MODEL>
8

>  <REMARK>
 VINA RESULT:      -3.3      3.612     10.430
  Name = 
  17 active torsions:
  status: ('A' for Active; 'I' for Inactive)
    1  A    between atoms: N_2  and  N_30
    2  A    between atoms: C_7  and  N_32
    3  A    between atoms: CA_8  and  C_27
    4  A    between atoms: CA_8  and  C_29
    5  A    between atoms: C_9  and  C_45
    6  A    between atoms: N_10  and  C_40
    7  A    between atoms: C_11  and  C_23
    8  A    between atoms: C_12  and  O_14
    9  A    between atoms: C_12  and  N_19
   10  A    between atoms: C_12  and  C_27
   11  A    between atoms: N_13  and  C_26
   12  A    between atoms: N_13  and  N_28
   13  A    between atoms: O_14  and  C_53
   14  A    between atoms: N_19  and  C_24
   15  A    between atoms: C_25  and  O_50
   16  A    between atoms: N_30  and  C_46
   17  A    between atoms: O_50  and  C_56
                            x       y       z     vdW  Elec       q    Type
                         _______ _______ _______ _____ _____    ______ ____

>  <TORSDO>
F 17

$$$$
=
 OpenBabel11052410173D

 57 62  0  0  1  0  0  0  0  0999 V2000
  161.5100  207.3490  153.3410 N   0  0  0  0  0  0  0  0  0  0  0  0
  161.4240  205.2060  151.2810 C   0  0  0  0  0  0  0  0  0  0  0  0
  160.8850  206.2700  150.6700 C   0  0  0  0  0  3  0  0  0  0  0  0
  162.4200  206.2520  153.3140 C   0  0  0  0  0  3  0  0  0  0  0  0
  160.8270  208.7880  149.6140 Cl  0  0  0  0  0  0  0  0  0  0  0  0
  161.0830  207.6990  150.9690 C   0  0  0  0  0  0  0  0  0  0  0  0
  162.3870  205.3000  152.3930 C   0  0  0  0  0  3  0  0  0  0  0  0
  161.3750  208.2030  152.1780 C   0  0  0  0  0  0  0  0  0  0  0  0
  159.5010  207.7790  156.5640 C   0  0  0  0  0  2  0  0  0  0  0  0
  159.9960  207.2110  155.2590 C   0  0  0  0  0  0  0  0  0  0  0  0
  158.7800  210.1110  157.2570 N   0  0  0  0  0  2  0  0  0  0  0  0
  160.7570  209.7800  156.0070 N   0  0  0  0  0  0  0  0  0  0  0  0
  161.7380  208.9400  155.3200 C   0  0  0  0  0  2  0  0  0  0  0  0
  161.0480  207.7830  154.6360 C   0  0  0  0  0  0  0  0  0  0  0  0
  159.3280  205.9880  154.7230 C   0  0  0  0  0  1  0  0  0  0  0  0
  159.7240  209.2650  156.6060 C   0  0  0  0  0  0  0  0  0  0  0  0
  158.8460  211.4990  157.0990 N   0  0  0  0  0  2  0  0  0  0  0  0
  157.2890  214.4280  155.3920 C   0  0  0  0  0  3  0  0  0  0  0  0
  159.5430  214.4210  156.9060 Cl  0  0  0  0  0  0  0  0  0  0  0  0
  157.9250  212.2610  156.3040 C   0  0  0  0  0  0  0  0  0  0  0  0
  155.9240  212.4850  154.9380 C   0  0  0  0  0  3  0  0  0  0  0  0
  156.7910  211.6790  155.6870 C   0  0  0  0  0  0  0  0  0  0  0  0
  158.1550  213.6440  156.1570 C   0  0  0  0  0  0  0  0  0  0  0  0
  156.1750  213.8520  154.7840 C   0  0  0  0  0  3  0  0  0  0  0  0
  156.4130  210.2540  155.8800 C   0  0  0  0  0  2  0  0  0  0  0  0
  155.1790  209.9290  155.0670 C   0  0  0  0  0  1  0  0  0  0  0  0
  160.6290  203.7130  149.4200 N   0  0  0  0  0  2  0  0  0  0  0  0
  161.1230  203.8610  150.7500 C   0  0  0  0  0  0  0  0  0  0  0  0
  161.3000  202.8360  151.4640 O   0  0  0  0  0  0  0  0  0  0  0  0
  160.3300  202.4500  148.8880 N   0  0  0  0  0  2  0  0  0  0  0  0
  162.1980  201.1130  147.9160 C   0  0  0  0  0  1  0  0  0  0  0  0
  160.4090  202.0660  146.5320 C   0  0  0  0  0  2  0  0  0  0  0  0
  160.9330  203.2800  145.9380 N   0  0  0  0  0  0  0  0  0  0  0  0
  160.7370  203.9880  144.6870 C   0  0  0  0  0  1  0  0  0  0  0  0
  161.7500  203.4830  147.1490 C   0  0  0  0  0  0  0  0  0  0  0  0
  161.1790  202.2260  147.7240 C   0  0  1  0  0  0  0  0  0  0  0  0
  162.5850  204.3460  147.5270 O   0  0  0  0  0  0  0  0  0  0  0  0
  161.5380  209.5930  152.2700 O   0  0  0  0  0  0  0  0  0  0  0  0
  160.1930  212.6890  153.5690 N   0  0  0  0  0  2  0  0  0  0  0  0
  159.8490  212.2290  152.2730 C   0  0  2  0  0  0  0  0  0  0  0  0
  160.6680  210.4630  152.9810 C   0  0  2  0  0  3  0  0  0  0  0  0
  159.0900  210.5930  152.1060 S   0  0  0  0  0  0  0  0  0  0  0  0
  161.0990  211.8440  152.8380 N   0  0  2  0  0  0  0  0  0  0  0  0
  160.0750  213.1240  151.1480 N   0  0  0  0  0  2  0  0  0  0  0  0
  158.7790  213.5800  150.6640 C   0  0  2  0  0  3  0  0  0  0  0  0
  158.9580  214.3660  149.3730 C   0  0  0  0  0  2  0  0  0  0  0  0
  159.8310  213.6180  148.4150 C   0  0  0  0  0  0  0  0  0  0  0  0
  161.0420  213.3230  148.7970 N   0  0  0  0  0  0  0  0  0  0  0  0
  162.0600  211.3870  147.8890 C   0  0  0  0  0  2  0  0  0  0  0  0
  162.0800  212.7010  148.0290 C   0  0  0  0  0  0  0  0  0  0  0  0
  163.3720  213.4080  147.7770 C   0  0  0  0  0  1  0  0  0  0  0  0
  159.8520  213.4260  145.9200 O   0  0  0  0  0  0  0  0  0  0  0  0
  159.2330  213.1590  147.1370 C   0  0  0  0  0  0  0  0  0  0  0  0
  158.1890  212.4560  147.1520 O   0  0  0  0  0  1  0  0  0  0  0  0
  158.1700  214.3870  151.6290 O   0  0  0  0  0  0  0  0  0  0  0  0
  156.2920  214.1630  150.1840 C   0  0  0  0  0  1  0  0  0  0  0  0
  156.8200  214.0200  151.5950 C   0  0  0  0  0  2  0  0  0  0  0  0
  1 14  1  0  0  0  0
  2  7  1  0  0  0  0
  3  6  1  0  0  0  0
  3  2  2  0  0  0  0
  4  1  1  0  0  0  0
  5  6  1  0  0  0  0
  6  8  2  0  0  0  0
  7  4  2  0  0  0  0
  8 38  1  0  0  0  0
  8  1  1  0  0  0  0
  9 16  1  0  0  0  0
 10  9  1  0  0  0  0
 12 16  2  0  0  0  0
 13 12  1  0  0  0  0
 14 10  2  0  0  0  0
 14 13  1  0  0  0  0
 15 10  1  0  0  0  0
 16 11  1  0  0  0  0
 17 11  1  0  0  0  0
 18 23  1  0  0  0  0
 20 17  1  0  0  0  0
 21 22  2  0  0  0  0
 22 25  1  0  0  0  0
 22 20  1  0  0  0  0
 23 20  2  0  0  0  0
 23 19  1  0  0  0  0
 24 21  1  0  0  0  0
 24 18  2  0  0  0  0
 26 25  1  0  0  0  0
 27 28  1  0  0  0  0
 28  2  1  0  0  0  0
 28 29  2  0  0  0  0
 30 27  1  0  0  0  0
 32 36  1  0  0  0  0
 33 32  1  0  0  0  0
 33 35  1  0  0  0  0
 34 33  1  0  0  0  0
 35 37  2  0  0  0  0
 35 36  1  0  0  0  0
 36 31  1  1  0  0  0
 36 30  1  0  0  0  0
 40 44  1  6  0  0  0
 40 43  1  0  0  0  0
 40 39  1  0  0  0  0
 41 38  1  6  0  0  0
 42 40  1  0  0  0  0
 42 41  1  0  0  0  0
 43 41  1  0  0  0  0
 43 39  1  1  0  0  0
 45 46  1  6  0  0  0
 45 44  1  0  0  0  0
 45 55  1  0  0  0  0
 47 48  2  0  0  0  0
 47 46  1  0  0  0  0
 49 50  2  0  0  0  0
 50 48  1  0  0  0  0
 51 50  1  0  0  0  0
 52 53  2  0  0  0  0
 53 54  1  0  0  0  0
 53 47  1  0  0  0  0
 56 57  1  0  0  0  0
 57 55  1  0  0  0  0
M  END
>  <MODEL>
9

>  <REMARK>
 VINA RESULT:      -3.3      3.011      8.986
  Name = 
  17 active torsions:
  status: ('A' for Active; 'I' for Inactive)
    1  A    between atoms: N_2  and  N_30
    2  A    between atoms: C_7  and  N_32
    3  A    between atoms: CA_8  and  C_27
    4  A    between atoms: CA_8  and  C_29
    5  A    between atoms: C_9  and  C_45
    6  A    between atoms: N_10  and  C_40
    7  A    between atoms: C_11  and  C_23
    8  A    between atoms: C_12  and  O_14
    9  A    between atoms: C_12  and  N_19
   10  A    between atoms: C_12  and  C_27
   11  A    between atoms: N_13  and  C_26
   12  A    between atoms: N_13  and  N_28
   13  A    between atoms: O_14  and  C_53
   14  A    between atoms: N_19  and  C_24
   15  A    between atoms: C_25  and  O_50
   16  A    between atoms: N_30  and  C_46
   17  A    between atoms: O_50  and  C_56
                            x       y       z     vdW  Elec       q    Type
                         _______ _______ _______ _____ _____    ______ ____

>  <TORSDO>
F 17

$$$$
