=
 OpenBabel11052411393D

 43 46  0  0  1  0  0  0  0  0999 V2000
  158.9000  214.4420  148.9300 F   0  0  0  0  0  0  0  0  0  0  0  0
  159.6850  213.8670  149.9160 C   0  0  0  0  0  0  0  0  0  0  0  0
  158.0900  211.8620  151.9590 C   0  0  0  0  0  2  0  0  0  0  0  0
  162.0610  207.4990  150.0810 N   0  0  0  0  0  0  0  0  0  0  0  0
  161.8970  211.8530  148.7940 C   0  0  2  0  0  3  0  0  0  0  0  0
  161.9950  210.4470  149.1660 N   0  0  0  0  0  0  0  0  0  0  0  0
  157.8250  213.3570  151.6940 C   0  0  1  0  0  3  0  0  0  0  0  0
  161.7050  210.0050  150.3500 C   0  0  0  0  0  0  0  0  0  0  0  0
  159.7710  212.4690  149.7190 O   0  0  0  0  0  0  0  0  0  0  0  0
  161.9300  206.3000  150.7250 C   0  0  0  0  0  3  0  0  0  0  0  0
  159.7540  211.6460  153.8730 C   0  0  2  0  0  3  0  0  0  0  0  0
  159.0700  214.1730  151.2930 C   0  0  1  0  0  3  0  0  0  0  0  0
  161.4840  206.2530  152.0220 N   0  0  0  0  0  0  0  0  0  0  0  0
  160.0380  214.1250  152.2990 O   0  0  0  0  0  1  0  0  0  0  0  0
  158.2790  211.5090  153.4390 C   0  0  1  0  0  3  0  0  0  0  0  0
  161.1640  207.3900  152.7090 C   0  0  0  0  0  3  0  0  0  0  0  0
  161.3340  208.6030  152.0590 C   0  0  0  0  0  0  0  0  0  0  0  0
  160.4440  212.2320  148.5100 C   0  0  0  0  0  2  0  0  0  0  0  0
  161.2060  210.8060  151.4320 N   0  0  0  0  0  0  0  0  0  0  0  0
  160.9900  209.9780  152.4150 C   0  0  0  0  0  0  0  0  0  0  0  0
  160.4200  210.3670  153.6670 N   0  0  0  0  0  2  0  0  0  0  0  0
  160.9450  214.4530  149.8680 F   0  0  0  0  0  0  0  0  0  0  0  0
  161.7830  208.6260  150.7760 C   0  0  0  0  0  0  0  0  0  0  0  0
  156.6770  213.5760  150.7430 C   0  0  0  0  0  0  0  0  0  0  0  0
  155.4880  214.3530  151.1850 C   0  0  0  0  0  1  0  0  0  0  0  0
  156.7130  213.1410  149.6020 O   0  0  0  0  0  0  0  0  0  0  0  0
  159.9410  212.0760  155.3240 C   0  0  0  0  0  2  0  0  0  0  0  0
  159.8620  213.4660  155.4240 O   0  0  0  0  0  1  0  0  0  0  0  0
  156.7260  211.4850  155.3660 C   0  0  0  0  0  3  0  0  0  0  0  0
  157.2300  212.1420  154.3210 C   0  0  0  0  0  3  0  0  0  0  0  0
  155.6890  212.1170  156.2320 C   0  0  0  0  0  2  0  0  0  0  0  0
  155.8530  213.6230  156.1900 C   0  0  0  0  0  1  0  0  0  0  0  0
  163.8290  212.9710  147.9610 F   0  0  0  0  0  0  0  0  0  0  0  0
  162.7800  212.1470  147.5830 C   0  0  2  0  0  3  0  0  0  0  0  0
  161.9960  212.8320  146.5620 N   0  0  0  0  0  2  0  0  0  0  0  0
  162.4900  213.0900  145.2430 C   0  0  0  0  0  0  0  0  0  0  0  0
  163.7230  212.9870  144.9980 O   0  0  0  0  0  0  0  0  0  0  0  0
  160.2090  213.7300  144.4690 C   0  0  0  0  0  3  0  0  0  0  0  0
  161.9820  213.5160  142.8340 C   0  0  0  0  0  3  0  0  0  0  0  0
  159.7440  214.1090  142.1250 C   0  0  0  0  0  3  0  0  0  0  0  0
  159.3090  214.0570  143.4520 C   0  0  0  0  0  3  0  0  0  0  0  0
  161.0790  213.8370  141.8150 C   0  0  0  0  0  3  0  0  0  0  0  0
  161.5530  213.4610  144.1700 C   0  0  0  0  0  0  0  0  0  0  0  0
  1  2  1  0  0  0  0
  2 12  1  0  0  0  0
  3 15  1  0  0  0  0
  4 10  2  0  0  0  0
  4 23  1  0  0  0  0
  5 34  1  6  0  0  0
  5  6  1  0  0  0  0
  6  8  2  0  0  0  0
  7 24  1  6  0  0  0
  7  3  1  0  0  0  0
  8 23  1  0  0  0  0
  8 19  1  0  0  0  0
  9  2  1  0  0  0  0
 10 13  1  0  0  0  0
 11 27  1  1  0  0  0
 12  7  1  0  0  0  0
 12 14  1  1  0  0  0
 13 16  2  0  0  0  0
 15 11  1  0  0  0  0
 15 30  1  1  0  0  0
 17 20  1  0  0  0  0
 17 16  1  0  0  0  0
 18  5  1  0  0  0  0
 18  9  1  0  0  0  0
 19 20  2  0  0  0  0
 20 21  1  0  0  0  0
 21 11  1  0  0  0  0
 22  2  1  0  0  0  0
 23 17  2  0  0  0  0
 24 25  1  0  0  0  0
 26 24  2  0  0  0  0
 27 28  1  0  0  0  0
 29 31  1  0  0  0  0
 30 29  2  0  0  0  0
 32 31  1  0  0  0  0
 34 33  1  1  0  0  0
 35 34  1  0  0  0  0
 36 35  1  0  0  0  0
 37 36  2  0  0  0  0
 39 43  2  0  0  0  0
 40 41  1  0  0  0  0
 41 38  2  0  0  0  0
 42 40  2  0  0  0  0
 42 39  1  0  0  0  0
 43 38  1  0  0  0  0
 43 36  1  0  0  0  0
M  END
>  <MODEL>
1

>  <REMARK>
 VINA RESULT:      -5.1      0.000      0.000
  Name = 
  7 active torsions:
  status: ('A' for Active; 'I' for Inactive)
    1  A    between atoms: C_5  and  CA_17
    2  A    between atoms: C_6  and  C_37
    3  A    between atoms: C_8  and  C_13
    4  A    between atoms: C_10  and  C_30
    5  A    between atoms: N_16  and  C_37
    6  A    between atoms: C_21  and  C_25
    7  A    between atoms: C_34  and  C_42
                            x       y       z     vdW  Elec       q    Type
                         _______ _______ _______ _____ _____    ______ ____

>  <TORSDO>
F 7

$$$$
=
 OpenBabel11052411393D

 43 46  0  0  1  0  0  0  0  0999 V2000
  161.7710  206.6510  155.6530 F   0  0  0  0  0  0  0  0  0  0  0  0
  160.9650  207.3630  154.7800 C   0  0  0  0  0  0  0  0  0  0  0  0
  161.4900  210.5970  154.7360 C   0  0  0  0  0  2  0  0  0  0  0  0
  162.7050  209.8800  148.7080 N   0  0  0  0  0  0  0  0  0  0  0  0
  161.4850  206.6860  151.7010 C   0  0  2  0  0  3  0  0  0  0  0  0
  161.8840  207.6670  150.6980 N   0  0  0  0  0  0  0  0  0  0  0  0
  161.0700  209.7170  155.9310 C   0  0  1  0  0  3  0  0  0  0  0  0
  161.4760  208.8980  150.7100 C   0  0  0  0  0  0  0  0  0  0  0  0
  161.7450  207.9220  153.7410 O   0  0  0  0  0  0  0  0  0  0  0  0
  162.9460  211.0460  148.0380 C   0  0  0  0  0  3  0  0  0  0  0  0
  159.3980  211.4420  153.5580 C   0  0  2  0  0  3  0  0  0  0  0  0
  160.2390  208.4740  155.5560 C   0  0  1  0  0  3  0  0  0  0  0  0
  162.3540  212.2160  148.4420 N   0  0  0  0  0  0  0  0  0  0  0  0
  159.0540  208.8460  154.9150 O   0  0  0  0  0  1  0  0  0  0  0  0
  160.5750  211.8020  154.4900 C   0  0  1  0  0  3  0  0  0  0  0  0
  161.5090  212.2540  149.5150 C   0  0  0  0  0  3  0  0  0  0  0  0
  161.2430  211.0600  150.1670 C   0  0  0  0  0  0  0  0  0  0  0  0
  162.2940  206.8740  152.9840 C   0  0  0  0  0  2  0  0  0  0  0  0
  160.6350  209.4800  151.7160 N   0  0  0  0  0  0  0  0  0  0  0  0
  160.5130  210.7370  151.3910 C   0  0  0  0  0  0  0  0  0  0  0  0
  159.8020  211.6920  152.1810 N   0  0  0  0  0  2  0  0  0  0  0  0
  160.0040  206.4960  154.2680 F   0  0  0  0  0  0  0  0  0  0  0  0
  161.8350  209.9120  149.7440 C   0  0  0  0  0  0  0  0  0  0  0  0
  162.2310  209.3700  156.8240 C   0  0  0  0  0  0  0  0  0  0  0  0
  163.2110  210.4230  157.2060 C   0  0  0  0  0  1  0  0  0  0  0  0
  162.3750  208.2380  157.2600 O   0  0  0  0  0  0  0  0  0  0  0  0
  158.1140  212.2130  153.8470 C   0  0  0  0  0  2  0  0  0  0  0  0
  157.9880  213.2800  152.9570 O   0  0  0  0  0  1  0  0  0  0  0  0
  159.6060  213.7170  155.7230 C   0  0  0  0  0  3  0  0  0  0  0  0
  160.2560  212.5530  155.7600 C   0  0  0  0  0  3  0  0  0  0  0  0
  159.2960  214.4530  156.9820 C   0  0  0  0  0  2  0  0  0  0  0  0
  157.8010  214.4160  157.2270 C   0  0  0  0  0  1  0  0  0  0  0  0
  162.7440  204.6650  151.7630 F   0  0  0  0  0  0  0  0  0  0  0  0
  161.6540  205.2690  151.1570 C   0  0  2  0  0  3  0  0  0  0  0  0
  161.8920  205.3240  149.7190 N   0  0  0  0  0  2  0  0  0  0  0  0
  161.2630  204.4340  148.7910 C   0  0  0  0  0  0  0  0  0  0  0  0
  160.6950  203.3850  149.2040 O   0  0  0  0  0  0  0  0  0  0  0  0
  160.5900  205.8850  146.8800 C   0  0  0  0  0  3  0  0  0  0  0  0
  161.9180  203.9100  146.4370 C   0  0  0  0  0  3  0  0  0  0  0  0
  161.2170  205.3350  144.6090 C   0  0  0  0  0  3  0  0  0  0  0  0
  160.5670  206.1780  145.5140 C   0  0  0  0  0  3  0  0  0  0  0  0
  161.8910  204.2000  145.0690 C   0  0  0  0  0  3  0  0  0  0  0  0
  161.2680  204.7520  147.3530 C   0  0  0  0  0  0  0  0  0  0  0  0
  2 12  1  0  0  0  0
  2  1  1  0  0  0  0
  3  7  1  0  0  0  0
  4 23  1  0  0  0  0
  5 34  1  6  0  0  0
  5 18  1  0  0  0  0
  6  8  2  0  0  0  0
  6  5  1  0  0  0  0
  7 24  1  6  0  0  0
  8 19  1  0  0  0  0
  9  2  1  0  0  0  0
 10 13  1  0  0  0  0
 10  4  2  0  0  0  0
 11 27  1  1  0  0  0
 11 15  1  0  0  0  0
 12 14  1  6  0  0  0
 12  7  1  0  0  0  0
 13 16  2  0  0  0  0
 15  3  1  0  0  0  0
 15 30  1  1  0  0  0
 16 17  1  0  0  0  0
 17 20  1  0  0  0  0
 18  9  1  0  0  0  0
 20 19  2  0  0  0  0
 20 21  1  0  0  0  0
 21 11  1  0  0  0  0
 22  2  1  0  0  0  0
 23 17  2  0  0  0  0
 23  8  1  0  0  0  0
 24 25  1  0  0  0  0
 24 26  2  0  0  0  0
 28 27  1  0  0  0  0
 29 30  2  0  0  0  0
 29 31  1  0  0  0  0
 31 32  1  0  0  0  0
 34 33  1  1  0  0  0
 35 34  1  0  0  0  0
 36 37  2  0  0  0  0
 36 35  1  0  0  0  0
 38 43  1  0  0  0  0
 39 43  2  0  0  0  0
 40 42  2  0  0  0  0
 40 41  1  0  0  0  0
 41 38  2  0  0  0  0
 42 39  1  0  0  0  0
 43 36  1  0  0  0  0
M  END
>  <MODEL>
2

>  <REMARK>
 VINA RESULT:      -4.7      4.188      6.849
  Name = 
  7 active torsions:
  status: ('A' for Active; 'I' for Inactive)
    1  A    between atoms: C_5  and  CA_17
    2  A    between atoms: C_6  and  C_37
    3  A    between atoms: C_8  and  C_13
    4  A    between atoms: C_10  and  C_30
    5  A    between atoms: N_16  and  C_37
    6  A    between atoms: C_21  and  C_25
    7  A    between atoms: C_34  and  C_42
                            x       y       z     vdW  Elec       q    Type
                         _______ _______ _______ _____ _____    ______ ____

>  <TORSDO>
F 7

$$$$
=
 OpenBabel11052411393D

 43 46  0  0  1  0  0  0  0  0999 V2000
  161.9480  207.1640  153.4810 F   0  0  0  0  0  0  0  0  0  0  0  0
  161.1420  207.9960  152.7200 C   0  0  0  0  0  0  0  0  0  0  0  0
  161.2520  211.1640  153.5500 C   0  0  0  0  0  2  0  0  0  0  0  0
  163.1020  212.1760  147.7290 N   0  0  0  0  0  0  0  0  0  0  0  0
  162.0270  208.2050  149.6580 C   0  0  2  0  0  3  0  0  0  0  0  0
  162.3890  209.4490  148.9880 N   0  0  0  0  0  0  0  0  0  0  0  0
  160.8380  209.9650  154.4260 C   0  0  1  0  0  3  0  0  0  0  0  0
  161.8280  210.5870  149.2560 C   0  0  0  0  0  0  0  0  0  0  0  0
  161.9370  208.8830  151.9570 O   0  0  0  0  0  0  0  0  0  0  0  0
  163.2530  213.4950  147.4050 C   0  0  0  0  0  3  0  0  0  0  0  0
  159.1870  212.0760  152.3730 C   0  0  2  0  0  3  0  0  0  0  0  0
  160.2110  208.7870  153.6550 C   0  0  1  0  0  3  0  0  0  0  0  0
  162.4810  214.4530  148.0130 N   0  0  0  0  0  0  0  0  0  0  0  0
  159.0530  209.1940  152.9860 O   0  0  0  0  0  1  0  0  0  0  0  0
  160.2170  212.2950  153.5020 C   0  0  1  0  0  3  0  0  0  0  0  0
  161.5420  214.1250  148.9500 C   0  0  0  0  0  3  0  0  0  0  0  0
  161.3720  212.7810  149.2460 C   0  0  0  0  0  0  0  0  0  0  0  0
  162.6830  208.1290  151.0360 C   0  0  0  0  0  2  0  0  0  0  0  0
  160.8290  210.7980  150.2650 N   0  0  0  0  0  0  0  0  0  0  0  0
  160.5790  212.0780  150.2510 C   0  0  0  0  0  0  0  0  0  0  0  0
  159.6810  212.7180  151.1610 N   0  0  0  0  0  2  0  0  0  0  0  0
  160.3510  207.2030  151.8950 F   0  0  0  0  0  0  0  0  0  0  0  0
  162.1430  211.8490  148.6260 C   0  0  0  0  0  0  0  0  0  0  0  0
  161.9470  209.5140  155.3400 C   0  0  0  0  0  0  0  0  0  0  0  0
  161.7780  208.2810  156.1550 C   0  0  0  0  0  1  0  0  0  0  0  0
  162.9970  210.1340  155.4100 O   0  0  0  0  0  0  0  0  0  0  0  0
  157.7940  212.6120  152.6850 C   0  0  0  0  0  2  0  0  0  0  0  0
  157.7670  213.9970  152.5140 O   0  0  0  0  0  1  0  0  0  0  0  0
  158.5990  212.0580  155.3590 C   0  0  0  0  0  3  0  0  0  0  0  0
  159.6880  212.6510  154.8700 C   0  0  0  0  0  3  0  0  0  0  0  0
  158.0820  212.4160  156.7110 C   0  0  0  0  0  2  0  0  0  0  0  0
  157.8900  213.9170  156.7910 C   0  0  0  0  0  1  0  0  0  0  0  0
  162.0870  207.2420  147.4800 F   0  0  0  0  0  0  0  0  0  0  0  0
  162.4260  207.0040  148.8020 C   0  0  2  0  0  3  0  0  0  0  0  0
  161.7070  205.8200  149.2600 N   0  0  0  0  0  2  0  0  0  0  0  0
  161.4620  204.6850  148.4220 C   0  0  0  0  0  0  0  0  0  0  0  0
  161.6110  204.7770  147.1730 O   0  0  0  0  0  0  0  0  0  0  0  0
  160.8110  203.3200  150.4030 C   0  0  0  0  0  3  0  0  0  0  0  0
  160.9290  202.2510  148.2340 C   0  0  0  0  0  3  0  0  0  0  0  0
  160.3270  200.9590  150.1920 C   0  0  0  0  0  3  0  0  0  0  0  0
  160.4460  202.1040  150.9850 C   0  0  0  0  0  3  0  0  0  0  0  0
  160.5700  201.0310  148.8180 C   0  0  0  0  0  3  0  0  0  0  0  0
  161.0510  203.4060  149.0250 C   0  0  0  0  0  0  0  0  0  0  0  0
  2  1  1  0  0  0  0
  2 12  1  0  0  0  0
  3  7  1  0  0  0  0
  4 23  1  0  0  0  0
  5 34  1  6  0  0  0
  5 18  1  0  0  0  0
  6  8  2  0  0  0  0
  6  5  1  0  0  0  0
  7 24  1  6  0  0  0
  8 19  1  0  0  0  0
  9  2  1  0  0  0  0
 10  4  2  0  0  0  0
 10 13  1  0  0  0  0
 11 27  1  1  0  0  0
 11 15  1  0  0  0  0
 12 14  1  6  0  0  0
 12  7  1  0  0  0  0
 13 16  2  0  0  0  0
 15  3  1  0  0  0  0
 15 30  1  1  0  0  0
 16 17  1  0  0  0  0
 17 20  1  0  0  0  0
 18  9  1  0  0  0  0
 20 19  2  0  0  0  0
 20 21  1  0  0  0  0
 21 11  1  0  0  0  0
 22  2  1  0  0  0  0
 23 17  2  0  0  0  0
 23  8  1  0  0  0  0
 24 26  2  0  0  0  0
 24 25  1  0  0  0  0
 28 27  1  0  0  0  0
 29 31  1  0  0  0  0
 30 29  2  0  0  0  0
 31 32  1  0  0  0  0
 34 33  1  6  0  0  0
 34 35  1  0  0  0  0
 36 43  1  0  0  0  0
 36 35  1  0  0  0  0
 37 36  2  0  0  0  0
 38 41  1  0  0  0  0
 39 42  2  0  0  0  0
 39 43  1  0  0  0  0
 40 41  2  0  0  0  0
 42 40  1  0  0  0  0
 43 38  2  0  0  0  0
M  END
>  <MODEL>
3

>  <REMARK>
 VINA RESULT:      -4.5      3.504      7.337
  Name = 
  7 active torsions:
  status: ('A' for Active; 'I' for Inactive)
    1  A    between atoms: C_5  and  CA_17
    2  A    between atoms: C_6  and  C_37
    3  A    between atoms: C_8  and  C_13
    4  A    between atoms: C_10  and  C_30
    5  A    between atoms: N_16  and  C_37
    6  A    between atoms: C_21  and  C_25
    7  A    between atoms: C_34  and  C_42
                            x       y       z     vdW  Elec       q    Type
                         _______ _______ _______ _____ _____    ______ ____

>  <TORSDO>
F 7

$$$$
=
 OpenBabel11052411393D

 43 46  0  0  1  0  0  0  0  0999 V2000
  161.2590  204.6950  153.4920 F   0  0  0  0  0  0  0  0  0  0  0  0
  161.8310  205.8510  152.9870 C   0  0  0  0  0  0  0  0  0  0  0  0
  160.6510  206.8260  150.0890 C   0  0  0  0  0  2  0  0  0  0  0  0
  159.1430  212.0960  152.9680 N   0  0  0  0  0  0  0  0  0  0  0  0
  161.2230  208.4590  154.7280 C   0  0  2  0  0  3  0  0  0  0  0  0
  160.5540  209.6520  154.2190 N   0  0  0  0  0  0  0  0  0  0  0  0
  161.3350  205.4890  150.4370 C   0  0  1  0  0  3  0  0  0  0  0  0
  160.7000  210.0820  153.0050 C   0  0  0  0  0  0  0  0  0  0  0  0
  160.8750  206.8920  152.9460 O   0  0  0  0  0  0  0  0  0  0  0  0
  158.6160  213.0560  152.1500 C   0  0  0  0  0  3  0  0  0  0  0  0
  162.4260  208.4910  149.3450 C   0  0  2  0  0  3  0  0  0  0  0  0
  162.3720  205.5700  151.5740 C   0  0  1  0  0  3  0  0  0  0  0  0
  158.9860  213.1240  150.8300 N   0  0  0  0  0  0  0  0  0  0  0  0
  163.4010  206.4550  151.2430 O   0  0  0  0  0  1  0  0  0  0  0  0
  161.2770  207.5620  148.8990 C   0  0  1  0  0  3  0  0  0  0  0  0
  159.8860  212.2470  150.2940 C   0  0  0  0  0  3  0  0  0  0  0  0
  160.4410  211.2990  151.1400 C   0  0  0  0  0  0  0  0  0  0  0  0
  160.4960  207.1980  154.2620 C   0  0  0  0  0  2  0  0  0  0  0  0
  161.4800  209.4360  151.9870 N   0  0  0  0  0  0  0  0  0  0  0  0
  161.3150  210.1510  150.9090 C   0  0  0  0  0  0  0  0  0  0  0  0
  161.8740  209.8070  149.6400 N   0  0  0  0  0  2  0  0  0  0  0  0
  162.9070  206.1970  153.7990 F   0  0  0  0  0  0  0  0  0  0  0  0
  160.0660  211.2550  152.4460 C   0  0  0  0  0  0  0  0  0  0  0  0
  160.3430  204.3780  150.6570 C   0  0  0  0  0  0  0  0  0  0  0  0
  160.4360  203.1310  149.8500 C   0  0  0  0  0  1  0  0  0  0  0  0
  159.4690  204.4730  151.5050 O   0  0  0  0  0  0  0  0  0  0  0  0
  163.5440  208.6410  148.3170 C   0  0  0  0  0  2  0  0  0  0  0  0
  163.4710  209.8970  147.7130 O   0  0  0  0  0  1  0  0  0  0  0  0
  160.6770  206.5850  146.7060 C   0  0  0  0  0  3  0  0  0  0  0  0
  161.5340  206.6480  147.7250 C   0  0  0  0  0  3  0  0  0  0  0  0
  160.9370  205.6780  145.5510 C   0  0  0  0  0  2  0  0  0  0  0  0
  161.5970  204.4090  146.0510 C   0  0  0  0  0  1  0  0  0  0  0  0
  160.8380  207.3120  156.7800 F   0  0  0  0  0  0  0  0  0  0  0  0
  161.3070  208.5050  156.2520 C   0  0  2  0  0  3  0  0  0  0  0  0
  160.4760  209.5940  156.7540 N   0  0  0  0  0  2  0  0  0  0  0  0
  160.9150  210.9550  156.7900 C   0  0  0  0  0  0  0  0  0  0  0  0
  162.1390  211.2300  156.6520 O   0  0  0  0  0  0  0  0  0  0  0  0
  158.5610  211.7510  156.9710 C   0  0  0  0  0  3  0  0  0  0  0  0
  160.3550  213.3690  157.1170 C   0  0  0  0  0  3  0  0  0  0  0  0
  158.0510  214.0980  157.2610 C   0  0  0  0  0  3  0  0  0  0  0  0
  157.6220  212.7750  157.1180 C   0  0  0  0  0  3  0  0  0  0  0  0
  159.4160  214.3960  157.2580 C   0  0  0  0  0  3  0  0  0  0  0  0
  159.9330  212.0370  156.9740 C   0  0  0  0  0  0  0  0  0  0  0  0
  2  1  1  0  0  0  0
  2 22  1  0  0  0  0
  3  7  1  0  0  0  0
  5 34  1  1  0  0  0
  6  5  1  0  0  0  0
  7 24  1  1  0  0  0
  7 12  1  0  0  0  0
  8  6  2  0  0  0  0
  9  2  1  0  0  0  0
  9 18  1  0  0  0  0
 10  4  2  0  0  0  0
 11 27  1  6  0  0  0
 11 21  1  0  0  0  0
 12 14  1  6  0  0  0
 12  2  1  0  0  0  0
 13 10  1  0  0  0  0
 15 30  1  6  0  0  0
 15 11  1  0  0  0  0
 15  3  1  0  0  0  0
 16 13  2  0  0  0  0
 16 17  1  0  0  0  0
 17 23  2  0  0  0  0
 18  5  1  0  0  0  0
 19  8  1  0  0  0  0
 20 17  1  0  0  0  0
 20 19  2  0  0  0  0
 21 20  1  0  0  0  0
 23  4  1  0  0  0  0
 23  8  1  0  0  0  0
 24 26  2  0  0  0  0
 25 24  1  0  0  0  0
 28 27  1  0  0  0  0
 29 30  2  0  0  0  0
 31 32  1  0  0  0  0
 31 29  1  0  0  0  0
 34 35  1  0  0  0  0
 34 33  1  1  0  0  0
 35 36  1  0  0  0  0
 36 43  1  0  0  0  0
 37 36  2  0  0  0  0
 38 43  2  0  0  0  0
 38 41  1  0  0  0  0
 39 42  2  0  0  0  0
 41 40  2  0  0  0  0
 42 40  1  0  0  0  0
 43 39  1  0  0  0  0
M  END
>  <MODEL>
4

>  <REMARK>
 VINA RESULT:      -2.6      4.604      9.604
  Name = 
  7 active torsions:
  status: ('A' for Active; 'I' for Inactive)
    1  A    between atoms: C_5  and  CA_17
    2  A    between atoms: C_6  and  C_37
    3  A    between atoms: C_8  and  C_13
    4  A    between atoms: C_10  and  C_30
    5  A    between atoms: N_16  and  C_37
    6  A    between atoms: C_21  and  C_25
    7  A    between atoms: C_34  and  C_42
                            x       y       z     vdW  Elec       q    Type
                         _______ _______ _______ _____ _____    ______ ____

>  <TORSDO>
F 7

$$$$
