=
 OpenBabel11042421123D

 32 35  0  0  1  0  0  0  0  0999 V2000
  161.9550  211.3410  149.5120 C   0  0  0  0  0  0  0  0  0  0  0  0
  160.5500  209.1610  157.2110 C   0  0  0  0  0  2  0  0  0  0  0  0
  159.4540  206.2050  155.4560 C   0  0  0  0  0  1  0  0  0  0  0  0
  158.8030  213.0120  155.3870 C   0  0  0  0  0  2  0  0  0  0  0  0
  161.4540  208.3130  153.8570 N   0  0  0  0  0  2  0  0  0  0  0  0
  160.2030  207.7400  157.2000 N   0  0  0  0  0  2  0  0  0  0  0  0
  157.1260  214.4530  152.4000 O   0  0  0  0  0  1  0  0  0  0  0  0
  161.6600  211.8390  156.2420 C   0  0  1  0  0  3  0  0  0  0  0  0
  161.3280  210.6750  155.3420 C   0  0  0  0  0  0  0  0  0  0  0  0
  158.5930  213.9470  154.2130 C   0  0  0  0  0  2  0  0  0  0  0  0
  161.5940  214.1890  148.4230 C   0  0  0  0  0  3  0  0  0  0  0  0
  162.6140  213.3490  148.2050 C   0  0  0  0  0  3  0  0  0  0  0  0
  162.1770  209.4420  151.9370 O   0  0  0  0  0  0  0  0  0  0  0  0
  161.3550  209.5380  153.0610 C   0  0  2  0  0  3  0  0  0  0  0  0
  159.0530  212.9080  150.7850 N   0  0  0  0  0  0  0  0  0  0  0  0
  160.2100  213.7790  148.8590 C   0  0  2  0  0  3  0  0  0  0  0  0
  157.4250  213.4800  153.3540 C   0  0  2  0  0  3  0  0  0  0  0  0
  160.4890  207.2390  155.8520 C   0  0  2  0  0  3  0  0  0  0  0  0
  161.3650  212.1980  150.5990 C   0  0  0  0  0  2  0  0  0  0  0  0
  161.2970  209.2980  150.8630 C   0  0  0  0  0  2  0  0  0  0  0  0
  160.4380  208.4130  154.8990 C   0  0  1  0  0  3  0  0  0  0  0  0
  160.5120  212.3150  156.8870 O   0  0  0  0  0  0  0  0  0  0  0  0
  161.9360  209.8420  149.5920 C   0  0  0  0  0  2  0  0  0  0  0  0
  161.7600  210.7680  153.8940 C   0  0  0  0  0  2  0  0  0  0  0  0
  160.0800  213.3920  156.1090 C   0  0  0  0  0  2  0  0  0  0  0  0
  157.7160  212.1450  152.6670 C   0  0  0  0  0  2  0  0  0  0  0  0
  160.7460  209.5450  155.7940 C   0  0  0  0  0  0  0  0  0  0  0  0
  160.1610  212.9510  150.1130 C   0  0  0  0  0  0  0  0  0  0  0  0
  158.9400  212.1790  151.9470 O   0  0  0  0  0  0  0  0  0  0  0  0
  162.7250  211.4740  157.2610 C   0  0  0  0  0  1  0  0  0  0  0  0
  162.5700  211.8970  148.4650 C   0  0  0  0  0  3  0  0  0  0  0  0
  159.4680  213.0880  147.7270 C   0  0  0  0  0  1  0  0  0  0  0  0
  1 23  1  0  0  0  0
  1 19  1  0  0  0  0
  4 25  1  0  0  0  0
  6  2  1  0  0  0  0
  8 22  1  0  0  0  0
  8 30  1  1  0  0  0
  9 27  2  0  0  0  0
  9  8  1  0  0  0  0
 10  4  1  0  0  0  0
 11 16  1  0  0  0  0
 12 11  2  0  0  0  0
 12 31  1  0  0  0  0
 13 14  1  0  0  0  0
 14  5  1  0  0  0  0
 14 24  1  1  0  0  0
 15 29  1  0  0  0  0
 16 32  1  6  0  0  0
 16 28  1  0  0  0  0
 17  7  1  6  0  0  0
 17 10  1  0  0  0  0
 18  3  1  6  0  0  0
 18  6  1  0  0  0  0
 20 13  1  0  0  0  0
 21  5  1  6  0  0  0
 21 27  1  0  0  0  0
 21 18  1  0  0  0  0
 23 20  1  0  0  0  0
 24  9  1  0  0  0  0
 25 22  1  0  0  0  0
 26 17  1  0  0  0  0
 27  2  1  0  0  0  0
 28 19  1  0  0  0  0
 28 15  2  0  0  0  0
 29 26  1  0  0  0  0
 31  1  2  0  0  0  0
M  END
>  <MODEL>
1

>  <REMARK>
 VINA RESULT:      -3.1      0.000      0.000
  Name = 
  0 active torsions:
  status: ('A' for Active; 'I' for Inactive)
                            x       y       z     vdW  Elec       q    Type
                         _______ _______ _______ _____ _____    ______ ____

>  <TORSDO>
F 0

$$$$
=
 OpenBabel11042421123D

 32 35  0  0  1  0  0  0  0  0999 V2000
  160.4770  211.9740  155.7220 C   0  0  0  0  0  0  0  0  0  0  0  0
  159.1610  213.4760  147.8470 C   0  0  0  0  0  2  0  0  0  0  0  0
  155.7750  213.3020  149.0820 C   0  0  0  0  0  1  0  0  0  0  0  0
  161.7160  209.9220  149.2790 C   0  0  0  0  0  2  0  0  0  0  0  0
  158.2080  213.8150  151.2770 N   0  0  0  0  0  2  0  0  0  0  0  0
  157.7320  213.7500  147.6930 N   0  0  0  0  0  2  0  0  0  0  0  0
  161.9210  207.1390  151.7350 O   0  0  0  0  0  1  0  0  0  0  0  0
  161.8720  213.1220  149.2140 C   0  0  1  0  0  3  0  0  0  0  0  0
  160.5450  213.0920  149.9280 C   0  0  0  0  0  0  0  0  0  0  0  0
  162.3040  209.0720  150.3890 C   0  0  0  0  0  2  0  0  0  0  0  0
  162.7630  210.2270  156.7960 C   0  0  0  0  0  3  0  0  0  0  0  0
  162.3530  211.4170  157.2540 C   0  0  0  0  0  3  0  0  0  0  0  0
  159.2120  213.5280  153.3730 O   0  0  0  0  0  0  0  0  0  0  0  0
  159.1620  213.0350  152.0680 C   0  0  2  0  0  3  0  0  0  0  0  0
  160.9960  209.0820  153.7560 N   0  0  0  0  0  0  0  0  0  0  0  0
  161.9300  209.2820  155.9680 C   0  0  2  0  0  3  0  0  0  0  0  0
  161.2990  208.0300  150.8610 C   0  0  2  0  0  3  0  0  0  0  0  0
  157.1740  213.8830  149.0430 C   0  0  2  0  0  3  0  0  0  0  0  0
  161.2030  211.3630  154.5530 C   0  0  0  0  0  2  0  0  0  0  0  0
  158.5760  212.5560  154.1470 C   0  0  0  0  0  2  0  0  0  0  0  0
  158.0750  213.1290  149.9960 C   0  0  1  0  0  3  0  0  0  0  0  0
  161.9690  212.0710  148.2930 O   0  0  0  0  0  0  0  0  0  0  0  0
  159.1170  212.5910  155.5700 C   0  0  0  0  0  2  0  0  0  0  0  0
  160.5680  213.0870  151.4410 C   0  0  0  0  0  2  0  0  0  0  0  0
  162.6630  211.0630  148.9660 C   0  0  0  0  0  2  0  0  0  0  0  0
  160.0850  208.6690  151.5390 C   0  0  0  0  0  2  0  0  0  0  0  0
  159.3640  213.1510  149.2780 C   0  0  0  0  0  0  0  0  0  0  0  0
  161.3530  209.8780  154.7140 C   0  0  0  0  0  0  0  0  0  0  0  0
  160.4710  209.5600  152.5760 O   0  0  0  0  0  0  0  0  0  0  0  0
  162.1060  214.4530  148.5210 C   0  0  0  0  0  1  0  0  0  0  0  0
  161.0540  212.0360  156.9250 C   0  0  0  0  0  3  0  0  0  0  0  0
  160.8400  208.6410  156.8110 C   0  0  0  0  0  1  0  0  0  0  0  0
  1 31  2  0  0  0  0
  2 27  1  0  0  0  0
  4 10  1  0  0  0  0
  5 14  1  0  0  0  0
  6  2  1  0  0  0  0
  6 18  1  0  0  0  0
  8 30  1  6  0  0  0
  8  9  1  0  0  0  0
  9 24  1  0  0  0  0
 10 17  1  0  0  0  0
 11 12  2  0  0  0  0
 13 20  1  0  0  0  0
 14 24  1  6  0  0  0
 14 13  1  0  0  0  0
 15 28  2  0  0  0  0
 16 11  1  0  0  0  0
 16 32  1  1  0  0  0
 17 26  1  0  0  0  0
 17  7  1  1  0  0  0
 18  3  1  6  0  0  0
 18 21  1  0  0  0  0
 19 28  1  0  0  0  0
 19  1  1  0  0  0  0
 20 23  1  0  0  0  0
 21 27  1  6  0  0  0
 21  5  1  0  0  0  0
 22 25  1  0  0  0  0
 22  8  1  0  0  0  0
 23  1  1  0  0  0  0
 25  4  1  0  0  0  0
 26 29  1  0  0  0  0
 27  9  2  0  0  0  0
 28 16  1  0  0  0  0
 29 15  1  0  0  0  0
 31 12  1  0  0  0  0
M  END
>  <MODEL>
2

>  <REMARK>
 VINA RESULT:      -2.2      1.776      7.622
  Name = 
  0 active torsions:
  status: ('A' for Active; 'I' for Inactive)
                            x       y       z     vdW  Elec       q    Type
                         _______ _______ _______ _____ _____    ______ ____

>  <TORSDO>
F 0

$$$$
=
 OpenBabel11042421123D

 32 35  0  0  1  0  0  0  0  0999 V2000
  158.0530  213.7090  151.6420 C   0  0  0  0  0  0  0  0  0  0  0  0
  162.1560  208.4730  156.3060 C   0  0  0  0  0  2  0  0  0  0  0  0
  163.7010  211.5910  157.2610 C   0  0  0  0  0  1  0  0  0  0  0  0
  161.8810  208.0010  151.7330 C   0  0  0  0  0  2  0  0  0  0  0  0
  160.7360  211.7130  155.7790 N   0  0  0  0  0  2  0  0  0  0  0  0
  162.9620  209.2640  157.2350 N   0  0  0  0  0  2  0  0  0  0  0  0
  162.0730  209.8040  148.4890 O   0  0  0  0  0  1  0  0  0  0  0  0
  159.9610  207.7960  154.2900 C   0  0  1  0  0  3  0  0  0  0  0  0
  160.4230  209.1940  154.6120 C   0  0  0  0  0  0  0  0  0  0  0  0
  161.4250  208.4920  150.3730 C   0  0  0  0  0  2  0  0  0  0  0  0
  157.0850  213.1030  148.7920 C   0  0  0  0  0  3  0  0  0  0  0  0
  156.4050  213.6960  149.7820 C   0  0  0  0  0  3  0  0  0  0  0  0
  159.1740  212.6860  154.3310 O   0  0  0  0  0  0  0  0  0  0  0  0
  160.1810  211.7240  154.4230 C   0  0  2  0  0  3  0  0  0  0  0  0
  160.4500  211.9160  149.7620 N   0  0  0  0  0  0  0  0  0  0  0  0
  158.5870  213.0150  148.7010 C   0  0  2  0  0  3  0  0  0  0  0  0
  162.4030  209.5160  149.8130 C   0  0  2  0  0  3  0  0  0  0  0  0
  162.5170  210.6560  157.1110 C   0  0  2  0  0  3  0  0  0  0  0  0
  158.5760  212.3570  151.2370 C   0  0  0  0  0  2  0  0  0  0  0  0
  159.7240  213.7050  153.5500 C   0  0  0  0  0  2  0  0  0  0  0  0
  161.8940  210.8250  155.7430 C   0  0  1  0  0  3  0  0  0  0  0  0
  160.9970  207.0440  153.7230 O   0  0  0  0  0  0  0  0  0  0  0  0
  158.6170  214.4520  152.8190 C   0  0  0  0  0  2  0  0  0  0  0  0
  159.6120  210.3420  154.0510 C   0  0  0  0  0  2  0  0  0  0  0  0
  160.7980  207.1350  152.3430 C   0  0  0  0  0  2  0  0  0  0  0  0
  162.4250  210.8020  150.6410 C   0  0  0  0  0  2  0  0  0  0  0  0
  161.4630  209.4490  155.4330 C   0  0  0  0  0  0  0  0  0  0  0  0
  159.2600  212.4100  149.9020 C   0  0  0  0  0  0  0  0  0  0  0  0
  161.1210  211.3370  150.8160 O   0  0  0  0  0  0  0  0  0  0  0  0
  159.4080  207.0900  155.5160 C   0  0  0  0  0  1  0  0  0  0  0  0
  157.0240  214.2640  150.9960 C   0  0  0  0  0  3  0  0  0  0  0  0
  159.1890  214.3710  148.3720 C   0  0  0  0  0  1  0  0  0  0  0  0
  1 23  1  0  0  0  0
  2  6  1  0  0  0  0
  4 25  1  0  0  0  0
  8  9  1  0  0  0  0
  8 30  1  1  0  0  0
  9 27  2  0  0  0  0
 10  4  1  0  0  0  0
 11 12  2  0  0  0  0
 12 31  1  0  0  0  0
 13 14  1  0  0  0  0
 14 24  1  1  0  0  0
 14  5  1  0  0  0  0
 15 28  2  0  0  0  0
 15 29  1  0  0  0  0
 16 32  1  1  0  0  0
 16 11  1  0  0  0  0
 16 28  1  0  0  0  0
 17  7  1  6  0  0  0
 17 10  1  0  0  0  0
 17 26  1  0  0  0  0
 18  6  1  0  0  0  0
 18  3  1  6  0  0  0
 19  1  1  0  0  0  0
 20 13  1  0  0  0  0
 21 27  1  1  0  0  0
 21  5  1  0  0  0  0
 21 18  1  0  0  0  0
 22  8  1  0  0  0  0
 23 20  1  0  0  0  0
 24  9  1  0  0  0  0
 25 22  1  0  0  0  0
 26 29  1  0  0  0  0
 27  2  1  0  0  0  0
 28 19  1  0  0  0  0
 31  1  2  0  0  0  0
M  END
>  <MODEL>
3

>  <REMARK>
 VINA RESULT:      -1.6      2.042      4.898
  Name = 
  0 active torsions:
  status: ('A' for Active; 'I' for Inactive)
                            x       y       z     vdW  Elec       q    Type
                         _______ _______ _______ _____ _____    ______ ____

>  <TORSDO>
F 0

$$$$
