=
 OpenBabel11042420113D

 30 31  0  0  1  0  0  0  0  0999 V2000
  160.9180  207.3850  153.8080 C   0  0  0  0  0  3  0  0  0  0  0  0
  162.2430  210.1570  150.4610 C   0  0  1  0  0  3  0  0  0  0  0  0
  162.1590  210.0950  153.0580 C   0  0  0  0  0  3  0  0  0  0  0  0
  161.3800  207.1450  152.5790 C   0  0  0  0  0  3  0  0  0  0  0  0
  160.4560  208.7340  154.2630 C   0  0  2  0  0  3  0  0  0  0  0  0
  161.9160  209.4590  151.7490 C   0  0  0  0  0  0  0  0  0  0  0  0
  162.2910  209.1070  148.2670 O   0  0  0  0  0  0  0  0  0  0  0  0
  161.6330  207.8460  150.1560 N   0  0  0  0  0  0  0  0  0  0  0  0
  162.0620  209.0330  149.5020 C   0  0  0  0  0  0  0  0  0  0  0  0
  161.5870  208.1740  151.5390 C   0  0  0  0  0  0  0  0  0  0  0  0
  161.5480  209.7550  154.1930 C   0  0  0  0  0  3  0  0  0  0  0  0
  161.4560  212.2440  149.2590 C   0  0  0  0  0  0  0  0  0  0  0  0
  161.2520  211.1970  150.2100 N   0  0  0  0  0  2  0  0  0  0  0  0
  160.4170  213.1940  149.0340 N   0  0  0  0  0  2  0  0  0  0  0  0
  162.5430  212.3270  148.6250 O   0  0  0  0  0  0  0  0  0  0  0  0
  159.9240  213.8830  146.7650 C   0  0  0  0  0  1  0  0  0  0  0  0
  160.5610  214.2790  148.0800 C   0  0  0  0  0  2  0  0  0  0  0  0
  159.9770  208.6490  155.5700 O   0  0  0  0  0  0  0  0  0  0  0  0
  160.0020  207.2860  155.8720 C   0  0  0  0  0  1  0  0  0  0  0  0
  161.5880  206.4930  149.6020 C   0  0  2  0  0  3  0  0  0  0  0  0
  160.2180  206.3260  147.6180 O   0  0  0  0  0  1  0  0  0  0  0  0
  161.5220  206.5310  148.0740 C   0  0  2  0  0  3  0  0  0  0  0  0
  162.4460  205.4900  147.4700 C   0  0  0  0  0  1  0  0  0  0  0  0
  160.4610  205.6700  150.2230 C   0  0  0  0  0  2  0  0  0  0  0  0
  160.9620  204.2830  150.5760 C   0  0  0  0  0  2  0  0  0  0  0  0
  160.5550  203.3470  149.5430 N   0  0  0  0  0  2  0  0  0  0  0  0
  160.5180  202.0260  150.1510 C   0  0  2  0  0  3  0  0  0  0  0  0
  161.4690  201.9560  151.1700 O   0  0  0  0  0  1  0  0  0  0  0  0
  161.0420  201.7900  148.0180 C   0  0  0  0  0  1  0  0  0  0  0  0
  160.8020  201.0610  149.1830 O   0  0  0  0  0  0  0  0  0  0  0  0
  1  5  1  0  0  0  0
  2 13  1  6  0  0  0
  2  6  1  0  0  0  0
  3 11  2  0  0  0  0
  4  1  2  0  0  0  0
  5 18  1  1  0  0  0
  6  3  1  0  0  0  0
  7  9  2  0  0  0  0
  8 10  1  0  0  0  0
  9  8  1  0  0  0  0
  9  2  1  0  0  0  0
 10  6  2  0  0  0  0
 10  4  1  0  0  0  0
 11  5  1  0  0  0  0
 12 13  1  0  0  0  0
 14 12  1  0  0  0  0
 15 12  2  0  0  0  0
 16 17  1  0  0  0  0
 17 14  1  0  0  0  0
 18 19  1  0  0  0  0
 20  8  1  0  0  0  0
 20 24  1  1  0  0  0
 21 22  1  0  0  0  0
 22 23  1  6  0  0  0
 22 20  1  0  0  0  0
 24 25  1  0  0  0  0
 26 27  1  0  0  0  0
 26 25  1  0  0  0  0
 27 28  1  1  0  0  0
 29 30  1  0  0  0  0
 30 27  1  0  0  0  0
M  END
>  <MODEL>
1

>  <REMARK>
 VINA RESULT:      -6.4      0.000      0.000
  Name = 
  10 active torsions:
  status: ('A' for Active; 'I' for Inactive)
    1  A    between atoms: C_3  and  N_20
    2  A    between atoms: C_3  and  C_25
    3  A    between atoms: C_3  and  C_26
    4  A    between atoms: C_4  and  N_22
    5  A    between atoms: C_4  and  C_26
    6  A    between atoms: O_5  and  C_15
    7  A    between atoms: C_8  and  N_9
    8  A    between atoms: C_10  and  O_18
    9  A    between atoms: C_10  and  N_22
   10  A    between atoms: N_16  and  C_27
                            x       y       z     vdW  Elec       q    Type
                         _______ _______ _______ _____ _____    ______ ____

>  <TORSDO>
F 10

$$$$
=
 OpenBabel11042420113D

 30 31  0  0  1  0  0  0  0  0999 V2000
  160.8940  203.1510  149.1000 C   0  0  0  0  0  3  0  0  0  0  0  0
  161.7880  206.2840  152.2660 C   0  0  1  0  0  3  0  0  0  0  0  0
  161.9190  203.7080  151.9430 C   0  0  0  0  0  3  0  0  0  0  0  0
  161.2660  204.4290  149.0110 C   0  0  0  0  0  3  0  0  0  0  0  0
  160.3960  202.5260  150.3660 C   0  0  2  0  0  3  0  0  0  0  0  0
  161.6060  205.0540  151.4250 C   0  0  0  0  0  0  0  0  0  0  0  0
  161.7160  208.5730  151.4410 O   0  0  0  0  0  0  0  0  0  0  0  0
  161.2830  206.7790  149.9620 N   0  0  0  0  0  0  0  0  0  0  0  0
  161.5920  207.3370  151.2320 C   0  0  0  0  0  0  0  0  0  0  0  0
  161.3320  205.3710  150.1480 C   0  0  0  0  0  0  0  0  0  0  0  0
  161.4220  202.5720  151.4550 C   0  0  0  0  0  3  0  0  0  0  0  0
  160.8500  207.0930  154.4760 C   0  0  0  0  0  0  0  0  0  0  0  0
  160.7250  206.3520  153.2600 N   0  0  0  0  0  2  0  0  0  0  0  0
  159.7450  207.1510  155.3750 N   0  0  0  0  0  2  0  0  0  0  0  0
  161.9270  207.6900  154.7500 O   0  0  0  0  0  0  0  0  0  0  0  0
  159.6660  209.3710  156.3430 C   0  0  0  0  0  1  0  0  0  0  0  0
  159.8080  207.8900  156.6240 C   0  0  0  0  0  2  0  0  0  0  0  0
  160.0310  201.2020  150.1230 O   0  0  0  0  0  0  0  0  0  0  0  0
  160.8960  200.7710  149.1160 C   0  0  0  0  0  1  0  0  0  0  0  0
  161.2670  207.4650  148.6690 C   0  0  2  0  0  3  0  0  0  0  0  0
  162.6720  206.5840  146.9110 O   0  0  0  0  0  1  0  0  0  0  0  0
  161.4210  206.4660  147.5210 C   0  0  2  0  0  3  0  0  0  0  0  0
  160.3270  206.6610  146.4890 C   0  0  0  0  0  1  0  0  0  0  0  0
  162.2990  208.5900  148.6180 C   0  0  0  0  0  2  0  0  0  0  0  0
  161.6210  209.9040  148.2860 C   0  0  0  0  0  2  0  0  0  0  0  0
  162.2330  210.9710  149.0580 N   0  0  0  0  0  2  0  0  0  0  0  0
  161.7020  212.2270  148.5520 C   0  0  2  0  0  3  0  0  0  0  0  0
  160.8520  211.9720  147.4740 O   0  0  0  0  0  1  0  0  0  0  0  0
  162.5980  213.1350  146.7480 C   0  0  0  0  0  1  0  0  0  0  0  0
  162.7550  213.0400  148.1310 O   0  0  0  0  0  0  0  0  0  0  0  0
  1  5  1  0  0  0  0
  2 13  1  1  0  0  0
  4  1  2  0  0  0  0
  4 10  1  0  0  0  0
  5 18  1  6  0  0  0
  5 11  1  0  0  0  0
  6  3  1  0  0  0  0
  6  2  1  0  0  0  0
  8 10  1  0  0  0  0
  8  9  1  0  0  0  0
  9  7  2  0  0  0  0
  9  2  1  0  0  0  0
 10  6  2  0  0  0  0
 11  3  2  0  0  0  0
 12 15  2  0  0  0  0
 12 14  1  0  0  0  0
 13 12  1  0  0  0  0
 14 17  1  0  0  0  0
 16 17  1  0  0  0  0
 19 18  1  0  0  0  0
 20 24  1  1  0  0  0
 20  8  1  0  0  0  0
 21 22  1  0  0  0  0
 22 23  1  6  0  0  0
 22 20  1  0  0  0  0
 25 24  1  0  0  0  0
 25 26  1  0  0  0  0
 27 28  1  6  0  0  0
 27 26  1  0  0  0  0
 29 30  1  0  0  0  0
 30 27  1  0  0  0  0
M  END
>  <MODEL>
2

>  <REMARK>
 VINA RESULT:      -6.2      1.982      7.159
  Name = 
  10 active torsions:
  status: ('A' for Active; 'I' for Inactive)
    1  A    between atoms: C_3  and  N_20
    2  A    between atoms: C_3  and  C_25
    3  A    between atoms: C_3  and  C_26
    4  A    between atoms: C_4  and  N_22
    5  A    between atoms: C_4  and  C_26
    6  A    between atoms: O_5  and  C_15
    7  A    between atoms: C_8  and  N_9
    8  A    between atoms: C_10  and  O_18
    9  A    between atoms: C_10  and  N_22
   10  A    between atoms: N_16  and  C_27
                            x       y       z     vdW  Elec       q    Type
                         _______ _______ _______ _____ _____    ______ ____

>  <TORSDO>
F 10

$$$$
=
 OpenBabel11042420113D

 30 31  0  0  1  0  0  0  0  0999 V2000
  160.3820  208.3380  154.7330 C   0  0  0  0  0  3  0  0  0  0  0  0
  162.1880  210.1290  150.9680 C   0  0  1  0  0  3  0  0  0  0  0  0
  161.9860  210.6550  153.5060 C   0  0  0  0  0  3  0  0  0  0  0  0
  160.8610  207.7810  153.6200 C   0  0  0  0  0  3  0  0  0  0  0  0
  160.0750  209.7990  154.8540 C   0  0  2  0  0  3  0  0  0  0  0  0
  161.7210  209.7760  152.3500 C   0  0  0  0  0  0  0  0  0  0  0  0
  162.1960  208.6180  149.0600 O   0  0  0  0  0  0  0  0  0  0  0  0
  161.3040  207.8930  151.1260 N   0  0  0  0  0  0  0  0  0  0  0  0
  161.9070  208.8470  150.2640 C   0  0  0  0  0  0  0  0  0  0  0  0
  161.2410  208.5220  152.3990 C   0  0  0  0  0  0  0  0  0  0  0  0
  161.2890  210.6470  154.6420 C   0  0  0  0  0  3  0  0  0  0  0  0
  161.7280  211.9790  149.3000 C   0  0  0  0  0  0  0  0  0  0  0  0
  161.3480  211.1920  150.4310 N   0  0  0  0  0  2  0  0  0  0  0  0
  160.8280  212.9670  148.8040 N   0  0  0  0  0  2  0  0  0  0  0  0
  162.8470  211.8010  148.7470 O   0  0  0  0  0  0  0  0  0  0  0  0
  160.5310  213.2030  146.4110 C   0  0  0  0  0  1  0  0  0  0  0  0
  161.1530  213.7960  147.6570 C   0  0  0  0  0  2  0  0  0  0  0  0
  159.5340  210.0610  156.1130 O   0  0  0  0  0  0  0  0  0  0  0  0
  160.3360  211.0740  156.6430 C   0  0  0  0  0  1  0  0  0  0  0  0
  161.1110  206.4640  150.8750 C   0  0  2  0  0  3  0  0  0  0  0  0
  163.1470  205.7370  151.9550 O   0  0  0  0  0  1  0  0  0  0  0  0
  161.7550  205.6240  151.9790 C   0  0  2  0  0  3  0  0  0  0  0  0
  161.3570  204.1670  151.8490 C   0  0  0  0  0  1  0  0  0  0  0  0
  161.5870  206.0710  149.4780 C   0  0  0  0  0  2  0  0  0  0  0  0
  160.3990  205.9010  148.5510 C   0  0  0  0  0  2  0  0  0  0  0  0
  160.8210  205.2030  147.3500 N   0  0  0  0  0  2  0  0  0  0  0  0
  161.1350  206.2140  146.3520 C   0  0  2  0  0  3  0  0  0  0  0  0
  160.1710  206.1870  145.3430 O   0  0  0  0  0  1  0  0  0  0  0  0
  162.3700  204.5870  145.5130 C   0  0  0  0  0  1  0  0  0  0  0  0
  162.3900  205.9510  145.8040 O   0  0  0  0  0  0  0  0  0  0  0  0
  1  5  1  0  0  0  0
  2 13  1  6  0  0  0
  2  6  1  0  0  0  0
  3 11  2  0  0  0  0
  4  1  2  0  0  0  0
  5 18  1  1  0  0  0
  6 10  2  0  0  0  0
  6  3  1  0  0  0  0
  7  9  2  0  0  0  0
  8 10  1  0  0  0  0
  9  2  1  0  0  0  0
  9  8  1  0  0  0  0
 10  4  1  0  0  0  0
 11  5  1  0  0  0  0
 12 13  1  0  0  0  0
 14 12  1  0  0  0  0
 15 12  2  0  0  0  0
 16 17  1  0  0  0  0
 17 14  1  0  0  0  0
 18 19  1  0  0  0  0
 20 24  1  6  0  0  0
 20  8  1  0  0  0  0
 20 22  1  0  0  0  0
 21 22  1  0  0  0  0
 22 23  1  6  0  0  0
 25 24  1  0  0  0  0
 26 25  1  0  0  0  0
 27 28  1  6  0  0  0
 27 26  1  0  0  0  0
 29 30  1  0  0  0  0
 30 27  1  0  0  0  0
M  END
>  <MODEL>
3

>  <REMARK>
 VINA RESULT:      -6.2      1.958      2.923
  Name = 
  10 active torsions:
  status: ('A' for Active; 'I' for Inactive)
    1  A    between atoms: C_3  and  N_20
    2  A    between atoms: C_3  and  C_25
    3  A    between atoms: C_3  and  C_26
    4  A    between atoms: C_4  and  N_22
    5  A    between atoms: C_4  and  C_26
    6  A    between atoms: O_5  and  C_15
    7  A    between atoms: C_8  and  N_9
    8  A    between atoms: C_10  and  O_18
    9  A    between atoms: C_10  and  N_22
   10  A    between atoms: N_16  and  C_27
                            x       y       z     vdW  Elec       q    Type
                         _______ _______ _______ _____ _____    ______ ____

>  <TORSDO>
F 10

$$$$
=
 OpenBabel11042420113D

 30 31  0  0  1  0  0  0  0  0999 V2000
  161.9830  210.2110  150.7810 C   0  0  0  0  0  3  0  0  0  0  0  0
  161.7560  206.2550  153.0030 C   0  0  1  0  0  3  0  0  0  0  0  0
  162.7980  207.2490  150.8390 C   0  0  0  0  0  3  0  0  0  0  0  0
  161.8690  209.9210  152.0770 C   0  0  0  0  0  3  0  0  0  0  0  0
  161.7700  209.2060  149.6910 C   0  0  2  0  0  3  0  0  0  0  0  0
  162.0110  207.4090  152.0770 C   0  0  0  0  0  0  0  0  0  0  0  0
  160.8480  206.4350  155.2530 O   0  0  0  0  0  0  0  0  0  0  0  0
  161.0590  208.3730  153.9160 N   0  0  0  0  0  0  0  0  0  0  0  0
  161.1730  206.9800  154.1650 C   0  0  0  0  0  0  0  0  0  0  0  0
  161.6150  208.5710  152.6220 C   0  0  0  0  0  0  0  0  0  0  0  0
  162.7330  208.0640  149.7860 C   0  0  0  0  0  3  0  0  0  0  0  0
  161.1100  204.1800  151.7030 C   0  0  0  0  0  0  0  0  0  0  0  0
  160.7610  205.3700  152.4110 N   0  0  0  0  0  2  0  0  0  0  0  0
  160.0750  203.3400  151.1960 N   0  0  0  0  0  2  0  0  0  0  0  0
  162.3210  203.8730  151.5280 O   0  0  0  0  0  0  0  0  0  0  0  0
  160.5950  202.4340  149.0110 C   0  0  0  0  0  1  0  0  0  0  0  0
  160.3640  202.1150  150.4720 C   0  0  0  0  0  2  0  0  0  0  0  0
  161.9000  209.8270  148.4490 O   0  0  0  0  0  0  0  0  0  0  0  0
  162.0790  211.1800  148.7420 C   0  0  0  0  0  1  0  0  0  0  0  0
  160.7700  209.4300  154.8860 C   0  0  2  0  0  3  0  0  0  0  0  0
  161.2150  209.3430  157.2600 O   0  0  0  0  0  1  0  0  0  0  0  0
  161.8150  209.4450  156.0030 C   0  0  2  0  0  3  0  0  0  0  0  0
  162.6560  210.7050  155.9370 C   0  0  0  0  0  1  0  0  0  0  0  0
  159.3400  209.3330  155.4130 C   0  0  0  0  0  2  0  0  0  0  0  0
  158.6790  210.6960  155.3820 C   0  0  0  0  0  2  0  0  0  0  0  0
  159.4430  211.5830  154.5220 N   0  0  0  0  0  2  0  0  0  0  0  0
  158.4970  212.2410  153.6340 C   0  0  2  0  0  3  0  0  0  0  0  0
  157.1940  211.9450  154.0400 O   0  0  0  0  0  1  0  0  0  0  0  0
  159.4290  212.7960  151.7100 C   0  0  0  0  0  1  0  0  0  0  0  0
  158.6910  211.7870  152.3290 O   0  0  0  0  0  0  0  0  0  0  0  0
  1  4  2  0  0  0  0
  2 13  1  6  0  0  0
  2  9  1  0  0  0  0
  3  6  1  0  0  0  0
  4 10  1  0  0  0  0
  5 18  1  6  0  0  0
  5 11  1  0  0  0  0
  5  1  1  0  0  0  0
  6 10  2  0  0  0  0
  6  2  1  0  0  0  0
  8  9  1  0  0  0  0
  8 20  1  0  0  0  0
  9  7  2  0  0  0  0
 10  8  1  0  0  0  0
 11  3  2  0  0  0  0
 12 13  1  0  0  0  0
 14 12  1  0  0  0  0
 15 12  2  0  0  0  0
 16 17  1  0  0  0  0
 17 14  1  0  0  0  0
 18 19  1  0  0  0  0
 20 24  1  1  0  0  0
 20 22  1  0  0  0  0
 22 23  1  1  0  0  0
 22 21  1  0  0  0  0
 25 24  1  0  0  0  0
 26 25  1  0  0  0  0
 27 28  1  1  0  0  0
 27 26  1  0  0  0  0
 29 30  1  0  0  0  0
 30 27  1  0  0  0  0
M  END
>  <MODEL>
4

>  <REMARK>
 VINA RESULT:      -6.2      2.512      8.065
  Name = 
  10 active torsions:
  status: ('A' for Active; 'I' for Inactive)
    1  A    between atoms: C_3  and  N_20
    2  A    between atoms: C_3  and  C_25
    3  A    between atoms: C_3  and  C_26
    4  A    between atoms: C_4  and  N_22
    5  A    between atoms: C_4  and  C_26
    6  A    between atoms: O_5  and  C_15
    7  A    between atoms: C_8  and  N_9
    8  A    between atoms: C_10  and  O_18
    9  A    between atoms: C_10  and  N_22
   10  A    between atoms: N_16  and  C_27
                            x       y       z     vdW  Elec       q    Type
                         _______ _______ _______ _____ _____    ______ ____

>  <TORSDO>
F 10

$$$$
=
 OpenBabel11042420113D

 30 31  0  0  1  0  0  0  0  0999 V2000
  162.1150  206.4670  151.9140 C   0  0  0  0  0  3  0  0  0  0  0  0
  160.6660  210.6710  152.8420 C   0  0  1  0  0  3  0  0  0  0  0  0
  161.2590  208.4670  154.0850 C   0  0  0  0  0  3  0  0  0  0  0  0
  162.3180  207.6360  151.3040 C   0  0  0  0  0  3  0  0  0  0  0  0
  161.0620  206.2550  152.9560 C   0  0  2  0  0  3  0  0  0  0  0  0
  161.1420  209.2480  152.8380 C   0  0  0  0  0  0  0  0  0  0  0  0
  160.8080  212.2060  150.9590 O   0  0  0  0  0  0  0  0  0  0  0  0
  161.5120  209.9630  150.7000 N   0  0  0  0  0  0  0  0  0  0  0  0
  160.9720  211.0520  151.4360 C   0  0  0  0  0  0  0  0  0  0  0  0
  161.6110  208.8930  151.6300 C   0  0  0  0  0  0  0  0  0  0  0  0
  161.2680  207.1350  154.1490 C   0  0  0  0  0  3  0  0  0  0  0  0
  158.5980  211.6400  153.9400 C   0  0  0  0  0  0  0  0  0  0  0  0
  159.2250  210.6980  153.0670 N   0  0  0  0  0  2  0  0  0  0  0  0
  157.1780  211.6340  154.0670 N   0  0  0  0  0  2  0  0  0  0  0  0
  159.2930  212.4680  154.5900 O   0  0  0  0  0  0  0  0  0  0  0  0
  156.1500  211.8880  156.2460 C   0  0  0  0  0  1  0  0  0  0  0  0
  156.4800  212.5670  154.9350 C   0  0  0  0  0  2  0  0  0  0  0  0
  161.0600  204.9180  153.3550 O   0  0  0  0  0  0  0  0  0  0  0  0
  161.1230  204.1900  152.1660 C   0  0  0  0  0  1  0  0  0  0  0  0
  162.1570  210.0090  149.3870 C   0  0  2  0  0  3  0  0  0  0  0  0
  161.0660  211.3510  147.6990 O   0  0  0  0  0  1  0  0  0  0  0  0
  161.9890  211.3880  148.7460 C   0  0  2  0  0  3  0  0  0  0  0  0
  163.3190  211.9100  148.2380 C   0  0  0  0  0  1  0  0  0  0  0  0
  161.6760  208.8740  148.4860 C   0  0  0  0  0  2  0  0  0  0  0  0
  162.7620  207.8270  148.3410 C   0  0  0  0  0  2  0  0  0  0  0  0
  162.3050  206.7790  147.4470 N   0  0  0  0  0  2  0  0  0  0  0  0
  160.9140  206.5090  147.7770 C   0  0  2  0  0  3  0  0  0  0  0  0
  160.8410  205.3900  148.6090 O   0  0  0  0  0  1  0  0  0  0  0  0
  161.1550  205.8230  145.6920 C   0  0  0  0  0  1  0  0  0  0  0  0
  160.1980  206.2630  146.6050 O   0  0  0  0  0  0  0  0  0  0  0  0
  1  5  1  0  0  0  0
  2 13  1  6  0  0  0
  3 11  2  0  0  0  0
  4 10  1  0  0  0  0
  4  1  2  0  0  0  0
  5 18  1  1  0  0  0
  5 11  1  0  0  0  0
  6  2  1  0  0  0  0
  6  3  1  0  0  0  0
  7  9  2  0  0  0  0
  8  9  1  0  0  0  0
  8 10  1  0  0  0  0
  9  2  1  0  0  0  0
 10  6  2  0  0  0  0
 12 14  1  0  0  0  0
 12 15  2  0  0  0  0
 13 12  1  0  0  0  0
 14 17  1  0  0  0  0
 17 16  1  0  0  0  0
 19 18  1  0  0  0  0
 20 24  1  6  0  0  0
 20  8  1  0  0  0  0
 21 22  1  0  0  0  0
 22 23  1  6  0  0  0
 22 20  1  0  0  0  0
 25 24  1  0  0  0  0
 26 27  1  0  0  0  0
 26 25  1  0  0  0  0
 27 28  1  1  0  0  0
 29 30  1  0  0  0  0
 30 27  1  0  0  0  0
M  END
>  <MODEL>
5

>  <REMARK>
 VINA RESULT:      -5.8      2.632      4.758
  Name = 
  10 active torsions:
  status: ('A' for Active; 'I' for Inactive)
    1  A    between atoms: C_3  and  N_20
    2  A    between atoms: C_3  and  C_25
    3  A    between atoms: C_3  and  C_26
    4  A    between atoms: C_4  and  N_22
    5  A    between atoms: C_4  and  C_26
    6  A    between atoms: O_5  and  C_15
    7  A    between atoms: C_8  and  N_9
    8  A    between atoms: C_10  and  O_18
    9  A    between atoms: C_10  and  N_22
   10  A    between atoms: N_16  and  C_27
                            x       y       z     vdW  Elec       q    Type
                         _______ _______ _______ _____ _____    ______ ____

>  <TORSDO>
F 10

$$$$
=
 OpenBabel11042420113D

 30 31  0  0  1  0  0  0  0  0999 V2000
  160.6890  206.2430  154.3480 C   0  0  0  0  0  3  0  0  0  0  0  0
  161.5630  210.0200  151.9800 C   0  0  1  0  0  3  0  0  0  0  0  0
  161.4350  209.2230  154.4510 C   0  0  0  0  0  3  0  0  0  0  0  0
  161.2130  206.4360  153.1370 C   0  0  0  0  0  3  0  0  0  0  0  0
  159.9800  207.3140  155.1180 C   0  0  2  0  0  3  0  0  0  0  0  0
  161.3390  208.9460  153.0040 C   0  0  0  0  0  0  0  0  0  0  0  0
  161.8480  209.6470  149.5930 O   0  0  0  0  0  0  0  0  0  0  0  0
  161.3880  207.8180  151.0180 N   0  0  0  0  0  0  0  0  0  0  0  0
  161.6090  209.1940  150.7430 C   0  0  0  0  0  0  0  0  0  0  0  0
  161.2530  207.7340  152.4310 C   0  0  0  0  0  0  0  0  0  0  0  0
  160.8700  208.4810  155.4050 C   0  0  0  0  0  3  0  0  0  0  0  0
  160.1250  211.8460  152.9890 C   0  0  0  0  0  0  0  0  0  0  0  0
  160.4060  210.9070  151.9500 N   0  0  0  0  0  2  0  0  0  0  0  0
  159.0000  212.7130  152.8610 N   0  0  0  0  0  2  0  0  0  0  0  0
  160.8640  211.9070  154.0100 O   0  0  0  0  0  0  0  0  0  0  0  0
  157.1710  213.6700  154.1280 C   0  0  0  0  0  1  0  0  0  0  0  0
  158.6640  213.6910  153.8800 C   0  0  0  0  0  2  0  0  0  0  0  0
  159.4960  206.7880  156.3160 O   0  0  0  0  0  0  0  0  0  0  0  0
  160.4790  207.0870  157.2610 C   0  0  0  0  0  1  0  0  0  0  0  0
  161.6010  206.6850  150.1170 C   0  0  2  0  0  3  0  0  0  0  0  0
  160.1090  206.5860  148.2180 O   0  0  0  0  0  1  0  0  0  0  0  0
  161.3340  207.0860  148.6650 C   0  0  2  0  0  3  0  0  0  0  0  0
  162.4470  206.5980  147.7590 C   0  0  0  0  0  1  0  0  0  0  0  0
  160.7950  205.4630  150.5520 C   0  0  0  0  0  2  0  0  0  0  0  0
  161.5560  204.1930  150.2260 C   0  0  0  0  0  2  0  0  0  0  0  0
  160.8140  203.4270  149.2400 N   0  0  0  0  0  2  0  0  0  0  0  0
  160.3620  202.2090  149.8930 C   0  0  2  0  0  3  0  0  0  0  0  0
  161.2270  201.8950  150.9430 O   0  0  0  0  0  1  0  0  0  0  0  0
  161.0070  201.6760  147.8480 C   0  0  0  0  0  1  0  0  0  0  0  0
  160.3550  201.1630  148.9690 O   0  0  0  0  0  0  0  0  0  0  0  0
  1  5  1  0  0  0  0
  2 13  1  6  0  0  0
  2  6  1  0  0  0  0
  3 11  2  0  0  0  0
  4  1  2  0  0  0  0
  5 11  1  0  0  0  0
  5 18  1  1  0  0  0
  6  3  1  0  0  0  0
  7  9  2  0  0  0  0
  8 10  1  0  0  0  0
  9  8  1  0  0  0  0
  9  2  1  0  0  0  0
 10  6  2  0  0  0  0
 10  4  1  0  0  0  0
 12 15  2  0  0  0  0
 13 12  1  0  0  0  0
 14 12  1  0  0  0  0
 14 17  1  0  0  0  0
 17 16  1  0  0  0  0
 18 19  1  0  0  0  0
 20 24  1  1  0  0  0
 20  8  1  0  0  0  0
 21 22  1  0  0  0  0
 22 23  1  6  0  0  0
 22 20  1  0  0  0  0
 25 24  1  0  0  0  0
 26 27  1  0  0  0  0
 26 25  1  0  0  0  0
 27 28  1  1  0  0  0
 29 30  1  0  0  0  0
 30 27  1  0  0  0  0
M  END
>  <MODEL>
6

>  <REMARK>
 VINA RESULT:      -5.8      2.084      2.593
  Name = 
  10 active torsions:
  status: ('A' for Active; 'I' for Inactive)
    1  A    between atoms: C_3  and  N_20
    2  A    between atoms: C_3  and  C_25
    3  A    between atoms: C_3  and  C_26
    4  A    between atoms: C_4  and  N_22
    5  A    between atoms: C_4  and  C_26
    6  A    between atoms: O_5  and  C_15
    7  A    between atoms: C_8  and  N_9
    8  A    between atoms: C_10  and  O_18
    9  A    between atoms: C_10  and  N_22
   10  A    between atoms: N_16  and  C_27
                            x       y       z     vdW  Elec       q    Type
                         _______ _______ _______ _____ _____    ______ ____

>  <TORSDO>
F 10

$$$$
=
 OpenBabel11042420113D

 30 31  0  0  1  0  0  0  0  0999 V2000
  161.5450  206.2820  153.4140 C   0  0  0  0  0  3  0  0  0  0  0  0
  160.8120  210.2160  151.2640 C   0  0  1  0  0  3  0  0  0  0  0  0
  160.8310  207.6660  150.7640 C   0  0  0  0  0  3  0  0  0  0  0  0
  161.0730  207.4550  153.8360 C   0  0  0  0  0  3  0  0  0  0  0  0
  162.2350  206.0990  152.0970 C   0  0  2  0  0  3  0  0  0  0  0  0
  160.9810  208.7920  151.7060 C   0  0  0  0  0  0  0  0  0  0  0  0
  160.6190  212.1340  152.7490 O   0  0  0  0  0  0  0  0  0  0  0  0
  161.0000  209.9840  153.6550 N   0  0  0  0  0  0  0  0  0  0  0  0
  160.8060  210.9000  152.5860 C   0  0  0  0  0  0  0  0  0  0  0  0
  161.0770  208.7030  153.0430 C   0  0  0  0  0  0  0  0  0  0  0  0
  161.3470  206.4500  150.9450 C   0  0  0  0  0  3  0  0  0  0  0  0
  161.8860  211.4520  149.3310 C   0  0  0  0  0  0  0  0  0  0  0  0
  161.9790  210.6250  150.4920 N   0  0  0  0  0  2  0  0  0  0  0  0
  163.0800  211.8500  148.6600 N   0  0  0  0  0  2  0  0  0  0  0  0
  160.7600  211.8260  148.9030 O   0  0  0  0  0  0  0  0  0  0  0  0
  162.8510  214.1340  147.8870 C   0  0  0  0  0  1  0  0  0  0  0  0
  163.0530  212.6910  147.4770 C   0  0  0  0  0  2  0  0  0  0  0  0
  162.6640  204.7770  151.9720 O   0  0  0  0  0  0  0  0  0  0  0  0
  161.5140  204.0580  151.6420 C   0  0  0  0  0  1  0  0  0  0  0  0
  160.8110  210.2320  155.0850 C   0  0  2  0  0  3  0  0  0  0  0  0
  161.4760  208.9350  157.0120 O   0  0  0  0  0  1  0  0  0  0  0  0
  161.9560  209.6280  155.8990 C   0  0  2  0  0  3  0  0  0  0  0  0
  162.9260  210.7050  156.3440 C   0  0  0  0  0  1  0  0  0  0  0  0
  159.4360  209.7640  155.5580 C   0  0  0  0  0  2  0  0  0  0  0  0
  158.5320  210.9580  155.7930 C   0  0  0  0  0  2  0  0  0  0  0  0
  157.6640  211.1390  154.6430 N   0  0  0  0  0  2  0  0  0  0  0  0
  156.3480  211.4940  155.1500 C   0  0  2  0  0  3  0  0  0  0  0  0
  155.5720  210.3400  155.2770 O   0  0  0  0  0  1  0  0  0  0  0  0
  156.6040  213.4560  154.1680 C   0  0  0  0  0  1  0  0  0  0  0  0
  155.7290  212.3730  154.2600 O   0  0  0  0  0  0  0  0  0  0  0  0
  1  4  2  0  0  0  0
  2 13  1  6  0  0  0
  2  6  1  0  0  0  0
  2  9  1  0  0  0  0
  3 11  2  0  0  0  0
  3  6  1  0  0  0  0
  5 18  1  6  0  0  0
  5  1  1  0  0  0  0
  6 10  2  0  0  0  0
  8 20  1  0  0  0  0
  9  7  2  0  0  0  0
  9  8  1  0  0  0  0
 10  8  1  0  0  0  0
 10  4  1  0  0  0  0
 11  5  1  0  0  0  0
 12 13  1  0  0  0  0
 14 12  1  0  0  0  0
 15 12  2  0  0  0  0
 17 16  1  0  0  0  0
 17 14  1  0  0  0  0
 19 18  1  0  0  0  0
 20 24  1  1  0  0  0
 20 22  1  0  0  0  0
 22 23  1  1  0  0  0
 22 21  1  0  0  0  0
 24 25  1  0  0  0  0
 26 27  1  0  0  0  0
 26 25  1  0  0  0  0
 27 28  1  6  0  0  0
 29 30  1  0  0  0  0
 30 27  1  0  0  0  0
M  END
>  <MODEL>
7

>  <REMARK>
 VINA RESULT:      -5.4      2.969      6.800
  Name = 
  10 active torsions:
  status: ('A' for Active; 'I' for Inactive)
    1  A    between atoms: C_3  and  N_20
    2  A    between atoms: C_3  and  C_25
    3  A    between atoms: C_3  and  C_26
    4  A    between atoms: C_4  and  N_22
    5  A    between atoms: C_4  and  C_26
    6  A    between atoms: O_5  and  C_15
    7  A    between atoms: C_8  and  N_9
    8  A    between atoms: C_10  and  O_18
    9  A    between atoms: C_10  and  N_22
   10  A    between atoms: N_16  and  C_27
                            x       y       z     vdW  Elec       q    Type
                         _______ _______ _______ _____ _____    ______ ____

>  <TORSDO>
F 10

$$$$
=
 OpenBabel11042420113D

 30 31  0  0  1  0  0  0  0  0999 V2000
  160.4490  213.2510  150.0680 C   0  0  0  0  0  3  0  0  0  0  0  0
  161.7930  209.1360  151.4460 C   0  0  1  0  0  3  0  0  0  0  0  0
  162.3400  210.8750  149.5930 C   0  0  0  0  0  3  0  0  0  0  0  0
  160.4750  212.6770  151.2720 C   0  0  0  0  0  3  0  0  0  0  0  0
  160.6220  212.4900  148.7910 C   0  0  2  0  0  3  0  0  0  0  0  0
  161.5710  210.4650  150.7840 C   0  0  0  0  0  0  0  0  0  0  0  0
  160.9210  208.4880  153.6230 O   0  0  0  0  0  0  0  0  0  0  0  0
  160.3510  210.5930  152.7110 N   0  0  0  0  0  0  0  0  0  0  0  0
  160.9950  209.3270  152.6880 C   0  0  0  0  0  0  0  0  0  0  0  0
  160.7680  211.2500  151.5210 C   0  0  0  0  0  0  0  0  0  0  0  0
  161.9500  211.8050  148.7210 C   0  0  0  0  0  3  0  0  0  0  0  0
  161.5560  206.7060  150.7690 C   0  0  0  0  0  0  0  0  0  0  0  0
  161.2050  208.0840  150.6270 N   0  0  0  0  0  2  0  0  0  0  0  0
  160.8980  205.7310  149.9640 N   0  0  0  0  0  2  0  0  0  0  0  0
  162.4390  206.3560  151.5990 O   0  0  0  0  0  0  0  0  0  0  0  0
  161.0390  203.6640  148.7090 C   0  0  0  0  0  1  0  0  0  0  0  0
  161.2080  204.3150  150.0650 C   0  0  0  0  0  2  0  0  0  0  0  0
  160.4840  213.3570  147.7060 O   0  0  0  0  0  0  0  0  0  0  0  0
  159.2630  213.0110  147.1250 C   0  0  0  0  0  1  0  0  0  0  0  0
  159.6940  211.2360  153.8500 C   0  0  2  0  0  3  0  0  0  0  0  0
  159.3460  209.9090  155.8400 O   0  0  0  0  0  1  0  0  0  0  0  0
  160.2660  210.7200  155.1720 C   0  0  2  0  0  3  0  0  0  0  0  0
  160.6770  211.8740  156.0660 C   0  0  0  0  0  1  0  0  0  0  0  0
  158.1750  211.1030  153.7700 C   0  0  0  0  0  2  0  0  0  0  0  0
  157.5270  212.4710  153.8370 C   0  0  0  0  0  2  0  0  0  0  0  0
  156.2520  212.3680  154.5250 N   0  0  0  0  0  2  0  0  0  0  0  0
  156.2820  211.1390  155.3040 C   0  0  2  0  0  3  0  0  0  0  0  0
  155.2070  210.3290  154.9360 O   0  0  0  0  0  1  0  0  0  0  0  0
  155.4830  212.6490  156.7030 C   0  0  0  0  0  1  0  0  0  0  0  0
  156.1890  211.4470  156.6610 O   0  0  0  0  0  0  0  0  0  0  0  0
  1  4  2  0  0  0  0
  2 13  1  6  0  0  0
  2  9  1  0  0  0  0
  3  6  1  0  0  0  0
  4 10  1  0  0  0  0
  5 18  1  6  0  0  0
  5  1  1  0  0  0  0
  6  2  1  0  0  0  0
  6 10  2  0  0  0  0
  8 20  1  0  0  0  0
  9  8  1  0  0  0  0
  9  7  2  0  0  0  0
 10  8  1  0  0  0  0
 11  5  1  0  0  0  0
 11  3  2  0  0  0  0
 12 15  2  0  0  0  0
 13 12  1  0  0  0  0
 14 17  1  0  0  0  0
 14 12  1  0  0  0  0
 16 17  1  0  0  0  0
 19 18  1  0  0  0  0
 20 24  1  1  0  0  0
 20 22  1  0  0  0  0
 22 21  1  0  0  0  0
 22 23  1  1  0  0  0
 24 25  1  0  0  0  0
 25 26  1  0  0  0  0
 26 27  1  0  0  0  0
 27 28  1  6  0  0  0
 27 30  1  0  0  0  0
 30 29  1  0  0  0  0
M  END
>  <MODEL>
8

>  <REMARK>
 VINA RESULT:      -5.3      3.087      8.228
  Name = 
  10 active torsions:
  status: ('A' for Active; 'I' for Inactive)
    1  A    between atoms: C_3  and  N_20
    2  A    between atoms: C_3  and  C_25
    3  A    between atoms: C_3  and  C_26
    4  A    between atoms: C_4  and  N_22
    5  A    between atoms: C_4  and  C_26
    6  A    between atoms: O_5  and  C_15
    7  A    between atoms: C_8  and  N_9
    8  A    between atoms: C_10  and  O_18
    9  A    between atoms: C_10  and  N_22
   10  A    between atoms: N_16  and  C_27
                            x       y       z     vdW  Elec       q    Type
                         _______ _______ _______ _____ _____    ______ ____

>  <TORSDO>
F 10

$$$$
=
 OpenBabel11042420113D

 30 31  0  0  1  0  0  0  0  0999 V2000
  161.5810  204.1940  147.5440 C   0  0  0  0  0  3  0  0  0  0  0  0
  161.1260  208.4860  148.9620 C   0  0  1  0  0  3  0  0  0  0  0  0
  160.9190  207.0950  146.7760 C   0  0  0  0  0  3  0  0  0  0  0  0
  161.2190  204.7130  148.7190 C   0  0  0  0  0  3  0  0  0  0  0  0
  162.2200  204.9960  146.4530 C   0  0  2  0  0  3  0  0  0  0  0  0
  161.1860  207.1800  148.2250 C   0  0  0  0  0  0  0  0  0  0  0  0
  161.1310  208.7340  151.3830 O   0  0  0  0  0  0  0  0  0  0  0  0
  161.3530  206.5850  150.4240 N   0  0  0  0  0  0  0  0  0  0  0  0
  161.2100  207.9970  150.3660 C   0  0  0  0  0  0  0  0  0  0  0  0
  161.3070  206.1450  149.0730 C   0  0  0  0  0  0  0  0  0  0  0  0
  161.3360  206.1080  145.9830 C   0  0  0  0  0  3  0  0  0  0  0  0
  162.2440  210.6880  148.3970 C   0  0  0  0  0  0  0  0  0  0  0  0
  162.3040  209.2810  148.6360 N   0  0  0  0  0  2  0  0  0  0  0  0
  163.4490  211.4030  148.1330 N   0  0  0  0  0  2  0  0  0  0  0  0
  161.1370  211.2920  148.4200 O   0  0  0  0  0  0  0  0  0  0  0  0
  162.8160  213.1180  146.5440 C   0  0  0  0  0  1  0  0  0  0  0  0
  163.4550  212.8340  147.8860 C   0  0  0  0  0  2  0  0  0  0  0  0
  162.5340  204.1620  145.3800 O   0  0  0  0  0  0  0  0  0  0  0  0
  161.4370  203.3060  145.2610 C   0  0  0  0  0  1  0  0  0  0  0  0
  161.2210  205.7250  151.6010 C   0  0  2  0  0  3  0  0  0  0  0  0
  163.0220  205.8280  153.2100 O   0  0  0  0  0  1  0  0  0  0  0  0
  161.8050  206.4050  152.8410 C   0  0  2  0  0  3  0  0  0  0  0  0
  160.8310  206.3350  154.0020 C   0  0  0  0  0  1  0  0  0  0  0  0
  161.8120  204.3390  151.3530 C   0  0  0  0  0  2  0  0  0  0  0  0
  160.8240  203.2690  151.7730 C   0  0  0  0  0  2  0  0  0  0  0  0
  161.3220  201.9670  151.3650 N   0  0  0  0  0  2  0  0  0  0  0  0
  160.9210  201.7670  149.9810 C   0  0  2  0  0  3  0  0  0  0  0  0
  159.5300  201.6780  149.9080 O   0  0  0  0  0  1  0  0  0  0  0  0
  161.2060  200.5910  148.1330 C   0  0  0  0  0  1  0  0  0  0  0  0
  161.4880  200.5870  149.4990 O   0  0  0  0  0  0  0  0  0  0  0  0
  1  4  2  0  0  0  0
  2 13  1  6  0  0  0
  2  9  1  0  0  0  0
  3  6  1  0  0  0  0
  4 10  1  0  0  0  0
  5 18  1  6  0  0  0
  5  1  1  0  0  0  0
  6  2  1  0  0  0  0
  6 10  2  0  0  0  0
  8 20  1  0  0  0  0
  9  8  1  0  0  0  0
  9  7  2  0  0  0  0
 10  8  1  0  0  0  0
 11  5  1  0  0  0  0
 11  3  2  0  0  0  0
 12 15  2  0  0  0  0
 12 13  1  0  0  0  0
 14 12  1  0  0  0  0
 16 17  1  0  0  0  0
 17 14  1  0  0  0  0
 19 18  1  0  0  0  0
 20 24  1  6  0  0  0
 20 22  1  0  0  0  0
 22 21  1  0  0  0  0
 22 23  1  1  0  0  0
 24 25  1  0  0  0  0
 26 25  1  0  0  0  0
 27 28  1  1  0  0  0
 27 26  1  0  0  0  0
 29 30  1  0  0  0  0
 30 27  1  0  0  0  0
M  END
>  <MODEL>
9

>  <REMARK>
 VINA RESULT:      -5.2      2.279      5.071
  Name = 
  10 active torsions:
  status: ('A' for Active; 'I' for Inactive)
    1  A    between atoms: C_3  and  N_20
    2  A    between atoms: C_3  and  C_25
    3  A    between atoms: C_3  and  C_26
    4  A    between atoms: C_4  and  N_22
    5  A    between atoms: C_4  and  C_26
    6  A    between atoms: O_5  and  C_15
    7  A    between atoms: C_8  and  N_9
    8  A    between atoms: C_10  and  O_18
    9  A    between atoms: C_10  and  N_22
   10  A    between atoms: N_16  and  C_27
                            x       y       z     vdW  Elec       q    Type
                         _______ _______ _______ _____ _____    ______ ____

>  <TORSDO>
F 10

$$$$
