=
 OpenBabel11042421443D

 51 57  0  0  1  0  0  0  0  0999 V2000
  162.8050  208.7410  148.3630 C   0  0  0  0  0  2  0  0  0  0  0  0
  161.8740  208.2250  151.9170 C   0  0  0  0  0  0  0  0  0  0  0  0
  161.8690  209.9130  148.6210 C   0  0  1  0  0  3  0  0  0  0  0  0
  162.0190  208.6010  150.6220 C   0  0  0  0  0  0  0  0  0  0  0  0
  161.5220  209.9040  150.1000 C   0  0  0  0  0  2  0  0  0  0  0  0
  162.7130  207.8160  149.5640 C   0  0  1  0  0  3  0  0  0  0  0  0
  159.5710  210.2770  154.9180 C   0  0  1  0  0  0  0  0  0  0  0  0
  159.7340  208.8790  152.8580 C   0  0  0  0  0  3  0  0  0  0  0  0
  158.7380  211.0030  155.8830 C   0  0  1  0  0  3  0  0  0  0  0  0
  159.1960  209.6080  156.1880 N   0  0  0  0  0  0  0  0  0  0  0  0
  161.0660  209.0500  152.8360 C   0  0  0  0  0  0  0  0  0  0  0  0
  161.7250  210.0240  153.7470 C   0  0  0  0  0  0  0  0  0  0  0  0
  158.8250  209.7160  153.7150 C   0  0  0  0  0  2  0  0  0  0  0  0
  161.0320  210.6260  154.7150 C   0  0  0  0  0  3  0  0  0  0  0  0
  163.1630  210.3790  153.5730 C   0  0  0  0  0  1  0  0  0  0  0  0
  159.4900  212.1340  156.6150 C   0  0  0  0  0  2  0  0  0  0  0  0
  159.3510  214.2050  155.1730 C   0  0  0  0  0  1  0  0  0  0  0  0
  158.8310  213.5030  156.4200 C   0  0  1  0  0  3  0  0  0  0  0  0
  157.2980  213.4560  156.4600 C   0  0  0  0  0  0  0  0  0  0  0  0
  156.0940  212.0240  155.4260 C   0  0  0  0  0  2  0  0  0  0  0  0
  156.7220  214.4460  157.2600 O   0  0  0  0  0  1  0  0  0  0  0  0
  156.6540  213.3940  155.0910 C   0  0  0  0  0  2  0  0  0  0  0  0
  156.7500  212.0850  156.7950 C   0  0  0  0  0  2  0  0  0  0  0  0
  160.2870  209.5730  157.1700 C   0  0  0  0  0  2  0  0  0  0  0  0
  160.0350  207.2320  156.4220 C   0  0  0  0  0  1  0  0  0  0  0  0
  162.1850  208.1800  156.7640 O   0  0  0  0  0  1  0  0  0  0  0  0
  160.8780  208.1760  157.2530 C   0  0  1  0  0  3  0  0  0  0  0  0
  161.8100  206.9170  146.9100 O   0  0  0  0  0  0  0  0  0  0  0  0
  161.9840  206.5910  149.2260 N   0  0  0  0  0  2  0  0  0  0  0  0
  161.5800  206.1840  147.9100 C   0  0  0  0  0  0  0  0  0  0  0  0
  161.5350  203.8010  147.3890 C   0  0  0  0  0  3  0  0  0  0  0  0
  160.8820  204.9120  147.7100 C   0  0  0  0  0  3  0  0  0  0  0  0
  160.7980  202.5180  147.1820 C   0  0  0  0  0  2  0  0  0  0  0  0
  161.1150  201.4890  148.2670 C   0  0  0  0  0  0  0  0  0  0  0  0
  161.2410  200.0900  147.6950 C   0  0  0  0  0  2  0  0  0  0  0  0
  162.4790  200.8350  148.1760 C   0  0  0  0  0  2  0  0  0  0  0  0
  161.0590  200.6560  150.5380 F   0  0  0  0  0  0  0  0  0  0  0  0
  160.6150  202.9470  150.2610 C   0  0  0  0  0  1  0  0  0  0  0  0
  158.9880  201.2140  149.5770 C   0  0  0  0  0  1  0  0  0  0  0  0
  160.4640  201.5560  149.6660 C   0  0  0  0  0  0  0  0  0  0  0  0
  162.4640  207.0750  152.4700 O   0  0  0  0  0  0  0  0  0  0  0  0
  161.7800  205.8640  152.7600 C   0  0  0  0  0  1  0  0  0  0  0  0
  162.5320  211.1600  148.2690 N   0  0  0  0  0  2  0  0  0  0  0  0
  162.8250  212.8350  144.9390 C   0  0  0  0  0  2  0  0  0  0  0  0
  161.9690  213.3590  146.0650 C   0  0  0  0  0  0  0  0  0  0  0  0
  162.4790  214.4530  146.7840 O   0  0  0  0  0  0  0  0  0  0  0  0
  161.0140  212.4070  146.7710 C   0  0  0  0  0  2  0  0  0  0  0  0
  161.9630  213.4060  148.7860 O   0  0  0  0  0  0  0  0  0  0  0  0
  162.9980  213.9330  147.9830 C   0  0  0  0  0  2  0  0  0  0  0  0
  161.5990  213.6930  144.6430 C   0  0  0  0  0  2  0  0  0  0  0  0
  161.5080  212.2000  148.2040 C   0  0  2  0  0  3  0  0  0  0  0  0
  1  3  1  0  0  0  0
  1  6  1  0  0  0  0
  2 41  1  0  0  0  0
  2 11  1  0  0  0  0
  3 43  1  1  0  0  0
  3  5  1  0  0  0  0
  4  2  2  0  0  0  0
  5  4  1  0  0  0  0
  6 29  1  6  0  0  0
  6  4  1  0  0  0  0
  7 13  1  6  0  0  0
  7  9  1  0  0  0  0
  7 10  1  0  0  0  0
  8 13  1  0  0  0  0
  9 10  1  0  0  0  0
  9 16  1  1  0  0  0
 10 24  1  0  0  0  0
 11  8  2  0  0  0  0
 11 12  1  0  0  0  0
 12 14  2  0  0  0  0
 14  7  1  0  0  0  0
 15 12  1  0  0  0  0
 18 17  1  6  0  0  0
 18 19  1  0  0  0  0
 18 16  1  0  0  0  0
 19 23  1  0  0  0  0
 19 21  1  0  0  0  0
 20 23  1  0  0  0  0
 22 20  1  0  0  0  0
 22 19  1  0  0  0  0
 24 27  1  0  0  0  0
 26 27  1  0  0  0  0
 27 25  1  6  0  0  0
 28 30  2  0  0  0  0
 30 29  1  0  0  0  0
 31 32  2  0  0  0  0
 32 30  1  0  0  0  0
 33 31  1  0  0  0  0
 33 34  1  0  0  0  0
 34 40  1  0  0  0  0
 35 36  1  0  0  0  0
 35 34  1  0  0  0  0
 36 34  1  0  0  0  0
 39 40  1  0  0  0  0
 40 38  1  0  0  0  0
 40 37  1  0  0  0  0
 41 42  1  0  0  0  0
 44 45  1  0  0  0  0
 45 47  1  0  0  0  0
 45 46  1  0  0  0  0
 46 49  1  0  0  0  0
 47 51  1  0  0  0  0
 49 48  1  0  0  0  0
 50 44  1  0  0  0  0
 50 45  1  0  0  0  0
 51 43  1  6  0  0  0
 51 48  1  0  0  0  0
M  END
>  <MODEL>
1

>  <REMARK>
 VINA RESULT:      -4.2      0.000      0.000
  Name = 
  14 active torsions:
  status: ('A' for Active; 'I' for Inactive)
    1  A    between atoms: C_9  and  C_15
    2  A    between atoms: C_9  and  C_22
    3  A    between atoms: C_10  and  C_12
    4  A    between atoms: C_10  and  C_27
    5  A    between atoms: C_11  and  O_14
    6  A    between atoms: C_11  and  C_31
    7  A    between atoms: C_15  and  C_37
    8  A    between atoms: C_17  and  C_27
    9  A    between atoms: N_19  and  C_23
   10  A    between atoms: N_19  and  C_44
   11  A    between atoms: N_29  and  C_38
   12  A    between atoms: C_35  and  C_50
   13  A    between atoms: C_38  and  C_45
   14  A    between atoms: N_43  and  C_47
                            x       y       z     vdW  Elec       q    Type
                         _______ _______ _______ _____ _____    ______ ____

>  <TORSDO>
F 14

$$$$
=
 OpenBabel11042421443D

 51 57  0  0  1  0  0  0  0  0999 V2000
  160.2170  211.4250  154.8280 C   0  0  0  0  0  2  0  0  0  0  0  0
  160.9640  207.9180  153.8770 C   0  0  0  0  0  0  0  0  0  0  0  0
  160.1010  211.4740  153.3110 C   0  0  1  0  0  3  0  0  0  0  0  0
  160.7090  209.2470  153.9590 C   0  0  0  0  0  0  0  0  0  0  0  0
  160.2440  210.0520  152.7960 C   0  0  0  0  0  2  0  0  0  0  0  0
  160.8080  210.0740  155.1930 C   0  0  1  0  0  3  0  0  0  0  0  0
  160.9850  206.3770  149.8590 C   0  0  1  0  0  0  0  0  0  0  0  0
  159.7810  207.2160  151.8770 C   0  0  0  0  0  3  0  0  0  0  0  0
  160.9300  205.8060  148.5090 C   0  0  1  0  0  3  0  0  0  0  0  0
  161.1050  207.2840  148.6900 N   0  0  0  0  0  0  0  0  0  0  0  0
  160.9330  207.2430  152.5650 C   0  0  0  0  0  0  0  0  0  0  0  0
  162.1720  206.6390  152.0030 C   0  0  0  0  0  0  0  0  0  0  0  0
  159.6400  206.4990  150.5620 C   0  0  0  0  0  2  0  0  0  0  0  0
  162.2060  206.2070  150.7420 C   0  0  0  0  0  3  0  0  0  0  0  0
  163.3880  206.4660  152.8480 C   0  0  0  0  0  1  0  0  0  0  0  0
  162.2010  205.0200  148.1240 C   0  0  0  0  0  2  0  0  0  0  0  0
  160.7180  202.9750  148.0370 C   0  0  0  0  0  1  0  0  0  0  0  0
  161.8870  203.7100  147.3940 C   0  0  1  0  0  3  0  0  0  0  0  0
  161.7010  203.8800  145.8810 C   0  0  0  0  0  0  0  0  0  0  0  0
  161.9950  205.7100  144.8140 C   0  0  0  0  0  2  0  0  0  0  0  0
  161.3230  202.7090  145.2220 O   0  0  0  0  0  1  0  0  0  0  0  0
  160.8150  205.0500  145.5040 C   0  0  0  0  0  2  0  0  0  0  0  0
  162.8830  204.5410  145.2050 C   0  0  0  0  0  2  0  0  0  0  0  0
  162.4820  207.7260  148.4370 C   0  0  0  0  0  2  0  0  0  0  0  0
  161.5480  209.9750  148.0190 C   0  0  0  0  0  1  0  0  0  0  0  0
  162.4940  209.4170  150.1250 O   0  0  0  0  0  1  0  0  0  0  0  0
  162.6270  209.2060  148.7520 C   0  0  1  0  0  3  0  0  0  0  0  0
  161.8750  211.9230  157.2210 O   0  0  0  0  0  0  0  0  0  0  0  0
  162.1940  210.2160  155.6460 N   0  0  0  0  0  2  0  0  0  0  0  0
  162.6660  211.1220  156.6550 C   0  0  0  0  0  0  0  0  0  0  0  0
  164.8370  212.2150  156.8710 C   0  0  0  0  0  3  0  0  0  0  0  0
  164.0790  211.1350  157.0360 C   0  0  0  0  0  3  0  0  0  0  0  0
  166.2790  212.1990  157.2600 C   0  0  0  0  0  2  0  0  0  0  0  0
  167.1970  212.5400  156.0870 C   0  0  0  0  0  0  0  0  0  0  0  0
  166.5030  212.3390  154.7530 C   0  0  0  0  0  2  0  0  0  0  0  0
  166.7930  213.7450  155.2620 C   0  0  0  0  0  2  0  0  0  0  0  0
  169.0990  211.6910  154.8550 F   0  0  0  0  0  0  0  0  0  0  0  0
  169.5470  213.3860  156.4200 C   0  0  0  0  0  1  0  0  0  0  0  0
  168.9670  211.0870  157.1230 C   0  0  0  0  0  1  0  0  0  0  0  0
  168.6970  212.1690  156.0930 C   0  0  0  0  0  0  0  0  0  0  0  0
  161.2550  207.1060  154.9870 O   0  0  0  0  0  0  0  0  0  0  0  0
  160.5380  207.1070  156.2120 C   0  0  0  0  0  1  0  0  0  0  0  0
  158.8040  212.0170  152.9340 N   0  0  0  0  0  2  0  0  0  0  0  0
  155.9000  211.2040  155.1440 C   0  0  0  0  0  2  0  0  0  0  0  0
  156.4860  212.5870  155.0090 C   0  0  0  0  0  0  0  0  0  0  0  0
  155.7680  213.4980  154.2150 O   0  0  0  0  0  0  0  0  0  0  0  0
  157.9910  212.7680  155.1420 C   0  0  0  0  0  2  0  0  0  0  0  0
  157.7190  214.1190  153.1270 O   0  0  0  0  0  0  0  0  0  0  0  0
  156.4330  213.5540  152.9760 C   0  0  0  0  0  2  0  0  0  0  0  0
  155.7750  212.2100  156.2830 C   0  0  0  0  0  2  0  0  0  0  0  0
  158.5520  213.1810  153.7810 C   0  0  2  0  0  3  0  0  0  0  0  0
  1  6  1  0  0  0  0
  2  4  2  0  0  0  0
  2 41  1  0  0  0  0
  3 43  1  1  0  0  0
  3  1  1  0  0  0  0
  4  6  1  0  0  0  0
  5  3  1  0  0  0  0
  5  4  1  0  0  0  0
  6 29  1  6  0  0  0
  7 13  1  1  0  0  0
  7 14  1  0  0  0  0
  8 11  2  0  0  0  0
  9 16  1  1  0  0  0
  9 10  1  0  0  0  0
  9  7  1  0  0  0  0
 10  7  1  0  0  0  0
 11  2  1  0  0  0  0
 12 11  1  0  0  0  0
 12 15  1  0  0  0  0
 13  8  1  0  0  0  0
 14 12  2  0  0  0  0
 18 17  1  1  0  0  0
 18 16  1  0  0  0  0
 19 18  1  0  0  0  0
 20 23  1  0  0  0  0
 20 22  1  0  0  0  0
 21 19  1  0  0  0  0
 22 19  1  0  0  0  0
 23 19  1  0  0  0  0
 24 10  1  0  0  0  0
 24 27  1  0  0  0  0
 27 25  1  6  0  0  0
 27 26  1  0  0  0  0
 29 30  1  0  0  0  0
 30 32  1  0  0  0  0
 30 28  2  0  0  0  0
 31 32  2  0  0  0  0
 31 33  1  0  0  0  0
 34 40  1  0  0  0  0
 34 33  1  0  0  0  0
 35 36  1  0  0  0  0
 35 34  1  0  0  0  0
 36 34  1  0  0  0  0
 37 40  1  0  0  0  0
 40 38  1  0  0  0  0
 40 39  1  0  0  0  0
 41 42  1  0  0  0  0
 44 50  1  0  0  0  0
 45 47  1  0  0  0  0
 45 44  1  0  0  0  0
 45 50  1  0  0  0  0
 46 45  1  0  0  0  0
 48 51  1  0  0  0  0
 49 48  1  0  0  0  0
 49 46  1  0  0  0  0
 51 43  1  6  0  0  0
 51 47  1  0  0  0  0
M  END
>  <MODEL>
2

>  <REMARK>
 VINA RESULT:      -1.9      3.639     10.459
  Name = 
  14 active torsions:
  status: ('A' for Active; 'I' for Inactive)
    1  A    between atoms: C_9  and  C_15
    2  A    between atoms: C_9  and  C_22
    3  A    between atoms: C_10  and  C_12
    4  A    between atoms: C_10  and  C_27
    5  A    between atoms: C_11  and  O_14
    6  A    between atoms: C_11  and  C_31
    7  A    between atoms: C_15  and  C_37
    8  A    between atoms: C_17  and  C_27
    9  A    between atoms: N_19  and  C_23
   10  A    between atoms: N_19  and  C_44
   11  A    between atoms: N_29  and  C_38
   12  A    between atoms: C_35  and  C_50
   13  A    between atoms: C_38  and  C_45
   14  A    between atoms: N_43  and  C_47
                            x       y       z     vdW  Elec       q    Type
                         _______ _______ _______ _____ _____    ______ ____

>  <TORSDO>
F 14

$$$$
