=
 OpenBabel11052411553D

 32 34  0  0  1  0  0  0  0  0999 V2000
  161.0580  208.0800  152.6450 N   0  0  0  0  0  0  0  0  0  0  0  0
  161.2830  206.0100  151.3760 C   0  0  0  0  0  2  0  0  0  0  0  0
  161.9740  207.6230  149.1020 C   0  0  2  0  0  3  0  0  0  0  0  0
  161.2720  207.5010  151.5040 C   0  0  0  0  0  0  0  0  0  0  0  0
  161.5070  208.2860  150.3240 N   0  0  0  0  0  0  0  0  0  0  0  0
  161.2020  206.3250  148.8180 C   0  0  0  0  0  2  0  0  0  0  0  0
  160.6060  205.6330  150.0580 C   0  0  1  0  0  3  0  0  0  0  0  0
  163.4590  207.3210  149.2060 C   0  0  0  0  0  1  0  0  0  0  0  0
  161.1650  209.7070  150.3110 C   0  0  1  0  0  3  0  0  0  0  0  0
  161.4720  210.3470  151.6420 C   0  0  0  0  0  2  0  0  0  0  0  0
  161.0970  212.5890  149.7600 O   0  0  0  0  0  0  0  0  0  0  0  0
  160.4230  212.4680  150.9920 C   0  0  0  0  0  0  0  0  0  0  0  0
  159.5190  213.5050  151.3550 N   0  0  0  0  0  1  0  0  0  0  0  0
  162.7010  212.1900  147.9160 C   0  0  0  0  0  1  0  0  0  0  0  0
  161.8820  211.6670  149.0390 C   0  0  0  0  0  0  0  0  0  0  0  0
  160.5900  211.4830  151.8230 N   0  0  0  0  0  0  0  0  0  0  0  0
  161.9140  210.3900  149.2750 N   0  0  0  0  0  0  0  0  0  0  0  0
  161.6470  209.2410  156.7630 C   0  0  0  0  0  3  0  0  0  0  0  0
  161.5640  209.1640  155.3910 C   0  0  2  0  0  3  0  0  0  0  0  0
  160.8260  207.3500  153.8190 N   0  0  0  0  0  2  0  0  0  0  0  0
  160.8880  207.2460  156.2590 N   0  0  0  0  0  0  0  0  0  0  0  0
  161.2280  208.0530  157.2560 N   0  0  0  0  0  0  0  0  0  0  0  0
  161.9000  210.1920  154.4670 N   0  0  0  0  0  1  0  0  0  0  0  0
  161.0870  207.9080  155.1080 C   0  0  0  0  0  0  0  0  0  0  0  0
  160.5020  204.1190  149.8760 C   0  0  0  0  0  2  0  0  0  0  0  0
  161.1840  203.6120  148.6070 C   0  0  0  0  0  2  0  0  0  0  0  0
  160.8870  202.1430  148.3510 C   0  0  0  0  0  2  0  0  0  0  0  0
  160.8450  201.7990  146.5650 S   0  0  0  0  0  0  0  0  0  0  0  0
  161.4660  203.4500  146.1320 C   0  0  0  0  0  2  0  0  0  0  0  0
  160.8760  203.8790  144.9430 O   0  0  0  0  0  0  0  0  0  0  0  0
  162.5000  205.4980  145.5740 C   0  0  0  0  0  1  0  0  0  0  0  0
  161.1800  205.2380  144.8730 C   0  0  0  0  0  2  0  0  0  0  0  0
  1 20  1  0  0  0  0
  2  4  1  0  0  0  0
  3  8  1  1  0  0  0
  3  5  1  0  0  0  0
  4  1  2  0  0  0  0
  5  4  1  0  0  0  0
  6  3  1  0  0  0  0
  6  7  1  0  0  0  0
  7 25  1  6  0  0  0
  7  2  1  0  0  0  0
  9  5  1  1  0  0  0
  9 10  1  0  0  0  0
 10 16  1  0  0  0  0
 11 12  1  0  0  0  0
 12 13  1  0  0  0  0
 12 16  2  0  0  0  0
 14 15  1  0  0  0  0
 15 17  2  0  0  0  0
 15 11  1  0  0  0  0
 17  9  1  0  0  0  0
 18 22  2  0  0  0  0
 19 23  1  1  0  0  0
 19 18  1  0  0  0  0
 20 24  1  0  0  0  0
 21 22  1  0  0  0  0
 24 19  1  0  0  0  0
 24 21  2  0  0  0  0
 26 25  1  0  0  0  0
 27 26  1  0  0  0  0
 28 27  1  0  0  0  0
 29 28  1  0  0  0  0
 30 29  1  0  0  0  0
 32 30  1  0  0  0  0
 32 31  1  0  0  0  0
M  END
>  <MODEL>
1

>  <REMARK>
 VINA RESULT:      -6.2      0.000      0.000
  Name = 
  9 active torsions:
  status: ('A' for Active; 'I' for Inactive)
    1  A    between atoms: N_1  and  N_5
    2  A    between atoms: C_6  and  S_25
    3  A    between atoms: C_6  and  O_28
    4  A    between atoms: C_9  and  N_12
    5  A    between atoms: C_11  and  S_25
    6  A    between atoms: C_11  and  C_29
    7  A    between atoms: C_16  and  O_28
    8  A    between atoms: C_19  and  C_20
    9  A    between atoms: C_20  and  C_29
                            x       y       z     vdW  Elec       q    Type
                         _______ _______ _______ _____ _____    ______ ____

>  <TORSDO>
F 9

$$$$
=
 OpenBabel11052411553D

 32 34  0  0  1  0  0  0  0  0999 V2000
  162.2780  207.4420  148.9100 N   0  0  0  0  0  0  0  0  0  0  0  0
  162.2200  209.8730  148.7150 C   0  0  0  0  0  2  0  0  0  0  0  0
  162.0100  209.9750  151.5780 C   0  0  2  0  0  3  0  0  0  0  0  0
  162.1460  208.5950  149.4910 C   0  0  0  0  0  0  0  0  0  0  0  0
  161.9230  208.6730  150.9080 N   0  0  0  0  0  0  0  0  0  0  0  0
  161.2820  211.0780  150.7920 C   0  0  0  0  0  2  0  0  0  0  0  0
  161.1770  210.8400  149.2750 C   0  0  1  0  0  3  0  0  0  0  0  0
  163.4640  210.3660  151.7760 C   0  0  0  0  0  1  0  0  0  0  0  0
  161.4960  207.4870  151.6480 C   0  0  1  0  0  3  0  0  0  0  0  0
  162.5880  206.4460  151.6730 C   0  0  0  0  0  2  0  0  0  0  0  0
  160.6680  205.6210  153.7570 O   0  0  0  0  0  0  0  0  0  0  0  0
  161.1290  204.7770  152.7260 C   0  0  0  0  0  0  0  0  0  0  0  0
  160.6500  203.4390  152.7050 N   0  0  0  0  0  1  0  0  0  0  0  0
  160.4540  207.5660  155.2770 C   0  0  0  0  0  1  0  0  0  0  0  0
  160.7910  207.0130  153.9390 C   0  0  0  0  0  0  0  0  0  0  0  0
  161.9780  205.1390  151.8110 N   0  0  0  0  0  0  0  0  0  0  0  0
  161.1530  207.8450  153.0100 N   0  0  0  0  0  0  0  0  0  0  0  0
  161.5170  204.0970  146.2860 C   0  0  0  0  0  3  0  0  0  0  0  0
  161.6410  204.9700  147.3430 C   0  0  2  0  0  3  0  0  0  0  0  0
  162.4960  207.3240  147.5300 N   0  0  0  0  0  2  0  0  0  0  0  0
  162.3790  205.9580  145.5090 N   0  0  0  0  0  0  0  0  0  0  0  0
  161.9780  204.7350  145.1860 N   0  0  0  0  0  0  0  0  0  0  0  0
  161.2690  204.7170  148.6930 N   0  0  0  0  0  1  0  0  0  0  0  0
  162.1810  206.1210  146.8260 C   0  0  0  0  0  0  0  0  0  0  0  0
  161.1260  212.1500  148.4900 C   0  0  0  0  0  2  0  0  0  0  0  0
  162.5050  212.6620  148.0750 C   0  0  0  0  0  2  0  0  0  0  0  0
  162.5390  213.0790  146.6130 C   0  0  0  0  0  2  0  0  0  0  0  0
  161.0450  214.0240  146.1820 S   0  0  0  0  0  0  0  0  0  0  0  0
  160.5700  212.8650  144.8680 C   0  0  0  0  0  2  0  0  0  0  0  0
  159.4470  212.1380  145.2620 O   0  0  0  0  0  0  0  0  0  0  0  0
  157.2990  212.4270  146.2410 C   0  0  0  0  0  1  0  0  0  0  0  0
  158.6200  213.0780  145.8750 C   0  0  0  0  0  2  0  0  0  0  0  0
  1  4  2  0  0  0  0
  2  7  1  0  0  0  0
  2  4  1  0  0  0  0
  3  8  1  6  0  0  0
  4  5  1  0  0  0  0
  5  3  1  0  0  0  0
  6  3  1  0  0  0  0
  7 25  1  6  0  0  0
  7  6  1  0  0  0  0
  9  5  1  6  0  0  0
  9 10  1  0  0  0  0
  9 17  1  0  0  0  0
 10 16  1  0  0  0  0
 11 15  1  0  0  0  0
 12 11  1  0  0  0  0
 13 12  1  0  0  0  0
 15 14  1  0  0  0  0
 16 12  2  0  0  0  0
 17 15  2  0  0  0  0
 18 19  1  0  0  0  0
 19 23  1  6  0  0  0
 20  1  1  0  0  0  0
 21 24  2  0  0  0  0
 22 21  1  0  0  0  0
 22 18  2  0  0  0  0
 24 19  1  0  0  0  0
 24 20  1  0  0  0  0
 26 25  1  0  0  0  0
 27 26  1  0  0  0  0
 28 27  1  0  0  0  0
 29 30  1  0  0  0  0
 29 28  1  0  0  0  0
 30 32  1  0  0  0  0
 32 31  1  0  0  0  0
M  END
>  <MODEL>
2

>  <REMARK>
 VINA RESULT:      -6.1      3.780      7.865
  Name = 
  9 active torsions:
  status: ('A' for Active; 'I' for Inactive)
    1  A    between atoms: N_1  and  N_5
    2  A    between atoms: C_6  and  S_25
    3  A    between atoms: C_6  and  O_28
    4  A    between atoms: C_9  and  N_12
    5  A    between atoms: C_11  and  S_25
    6  A    between atoms: C_11  and  C_29
    7  A    between atoms: C_16  and  O_28
    8  A    between atoms: C_19  and  C_20
    9  A    between atoms: C_20  and  C_29
                            x       y       z     vdW  Elec       q    Type
                         _______ _______ _______ _____ _____    ______ ____

>  <TORSDO>
F 9

$$$$
=
 OpenBabel11052411553D

 32 34  0  0  1  0  0  0  0  0999 V2000
  162.0980  209.4950  149.7230 N   0  0  0  0  0  0  0  0  0  0  0  0
  161.8420  209.3860  152.1460 C   0  0  0  0  0  2  0  0  0  0  0  0
  161.5890  206.5380  151.8670 C   0  0  2  0  0  3  0  0  0  0  0  0
  161.8640  208.7780  150.7780 C   0  0  0  0  0  0  0  0  0  0  0  0
  161.6180  207.3680  150.6580 N   0  0  0  0  0  0  0  0  0  0  0  0
  160.7820  207.1950  152.9980 C   0  0  0  0  0  2  0  0  0  0  0  0
  160.7150  208.7320  152.9470 C   0  0  1  0  0  3  0  0  0  0  0  0
  163.0030  206.2590  152.3440 C   0  0  0  0  0  1  0  0  0  0  0  0
  161.2820  206.7930  149.3570 C   0  0  1  0  0  3  0  0  0  0  0  0
  162.3170  207.1580  148.3220 C   0  0  0  0  0  2  0  0  0  0  0  0
  160.7670  204.9450  147.1340 O   0  0  0  0  0  0  0  0  0  0  0  0
  161.0020  206.1800  146.4950 C   0  0  0  0  0  0  0  0  0  0  0  0
  160.4720  206.3580  145.1880 N   0  0  0  0  0  1  0  0  0  0  0  0
  160.9070  203.0820  148.7600 C   0  0  0  0  0  1  0  0  0  0  0  0
  160.9780  204.5370  148.4660 C   0  0  0  0  0  0  0  0  0  0  0  0
  161.6880  207.1530  147.0160 N   0  0  0  0  0  0  0  0  0  0  0  0
  161.2020  205.3490  149.4550 N   0  0  0  0  0  0  0  0  0  0  0  0
  161.0400  212.6290  146.9450 C   0  0  0  0  0  3  0  0  0  0  0  0
  161.2310  211.4450  147.6200 C   0  0  2  0  0  3  0  0  0  0  0  0
  162.3420  210.8740  149.7980 N   0  0  0  0  0  2  0  0  0  0  0  0
  162.1310  213.0890  148.7920 N   0  0  0  0  0  0  0  0  0  0  0  0
  161.6030  213.6080  147.6900 N   0  0  0  0  0  0  0  0  0  0  0  0
  160.7930  210.1570  147.2030 N   0  0  0  0  0  1  0  0  0  0  0  0
  161.9140  211.7650  148.7670 C   0  0  0  0  0  0  0  0  0  0  0  0
  160.5660  209.3470  154.3380 C   0  0  0  0  0  2  0  0  0  0  0  0
  161.4690  210.5590  154.5650 C   0  0  0  0  0  2  0  0  0  0  0  0
  160.8300  211.5760  155.4960 C   0  0  0  0  0  2  0  0  0  0  0  0
  159.0160  211.5020  155.3780 S   0  0  0  0  0  0  0  0  0  0  0  0
  158.9170  213.0340  154.4080 C   0  0  0  0  0  2  0  0  0  0  0  0
  158.0340  212.8620  153.3420 O   0  0  0  0  0  0  0  0  0  0  0  0
  159.8110  212.6360  151.7780 C   0  0  0  0  0  1  0  0  0  0  0  0
  158.6710  211.9480  152.5040 C   0  0  0  0  0  2  0  0  0  0  0  0
  1 20  1  0  0  0  0
  1  4  2  0  0  0  0
  2  7  1  0  0  0  0
  3  8  1  1  0  0  0
  3  6  1  0  0  0  0
  4  2  1  0  0  0  0
  5  4  1  0  0  0  0
  5  3  1  0  0  0  0
  7  6  1  0  0  0  0
  7 25  1  1  0  0  0
  9 10  1  6  0  0  0
  9 17  1  0  0  0  0
  9  5  1  0  0  0  0
 11 15  1  0  0  0  0
 12 16  2  0  0  0  0
 12 11  1  0  0  0  0
 13 12  1  0  0  0  0
 15 14  1  0  0  0  0
 15 17  2  0  0  0  0
 16 10  1  0  0  0  0
 18 19  1  0  0  0  0
 18 22  2  0  0  0  0
 19 23  1  1  0  0  0
 19 24  1  0  0  0  0
 22 21  1  0  0  0  0
 24 21  2  0  0  0  0
 24 20  1  0  0  0  0
 25 26  1  0  0  0  0
 26 27  1  0  0  0  0
 28 27  1  0  0  0  0
 29 28  1  0  0  0  0
 30 29  1  0  0  0  0
 31 32  1  0  0  0  0
 32 30  1  0  0  0  0
M  END
>  <MODEL>
3

>  <REMARK>
 VINA RESULT:      -6.0      3.458      7.996
  Name = 
  9 active torsions:
  status: ('A' for Active; 'I' for Inactive)
    1  A    between atoms: N_1  and  N_5
    2  A    between atoms: C_6  and  S_25
    3  A    between atoms: C_6  and  O_28
    4  A    between atoms: C_9  and  N_12
    5  A    between atoms: C_11  and  S_25
    6  A    between atoms: C_11  and  C_29
    7  A    between atoms: C_16  and  O_28
    8  A    between atoms: C_19  and  C_20
    9  A    between atoms: C_20  and  C_29
                            x       y       z     vdW  Elec       q    Type
                         _______ _______ _______ _____ _____    ______ ____

>  <TORSDO>
F 9

$$$$
=
 OpenBabel11052411553D

 32 34  0  0  1  0  0  0  0  0999 V2000
  162.5260  210.2080  152.0960 N   0  0  0  0  0  0  0  0  0  0  0  0
  162.0060  207.8490  151.7560 C   0  0  0  0  0  2  0  0  0  0  0  0
  161.9330  208.3980  148.9380 C   0  0  2  0  0  3  0  0  0  0  0  0
  162.2120  209.2520  151.2760 C   0  0  0  0  0  0  0  0  0  0  0  0
  162.0550  209.5200  149.8740 N   0  0  0  0  0  0  0  0  0  0  0  0
  160.9710  207.3170  149.4550 C   0  0  0  0  0  2  0  0  0  0  0  0
  160.8320  207.2440  150.9870 C   0  0  1  0  0  3  0  0  0  0  0  0
  163.2970  207.7850  148.6750 C   0  0  0  0  0  1  0  0  0  0  0  0
  161.8960  210.8960  149.4060 C   0  0  1  0  0  3  0  0  0  0  0  0
  161.4050  210.9270  147.9800 C   0  0  0  0  0  2  0  0  0  0  0  0
  160.9810  213.6580  149.0160 O   0  0  0  0  0  0  0  0  0  0  0  0
  161.6700  213.3620  147.8220 C   0  0  0  0  0  0  0  0  0  0  0  0
  162.1740  214.4530  147.0620 N   0  0  0  0  0  1  0  0  0  0  0  0
  159.5870  213.3950  151.0460 C   0  0  0  0  0  1  0  0  0  0  0  0
  160.5470  212.8240  150.0660 C   0  0  0  0  0  0  0  0  0  0  0  0
  161.8530  212.1600  147.3630 N   0  0  0  0  0  0  0  0  0  0  0  0
  160.9500  211.6030  150.2470 N   0  0  0  0  0  0  0  0  0  0  0  0
  159.5810  210.2520  155.2550 C   0  0  0  0  0  3  0  0  0  0  0  0
  160.2700  210.3020  154.0640 C   0  0  2  0  0  3  0  0  0  0  0  0
  162.6900  209.9870  153.4710 N   0  0  0  0  0  2  0  0  0  0  0  0
  161.6920  209.8500  155.6960 N   0  0  0  0  0  0  0  0  0  0  0  0
  160.4810  209.9760  156.2260 N   0  0  0  0  0  0  0  0  0  0  0  0
  159.7150  210.5570  152.7790 N   0  0  0  0  0  1  0  0  0  0  0  0
  161.5830  210.0470  154.3730 C   0  0  0  0  0  0  0  0  0  0  0  0
  160.4970  205.8310  151.4660 C   0  0  0  0  0  2  0  0  0  0  0  0
  161.4710  204.7710  150.9560 C   0  0  0  0  0  2  0  0  0  0  0  0
  160.9200  203.3640  151.1290 C   0  0  0  0  0  2  0  0  0  0  0  0
  160.7240  202.5490  149.5140 S   0  0  0  0  0  0  0  0  0  0  0  0
  161.5070  203.9200  148.6160 C   0  0  0  0  0  2  0  0  0  0  0  0
  161.6620  203.5770  147.2730 O   0  0  0  0  0  0  0  0  0  0  0  0
  162.6900  204.9040  145.5890 C   0  0  0  0  0  1  0  0  0  0  0  0
  161.5550  204.7870  146.5890 C   0  0  0  0  0  2  0  0  0  0  0  0
  1 20  1  0  0  0  0
  3  8  1  1  0  0  0
  3  6  1  0  0  0  0
  3  5  1  0  0  0  0
  4  2  1  0  0  0  0
  4  1  2  0  0  0  0
  5  4  1  0  0  0  0
  6  7  1  0  0  0  0
  7 25  1  6  0  0  0
  7  2  1  0  0  0  0
  9 10  1  6  0  0  0
  9  5  1  0  0  0  0
  9 17  1  0  0  0  0
 11 15  1  0  0  0  0
 12 11  1  0  0  0  0
 13 12  1  0  0  0  0
 15 17  2  0  0  0  0
 15 14  1  0  0  0  0
 16 12  2  0  0  0  0
 16 10  1  0  0  0  0
 18 22  2  0  0  0  0
 19 23  1  6  0  0  0
 19 24  1  0  0  0  0
 19 18  1  0  0  0  0
 20 24  1  0  0  0  0
 21 22  1  0  0  0  0
 24 21  2  0  0  0  0
 26 27  1  0  0  0  0
 26 25  1  0  0  0  0
 28 27  1  0  0  0  0
 29 28  1  0  0  0  0
 30 29  1  0  0  0  0
 31 32  1  0  0  0  0
 32 30  1  0  0  0  0
M  END
>  <MODEL>
4

>  <REMARK>
 VINA RESULT:      -5.7      1.776      2.662
  Name = 
  9 active torsions:
  status: ('A' for Active; 'I' for Inactive)
    1  A    between atoms: N_1  and  N_5
    2  A    between atoms: C_6  and  S_25
    3  A    between atoms: C_6  and  O_28
    4  A    between atoms: C_9  and  N_12
    5  A    between atoms: C_11  and  S_25
    6  A    between atoms: C_11  and  C_29
    7  A    between atoms: C_16  and  O_28
    8  A    between atoms: C_19  and  C_20
    9  A    between atoms: C_20  and  C_29
                            x       y       z     vdW  Elec       q    Type
                         _______ _______ _______ _____ _____    ______ ____

>  <TORSDO>
F 9

$$$$
=
 OpenBabel11052411553D

 32 34  0  0  1  0  0  0  0  0999 V2000
  161.1100  210.5630  151.9370 N   0  0  0  0  0  0  0  0  0  0  0  0
  161.4560  208.9100  150.1770 C   0  0  0  0  0  2  0  0  0  0  0  0
  161.8680  206.9670  152.2520 C   0  0  2  0  0  3  0  0  0  0  0  0
  161.4230  209.3470  151.6080 C   0  0  0  0  0  0  0  0  0  0  0  0
  161.7470  208.3820  152.6210 N   0  0  0  0  0  0  0  0  0  0  0  0
  162.6740  206.7750  150.9570 C   0  0  0  0  0  2  0  0  0  0  0  0
  162.6470  207.9700  149.9870 C   0  0  1  0  0  3  0  0  0  0  0  0
  160.4900  206.3490  152.0930 C   0  0  0  0  0  1  0  0  0  0  0  0
  162.0720  208.8240  153.9760 C   0  0  1  0  0  3  0  0  0  0  0  0
  161.7720  210.2920  154.1500 C   0  0  0  0  0  2  0  0  0  0  0  0
  162.1000  209.2280  156.8830 O   0  0  0  0  0  0  0  0  0  0  0  0
  162.7890  210.3520  156.3830 C   0  0  0  0  0  0  0  0  0  0  0  0
  163.6840  211.0230  157.2600 N   0  0  0  0  0  1  0  0  0  0  0  0
  160.4820  207.3630  157.0740 C   0  0  0  0  0  1  0  0  0  0  0  0
  161.3190  208.2540  156.2300 C   0  0  0  0  0  0  0  0  0  0  0  0
  162.6410  210.8240  155.1800 N   0  0  0  0  0  0  0  0  0  0  0  0
  161.3050  208.0670  154.9450 N   0  0  0  0  0  0  0  0  0  0  0  0
  158.0370  213.5970  152.0300 C   0  0  0  0  0  3  0  0  0  0  0  0
  158.9020  212.5570  152.2860 C   0  0  2  0  0  3  0  0  0  0  0  0
  160.7870  211.5340  150.9790 N   0  0  0  0  0  2  0  0  0  0  0  0
  159.3690  213.4030  150.2980 N   0  0  0  0  0  0  0  0  0  0  0  0
  158.3520  214.0860  150.8090 N   0  0  0  0  0  0  0  0  0  0  0  0
  158.9350  211.7580  153.4630 N   0  0  0  0  0  1  0  0  0  0  0  0
  159.7200  212.4620  151.1880 C   0  0  0  0  0  0  0  0  0  0  0  0
  162.8070  207.5320  148.5310 C   0  0  0  0  0  2  0  0  0  0  0  0
  161.7380  206.5400  148.0760 C   0  0  0  0  0  2  0  0  0  0  0  0
  162.0990  205.8860  146.7510 C   0  0  0  0  0  2  0  0  0  0  0  0
  161.6040  204.1350  146.7460 S   0  0  0  0  0  0  0  0  0  0  0  0
  161.1370  204.1590  148.5010 C   0  0  0  0  0  2  0  0  0  0  0  0
  161.1080  202.8560  149.0000 O   0  0  0  0  0  0  0  0  0  0  0  0
  161.3170  200.6250  148.2060 C   0  0  0  0  0  1  0  0  0  0  0  0
  160.9340  202.0540  147.8730 C   0  0  0  0  0  2  0  0  0  0  0  0
  2  4  1  0  0  0  0
  3  8  1  6  0  0  0
  3  5  1  0  0  0  0
  4  1  2  0  0  0  0
  4  5  1  0  0  0  0
  6  3  1  0  0  0  0
  7 25  1  6  0  0  0
  7  2  1  0  0  0  0
  7  6  1  0  0  0  0
  9  5  1  6  0  0  0
  9 10  1  0  0  0  0
  9 17  1  0  0  0  0
 10 16  1  0  0  0  0
 12 11  1  0  0  0  0
 12 13  1  0  0  0  0
 15 11  1  0  0  0  0
 15 14  1  0  0  0  0
 16 12  2  0  0  0  0
 17 15  2  0  0  0  0
 18 19  1  0  0  0  0
 19 23  1  1  0  0  0
 20 24  1  0  0  0  0
 20  1  1  0  0  0  0
 21 22  1  0  0  0  0
 21 24  2  0  0  0  0
 22 18  2  0  0  0  0
 24 19  1  0  0  0  0
 26 25  1  0  0  0  0
 27 26  1  0  0  0  0
 28 27  1  0  0  0  0
 28 29  1  0  0  0  0
 29 30  1  0  0  0  0
 32 31  1  0  0  0  0
 32 30  1  0  0  0  0
M  END
>  <MODEL>
5

>  <REMARK>
 VINA RESULT:      -5.3      2.299      5.389
  Name = 
  9 active torsions:
  status: ('A' for Active; 'I' for Inactive)
    1  A    between atoms: N_1  and  N_5
    2  A    between atoms: C_6  and  S_25
    3  A    between atoms: C_6  and  O_28
    4  A    between atoms: C_9  and  N_12
    5  A    between atoms: C_11  and  S_25
    6  A    between atoms: C_11  and  C_29
    7  A    between atoms: C_16  and  O_28
    8  A    between atoms: C_19  and  C_20
    9  A    between atoms: C_20  and  C_29
                            x       y       z     vdW  Elec       q    Type
                         _______ _______ _______ _____ _____    ______ ____

>  <TORSDO>
F 9

$$$$
=
 OpenBabel11052411553D

 32 34  0  0  1  0  0  0  0  0999 V2000
  160.5970  211.1920  151.5500 N   0  0  0  0  0  0  0  0  0  0  0  0
  159.8940  211.6610  153.8370 C   0  0  0  0  0  2  0  0  0  0  0  0
  160.8260  209.0340  154.5320 C   0  0  2  0  0  3  0  0  0  0  0  0
  160.4400  210.7690  152.7660 C   0  0  0  0  0  0  0  0  0  0  0  0
  160.7900  209.4210  153.1180 N   0  0  0  0  0  0  0  0  0  0  0  0
  159.6080  209.5610  155.3060 C   0  0  0  0  0  2  0  0  0  0  0  0
  158.9650  210.8340  154.7270 C   0  0  1  0  0  3  0  0  0  0  0  0
  162.1020  209.5430  155.1810 C   0  0  0  0  0  1  0  0  0  0  0  0
  160.9870  208.4200  152.0710 C   0  0  1  0  0  3  0  0  0  0  0  0
  162.2980  208.6370  151.3580 C   0  0  0  0  0  2  0  0  0  0  0  0
  161.4380  205.9150  150.6080 O   0  0  0  0  0  0  0  0  0  0  0  0
  161.8030  206.9130  149.6820 C   0  0  0  0  0  0  0  0  0  0  0  0
  161.7710  206.5760  148.3010 N   0  0  0  0  0  1  0  0  0  0  0  0
  161.1070  204.7060  152.7440 C   0  0  0  0  0  1  0  0  0  0  0  0
  161.1800  205.9850  151.9920 C   0  0  0  0  0  0  0  0  0  0  0  0
  162.1860  208.1110  150.0120 N   0  0  0  0  0  0  0  0  0  0  0  0
  160.9760  207.0890  152.6450 N   0  0  0  0  0  0  0  0  0  0  0  0
  161.5780  213.3210  147.9220 C   0  0  0  0  0  3  0  0  0  0  0  0
  161.4250  212.4070  148.9400 C   0  0  2  0  0  3  0  0  0  0  0  0
  160.2680  212.5000  151.1670 N   0  0  0  0  0  2  0  0  0  0  0  0
  160.4070  214.2860  149.5060 N   0  0  0  0  0  0  0  0  0  0  0  0
  160.9450  214.4530  148.3040 N   0  0  0  0  0  0  0  0  0  0  0  0
  161.9260  211.0750  148.9590 N   0  0  0  0  0  1  0  0  0  0  0  0
  160.6900  213.0380  149.9120 C   0  0  0  0  0  0  0  0  0  0  0  0
  158.2980  211.6840  155.8080 C   0  0  0  0  0  2  0  0  0  0  0  0
  157.9370  213.0920  155.3360 C   0  0  0  0  0  2  0  0  0  0  0  0
  157.1340  213.8510  156.3800 C   0  0  0  0  0  2  0  0  0  0  0  0
  155.3640  213.8430  155.9570 S   0  0  0  0  0  0  0  0  0  0  0  0
  155.6630  214.4440  154.2700 C   0  0  0  0  0  2  0  0  0  0  0  0
  154.5510  214.1800  153.4700 O   0  0  0  0  0  0  0  0  0  0  0  0
  156.4770  214.1250  152.0770 C   0  0  0  0  0  1  0  0  0  0  0  0
  154.9910  214.4180  152.1690 C   0  0  0  0  0  2  0  0  0  0  0  0
  1  4  2  0  0  0  0
  2  7  1  0  0  0  0
  3  8  1  1  0  0  0
  3  6  1  0  0  0  0
  4  5  1  0  0  0  0
  4  2  1  0  0  0  0
  5  3  1  0  0  0  0
  7  6  1  0  0  0  0
  7 25  1  1  0  0  0
  9 10  1  1  0  0  0
  9 17  1  0  0  0  0
  9  5  1  0  0  0  0
 11 15  1  0  0  0  0
 12 16  2  0  0  0  0
 12 11  1  0  0  0  0
 13 12  1  0  0  0  0
 15 17  2  0  0  0  0
 15 14  1  0  0  0  0
 16 10  1  0  0  0  0
 18 22  2  0  0  0  0
 18 19  1  0  0  0  0
 19 23  1  6  0  0  0
 19 24  1  0  0  0  0
 20  1  1  0  0  0  0
 21 24  2  0  0  0  0
 22 21  1  0  0  0  0
 24 20  1  0  0  0  0
 26 25  1  0  0  0  0
 26 27  1  0  0  0  0
 28 27  1  0  0  0  0
 29 28  1  0  0  0  0
 30 29  1  0  0  0  0
 31 32  1  0  0  0  0
 32 30  1  0  0  0  0
M  END
>  <MODEL>
6

>  <REMARK>
 VINA RESULT:      -5.0      4.350      8.913
  Name = 
  9 active torsions:
  status: ('A' for Active; 'I' for Inactive)
    1  A    between atoms: N_1  and  N_5
    2  A    between atoms: C_6  and  S_25
    3  A    between atoms: C_6  and  O_28
    4  A    between atoms: C_9  and  N_12
    5  A    between atoms: C_11  and  S_25
    6  A    between atoms: C_11  and  C_29
    7  A    between atoms: C_16  and  O_28
    8  A    between atoms: C_19  and  C_20
    9  A    between atoms: C_20  and  C_29
                            x       y       z     vdW  Elec       q    Type
                         _______ _______ _______ _____ _____    ______ ____

>  <TORSDO>
F 9

$$$$
=
 OpenBabel11052411553D

 32 34  0  0  1  0  0  0  0  0999 V2000
  161.4580  208.9630  150.5780 N   0  0  0  0  0  0  0  0  0  0  0  0
  161.6170  208.4170  152.9500 C   0  0  0  0  0  2  0  0  0  0  0  0
  162.0550  205.6890  152.1660 C   0  0  2  0  0  3  0  0  0  0  0  0
  161.5800  208.0560  151.4980 C   0  0  0  0  0  0  0  0  0  0  0  0
  161.6850  206.6690  151.1400 N   0  0  0  0  0  0  0  0  0  0  0  0
  161.2930  205.9150  153.4820 C   0  0  0  0  0  2  0  0  0  0  0  0
  160.8320  207.3630  153.7300 C   0  0  1  0  0  3  0  0  0  0  0  0
  163.5500  205.7430  152.4260 C   0  0  0  0  0  1  0  0  0  0  0  0
  161.3080  206.2290  149.7980 C   0  0  1  0  0  3  0  0  0  0  0  0
  162.3300  206.6690  148.7800 C   0  0  0  0  0  2  0  0  0  0  0  0
  160.7010  204.6170  147.4210 O   0  0  0  0  0  0  0  0  0  0  0  0
  160.9540  205.9010  146.8980 C   0  0  0  0  0  0  0  0  0  0  0  0
  160.4020  206.2160  145.6260 N   0  0  0  0  0  1  0  0  0  0  0  0
  160.8270  202.6030  148.8580 C   0  0  0  0  0  1  0  0  0  0  0  0
  160.9290  204.0770  148.7030 C   0  0  0  0  0  0  0  0  0  0  0  0
  161.6750  206.8040  147.4940 N   0  0  0  0  0  0  0  0  0  0  0  0
  161.1940  204.7850  149.7600 N   0  0  0  0  0  0  0  0  0  0  0  0
  161.9700  212.4050  148.0180 C   0  0  0  0  0  3  0  0  0  0  0  0
  161.8690  211.1470  148.5690 C   0  0  2  0  0  3  0  0  0  0  0  0
  161.3530  210.3270  150.8860 N   0  0  0  0  0  2  0  0  0  0  0  0
  161.4820  212.6500  150.1430 N   0  0  0  0  0  0  0  0  0  0  0  0
  161.7290  213.2940  149.0090 N   0  0  0  0  0  0  0  0  0  0  0  0
  162.0400  209.9110  147.8850 N   0  0  0  0  0  1  0  0  0  0  0  0
  161.5630  211.3340  149.8940 C   0  0  0  0  0  0  0  0  0  0  0  0
  160.7500  207.6920  155.2200 C   0  0  0  0  0  2  0  0  0  0  0  0
  159.3420  208.0690  155.6810 C   0  0  0  0  0  2  0  0  0  0  0  0
  159.2880  209.4820  156.2400 C   0  0  0  0  0  2  0  0  0  0  0  0
  159.3650  210.7060  154.8970 S   0  0  0  0  0  0  0  0  0  0  0  0
  160.4410  211.8230  155.8420 C   0  0  0  0  0  2  0  0  0  0  0  0
  161.1650  211.0950  156.7860 O   0  0  0  0  0  0  0  0  0  0  0  0
  163.3620  210.3080  157.2430 C   0  0  0  0  0  1  0  0  0  0  0  0
  162.4710  211.0910  156.2970 C   0  0  0  0  0  2  0  0  0  0  0  0
  1 20  1  0  0  0  0
  1  4  2  0  0  0  0
  2  7  1  0  0  0  0
  3  8  1  1  0  0  0
  3  6  1  0  0  0  0
  4  2  1  0  0  0  0
  5  4  1  0  0  0  0
  5  3  1  0  0  0  0
  6  7  1  0  0  0  0
  7 25  1  1  0  0  0
  9 10  1  6  0  0  0
  9  5  1  0  0  0  0
 11 15  1  0  0  0  0
 12 11  1  0  0  0  0
 12 16  2  0  0  0  0
 13 12  1  0  0  0  0
 15 14  1  0  0  0  0
 15 17  2  0  0  0  0
 16 10  1  0  0  0  0
 17  9  1  0  0  0  0
 18 19  1  0  0  0  0
 18 22  2  0  0  0  0
 19 23  1  6  0  0  0
 19 24  1  0  0  0  0
 22 21  1  0  0  0  0
 24 21  2  0  0  0  0
 24 20  1  0  0  0  0
 25 26  1  0  0  0  0
 26 27  1  0  0  0  0
 28 29  1  0  0  0  0
 28 27  1  0  0  0  0
 29 30  1  0  0  0  0
 32 30  1  0  0  0  0
 32 31  1  0  0  0  0
M  END
>  <MODEL>
7

>  <REMARK>
 VINA RESULT:      -4.9      3.343      7.966
  Name = 
  9 active torsions:
  status: ('A' for Active; 'I' for Inactive)
    1  A    between atoms: N_1  and  N_5
    2  A    between atoms: C_6  and  S_25
    3  A    between atoms: C_6  and  O_28
    4  A    between atoms: C_9  and  N_12
    5  A    between atoms: C_11  and  S_25
    6  A    between atoms: C_11  and  C_29
    7  A    between atoms: C_16  and  O_28
    8  A    between atoms: C_19  and  C_20
    9  A    between atoms: C_20  and  C_29
                            x       y       z     vdW  Elec       q    Type
                         _______ _______ _______ _____ _____    ______ ____

>  <TORSDO>
F 9

$$$$
=
 OpenBabel11052411553D

 32 34  0  0  1  0  0  0  0  0999 V2000
  160.1430  204.9920  150.7670 N   0  0  0  0  0  0  0  0  0  0  0  0
  161.0330  205.7830  148.6380 C   0  0  0  0  0  2  0  0  0  0  0  0
  162.3200  207.8940  150.1010 C   0  0  2  0  0  3  0  0  0  0  0  0
  160.8160  205.8900  150.1150 C   0  0  0  0  0  0  0  0  0  0  0  0
  161.3740  207.0210  150.8040 N   0  0  0  0  0  0  0  0  0  0  0  0
  161.8480  208.2290  148.6770 C   0  0  0  0  0  2  0  0  0  0  0  0
  160.9230  207.1820  148.0310 C   0  0  1  0  0  3  0  0  0  0  0  0
  163.6910  207.2420  150.0440 C   0  0  0  0  0  1  0  0  0  0  0  0
  160.9090  207.3620  152.1470 C   0  0  1  0  0  3  0  0  0  0  0  0
  161.7250  206.6510  153.1970 C   0  0  0  0  0  2  0  0  0  0  0  0
  160.2690  208.7740  154.6390 O   0  0  0  0  0  0  0  0  0  0  0  0
  160.2640  207.4150  155.0140 C   0  0  0  0  0  0  0  0  0  0  0  0
  159.5230  207.0530  156.1730 N   0  0  0  0  0  1  0  0  0  0  0  0
  160.8640  210.8890  153.4960 C   0  0  0  0  0  1  0  0  0  0  0  0
  160.7260  209.4100  153.4680 C   0  0  0  0  0  0  0  0  0  0  0  0
  160.9080  206.4800  154.3820 N   0  0  0  0  0  0  0  0  0  0  0  0
  161.0070  208.7920  152.3600 N   0  0  0  0  0  0  0  0  0  0  0  0
  161.5470  200.9090  150.6490 C   0  0  0  0  0  3  0  0  0  0  0  0
  161.3560  202.2550  150.8660 C   0  0  2  0  0  3  0  0  0  0  0  0
  159.5830  203.8740  150.1320 N   0  0  0  0  0  2  0  0  0  0  0  0
  159.7070  201.4930  149.6060 N   0  0  0  0  0  0  0  0  0  0  0  0
  160.5220  200.4810  149.8770 N   0  0  0  0  0  0  0  0  0  0  0  0
  162.1930  203.1120  151.6340 N   0  0  0  0  0  1  0  0  0  0  0  0
  160.2010  202.5880  150.2030 C   0  0  0  0  0  0  0  0  0  0  0  0
  161.0550  207.1600  146.5080 C   0  0  0  0  0  2  0  0  0  0  0  0
  160.2260  206.0630  145.8430 C   0  0  0  0  0  2  0  0  0  0  0  0
  160.9830  205.3850  144.7130 C   0  0  0  0  0  2  0  0  0  0  0  0
  162.3510  204.3810  145.3690 S   0  0  0  0  0  0  0  0  0  0  0  0
  161.2430  203.0510  145.9170 C   0  0  0  0  0  2  0  0  0  0  0  0
  160.3870  202.6900  144.8760 O   0  0  0  0  0  0  0  0  0  0  0  0
  160.9090  200.8480  146.2860 C   0  0  0  0  0  1  0  0  0  0  0  0
  160.0620  201.3600  145.1360 C   0  0  0  0  0  2  0  0  0  0  0  0
  2  4  1  0  0  0  0
  3  8  1  6  0  0  0
  3  5  1  0  0  0  0
  4  1  2  0  0  0  0
  4  5  1  0  0  0  0
  6  3  1  0  0  0  0
  7 25  1  6  0  0  0
  7  2  1  0  0  0  0
  7  6  1  0  0  0  0
  9  5  1  6  0  0  0
  9 17  1  0  0  0  0
  9 10  1  0  0  0  0
 10 16  1  0  0  0  0
 11 12  1  0  0  0  0
 12 13  1  0  0  0  0
 15 14  1  0  0  0  0
 15 11  1  0  0  0  0
 16 12  2  0  0  0  0
 17 15  2  0  0  0  0
 18 19  1  0  0  0  0
 19 23  1  1  0  0  0
 20 24  1  0  0  0  0
 20  1  1  0  0  0  0
 21 22  1  0  0  0  0
 21 24  2  0  0  0  0
 22 18  2  0  0  0  0
 24 19  1  0  0  0  0
 26 25  1  0  0  0  0
 27 28  1  0  0  0  0
 27 26  1  0  0  0  0
 28 29  1  0  0  0  0
 30 32  1  0  0  0  0
 30 29  1  0  0  0  0
 32 31  1  0  0  0  0
M  END
>  <MODEL>
8

>  <REMARK>
 VINA RESULT:      -4.8      2.981      5.407
  Name = 
  9 active torsions:
  status: ('A' for Active; 'I' for Inactive)
    1  A    between atoms: N_1  and  N_5
    2  A    between atoms: C_6  and  S_25
    3  A    between atoms: C_6  and  O_28
    4  A    between atoms: C_9  and  N_12
    5  A    between atoms: C_11  and  S_25
    6  A    between atoms: C_11  and  C_29
    7  A    between atoms: C_16  and  O_28
    8  A    between atoms: C_19  and  C_20
    9  A    between atoms: C_20  and  C_29
                            x       y       z     vdW  Elec       q    Type
                         _______ _______ _______ _____ _____    ______ ____

>  <TORSDO>
F 9

$$$$
=
 OpenBabel11052411553D

 32 34  0  0  1  0  0  0  0  0999 V2000
  160.1930  211.5340  152.8850 N   0  0  0  0  0  0  0  0  0  0  0  0
  161.6390  211.2850  150.9370 C   0  0  0  0  0  2  0  0  0  0  0  0
  160.1510  213.4140  149.7130 C   0  0  2  0  0  3  0  0  0  0  0  0
  160.4790  211.8840  151.6690 C   0  0  0  0  0  0  0  0  0  0  0  0
  159.6800  212.8640  150.9880 N   0  0  0  0  0  0  0  0  0  0  0  0
  160.6880  212.3210  148.7760 C   0  0  0  0  0  2  0  0  0  0  0  0
  161.2300  211.0640  149.4810 C   0  0  1  0  0  3  0  0  0  0  0  0
  161.2310  214.4530  149.9580 C   0  0  0  0  0  1  0  0  0  0  0  0
  158.3580  213.2160  151.5030 C   0  0  1  0  0  3  0  0  0  0  0  0
  158.4540  214.3240  152.5220 C   0  0  0  0  0  2  0  0  0  0  0  0
  155.6010  214.1870  151.7790 O   0  0  0  0  0  0  0  0  0  0  0  0
  156.0770  214.1490  153.1050 C   0  0  0  0  0  0  0  0  0  0  0  0
  155.1150  214.0580  154.1490 N   0  0  0  0  0  1  0  0  0  0  0  0
  155.5380  214.4530  149.3170 C   0  0  0  0  0  1  0  0  0  0  0  0
  156.2800  214.0780  150.5480 C   0  0  0  0  0  0  0  0  0  0  0  0
  157.3330  214.2140  153.4340 N   0  0  0  0  0  0  0  0  0  0  0  0
  157.4980  213.6450  150.4190 N   0  0  0  0  0  0  0  0  0  0  0  0
  161.1830  211.3560  157.0860 C   0  0  0  0  0  3  0  0  0  0  0  0
  160.7130  211.6750  155.8320 C   0  0  2  0  0  3  0  0  0  0  0  0
  160.9480  210.5810  153.5840 N   0  0  0  0  0  2  0  0  0  0  0  0
  161.8950  209.8120  155.7000 N   0  0  0  0  0  0  0  0  0  0  0  0
  161.9000  210.2150  156.9640 N   0  0  0  0  0  0  0  0  0  0  0  0
  159.9050  212.7970  155.4960 N   0  0  0  0  0  1  0  0  0  0  0  0
  161.1740  210.6940  154.9900 C   0  0  0  0  0  0  0  0  0  0  0  0
  162.3320  210.3810  148.6710 C   0  0  0  0  0  2  0  0  0  0  0  0
  162.1480  208.8680  148.5530 C   0  0  0  0  0  2  0  0  0  0  0  0
  161.5770  208.2650  149.8260 C   0  0  0  0  0  2  0  0  0  0  0  0
  161.5500  206.4490  149.7190 S   0  0  0  0  0  0  0  0  0  0  0  0
  161.2500  206.4600  147.9280 C   0  0  0  0  0  2  0  0  0  0  0  0
  162.1480  205.6020  147.2930 O   0  0  0  0  0  0  0  0  0  0  0  0
  160.4840  206.1710  145.6920 C   0  0  0  0  0  1  0  0  0  0  0  0
  161.9420  205.8250  145.9320 C   0  0  0  0  0  2  0  0  0  0  0  0
  1 20  1  0  0  0  0
  2  4  1  0  0  0  0
  3  8  1  1  0  0  0
  3  5  1  0  0  0  0
  4  1  2  0  0  0  0
  5  4  1  0  0  0  0
  6  7  1  0  0  0  0
  6  3  1  0  0  0  0
  7 25  1  6  0  0  0
  7  2  1  0  0  0  0
  9  5  1  6  0  0  0
  9 10  1  0  0  0  0
 10 16  1  0  0  0  0
 11 12  1  0  0  0  0
 12 16  2  0  0  0  0
 12 13  1  0  0  0  0
 14 15  1  0  0  0  0
 15 11  1  0  0  0  0
 17 15  2  0  0  0  0
 17  9  1  0  0  0  0
 19 23  1  1  0  0  0
 19 18  1  0  0  0  0
 20 24  1  0  0  0  0
 21 22  1  0  0  0  0
 22 18  2  0  0  0  0
 24 21  2  0  0  0  0
 24 19  1  0  0  0  0
 26 25  1  0  0  0  0
 26 27  1  0  0  0  0
 28 27  1  0  0  0  0
 29 28  1  0  0  0  0
 30 29  1  0  0  0  0
 31 32  1  0  0  0  0
 32 30  1  0  0  0  0
M  END
>  <MODEL>
9

>  <REMARK>
 VINA RESULT:      -4.8      2.912      4.881
  Name = 
  9 active torsions:
  status: ('A' for Active; 'I' for Inactive)
    1  A    between atoms: N_1  and  N_5
    2  A    between atoms: C_6  and  S_25
    3  A    between atoms: C_6  and  O_28
    4  A    between atoms: C_9  and  N_12
    5  A    between atoms: C_11  and  S_25
    6  A    between atoms: C_11  and  C_29
    7  A    between atoms: C_16  and  O_28
    8  A    between atoms: C_19  and  C_20
    9  A    between atoms: C_20  and  C_29
                            x       y       z     vdW  Elec       q    Type
                         _______ _______ _______ _____ _____    ______ ____

>  <TORSDO>
F 9

$$$$
