=
 OpenBabel11052410593D

 37 39  0  0  1  0  0  0  0  0999 V2000
  162.1270  208.0350  149.4850 C   0  0  0  0  0  0  0  0  0  0  0  0
  162.0510  209.1030  148.6460 N   0  0  0  0  0  0  0  0  0  0  0  0
  162.1380  208.2420  150.8890 C   0  0  0  0  0  0  0  0  0  0  0  0
  161.9920  210.3870  149.0930 C   0  0  0  0  0  0  0  0  0  0  0  0
  161.9950  210.6300  150.4690 C   0  0  0  0  0  3  0  0  0  0  0  0
  162.0590  209.5620  151.3630 C   0  0  0  0  0  0  0  0  0  0  0  0
  162.9760  213.3400  146.9280 C   0  0  0  0  0  3  0  0  0  0  0  0
  161.9210  211.5040  148.1260 C   0  0  0  0  0  0  0  0  0  0  0  0
  159.4650  213.1200  145.9360 F   0  0  0  0  0  0  0  0  0  0  0  0
  163.0530  212.2870  147.8440 C   0  0  0  0  0  3  0  0  0  0  0  0
  160.7130  211.7950  147.4740 C   0  0  0  0  0  3  0  0  0  0  0  0
  161.7680  213.6200  146.2850 C   0  0  0  0  0  3  0  0  0  0  0  0
  160.6370  212.8490  146.5580 C   0  0  0  0  0  0  0  0  0  0  0  0
  161.2030  206.8780  152.7810 C   0  0  0  0  0  1  0  0  0  0  0  0
  162.2150  207.2080  151.8400 O   0  0  0  0  0  0  0  0  0  0  0  0
  162.1230  206.6780  148.8670 C   0  0  0  0  0  2  0  0  0  0  0  0
  160.9810  205.9200  149.3590 N   0  0  0  0  0  2  0  0  0  0  0  0
  160.5930  203.9510  151.1280 S   0  0  0  0  0  0  0  0  0  0  0  0
  161.0290  204.5200  149.6470 C   0  0  0  0  0  0  0  0  0  0  0  0
  161.4260  203.6230  148.6050 N   0  0  0  0  0  2  0  0  0  0  0  0
  160.7840  202.3410  148.3440 C   0  0  2  0  0  3  0  0  0  0  0  0
  161.4210  201.3430  149.0800 O   0  0  0  0  0  1  0  0  0  0  0  0
  160.8760  202.0070  146.8640 C   0  0  0  0  0  2  0  0  0  0  0  0
  161.3870  203.1710  146.0830 C   0  0  0  0  0  3  0  0  0  0  0  0
  160.7240  203.6270  145.0680 N   0  0  0  0  0  0  0  0  0  0  0  0
  160.3490  206.4470  145.7330 O   0  0  0  0  0  1  0  0  0  0  0  0
  160.9580  206.0260  144.5560 C   0  0  0  0  0  3  0  0  0  0  0  0
  161.1310  204.7360  144.2510 C   0  0  0  0  0  3  0  0  0  0  0  0
  162.0860  209.8550  152.8310 C   0  0  0  0  0  2  0  0  0  0  0  0
  158.0530  212.9800  151.7460 Cl  0  0  0  0  0  0  0  0  0  0  0  0
  160.2520  210.1080  154.5170 C   0  0  0  0  0  3  0  0  0  0  0  0
  156.8060  212.1890  154.6350 Cl  0  0  0  0  0  0  0  0  0  0  0  0
  158.8800  211.8790  152.8350 C   0  0  0  0  0  0  0  0  0  0  0  0
  158.3390  211.5360  154.0860 C   0  0  0  0  0  0  0  0  0  0  0  0
  160.1040  211.3340  152.4340 C   0  0  0  0  0  3  0  0  0  0  0  0
  160.7930  210.4530  153.2740 C   0  0  0  0  0  0  0  0  0  0  0  0
  159.0290  210.6500  154.9200 C   0  0  0  0  0  3  0  0  0  0  0  0
  1  3  1  0  0  0  0
  2  4  1  0  0  0  0
  2  1  2  0  0  0  0
  3  6  2  0  0  0  0
  3 15  1  0  0  0  0
  4  5  2  0  0  0  0
  5  6  1  0  0  0  0
  6 29  1  0  0  0  0
  7 10  1  0  0  0  0
  8  4  1  0  0  0  0
  9 13  1  0  0  0  0
 10  8  2  0  0  0  0
 11  8  1  0  0  0  0
 12 13  1  0  0  0  0
 12  7  2  0  0  0  0
 13 11  2  0  0  0  0
 15 14  1  0  0  0  0
 16 17  1  0  0  0  0
 16  1  1  0  0  0  0
 17 19  1  0  0  0  0
 19 18  2  0  0  0  0
 20 19  1  0  0  0  0
 21 20  1  0  0  0  0
 21 22  1  1  0  0  0
 23 21  1  0  0  0  0
 24 23  1  0  0  0  0
 25 24  2  0  0  0  0
 27 26  1  0  0  0  0
 28 27  2  0  0  0  0
 28 25  1  0  0  0  0
 29 36  1  0  0  0  0
 30 33  1  0  0  0  0
 31 37  1  0  0  0  0
 33 34  1  0  0  0  0
 34 32  1  0  0  0  0
 34 37  2  0  0  0  0
 35 33  2  0  0  0  0
 35 36  1  0  0  0  0
 36 31  2  0  0  0  0
M  END
>  <MODEL>
1

>  <REMARK>
 VINA RESULT:      -7.5      0.000      0.000
  Name = 
  12 active torsions:
  status: ('A' for Active; 'I' for Inactive)
    1  A    between atoms: C_4  and  N_36
    2  A    between atoms: C_8  and  C_12
    3  A    between atoms: C_12  and  N_25
    4  A    between atoms: C_13  and  C_24
    5  A    between atoms: C_16  and  C_33
    6  A    between atoms: C_17  and  N_27
    7  A    between atoms: C_17  and  C_33
    8  A    between atoms: C_18  and  O_31
    9  A    between atoms: C_22  and  C_30
   10  A    between atoms: N_25  and  C_26
   11  A    between atoms: C_26  and  N_27
   12  A    between atoms: C_30  and  C_34
                            x       y       z     vdW  Elec       q    Type
                         _______ _______ _______ _____ _____    ______ ____

>  <TORSDO>
F 12

$$$$
=
 OpenBabel11052410593D

 37 39  0  0  1  0  0  0  0  0999 V2000
  162.0000  208.2540  149.5170 C   0  0  0  0  0  0  0  0  0  0  0  0
  161.9340  209.2990  148.6480 N   0  0  0  0  0  0  0  0  0  0  0  0
  162.1020  208.5010  150.9100 C   0  0  0  0  0  0  0  0  0  0  0  0
  161.9710  210.5970  149.0550 C   0  0  0  0  0  0  0  0  0  0  0  0
  162.0660  210.8810  150.4200 C   0  0  0  0  0  3  0  0  0  0  0  0
  162.1230  209.8380  151.3440 C   0  0  0  0  0  0  0  0  0  0  0  0
  162.9150  213.5960  146.9360 C   0  0  0  0  0  3  0  0  0  0  0  0
  161.9060  211.6860  148.0570 C   0  0  0  0  0  0  0  0  0  0  0  0
  159.5730  213.0270  145.5670 F   0  0  0  0  0  0  0  0  0  0  0  0
  162.9860  212.5690  147.8820 C   0  0  0  0  0  3  0  0  0  0  0  0
  160.7580  211.8510  147.2680 C   0  0  0  0  0  3  0  0  0  0  0  0
  161.7660  213.7500  146.1560 C   0  0  0  0  0  3  0  0  0  0  0  0
  160.6870  212.8780  146.3220 C   0  0  0  0  0  0  0  0  0  0  0  0
  161.0700  206.9360  152.5830 C   0  0  0  0  0  1  0  0  0  0  0  0
  162.1770  207.4940  151.8890 O   0  0  0  0  0  0  0  0  0  0  0  0
  161.8860  206.8810  148.9450 C   0  0  0  0  0  2  0  0  0  0  0  0
  161.6850  206.9670  147.5050 N   0  0  0  0  0  2  0  0  0  0  0  0
  160.3670  206.3130  145.2710 S   0  0  0  0  0  0  0  0  0  0  0  0
  161.0140  205.9600  146.7420 C   0  0  0  0  0  0  0  0  0  0  0  0
  160.9550  204.6310  147.2680 N   0  0  0  0  0  2  0  0  0  0  0  0
  161.8440  203.5510  146.8590 C   0  0  2  0  0  3  0  0  0  0  0  0
  162.3820  203.8410  145.6050 O   0  0  0  0  0  1  0  0  0  0  0  0
  161.0720  202.2440  146.7830 C   0  0  0  0  0  2  0  0  0  0  0  0
  160.6840  201.7720  148.1440 C   0  0  0  0  0  3  0  0  0  0  0  0
  161.1360  202.3670  149.2020 N   0  0  0  0  0  0  0  0  0  0  0  0
  161.8950  203.8630  151.5950 O   0  0  0  0  0  1  0  0  0  0  0  0
  161.1770  202.6730  151.6470 C   0  0  0  0  0  3  0  0  0  0  0  0
  160.8280  201.9880  150.5530 C   0  0  0  0  0  3  0  0  0  0  0  0
  162.2500  210.1720  152.7970 C   0  0  0  0  0  2  0  0  0  0  0  0
  157.9930  213.1430  152.2870 Cl  0  0  0  0  0  0  0  0  0  0  0  0
  160.4620  210.0500  154.5450 C   0  0  0  0  0  3  0  0  0  0  0  0
  156.8960  211.8540  155.0550 Cl  0  0  0  0  0  0  0  0  0  0  0  0
  158.9250  211.9530  153.1790 C   0  0  0  0  0  0  0  0  0  0  0  0
  158.4490  211.3930  154.3780 C   0  0  0  0  0  0  0  0  0  0  0  0
  160.1670  211.5560  152.6730 C   0  0  0  0  0  3  0  0  0  0  0  0
  160.9380  210.6090  153.3550 C   0  0  0  0  0  0  0  0  0  0  0  0
  159.2210  210.4430  155.0540 C   0  0  0  0  0  3  0  0  0  0  0  0
  1  3  1  0  0  0  0
  2  4  1  0  0  0  0
  2  1  2  0  0  0  0
  3  6  2  0  0  0  0
  3 15  1  0  0  0  0
  4  5  2  0  0  0  0
  5  6  1  0  0  0  0
  6 29  1  0  0  0  0
  7 10  1  0  0  0  0
  8  4  1  0  0  0  0
  9 13  1  0  0  0  0
 10  8  2  0  0  0  0
 11  8  1  0  0  0  0
 12 13  1  0  0  0  0
 12  7  2  0  0  0  0
 13 11  2  0  0  0  0
 15 14  1  0  0  0  0
 16  1  1  0  0  0  0
 17 16  1  0  0  0  0
 18 19  2  0  0  0  0
 19 20  1  0  0  0  0
 19 17  1  0  0  0  0
 21 22  1  6  0  0  0
 21 20  1  0  0  0  0
 23 21  1  0  0  0  0
 23 24  1  0  0  0  0
 24 25  2  0  0  0  0
 25 28  1  0  0  0  0
 26 27  1  0  0  0  0
 28 27  2  0  0  0  0
 29 36  1  0  0  0  0
 30 33  1  0  0  0  0
 31 37  1  0  0  0  0
 33 34  1  0  0  0  0
 34 37  2  0  0  0  0
 34 32  1  0  0  0  0
 35 33  2  0  0  0  0
 35 36  1  0  0  0  0
 36 31  2  0  0  0  0
M  END
>  <MODEL>
2

>  <REMARK>
 VINA RESULT:      -7.4      1.643      2.666
  Name = 
  12 active torsions:
  status: ('A' for Active; 'I' for Inactive)
    1  A    between atoms: C_4  and  N_36
    2  A    between atoms: C_8  and  C_12
    3  A    between atoms: C_12  and  N_25
    4  A    between atoms: C_13  and  C_24
    5  A    between atoms: C_16  and  C_33
    6  A    between atoms: C_17  and  N_27
    7  A    between atoms: C_17  and  C_33
    8  A    between atoms: C_18  and  O_31
    9  A    between atoms: C_22  and  C_30
   10  A    between atoms: N_25  and  C_26
   11  A    between atoms: C_26  and  N_27
   12  A    between atoms: C_30  and  C_34
                            x       y       z     vdW  Elec       q    Type
                         _______ _______ _______ _____ _____    ______ ____

>  <TORSDO>
F 12

$$$$
=
 OpenBabel11052410593D

 37 39  0  0  1  0  0  0  0  0999 V2000
  161.8040  209.7000  149.6260 C   0  0  0  0  0  0  0  0  0  0  0  0
  161.5740  209.0140  150.7780 N   0  0  0  0  0  0  0  0  0  0  0  0
  161.5940  211.1020  149.5870 C   0  0  0  0  0  0  0  0  0  0  0  0
  161.1350  209.6150  151.9170 C   0  0  0  0  0  0  0  0  0  0  0  0
  160.9220  210.9960  151.9190 C   0  0  0  0  0  3  0  0  0  0  0  0
  161.1590  211.7380  150.7620 C   0  0  0  0  0  0  0  0  0  0  0  0
  160.7980  206.6560  154.2630 C   0  0  0  0  0  3  0  0  0  0  0  0
  160.8940  208.8090  153.1320 C   0  0  0  0  0  0  0  0  0  0  0  0
  159.9440  209.2990  156.6400 F   0  0  0  0  0  0  0  0  0  0  0  0
  161.0280  207.4100  153.1090 C   0  0  0  0  0  3  0  0  0  0  0  0
  160.5270  209.4360  154.3330 C   0  0  0  0  0  3  0  0  0  0  0  0
  160.4340  207.2930  155.4520 C   0  0  0  0  0  3  0  0  0  0  0  0
  160.2980  208.6820  155.4870 C   0  0  0  0  0  0  0  0  0  0  0  0
  160.8810  212.0680  147.3800 C   0  0  0  0  0  1  0  0  0  0  0  0
  161.8010  211.9020  148.4480 O   0  0  0  0  0  0  0  0  0  0  0  0
  162.3420  208.9300  148.4680 C   0  0  0  0  0  2  0  0  0  0  0  0
  162.5280  207.5370  148.8500 N   0  0  0  0  0  2  0  0  0  0  0  0
  160.5260  205.7940  149.1810 S   0  0  0  0  0  0  0  0  0  0  0  0
  161.7540  206.4620  148.3120 C   0  0  0  0  0  0  0  0  0  0  0  0
  162.0450  206.0080  146.9860 N   0  0  0  0  0  2  0  0  0  0  0  0
  162.5050  204.6630  146.6670 C   0  0  2  0  0  3  0  0  0  0  0  0
  163.6380  204.7380  145.8570 O   0  0  0  0  0  1  0  0  0  0  0  0
  161.4140  203.9020  145.9330 C   0  0  0  0  0  2  0  0  0  0  0  0
  161.1380  202.5920  146.5920 C   0  0  0  0  0  3  0  0  0  0  0  0
  161.2000  202.4760  147.8810 N   0  0  0  0  0  0  0  0  0  0  0  0
  160.9930  202.2600  150.7870 O   0  0  0  0  0  1  0  0  0  0  0  0
  160.8650  201.1650  149.9400 C   0  0  0  0  0  3  0  0  0  0  0  0
  160.9580  201.2620  148.6100 C   0  0  0  0  0  3  0  0  0  0  0  0
  160.8980  213.2120  150.7880 C   0  0  0  0  0  2  0  0  0  0  0  0
  156.0200  213.9120  149.0780 Cl  0  0  0  0  0  0  0  0  0  0  0  0
  159.0730  213.6320  152.4490 C   0  0  0  0  0  3  0  0  0  0  0  0
  155.1030  214.2570  152.1710 Cl  0  0  0  0  0  0  0  0  0  0  0  0
  157.1750  213.8130  150.3960 C   0  0  0  0  0  0  0  0  0  0  0  0
  156.7780  213.9610  151.7360 C   0  0  0  0  0  0  0  0  0  0  0  0
  158.5190  213.5750  150.0930 C   0  0  0  0  0  3  0  0  0  0  0  0
  159.4700  213.4890  151.1160 C   0  0  0  0  0  0  0  0  0  0  0  0
  157.7300  213.8690  152.7560 C   0  0  0  0  0  3  0  0  0  0  0  0
  1  2  1  0  0  0  0
  2  4  2  0  0  0  0
  3  1  2  0  0  0  0
  3  6  1  0  0  0  0
  4  5  1  0  0  0  0
  4  8  1  0  0  0  0
  6 29  1  0  0  0  0
  6  5  2  0  0  0  0
  7 12  1  0  0  0  0
  8 11  2  0  0  0  0
 10  8  1  0  0  0  0
 10  7  2  0  0  0  0
 11 13  1  0  0  0  0
 12 13  2  0  0  0  0
 13  9  1  0  0  0  0
 14 15  1  0  0  0  0
 15  3  1  0  0  0  0
 16 17  1  0  0  0  0
 16  1  1  0  0  0  0
 19 17  1  0  0  0  0
 19 18  2  0  0  0  0
 20 19  1  0  0  0  0
 21 22  1  6  0  0  0
 21 20  1  0  0  0  0
 23 24  1  0  0  0  0
 23 21  1  0  0  0  0
 24 25  2  0  0  0  0
 25 28  1  0  0  0  0
 27 26  1  0  0  0  0
 28 27  2  0  0  0  0
 29 36  1  0  0  0  0
 30 33  1  0  0  0  0
 31 37  1  0  0  0  0
 33 34  1  0  0  0  0
 34 32  1  0  0  0  0
 34 37  2  0  0  0  0
 35 33  2  0  0  0  0
 35 36  1  0  0  0  0
 36 31  2  0  0  0  0
M  END
>  <MODEL>
3

>  <REMARK>
 VINA RESULT:      -7.2      2.925      5.374
  Name = 
  12 active torsions:
  status: ('A' for Active; 'I' for Inactive)
    1  A    between atoms: C_4  and  N_36
    2  A    between atoms: C_8  and  C_12
    3  A    between atoms: C_12  and  N_25
    4  A    between atoms: C_13  and  C_24
    5  A    between atoms: C_16  and  C_33
    6  A    between atoms: C_17  and  N_27
    7  A    between atoms: C_17  and  C_33
    8  A    between atoms: C_18  and  O_31
    9  A    between atoms: C_22  and  C_30
   10  A    between atoms: N_25  and  C_26
   11  A    between atoms: C_26  and  N_27
   12  A    between atoms: C_30  and  C_34
                            x       y       z     vdW  Elec       q    Type
                         _______ _______ _______ _____ _____    ______ ____

>  <TORSDO>
F 12

$$$$
=
 OpenBabel11052410593D

 37 39  0  0  1  0  0  0  0  0999 V2000
  161.2890  208.8560  150.8810 C   0  0  0  0  0  0  0  0  0  0  0  0
  161.3400  207.8990  149.9160 N   0  0  0  0  0  0  0  0  0  0  0  0
  161.6000  210.2020  150.5550 C   0  0  0  0  0  0  0  0  0  0  0  0
  161.6890  208.1680  148.6290 C   0  0  0  0  0  0  0  0  0  0  0  0
  161.9970  209.4820  148.2680 C   0  0  0  0  0  3  0  0  0  0  0  0
  161.9440  210.4960  149.2250 C   0  0  0  0  0  0  0  0  0  0  0  0
  162.8610  205.1670  146.6300 C   0  0  0  0  0  3  0  0  0  0  0  0
  161.7350  207.0780  147.6320 C   0  0  0  0  0  0  0  0  0  0  0  0
  159.6900  205.7320  144.9020 F   0  0  0  0  0  0  0  0  0  0  0  0
  162.8270  206.1950  147.5770 C   0  0  0  0  0  3  0  0  0  0  0  0
  160.6790  206.9110  146.7210 C   0  0  0  0  0  3  0  0  0  0  0  0
  161.8040  205.0110  145.7300 C   0  0  0  0  0  3  0  0  0  0  0  0
  160.7140  205.8830  145.7750 C   0  0  0  0  0  0  0  0  0  0  0  0
  160.4120  211.8140  152.0730 C   0  0  0  0  0  1  0  0  0  0  0  0
  161.5780  211.2650  151.4760 O   0  0  0  0  0  0  0  0  0  0  0  0
  160.8310  208.4380  152.2370 C   0  0  0  0  0  2  0  0  0  0  0  0
  161.7350  207.4270  152.7680 N   0  0  0  0  0  2  0  0  0  0  0  0
  160.5160  206.6240  155.0090 S   0  0  0  0  0  0  0  0  0  0  0  0
  161.3070  206.3420  153.5950 C   0  0  0  0  0  0  0  0  0  0  0  0
  161.5460  205.0050  153.1430 N   0  0  0  0  0  2  0  0  0  0  0  0
  160.6400  204.2620  152.2770 C   0  0  2  0  0  3  0  0  0  0  0  0
  160.9200  202.8990  152.3700 O   0  0  0  0  0  1  0  0  0  0  0  0
  160.8140  204.7120  150.8360 C   0  0  0  0  0  2  0  0  0  0  0  0
  160.4720  203.6120  149.8870 C   0  0  0  0  0  3  0  0  0  0  0  0
  161.2830  203.2930  148.9280 N   0  0  0  0  0  0  0  0  0  0  0  0
  161.2520  200.4270  149.4950 O   0  0  0  0  0  1  0  0  0  0  0  0
  161.0330  200.9440  148.2240 C   0  0  0  0  0  3  0  0  0  0  0  0
  161.0450  202.2560  147.9620 C   0  0  0  0  0  3  0  0  0  0  0  0
  162.3030  211.8900  148.8140 C   0  0  0  0  0  2  0  0  0  0  0  0
  160.1760  212.8960  144.1590 Cl  0  0  0  0  0  0  0  0  0  0  0  0
  160.1380  213.1430  148.7080 C   0  0  0  0  0  3  0  0  0  0  0  0
  157.7370  214.3650  145.7140 Cl  0  0  0  0  0  0  0  0  0  0  0  0
  160.1380  213.0090  145.9100 C   0  0  0  0  0  0  0  0  0  0  0  0
  159.0800  213.6440  146.5840 C   0  0  0  0  0  0  0  0  0  0  0  0
  161.1880  212.4450  146.6420 C   0  0  0  0  0  3  0  0  0  0  0  0
  161.1930  212.5150  148.0390 C   0  0  0  0  0  0  0  0  0  0  0  0
  159.0860  213.7070  147.9820 C   0  0  0  0  0  3  0  0  0  0  0  0
  1 16  1  0  0  0  0
  2  1  2  0  0  0  0
  3  1  1  0  0  0  0
  3 15  1  0  0  0  0
  4  2  1  0  0  0  0
  5  4  2  0  0  0  0
  5  6  1  0  0  0  0
  6  3  2  0  0  0  0
  7 10  1  0  0  0  0
  8  4  1  0  0  0  0
  9 13  1  0  0  0  0
 10  8  2  0  0  0  0
 11  8  1  0  0  0  0
 12 13  1  0  0  0  0
 12  7  2  0  0  0  0
 13 11  2  0  0  0  0
 15 14  1  0  0  0  0
 16 17  1  0  0  0  0
 17 19  1  0  0  0  0
 19 18  2  0  0  0  0
 20 19  1  0  0  0  0
 21 22  1  6  0  0  0
 21 20  1  0  0  0  0
 23 21  1  0  0  0  0
 24 23  1  0  0  0  0
 25 24  2  0  0  0  0
 27 26  1  0  0  0  0
 28 27  2  0  0  0  0
 28 25  1  0  0  0  0
 29  6  1  0  0  0  0
 30 33  1  0  0  0  0
 32 34  1  0  0  0  0
 33 34  2  0  0  0  0
 33 35  1  0  0  0  0
 34 37  1  0  0  0  0
 35 36  2  0  0  0  0
 36 31  1  0  0  0  0
 36 29  1  0  0  0  0
 37 31  2  0  0  0  0
M  END
>  <MODEL>
4

>  <REMARK>
 VINA RESULT:      -7.2      3.120      5.544
  Name = 
  12 active torsions:
  status: ('A' for Active; 'I' for Inactive)
    1  A    between atoms: C_4  and  N_36
    2  A    between atoms: C_8  and  C_12
    3  A    between atoms: C_12  and  N_25
    4  A    between atoms: C_13  and  C_24
    5  A    between atoms: C_16  and  C_33
    6  A    between atoms: C_17  and  N_27
    7  A    between atoms: C_17  and  C_33
    8  A    between atoms: C_18  and  O_31
    9  A    between atoms: C_22  and  C_30
   10  A    between atoms: N_25  and  C_26
   11  A    between atoms: C_26  and  N_27
   12  A    between atoms: C_30  and  C_34
                            x       y       z     vdW  Elec       q    Type
                         _______ _______ _______ _____ _____    ______ ____

>  <TORSDO>
F 12

$$$$
=
 OpenBabel11052410593D

 37 39  0  0  1  0  0  0  0  0999 V2000
  161.0500  208.6390  151.7030 C   0  0  0  0  0  0  0  0  0  0  0  0
  161.1220  207.5790  150.8530 N   0  0  0  0  0  0  0  0  0  0  0  0
  161.4750  209.9210  151.2680 C   0  0  0  0  0  0  0  0  0  0  0  0
  161.5980  207.6860  149.5820 C   0  0  0  0  0  0  0  0  0  0  0  0
  162.0210  208.9330  149.1160 C   0  0  0  0  0  3  0  0  0  0  0  0
  161.9520  210.0470  149.9520 C   0  0  0  0  0  0  0  0  0  0  0  0
  162.2220  205.4400  146.5920 C   0  0  0  0  0  3  0  0  0  0  0  0
  161.6580  206.4910  148.7130 C   0  0  0  0  0  0  0  0  0  0  0  0
  160.8140  202.9260  148.8420 F   0  0  0  0  0  0  0  0  0  0  0  0
  162.1690  206.5750  147.4060 C   0  0  0  0  0  3  0  0  0  0  0  0
  161.2030  205.2510  149.1870 C   0  0  0  0  0  3  0  0  0  0  0  0
  161.7660  204.2110  147.0760 C   0  0  0  0  0  3  0  0  0  0  0  0
  161.2560  204.1170  148.3720 C   0  0  0  0  0  0  0  0  0  0  0  0
  160.2730  211.6790  152.6010 C   0  0  0  0  0  1  0  0  0  0  0  0
  161.4440  211.0780  152.0670 O   0  0  0  0  0  0  0  0  0  0  0  0
  160.4510  208.3980  153.0470 C   0  0  0  0  0  2  0  0  0  0  0  0
  161.4390  208.6740  154.0800 N   0  0  0  0  0  2  0  0  0  0  0  0
  160.7180  207.6450  156.4410 S   0  0  0  0  0  0  0  0  0  0  0  0
  161.1040  208.9010  155.4510 C   0  0  0  0  0  0  0  0  0  0  0  0
  161.1510  210.2410  155.9530 N   0  0  0  0  0  2  0  0  0  0  0  0
  160.0380  210.9010  156.6220 C   0  0  2  0  0  3  0  0  0  0  0  0
  158.8580  210.6500  155.9220 O   0  0  0  0  0  1  0  0  0  0  0  0
  160.2790  212.4010  156.6740 C   0  0  0  0  0  2  0  0  0  0  0  0
  159.0490  213.1550  156.2930 C   0  0  0  0  0  3  0  0  0  0  0  0
  158.9480  213.7040  155.1240 N   0  0  0  0  0  0  0  0  0  0  0  0
  156.4140  212.5550  154.2310 O   0  0  0  0  0  1  0  0  0  0  0  0
  156.6530  213.9240  154.2540 C   0  0  0  0  0  3  0  0  0  0  0  0
  157.8110  214.4520  154.6640 C   0  0  0  0  0  3  0  0  0  0  0  0
  162.4350  211.3650  149.4330 C   0  0  0  0  0  2  0  0  0  0  0  0
  159.7460  212.1070  145.0250 Cl  0  0  0  0  0  0  0  0  0  0  0  0
  160.5510  213.0140  149.4180 C   0  0  0  0  0  3  0  0  0  0  0  0
  157.9260  214.2620  146.6290 Cl  0  0  0  0  0  0  0  0  0  0  0  0
  160.0360  212.4780  146.7160 C   0  0  0  0  0  0  0  0  0  0  0  0
  159.2470  213.4110  147.4120 C   0  0  0  0  0  0  0  0  0  0  0  0
  161.0770  211.8200  147.3780 C   0  0  0  0  0  3  0  0  0  0  0  0
  161.3390  212.0890  148.7260 C   0  0  0  0  0  0  0  0  0  0  0  0
  159.5090  213.6730  148.7610 C   0  0  0  0  0  3  0  0  0  0  0  0
  1 16  1  0  0  0  0
  2  1  2  0  0  0  0
  3  1  1  0  0  0  0
  3 15  1  0  0  0  0
  4  2  1  0  0  0  0
  5  4  2  0  0  0  0
  5  6  1  0  0  0  0
  6  3  2  0  0  0  0
  7 12  2  0  0  0  0
  7 10  1  0  0  0  0
  8 11  1  0  0  0  0
  8  4  1  0  0  0  0
 10  8  2  0  0  0  0
 12 13  1  0  0  0  0
 13  9  1  0  0  0  0
 13 11  2  0  0  0  0
 15 14  1  0  0  0  0
 16 17  1  0  0  0  0
 17 19  1  0  0  0  0
 19 20  1  0  0  0  0
 19 18  2  0  0  0  0
 20 21  1  0  0  0  0
 21 22  1  6  0  0  0
 21 23  1  0  0  0  0
 24 23  1  0  0  0  0
 25 24  2  0  0  0  0
 26 27  1  0  0  0  0
 27 28  2  0  0  0  0
 28 25  1  0  0  0  0
 29  6  1  0  0  0  0
 30 33  1  0  0  0  0
 32 34  1  0  0  0  0
 33 35  2  0  0  0  0
 33 34  1  0  0  0  0
 34 37  2  0  0  0  0
 35 36  1  0  0  0  0
 36 31  2  0  0  0  0
 36 29  1  0  0  0  0
 37 31  1  0  0  0  0
M  END
>  <MODEL>
5

>  <REMARK>
 VINA RESULT:      -7.0      4.022      8.283
  Name = 
  12 active torsions:
  status: ('A' for Active; 'I' for Inactive)
    1  A    between atoms: C_4  and  N_36
    2  A    between atoms: C_8  and  C_12
    3  A    between atoms: C_12  and  N_25
    4  A    between atoms: C_13  and  C_24
    5  A    between atoms: C_16  and  C_33
    6  A    between atoms: C_17  and  N_27
    7  A    between atoms: C_17  and  C_33
    8  A    between atoms: C_18  and  O_31
    9  A    between atoms: C_22  and  C_30
   10  A    between atoms: N_25  and  C_26
   11  A    between atoms: C_26  and  N_27
   12  A    between atoms: C_30  and  C_34
                            x       y       z     vdW  Elec       q    Type
                         _______ _______ _______ _____ _____    ______ ____

>  <TORSDO>
F 12

$$$$
=
 OpenBabel11052410593D

 37 39  0  0  1  0  0  0  0  0999 V2000
  160.7680  209.1050  154.2960 C   0  0  0  0  0  0  0  0  0  0  0  0
  161.0630  209.6390  153.0800 N   0  0  0  0  0  0  0  0  0  0  0  0
  160.8370  207.7000  154.4830 C   0  0  0  0  0  0  0  0  0  0  0  0
  161.4200  208.8790  152.0090 C   0  0  0  0  0  0  0  0  0  0  0  0
  161.5040  207.4920  152.1560 C   0  0  0  0  0  3  0  0  0  0  0  0
  161.2220  206.9060  153.3890 C   0  0  0  0  0  0  0  0  0  0  0  0
  162.3280  209.3720  148.3610 C   0  0  0  0  0  3  0  0  0  0  0  0
  161.7180  209.5230  150.7120 C   0  0  0  0  0  0  0  0  0  0  0  0
  161.9090  212.8880  149.2680 F   0  0  0  0  0  0  0  0  0  0  0  0
  162.0480  208.7540  149.5830 C   0  0  0  0  0  3  0  0  0  0  0  0
  161.6740  210.9210  150.5930 C   0  0  0  0  0  3  0  0  0  0  0  0
  162.2810  210.7640  148.2550 C   0  0  0  0  0  3  0  0  0  0  0  0
  161.9550  211.5380  149.3700 C   0  0  0  0  0  0  0  0  0  0  0  0
  159.2680  206.9540  156.2980 C   0  0  0  0  0  1  0  0  0  0  0  0
  160.5510  207.0490  155.6970 O   0  0  0  0  0  0  0  0  0  0  0  0
  160.4520  210.0540  155.4010 C   0  0  0  0  0  2  0  0  0  0  0  0
  159.1780  210.7070  155.1360 N   0  0  0  0  0  2  0  0  0  0  0  0
  158.3010  212.4280  156.9860 S   0  0  0  0  0  0  0  0  0  0  0  0
  158.8960  212.0620  155.4970 C   0  0  0  0  0  0  0  0  0  0  0  0
  159.1810  213.0950  154.5480 N   0  0  0  0  0  2  0  0  0  0  0  0
  158.3240  213.4220  153.4160 C   0  0  2  0  0  3  0  0  0  0  0  0
  157.0350  212.9480  153.6560 O   0  0  0  0  0  1  0  0  0  0  0  0
  158.8670  212.7780  152.1510 C   0  0  0  0  0  2  0  0  0  0  0  0
  158.5910  213.6290  150.9560 C   0  0  0  0  0  3  0  0  0  0  0  0
  157.4560  213.5490  150.3370 N   0  0  0  0  0  0  0  0  0  0  0  0
  157.5030  212.5820  147.5810 O   0  0  0  0  0  1  0  0  0  0  0  0
  157.1200  213.8750  147.9180 C   0  0  0  0  0  3  0  0  0  0  0  0
  157.0960  214.3190  149.1790 C   0  0  0  0  0  3  0  0  0  0  0  0
  161.2960  205.4160  153.5100 C   0  0  0  0  0  2  0  0  0  0  0  0
  160.5090  205.9780  148.3840 Cl  0  0  0  0  0  0  0  0  0  0  0  0
  161.3100  203.3860  152.0450 C   0  0  0  0  0  3  0  0  0  0  0  0
  160.8410  202.7630  148.0930 Cl  0  0  0  0  0  0  0  0  0  0  0  0
  160.8140  204.9550  149.7780 C   0  0  0  0  0  0  0  0  0  0  0  0
  160.9600  203.5620  149.6510 C   0  0  0  0  0  0  0  0  0  0  0  0
  160.9190  205.5520  151.0380 C   0  0  0  0  0  3  0  0  0  0  0  0
  161.1610  204.7700  152.1720 C   0  0  0  0  0  0  0  0  0  0  0  0
  161.2080  202.7850  150.7880 C   0  0  0  0  0  3  0  0  0  0  0  0
  1  3  1  0  0  0  0
  1 16  1  0  0  0  0
  2  1  2  0  0  0  0
  3 15  1  0  0  0  0
  4  5  2  0  0  0  0
  4  2  1  0  0  0  0
  5  6  1  0  0  0  0
  6 29  1  0  0  0  0
  6  3  2  0  0  0  0
  7 10  1  0  0  0  0
  8  4  1  0  0  0  0
  9 13  1  0  0  0  0
 10  8  2  0  0  0  0
 11  8  1  0  0  0  0
 12  7  2  0  0  0  0
 12 13  1  0  0  0  0
 13 11  2  0  0  0  0
 15 14  1  0  0  0  0
 17 16  1  0  0  0  0
 17 19  1  0  0  0  0
 19 18  2  0  0  0  0
 20 19  1  0  0  0  0
 21 22  1  1  0  0  0
 21 20  1  0  0  0  0
 23 21  1  0  0  0  0
 24 23  1  0  0  0  0
 25 24  2  0  0  0  0
 26 27  1  0  0  0  0
 27 28  2  0  0  0  0
 28 25  1  0  0  0  0
 30 33  1  0  0  0  0
 31 36  1  0  0  0  0
 32 34  1  0  0  0  0
 33 35  1  0  0  0  0
 34 33  2  0  0  0  0
 34 37  1  0  0  0  0
 35 36  2  0  0  0  0
 36 29  1  0  0  0  0
 37 31  2  0  0  0  0
M  END
>  <MODEL>
6

>  <REMARK>
 VINA RESULT:      -7.0      4.604      7.883
  Name = 
  12 active torsions:
  status: ('A' for Active; 'I' for Inactive)
    1  A    between atoms: C_4  and  N_36
    2  A    between atoms: C_8  and  C_12
    3  A    between atoms: C_12  and  N_25
    4  A    between atoms: C_13  and  C_24
    5  A    between atoms: C_16  and  C_33
    6  A    between atoms: C_17  and  N_27
    7  A    between atoms: C_17  and  C_33
    8  A    between atoms: C_18  and  O_31
    9  A    between atoms: C_22  and  C_30
   10  A    between atoms: N_25  and  C_26
   11  A    between atoms: C_26  and  N_27
   12  A    between atoms: C_30  and  C_34
                            x       y       z     vdW  Elec       q    Type
                         _______ _______ _______ _____ _____    ______ ____

>  <TORSDO>
F 12

$$$$
=
 OpenBabel11052410593D

 37 39  0  0  1  0  0  0  0  0999 V2000
  161.8110  208.0980  149.4400 C   0  0  0  0  0  0  0  0  0  0  0  0
  161.7930  209.1590  148.5890 N   0  0  0  0  0  0  0  0  0  0  0  0
  161.9930  208.3120  150.8300 C   0  0  0  0  0  0  0  0  0  0  0  0
  161.9530  210.4430  149.0110 C   0  0  0  0  0  0  0  0  0  0  0  0
  162.1290  210.6950  150.3740 C   0  0  0  0  0  3  0  0  0  0  0  0
  162.1400  209.6350  151.2810 C   0  0  0  0  0  0  0  0  0  0  0  0
  163.0170  213.4430  146.9510 C   0  0  0  0  0  3  0  0  0  0  0  0
  161.9330  211.5510  148.0320 C   0  0  0  0  0  0  0  0  0  0  0  0
  159.6680  213.0150  145.5490 F   0  0  0  0  0  0  0  0  0  0  0  0
  163.0450  212.3980  147.8790 C   0  0  0  0  0  3  0  0  0  0  0  0
  160.7970  211.7700  147.2380 C   0  0  0  0  0  3  0  0  0  0  0  0
  161.8800  213.6500  146.1660 C   0  0  0  0  0  3  0  0  0  0  0  0
  160.7710  212.8140  146.3090 C   0  0  0  0  0  0  0  0  0  0  0  0
  161.1730  206.1510  151.8150 C   0  0  0  0  0  1  0  0  0  0  0  0
  162.0270  207.2850  151.7910 O   0  0  0  0  0  0  0  0  0  0  0  0
  161.5630  206.7490  148.8550 C   0  0  0  0  0  2  0  0  0  0  0  0
  162.1350  206.6820  147.5180 N   0  0  0  0  0  2  0  0  0  0  0  0
  163.8280  204.8920  146.4770 S   0  0  0  0  0  0  0  0  0  0  0  0
  162.3180  205.4600  146.7980 C   0  0  0  0  0  0  0  0  0  0  0  0
  161.1580  204.7220  146.4000 N   0  0  0  0  0  2  0  0  0  0  0  0
  161.1140  203.8290  145.2500 C   0  0  2  0  0  3  0  0  0  0  0  0
  160.1970  204.3150  144.3170 O   0  0  0  0  0  1  0  0  0  0  0  0
  160.6900  202.4370  145.6890 C   0  0  0  0  0  2  0  0  0  0  0  0
  161.2050  202.1280  147.0560 C   0  0  0  0  0  3  0  0  0  0  0  0
  160.4440  201.5530  147.9320 N   0  0  0  0  0  0  0  0  0  0  0  0
  160.4390  203.3860  150.2080 O   0  0  0  0  0  1  0  0  0  0  0  0
  160.8400  202.0590  150.3120 C   0  0  0  0  0  3  0  0  0  0  0  0
  160.8420  201.2180  149.2720 C   0  0  0  0  0  3  0  0  0  0  0  0
  162.3560  209.9330  152.7320 C   0  0  0  0  0  2  0  0  0  0  0  0
  159.6100  210.3740  157.1450 Cl  0  0  0  0  0  0  0  0  0  0  0  0
  160.0130  210.8100  152.6280 C   0  0  0  0  0  3  0  0  0  0  0  0
  157.1530  211.5320  155.3710 Cl  0  0  0  0  0  0  0  0  0  0  0  0
  159.7370  210.5490  155.4030 C   0  0  0  0  0  0  0  0  0  0  0  0
  158.6720  211.0520  154.6350 C   0  0  0  0  0  0  0  0  0  0  0  0
  160.9310  210.1800  154.7770 C   0  0  0  0  0  3  0  0  0  0  0  0
  161.0700  210.3050  153.3910 C   0  0  0  0  0  0  0  0  0  0  0  0
  158.8170  211.1800  153.2490 C   0  0  0  0  0  3  0  0  0  0  0  0
  1  3  1  0  0  0  0
  2  4  1  0  0  0  0
  2  1  2  0  0  0  0
  3  6  2  0  0  0  0
  3 15  1  0  0  0  0
  4  5  2  0  0  0  0
  5  6  1  0  0  0  0
  6 29  1  0  0  0  0
  7 10  1  0  0  0  0
  8  4  1  0  0  0  0
  9 13  1  0  0  0  0
 10  8  2  0  0  0  0
 11  8  1  0  0  0  0
 12 13  1  0  0  0  0
 12  7  2  0  0  0  0
 13 11  2  0  0  0  0
 15 14  1  0  0  0  0
 16  1  1  0  0  0  0
 17 16  1  0  0  0  0
 18 19  2  0  0  0  0
 19 17  1  0  0  0  0
 20 19  1  0  0  0  0
 21 22  1  6  0  0  0
 21 23  1  0  0  0  0
 21 20  1  0  0  0  0
 23 24  1  0  0  0  0
 24 25  2  0  0  0  0
 25 28  1  0  0  0  0
 26 27  1  0  0  0  0
 28 27  2  0  0  0  0
 29 36  1  0  0  0  0
 31 37  2  0  0  0  0
 31 36  1  0  0  0  0
 33 30  1  0  0  0  0
 34 32  1  0  0  0  0
 34 33  2  0  0  0  0
 35 33  1  0  0  0  0
 36 35  2  0  0  0  0
 37 34  1  0  0  0  0
M  END
>  <MODEL>
7

>  <REMARK>
 VINA RESULT:      -6.9      1.634      2.842
  Name = 
  12 active torsions:
  status: ('A' for Active; 'I' for Inactive)
    1  A    between atoms: C_4  and  N_36
    2  A    between atoms: C_8  and  C_12
    3  A    between atoms: C_12  and  N_25
    4  A    between atoms: C_13  and  C_24
    5  A    between atoms: C_16  and  C_33
    6  A    between atoms: C_17  and  N_27
    7  A    between atoms: C_17  and  C_33
    8  A    between atoms: C_18  and  O_31
    9  A    between atoms: C_22  and  C_30
   10  A    between atoms: N_25  and  C_26
   11  A    between atoms: C_26  and  N_27
   12  A    between atoms: C_30  and  C_34
                            x       y       z     vdW  Elec       q    Type
                         _______ _______ _______ _____ _____    ______ ____

>  <TORSDO>
F 12

$$$$
=
 OpenBabel11052410593D

 37 39  0  0  1  0  0  0  0  0999 V2000
  161.1400  207.5190  150.4510 C   0  0  0  0  0  0  0  0  0  0  0  0
  160.8310  207.7380  151.7570 N   0  0  0  0  0  0  0  0  0  0  0  0
  161.7460  208.5500  149.6870 C   0  0  0  0  0  0  0  0  0  0  0  0
  161.0700  208.9240  152.3810 C   0  0  0  0  0  0  0  0  0  0  0  0
  161.6710  209.9610  151.6630 C   0  0  0  0  0  3  0  0  0  0  0  0
  162.0150  209.7730  150.3250 C   0  0  0  0  0  0  0  0  0  0  0  0
  160.2280  210.5400  155.7060 C   0  0  0  0  0  3  0  0  0  0  0  0
  160.7000  209.1000  153.8010 C   0  0  0  0  0  0  0  0  0  0  0  0
  159.8880  207.0460  156.7280 F   0  0  0  0  0  0  0  0  0  0  0  0
  160.5780  210.3840  154.3610 C   0  0  0  0  0  3  0  0  0  0  0  0
  160.4640  207.9790  154.6120 C   0  0  0  0  0  3  0  0  0  0  0  0
  159.9950  209.4160  156.5020 C   0  0  0  0  0  3  0  0  0  0  0  0
  160.1130  208.1360  155.9560 C   0  0  0  0  0  0  0  0  0  0  0  0
  161.5520  207.4880  147.4180 C   0  0  0  0  0  1  0  0  0  0  0  0
  162.1030  208.4250  148.3320 O   0  0  0  0  0  0  0  0  0  0  0  0
  160.8820  206.1540  149.9070 C   0  0  0  0  0  2  0  0  0  0  0  0
  161.4480  205.1560  150.8030 N   0  0  0  0  0  2  0  0  0  0  0  0
  160.7910  203.1350  152.4280 S   0  0  0  0  0  0  0  0  0  0  0  0
  160.9210  203.8340  150.9440 C   0  0  0  0  0  0  0  0  0  0  0  0
  160.4730  203.1490  149.7700 N   0  0  0  0  0  2  0  0  0  0  0  0
  160.5970  201.7120  149.5670 C   0  0  2  0  0  3  0  0  0  0  0  0
  161.5830  201.2050  150.4140 O   0  0  0  0  0  1  0  0  0  0  0  0
  160.9800  201.4230  148.1250 C   0  0  0  0  0  2  0  0  0  0  0  0
  160.8720  202.6530  147.2860 C   0  0  0  0  0  3  0  0  0  0  0  0
  161.2320  202.6360  146.0420 N   0  0  0  0  0  0  0  0  0  0  0  0
  163.2650  204.7220  145.8160 O   0  0  0  0  0  1  0  0  0  0  0  0
  162.1030  204.7180  145.0530 C   0  0  0  0  0  3  0  0  0  0  0  0
  161.1720  203.7640  145.1540 C   0  0  0  0  0  3  0  0  0  0  0  0
  162.6340  210.9100  149.5750 C   0  0  0  0  0  2  0  0  0  0  0  0
  159.9050  212.3290  145.3620 Cl  0  0  0  0  0  0  0  0  0  0  0  0
  160.8880  212.6910  149.7960 C   0  0  0  0  0  3  0  0  0  0  0  0
  158.3040  214.4330  147.2440 Cl  0  0  0  0  0  0  0  0  0  0  0  0
  160.2660  212.4920  147.0720 C   0  0  0  0  0  0  0  0  0  0  0  0
  159.5710  213.4030  147.8880 C   0  0  0  0  0  0  0  0  0  0  0  0
  161.2660  211.6880  147.6260 C   0  0  0  0  0  3  0  0  0  0  0  0
  161.5820  211.7880  148.9850 C   0  0  0  0  0  0  0  0  0  0  0  0
  159.8870  213.4960  149.2480 C   0  0  0  0  0  3  0  0  0  0  0  0
  1  2  1  0  0  0  0
  2  4  2  0  0  0  0
  3  6  1  0  0  0  0
  3  1  2  0  0  0  0
  4  8  1  0  0  0  0
  5  4  1  0  0  0  0
  6  5  2  0  0  0  0
  7 12  1  0  0  0  0
  8 10  1  0  0  0  0
  8 11  2  0  0  0  0
 10  7  2  0  0  0  0
 11 13  1  0  0  0  0
 13 12  2  0  0  0  0
 13  9  1  0  0  0  0
 14 15  1  0  0  0  0
 15  3  1  0  0  0  0
 16  1  1  0  0  0  0
 16 17  1  0  0  0  0
 17 19  1  0  0  0  0
 19 18  2  0  0  0  0
 20 19  1  0  0  0  0
 21 20  1  0  0  0  0
 21 22  1  1  0  0  0
 23 21  1  0  0  0  0
 24 23  1  0  0  0  0
 25 24  2  0  0  0  0
 27 28  2  0  0  0  0
 27 26  1  0  0  0  0
 28 25  1  0  0  0  0
 29  6  1  0  0  0  0
 30 33  1  0  0  0  0
 32 34  1  0  0  0  0
 33 35  2  0  0  0  0
 33 34  1  0  0  0  0
 34 37  2  0  0  0  0
 35 36  1  0  0  0  0
 36 29  1  0  0  0  0
 36 31  2  0  0  0  0
 37 31  1  0  0  0  0
M  END
>  <MODEL>
8

>  <REMARK>
 VINA RESULT:      -6.8      3.069      5.374
  Name = 
  12 active torsions:
  status: ('A' for Active; 'I' for Inactive)
    1  A    between atoms: C_4  and  N_36
    2  A    between atoms: C_8  and  C_12
    3  A    between atoms: C_12  and  N_25
    4  A    between atoms: C_13  and  C_24
    5  A    between atoms: C_16  and  C_33
    6  A    between atoms: C_17  and  N_27
    7  A    between atoms: C_17  and  C_33
    8  A    between atoms: C_18  and  O_31
    9  A    between atoms: C_22  and  C_30
   10  A    between atoms: N_25  and  C_26
   11  A    between atoms: C_26  and  N_27
   12  A    between atoms: C_30  and  C_34
                            x       y       z     vdW  Elec       q    Type
                         _______ _______ _______ _____ _____    ______ ____

>  <TORSDO>
F 12

$$$$
=
 OpenBabel11052410593D

 37 39  0  0  1  0  0  0  0  0999 V2000
  161.7550  209.2870  149.1510 C   0  0  0  0  0  0  0  0  0  0  0  0
  161.7430  208.5330  148.0190 N   0  0  0  0  0  0  0  0  0  0  0  0
  161.5790  208.6650  150.4140 C   0  0  0  0  0  0  0  0  0  0  0  0
  161.5580  207.1850  148.0350 C   0  0  0  0  0  0  0  0  0  0  0  0
  161.3860  206.5350  149.2600 C   0  0  0  0  0  3  0  0  0  0  0  0
  161.4050  207.2710  150.4440 C   0  0  0  0  0  0  0  0  0  0  0  0
  160.4910  205.8550  144.6480 C   0  0  0  0  0  3  0  0  0  0  0  0
  161.5450  206.4260  146.7660 C   0  0  0  0  0  0  0  0  0  0  0  0
  163.6020  203.9650  144.9880 F   0  0  0  0  0  0  0  0  0  0  0  0
  160.4950  206.5770  145.8450 C   0  0  0  0  0  3  0  0  0  0  0  0
  162.5910  205.5390  146.4640 C   0  0  0  0  0  3  0  0  0  0  0  0
  161.5380  204.9760  144.3590 C   0  0  0  0  0  3  0  0  0  0  0  0
  162.5870  204.8180  145.2670 C   0  0  0  0  0  0  0  0  0  0  0  0
  162.7060  209.9540  152.2530 C   0  0  0  0  0  1  0  0  0  0  0  0
  161.5740  209.3520  151.6410 O   0  0  0  0  0  0  0  0  0  0  0  0
  162.0300  210.7450  148.9990 C   0  0  0  0  0  2  0  0  0  0  0  0
  161.2450  211.2770  147.8940 N   0  0  0  0  0  2  0  0  0  0  0  0
  162.8810  213.3390  147.4170 S   0  0  0  0  0  0  0  0  0  0  0  0
  161.4130  212.5980  147.3730 C   0  0  0  0  0  0  0  0  0  0  0  0
  160.2850  213.2440  146.7740 N   0  0  0  0  0  2  0  0  0  0  0  0
  159.8850  213.0670  145.3840 C   0  0  2  0  0  3  0  0  0  0  0  0
  159.7580  211.7060  145.1070 O   0  0  0  0  0  1  0  0  0  0  0  0
  160.9320  213.6700  144.4620 C   0  0  0  0  0  2  0  0  0  0  0  0
  161.5250  212.6290  143.5730 C   0  0  0  0  0  3  0  0  0  0  0  0
  161.7630  212.8850  142.3250 N   0  0  0  0  0  0  0  0  0  0  0  0
  160.2360  211.0630  140.6270 O   0  0  0  0  0  1  0  0  0  0  0  0
  161.6250  211.1190  140.6120 C   0  0  0  0  0  3  0  0  0  0  0  0
  162.3260  211.9530  141.3880 C   0  0  0  0  0  3  0  0  0  0  0  0
  161.1930  206.5510  151.7400 C   0  0  0  0  0  2  0  0  0  0  0  0
  160.8710  202.6130  148.3340 Cl  0  0  0  0  0  0  0  0  0  0  0  0
  160.9760  204.2100  152.6010 C   0  0  0  0  0  3  0  0  0  0  0  0
  160.6900  200.5870  150.8630 Cl  0  0  0  0  0  0  0  0  0  0  0  0
  160.9050  203.2010  149.9880 C   0  0  0  0  0  0  0  0  0  0  0  0
  160.8280  202.3230  151.0840 C   0  0  0  0  0  0  0  0  0  0  0  0
  161.0180  204.5770  150.2080 C   0  0  0  0  0  3  0  0  0  0  0  0
  161.0490  205.0840  151.5110 C   0  0  0  0  0  0  0  0  0  0  0  0
  160.8650  202.8340  152.3850 C   0  0  0  0  0  3  0  0  0  0  0  0
  1  3  1  0  0  0  0
  2  4  1  0  0  0  0
  2  1  2  0  0  0  0
  3  6  2  0  0  0  0
  3 15  1  0  0  0  0
  4  5  2  0  0  0  0
  5  6  1  0  0  0  0
  6 29  1  0  0  0  0
  7 10  1  0  0  0  0
  8  4  1  0  0  0  0
  9 13  1  0  0  0  0
 10  8  2  0  0  0  0
 11  8  1  0  0  0  0
 12  7  2  0  0  0  0
 12 13  1  0  0  0  0
 13 11  2  0  0  0  0
 15 14  1  0  0  0  0
 16  1  1  0  0  0  0
 17 16  1  0  0  0  0
 19 18  2  0  0  0  0
 19 17  1  0  0  0  0
 20 19  1  0  0  0  0
 21 22  1  6  0  0  0
 21 20  1  0  0  0  0
 23 21  1  0  0  0  0
 24 23  1  0  0  0  0
 25 24  2  0  0  0  0
 27 26  1  0  0  0  0
 27 28  2  0  0  0  0
 28 25  1  0  0  0  0
 30 33  1  0  0  0  0
 32 34  1  0  0  0  0
 33 35  2  0  0  0  0
 33 34  1  0  0  0  0
 34 37  2  0  0  0  0
 35 36  1  0  0  0  0
 36 29  1  0  0  0  0
 36 31  2  0  0  0  0
 37 31  1  0  0  0  0
M  END
>  <MODEL>
9

>  <REMARK>
 VINA RESULT:      -6.8      4.649      7.764
  Name = 
  12 active torsions:
  status: ('A' for Active; 'I' for Inactive)
    1  A    between atoms: C_4  and  N_36
    2  A    between atoms: C_8  and  C_12
    3  A    between atoms: C_12  and  N_25
    4  A    between atoms: C_13  and  C_24
    5  A    between atoms: C_16  and  C_33
    6  A    between atoms: C_17  and  N_27
    7  A    between atoms: C_17  and  C_33
    8  A    between atoms: C_18  and  O_31
    9  A    between atoms: C_22  and  C_30
   10  A    between atoms: N_25  and  C_26
   11  A    between atoms: C_26  and  N_27
   12  A    between atoms: C_30  and  C_34
                            x       y       z     vdW  Elec       q    Type
                         _______ _______ _______ _____ _____    ______ ____

>  <TORSDO>
F 12

$$$$
