=
 OpenBabel11042420083D

 30 34  0  0  1  0  0  0  0  0999 V2000
  162.4760  206.7870  149.5560 C   0  0  0  0  0  2  0  0  0  0  0  0
  161.4880  206.5540  150.6930 C   0  0  2  0  0  0  0  0  0  0  0  0
  161.0590  207.3400  149.4470 C   0  0  2  0  0  3  0  0  0  0  0  0
  160.4050  209.3070  152.9430 C   0  0  1  0  0  3  0  0  0  0  0  0
  160.4030  211.5810  154.0970 N   0  0  0  0  0  0  0  0  0  0  0  0
  161.0010  206.6520  153.0430 C   0  0  0  0  0  2  0  0  0  0  0  0
  161.1540  209.6230  155.2910 C   0  0  0  0  0  3  0  0  0  0  0  0
  162.5500  209.6060  151.6150 C   0  0  0  0  0  1  0  0  0  0  0  0
  160.9420  208.8060  154.2580 C   0  0  0  0  0  0  0  0  0  0  0  0
  160.1740  210.7980  152.9170 C   0  0  0  0  0  0  0  0  0  0  0  0
  161.6650  207.3500  151.9260 N   0  0  2  0  0  0  0  0  0  0  0  0
  161.2860  207.3550  154.3710 C   0  0  0  0  0  2  0  0  0  0  0  0
  160.8560  211.0700  155.2020 C   0  0  0  0  0  0  0  0  0  0  0  0
  159.6400  211.3500  151.8790 N   0  0  0  0  0  2  0  0  0  0  0  0
  161.2820  208.7800  151.7840 C   0  0  1  0  0  3  0  0  0  0  0  0
  160.1170  212.8890  156.7020 C   0  0  0  0  0  1  0  0  0  0  0  0
  161.0660  211.9130  156.2950 O   0  0  0  0  0  0  0  0  0  0  0  0
  160.7710  204.4970  152.0940 C   0  0  0  0  0  3  0  0  0  0  0  0
  160.8310  202.9570  150.6140 C   0  0  0  0  0  0  0  0  0  0  0  0
  160.7940  201.7240  149.9650 C   0  0  0  0  0  3  0  0  0  0  0  0
  161.1410  204.1100  149.9520 C   0  0  0  0  0  0  0  0  0  0  0  0
  161.0940  205.1160  150.8880 C   0  0  0  0  0  0  0  0  0  0  0  0
  161.4620  204.1240  148.5950 C   0  0  0  0  0  3  0  0  0  0  0  0
  161.0860  200.5270  147.9200 F   0  0  0  0  0  0  0  0  0  0  0  0
  161.1040  201.7020  148.5930 C   0  0  0  0  0  0  0  0  0  0  0  0
  161.4380  202.8940  147.9140 C   0  0  0  0  0  3  0  0  0  0  0  0
  160.6080  203.2010  151.8810 O   0  0  0  0  0  0  0  0  0  0  0  0
  160.2770  206.5080  148.4370 C   0  0  0  0  0  2  0  0  0  0  0  0
  160.8230  206.7240  147.0390 C   0  0  0  0  0  2  0  0  0  0  0  0
  159.9810  206.1250  146.1000 O   0  0  0  0  0  1  0  0  0  0  0  0
  1  2  1  0  0  0  0
  2 22  1  1  0  0  0
  2 11  1  0  0  0  0
  3 28  1  6  0  0  0
  3  1  1  0  0  0  0
  3  2  1  0  0  0  0
  4 10  1  1  0  0  0
  4  9  1  0  0  0  0
  5 13  2  0  0  0  0
  6 12  1  0  0  0  0
  9 12  1  0  0  0  0
  9  7  2  0  0  0  0
 10  5  1  0  0  0  0
 11  6  1  1  0  0  0
 13  7  1  0  0  0  0
 13 17  1  0  0  0  0
 14 10  2  0  0  0  0
 15  8  1  1  0  0  0
 15 11  1  0  0  0  0
 15  4  1  0  0  0  0
 17 16  1  0  0  0  0
 19 27  1  0  0  0  0
 20 19  1  0  0  0  0
 21 19  2  0  0  0  0
 21 22  1  0  0  0  0
 22 18  2  0  0  0  0
 23 21  1  0  0  0  0
 24 25  1  0  0  0  0
 25 20  2  0  0  0  0
 26 25  1  0  0  0  0
 26 23  2  0  0  0  0
 27 18  1  0  0  0  0
 29 28  1  0  0  0  0
 30 29  1  0  0  0  0
M  END
>  <MODEL>
1

>  <REMARK>
 VINA RESULT:      -9.3      0.000      0.000
  Name = 
  5 active torsions:
  status: ('A' for Active; 'I' for Inactive)
    1  A    between atoms: O_13  and  C_20
    2  A    between atoms: N_15  and  C_22
    3  A    between atoms: C_16  and  C_22
    4  A    between atoms: C_24  and  C_27
    5  A    between atoms: C_25  and  C_27
                            x       y       z     vdW  Elec       q    Type
                         _______ _______ _______ _____ _____    ______ ____

>  <TORSDO>
F 5

$$$$
=
 OpenBabel11042420083D

 30 34  0  0  1  0  0  0  0  0999 V2000
  162.5560  205.8240  152.8730 C   0  0  0  0  0  2  0  0  0  0  0  0
  161.4830  206.2380  151.8730 C   0  0  2  0  0  0  0  0  0  0  0  0
  161.1260  206.0460  153.3530 C   0  0  2  0  0  3  0  0  0  0  0  0
  161.8540  204.1970  148.7890 C   0  0  1  0  0  3  0  0  0  0  0  0
  161.4680  203.4000  146.3980 N   0  0  0  0  0  0  0  0  0  0  0  0
  161.3750  203.8760  151.4500 C   0  0  0  0  0  2  0  0  0  0  0  0
  160.5380  202.1600  148.2470 C   0  0  0  0  0  3  0  0  0  0  0  0
  160.0880  206.0230  148.8230 C   0  0  0  0  0  1  0  0  0  0  0  0
  161.0350  202.9900  149.1650 C   0  0  0  0  0  0  0  0  0  0  0  0
  162.0150  204.3730  147.2990 C   0  0  0  0  0  0  0  0  0  0  0  0
  160.9730  205.2030  150.9480 N   0  0  2  0  0  0  0  0  0  0  0  0
  160.7400  202.7630  150.6140 C   0  0  0  0  0  2  0  0  0  0  0  0
  160.7820  202.3740  146.8030 C   0  0  0  0  0  0  0  0  0  0  0  0
  162.7620  205.3200  146.8380 N   0  0  0  0  0  2  0  0  0  0  0  0
  161.3130  205.4470  149.5210 C   0  0  1  0  0  3  0  0  0  0  0  0
  159.6950  201.9270  144.6300 C   0  0  0  0  0  1  0  0  0  0  0  0
  160.2720  201.4890  145.8510 O   0  0  0  0  0  0  0  0  0  0  0  0
  162.6190  207.9770  150.3240 C   0  0  0  0  0  3  0  0  0  0  0  0
  161.6710  209.7780  150.9720 C   0  0  0  0  0  0  0  0  0  0  0  0
  161.3150  211.1140  151.1430 C   0  0  0  0  0  3  0  0  0  0  0  0
  161.0890  208.7790  151.6990 C   0  0  0  0  0  0  0  0  0  0  0  0
  161.6780  207.6080  151.2840 C   0  0  0  0  0  0  0  0  0  0  0  0
  160.1210  209.0340  152.6700 C   0  0  0  0  0  3  0  0  0  0  0  0
  159.9590  212.6920  152.3150 F   0  0  0  0  0  0  0  0  0  0  0  0
  160.3340  211.4080  152.1090 C   0  0  0  0  0  0  0  0  0  0  0  0
  159.7450  210.3740  152.8690 C   0  0  0  0  0  3  0  0  0  0  0  0
  162.5720  209.2880  150.1570 O   0  0  0  0  0  0  0  0  0  0  0  0
  161.0640  207.3490  154.1410 C   0  0  0  0  0  2  0  0  0  0  0  0
  160.4850  207.1030  155.5210 C   0  0  0  0  0  2  0  0  0  0  0  0
  160.0780  208.3120  156.0910 O   0  0  0  0  0  1  0  0  0  0  0  0
  1  3  1  0  0  0  0
  2 22  1  6  0  0  0
  2  1  1  0  0  0  0
  2  3  1  0  0  0  0
  3 28  1  1  0  0  0
  4 10  1  6  0  0  0
  4  9  1  0  0  0  0
  4 15  1  0  0  0  0
  5 13  2  0  0  0  0
  5 10  1  0  0  0  0
  7  9  2  0  0  0  0
  9 12  1  0  0  0  0
 11  6  1  1  0  0  0
 11  2  1  0  0  0  0
 12  6  1  0  0  0  0
 13  7  1  0  0  0  0
 14 10  2  0  0  0  0
 15  8  1  6  0  0  0
 15 11  1  0  0  0  0
 16 17  1  0  0  0  0
 17 13  1  0  0  0  0
 18 22  2  0  0  0  0
 19 20  2  0  0  0  0
 19 21  1  0  0  0  0
 20 25  1  0  0  0  0
 21 23  2  0  0  0  0
 22 21  1  0  0  0  0
 23 26  1  0  0  0  0
 25 24  1  0  0  0  0
 25 26  2  0  0  0  0
 27 18  1  0  0  0  0
 27 19  1  0  0  0  0
 28 29  1  0  0  0  0
 29 30  1  0  0  0  0
M  END
>  <MODEL>
2

>  <REMARK>
 VINA RESULT:      -9.1      3.653      8.338
  Name = 
  5 active torsions:
  status: ('A' for Active; 'I' for Inactive)
    1  A    between atoms: O_13  and  C_20
    2  A    between atoms: N_15  and  C_22
    3  A    between atoms: C_16  and  C_22
    4  A    between atoms: C_24  and  C_27
    5  A    between atoms: C_25  and  C_27
                            x       y       z     vdW  Elec       q    Type
                         _______ _______ _______ _____ _____    ______ ____

>  <TORSDO>
F 5

$$$$
=
 OpenBabel11042420083D

 30 34  0  0  1  0  0  0  0  0999 V2000
  161.8410  207.2110  154.7250 C   0  0  0  0  0  2  0  0  0  0  0  0
  161.3500  208.2140  153.6870 C   0  0  2  0  0  0  0  0  0  0  0  0
  160.4140  207.1090  154.1970 C   0  0  2  0  0  3  0  0  0  0  0  0
  160.9480  206.8240  150.2640 C   0  0  1  0  0  3  0  0  0  0  0  0
  161.3360  205.3210  148.2410 N   0  0  0  0  0  0  0  0  0  0  0  0
  161.3820  209.2100  151.5020 C   0  0  0  0  0  2  0  0  0  0  0  0
  162.1990  207.5740  148.2520 C   0  0  0  0  0  3  0  0  0  0  0  0
  162.7760  205.8690  151.7480 C   0  0  0  0  0  1  0  0  0  0  0  0
  161.7200  207.8440  149.4670 C   0  0  0  0  0  0  0  0  0  0  0  0
  160.8120  205.4940  149.5650 C   0  0  0  0  0  0  0  0  0  0  0  0
  161.8360  208.0560  152.3000 N   0  0  2  0  0  0  0  0  0  0  0  0
  161.9880  209.1730  150.0980 C   0  0  0  0  0  2  0  0  0  0  0  0
  161.9810  206.2580  147.6120 C   0  0  0  0  0  0  0  0  0  0  0  0
  160.1050  204.5540  150.0980 N   0  0  0  0  0  2  0  0  0  0  0  0
  161.5230  206.7330  151.6960 C   0  0  1  0  0  3  0  0  0  0  0  0
  163.1280  204.7780  146.0010 C   0  0  0  0  0  1  0  0  0  0  0  0
  162.4720  205.9930  146.3320 O   0  0  0  0  0  0  0  0  0  0  0  0
  162.0690  210.2400  155.1320 C   0  0  0  0  0  3  0  0  0  0  0  0
  160.4840  211.6130  154.7230 C   0  0  0  0  0  0  0  0  0  0  0  0
  159.6390  212.7210  154.7340 C   0  0  0  0  0  3  0  0  0  0  0  0
  160.2250  210.5170  153.9500 C   0  0  0  0  0  0  0  0  0  0  0  0
  161.2440  209.6270  154.1910 C   0  0  0  0  0  0  0  0  0  0  0  0
  159.0900  210.4280  153.1450 C   0  0  0  0  0  3  0  0  0  0  0  0
  157.6330  213.7180  153.9080 F   0  0  0  0  0  0  0  0  0  0  0  0
  158.4880  212.6690  153.9260 C   0  0  0  0  0  0  0  0  0  0  0  0
  158.2150  211.5280  153.1400 C   0  0  0  0  0  3  0  0  0  0  0  0
  161.5830  211.4380  155.4140 O   0  0  0  0  0  0  0  0  0  0  0  0
  159.4490  207.5770  155.2810 C   0  0  0  0  0  2  0  0  0  0  0  0
  160.0800  207.4200  156.6510 C   0  0  0  0  0  2  0  0  0  0  0  0
  160.2150  208.6690  157.2600 O   0  0  0  0  0  1  0  0  0  0  0  0
  2 22  1  1  0  0  0
  2  3  1  0  0  0  0
  2  1  1  0  0  0  0
  3  1  1  0  0  0  0
  3 28  1  1  0  0  0
  4  9  1  6  0  0  0
  4 15  1  0  0  0  0
  5 10  1  0  0  0  0
  7  9  2  0  0  0  0
  9 12  1  0  0  0  0
 10 14  2  0  0  0  0
 10  4  1  0  0  0  0
 11  6  1  6  0  0  0
 11  2  1  0  0  0  0
 12  6  1  0  0  0  0
 13  5  2  0  0  0  0
 13  7  1  0  0  0  0
 15  8  1  6  0  0  0
 15 11  1  0  0  0  0
 16 17  1  0  0  0  0
 17 13  1  0  0  0  0
 18 27  1  0  0  0  0
 19 20  1  0  0  0  0
 19 27  1  0  0  0  0
 21 22  1  0  0  0  0
 21 19  2  0  0  0  0
 22 18  2  0  0  0  0
 23 21  1  0  0  0  0
 24 25  1  0  0  0  0
 25 20  2  0  0  0  0
 26 23  2  0  0  0  0
 26 25  1  0  0  0  0
 28 29  1  0  0  0  0
 29 30  1  0  0  0  0
M  END
>  <MODEL>
3

>  <REMARK>
 VINA RESULT:      -9.1      3.595      8.280
  Name = 
  5 active torsions:
  status: ('A' for Active; 'I' for Inactive)
    1  A    between atoms: O_13  and  C_20
    2  A    between atoms: N_15  and  C_22
    3  A    between atoms: C_16  and  C_22
    4  A    between atoms: C_24  and  C_27
    5  A    between atoms: C_25  and  C_27
                            x       y       z     vdW  Elec       q    Type
                         _______ _______ _______ _____ _____    ______ ____

>  <TORSDO>
F 5

$$$$
=
 OpenBabel11042420083D

 30 34  0  0  1  0  0  0  0  0999 V2000
  160.5140  208.2430  150.5360 C   0  0  0  0  0  2  0  0  0  0  0  0
  161.1150  206.9100  150.9650 C   0  0  2  0  0  0  0  0  0  0  0  0
  161.9750  207.9410  150.2220 C   0  0  2  0  0  3  0  0  0  0  0  0
  161.8640  204.4050  148.3240 C   0  0  1  0  0  3  0  0  0  0  0  0
  161.7450  203.1990  146.0810 N   0  0  0  0  0  0  0  0  0  0  0  0
  161.1410  204.5080  150.9460 C   0  0  0  0  0  2  0  0  0  0  0  0
  160.6880  202.2360  148.0250 C   0  0  0  0  0  3  0  0  0  0  0  0
  160.0330  206.1110  147.8850 C   0  0  0  0  0  1  0  0  0  0  0  0
  161.0600  203.2350  148.8280 C   0  0  0  0  0  0  0  0  0  0  0  0
  162.1630  204.3370  146.8470 C   0  0  0  0  0  0  0  0  0  0  0  0
  160.7380  205.7080  150.1910 N   0  0  2  0  0  0  0  0  0  0  0  0
  160.6350  203.2380  150.2610 C   0  0  0  0  0  2  0  0  0  0  0  0
  161.0630  202.2190  146.5930 C   0  0  0  0  0  0  0  0  0  0  0  0
  162.9130  205.2340  146.2980 N   0  0  0  0  0  2  0  0  0  0  0  0
  161.2060  205.7280  148.7790 C   0  0  1  0  0  3  0  0  0  0  0  0
  159.6720  201.2850  144.7780 C   0  0  0  0  0  1  0  0  0  0  0  0
  160.6840  201.1600  145.7660 O   0  0  0  0  0  0  0  0  0  0  0  0
  161.5750  205.5600  153.1270 C   0  0  0  0  0  3  0  0  0  0  0  0
  160.9760  206.9670  154.6200 C   0  0  0  0  0  0  0  0  0  0  0  0
  160.6580  207.5740  155.8330 C   0  0  0  0  0  3  0  0  0  0  0  0
  160.8250  207.6150  153.4270 C   0  0  0  0  0  0  0  0  0  0  0  0
  161.2200  206.7270  152.4540 C   0  0  0  0  0  0  0  0  0  0  0  0
  160.3220  208.9130  153.3470 C   0  0  0  0  0  3  0  0  0  0  0  0
  159.8250  209.5190  156.9410 F   0  0  0  0  0  0  0  0  0  0  0  0
  160.1550  208.8880  155.7890 C   0  0  0  0  0  0  0  0  0  0  0  0
  159.9860  209.5500  154.5530 C   0  0  0  0  0  3  0  0  0  0  0  0
  161.4270  205.7510  154.4280 O   0  0  0  0  0  0  0  0  0  0  0  0
  162.8630  208.7730  151.1420 C   0  0  0  0  0  2  0  0  0  0  0  0
  162.4250  210.2250  151.1240 C   0  0  0  0  0  2  0  0  0  0  0  0
  162.2760  210.6620  149.8050 O   0  0  0  0  0  1  0  0  0  0  0  0
  1  2  1  0  0  0  0
  2 22  1  1  0  0  0
  3  1  1  0  0  0  0
  3  2  1  0  0  0  0
  3 28  1  1  0  0  0
  4 10  1  6  0  0  0
  4 15  1  0  0  0  0
  4  9  1  0  0  0  0
  5 13  2  0  0  0  0
  5 10  1  0  0  0  0
  7  9  2  0  0  0  0
  9 12  1  0  0  0  0
 11  6  1  1  0  0  0
 11  2  1  0  0  0  0
 12  6  1  0  0  0  0
 13  7  1  0  0  0  0
 14 10  2  0  0  0  0
 15  8  1  6  0  0  0
 15 11  1  0  0  0  0
 16 17  1  0  0  0  0
 17 13  1  0  0  0  0
 18 27  1  0  0  0  0
 19 20  1  0  0  0  0
 21 19  2  0  0  0  0
 22 18  2  0  0  0  0
 22 21  1  0  0  0  0
 23 21  1  0  0  0  0
 23 26  2  0  0  0  0
 25 20  2  0  0  0  0
 25 24  1  0  0  0  0
 26 25  1  0  0  0  0
 27 19  1  0  0  0  0
 29 28  1  0  0  0  0
 30 29  1  0  0  0  0
M  END
>  <MODEL>
4

>  <REMARK>
 VINA RESULT:      -8.1      3.563      8.005
  Name = 
  5 active torsions:
  status: ('A' for Active; 'I' for Inactive)
    1  A    between atoms: O_13  and  C_20
    2  A    between atoms: N_15  and  C_22
    3  A    between atoms: C_16  and  C_22
    4  A    between atoms: C_24  and  C_27
    5  A    between atoms: C_25  and  C_27
                            x       y       z     vdW  Elec       q    Type
                         _______ _______ _______ _____ _____    ______ ____

>  <TORSDO>
F 5

$$$$
=
 OpenBabel11042420083D

 30 34  0  0  1  0  0  0  0  0999 V2000
  162.2230  210.7170  154.3320 C   0  0  0  0  0  2  0  0  0  0  0  0
  161.0230  209.9340  154.8510 C   0  0  2  0  0  0  0  0  0  0  0  0
  162.3120  210.0090  155.6800 C   0  0  2  0  0  3  0  0  0  0  0  0
  161.9930  207.1650  152.5690 C   0  0  1  0  0  3  0  0  0  0  0  0
  162.0150  205.6840  150.4940 N   0  0  0  0  0  0  0  0  0  0  0  0
  161.1750  207.5530  155.1360 C   0  0  0  0  0  2  0  0  0  0  0  0
  160.9430  204.9130  152.5130 C   0  0  0  0  0  3  0  0  0  0  0  0
  160.0930  208.6980  151.8680 C   0  0  0  0  0  1  0  0  0  0  0  0
  161.2340  206.0230  153.1940 C   0  0  0  0  0  0  0  0  0  0  0  0
  162.3470  206.9300  151.1210 C   0  0  0  0  0  0  0  0  0  0  0  0
  160.7370  208.6260  154.2240 N   0  0  2  0  0  0  0  0  0  0  0  0
  160.7600  206.1810  154.6030 C   0  0  0  0  0  2  0  0  0  0  0  0
  161.3680  204.7390  151.1070 C   0  0  0  0  0  0  0  0  0  0  0  0
  163.0680  207.7920  150.4850 N   0  0  0  0  0  2  0  0  0  0  0  0
  161.2520  208.4950  152.8350 C   0  0  1  0  0  3  0  0  0  0  0  0
  161.1760  203.4690  148.9960 C   0  0  0  0  0  1  0  0  0  0  0  0
  161.0730  203.5650  150.4090 O   0  0  0  0  0  0  0  0  0  0  0  0
  159.0340  210.6920  156.3270 C   0  0  0  0  0  3  0  0  0  0  0  0
  158.0780  212.0950  155.0300 C   0  0  0  0  0  0  0  0  0  0  0  0
  157.1840  213.0100  154.4780 C   0  0  0  0  0  3  0  0  0  0  0  0
  159.1890  211.6750  154.3560 C   0  0  0  0  0  0  0  0  0  0  0  0
  159.8250  210.7800  155.1830 C   0  0  0  0  0  0  0  0  0  0  0  0
  159.4860  212.1170  153.0680 C   0  0  0  0  0  3  0  0  0  0  0  0
  156.6170  214.3710  152.5990 F   0  0  0  0  0  0  0  0  0  0  0  0
  157.4580  213.4840  153.1810 C   0  0  0  0  0  0  0  0  0  0  0  0
  158.6000  213.0370  152.4810 C   0  0  0  0  0  3  0  0  0  0  0  0
  158.0010  211.5090  156.2000 O   0  0  0  0  0  0  0  0  0  0  0  0
  162.2640  211.0510  156.7930 C   0  0  0  0  0  2  0  0  0  0  0  0
  163.6670  211.3870  157.2610 C   0  0  0  0  0  2  0  0  0  0  0  0
  164.5500  211.3580  156.1800 O   0  0  0  0  0  1  0  0  0  0  0  0
  1  2  1  0  0  0  0
  1  3  1  0  0  0  0
  2 22  1  1  0  0  0
  2  3  1  0  0  0  0
  3 28  1  1  0  0  0
  4 10  1  6  0  0  0
  4 15  1  0  0  0  0
  4  9  1  0  0  0  0
  5 13  2  0  0  0  0
  5 10  1  0  0  0  0
  7  9  2  0  0  0  0
  9 12  1  0  0  0  0
 11  2  1  0  0  0  0
 11  6  1  1  0  0  0
 12  6  1  0  0  0  0
 13  7  1  0  0  0  0
 14 10  2  0  0  0  0
 15  8  1  6  0  0  0
 15 11  1  0  0  0  0
 16 17  1  0  0  0  0
 17 13  1  0  0  0  0
 19 27  1  0  0  0  0
 20 19  1  0  0  0  0
 21 19  2  0  0  0  0
 21 22  1  0  0  0  0
 22 18  2  0  0  0  0
 23 21  1  0  0  0  0
 24 25  1  0  0  0  0
 25 20  2  0  0  0  0
 26 23  2  0  0  0  0
 26 25  1  0  0  0  0
 27 18  1  0  0  0  0
 28 29  1  0  0  0  0
 30 29  1  0  0  0  0
M  END
>  <MODEL>
5

>  <REMARK>
 VINA RESULT:      -7.9      3.495      8.479
  Name = 
  5 active torsions:
  status: ('A' for Active; 'I' for Inactive)
    1  A    between atoms: O_13  and  C_20
    2  A    between atoms: N_15  and  C_22
    3  A    between atoms: C_16  and  C_22
    4  A    between atoms: C_24  and  C_27
    5  A    between atoms: C_25  and  C_27
                            x       y       z     vdW  Elec       q    Type
                         _______ _______ _______ _____ _____    ______ ____

>  <TORSDO>
F 5

$$$$
=
 OpenBabel11042420083D

 30 34  0  0  1  0  0  0  0  0999 V2000
  160.2710  206.1390  152.5210 C   0  0  0  0  0  2  0  0  0  0  0  0
  160.9940  207.4800  152.4690 C   0  0  2  0  0  0  0  0  0  0  0  0
  161.5690  206.3250  153.3010 C   0  0  2  0  0  3  0  0  0  0  0  0
  161.4130  210.4330  154.6860 C   0  0  1  0  0  3  0  0  0  0  0  0
  161.3800  211.8400  156.8120 N   0  0  0  0  0  0  0  0  0  0  0  0
  160.2230  209.7510  152.3340 C   0  0  0  0  0  2  0  0  0  0  0  0
  159.6750  212.1520  155.1340 C   0  0  0  0  0  3  0  0  0  0  0  0
  160.3920  208.3220  155.6650 C   0  0  0  0  0  1  0  0  0  0  0  0
  160.1770  211.2170  154.3260 C   0  0  0  0  0  0  0  0  0  0  0  0
  161.9800  210.7930  156.0370 C   0  0  0  0  0  0  0  0  0  0  0  0
  160.4140  208.6010  153.2380 N   0  0  2  0  0  0  0  0  0  0  0  0
  159.4820  210.8850  153.0450 C   0  0  0  0  0  2  0  0  0  0  0  0
  160.3180  212.4820  156.4250 C   0  0  0  0  0  0  0  0  0  0  0  0
  163.0840  210.2560  156.4370 N   0  0  0  0  0  2  0  0  0  0  0  0
  161.1510  208.9220  154.4890 C   0  0  1  0  0  3  0  0  0  0  0  0
  158.8510  214.4340  156.7990 C   0  0  0  0  0  1  0  0  0  0  0  0
  159.7940  213.4750  157.2540 O   0  0  0  0  0  0  0  0  0  0  0  0
  162.3080  208.9580  150.7950 C   0  0  0  0  0  3  0  0  0  0  0  0
  161.9060  207.9450  148.9570 C   0  0  0  0  0  0  0  0  0  0  0  0
  161.8400  207.5980  147.6090 C   0  0  0  0  0  3  0  0  0  0  0  0
  161.2960  207.1990  149.9250 C   0  0  0  0  0  0  0  0  0  0  0  0
  161.5570  207.8290  151.1180 C   0  0  0  0  0  0  0  0  0  0  0  0
  160.5520  206.0590  149.6230 C   0  0  0  0  0  3  0  0  0  0  0  0
  161.0040  206.0730  145.9730 F   0  0  0  0  0  0  0  0  0  0  0  0
  161.1030  206.4480  147.2700 C   0  0  0  0  0  0  0  0  0  0  0  0
  160.4610  205.6860  148.2710 C   0  0  0  0  0  3  0  0  0  0  0  0
  162.5070  208.9820  149.4870 O   0  0  0  0  0  0  0  0  0  0  0  0
  162.6850  205.5610  152.5980 C   0  0  0  0  0  2  0  0  0  0  0  0
  162.1290  204.3250  151.9180 C   0  0  0  0  0  2  0  0  0  0  0  0
  161.2300  203.6760  152.7670 O   0  0  0  0  0  1  0  0  0  0  0  0
  1  3  1  0  0  0  0
  2 22  1  6  0  0  0
  2  1  1  0  0  0  0
  2 11  1  0  0  0  0
  2  3  1  0  0  0  0
  3 28  1  6  0  0  0
  4  9  1  1  0  0  0
  4 10  1  0  0  0  0
  6 12  1  0  0  0  0
  7 13  1  0  0  0  0
  9  7  2  0  0  0  0
 10 14  2  0  0  0  0
 10  5  1  0  0  0  0
 11  6  1  6  0  0  0
 11 15  1  0  0  0  0
 12  9  1  0  0  0  0
 13  5  2  0  0  0  0
 13 17  1  0  0  0  0
 15  4  1  0  0  0  0
 15  8  1  1  0  0  0
 16 17  1  0  0  0  0
 18 22  2  0  0  0  0
 19 27  1  0  0  0  0
 19 21  1  0  0  0  0
 20 19  2  0  0  0  0
 21 22  1  0  0  0  0
 23 21  2  0  0  0  0
 24 25  1  0  0  0  0
 25 20  1  0  0  0  0
 25 26  2  0  0  0  0
 26 23  1  0  0  0  0
 27 18  1  0  0  0  0
 29 28  1  0  0  0  0
 29 30  1  0  0  0  0
M  END
>  <MODEL>
6

>  <REMARK>
 VINA RESULT:      -7.7      2.298      4.165
  Name = 
  5 active torsions:
  status: ('A' for Active; 'I' for Inactive)
    1  A    between atoms: O_13  and  C_20
    2  A    between atoms: N_15  and  C_22
    3  A    between atoms: C_16  and  C_22
    4  A    between atoms: C_24  and  C_27
    5  A    between atoms: C_25  and  C_27
                            x       y       z     vdW  Elec       q    Type
                         _______ _______ _______ _____ _____    ______ ____

>  <TORSDO>
F 5

$$$$
=
 OpenBabel11042420083D

 30 34  0  0  1  0  0  0  0  0999 V2000
  162.6660  208.9260  151.9500 C   0  0  0  0  0  2  0  0  0  0  0  0
  161.2670  208.3710  152.1900 C   0  0  2  0  0  0  0  0  0  0  0  0
  161.6590  208.9040  150.8050 C   0  0  2  0  0  3  0  0  0  0  0  0
  160.6140  211.0570  154.6740 C   0  0  1  0  0  3  0  0  0  0  0  0
  159.9600  212.1540  156.8810 N   0  0  0  0  0  0  0  0  0  0  0  0
  159.9300  210.3660  152.1320 C   0  0  0  0  0  2  0  0  0  0  0  0
  158.4370  212.2060  155.0100 C   0  0  0  0  0  3  0  0  0  0  0  0
  160.0990  208.6560  155.3280 C   0  0  0  0  0  1  0  0  0  0  0  0
  159.2620  211.5310  154.2090 C   0  0  0  0  0  0  0  0  0  0  0  0
  160.9050  211.3930  156.1160 C   0  0  0  0  0  0  0  0  0  0  0  0
  160.3210  209.2080  152.9570 N   0  0  2  0  0  0  0  0  0  0  0  0
  158.8340  211.1800  152.8200 C   0  0  0  0  0  2  0  0  0  0  0  0
  158.8150  212.5400  156.4010 C   0  0  0  0  0  0  0  0  0  0  0  0
  162.0600  211.1170  156.6230 N   0  0  0  0  0  2  0  0  0  0  0  0
  160.7960  209.5630  154.3210 C   0  0  1  0  0  3  0  0  0  0  0  0
  157.2640  214.4240  156.7840 C   0  0  0  0  0  1  0  0  0  0  0  0
  157.9510  213.2620  157.2260 O   0  0  0  0  0  0  0  0  0  0  0  0
  161.5750  206.2710  153.6760 C   0  0  0  0  0  3  0  0  0  0  0  0
  161.1990  204.7140  152.2620 C   0  0  0  0  0  0  0  0  0  0  0  0
  161.0630  203.4710  151.6480 C   0  0  0  0  0  3  0  0  0  0  0  0
  161.0010  205.8810  151.5800 C   0  0  0  0  0  0  0  0  0  0  0  0
  161.2250  206.8960  152.4800 C   0  0  0  0  0  0  0  0  0  0  0  0
  160.6730  205.9020  150.2250 C   0  0  0  0  0  3  0  0  0  0  0  0
  160.5860  202.2720  149.6390 F   0  0  0  0  0  0  0  0  0  0  0  0
  160.7240  203.4550  150.2820 C   0  0  0  0  0  0  0  0  0  0  0  0
  160.5340  204.6630  149.5760 C   0  0  0  0  0  3  0  0  0  0  0  0
  161.5340  204.9600  153.5050 O   0  0  0  0  0  0  0  0  0  0  0  0
  162.0530  207.8100  149.8180 C   0  0  0  0  0  2  0  0  0  0  0  0
  162.5870  208.4240  148.5380 C   0  0  0  0  0  2  0  0  0  0  0  0
  161.9540  209.6440  148.2930 O   0  0  0  0  0  1  0  0  0  0  0  0
  1  2  1  0  0  0  0
  2 22  1  1  0  0  0
  2 11  1  0  0  0  0
  3 28  1  6  0  0  0
  3  1  1  0  0  0  0
  3  2  1  0  0  0  0
  4  9  1  1  0  0  0
  4 10  1  0  0  0  0
  6 12  1  0  0  0  0
  7 13  1  0  0  0  0
  9  7  2  0  0  0  0
 10 14  2  0  0  0  0
 10  5  1  0  0  0  0
 11  6  1  6  0  0  0
 11 15  1  0  0  0  0
 12  9  1  0  0  0  0
 13  5  2  0  0  0  0
 13 17  1  0  0  0  0
 15  4  1  0  0  0  0
 15  8  1  1  0  0  0
 16 17  1  0  0  0  0
 19 27  1  0  0  0  0
 20 19  1  0  0  0  0
 21 19  2  0  0  0  0
 21 22  1  0  0  0  0
 22 18  2  0  0  0  0
 23 21  1  0  0  0  0
 24 25  1  0  0  0  0
 25 20  2  0  0  0  0
 26 23  2  0  0  0  0
 26 25  1  0  0  0  0
 27 18  1  0  0  0  0
 29 28  1  0  0  0  0
 30 29  1  0  0  0  0
M  END
>  <MODEL>
7

>  <REMARK>
 VINA RESULT:      -7.7      1.930      3.165
  Name = 
  5 active torsions:
  status: ('A' for Active; 'I' for Inactive)
    1  A    between atoms: O_13  and  C_20
    2  A    between atoms: N_15  and  C_22
    3  A    between atoms: C_16  and  C_22
    4  A    between atoms: C_24  and  C_27
    5  A    between atoms: C_25  and  C_27
                            x       y       z     vdW  Elec       q    Type
                         _______ _______ _______ _____ _____    ______ ____

>  <TORSDO>
F 5

$$$$
=
 OpenBabel11042420083D

 30 34  0  0  1  0  0  0  0  0999 V2000
  160.2100  205.7020  152.0890 C   0  0  0  0  0  2  0  0  0  0  0  0
  161.4790  206.5450  152.1200 C   0  0  2  0  0  0  0  0  0  0  0  0
  161.4980  205.1010  152.6410 C   0  0  2  0  0  3  0  0  0  0  0  0
  160.0760  209.5450  153.8070 C   0  0  1  0  0  3  0  0  0  0  0  0
  159.7820  211.9920  154.4620 N   0  0  0  0  0  0  0  0  0  0  0  0
  161.0430  207.0760  154.4220 C   0  0  0  0  0  2  0  0  0  0  0  0
  160.8330  210.4520  155.9930 C   0  0  0  0  0  3  0  0  0  0  0  0
  162.1220  209.8370  152.3290 C   0  0  0  0  0  1  0  0  0  0  0  0
  160.7120  209.4120  155.1660 C   0  0  0  0  0  0  0  0  0  0  0  0
  159.6350  210.9520  153.4850 C   0  0  0  0  0  0  0  0  0  0  0  0
  161.5730  207.6010  153.1500 N   0  0  2  0  0  0  0  0  0  0  0  0
  161.2610  208.0770  155.5580 C   0  0  0  0  0  2  0  0  0  0  0  0
  160.3310  211.7930  155.6230 C   0  0  0  0  0  0  0  0  0  0  0  0
  159.0020  211.1950  152.3860 N   0  0  0  0  0  2  0  0  0  0  0  0
  160.9880  208.9040  152.7350 C   0  0  1  0  0  3  0  0  0  0  0  0
  159.6590  214.0460  156.3840 C   0  0  0  0  0  1  0  0  0  0  0  0
  160.4480  212.8710  156.5030 O   0  0  0  0  0  0  0  0  0  0  0  0
  163.0800  207.7650  150.4900 C   0  0  0  0  0  3  0  0  0  0  0  0
  162.2330  207.2210  148.6060 C   0  0  0  0  0  0  0  0  0  0  0  0
  161.9570  207.1190  147.2440 C   0  0  0  0  0  3  0  0  0  0  0  0
  161.4840  206.5690  149.5430 C   0  0  0  0  0  0  0  0  0  0  0  0
  162.0250  206.8980  150.7640 C   0  0  0  0  0  0  0  0  0  0  0  0
  160.3850  205.7830  149.1990 C   0  0  0  0  0  3  0  0  0  0  0  0
  160.5480  206.2020  145.5490 F   0  0  0  0  0  0  0  0  0  0  0  0
  160.8600  206.3260  146.8600 C   0  0  0  0  0  0  0  0  0  0  0  0
  160.0780  205.6650  147.8330 C   0  0  0  0  0  3  0  0  0  0  0  0
  163.1800  207.9220  149.1800 O   0  0  0  0  0  0  0  0  0  0  0  0
  162.0480  204.0960  151.6350 C   0  0  0  0  0  2  0  0  0  0  0  0
  161.2060  202.8350  151.6360 C   0  0  0  0  0  2  0  0  0  0  0  0
  160.8390  202.5050  150.3300 O   0  0  0  0  0  1  0  0  0  0  0  0
  1  2  1  0  0  0  0
  1  3  1  0  0  0  0
  2 22  1  6  0  0  0
  2  3  1  0  0  0  0
  2 11  1  0  0  0  0
  3 28  1  6  0  0  0
  4 10  1  6  0  0  0
  4  9  1  0  0  0  0
  5 13  2  0  0  0  0
  6 12  1  0  0  0  0
  9 12  1  0  0  0  0
  9  7  2  0  0  0  0
 10  5  1  0  0  0  0
 11  6  1  1  0  0  0
 13  7  1  0  0  0  0
 13 17  1  0  0  0  0
 14 10  2  0  0  0  0
 15  8  1  1  0  0  0
 15 11  1  0  0  0  0
 15  4  1  0  0  0  0
 16 17  1  0  0  0  0
 18 22  2  0  0  0  0
 19 27  1  0  0  0  0
 19 21  1  0  0  0  0
 20 19  2  0  0  0  0
 21 22  1  0  0  0  0
 23 21  2  0  0  0  0
 24 25  1  0  0  0  0
 25 20  1  0  0  0  0
 25 26  2  0  0  0  0
 26 23  1  0  0  0  0
 27 18  1  0  0  0  0
 28 29  1  0  0  0  0
 30 29  1  0  0  0  0
M  END
>  <MODEL>
8

>  <REMARK>
 VINA RESULT:      -7.6      1.977      3.356
  Name = 
  5 active torsions:
  status: ('A' for Active; 'I' for Inactive)
    1  A    between atoms: O_13  and  C_20
    2  A    between atoms: N_15  and  C_22
    3  A    between atoms: C_16  and  C_22
    4  A    between atoms: C_24  and  C_27
    5  A    between atoms: C_25  and  C_27
                            x       y       z     vdW  Elec       q    Type
                         _______ _______ _______ _____ _____    ______ ____

>  <TORSDO>
F 5

$$$$
=
 OpenBabel11042420083D

 30 34  0  0  1  0  0  0  0  0999 V2000
  162.3080  210.4560  153.9820 C   0  0  0  0  0  2  0  0  0  0  0  0
  160.9470  209.8730  154.3440 C   0  0  2  0  0  0  0  0  0  0  0  0
  162.0200  210.0570  155.4260 C   0  0  2  0  0  3  0  0  0  0  0  0
  161.9930  206.7350  152.6490 C   0  0  1  0  0  3  0  0  0  0  0  0
  162.1060  204.9100  150.8730 N   0  0  0  0  0  0  0  0  0  0  0  0
  161.0340  207.5800  155.0530 C   0  0  0  0  0  2  0  0  0  0  0  0
  160.9030  204.5190  152.9270 C   0  0  0  0  0  3  0  0  0  0  0  0
  160.1670  208.1370  151.5740 C   0  0  0  0  0  1  0  0  0  0  0  0
  161.1760  205.7290  153.4180 C   0  0  0  0  0  0  0  0  0  0  0  0
  162.4250  206.2450  151.2900 C   0  0  0  0  0  0  0  0  0  0  0  0
  160.6720  208.4780  153.9410 N   0  0  2  0  0  0  0  0  0  0  0  0
  160.6240  206.1390  154.7460 C   0  0  0  0  0  2  0  0  0  0  0  0
  161.4060  204.0940  151.6020 C   0  0  0  0  0  0  0  0  0  0  0  0
  163.1990  206.9730  150.5570 N   0  0  0  0  0  2  0  0  0  0  0  0
  161.2640  208.0980  152.6310 C   0  0  1  0  0  3  0  0  0  0  0  0
  160.6550  202.5970  149.7860 C   0  0  0  0  0  1  0  0  0  0  0  0
  161.1290  202.8180  151.1060 O   0  0  0  0  0  0  0  0  0  0  0  0
  158.6890  210.9370  155.0370 C   0  0  0  0  0  3  0  0  0  0  0  0
  158.3350  212.2500  153.3890 C   0  0  0  0  0  0  0  0  0  0  0  0
  157.7590  213.1600  152.5050 C   0  0  0  0  0  3  0  0  0  0  0  0
  159.5500  211.6770  153.1440 C   0  0  0  0  0  0  0  0  0  0  0  0
  159.8010  210.8370  154.2030 C   0  0  0  0  0  0  0  0  0  0  0  0
  160.2780  211.9480  151.9860 C   0  0  0  0  0  3  0  0  0  0  0  0
  157.9500  214.3370  150.4370 F   0  0  0  0  0  0  0  0  0  0  0  0
  158.4700  213.4630  151.3290 C   0  0  0  0  0  0  0  0  0  0  0  0
  159.7200  212.8580  151.0710 C   0  0  0  0  0  3  0  0  0  0  0  0
  157.8380  211.8070  154.5180 O   0  0  0  0  0  0  0  0  0  0  0  0
  161.8350  211.3180  156.2630 C   0  0  0  0  0  2  0  0  0  0  0  0
  162.9790  211.4700  157.2460 C   0  0  0  0  0  2  0  0  0  0  0  0
  164.2000  211.4120  156.5700 O   0  0  0  0  0  1  0  0  0  0  0  0
  1  2  1  0  0  0  0
  1  3  1  0  0  0  0
  2 22  1  1  0  0  0
  2  3  1  0  0  0  0
  3 28  1  1  0  0  0
  4 10  1  6  0  0  0
  4  9  1  0  0  0  0
  5 10  1  0  0  0  0
  5 13  2  0  0  0  0
  7  9  2  0  0  0  0
  9 12  1  0  0  0  0
 11  2  1  0  0  0  0
 11  6  1  1  0  0  0
 12  6  1  0  0  0  0
 13  7  1  0  0  0  0
 14 10  2  0  0  0  0
 15  8  1  6  0  0  0
 15  4  1  0  0  0  0
 15 11  1  0  0  0  0
 16 17  1  0  0  0  0
 17 13  1  0  0  0  0
 19 27  1  0  0  0  0
 20 19  2  0  0  0  0
 21 19  1  0  0  0  0
 21 22  1  0  0  0  0
 22 18  2  0  0  0  0
 23 21  2  0  0  0  0
 24 25  1  0  0  0  0
 25 20  1  0  0  0  0
 26 25  2  0  0  0  0
 26 23  1  0  0  0  0
 27 18  1  0  0  0  0
 28 29  1  0  0  0  0
 30 29  1  0  0  0  0
M  END
>  <MODEL>
9

>  <REMARK>
 VINA RESULT:      -7.5      3.491      8.257
  Name = 
  5 active torsions:
  status: ('A' for Active; 'I' for Inactive)
    1  A    between atoms: O_13  and  C_20
    2  A    between atoms: N_15  and  C_22
    3  A    between atoms: C_16  and  C_22
    4  A    between atoms: C_24  and  C_27
    5  A    between atoms: C_25  and  C_27
                            x       y       z     vdW  Elec       q    Type
                         _______ _______ _______ _____ _____    ______ ____

>  <TORSDO>
F 5

$$$$
