=
 OpenBabel11042421163D

 55 59  0  0  1  0  0  0  0  0999 V2000
  159.8530  212.5810  147.5790 C   0  0  2  0  0  3  0  0  0  0  0  0
  158.4490  213.1520  147.2760 C   0  0  2  0  0  3  0  0  0  0  0  0
  157.4990  212.8800  148.3860 C   0  0  2  0  0  3  0  0  0  0  0  0
  157.4630  212.1480  147.1820 O   0  0  0  0  0  0  0  0  0  0  0  0
  156.4070  213.9390  148.3870 C   0  0  0  0  0  2  0  0  0  0  0  0
  156.1110  214.4270  149.7970 C   0  0  0  0  0  2  0  0  0  0  0  0
  157.0490  213.9030  150.6950 O   0  0  0  0  0  0  0  0  0  0  0  0
  156.6870  214.4520  151.9250 C   0  0  0  0  0  2  0  0  0  0  0  0
  157.7800  214.2030  152.9550 C   0  0  0  0  0  2  0  0  0  0  0  0
  157.1970  213.8970  154.3320 C   0  0  1  0  0  3  0  0  0  0  0  0
  155.8120  213.7350  154.2340 O   0  0  0  0  0  1  0  0  0  0  0  0
  159.3280  212.5800  154.6770 C   0  0  0  0  0  1  0  0  0  0  0  0
  157.8370  212.6640  154.9670 C   0  0  2  0  0  3  0  0  0  0  0  0
  157.2100  211.5070  154.5010 O   0  0  0  0  0  1  0  0  0  0  0  0
  160.2510  214.1840  149.3220 O   0  0  0  0  0  1  0  0  0  0  0  0
  160.8410  213.5710  148.2180 C   0  0  1  0  0  3  0  0  0  0  0  0
  162.1120  212.8630  148.6610 C   0  0  0  0  0  2  0  0  0  0  0  0
  162.0640  209.4590  150.2940 C   0  0  1  0  0  3  0  0  0  0  0  0
  162.2940  210.3320  149.0370 C   0  0  0  0  0  2  0  0  0  0  0  0
  161.3980  210.3020  151.2830 N   0  0  0  0  0  2  0  0  0  0  0  0
  161.7960  211.6510  149.3930 N   0  0  0  0  0  0  0  0  0  0  0  0
  160.8440  212.5830  151.3310 O   0  0  0  0  0  0  0  0  0  0  0  0
  161.3050  211.5900  150.7130 C   0  0  0  0  0  0  0  0  0  0  0  0
  161.2510  208.2430  149.9940 C   0  0  0  0  0  3  0  0  0  0  0  0
  161.3380  207.5900  148.8390 C   0  0  0  0  0  3  0  0  0  0  0  0
  161.5060  204.0100  148.7210 C   0  0  0  0  0  3  0  0  0  0  0  0
  160.5070  206.4140  148.6250 C   0  0  0  0  0  3  0  0  0  0  0  0
  161.0220  205.2200  148.6690 C   0  0  0  0  0  0  0  0  0  0  0  0
  160.6240  202.7960  148.8780 C   0  0  1  0  0  3  0  0  0  0  0  0
  159.5060  201.1440  147.5340 O   0  0  0  0  0  1  0  0  0  0  0  0
  161.7500  200.6380  148.1270 C   0  0  0  0  0  1  0  0  0  0  0  0
  161.1770  202.3470  146.5860 O   0  0  0  0  0  1  0  0  0  0  0  0
  160.7530  201.7310  147.7640 C   0  0  0  0  0  0  0  0  0  0  0  0
  160.5610  202.2500  150.3120 C   0  0  0  0  0  2  0  0  0  0  0  0
  161.4840  202.9860  151.2730 C   0  0  0  0  0  2  0  0  0  0  0  0
  161.3090  205.1620  152.4340 C   0  0  0  0  0  1  0  0  0  0  0  0
  160.6590  203.8060  152.2420 C   0  0  0  0  0  2  0  0  0  0  0  0
  160.4000  212.0150  146.4170 O   0  0  0  0  0  0  0  0  0  0  0  0
  161.1610  213.0300  145.8280 C   0  0  0  0  0  2  0  0  0  0  0  0
  162.3190  213.3520  143.5350 C   0  0  0  0  0  2  0  0  0  0  0  0
  161.1370  212.8920  144.3440 C   0  0  0  0  0  0  0  0  0  0  0  0
  162.4500  212.5430  142.2370 C   0  0  0  0  0  2  0  0  0  0  0  0
  160.0270  212.4730  143.7290 C   0  0  0  0  0  3  0  0  0  0  0  0
  159.9930  212.3130  142.2640 C   0  0  0  0  0  3  0  0  0  0  0  0
  161.1170  212.3960  141.5430 C   0  0  0  0  0  0  0  0  0  0  0  0
  161.5960  208.9890  138.4550 C   0  0  0  0  0  3  0  0  0  0  0  0
  159.3020  208.4950  137.7780 C   0  0  0  0  0  3  0  0  0  0  0  0
  161.1260  210.1820  139.0030 C   0  0  0  0  0  0  0  0  0  0  0  0
  159.8070  210.5330  138.9540 C   0  0  0  0  0  0  0  0  0  0  0  0
  161.8780  211.1400  139.6450 O   0  0  0  0  0  0  0  0  0  0  0  0
  160.6660  208.1400  137.8330 C   0  0  0  0  0  3  0  0  0  0  0  0
  159.6080  211.8480  139.6190 C   0  0  0  0  0  2  0  0  0  0  0  0
  158.8620  209.7030  138.3430 C   0  0  0  0  0  0  0  0  0  0  0  0
  161.0410  212.2200  140.0610 C   0  0  1  0  0  3  0  0  0  0  0  0
  157.1620  210.1350  138.2850 Cl  0  0  0  0  0  0  0  0  0  0  0  0
  1 38  1  6  0  0  0
  1 16  1  0  0  0  0
  2  1  1  1  0  0  0
  2  3  1  0  0  0  0
  3  5  1  6  0  0  0
  4  2  1  0  0  0  0
  4  3  1  0  0  0  0
  5  6  1  0  0  0  0
  6  7  1  0  0  0  0
  7  8  1  0  0  0  0
  8  9  1  0  0  0  0
  9 10  1  0  0  0  0
 10 11  1  6  0  0  0
 10 13  1  0  0  0  0
 13 12  1  6  0  0  0
 14 13  1  0  0  0  0
 16 17  1  0  0  0  0
 16 15  1  1  0  0  0
 17 21  1  0  0  0  0
 18 24  1  6  0  0  0
 18 20  1  0  0  0  0
 19 21  1  0  0  0  0
 19 18  1  0  0  0  0
 21 23  1  0  0  0  0
 23 20  1  0  0  0  0
 23 22  2  0  0  0  0
 25 24  2  0  0  0  0
 27 28  2  0  0  0  0
 27 25  1  0  0  0  0
 28 26  2  0  0  0  0
 29 26  1  1  0  0  0
 29 34  1  0  0  0  0
 30 33  1  0  0  0  0
 32 33  1  0  0  0  0
 33 31  1  0  0  0  0
 33 29  1  0  0  0  0
 34 35  1  0  0  0  0
 35 37  1  0  0  0  0
 37 36  1  0  0  0  0
 39 38  1  0  0  0  0
 40 41  1  0  0  0  0
 41 39  1  0  0  0  0
 42 40  1  0  0  0  0
 43 41  2  0  0  0  0
 44 43  1  0  0  0  0
 45 42  1  0  0  0  0
 45 44  2  0  0  0  0
 46 48  1  0  0  0  0
 47 51  1  0  0  0  0
 47 53  2  0  0  0  0
 48 50  1  0  0  0  0
 49 48  2  0  0  0  0
 49 52  1  0  0  0  0
 50 54  1  0  0  0  0
 51 46  2  0  0  0  0
 52 54  1  0  0  0  0
 53 49  1  0  0  0  0
 54 45  1  1  0  0  0
 55 53  1  0  0  0  0
M  END
>  <MODEL>
1

>  <REMARK>
 VINA RESULT:      -6.4      0.000      0.000
  Name = 
  22 active torsions:
  status: ('A' for Active; 'I' for Inactive)
    1  A    between atoms: C_2  and  C_22
    2  A    between atoms: C_3  and  O_18
    3  A    between atoms: C_3  and  C_25
    4  A    between atoms: C_3  and  C_53
    5  A    between atoms: C_4  and  C_7
    6  A    between atoms: C_5  and  N_16
    7  A    between atoms: C_5  and  C_53
    8  A    between atoms: C_11  and  C_14
    9  A    between atoms: C_12  and  C_17
   10  A    between atoms: C_12  and  C_45
   11  A    between atoms: C_14  and  O_18
   12  A    between atoms: C_17  and  C_26
   13  A    between atoms: C_19  and  C_38
   14  A    between atoms: C_22  and  C_48
   15  A    between atoms: C_22  and  C_54
   16  A    between atoms: C_26  and  O_31
   17  A    between atoms: O_31  and  C_44
   18  A    between atoms: C_33  and  C_39
   19  A    between atoms: C_35  and  C_52
   20  A    between atoms: C_39  and  C_44
   21  A    between atoms: C_40  and  C_41
   22  A    between atoms: C_40  and  C_54
                            x       y       z     vdW  Elec       q    Type
                         _______ _______ _______ _____ _____    ______ ____

>  <TORSDO>
F 22

$$$$
=
 OpenBabel11042421163D

 55 59  0  0  1  0  0  0  0  0999 V2000
  161.2630  205.0840  151.2220 C   0  0  2  0  0  3  0  0  0  0  0  0
  161.6300  203.6010  150.9870 C   0  0  2  0  0  3  0  0  0  0  0  0
  160.4250  202.7800  150.7050 C   0  0  2  0  0  3  0  0  0  0  0  0
  161.0690  202.7430  151.9570 O   0  0  0  0  0  0  0  0  0  0  0  0
  160.8220  201.5670  149.8760 C   0  0  0  0  0  2  0  0  0  0  0  0
  161.1730  201.9620  148.4500 C   0  0  0  0  0  2  0  0  0  0  0  0
  160.2820  201.3610  147.5510 O   0  0  0  0  0  0  0  0  0  0  0  0
  160.8460  201.6050  146.2980 C   0  0  0  0  0  2  0  0  0  0  0  0
  161.4640  202.9950  146.2620 C   0  0  0  0  0  2  0  0  0  0  0  0
  161.1140  203.7330  144.9720 C   0  0  1  0  0  3  0  0  0  0  0  0
  159.7760  203.5010  144.6420 O   0  0  0  0  0  1  0  0  0  0  0  0
  160.1140  206.0330  145.2950 C   0  0  0  0  0  1  0  0  0  0  0  0
  161.3890  205.2320  145.0730 C   0  0  2  0  0  3  0  0  0  0  0  0
  162.0200  205.6800  143.9120 O   0  0  0  0  0  1  0  0  0  0  0  0
  160.5300  205.3300  148.9490 O   0  0  0  0  0  1  0  0  0  0  0  0
  161.2480  205.9640  149.9600 C   0  0  1  0  0  3  0  0  0  0  0  0
  160.6160  207.3170  150.2480 C   0  0  0  0  0  2  0  0  0  0  0  0
  162.4070  210.4340  149.0930 C   0  0  1  0  0  3  0  0  0  0  0  0
  161.2350  209.7760  149.8610 C   0  0  0  0  0  2  0  0  0  0  0  0
  163.0400  209.3840  148.3000 N   0  0  0  0  0  2  0  0  0  0  0  0
  161.2930  208.3660  149.5100 N   0  0  0  0  0  0  0  0  0  0  0  0
  162.7130  207.0630  148.1620 O   0  0  0  0  0  0  0  0  0  0  0  0
  162.3700  208.1830  148.6180 C   0  0  0  0  0  0  0  0  0  0  0  0
  161.9490  211.5580  148.2220 C   0  0  0  0  0  3  0  0  0  0  0  0
  162.7920  212.3070  147.5170 C   0  0  0  0  0  3  0  0  0  0  0  0
  160.7490  212.9020  144.6310 C   0  0  0  0  0  3  0  0  0  0  0  0
  162.2640  213.3840  146.6950 C   0  0  0  0  0  3  0  0  0  0  0  0
  161.5140  213.1270  145.6620 C   0  0  0  0  0  0  0  0  0  0  0  0
  159.9000  213.9820  144.0060 C   0  0  1  0  0  3  0  0  0  0  0  0
  160.5360  214.4530  141.7350 O   0  0  0  0  0  1  0  0  0  0  0  0
  158.1990  214.3250  142.1410 C   0  0  0  0  0  1  0  0  0  0  0  0
  159.6230  212.4300  142.1960 O   0  0  0  0  0  1  0  0  0  0  0  0
  159.5780  213.7890  142.5060 C   0  0  0  0  0  0  0  0  0  0  0  0
  158.7250  214.4400  144.8830 C   0  0  0  0  0  2  0  0  0  0  0  0
  158.1870  213.3380  145.7850 C   0  0  0  0  0  2  0  0  0  0  0  0
  157.1650  213.2950  148.0360 C   0  0  0  0  0  1  0  0  0  0  0  0
  158.3760  213.7310  147.2350 C   0  0  0  0  0  2  0  0  0  0  0  0
  162.1040  205.6360  152.2010 O   0  0  0  0  0  0  0  0  0  0  0  0
  161.4050  205.5130  153.4070 C   0  0  0  0  0  2  0  0  0  0  0  0
  160.5250  207.0010  155.3350 C   0  0  0  0  0  2  0  0  0  0  0  0
  161.0480  206.8620  153.9310 C   0  0  0  0  0  0  0  0  0  0  0  0
  160.8770  208.3730  155.9240 C   0  0  0  0  0  2  0  0  0  0  0  0
  161.0800  207.9240  153.1200 C   0  0  0  0  0  3  0  0  0  0  0  0
  160.7470  209.2670  153.6270 C   0  0  0  0  0  3  0  0  0  0  0  0
  160.5970  209.4830  154.9390 C   0  0  0  0  0  0  0  0  0  0  0  0
  159.0530  213.4590  153.1540 C   0  0  0  0  0  3  0  0  0  0  0  0
  156.7300  213.5640  153.8990 C   0  0  0  0  0  3  0  0  0  0  0  0
  159.2640  212.4640  154.1080 C   0  0  0  0  0  0  0  0  0  0  0  0
  158.2650  212.0230  154.9290 C   0  0  0  0  0  0  0  0  0  0  0  0
  160.4480  211.8080  154.3580 O   0  0  0  0  0  0  0  0  0  0  0  0
  157.7670  214.0140  153.0550 C   0  0  0  0  0  3  0  0  0  0  0  0
  158.7840  210.9640  155.8330 C   0  0  0  0  0  2  0  0  0  0  0  0
  156.9760  212.5590  154.8480 C   0  0  0  0  0  0  0  0  0  0  0  0
  160.2680  210.8620  155.4130 C   0  0  1  0  0  3  0  0  0  0  0  0
  155.6800  211.9910  155.8860 Cl  0  0  0  0  0  0  0  0  0  0  0  0
  1 38  1  1  0  0  0
  2  1  1  1  0  0  0
  2  4  1  0  0  0  0
  3  5  1  6  0  0  0
  3  2  1  0  0  0  0
  3  4  1  0  0  0  0
  6  5  1  0  0  0  0
  7  6  1  0  0  0  0
  8  7  1  0  0  0  0
  9  8  1  0  0  0  0
 10 11  1  1  0  0  0
 10 13  1  0  0  0  0
 10  9  1  0  0  0  0
 13 12  1  6  0  0  0
 14 13  1  0  0  0  0
 16 15  1  6  0  0  0
 16 17  1  0  0  0  0
 16  1  1  0  0  0  0
 18 24  1  6  0  0  0
 18 19  1  0  0  0  0
 20 23  1  0  0  0  0
 20 18  1  0  0  0  0
 21 19  1  0  0  0  0
 21 17  1  0  0  0  0
 22 23  2  0  0  0  0
 23 21  1  0  0  0  0
 25 24  2  0  0  0  0
 26 28  2  0  0  0  0
 27 25  1  0  0  0  0
 28 27  2  0  0  0  0
 29 26  1  1  0  0  0
 29 34  1  0  0  0  0
 30 33  1  0  0  0  0
 31 33  1  0  0  0  0
 32 33  1  0  0  0  0
 33 29  1  0  0  0  0
 34 35  1  0  0  0  0
 35 37  1  0  0  0  0
 37 36  1  0  0  0  0
 38 39  1  0  0  0  0
 39 41  1  0  0  0  0
 40 42  1  0  0  0  0
 41 40  1  0  0  0  0
 43 44  1  0  0  0  0
 43 41  2  0  0  0  0
 44 45  2  0  0  0  0
 45 42  1  0  0  0  0
 46 48  1  0  0  0  0
 47 53  2  0  0  0  0
 48 50  1  0  0  0  0
 48 49  2  0  0  0  0
 49 52  1  0  0  0  0
 50 54  1  0  0  0  0
 51 46  2  0  0  0  0
 51 47  1  0  0  0  0
 53 49  1  0  0  0  0
 53 55  1  0  0  0  0
 54 45  1  6  0  0  0
 54 52  1  0  0  0  0
M  END
>  <MODEL>
2

>  <REMARK>
 VINA RESULT:      -5.7      3.879     12.063
  Name = 
  22 active torsions:
  status: ('A' for Active; 'I' for Inactive)
    1  A    between atoms: C_2  and  C_22
    2  A    between atoms: C_3  and  O_18
    3  A    between atoms: C_3  and  C_25
    4  A    between atoms: C_3  and  C_53
    5  A    between atoms: C_4  and  C_7
    6  A    between atoms: C_5  and  N_16
    7  A    between atoms: C_5  and  C_53
    8  A    between atoms: C_11  and  C_14
    9  A    between atoms: C_12  and  C_17
   10  A    between atoms: C_12  and  C_45
   11  A    between atoms: C_14  and  O_18
   12  A    between atoms: C_17  and  C_26
   13  A    between atoms: C_19  and  C_38
   14  A    between atoms: C_22  and  C_48
   15  A    between atoms: C_22  and  C_54
   16  A    between atoms: C_26  and  O_31
   17  A    between atoms: O_31  and  C_44
   18  A    between atoms: C_33  and  C_39
   19  A    between atoms: C_35  and  C_52
   20  A    between atoms: C_39  and  C_44
   21  A    between atoms: C_40  and  C_41
   22  A    between atoms: C_40  and  C_54
                            x       y       z     vdW  Elec       q    Type
                         _______ _______ _______ _____ _____    ______ ____

>  <TORSDO>
F 22

$$$$
=
 OpenBabel11042421163D

 55 59  0  0  1  0  0  0  0  0999 V2000
  161.5030  206.7170  150.0940 C   0  0  2  0  0  3  0  0  0  0  0  0
  161.6460  205.2110  150.4120 C   0  0  2  0  0  3  0  0  0  0  0  0
  160.8480  204.8280  151.6050 C   0  0  2  0  0  3  0  0  0  0  0  0
  162.2480  204.9770  151.6660 O   0  0  0  0  0  0  0  0  0  0  0  0
  160.4810  203.3550  151.5160 C   0  0  0  0  0  2  0  0  0  0  0  0
  161.1790  202.6800  150.3460 C   0  0  0  0  0  2  0  0  0  0  0  0
  160.4460  202.8770  149.1690 O   0  0  0  0  0  0  0  0  0  0  0  0
  159.9810  201.6030  148.8400 C   0  0  0  0  0  2  0  0  0  0  0  0
  161.1510  200.6800  148.5310 C   0  0  0  0  0  2  0  0  0  0  0  0
  161.5020  200.6940  147.0450 C   0  0  1  0  0  3  0  0  0  0  0  0
  161.5480  199.3850  146.5570 O   0  0  0  0  0  1  0  0  0  0  0  0
  159.9940  200.7850  145.0170 C   0  0  0  0  0  1  0  0  0  0  0  0
  160.5220  201.5360  146.2300 C   0  0  2  0  0  3  0  0  0  0  0  0
  161.1400  202.7150  145.8110 O   0  0  0  0  0  1  0  0  0  0  0  0
  162.1660  208.3000  148.4150 O   0  0  0  0  0  1  0  0  0  0  0  0
  161.5250  207.0770  148.5980 C   0  0  1  0  0  3  0  0  0  0  0  0
  162.2490  206.0090  147.7920 C   0  0  0  0  0  2  0  0  0  0  0  0
  161.7130  205.4510  144.0960 C   0  0  1  0  0  3  0  0  0  0  0  0
  162.6780  205.5890  145.2990 C   0  0  0  0  0  2  0  0  0  0  0  0
  160.4010  205.9050  144.5490 N   0  0  0  0  0  2  0  0  0  0  0  0
  161.8540  206.0630  146.3980 N   0  0  0  0  0  0  0  0  0  0  0  0
  159.5690  206.5660  146.6430 O   0  0  0  0  0  0  0  0  0  0  0  0
  160.5350  206.2120  145.9200 C   0  0  0  0  0  0  0  0  0  0  0  0
  162.1710  206.2390  142.9130 C   0  0  0  0  0  3  0  0  0  0  0  0
  161.8000  205.9470  141.6700 C   0  0  0  0  0  3  0  0  0  0  0  0
  161.3890  209.1710  140.1560 C   0  0  0  0  0  3  0  0  0  0  0  0
  162.2940  206.7640  140.5720 C   0  0  0  0  0  3  0  0  0  0  0  0
  161.8260  207.9620  140.3720 C   0  0  0  0  0  0  0  0  0  0  0  0
  162.1330  210.1540  139.2860 C   0  0  1  0  0  3  0  0  0  0  0  0
  161.0690  209.5120  137.2260 O   0  0  0  0  0  1  0  0  0  0  0  0
  162.2050  211.5980  137.1890 C   0  0  0  0  0  1  0  0  0  0  0  0
  160.1920  211.2470  138.3930 O   0  0  0  0  0  1  0  0  0  0  0  0
  161.3810  210.6210  138.0180 C   0  0  0  0  0  0  0  0  0  0  0  0
  162.8620  211.2560  140.0680 C   0  0  0  0  0  2  0  0  0  0  0  0
  162.1060  211.7060  141.3100 C   0  0  0  0  0  2  0  0  0  0  0  0
  162.9990  213.9530  141.8310 C   0  0  0  0  0  1  0  0  0  0  0  0
  161.8340  213.1940  141.2290 C   0  0  0  0  0  2  0  0  0  0  0  0
  162.4750  207.4480  150.7940 O   0  0  0  0  0  0  0  0  0  0  0  0
  161.8770  207.7980  152.0100 C   0  0  0  0  0  2  0  0  0  0  0  0
  162.1590  210.2410  151.1980 C   0  0  0  0  0  2  0  0  0  0  0  0
  161.3720  209.1990  151.9460 C   0  0  0  0  0  0  0  0  0  0  0  0
  161.2400  211.3370  150.6420 C   0  0  0  0  0  2  0  0  0  0  0  0
  160.2900  209.5530  152.6480 C   0  0  0  0  0  3  0  0  0  0  0  0
  159.7680  210.9300  152.5810 C   0  0  0  0  0  3  0  0  0  0  0  0
  160.2420  211.7960  151.6780 C   0  0  0  0  0  0  0  0  0  0  0  0
  156.5670  213.9660  149.8990 C   0  0  0  0  0  3  0  0  0  0  0  0
  155.1300  214.3520  151.8360 C   0  0  0  0  0  3  0  0  0  0  0  0
  157.6100  213.7020  150.7870 C   0  0  0  0  0  0  0  0  0  0  0  0
  157.4410  213.7530  152.1410 C   0  0  0  0  0  0  0  0  0  0  0  0
  158.9030  213.3670  150.4530 O   0  0  0  0  0  0  0  0  0  0  0  0
  155.3130  214.2970  150.4390 C   0  0  0  0  0  3  0  0  0  0  0  0
  158.7200  213.4250  152.8230 C   0  0  0  0  0  2  0  0  0  0  0  0
  156.2020  214.0780  152.7010 C   0  0  0  0  0  0  0  0  0  0  0  0
  159.6800  213.1800  151.6370 C   0  0  1  0  0  3  0  0  0  0  0  0
  155.9670  214.1330  154.4390 Cl  0  0  0  0  0  0  0  0  0  0  0  0
  1 38  1  1  0  0  0
  2  1  1  1  0  0  0
  2  3  1  0  0  0  0
  2  4  1  0  0  0  0
  3  5  1  6  0  0  0
  3  4  1  0  0  0  0
  6  5  1  0  0  0  0
  7  6  1  0  0  0  0
  8  7  1  0  0  0  0
  9  8  1  0  0  0  0
 10 11  1  6  0  0  0
 10  9  1  0  0  0  0
 13 12  1  6  0  0  0
 13 10  1  0  0  0  0
 14 13  1  0  0  0  0
 16 15  1  1  0  0  0
 16  1  1  0  0  0  0
 17 16  1  0  0  0  0
 18 24  1  6  0  0  0
 18 20  1  0  0  0  0
 18 19  1  0  0  0  0
 19 21  1  0  0  0  0
 20 23  1  0  0  0  0
 21 17  1  0  0  0  0
 23 21  1  0  0  0  0
 23 22  2  0  0  0  0
 25 24  2  0  0  0  0
 26 28  2  0  0  0  0
 27 25  1  0  0  0  0
 28 27  2  0  0  0  0
 29 34  1  1  0  0  0
 29 26  1  0  0  0  0
 30 33  1  0  0  0  0
 31 33  1  0  0  0  0
 33 32  1  0  0  0  0
 33 29  1  0  0  0  0
 34 35  1  0  0  0  0
 37 35  1  0  0  0  0
 37 36  1  0  0  0  0
 38 39  1  0  0  0  0
 40 41  1  0  0  0  0
 41 39  1  0  0  0  0
 41 43  2  0  0  0  0
 42 40  1  0  0  0  0
 42 45  1  0  0  0  0
 44 43  1  0  0  0  0
 45 44  2  0  0  0  0
 46 51  2  0  0  0  0
 46 48  1  0  0  0  0
 47 53  2  0  0  0  0
 48 49  2  0  0  0  0
 49 53  1  0  0  0  0
 49 52  1  0  0  0  0
 50 48  1  0  0  0  0
 50 54  1  0  0  0  0
 51 47  1  0  0  0  0
 53 55  1  0  0  0  0
 54 45  1  1  0  0  0
 54 52  1  0  0  0  0
M  END
>  <MODEL>
3

>  <REMARK>
 VINA RESULT:      -4.9      3.591     11.551
  Name = 
  22 active torsions:
  status: ('A' for Active; 'I' for Inactive)
    1  A    between atoms: C_2  and  C_22
    2  A    between atoms: C_3  and  O_18
    3  A    between atoms: C_3  and  C_25
    4  A    between atoms: C_3  and  C_53
    5  A    between atoms: C_4  and  C_7
    6  A    between atoms: C_5  and  N_16
    7  A    between atoms: C_5  and  C_53
    8  A    between atoms: C_11  and  C_14
    9  A    between atoms: C_12  and  C_17
   10  A    between atoms: C_12  and  C_45
   11  A    between atoms: C_14  and  O_18
   12  A    between atoms: C_17  and  C_26
   13  A    between atoms: C_19  and  C_38
   14  A    between atoms: C_22  and  C_48
   15  A    between atoms: C_22  and  C_54
   16  A    between atoms: C_26  and  O_31
   17  A    between atoms: O_31  and  C_44
   18  A    between atoms: C_33  and  C_39
   19  A    between atoms: C_35  and  C_52
   20  A    between atoms: C_39  and  C_44
   21  A    between atoms: C_40  and  C_41
   22  A    between atoms: C_40  and  C_54
                            x       y       z     vdW  Elec       q    Type
                         _______ _______ _______ _____ _____    ______ ____

>  <TORSDO>
F 22

$$$$
=
 OpenBabel11042421163D

 55 59  0  0  1  0  0  0  0  0999 V2000
  159.3870  213.5230  148.0390 C   0  0  2  0  0  3  0  0  0  0  0  0
  158.3660  214.1810  148.9960 C   0  0  2  0  0  3  0  0  0  0  0  0
  157.7690  213.1850  149.9230 C   0  0  2  0  0  3  0  0  0  0  0  0
  157.0580  213.6870  148.8150 O   0  0  0  0  0  0  0  0  0  0  0  0
  157.3190  213.8870  151.1960 C   0  0  0  0  0  2  0  0  0  0  0  0
  158.0430  213.3390  152.4160 C   0  0  0  0  0  2  0  0  0  0  0  0
  158.3150  211.9760  152.2420 O   0  0  0  0  0  0  0  0  0  0  0  0
  158.3210  211.4630  153.5400 C   0  0  0  0  0  2  0  0  0  0  0  0
  159.5680  211.9220  154.2810 C   0  0  0  0  0  2  0  0  0  0  0  0
  159.6490  211.3100  155.6780 C   0  0  1  0  0  3  0  0  0  0  0  0
  158.4050  210.7850  156.0380 O   0  0  0  0  0  1  0  0  0  0  0  0
  162.0320  210.6750  155.1150 C   0  0  0  0  0  1  0  0  0  0  0  0
  160.7330  210.2370  155.7750 C   0  0  2  0  0  3  0  0  0  0  0  0
  160.2880  209.0560  155.1810 O   0  0  0  0  0  1  0  0  0  0  0  0
  161.0590  214.4530  149.4900 O   0  0  0  0  0  1  0  0  0  0  0  0
  160.8360  214.0170  148.1850 C   0  0  1  0  0  3  0  0  0  0  0  0
  161.8250  212.9090  147.8540 C   0  0  0  0  0  2  0  0  0  0  0  0
  162.1860  209.7600  149.9050 C   0  0  1  0  0  3  0  0  0  0  0  0
  162.1880  210.4600  148.5250 C   0  0  0  0  0  2  0  0  0  0  0  0
  161.6270  210.7080  150.8630 N   0  0  0  0  0  2  0  0  0  0  0  0
  161.6790  211.7990  148.7760 N   0  0  0  0  0  0  0  0  0  0  0  0
  160.9700  212.9560  150.6970 O   0  0  0  0  0  0  0  0  0  0  0  0
  161.3870  211.9030  150.1510 C   0  0  0  0  0  0  0  0  0  0  0  0
  161.4000  208.4890  149.8910 C   0  0  0  0  0  3  0  0  0  0  0  0
  161.2250  207.7670  148.7870 C   0  0  0  0  0  3  0  0  0  0  0  0
  161.5870  204.2120  149.0870 C   0  0  0  0  0  3  0  0  0  0  0  0
  160.4440  206.5420  148.8590 C   0  0  0  0  0  3  0  0  0  0  0  0
  161.0290  205.3850  148.9650 C   0  0  0  0  0  0  0  0  0  0  0  0
  160.8140  202.9960  149.5360 C   0  0  1  0  0  3  0  0  0  0  0  0
  161.5100  200.7840  148.8970 O   0  0  0  0  0  1  0  0  0  0  0  0
  161.1480  202.3020  147.1070 C   0  0  0  0  0  1  0  0  0  0  0  0
  159.3860  201.4190  148.4250 O   0  0  0  0  0  1  0  0  0  0  0  0
  160.7090  201.8560  148.4960 C   0  0  0  0  0  0  0  0  0  0  0  0
  161.1210  202.5540  150.9740 C   0  0  0  0  0  2  0  0  0  0  0  0
  160.3550  203.3510  152.0200 C   0  0  0  0  0  2  0  0  0  0  0  0
  161.1220  205.6590  152.4680 C   0  0  0  0  0  1  0  0  0  0  0  0
  161.3200  204.1990  152.8220 C   0  0  0  0  0  2  0  0  0  0  0  0
  158.9510  213.6530  146.7110 O   0  0  0  0  0  0  0  0  0  0  0  0
  159.9430  214.3950  146.0610 C   0  0  0  0  0  2  0  0  0  0  0  0
  158.6470  213.5640  143.9800 C   0  0  0  0  0  2  0  0  0  0  0  0
  159.8950  214.1380  144.5940 C   0  0  0  0  0  0  0  0  0  0  0  0
  158.4920  214.0110  142.5200 C   0  0  0  0  0  2  0  0  0  0  0  0
  160.9920  214.3050  143.8490 C   0  0  0  0  0  3  0  0  0  0  0  0
  160.9560  214.0720  142.3940 C   0  0  0  0  0  3  0  0  0  0  0  0
  159.7920  213.8810  141.7630 C   0  0  0  0  0  0  0  0  0  0  0  0
  162.8020  212.6320  138.4830 C   0  0  0  0  0  3  0  0  0  0  0  0
  162.1800  210.3260  137.9750 C   0  0  0  0  0  3  0  0  0  0  0  0
  161.5720  212.7710  139.1260 C   0  0  0  0  0  0  0  0  0  0  0  0
  160.6740  211.7450  139.2040 C   0  0  0  0  0  0  0  0  0  0  0  0
  161.0980  213.9030  139.7490 O   0  0  0  0  0  0  0  0  0  0  0  0
  163.1020  211.3900  137.9000 C   0  0  0  0  0  3  0  0  0  0  0  0
  159.4640  212.1860  139.9460 C   0  0  0  0  0  2  0  0  0  0  0  0
  160.9510  210.4990  138.6330 C   0  0  0  0  0  0  0  0  0  0  0  0
  159.7970  213.6570  140.2850 C   0  0  1  0  0  3  0  0  0  0  0  0
  159.8130  209.1680  138.7380 Cl  0  0  0  0  0  0  0  0  0  0  0  0
  1 38  1  6  0  0  0
  1 16  1  0  0  0  0
  2  1  1  6  0  0  0
  2  3  1  0  0  0  0
  3  5  1  1  0  0  0
  4  2  1  0  0  0  0
  4  3  1  0  0  0  0
  5  6  1  0  0  0  0
  7  6  1  0  0  0  0
  7  8  1  0  0  0  0
  8  9  1  0  0  0  0
  9 10  1  0  0  0  0
 10 13  1  0  0  0  0
 10 11  1  6  0  0  0
 13 12  1  6  0  0  0
 14 13  1  0  0  0  0
 16 15  1  1  0  0  0
 17 16  1  0  0  0  0
 17 21  1  0  0  0  0
 18 24  1  6  0  0  0
 18 20  1  0  0  0  0
 19 21  1  0  0  0  0
 19 18  1  0  0  0  0
 21 23  1  0  0  0  0
 23 22  2  0  0  0  0
 23 20  1  0  0  0  0
 25 27  1  0  0  0  0
 25 24  2  0  0  0  0
 27 28  2  0  0  0  0
 28 26  2  0  0  0  0
 29 26  1  6  0  0  0
 29 34  1  0  0  0  0
 31 33  1  0  0  0  0
 32 33  1  0  0  0  0
 33 30  1  0  0  0  0
 33 29  1  0  0  0  0
 34 35  1  0  0  0  0
 35 37  1  0  0  0  0
 36 37  1  0  0  0  0
 39 38  1  0  0  0  0
 40 41  1  0  0  0  0
 41 39  1  0  0  0  0
 42 40  1  0  0  0  0
 43 41  2  0  0  0  0
 44 43  1  0  0  0  0
 45 44  2  0  0  0  0
 45 42  1  0  0  0  0
 46 48  1  0  0  0  0
 47 53  2  0  0  0  0
 48 49  2  0  0  0  0
 48 50  1  0  0  0  0
 49 52  1  0  0  0  0
 50 54  1  0  0  0  0
 51 47  1  0  0  0  0
 51 46  2  0  0  0  0
 52 54  1  0  0  0  0
 53 55  1  0  0  0  0
 53 49  1  0  0  0  0
 54 45  1  1  0  0  0
M  END
>  <MODEL>
4

>  <REMARK>
 VINA RESULT:      -4.7      1.637      2.340
  Name = 
  22 active torsions:
  status: ('A' for Active; 'I' for Inactive)
    1  A    between atoms: C_2  and  C_22
    2  A    between atoms: C_3  and  O_18
    3  A    between atoms: C_3  and  C_25
    4  A    between atoms: C_3  and  C_53
    5  A    between atoms: C_4  and  C_7
    6  A    between atoms: C_5  and  N_16
    7  A    between atoms: C_5  and  C_53
    8  A    between atoms: C_11  and  C_14
    9  A    between atoms: C_12  and  C_17
   10  A    between atoms: C_12  and  C_45
   11  A    between atoms: C_14  and  O_18
   12  A    between atoms: C_17  and  C_26
   13  A    between atoms: C_19  and  C_38
   14  A    between atoms: C_22  and  C_48
   15  A    between atoms: C_22  and  C_54
   16  A    between atoms: C_26  and  O_31
   17  A    between atoms: O_31  and  C_44
   18  A    between atoms: C_33  and  C_39
   19  A    between atoms: C_35  and  C_52
   20  A    between atoms: C_39  and  C_44
   21  A    between atoms: C_40  and  C_41
   22  A    between atoms: C_40  and  C_54
                            x       y       z     vdW  Elec       q    Type
                         _______ _______ _______ _____ _____    ______ ____

>  <TORSDO>
F 22

$$$$
=
 OpenBabel11042421163D

 55 59  0  0  1  0  0  0  0  0999 V2000
  162.1210  207.8110  148.9420 C   0  0  2  0  0  3  0  0  0  0  0  0
  161.5530  209.2470  148.8950 C   0  0  2  0  0  3  0  0  0  0  0  0
  162.6100  210.2410  148.5770 C   0  0  2  0  0  3  0  0  0  0  0  0
  162.1100  210.0840  149.8850 O   0  0  0  0  0  0  0  0  0  0  0  0
  161.9770  211.4580  147.9170 C   0  0  0  0  0  2  0  0  0  0  0  0
  162.9740  212.5990  147.7880 C   0  0  0  0  0  2  0  0  0  0  0  0
  162.3660  213.8110  148.1370 O   0  0  0  0  0  0  0  0  0  0  0  0
  162.0230  214.3850  146.9130 C   0  0  0  0  0  2  0  0  0  0  0  0
  160.8670  213.6230  146.2810 C   0  0  0  0  0  2  0  0  0  0  0  0
  160.7080  213.9660  144.8010 C   0  0  1  0  0  3  0  0  0  0  0  0
  161.5430  213.1500  144.0330 O   0  0  0  0  0  1  0  0  0  0  0  0
  158.3670  213.2190  145.3970 C   0  0  0  0  0  1  0  0  0  0  0  0
  159.2590  213.8430  144.3340 C   0  0  2  0  0  3  0  0  0  0  0  0
  159.1980  213.0750  143.1700 O   0  0  0  0  0  1  0  0  0  0  0  0
  160.4230  207.1270  147.3890 O   0  0  0  0  0  1  0  0  0  0  0  0
  161.1480  206.7040  148.5010 C   0  0  1  0  0  3  0  0  0  0  0  0
  161.8970  205.4270  148.1530 C   0  0  0  0  0  2  0  0  0  0  0  0
  162.4730  205.1980  144.4290 C   0  0  1  0  0  3  0  0  0  0  0  0
  162.3880  206.0540  145.7150 C   0  0  0  0  0  2  0  0  0  0  0  0
  161.9160  203.8880  144.7520 N   0  0  0  0  0  2  0  0  0  0  0  0
  161.8360  205.1690  146.7270 N   0  0  0  0  0  0  0  0  0  0  0  0
  161.1600  202.9160  146.7510 O   0  0  0  0  0  0  0  0  0  0  0  0
  161.5970  203.9160  146.1270 C   0  0  0  0  0  0  0  0  0  0  0  0
  161.7410  205.8230  143.2870 C   0  0  0  0  0  3  0  0  0  0  0  0
  162.3020  206.0200  142.0980 C   0  0  0  0  0  3  0  0  0  0  0  0
  161.9750  209.0830  140.2620 C   0  0  0  0  0  3  0  0  0  0  0  0
  161.5200  206.6380  141.0380 C   0  0  0  0  0  3  0  0  0  0  0  0
  161.7540  207.8630  140.6660 C   0  0  0  0  0  0  0  0  0  0  0  0
  161.4500  209.6030  138.9460 C   0  0  1  0  0  3  0  0  0  0  0  0
  163.4430  210.9460  139.0540 O   0  0  0  0  0  1  0  0  0  0  0  0
  161.5300  212.0190  138.1440 C   0  0  0  0  0  1  0  0  0  0  0  0
  162.6990  210.2920  137.0150 O   0  0  0  0  0  1  0  0  0  0  0  0
  162.3000  210.7120  138.2840 C   0  0  0  0  0  0  0  0  0  0  0  0
  160.9380  208.5070  137.9990 C   0  0  0  0  0  2  0  0  0  0  0  0
  159.4600  208.6510  137.6640 C   0  0  0  0  0  2  0  0  0  0  0  0
  157.6070  210.2570  137.9850 C   0  0  0  0  0  1  0  0  0  0  0  0
  158.8070  209.6040  138.6420 C   0  0  0  0  0  2  0  0  0  0  0  0
  162.6330  207.5400  150.2210 O   0  0  0  0  0  0  0  0  0  0  0  0
  161.6350  206.8100  150.8770 C   0  0  0  0  0  2  0  0  0  0  0  0
  161.7490  208.8230  152.5020 C   0  0  0  0  0  2  0  0  0  0  0  0
  161.3810  207.3910  152.2260 C   0  0  0  0  0  0  0  0  0  0  0  0
  160.8390  209.4320  153.5770 C   0  0  0  0  0  2  0  0  0  0  0  0
  160.9400  206.6100  153.2180 C   0  0  0  0  0  3  0  0  0  0  0  0
  160.6670  207.1720  154.5530 C   0  0  0  0  0  3  0  0  0  0  0  0
  160.6680  208.4960  154.7490 C   0  0  0  0  0  0  0  0  0  0  0  0
  160.9870  212.5110  157.0190 C   0  0  0  0  0  3  0  0  0  0  0  0
  158.6750  213.2850  157.1520 C   0  0  0  0  0  3  0  0  0  0  0  0
  160.4940  211.2500  156.6810 C   0  0  0  0  0  0  0  0  0  0  0  0
  159.1560  210.9980  156.5760 C   0  0  0  0  0  0  0  0  0  0  0  0
  161.2410  210.1240  156.4160 O   0  0  0  0  0  0  0  0  0  0  0  0
  160.0580  213.5370  157.2590 C   0  0  0  0  0  3  0  0  0  0  0  0
  158.9370  209.5760  156.2030 C   0  0  0  0  0  2  0  0  0  0  0  0
  158.2130  212.0040  156.8080 C   0  0  0  0  0  0  0  0  0  0  0  0
  160.3780  209.0260  156.1150 C   0  0  1  0  0  3  0  0  0  0  0  0
  156.4910  211.6980  156.6620 Cl  0  0  0  0  0  0  0  0  0  0  0  0
  1 38  1  1  0  0  0
  2  1  1  1  0  0  0
  2  4  1  0  0  0  0
  3  5  1  6  0  0  0
  3  2  1  0  0  0  0
  3  4  1  0  0  0  0
  6  5  1  0  0  0  0
  6  7  1  0  0  0  0
  8  7  1  0  0  0  0
  9  8  1  0  0  0  0
 10 11  1  6  0  0  0
 10  9  1  0  0  0  0
 13 10  1  0  0  0  0
 13 12  1  1  0  0  0
 14 13  1  0  0  0  0
 16 15  1  6  0  0  0
 16  1  1  0  0  0  0
 17 16  1  0  0  0  0
 18 24  1  6  0  0  0
 18 20  1  0  0  0  0
 18 19  1  0  0  0  0
 19 21  1  0  0  0  0
 20 23  1  0  0  0  0
 21 17  1  0  0  0  0
 23 21  1  0  0  0  0
 23 22  2  0  0  0  0
 25 24  2  0  0  0  0
 26 28  2  0  0  0  0
 27 25  1  0  0  0  0
 28 27  2  0  0  0  0
 29 34  1  6  0  0  0
 29 26  1  0  0  0  0
 31 33  1  0  0  0  0
 32 33  1  0  0  0  0
 33 29  1  0  0  0  0
 33 30  1  0  0  0  0
 35 34  1  0  0  0  0
 35 37  1  0  0  0  0
 36 37  1  0  0  0  0
 38 39  1  0  0  0  0
 39 41  1  0  0  0  0
 40 42  1  0  0  0  0
 41 40  1  0  0  0  0
 41 43  2  0  0  0  0
 42 45  1  0  0  0  0
 43 44  1  0  0  0  0
 44 45  2  0  0  0  0
 46 51  1  0  0  0  0
 47 51  2  0  0  0  0
 48 46  2  0  0  0  0
 49 48  1  0  0  0  0
 49 53  2  0  0  0  0
 50 48  1  0  0  0  0
 52 49  1  0  0  0  0
 53 47  1  0  0  0  0
 54 45  1  6  0  0  0
 54 52  1  0  0  0  0
 54 50  1  0  0  0  0
 55 53  1  0  0  0  0
M  END
>  <MODEL>
5

>  <REMARK>
 VINA RESULT:      -3.9      3.988     11.940
  Name = 
  22 active torsions:
  status: ('A' for Active; 'I' for Inactive)
    1  A    between atoms: C_2  and  C_22
    2  A    between atoms: C_3  and  O_18
    3  A    between atoms: C_3  and  C_25
    4  A    between atoms: C_3  and  C_53
    5  A    between atoms: C_4  and  C_7
    6  A    between atoms: C_5  and  N_16
    7  A    between atoms: C_5  and  C_53
    8  A    between atoms: C_11  and  C_14
    9  A    between atoms: C_12  and  C_17
   10  A    between atoms: C_12  and  C_45
   11  A    between atoms: C_14  and  O_18
   12  A    between atoms: C_17  and  C_26
   13  A    between atoms: C_19  and  C_38
   14  A    between atoms: C_22  and  C_48
   15  A    between atoms: C_22  and  C_54
   16  A    between atoms: C_26  and  O_31
   17  A    between atoms: O_31  and  C_44
   18  A    between atoms: C_33  and  C_39
   19  A    between atoms: C_35  and  C_52
   20  A    between atoms: C_39  and  C_44
   21  A    between atoms: C_40  and  C_41
   22  A    between atoms: C_40  and  C_54
                            x       y       z     vdW  Elec       q    Type
                         _______ _______ _______ _____ _____    ______ ____

>  <TORSDO>
F 22

$$$$
=
 OpenBabel11042421163D

 55 59  0  0  1  0  0  0  0  0999 V2000
  162.0360  206.2470  149.7100 C   0  0  2  0  0  3  0  0  0  0  0  0
  161.4160  207.4920  149.0360 C   0  0  2  0  0  3  0  0  0  0  0  0
  162.1770  208.7250  149.3650 C   0  0  2  0  0  3  0  0  0  0  0  0
  160.9390  208.4330  149.9710 O   0  0  0  0  0  0  0  0  0  0  0  0
  161.9880  209.7470  148.2540 C   0  0  0  0  0  2  0  0  0  0  0  0
  162.4330  211.1320  148.6940 C   0  0  0  0  0  2  0  0  0  0  0  0
  161.9120  212.1030  147.8290 O   0  0  0  0  0  0  0  0  0  0  0  0
  160.9630  212.7740  148.6020 C   0  0  0  0  0  2  0  0  0  0  0  0
  160.7490  214.1820  148.0650 C   0  0  0  0  0  2  0  0  0  0  0  0
  159.2760  214.4530  147.7710 C   0  0  1  0  0  3  0  0  0  0  0  0
  159.0390  214.3430  146.3980 O   0  0  0  0  0  1  0  0  0  0  0  0
  157.1560  213.0740  147.7210 C   0  0  0  0  0  1  0  0  0  0  0  0
  158.3510  213.5200  148.5510 C   0  0  2  0  0  3  0  0  0  0  0  0
  157.8990  214.1560  149.7080 O   0  0  0  0  0  1  0  0  0  0  0  0
  159.8250  205.3710  149.3810 O   0  0  0  0  0  1  0  0  0  0  0  0
  161.0800  205.0560  149.8970 C   0  0  1  0  0  3  0  0  0  0  0  0
  161.6110  203.8150  149.1960 C   0  0  0  0  0  2  0  0  0  0  0  0
  162.2590  204.4120  145.5240 C   0  0  1  0  0  3  0  0  0  0  0  0
  162.3720  204.8870  146.9930 C   0  0  0  0  0  2  0  0  0  0  0  0
  161.3280  203.2880  145.5100 N   0  0  0  0  0  2  0  0  0  0  0  0
  161.5400  203.9700  147.7550 N   0  0  0  0  0  0  0  0  0  0  0  0
  160.2340  202.0920  147.2090 O   0  0  0  0  0  0  0  0  0  0  0  0
  160.9720  203.0460  146.8550 C   0  0  0  0  0  0  0  0  0  0  0  0
  161.7930  205.5020  144.6150 C   0  0  0  0  0  3  0  0  0  0  0  0
  161.8390  205.3970  143.2900 C   0  0  0  0  0  3  0  0  0  0  0  0
  162.7010  207.3250  140.3920 C   0  0  0  0  0  3  0  0  0  0  0  0
  161.3670  206.5060  142.4750 C   0  0  0  0  0  3  0  0  0  0  0  0
  162.0480  206.9090  141.4410 C   0  0  0  0  0  0  0  0  0  0  0  0
  162.0610  208.1960  139.3380 C   0  0  1  0  0  3  0  0  0  0  0  0
  162.6690  208.1730  137.0110 O   0  0  0  0  0  1  0  0  0  0  0  0
  160.4150  207.5940  137.4890 C   0  0  0  0  0  1  0  0  0  0  0  0
  162.2500  206.1920  138.0310 O   0  0  0  0  0  1  0  0  0  0  0  0
  161.8640  207.5310  137.9570 C   0  0  0  0  0  0  0  0  0  0  0  0
  160.8750  209.0270  139.8490 C   0  0  0  0  0  2  0  0  0  0  0  0
  161.0610  210.5230  139.6430 C   0  0  0  0  0  2  0  0  0  0  0  0
  159.5120  212.0950  140.7590 C   0  0  0  0  0  1  0  0  0  0  0  0
  160.7610  211.2560  140.9340 C   0  0  0  0  0  2  0  0  0  0  0  0
  162.6250  206.6070  150.9320 O   0  0  0  0  0  0  0  0  0  0  0  0
  161.8230  206.0240  151.9200 C   0  0  0  0  0  2  0  0  0  0  0  0
  162.0000  208.4390  152.8350 C   0  0  0  0  0  2  0  0  0  0  0  0
  161.4770  207.0340  152.9590 C   0  0  0  0  0  0  0  0  0  0  0  0
  161.0490  209.4450  153.4980 C   0  0  0  0  0  2  0  0  0  0  0  0
  160.8060  206.6640  154.0550 C   0  0  0  0  0  3  0  0  0  0  0  0
  160.4410  207.6550  155.0840 C   0  0  0  0  0  3  0  0  0  0  0  0
  160.5980  208.9640  154.8560 C   0  0  0  0  0  0  0  0  0  0  0  0
  159.4980  213.4420  155.1890 C   0  0  0  0  0  3  0  0  0  0  0  0
  157.0770  213.4210  155.5060 C   0  0  0  0  0  3  0  0  0  0  0  0
  159.5030  212.0830  155.5040 C   0  0  0  0  0  0  0  0  0  0  0  0
  158.3570  211.4050  155.8070 C   0  0  0  0  0  0  0  0  0  0  0  0
  160.6050  211.2600  155.5570 O   0  0  0  0  0  0  0  0  0  0  0  0
  158.2650  214.1140  155.1940 C   0  0  0  0  0  3  0  0  0  0  0  0
  158.6730  209.9820  156.0960 C   0  0  0  0  0  2  0  0  0  0  0  0
  157.1170  212.0520  155.8170 C   0  0  0  0  0  0  0  0  0  0  0  0
  160.2080  209.9370  155.9210 C   0  0  1  0  0  3  0  0  0  0  0  0
  155.6360  211.1890  156.1900 Cl  0  0  0  0  0  0  0  0  0  0  0  0
  1 16  1  0  0  0  0
  1 38  1  1  0  0  0
  2  3  1  0  0  0  0
  2  1  1  1  0  0  0
  2  4  1  0  0  0  0
  3  5  1  6  0  0  0
  3  4  1  0  0  0  0
  5  6  1  0  0  0  0
  7  8  1  0  0  0  0
  7  6  1  0  0  0  0
  9  8  1  0  0  0  0
 10 11  1  6  0  0  0
 10  9  1  0  0  0  0
 10 13  1  0  0  0  0
 13 12  1  6  0  0  0
 13 14  1  0  0  0  0
 16 15  1  6  0  0  0
 17 16  1  0  0  0  0
 18 24  1  6  0  0  0
 18 19  1  0  0  0  0
 19 21  1  0  0  0  0
 20 18  1  0  0  0  0
 20 23  1  0  0  0  0
 21 17  1  0  0  0  0
 23 22  2  0  0  0  0
 23 21  1  0  0  0  0
 25 24  2  0  0  0  0
 26 28  2  0  0  0  0
 27 25  1  0  0  0  0
 28 27  2  0  0  0  0
 29 34  1  1  0  0  0
 29 26  1  0  0  0  0
 30 33  1  0  0  0  0
 31 33  1  0  0  0  0
 33 32  1  0  0  0  0
 33 29  1  0  0  0  0
 35 34  1  0  0  0  0
 35 37  1  0  0  0  0
 36 37  1  0  0  0  0
 38 39  1  0  0  0  0
 39 41  1  0  0  0  0
 40 41  1  0  0  0  0
 40 42  1  0  0  0  0
 41 43  2  0  0  0  0
 42 45  1  0  0  0  0
 43 44  1  0  0  0  0
 45 44  2  0  0  0  0
 46 51  2  0  0  0  0
 46 48  1  0  0  0  0
 47 53  2  0  0  0  0
 48 50  1  0  0  0  0
 48 49  2  0  0  0  0
 49 53  1  0  0  0  0
 49 52  1  0  0  0  0
 50 54  1  0  0  0  0
 51 47  1  0  0  0  0
 53 55  1  0  0  0  0
 54 45  1  6  0  0  0
 54 52  1  0  0  0  0
M  END
>  <MODEL>
6

>  <REMARK>
 VINA RESULT:      -3.7      3.872     11.227
  Name = 
  22 active torsions:
  status: ('A' for Active; 'I' for Inactive)
    1  A    between atoms: C_2  and  C_22
    2  A    between atoms: C_3  and  O_18
    3  A    between atoms: C_3  and  C_25
    4  A    between atoms: C_3  and  C_53
    5  A    between atoms: C_4  and  C_7
    6  A    between atoms: C_5  and  N_16
    7  A    between atoms: C_5  and  C_53
    8  A    between atoms: C_11  and  C_14
    9  A    between atoms: C_12  and  C_17
   10  A    between atoms: C_12  and  C_45
   11  A    between atoms: C_14  and  O_18
   12  A    between atoms: C_17  and  C_26
   13  A    between atoms: C_19  and  C_38
   14  A    between atoms: C_22  and  C_48
   15  A    between atoms: C_22  and  C_54
   16  A    between atoms: C_26  and  O_31
   17  A    between atoms: O_31  and  C_44
   18  A    between atoms: C_33  and  C_39
   19  A    between atoms: C_35  and  C_52
   20  A    between atoms: C_39  and  C_44
   21  A    between atoms: C_40  and  C_41
   22  A    between atoms: C_40  and  C_54
                            x       y       z     vdW  Elec       q    Type
                         _______ _______ _______ _____ _____    ______ ____

>  <TORSDO>
F 22

$$$$
=
 OpenBabel11042421163D

 55 59  0  0  1  0  0  0  0  0999 V2000
  162.0310  212.0770  147.5930 C   0  0  2  0  0  3  0  0  0  0  0  0
  161.7150  210.7550  148.3290 C   0  0  2  0  0  3  0  0  0  0  0  0
  162.2160  209.5780  147.5740 C   0  0  2  0  0  3  0  0  0  0  0  0
  160.8490  209.9190  147.5940 O   0  0  0  0  0  0  0  0  0  0  0  0
  162.4840  208.4340  148.5410 C   0  0  0  0  0  2  0  0  0  0  0  0
  162.2820  207.0840  147.8710 C   0  0  0  0  0  2  0  0  0  0  0  0
  160.9850  206.6140  148.1160 O   0  0  0  0  0  0  0  0  0  0  0  0
  160.9590  205.3560  147.5130 C   0  0  0  0  0  2  0  0  0  0  0  0
  161.0710  204.2650  148.5680 C   0  0  0  0  0  2  0  0  0  0  0  0
  160.4910  202.9430  148.0730 C   0  0  1  0  0  3  0  0  0  0  0  0
  161.2040  202.5010  146.9560 O   0  0  0  0  0  1  0  0  0  0  0  0
  161.3980  200.7030  148.8210 C   0  0  0  0  0  1  0  0  0  0  0  0
  160.4860  201.8720  149.1630 C   0  0  2  0  0  3  0  0  0  0  0  0
  159.1870  201.4020  149.3640 O   0  0  0  0  0  1  0  0  0  0  0  0
  162.8700  214.2440  148.1990 O   0  0  0  0  0  1  0  0  0  0  0  0
  161.8190  213.3560  148.4210 C   0  0  1  0  0  3  0  0  0  0  0  0
  160.5080  214.0330  148.0510 C   0  0  0  0  0  2  0  0  0  0  0  0
  157.7780  213.5890  150.6200 C   0  0  1  0  0  3  0  0  0  0  0  0
  159.2300  213.9970  150.2740 C   0  0  0  0  0  2  0  0  0  0  0  0
  157.2400  212.8960  149.4530 N   0  0  0  0  0  2  0  0  0  0  0  0
  159.4310  213.5640  148.9010 N   0  0  0  0  0  0  0  0  0  0  0  0
  158.0780  212.5060  147.2950 O   0  0  0  0  0  0  0  0  0  0  0  0
  158.2410  212.9490  148.4600 C   0  0  0  0  0  0  0  0  0  0  0  0
  157.7100  212.7210  151.8340 C   0  0  0  0  0  3  0  0  0  0  0  0
  158.7610  212.5070  152.6210 C   0  0  0  0  0  3  0  0  0  0  0  0
  160.2020  209.6230  154.1900 C   0  0  0  0  0  3  0  0  0  0  0  0
  158.6110  211.6450  153.7840 C   0  0  0  0  0  3  0  0  0  0  0  0
  159.4090  210.6340  153.9690 C   0  0  0  0  0  0  0  0  0  0  0  0
  160.3090  208.9630  155.5430 C   0  0  1  0  0  3  0  0  0  0  0  0
  161.7710  207.1880  156.2460 O   0  0  0  0  0  1  0  0  0  0  0  0
  160.7850  206.9160  154.1030 C   0  0  0  0  0  1  0  0  0  0  0  0
  159.5490  206.7610  156.1210 O   0  0  0  0  0  1  0  0  0  0  0  0
  160.6050  207.4450  155.5200 C   0  0  0  0  0  0  0  0  0  0  0  0
  161.1000  209.7770  156.5770 C   0  0  0  0  0  2  0  0  0  0  0  0
  161.4980  211.1570  156.0720 C   0  0  0  0  0  2  0  0  0  0  0  0
  160.4960  213.1820  157.0790 C   0  0  0  0  0  1  0  0  0  0  0  0
  161.5690  212.1230  157.2360 C   0  0  0  0  0  2  0  0  0  0  0  0
  161.3100  212.1400  146.3900 O   0  0  0  0  0  0  0  0  0  0  0  0
  162.2380  212.5270  145.4170 C   0  0  0  0  0  2  0  0  0  0  0  0
  162.3420  213.0730  142.8890 C   0  0  0  0  0  2  0  0  0  0  0  0
  161.5390  212.8360  144.1380 C   0  0  0  0  0  0  0  0  0  0  0  0
  161.5490  212.6770  141.6360 C   0  0  0  0  0  2  0  0  0  0  0  0
  160.2140  213.0190  144.1270 C   0  0  0  0  0  3  0  0  0  0  0  0
  159.5050  213.3080  142.8680 C   0  0  0  0  0  3  0  0  0  0  0  0
  160.1340  213.2020  141.6920 C   0  0  0  0  0  0  0  0  0  0  0  0
  157.3460  210.9700  138.7550 C   0  0  0  0  0  3  0  0  0  0  0  0
  155.1280  211.8400  139.2890 C   0  0  0  0  0  3  0  0  0  0  0  0
  157.8850  212.0410  139.4670 C   0  0  0  0  0  0  0  0  0  0  0  0
  157.0980  212.9790  140.0720 C   0  0  0  0  0  0  0  0  0  0  0  0
  159.2220  212.3060  139.6600 O   0  0  0  0  0  0  0  0  0  0  0  0
  155.9480  210.8760  138.6670 C   0  0  0  0  0  3  0  0  0  0  0  0
  157.9490  213.9910  140.7530 C   0  0  0  0  0  2  0  0  0  0  0  0
  155.7040  212.9060  140.0010 C   0  0  0  0  0  0  0  0  0  0  0  0
  159.3780  213.4950  140.4370 C   0  0  1  0  0  3  0  0  0  0  0  0
  154.6810  214.0960  140.7860 Cl  0  0  0  0  0  0  0  0  0  0  0  0
  1 38  1  6  0  0  0
  1 16  1  0  0  0  0
  2  1  1  6  0  0  0
  3  4  1  0  0  0  0
  3  2  1  0  0  0  0
  3  5  1  1  0  0  0
  4  2  1  0  0  0  0
  6  7  1  0  0  0  0
  6  5  1  0  0  0  0
  8  7  1  0  0  0  0
  8  9  1  0  0  0  0
 10 11  1  6  0  0  0
 10  9  1  0  0  0  0
 10 13  1  0  0  0  0
 13 12  1  6  0  0  0
 13 14  1  0  0  0  0
 16 15  1  6  0  0  0
 17 16  1  0  0  0  0
 17 21  1  0  0  0  0
 18 24  1  1  0  0  0
 19 18  1  0  0  0  0
 20 18  1  0  0  0  0
 21 19  1  0  0  0  0
 22 23  2  0  0  0  0
 23 21  1  0  0  0  0
 23 20  1  0  0  0  0
 24 25  2  0  0  0  0
 25 27  1  0  0  0  0
 27 28  2  0  0  0  0
 28 26  2  0  0  0  0
 29 26  1  6  0  0  0
 29 34  1  0  0  0  0
 31 33  1  0  0  0  0
 33 29  1  0  0  0  0
 33 32  1  0  0  0  0
 33 30  1  0  0  0  0
 35 34  1  0  0  0  0
 35 37  1  0  0  0  0
 36 37  1  0  0  0  0
 39 38  1  0  0  0  0
 40 41  1  0  0  0  0
 41 39  1  0  0  0  0
 42 45  1  0  0  0  0
 42 40  1  0  0  0  0
 43 41  2  0  0  0  0
 44 43  1  0  0  0  0
 45 44  2  0  0  0  0
 46 48  1  0  0  0  0
 47 53  2  0  0  0  0
 48 50  1  0  0  0  0
 48 49  2  0  0  0  0
 49 52  1  0  0  0  0
 50 54  1  0  0  0  0
 51 46  2  0  0  0  0
 51 47  1  0  0  0  0
 53 49  1  0  0  0  0
 53 55  1  0  0  0  0
 54 52  1  0  0  0  0
 54 45  1  1  0  0  0
M  END
>  <MODEL>
7

>  <REMARK>
 VINA RESULT:      -3.6      2.655      7.214
  Name = 
  22 active torsions:
  status: ('A' for Active; 'I' for Inactive)
    1  A    between atoms: C_2  and  C_22
    2  A    between atoms: C_3  and  O_18
    3  A    between atoms: C_3  and  C_25
    4  A    between atoms: C_3  and  C_53
    5  A    between atoms: C_4  and  C_7
    6  A    between atoms: C_5  and  N_16
    7  A    between atoms: C_5  and  C_53
    8  A    between atoms: C_11  and  C_14
    9  A    between atoms: C_12  and  C_17
   10  A    between atoms: C_12  and  C_45
   11  A    between atoms: C_14  and  O_18
   12  A    between atoms: C_17  and  C_26
   13  A    between atoms: C_19  and  C_38
   14  A    between atoms: C_22  and  C_48
   15  A    between atoms: C_22  and  C_54
   16  A    between atoms: C_26  and  O_31
   17  A    between atoms: O_31  and  C_44
   18  A    between atoms: C_33  and  C_39
   19  A    between atoms: C_35  and  C_52
   20  A    between atoms: C_39  and  C_44
   21  A    between atoms: C_40  and  C_41
   22  A    between atoms: C_40  and  C_54
                            x       y       z     vdW  Elec       q    Type
                         _______ _______ _______ _____ _____    ______ ____

>  <TORSDO>
F 22

$$$$
=
 OpenBabel11042421163D

 55 59  0  0  1  0  0  0  0  0999 V2000
  161.5120  207.2740  149.2510 C   0  0  2  0  0  3  0  0  0  0  0  0
  161.7710  206.6620  150.6460 C   0  0  2  0  0  3  0  0  0  0  0  0
  160.7680  205.6170  150.9770 C   0  0  2  0  0  3  0  0  0  0  0  0
  160.7150  206.9040  151.5490 O   0  0  0  0  0  0  0  0  0  0  0  0
  161.3730  204.6300  151.9630 C   0  0  0  0  0  2  0  0  0  0  0  0
  160.7960  203.2360  151.7760 C   0  0  0  0  0  2  0  0  0  0  0  0
  161.8230  202.3220  151.5070 O   0  0  0  0  0  0  0  0  0  0  0  0
  161.9600  202.3630  150.1190 C   0  0  0  0  0  2  0  0  0  0  0  0
  161.1410  201.2520  149.4770 C   0  0  0  0  0  2  0  0  0  0  0  0
  160.4620  201.7230  148.1930 C   0  0  1  0  0  3  0  0  0  0  0  0
  161.0930  202.8770  147.7200 O   0  0  0  0  0  1  0  0  0  0  0  0
  161.6340  199.6930  147.2450 C   0  0  0  0  0  1  0  0  0  0  0  0
  160.4500  200.6400  147.1160 C   0  0  2  0  0  3  0  0  0  0  0  0
  160.4620  201.2260  145.8500 O   0  0  0  0  0  1  0  0  0  0  0  0
  163.8810  207.1610  148.8750 O   0  0  0  0  0  1  0  0  0  0  0  0
  162.6480  207.0870  148.2300 C   0  0  1  0  0  3  0  0  0  0  0  0
  162.5320  205.7430  147.5270 C   0  0  0  0  0  2  0  0  0  0  0  0
  161.6150  205.4550  143.8760 C   0  0  1  0  0  3  0  0  0  0  0  0
  162.6960  205.4550  144.9840 C   0  0  0  0  0  2  0  0  0  0  0  0
  160.3860  205.9620  144.4790 N   0  0  0  0  0  2  0  0  0  0  0  0
  162.0130  205.9110  146.1830 N   0  0  0  0  0  0  0  0  0  0  0  0
  159.8020  206.5420  146.6790 O   0  0  0  0  0  0  0  0  0  0  0  0
  160.6690  206.1730  145.8460 C   0  0  0  0  0  0  0  0  0  0  0  0
  162.0140  206.2850  142.7000 C   0  0  0  0  0  3  0  0  0  0  0  0
  161.7660  205.9170  141.4460 C   0  0  0  0  0  3  0  0  0  0  0  0
  161.5590  209.3100  140.3040 C   0  0  0  0  0  3  0  0  0  0  0  0
  162.1900  206.7830  140.3570 C   0  0  0  0  0  3  0  0  0  0  0  0
  161.8610  208.0420  140.3400 C   0  0  0  0  0  0  0  0  0  0  0  0
  162.2850  210.2860  139.4110 C   0  0  1  0  0  3  0  0  0  0  0  0
  162.2610  209.6230  137.0990 O   0  0  0  0  0  1  0  0  0  0  0  0
  161.8420  211.9240  137.5120 C   0  0  0  0  0  1  0  0  0  0  0  0
  160.2980  210.2120  138.0670 O   0  0  0  0  0  1  0  0  0  0  0  0
  161.6620  210.4960  138.0120 C   0  0  0  0  0  0  0  0  0  0  0  0
  162.7530  211.5610  140.1270 C   0  0  0  0  0  2  0  0  0  0  0  0
  162.0540  211.7880  141.4610 C   0  0  0  0  0  2  0  0  0  0  0  0
  159.7690  212.7300  141.5240 C   0  0  0  0  0  1  0  0  0  0  0  0
  161.2420  213.0640  141.3990 C   0  0  0  0  0  2  0  0  0  0  0  0
  161.1790  208.6320  149.3780 O   0  0  0  0  0  0  0  0  0  0  0  0
  161.9430  209.1060  150.4500 C   0  0  0  0  0  2  0  0  0  0  0  0
  161.6050  211.6720  150.3790 C   0  0  0  0  0  2  0  0  0  0  0  0
  161.3220  210.3380  151.0150 C   0  0  0  0  0  0  0  0  0  0  0  0
  160.4310  212.6410  150.5800 C   0  0  0  0  0  2  0  0  0  0  0  0
  160.6170  210.2720  152.1480 C   0  0  0  0  0  3  0  0  0  0  0  0
  159.9820  211.4780  152.7100 C   0  0  0  0  0  3  0  0  0  0  0  0
  159.9330  212.6140  152.0060 C   0  0  0  0  0  0  0  0  0  0  0  0
  155.6530  214.2830  152.5290 C   0  0  0  0  0  3  0  0  0  0  0  0
  155.1600  213.8820  154.8870 C   0  0  0  0  0  3  0  0  0  0  0  0
  156.9980  214.0530  152.8210 C   0  0  0  0  0  0  0  0  0  0  0  0
  157.4240  213.7480  154.0820 C   0  0  0  0  0  0  0  0  0  0  0  0
  158.0470  214.0970  151.9310 O   0  0  0  0  0  0  0  0  0  0  0  0
  154.7280  214.1970  153.5820 C   0  0  0  0  0  3  0  0  0  0  0  0
  158.8980  213.5560  154.0850 C   0  0  0  0  0  2  0  0  0  0  0  0
  156.5220  213.6530  155.1450 C   0  0  0  0  0  0  0  0  0  0  0  0
  159.2730  213.8120  152.6080 C   0  0  1  0  0  3  0  0  0  0  0  0
  157.0540  213.2470  156.7670 Cl  0  0  0  0  0  0  0  0  0  0  0  0
  1 38  1  1  0  0  0
  2  1  1  6  0  0  0
  2  3  1  0  0  0  0
  2  4  1  0  0  0  0
  3  4  1  0  0  0  0
  3  5  1  1  0  0  0
  6  5  1  0  0  0  0
  7  6  1  0  0  0  0
  8  7  1  0  0  0  0
  9  8  1  0  0  0  0
 10 11  1  6  0  0  0
 10  9  1  0  0  0  0
 13 12  1  1  0  0  0
 13 10  1  0  0  0  0
 14 13  1  0  0  0  0
 16 15  1  1  0  0  0
 16  1  1  0  0  0  0
 17 16  1  0  0  0  0
 18 24  1  6  0  0  0
 18 20  1  0  0  0  0
 18 19  1  0  0  0  0
 19 21  1  0  0  0  0
 20 23  1  0  0  0  0
 21 17  1  0  0  0  0
 23 21  1  0  0  0  0
 23 22  2  0  0  0  0
 25 24  2  0  0  0  0
 26 28  2  0  0  0  0
 27 25  1  0  0  0  0
 28 27  2  0  0  0  0
 29 34  1  1  0  0  0
 29 26  1  0  0  0  0
 30 33  1  0  0  0  0
 31 33  1  0  0  0  0
 33 32  1  0  0  0  0
 33 29  1  0  0  0  0
 34 35  1  0  0  0  0
 37 35  1  0  0  0  0
 37 36  1  0  0  0  0
 38 39  1  0  0  0  0
 39 41  1  0  0  0  0
 40 42  1  0  0  0  0
 40 41  1  0  0  0  0
 41 43  2  0  0  0  0
 42 45  1  0  0  0  0
 43 44  1  0  0  0  0
 45 44  2  0  0  0  0
 46 48  2  0  0  0  0
 46 51  1  0  0  0  0
 47 53  1  0  0  0  0
 48 49  1  0  0  0  0
 49 52  1  0  0  0  0
 49 53  2  0  0  0  0
 50 54  1  0  0  0  0
 50 48  1  0  0  0  0
 51 47  2  0  0  0  0
 53 55  1  0  0  0  0
 54 45  1  6  0  0  0
 54 52  1  0  0  0  0
M  END
>  <MODEL>
8

>  <REMARK>
 VINA RESULT:      -3.5      3.775     11.790
  Name = 
  22 active torsions:
  status: ('A' for Active; 'I' for Inactive)
    1  A    between atoms: C_2  and  C_22
    2  A    between atoms: C_3  and  O_18
    3  A    between atoms: C_3  and  C_25
    4  A    between atoms: C_3  and  C_53
    5  A    between atoms: C_4  and  C_7
    6  A    between atoms: C_5  and  N_16
    7  A    between atoms: C_5  and  C_53
    8  A    between atoms: C_11  and  C_14
    9  A    between atoms: C_12  and  C_17
   10  A    between atoms: C_12  and  C_45
   11  A    between atoms: C_14  and  O_18
   12  A    between atoms: C_17  and  C_26
   13  A    between atoms: C_19  and  C_38
   14  A    between atoms: C_22  and  C_48
   15  A    between atoms: C_22  and  C_54
   16  A    between atoms: C_26  and  O_31
   17  A    between atoms: O_31  and  C_44
   18  A    between atoms: C_33  and  C_39
   19  A    between atoms: C_35  and  C_52
   20  A    between atoms: C_39  and  C_44
   21  A    between atoms: C_40  and  C_41
   22  A    between atoms: C_40  and  C_54
                            x       y       z     vdW  Elec       q    Type
                         _______ _______ _______ _____ _____    ______ ____

>  <TORSDO>
F 22

$$$$
=
 OpenBabel11042421163D

 55 59  0  0  1  0  0  0  0  0999 V2000
  161.4850  204.8430  146.3370 C   0  0  2  0  0  3  0  0  0  0  0  0
  160.7570  205.1370  145.0060 C   0  0  2  0  0  3  0  0  0  0  0  0
  161.5800  205.9920  144.1120 C   0  0  2  0  0  3  0  0  0  0  0  0
  160.4830  206.5090  144.8290 O   0  0  0  0  0  0  0  0  0  0  0  0
  161.1870  205.7360  142.6650 C   0  0  0  0  0  2  0  0  0  0  0  0
  161.9590  206.6370  141.7140 C   0  0  0  0  0  2  0  0  0  0  0  0
  162.1800  205.9780  140.4980 O   0  0  0  0  0  0  0  0  0  0  0  0
  161.9680  206.9640  139.5330 C   0  0  0  0  0  2  0  0  0  0  0  0
  161.8320  208.3270  140.1950 C   0  0  0  0  0  2  0  0  0  0  0  0
  161.8590  209.4570  139.1680 C   0  0  1  0  0  3  0  0  0  0  0  0
  161.4900  208.9640  137.9140 O   0  0  0  0  0  1  0  0  0  0  0  0
  159.4840  210.2900  139.4110 C   0  0  0  0  0  1  0  0  0  0  0  0
  160.9600  210.6240  139.5720 C   0  0  2  0  0  3  0  0  0  0  0  0
  161.2660  211.7490  138.8060 O   0  0  0  0  0  1  0  0  0  0  0  0
  162.8170  203.1500  147.3980 O   0  0  0  0  0  1  0  0  0  0  0  0
  161.6350  203.3530  146.6890 C   0  0  1  0  0  3  0  0  0  0  0  0
  160.4610  202.8690  147.5260 C   0  0  0  0  0  2  0  0  0  0  0  0
  160.4370  203.5370  151.2420 C   0  0  1  0  0  3  0  0  0  0  0  0
  160.2130  204.0390  149.7950 C   0  0  0  0  0  2  0  0  0  0  0  0
  161.1420  202.2630  151.1460 N   0  0  0  0  0  2  0  0  0  0  0  0
  160.7540  202.9950  148.9410 N   0  0  0  0  0  0  0  0  0  0  0  0
  161.7620  200.9060  149.3330 O   0  0  0  0  0  0  0  0  0  0  0  0
  161.2630  201.9740  149.7700 C   0  0  0  0  0  0  0  0  0  0  0  0
  161.2110  204.5150  152.0640 C   0  0  0  0  0  3  0  0  0  0  0  0
  160.7000  205.1140  153.1350 C   0  0  0  0  0  3  0  0  0  0  0  0
  160.6150  208.4020  154.5640 C   0  0  0  0  0  3  0  0  0  0  0  0
  161.5200  206.0570  153.8790 C   0  0  0  0  0  3  0  0  0  0  0  0
  161.0570  207.2280  154.2080 C   0  0  0  0  0  0  0  0  0  0  0  0
  161.2880  209.2250  155.6340 C   0  0  1  0  0  3  0  0  0  0  0  0
  162.2060  210.4160  153.7580 O   0  0  0  0  0  1  0  0  0  0  0  0
  163.3510  210.7080  155.8180 C   0  0  0  0  0  1  0  0  0  0  0  0
  161.1990  211.6120  155.3990 O   0  0  0  0  0  1  0  0  0  0  0  0
  162.0040  210.5030  155.1380 C   0  0  0  0  0  0  0  0  0  0  0  0
  160.4570  209.3870  156.9160 C   0  0  0  0  0  2  0  0  0  0  0  0
  159.6370  210.6690  156.9390 C   0  0  0  0  0  2  0  0  0  0  0  0
  157.4520  211.6610  156.3440 C   0  0  0  0  0  1  0  0  0  0  0  0
  158.3770  210.4820  156.1200 C   0  0  0  0  0  2  0  0  0  0  0  0
  160.8630  205.5390  147.3860 O   0  0  0  0  0  0  0  0  0  0  0  0
  161.8680  205.7650  148.3330 C   0  0  0  0  0  2  0  0  0  0  0  0
  161.2640  207.4910  150.1660 C   0  0  0  0  0  2  0  0  0  0  0  0
  161.8190  207.1790  148.8030 C   0  0  0  0  0  0  0  0  0  0  0  0
  161.9030  208.7600  150.7470 C   0  0  0  0  0  2  0  0  0  0  0  0
  162.1550  208.1710  147.9730 C   0  0  0  0  0  3  0  0  0  0  0  0
  162.1290  209.5730  148.4280 C   0  0  0  0  0  3  0  0  0  0  0  0
  161.9590  209.8670  149.7220 C   0  0  0  0  0  0  0  0  0  0  0  0
  159.8830  213.8040  148.4700 C   0  0  0  0  0  3  0  0  0  0  0  0
  158.2120  214.1580  150.2150 C   0  0  0  0  0  3  0  0  0  0  0  0
  160.4940  212.8730  149.3100 C   0  0  0  0  0  0  0  0  0  0  0  0
  160.0000  212.5810  150.5500 C   0  0  0  0  0  0  0  0  0  0  0  0
  161.6280  212.1430  149.0350 O   0  0  0  0  0  0  0  0  0  0  0  0
  158.7290  214.4530  148.9370 C   0  0  0  0  0  3  0  0  0  0  0  0
  160.8540  211.5570  151.2060 C   0  0  0  0  0  2  0  0  0  0  0  0
  158.8510  213.2120  151.0350 C   0  0  0  0  0  0  0  0  0  0  0  0
  161.9470  211.3010  150.1440 C   0  0  1  0  0  3  0  0  0  0  0  0
  158.1980  212.8360  152.6190 Cl  0  0  0  0  0  0  0  0  0  0  0  0
  1 16  1  0  0  0  0
  1 38  1  1  0  0  0
  2  1  1  1  0  0  0
  3  5  1  6  0  0  0
  3  4  1  0  0  0  0
  3  2  1  0  0  0  0
  4  2  1  0  0  0  0
  6  5  1  0  0  0  0
  7  6  1  0  0  0  0
  8  9  1  0  0  0  0
  8  7  1  0  0  0  0
 10 11  1  6  0  0  0
 10 13  1  0  0  0  0
 10  9  1  0  0  0  0
 13 12  1  6  0  0  0
 14 13  1  0  0  0  0
 16 15  1  1  0  0  0
 16 17  1  0  0  0  0
 17 21  1  0  0  0  0
 18 24  1  1  0  0  0
 19 18  1  0  0  0  0
 20 18  1  0  0  0  0
 21 23  1  0  0  0  0
 21 19  1  0  0  0  0
 22 23  2  0  0  0  0
 23 20  1  0  0  0  0
 24 25  2  0  0  0  0
 25 27  1  0  0  0  0
 27 28  2  0  0  0  0
 28 26  2  0  0  0  0
 29 26  1  6  0  0  0
 29 34  1  0  0  0  0
 30 33  1  0  0  0  0
 33 32  1  0  0  0  0
 33 29  1  0  0  0  0
 33 31  1  0  0  0  0
 34 35  1  0  0  0  0
 37 36  1  0  0  0  0
 37 35  1  0  0  0  0
 38 39  1  0  0  0  0
 39 41  1  0  0  0  0
 40 42  1  0  0  0  0
 41 40  1  0  0  0  0
 43 44  1  0  0  0  0
 43 41  2  0  0  0  0
 44 45  2  0  0  0  0
 45 42  1  0  0  0  0
 46 51  2  0  0  0  0
 46 48  1  0  0  0  0
 47 53  2  0  0  0  0
 48 49  2  0  0  0  0
 49 53  1  0  0  0  0
 49 52  1  0  0  0  0
 50 48  1  0  0  0  0
 50 54  1  0  0  0  0
 51 47  1  0  0  0  0
 53 55  1  0  0  0  0
 54 45  1  6  0  0  0
 54 52  1  0  0  0  0
M  END
>  <MODEL>
9

>  <REMARK>
 VINA RESULT:      -3.4      3.566     10.825
  Name = 
  22 active torsions:
  status: ('A' for Active; 'I' for Inactive)
    1  A    between atoms: C_2  and  C_22
    2  A    between atoms: C_3  and  O_18
    3  A    between atoms: C_3  and  C_25
    4  A    between atoms: C_3  and  C_53
    5  A    between atoms: C_4  and  C_7
    6  A    between atoms: C_5  and  N_16
    7  A    between atoms: C_5  and  C_53
    8  A    between atoms: C_11  and  C_14
    9  A    between atoms: C_12  and  C_17
   10  A    between atoms: C_12  and  C_45
   11  A    between atoms: C_14  and  O_18
   12  A    between atoms: C_17  and  C_26
   13  A    between atoms: C_19  and  C_38
   14  A    between atoms: C_22  and  C_48
   15  A    between atoms: C_22  and  C_54
   16  A    between atoms: C_26  and  O_31
   17  A    between atoms: O_31  and  C_44
   18  A    between atoms: C_33  and  C_39
   19  A    between atoms: C_35  and  C_52
   20  A    between atoms: C_39  and  C_44
   21  A    between atoms: C_40  and  C_41
   22  A    between atoms: C_40  and  C_54
                            x       y       z     vdW  Elec       q    Type
                         _______ _______ _______ _____ _____    ______ ____

>  <TORSDO>
F 22

$$$$
