=
 OpenBabel11052412073D

 50 52  0  0  1  0  0  0  0  0999 V2000
  161.6520  208.3940  149.5760 C   0  0  0  0  0  0  0  0  0  0  0  0
  162.6300  208.3350  148.6000 O   0  0  0  0  0  0  0  0  0  0  0  0
  160.8180  207.1670  149.5760 C   0  0  0  0  0  2  0  0  0  0  0  0
  161.4130  210.3750  151.2560 C   0  0  0  0  0  0  0  0  0  0  0  0
  162.5060  207.1170  147.9530 C   0  0  0  0  0  3  0  0  0  0  0  0
  161.5230  209.3880  150.4090 C   0  0  0  0  0  0  0  0  0  0  0  0
  161.4970  206.4200  148.4760 C   0  0  0  0  0  0  0  0  0  0  0  0
  162.0820  204.4330  147.0710 C   0  0  0  0  0  1  0  0  0  0  0  0
  161.0740  205.0500  148.0270 C   0  0  1  0  0  3  0  0  0  0  0  0
  160.7230  204.0920  149.1740 C   0  0  0  0  0  3  0  0  0  0  0  0
  160.6190  201.7230  150.0030 C   0  0  0  0  0  2  0  0  0  0  0  0
  161.0240  202.6260  148.8420 C   0  0  0  0  0  2  0  0  0  0  0  0
  161.4250  204.5120  150.4680 C   0  0  0  0  0  2  0  0  0  0  0  0
  161.3460  202.1460  151.2780 C   0  0  0  0  0  2  0  0  0  0  0  0
  161.0120  203.5970  151.6150 C   0  0  0  0  0  2  0  0  0  0  0  0
  161.1790  212.2930  149.7060 C   0  0  0  0  0  0  0  0  0  0  0  0
  160.7860  211.6550  150.8390 C   0  0  0  0  0  0  0  0  0  0  0  0
  160.5900  213.4770  149.2310 O   0  0  0  0  0  0  0  0  0  0  0  0
  159.3430  213.5650  148.5530 C   0  0  0  0  0  1  0  0  0  0  0  0
  159.8130  213.5580  152.0180 O   0  0  0  0  0  1  0  0  0  0  0  0
  159.7910  212.2450  151.6880 N   0  0  0  0  0  2  0  0  0  0  0  0
  162.3220  211.7690  148.8930 C   0  0  0  0  0  2  0  0  0  0  0  0
  162.5390  213.1660  146.6270 C   0  0  0  0  0  0  0  0  0  0  0  0
  162.4450  212.5300  147.6470 C   0  0  0  0  0  0  0  0  0  0  0  0
  162.6550  213.9470  145.3930 C   0  0  0  0  0  2  0  0  0  0  0  0
  162.8570  213.0290  144.2010 C   0  0  0  0  0  2  0  0  0  0  0  0
  163.0750  213.8150  142.9960 N   0  0  0  0  0  2  0  0  0  0  0  0
  161.7040  214.4520  140.7910 O   0  0  0  0  0  0  0  0  0  0  0  0
  161.8090  213.3890  141.8600 P   0  0  2  0  0  0  0  0  0  0  0  0
  160.3300  213.2690  142.6730 O   0  0  0  0  0  1  0  0  0  0  0  0
  162.2100  211.7940  141.0750 C   0  0  1  0  0  3  0  0  0  0  0  0
  161.1780  210.8920  141.3400 O   0  0  0  0  0  1  0  0  0  0  0  0
  162.4080  211.9490  139.5580 C   0  0  1  0  0  3  0  0  0  0  0  0
  163.7150  211.6130  139.2010 O   0  0  0  0  0  1  0  0  0  0  0  0
  162.1010  210.4960  137.4990 C   0  0  0  0  0  1  0  0  0  0  0  0
  161.4320  211.1180  138.7130 C   0  0  2  0  0  3  0  0  0  0  0  0
  158.9590  211.4250  138.8560 O   0  0  0  0  0  1  0  0  0  0  0  0
  160.2210  212.8790  137.6180 O   0  0  0  0  0  0  0  0  0  0  0  0
  160.1770  211.8540  138.3480 C   0  0  0  0  0  0  0  0  0  0  0  0
  162.1230  210.2740  152.5670 C   0  0  0  0  0  2  0  0  0  0  0  0
  161.6270  209.1900  153.3100 O   0  0  0  0  0  0  0  0  0  0  0  0
  161.1060  208.5860  156.9460 C   0  0  0  0  0  1  0  0  0  0  0  0
  159.3090  210.7950  155.8550 N   0  0  0  0  0  0  0  0  0  0  0  0
  159.2260  209.3810  155.5050 C   0  0  0  0  0  2  0  0  0  0  0  0
  158.2090  211.4010  156.5850 C   0  0  0  0  0  1  0  0  0  0  0  0
  160.6070  208.7240  155.5190 C   0  0  1  0  0  3  0  0  0  0  0  0
  161.6170  209.5300  154.6810 C   0  0  2  0  0  3  0  0  0  0  0  0
  160.4330  211.5770  155.4290 C   0  0  0  0  0  0  0  0  0  0  0  0
  161.5590  210.9460  154.8970 O   0  0  0  0  0  0  0  0  0  0  0  0
  160.4320  212.8290  155.5710 O   0  0  0  0  0  0  0  0  0  0  0  0
  1  3  1  0  0  0  0
  1  6  2  0  0  0  0
  2  1  1  0  0  0  0
  4 40  1  0  0  0  0
  5  7  2  0  0  0  0
  5  2  1  0  0  0  0
  6  4  2  0  0  0  0
  7  3  1  0  0  0  0
  9  8  1  1  0  0  0
  9  7  1  0  0  0  0
  9 10  1  0  0  0  0
 10 13  1  0  0  0  0
 11 14  1  0  0  0  0
 12 10  1  0  0  0  0
 12 11  1  0  0  0  0
 13 15  1  0  0  0  0
 14 15  1  0  0  0  0
 16 17  2  0  0  0  0
 17  4  1  0  0  0  0
 17 21  1  0  0  0  0
 18 16  1  0  0  0  0
 19 18  1  0  0  0  0
 21 20  1  0  0  0  0
 22 16  1  0  0  0  0
 23 24  3  0  0  0  0
 24 22  1  0  0  0  0
 25 23  1  0  0  0  0
 26 25  1  0  0  0  0
 27 26  1  0  0  0  0
 29 28  2  6  0  0  0
 29 30  1  0  0  0  0
 29 27  1  0  0  0  0
 31 32  1  6  0  0  0
 31 29  1  0  0  0  0
 33 34  1  1  0  0  0
 33 31  1  0  0  0  0
 36 35  1  6  0  0  0
 36 33  1  0  0  0  0
 38 39  2  0  0  0  0
 39 36  1  0  0  0  0
 39 37  1  0  0  0  0
 40 41  1  0  0  0  0
 43 45  1  0  0  0  0
 44 46  1  0  0  0  0
 44 43  1  0  0  0  0
 46 42  1  1  0  0  0
 47 41  1  6  0  0  0
 47 49  1  0  0  0  0
 47 46  1  0  0  0  0
 48 50  2  0  0  0  0
 48 43  1  0  0  0  0
 49 48  1  0  0  0  0
M  END
>  <MODEL>
1

>  <REMARK>
 VINA RESULT:      -6.9      0.000      0.000
  Name = 
  18 active torsions:
  status: ('A' for Active; 'I' for Inactive)
    1  A    between atoms: O_1  and  C_10
    2  A    between atoms: O_1  and  C_34
    3  A    between atoms: O_2  and  C_13
    4  A    between atoms: C_3  and  C_42
    5  A    between atoms: C_5  and  C_8
    6  A    between atoms: C_5  and  C_27
    7  A    between atoms: C_8  and  P_36
    8  A    between atoms: C_9  and  C_37
    9  A    between atoms: C_10  and  C_32
   10  A    between atoms: C_13  and  C_35
   11  A    between atoms: N_18  and  P_36
   12  A    between atoms: N_18  and  C_43
   13  A    between atoms: C_26  and  C_32
   14  A    between atoms: C_26  and  N_41
   15  A    between atoms: C_27  and  C_40
   16  A    between atoms: C_30  and  C_35
   17  A    between atoms: C_37  and  C_43
   18  A    between atoms: C_42  and  C_49
                            x       y       z     vdW  Elec       q    Type
                         _______ _______ _______ _____ _____    ______ ____

>  <TORSDO>
F 18

$$$$
=
 OpenBabel11052412073D

 50 52  0  0  1  0  0  0  0  0999 V2000
  161.4080  208.7250  150.8640 C   0  0  0  0  0  0  0  0  0  0  0  0
  162.2340  208.8650  149.7650 O   0  0  0  0  0  0  0  0  0  0  0  0
  160.8900  207.3380  150.9730 C   0  0  0  0  0  2  0  0  0  0  0  0
  160.9410  210.6430  152.5690 C   0  0  0  0  0  0  0  0  0  0  0  0
  162.3110  207.6340  149.1350 C   0  0  0  0  0  3  0  0  0  0  0  0
  161.1630  209.6840  151.7110 C   0  0  0  0  0  0  0  0  0  0  0  0
  161.5720  206.7380  149.7880 C   0  0  0  0  0  0  0  0  0  0  0  0
  160.5310  204.5360  150.3660 C   0  0  0  0  0  1  0  0  0  0  0  0
  161.4230  205.2950  149.3950 C   0  0  1  0  0  3  0  0  0  0  0  0
  160.9850  205.0800  147.9400 C   0  0  0  0  0  3  0  0  0  0  0  0
  160.2230  206.1110  145.7800 C   0  0  0  0  0  2  0  0  0  0  0  0
  160.6880  206.3920  147.2050 C   0  0  0  0  0  2  0  0  0  0  0  0
  162.0210  204.2520  147.1770 C   0  0  0  0  0  2  0  0  0  0  0  0
  161.2790  205.3020  145.0310 C   0  0  0  0  0  2  0  0  0  0  0  0
  161.5420  203.9840  145.7540 C   0  0  0  0  0  2  0  0  0  0  0  0
  160.1070  212.4580  151.1060 C   0  0  0  0  0  0  0  0  0  0  0  0
  159.9830  211.7310  152.2460 C   0  0  0  0  0  0  0  0  0  0  0  0
  159.2040  213.4640  150.7190 O   0  0  0  0  0  0  0  0  0  0  0  0
  157.9070  213.2470  150.1780 C   0  0  0  0  0  1  0  0  0  0  0  0
  158.7510  213.3060  153.6460 O   0  0  0  0  0  1  0  0  0  0  0  0
  158.9520  212.0470  153.1920 N   0  0  0  0  0  2  0  0  0  0  0  0
  161.2670  212.2430  150.1840 C   0  0  0  0  0  2  0  0  0  0  0  0
  160.8810  213.5830  147.9060 C   0  0  0  0  0  0  0  0  0  0  0  0
  161.0580  212.9730  148.9310 C   0  0  0  0  0  0  0  0  0  0  0  0
  160.6680  214.3320  146.6650 C   0  0  0  0  0  2  0  0  0  0  0  0
  161.2800  213.5940  145.4880 C   0  0  0  0  0  2  0  0  0  0  0  0
  160.9540  214.2770  144.2450 N   0  0  0  0  0  2  0  0  0  0  0  0
  160.0050  211.9800  143.2610 O   0  0  0  0  0  1  0  0  0  0  0  0
  160.9990  213.0800  142.9650 P   0  0  2  0  0  0  0  0  0  0  0  0
  162.5510  212.4140  142.8610 O   0  0  0  0  0  0  0  0  0  0  0  0
  160.5600  213.8680  141.3820 C   0  0  1  0  0  3  0  0  0  0  0  0
  161.6190  213.6960  140.4870 O   0  0  0  0  0  1  0  0  0  0  0  0
  159.2660  213.2760  140.8000 C   0  0  1  0  0  3  0  0  0  0  0  0
  158.2460  214.2290  140.8160 O   0  0  0  0  0  1  0  0  0  0  0  0
  158.1600  212.9320  138.5410 C   0  0  0  0  0  1  0  0  0  0  0  0
  159.4160  212.7310  139.3730 C   0  0  2  0  0  3  0  0  0  0  0  0
  161.2570  211.0610  139.1440 O   0  0  0  0  0  0  0  0  0  0  0  0
  159.1050  210.3520  139.4730 O   0  0  0  0  0  1  0  0  0  0  0  0
  159.9040  211.3130  139.3200 C   0  0  0  0  0  0  0  0  0  0  0  0
  161.8230  210.7440  153.7700 C   0  0  0  0  0  2  0  0  0  0  0  0
  162.0830  209.4690  154.2960 O   0  0  0  0  0  0  0  0  0  0  0  0
  160.2700  208.1220  157.2550 C   0  0  0  0  0  1  0  0  0  0  0  0
  159.4070  210.9590  156.5430 N   0  0  0  0  0  0  0  0  0  0  0  0
  159.1730  209.7690  155.7300 C   0  0  0  0  0  2  0  0  0  0  0  0
  158.2670  211.6470  157.1230 C   0  0  0  0  0  1  0  0  0  0  0  0
  160.3140  208.7620  155.8800 C   0  0  1  0  0  3  0  0  0  0  0  0
  161.6820  209.4310  155.6500 C   0  0  2  0  0  3  0  0  0  0  0  0
  160.7390  211.4660  156.7080 C   0  0  0  0  0  0  0  0  0  0  0  0
  161.8320  210.6970  156.3040 O   0  0  0  0  0  0  0  0  0  0  0  0
  160.9340  212.5850  157.2550 O   0  0  0  0  0  0  0  0  0  0  0  0
  1  3  1  0  0  0  0
  1  6  2  0  0  0  0
  2  1  1  0  0  0  0
  4 40  1  0  0  0  0
  5  2  1  0  0  0  0
  5  7  2  0  0  0  0
  6  4  2  0  0  0  0
  7  3  1  0  0  0  0
  9  7  1  0  0  0  0
  9  8  1  1  0  0  0
 10  9  1  0  0  0  0
 11 12  1  0  0  0  0
 12 10  1  0  0  0  0
 13 10  1  0  0  0  0
 14 15  1  0  0  0  0
 14 11  1  0  0  0  0
 15 13  1  0  0  0  0
 16 17  2  0  0  0  0
 17  4  1  0  0  0  0
 17 21  1  0  0  0  0
 18 16  1  0  0  0  0
 19 18  1  0  0  0  0
 21 20  1  0  0  0  0
 22 16  1  0  0  0  0
 23 24  3  0  0  0  0
 24 22  1  0  0  0  0
 25 23  1  0  0  0  0
 26 25  1  0  0  0  0
 27 26  1  0  0  0  0
 29 30  2  6  0  0  0
 29 28  1  0  0  0  0
 29 27  1  0  0  0  0
 31 32  1  6  0  0  0
 31 29  1  0  0  0  0
 33 34  1  6  0  0  0
 33 31  1  0  0  0  0
 36 35  1  1  0  0  0
 36 33  1  0  0  0  0
 37 39  2  0  0  0  0
 39 36  1  0  0  0  0
 39 38  1  0  0  0  0
 40 41  1  0  0  0  0
 43 48  1  0  0  0  0
 43 45  1  0  0  0  0
 44 46  1  0  0  0  0
 44 43  1  0  0  0  0
 46 42  1  1  0  0  0
 47 41  1  6  0  0  0
 47 46  1  0  0  0  0
 47 49  1  0  0  0  0
 48 50  2  0  0  0  0
 49 48  1  0  0  0  0
M  END
>  <MODEL>
2

>  <REMARK>
 VINA RESULT:      -6.2      1.644      2.763
  Name = 
  18 active torsions:
  status: ('A' for Active; 'I' for Inactive)
    1  A    between atoms: O_1  and  C_10
    2  A    between atoms: O_1  and  C_34
    3  A    between atoms: O_2  and  C_13
    4  A    between atoms: C_3  and  C_42
    5  A    between atoms: C_5  and  C_8
    6  A    between atoms: C_5  and  C_27
    7  A    between atoms: C_8  and  P_36
    8  A    between atoms: C_9  and  C_37
    9  A    between atoms: C_10  and  C_32
   10  A    between atoms: C_13  and  C_35
   11  A    between atoms: N_18  and  P_36
   12  A    between atoms: N_18  and  C_43
   13  A    between atoms: C_26  and  C_32
   14  A    between atoms: C_26  and  N_41
   15  A    between atoms: C_27  and  C_40
   16  A    between atoms: C_30  and  C_35
   17  A    between atoms: C_37  and  C_43
   18  A    between atoms: C_42  and  C_49
                            x       y       z     vdW  Elec       q    Type
                         _______ _______ _______ _____ _____    ______ ____

>  <TORSDO>
F 18

$$$$
=
 OpenBabel11052412073D

 50 52  0  0  1  0  0  0  0  0999 V2000
  161.8970  209.9600  148.8330 C   0  0  0  0  0  0  0  0  0  0  0  0
  163.1590  210.3290  148.4060 O   0  0  0  0  0  0  0  0  0  0  0  0
  160.9380  211.0860  148.7130 C   0  0  0  0  0  2  0  0  0  0  0  0
  161.2930  207.5500  149.6280 C   0  0  0  0  0  0  0  0  0  0  0  0
  163.0940  211.6470  147.9880 C   0  0  0  0  0  3  0  0  0  0  0  0
  161.5950  208.7600  149.2420 C   0  0  0  0  0  0  0  0  0  0  0  0
  161.8550  212.1150  148.1370 C   0  0  0  0  0  0  0  0  0  0  0  0
  162.5100  214.2840  147.0740 C   0  0  0  0  0  1  0  0  0  0  0  0
  161.4110  213.5060  147.7800 C   0  0  1  0  0  3  0  0  0  0  0  0
  160.0880  213.5660  147.0060 C   0  0  0  0  0  3  0  0  0  0  0  0
  158.6480  212.5990  145.1880 C   0  0  0  0  0  2  0  0  0  0  0  0
  159.9640  212.4630  145.9470 C   0  0  0  0  0  2  0  0  0  0  0  0
  158.8940  213.5370  147.9630 C   0  0  0  0  0  2  0  0  0  0  0  0
  157.4710  212.5470  146.1590 C   0  0  0  0  0  2  0  0  0  0  0  0
  157.5890  213.6690  147.1870 C   0  0  0  0  0  2  0  0  0  0  0  0
  161.3900  207.8300  152.0870 C   0  0  0  0  0  0  0  0  0  0  0  0
  161.6650  207.0820  150.9880 C   0  0  0  0  0  0  0  0  0  0  0  0
  161.6690  207.4190  153.4020 O   0  0  0  0  0  0  0  0  0  0  0  0
  161.4010  206.1300  153.9390 C   0  0  0  0  0  1  0  0  0  0  0  0
  161.7480  204.6480  151.1580 O   0  0  0  0  0  1  0  0  0  0  0  0
  162.3800  205.8450  151.1200 N   0  0  0  0  0  2  0  0  0  0  0  0
  160.7850  209.1930  151.9510 C   0  0  0  0  0  2  0  0  0  0  0  0
  160.2240  210.1900  154.3650 C   0  0  0  0  0  0  0  0  0  0  0  0
  160.4820  209.7440  153.2740 C   0  0  0  0  0  0  0  0  0  0  0  0
  159.9080  210.7220  155.6920 C   0  0  0  0  0  2  0  0  0  0  0  0
  158.4070  210.7140  155.9230 C   0  0  0  0  0  2  0  0  0  0  0  0
  157.9710  212.0070  156.4270 N   0  0  0  0  0  2  0  0  0  0  0  0
  155.4160  212.4130  157.1000 O   0  0  0  0  0  1  0  0  0  0  0  0
  156.3160  212.2420  155.8980 P   0  0  2  0  0  0  0  0  0  0  0  0
  155.8060  210.8960  155.0070 O   0  0  0  0  0  0  0  0  0  0  0  0
  156.2160  213.7380  154.8620 C   0  0  1  0  0  3  0  0  0  0  0  0
  157.4090  214.4520  154.9890 O   0  0  0  0  0  1  0  0  0  0  0  0
  155.9590  213.3830  153.3880 C   0  0  1  0  0  3  0  0  0  0  0  0
  154.6100  213.5610  153.0730 O   0  0  0  0  0  1  0  0  0  0  0  0
  156.0850  214.4500  151.0880 C   0  0  0  0  0  1  0  0  0  0  0  0
  156.8120  214.1870  152.3960 C   0  0  2  0  0  3  0  0  0  0  0  0
  158.3060  212.2780  151.7990 O   0  0  0  0  0  0  0  0  0  0  0  0
  159.2070  214.3260  152.2860 O   0  0  0  0  0  1  0  0  0  0  0  0
  158.1780  213.6080  152.1730 C   0  0  0  0  0  0  0  0  0  0  0  0
  160.7730  206.5850  148.6130 C   0  0  0  0  0  2  0  0  0  0  0  0
  161.5000  206.6940  147.4160 O   0  0  0  0  0  0  0  0  0  0  0  0
  163.7940  204.4050  145.5840 C   0  0  0  0  0  1  0  0  0  0  0  0
  161.0750  203.1420  146.1400 N   0  0  0  0  0  0  0  0  0  0  0  0
  161.3220  204.2690  145.2470 C   0  0  0  0  0  2  0  0  0  0  0  0
  160.6160  201.8860  145.5730 C   0  0  0  0  0  1  0  0  0  0  0  0
  162.4750  205.1360  145.7540 C   0  0  1  0  0  3  0  0  0  0  0  0
  162.2720  205.5260  147.2310 C   0  0  2  0  0  3  0  0  0  0  0  0
  161.2280  203.3000  147.5580 C   0  0  0  0  0  0  0  0  0  0  0  0
  161.8440  204.4440  148.0680 O   0  0  0  0  0  0  0  0  0  0  0  0
  160.8490  202.3940  148.3470 O   0  0  0  0  0  0  0  0  0  0  0  0
  1  6  2  0  0  0  0
  2  1  1  0  0  0  0
  3  1  1  0  0  0  0
  4 17  1  0  0  0  0
  5  7  2  0  0  0  0
  5  2  1  0  0  0  0
  6  4  2  0  0  0  0
  7  3  1  0  0  0  0
  9  8  1  6  0  0  0
  9  7  1  0  0  0  0
 10  9  1  0  0  0  0
 10 13  1  0  0  0  0
 11 12  1  0  0  0  0
 11 14  1  0  0  0  0
 12 10  1  0  0  0  0
 14 15  1  0  0  0  0
 15 13  1  0  0  0  0
 16 18  1  0  0  0  0
 17 21  1  0  0  0  0
 17 16  2  0  0  0  0
 18 19  1  0  0  0  0
 21 20  1  0  0  0  0
 22 16  1  0  0  0  0
 22 24  1  0  0  0  0
 23 25  1  0  0  0  0
 24 23  3  0  0  0  0
 25 26  1  0  0  0  0
 26 27  1  0  0  0  0
 29 30  2  6  0  0  0
 29 27  1  0  0  0  0
 29 28  1  0  0  0  0
 31 32  1  6  0  0  0
 31 29  1  0  0  0  0
 33 34  1  6  0  0  0
 33 31  1  0  0  0  0
 36 35  1  6  0  0  0
 36 33  1  0  0  0  0
 37 39  2  0  0  0  0
 39 38  1  0  0  0  0
 39 36  1  0  0  0  0
 40  4  1  0  0  0  0
 41 40  1  0  0  0  0
 43 48  1  0  0  0  0
 44 46  1  0  0  0  0
 44 43  1  0  0  0  0
 45 43  1  0  0  0  0
 46 42  1  1  0  0  0
 46 47  1  0  0  0  0
 47 41  1  6  0  0  0
 47 49  1  0  0  0  0
 48 49  1  0  0  0  0
 48 50  2  0  0  0  0
M  END
>  <MODEL>
3

>  <REMARK>
 VINA RESULT:      -6.1      5.084     10.908
  Name = 
  18 active torsions:
  status: ('A' for Active; 'I' for Inactive)
    1  A    between atoms: O_1  and  C_10
    2  A    between atoms: O_1  and  C_34
    3  A    between atoms: O_2  and  C_13
    4  A    between atoms: C_3  and  C_42
    5  A    between atoms: C_5  and  C_8
    6  A    between atoms: C_5  and  C_27
    7  A    between atoms: C_8  and  P_36
    8  A    between atoms: C_9  and  C_37
    9  A    between atoms: C_10  and  C_32
   10  A    between atoms: C_13  and  C_35
   11  A    between atoms: N_18  and  P_36
   12  A    between atoms: N_18  and  C_43
   13  A    between atoms: C_26  and  C_32
   14  A    between atoms: C_26  and  N_41
   15  A    between atoms: C_27  and  C_40
   16  A    between atoms: C_30  and  C_35
   17  A    between atoms: C_37  and  C_43
   18  A    between atoms: C_42  and  C_49
                            x       y       z     vdW  Elec       q    Type
                         _______ _______ _______ _____ _____    ______ ____

>  <TORSDO>
F 18

$$$$
=
 OpenBabel11052412073D

 50 52  0  0  1  0  0  0  0  0999 V2000
  161.9540  207.8110  148.1840 C   0  0  0  0  0  0  0  0  0  0  0  0
  163.1310  207.3450  147.6280 O   0  0  0  0  0  0  0  0  0  0  0  0
  160.8110  206.9290  147.8400 C   0  0  0  0  0  2  0  0  0  0  0  0
  161.8230  209.9080  149.7300 C   0  0  0  0  0  0  0  0  0  0  0  0
  162.8390  206.1810  146.9380 C   0  0  0  0  0  3  0  0  0  0  0  0
  161.8830  208.8650  148.9470 C   0  0  0  0  0  0  0  0  0  0  0  0
  161.5390  205.9020  147.0360 C   0  0  0  0  0  0  0  0  0  0  0  0
  160.9130  204.7610  144.8980 C   0  0  0  0  0  1  0  0  0  0  0  0
  160.8650  204.7100  146.4170 C   0  0  1  0  0  3  0  0  0  0  0  0
  161.3580  203.3600  146.9530 C   0  0  0  0  0  3  0  0  0  0  0  0
  161.6580  201.8450  148.9350 C   0  0  0  0  0  2  0  0  0  0  0  0
  161.1130  203.1880  148.4570 C   0  0  0  0  0  2  0  0  0  0  0  0
  160.7390  202.2020  146.1650 C   0  0  0  0  0  2  0  0  0  0  0  0
  161.0130  200.7050  148.1510 C   0  0  0  0  0  2  0  0  0  0  0  0
  161.2920  200.8700  146.6600 C   0  0  0  0  0  2  0  0  0  0  0  0
  161.3610  212.3380  149.8490 C   0  0  0  0  0  0  0  0  0  0  0  0
  161.8540  211.2780  149.1580 C   0  0  0  0  0  0  0  0  0  0  0  0
  161.4090  213.6640  149.3860 O   0  0  0  0  0  0  0  0  0  0  0  0
  160.5850  214.2130  148.3660 C   0  0  0  0  0  1  0  0  0  0  0  0
  163.5480  212.0660  147.5860 O   0  0  0  0  0  1  0  0  0  0  0  0
  162.3610  211.4600  147.8290 N   0  0  0  0  0  2  0  0  0  0  0  0
  160.6880  212.1400  151.1720 C   0  0  0  0  0  2  0  0  0  0  0  0
  158.4640  213.6140  151.3090 C   0  0  0  0  0  0  0  0  0  0  0  0
  159.4720  212.9540  151.2460 C   0  0  0  0  0  0  0  0  0  0  0  0
  157.2370  214.4080  151.3940 C   0  0  0  0  0  2  0  0  0  0  0  0
  156.6680  214.3580  152.8000 C   0  0  0  0  0  2  0  0  0  0  0  0
  156.9370  213.0610  153.4030 N   0  0  0  0  0  2  0  0  0  0  0  0
  155.4200  211.6920  155.1260 O   0  0  0  0  0  1  0  0  0  0  0  0
  156.1130  213.0240  154.9500 P   0  0  2  0  0  0  0  0  0  0  0  0
  154.9610  214.2630  155.0130 O   0  0  0  0  0  0  0  0  0  0  0  0
  157.3270  213.2450  156.2900 C   0  0  1  0  0  3  0  0  0  0  0  0
  157.1100  212.2630  157.2590 O   0  0  0  0  0  1  0  0  0  0  0  0
  158.7680  213.1660  155.7600 C   0  0  1  0  0  3  0  0  0  0  0  0
  159.4240  214.3840  155.9510 O   0  0  0  0  0  1  0  0  0  0  0  0
  160.7620  212.5820  157.2190 C   0  0  0  0  0  1  0  0  0  0  0  0
  159.6040  212.0450  156.3940 C   0  0  2  0  0  3  0  0  0  0  0  0
  160.9930  210.0580  155.7970 O   0  0  0  0  0  1  0  0  0  0  0  0
  159.5470  210.9460  154.2590 O   0  0  0  0  0  0  0  0  0  0  0  0
  160.0490  211.0010  155.4130 C   0  0  0  0  0  0  0  0  0  0  0  0
  161.9460  209.7010  151.2040 C   0  0  0  0  0  2  0  0  0  0  0  0
  162.3900  208.3980  151.4820 O   0  0  0  0  0  0  0  0  0  0  0  0
  160.6780  206.7920  154.3700 C   0  0  0  0  0  1  0  0  0  0  0  0
  161.3880  204.8000  152.1730 N   0  0  0  0  0  0  0  0  0  0  0  0
  162.3430  205.5200  153.0090 C   0  0  0  0  0  2  0  0  0  0  0  0
  161.2920  203.3570  152.3030 C   0  0  0  0  0  1  0  0  0  0  0  0
  161.8200  206.9090  153.3780 C   0  0  1  0  0  3  0  0  0  0  0  0
  161.3590  207.6810  152.1280 C   0  0  2  0  0  3  0  0  0  0  0  0
  160.6070  205.5080  151.2000 C   0  0  0  0  0  0  0  0  0  0  0  0
  160.5740  206.9030  151.2160 O   0  0  0  0  0  0  0  0  0  0  0  0
  159.9140  204.8790  150.3560 O   0  0  0  0  0  0  0  0  0  0  0  0
  1  6  2  0  0  0  0
  2  1  1  0  0  0  0
  3  1  1  0  0  0  0
  4 40  1  0  0  0  0
  5  7  2  0  0  0  0
  5  2  1  0  0  0  0
  6  4  2  0  0  0  0
  7  3  1  0  0  0  0
  9  8  1  6  0  0  0
  9 10  1  0  0  0  0
  9  7  1  0  0  0  0
 10 12  1  0  0  0  0
 12 11  1  0  0  0  0
 13 15  1  0  0  0  0
 13 10  1  0  0  0  0
 14 11  1  0  0  0  0
 15 14  1  0  0  0  0
 16 22  1  0  0  0  0
 17  4  1  0  0  0  0
 17 16  2  0  0  0  0
 18 16  1  0  0  0  0
 19 18  1  0  0  0  0
 20 21  1  0  0  0  0
 21 17  1  0  0  0  0
 22 24  1  0  0  0  0
 23 25  1  0  0  0  0
 24 23  3  0  0  0  0
 25 26  1  0  0  0  0
 26 27  1  0  0  0  0
 27 29  1  0  0  0  0
 29 30  2  1  0  0  0
 29 28  1  0  0  0  0
 29 31  1  0  0  0  0
 31 32  1  1  0  0  0
 33 34  1  1  0  0  0
 33 31  1  0  0  0  0
 33 36  1  0  0  0  0
 36 35  1  6  0  0  0
 38 39  2  0  0  0  0
 39 37  1  0  0  0  0
 39 36  1  0  0  0  0
 40 41  1  0  0  0  0
 43 45  1  0  0  0  0
 43 44  1  0  0  0  0
 44 46  1  0  0  0  0
 46 42  1  1  0  0  0
 47 41  1  6  0  0  0
 47 46  1  0  0  0  0
 48 49  1  0  0  0  0
 48 43  1  0  0  0  0
 49 47  1  0  0  0  0
 50 48  2  0  0  0  0
M  END
>  <MODEL>
4

>  <REMARK>
 VINA RESULT:      -5.8      4.914      9.254
  Name = 
  18 active torsions:
  status: ('A' for Active; 'I' for Inactive)
    1  A    between atoms: O_1  and  C_10
    2  A    between atoms: O_1  and  C_34
    3  A    between atoms: O_2  and  C_13
    4  A    between atoms: C_3  and  C_42
    5  A    between atoms: C_5  and  C_8
    6  A    between atoms: C_5  and  C_27
    7  A    between atoms: C_8  and  P_36
    8  A    between atoms: C_9  and  C_37
    9  A    between atoms: C_10  and  C_32
   10  A    between atoms: C_13  and  C_35
   11  A    between atoms: N_18  and  P_36
   12  A    between atoms: N_18  and  C_43
   13  A    between atoms: C_26  and  C_32
   14  A    between atoms: C_26  and  N_41
   15  A    between atoms: C_27  and  C_40
   16  A    between atoms: C_30  and  C_35
   17  A    between atoms: C_37  and  C_43
   18  A    between atoms: C_42  and  C_49
                            x       y       z     vdW  Elec       q    Type
                         _______ _______ _______ _____ _____    ______ ____

>  <TORSDO>
F 18

$$$$
=
 OpenBabel11052412073D

 50 52  0  0  1  0  0  0  0  0999 V2000
  161.5590  210.8500  151.3600 C   0  0  0  0  0  0  0  0  0  0  0  0
  160.4030  211.4200  151.8590 O   0  0  0  0  0  0  0  0  0  0  0  0
  162.4140  210.3250  152.4530 C   0  0  0  0  0  2  0  0  0  0  0  0
  162.0770  210.6410  148.8120 C   0  0  0  0  0  0  0  0  0  0  0  0
  160.4290  211.2890  153.2370 C   0  0  0  0  0  3  0  0  0  0  0  0
  161.8260  210.7550  150.0890 C   0  0  0  0  0  0  0  0  0  0  0  0
  161.5460  210.6690  153.6190 C   0  0  0  0  0  0  0  0  0  0  0  0
  161.4120  211.4150  156.0040 C   0  0  0  0  0  1  0  0  0  0  0  0
  161.9110  210.3490  155.0410 C   0  0  1  0  0  3  0  0  0  0  0  0
  161.5020  208.9410  155.4940 C   0  0  0  0  0  3  0  0  0  0  0  0
  160.2760  207.5230  157.1670 C   0  0  0  0  0  2  0  0  0  0  0  0
  160.6160  208.9500  156.7460 C   0  0  0  0  0  2  0  0  0  0  0  0
  160.8260  208.1770  154.3540 C   0  0  0  0  0  2  0  0  0  0  0  0
  159.5850  206.7860  156.0220 C   0  0  0  0  0  2  0  0  0  0  0  0
  160.4900  206.7560  154.7940 C   0  0  0  0  0  2  0  0  0  0  0  0
  161.7070  212.5730  147.3100 C   0  0  0  0  0  0  0  0  0  0  0  0
  162.5630  211.8100  148.0360 C   0  0  0  0  0  0  0  0  0  0  0  0
  162.0960  213.7210  146.5970 O   0  0  0  0  0  0  0  0  0  0  0  0
  162.7830  213.7280  145.3520 C   0  0  0  0  0  1  0  0  0  0  0  0
  164.8310  211.3920  147.2370 O   0  0  0  0  0  1  0  0  0  0  0  0
  163.9700  212.0880  148.0150 N   0  0  0  0  0  2  0  0  0  0  0  0
  160.2600  212.2040  147.1980 C   0  0  0  0  0  2  0  0  0  0  0  0
  159.4410  212.4660  144.6690 C   0  0  0  0  0  0  0  0  0  0  0  0
  159.8070  212.3530  145.8120 C   0  0  0  0  0  0  0  0  0  0  0  0
  158.9960  212.5940  143.2790 C   0  0  0  0  0  2  0  0  0  0  0  0
  160.1820  212.8330  142.3620 C   0  0  0  0  0  2  0  0  0  0  0  0
  159.9470  212.2130  141.0670 N   0  0  0  0  0  2  0  0  0  0  0  0
  162.3570  211.1650  140.5830 O   0  0  0  0  0  1  0  0  0  0  0  0
  161.4490  212.2990  140.1680 P   0  0  2  0  0  0  0  0  0  0  0  0
  162.2200  213.7720  140.4820 O   0  0  0  0  0  0  0  0  0  0  0  0
  161.0980  212.1570  138.3850 C   0  0  1  0  0  3  0  0  0  0  0  0
  162.0170  212.9400  137.6840 O   0  0  0  0  0  1  0  0  0  0  0  0
  161.1690  210.6960  137.9140 C   0  0  1  0  0  3  0  0  0  0  0  0
  162.4980  210.2740  137.8350 O   0  0  0  0  0  1  0  0  0  0  0  0
  161.1080  208.3880  138.9710 C   0  0  0  0  0  1  0  0  0  0  0  0
  160.3880  209.7160  138.8000 C   0  0  2  0  0  3  0  0  0  0  0  0
  157.9390  210.0130  139.1830 O   0  0  0  0  0  1  0  0  0  0  0  0
  158.6810  208.9770  137.2810 O   0  0  0  0  0  0  0  0  0  0  0  0
  158.9600  209.5310  138.3770 C   0  0  0  0  0  0  0  0  0  0  0  0
  161.6580  209.3890  148.1120 C   0  0  0  0  0  2  0  0  0  0  0  0
  162.1430  208.2600  148.7920 O   0  0  0  0  0  0  0  0  0  0  0  0
  160.6940  204.9100  149.5180 C   0  0  0  0  0  1  0  0  0  0  0  0
  161.6840  205.1610  146.6440 N   0  0  0  0  0  0  0  0  0  0  0  0
  162.5250  205.1680  147.8370 C   0  0  0  0  0  2  0  0  0  0  0  0
  161.8020  204.0550  145.7110 C   0  0  0  0  0  1  0  0  0  0  0  0
  161.8040  205.8170  149.0200 C   0  0  1  0  0  3  0  0  0  0  0  0
  161.2300  207.1940  148.6360 C   0  0  2  0  0  3  0  0  0  0  0  0
  160.8050  206.2620  146.3780 C   0  0  0  0  0  0  0  0  0  0  0  0
  160.5660  207.2180  147.3660 O   0  0  0  0  0  0  0  0  0  0  0  0
  160.2090  206.3520  145.2700 O   0  0  0  0  0  0  0  0  0  0  0  0
  1  2  1  0  0  0  0
  1  3  1  0  0  0  0
  2  5  1  0  0  0  0
  3  7  1  0  0  0  0
  4  6  2  0  0  0  0
  5  7  2  0  0  0  0
  6  1  2  0  0  0  0
  7  9  1  0  0  0  0
  9 10  1  0  0  0  0
  9  8  1  1  0  0  0
 10 12  1  0  0  0  0
 12 11  1  0  0  0  0
 13 15  1  0  0  0  0
 13 10  1  0  0  0  0
 14 11  1  0  0  0  0
 15 14  1  0  0  0  0
 16 17  2  0  0  0  0
 17  4  1  0  0  0  0
 18 16  1  0  0  0  0
 19 18  1  0  0  0  0
 20 21  1  0  0  0  0
 21 17  1  0  0  0  0
 22 16  1  0  0  0  0
 23 24  3  0  0  0  0
 24 22  1  0  0  0  0
 25 23  1  0  0  0  0
 26 25  1  0  0  0  0
 27 26  1  0  0  0  0
 29 30  2  1  0  0  0
 29 28  1  0  0  0  0
 29 27  1  0  0  0  0
 31 32  1  6  0  0  0
 31 29  1  0  0  0  0
 33 34  1  1  0  0  0
 33 31  1  0  0  0  0
 33 36  1  0  0  0  0
 36 35  1  6  0  0  0
 38 39  2  0  0  0  0
 39 36  1  0  0  0  0
 39 37  1  0  0  0  0
 40 41  1  0  0  0  0
 40  4  1  0  0  0  0
 43 44  1  0  0  0  0
 44 46  1  0  0  0  0
 45 43  1  0  0  0  0
 46 42  1  6  0  0  0
 47 41  1  6  0  0  0
 47 46  1  0  0  0  0
 48 43  1  0  0  0  0
 48 49  1  0  0  0  0
 49 47  1  0  0  0  0
 50 48  2  0  0  0  0
M  END
>  <MODEL>
5

>  <REMARK>
 VINA RESULT:      -5.7      2.520      6.251
  Name = 
  18 active torsions:
  status: ('A' for Active; 'I' for Inactive)
    1  A    between atoms: O_1  and  C_10
    2  A    between atoms: O_1  and  C_34
    3  A    between atoms: O_2  and  C_13
    4  A    between atoms: C_3  and  C_42
    5  A    between atoms: C_5  and  C_8
    6  A    between atoms: C_5  and  C_27
    7  A    between atoms: C_8  and  P_36
    8  A    between atoms: C_9  and  C_37
    9  A    between atoms: C_10  and  C_32
   10  A    between atoms: C_13  and  C_35
   11  A    between atoms: N_18  and  P_36
   12  A    between atoms: N_18  and  C_43
   13  A    between atoms: C_26  and  C_32
   14  A    between atoms: C_26  and  N_41
   15  A    between atoms: C_27  and  C_40
   16  A    between atoms: C_30  and  C_35
   17  A    between atoms: C_37  and  C_43
   18  A    between atoms: C_42  and  C_49
                            x       y       z     vdW  Elec       q    Type
                         _______ _______ _______ _____ _____    ______ ____

>  <TORSDO>
F 18

$$$$
=
 OpenBabel11052412073D

 50 52  0  0  1  0  0  0  0  0999 V2000
  159.5640  212.9660  149.9580 C   0  0  0  0  0  0  0  0  0  0  0  0
  158.3100  213.3700  149.5380 O   0  0  0  0  0  0  0  0  0  0  0  0
  159.7380  213.1830  151.4160 C   0  0  0  0  0  2  0  0  0  0  0  0
  161.3230  211.8590  148.3830 C   0  0  0  0  0  0  0  0  0  0  0  0
  157.6240  213.8350  150.6470 C   0  0  0  0  0  3  0  0  0  0  0  0
  160.4490  212.4240  149.1720 C   0  0  0  0  0  0  0  0  0  0  0  0
  158.3900  213.7430  151.7330 C   0  0  0  0  0  0  0  0  0  0  0  0
  156.4820  214.4400  153.1950 C   0  0  0  0  0  1  0  0  0  0  0  0
  157.9720  214.1490  153.1190 C   0  0  1  0  0  3  0  0  0  0  0  0
  158.4170  213.1780  154.2210 C   0  0  0  0  0  3  0  0  0  0  0  0
  159.5860  212.8560  156.4200 C   0  0  0  0  0  2  0  0  0  0  0  0
  159.1380  213.8770  155.3790 C   0  0  0  0  0  2  0  0  0  0  0  0
  157.2310  212.3570  154.7330 C   0  0  0  0  0  2  0  0  0  0  0  0
  158.3860  212.0640  156.9330 C   0  0  0  0  0  2  0  0  0  0  0  0
  157.6970  211.3470  155.7750 C   0  0  0  0  0  2  0  0  0  0  0  0
  161.6640  212.9920  146.2070 C   0  0  0  0  0  0  0  0  0  0  0  0
  162.1290  212.6820  147.4450 C   0  0  0  0  0  0  0  0  0  0  0  0
  162.3540  213.8090  145.2950 O   0  0  0  0  0  0  0  0  0  0  0  0
  163.2960  213.3570  144.3300 C   0  0  0  0  0  1  0  0  0  0  0  0
  164.4910  212.2420  147.8780 O   0  0  0  0  0  1  0  0  0  0  0  0
  163.4420  213.0980  147.8440 N   0  0  0  0  0  2  0  0  0  0  0  0
  160.3620  212.4370  145.7190 C   0  0  0  0  0  2  0  0  0  0  0  0
  159.8980  213.2500  143.2170 C   0  0  0  0  0  0  0  0  0  0  0  0
  160.1100  212.8770  144.3450 C   0  0  0  0  0  0  0  0  0  0  0  0
  159.6450  213.7130  141.8510 C   0  0  0  0  0  2  0  0  0  0  0  0
  160.9530  213.9740  141.1280 C   0  0  0  0  0  2  0  0  0  0  0  0
  161.4850  212.7300  140.5920 N   0  0  0  0  0  2  0  0  0  0  0  0
  163.4880  213.4190  138.9610 O   0  0  0  0  0  1  0  0  0  0  0  0
  162.0210  213.0550  138.9540 P   0  0  2  0  0  0  0  0  0  0  0  0
  161.1320  214.3410  138.3070 O   0  0  0  0  0  0  0  0  0  0  0  0
  161.7830  211.5660  137.9310 C   0  0  1  0  0  3  0  0  0  0  0  0
  162.9940  210.8770  137.8520 O   0  0  0  0  0  1  0  0  0  0  0  0
  160.6860  210.6570  138.5100 C   0  0  1  0  0  3  0  0  0  0  0  0
  159.4570  211.3190  138.5130 O   0  0  0  0  0  1  0  0  0  0  0  0
  159.0770  208.9890  137.4740 C   0  0  0  0  0  1  0  0  0  0  0  0
  160.5300  209.3200  137.7710 C   0  0  2  0  0  3  0  0  0  0  0  0
  161.4340  208.2000  139.8100 O   0  0  0  0  0  1  0  0  0  0  0  0
  161.6340  207.1880  137.7670 O   0  0  0  0  0  0  0  0  0  0  0  0
  161.2420  208.1800  138.4360 C   0  0  0  0  0  0  0  0  0  0  0  0
  161.3380  210.3680  148.2830 C   0  0  0  0  0  2  0  0  0  0  0  0
  161.7520  209.8000  149.4990 O   0  0  0  0  0  0  0  0  0  0  0  0
  162.3350  206.6620  147.5840 C   0  0  0  0  0  1  0  0  0  0  0  0
  161.1380  206.1470  150.3410 N   0  0  0  0  0  0  0  0  0  0  0  0
  160.4650  206.8180  149.2330 C   0  0  0  0  0  2  0  0  0  0  0  0
  160.6300  204.8650  150.7950 C   0  0  0  0  0  1  0  0  0  0  0  0
  161.4560  207.6100  148.3790 C   0  0  1  0  0  3  0  0  0  0  0  0
  162.3280  208.5350  149.2500 C   0  0  2  0  0  3  0  0  0  0  0  0
  162.2420  206.7810  151.0010 C   0  0  0  0  0  0  0  0  0  0  0  0
  162.8310  207.9150  150.4400 O   0  0  0  0  0  0  0  0  0  0  0  0
  162.7150  206.2960  152.0640 O   0  0  0  0  0  0  0  0  0  0  0  0
  1  3  1  0  0  0  0
  2  1  1  0  0  0  0
  2  5  1  0  0  0  0
  3  7  1  0  0  0  0
  4  6  2  0  0  0  0
  5  7  2  0  0  0  0
  6  1  2  0  0  0  0
  7  9  1  0  0  0  0
  9  8  1  6  0  0  0
  9 10  1  0  0  0  0
 10 13  1  0  0  0  0
 10 12  1  0  0  0  0
 11 14  1  0  0  0  0
 12 11  1  0  0  0  0
 13 15  1  0  0  0  0
 15 14  1  0  0  0  0
 16 17  2  0  0  0  0
 17 21  1  0  0  0  0
 17  4  1  0  0  0  0
 18 16  1  0  0  0  0
 19 18  1  0  0  0  0
 21 20  1  0  0  0  0
 22 16  1  0  0  0  0
 23 24  3  0  0  0  0
 24 22  1  0  0  0  0
 25 23  1  0  0  0  0
 26 25  1  0  0  0  0
 27 26  1  0  0  0  0
 29 30  2  6  0  0  0
 29 28  1  0  0  0  0
 29 27  1  0  0  0  0
 31 32  1  1  0  0  0
 31 33  1  0  0  0  0
 31 29  1  0  0  0  0
 33 34  1  6  0  0  0
 36 35  1  1  0  0  0
 36 39  1  0  0  0  0
 36 33  1  0  0  0  0
 38 39  2  0  0  0  0
 39 37  1  0  0  0  0
 40  4  1  0  0  0  0
 40 41  1  0  0  0  0
 43 45  1  0  0  0  0
 43 48  1  0  0  0  0
 44 43  1  0  0  0  0
 46 42  1  1  0  0  0
 46 44  1  0  0  0  0
 46 47  1  0  0  0  0
 47 41  1  1  0  0  0
 47 49  1  0  0  0  0
 48 50  2  0  0  0  0
 49 48  1  0  0  0  0
M  END
>  <MODEL>
6

>  <REMARK>
 VINA RESULT:      -5.3      2.815      6.773
  Name = 
  18 active torsions:
  status: ('A' for Active; 'I' for Inactive)
    1  A    between atoms: O_1  and  C_10
    2  A    between atoms: O_1  and  C_34
    3  A    between atoms: O_2  and  C_13
    4  A    between atoms: C_3  and  C_42
    5  A    between atoms: C_5  and  C_8
    6  A    between atoms: C_5  and  C_27
    7  A    between atoms: C_8  and  P_36
    8  A    between atoms: C_9  and  C_37
    9  A    between atoms: C_10  and  C_32
   10  A    between atoms: C_13  and  C_35
   11  A    between atoms: N_18  and  P_36
   12  A    between atoms: N_18  and  C_43
   13  A    between atoms: C_26  and  C_32
   14  A    between atoms: C_26  and  N_41
   15  A    between atoms: C_27  and  C_40
   16  A    between atoms: C_30  and  C_35
   17  A    between atoms: C_37  and  C_43
   18  A    between atoms: C_42  and  C_49
                            x       y       z     vdW  Elec       q    Type
                         _______ _______ _______ _____ _____    ______ ____

>  <TORSDO>
F 18

$$$$
=
 OpenBabel11052412073D

 50 52  0  0  1  0  0  0  0  0999 V2000
  160.4070  212.7680  142.0360 C   0  0  0  0  0  0  0  0  0  0  0  0
  160.8200  214.0480  142.3520 O   0  0  0  0  0  0  0  0  0  0  0  0
  160.2650  211.9330  143.2550 C   0  0  0  0  0  2  0  0  0  0  0  0
  159.8470  211.9920  139.6100 C   0  0  0  0  0  0  0  0  0  0  0  0
  160.9480  214.1230  143.7290 C   0  0  0  0  0  3  0  0  0  0  0  0
  160.1380  212.3730  140.8240 C   0  0  0  0  0  0  0  0  0  0  0  0
  160.6380  212.9510  144.2830 C   0  0  0  0  0  0  0  0  0  0  0  0
  161.9430  213.1470  146.4090 C   0  0  0  0  0  1  0  0  0  0  0  0
  160.6570  212.6640  145.7580 C   0  0  1  0  0  3  0  0  0  0  0  0
  159.4180  213.1640  146.5130 C   0  0  0  0  0  3  0  0  0  0  0  0
  156.9560  212.9200  146.9470 C   0  0  0  0  0  2  0  0  0  0  0  0
  158.1570  212.3510  146.1970 C   0  0  0  0  0  2  0  0  0  0  0  0
  159.6790  213.2010  148.0210 C   0  0  0  0  0  2  0  0  0  0  0  0
  157.2290  212.9290  148.4490 C   0  0  0  0  0  2  0  0  0  0  0  0
  158.4670  213.7680  148.7530 C   0  0  0  0  0  2  0  0  0  0  0  0
  161.0730  210.3980  138.1640 C   0  0  0  0  0  0  0  0  0  0  0  0
  160.9290  211.6590  138.6480 C   0  0  0  0  0  0  0  0  0  0  0  0
  162.0420  210.0320  137.2140 O   0  0  0  0  0  0  0  0  0  0  0  0
  162.6760  208.7630  137.1270 C   0  0  0  0  0  1  0  0  0  0  0  0
  162.9340  212.9910  139.0520 O   0  0  0  0  0  1  0  0  0  0  0  0
  161.8660  212.6810  138.2810 N   0  0  0  0  0  2  0  0  0  0  0  0
  160.2000  209.2860  138.6570 C   0  0  0  0  0  2  0  0  0  0  0  0
  161.5860  207.6590  140.2590 C   0  0  0  0  0  0  0  0  0  0  0  0
  160.9650  208.3930  139.5310 C   0  0  0  0  0  0  0  0  0  0  0  0
  162.3310  206.7640  141.1470 C   0  0  0  0  0  2  0  0  0  0  0  0
  161.4110  206.1780  142.2030 C   0  0  0  0  0  2  0  0  0  0  0  0
  162.1920  205.5000  143.2260 N   0  0  0  0  0  2  0  0  0  0  0  0
  160.1610  203.9970  144.0980 O   0  0  0  0  0  0  0  0  0  0  0  0
  161.0990  205.0980  144.5360 P   0  0  2  0  0  0  0  0  0  0  0  0
  160.1930  206.4630  144.9630 O   0  0  0  0  0  1  0  0  0  0  0  0
  162.0590  204.5240  145.9750 C   0  0  1  0  0  3  0  0  0  0  0  0
  162.8880  205.5630  146.4030 O   0  0  0  0  0  1  0  0  0  0  0  0
  161.1380  204.0670  147.1180 C   0  0  1  0  0  3  0  0  0  0  0  0
  161.2300  202.6850  147.2930 O   0  0  0  0  0  1  0  0  0  0  0  0
  161.2080  203.8320  149.6450 C   0  0  0  0  0  1  0  0  0  0  0  0
  161.4190  204.7590  148.4590 C   0  0  2  0  0  3  0  0  0  0  0  0
  160.9080  206.8250  149.7650 O   0  0  0  0  0  1  0  0  0  0  0  0
  159.9170  206.4850  147.7290 O   0  0  0  0  0  0  0  0  0  0  0  0
  160.6920  206.0610  148.6270 C   0  0  0  0  0  0  0  0  0  0  0  0
  158.4330  212.1110  139.1440 C   0  0  0  0  0  2  0  0  0  0  0  0
  157.6660  211.0360  139.6230 O   0  0  0  0  0  0  0  0  0  0  0  0
  155.0850  211.7750  137.0440 C   0  0  0  0  0  1  0  0  0  0  0  0
  153.9240  210.3940  139.5030 N   0  0  0  0  0  0  0  0  0  0  0  0
  154.4880  211.7400  139.4700 C   0  0  0  0  0  2  0  0  0  0  0  0
  152.5050  210.2360  139.7690 C   0  0  0  0  0  1  0  0  0  0  0  0
  155.6310  211.8380  138.4590 C   0  0  1  0  0  3  0  0  0  0  0  0
  156.6660  210.7180  138.6770 C   0  0  2  0  0  3  0  0  0  0  0  0
  154.7760  209.2530  139.3340 C   0  0  0  0  0  0  0  0  0  0  0  0
  156.0910  209.4240  138.8970 O   0  0  0  0  0  0  0  0  0  0  0  0
  154.3350  208.0900  139.5360 O   0  0  0  0  0  0  0  0  0  0  0  0
  1  2  1  0  0  0  0
  1  3  1  0  0  0  0
  2  5  1  0  0  0  0
  3  7  1  0  0  0  0
  4  6  2  0  0  0  0
  5  7  2  0  0  0  0
  6  1  2  0  0  0  0
  7  9  1  0  0  0  0
  9  8  1  1  0  0  0
  9 10  1  0  0  0  0
 10 13  1  0  0  0  0
 11 14  1  0  0  0  0
 12 10  1  0  0  0  0
 12 11  1  0  0  0  0
 13 15  1  0  0  0  0
 14 15  1  0  0  0  0
 16 17  2  0  0  0  0
 16 22  1  0  0  0  0
 17  4  1  0  0  0  0
 18 16  1  0  0  0  0
 19 18  1  0  0  0  0
 21 17  1  0  0  0  0
 21 20  1  0  0  0  0
 22 24  1  0  0  0  0
 23 25  1  0  0  0  0
 24 23  3  0  0  0  0
 25 26  1  0  0  0  0
 26 27  1  0  0  0  0
 27 29  1  0  0  0  0
 29 28  2  6  0  0  0
 29 30  1  0  0  0  0
 29 31  1  0  0  0  0
 31 32  1  1  0  0  0
 31 33  1  0  0  0  0
 33 34  1  1  0  0  0
 33 36  1  0  0  0  0
 36 39  1  0  0  0  0
 36 35  1  1  0  0  0
 38 39  2  0  0  0  0
 39 37  1  0  0  0  0
 40  4  1  0  0  0  0
 40 41  1  0  0  0  0
 43 45  1  0  0  0  0
 44 43  1  0  0  0  0
 46 42  1  6  0  0  0
 46 47  1  0  0  0  0
 46 44  1  0  0  0  0
 47 49  1  0  0  0  0
 47 41  1  1  0  0  0
 48 43  1  0  0  0  0
 48 50  2  0  0  0  0
 49 48  1  0  0  0  0
M  END
>  <MODEL>
7

>  <REMARK>
 VINA RESULT:      -5.0      4.896     12.266
  Name = 
  18 active torsions:
  status: ('A' for Active; 'I' for Inactive)
    1  A    between atoms: O_1  and  C_10
    2  A    between atoms: O_1  and  C_34
    3  A    between atoms: O_2  and  C_13
    4  A    between atoms: C_3  and  C_42
    5  A    between atoms: C_5  and  C_8
    6  A    between atoms: C_5  and  C_27
    7  A    between atoms: C_8  and  P_36
    8  A    between atoms: C_9  and  C_37
    9  A    between atoms: C_10  and  C_32
   10  A    between atoms: C_13  and  C_35
   11  A    between atoms: N_18  and  P_36
   12  A    between atoms: N_18  and  C_43
   13  A    between atoms: C_26  and  C_32
   14  A    between atoms: C_26  and  N_41
   15  A    between atoms: C_27  and  C_40
   16  A    between atoms: C_30  and  C_35
   17  A    between atoms: C_37  and  C_43
   18  A    between atoms: C_42  and  C_49
                            x       y       z     vdW  Elec       q    Type
                         _______ _______ _______ _____ _____    ______ ____

>  <TORSDO>
F 18

$$$$
=
 OpenBabel11052412073D

 50 52  0  0  1  0  0  0  0  0999 V2000
  161.3440  210.9080  151.3810 C   0  0  0  0  0  0  0  0  0  0  0  0
  160.1590  211.4660  151.8230 O   0  0  0  0  0  0  0  0  0  0  0  0
  162.1750  210.4400  152.5180 C   0  0  0  0  0  2  0  0  0  0  0  0
  161.9520  210.6290  148.8600 C   0  0  0  0  0  0  0  0  0  0  0  0
  160.1430  211.3800  153.2040 C   0  0  0  0  0  3  0  0  0  0  0  0
  161.6560  210.7780  150.1230 C   0  0  0  0  0  0  0  0  0  0  0  0
  161.2600  210.8010  153.6420 C   0  0  0  0  0  0  0  0  0  0  0  0
  160.8970  211.5290  156.0090 C   0  0  0  0  0  1  0  0  0  0  0  0
  161.5850  210.5360  155.0860 C   0  0  1  0  0  3  0  0  0  0  0  0
  161.3410  209.0880  155.5310 C   0  0  0  0  0  3  0  0  0  0  0  0
  160.3800  207.5300  157.2510 C   0  0  0  0  0  2  0  0  0  0  0  0
  160.5560  208.9900  156.8440 C   0  0  0  0  0  2  0  0  0  0  0  0
  160.6520  208.2870  154.4230 C   0  0  0  0  0  2  0  0  0  0  0  0
  159.6730  206.7550  156.1420 C   0  0  0  0  0  2  0  0  0  0  0  0
  160.4810  206.8330  154.8490 C   0  0  0  0  0  2  0  0  0  0  0  0
  161.5670  212.5980  147.4100 C   0  0  0  0  0  0  0  0  0  0  0  0
  162.4360  211.7840  148.0610 C   0  0  0  0  0  0  0  0  0  0  0  0
  161.9590  213.7360  146.6820 O   0  0  0  0  0  0  0  0  0  0  0  0
  162.6180  213.7240  145.4220 C   0  0  0  0  0  1  0  0  0  0  0  0
  164.5000  212.9550  148.6320 O   0  0  0  0  0  1  0  0  0  0  0  0
  163.8500  211.9930  147.9370 N   0  0  0  0  0  2  0  0  0  0  0  0
  160.1000  212.3020  147.4030 C   0  0  0  0  0  2  0  0  0  0  0  0
  158.9300  213.5100  145.3280 C   0  0  0  0  0  0  0  0  0  0  0  0
  159.4550  212.9690  146.2690 C   0  0  0  0  0  0  0  0  0  0  0  0
  158.2920  214.1580  144.1800 C   0  0  0  0  0  2  0  0  0  0  0  0
  159.2890  214.3360  143.0490 C   0  0  0  0  0  2  0  0  0  0  0  0
  158.7780  213.7270  141.8310 N   0  0  0  0  0  2  0  0  0  0  0  0
  160.0940  211.4220  141.5150 O   0  0  0  0  0  0  0  0  0  0  0  0
  160.1090  212.8690  141.0790 P   0  0  2  0  0  0  0  0  0  0  0  0
  161.5770  213.5730  141.5410 O   0  0  0  0  0  1  0  0  0  0  0  0
  159.9350  212.9460  139.2660 C   0  0  1  0  0  3  0  0  0  0  0  0
  159.9750  214.2840  138.8690 O   0  0  0  0  0  1  0  0  0  0  0  0
  161.0410  212.1440  138.5620 C   0  0  1  0  0  3  0  0  0  0  0  0
  162.1400  212.9630  138.2950 O   0  0  0  0  0  1  0  0  0  0  0  0
  163.0080  210.9480  139.6320 C   0  0  0  0  0  1  0  0  0  0  0  0
  161.5160  210.9130  139.3470 C   0  0  2  0  0  3  0  0  0  0  0  0
  159.8990  209.5430  138.0270 O   0  0  0  0  0  0  0  0  0  0  0  0
  161.8200  208.5890  138.8270 O   0  0  0  0  0  1  0  0  0  0  0  0
  161.0900  209.6110  138.7360 C   0  0  0  0  0  0  0  0  0  0  0  0
  161.5860  209.3450  148.1880 C   0  0  0  0  0  2  0  0  0  0  0  0
  161.1890  208.3900  149.1380 O   0  0  0  0  0  0  0  0  0  0  0  0
  162.7910  205.5200  147.3920 C   0  0  0  0  0  1  0  0  0  0  0  0
  161.0070  204.6380  149.7020 N   0  0  0  0  0  0  0  0  0  0  0  0
  160.5500  205.2660  148.4670 C   0  0  0  0  0  2  0  0  0  0  0  0
  160.6240  203.2640  149.9730 C   0  0  0  0  0  1  0  0  0  0  0  0
  161.5830  206.2610  147.9350 C   0  0  1  0  0  3  0  0  0  0  0  0
  162.0180  207.2520  149.0300 C   0  0  2  0  0  3  0  0  0  0  0  0
  161.7690  205.3940  150.6540 C   0  0  0  0  0  0  0  0  0  0  0  0
  162.2840  206.6420  150.3000 O   0  0  0  0  0  0  0  0  0  0  0  0
  162.0160  204.9210  151.7960 O   0  0  0  0  0  0  0  0  0  0  0  0
  1  2  1  0  0  0  0
  1  3  1  0  0  0  0
  2  5  1  0  0  0  0
  3  7  1  0  0  0  0
  4  6  2  0  0  0  0
  5  7  2  0  0  0  0
  6  1  2  0  0  0  0
  7  9  1  0  0  0  0
  9 10  1  0  0  0  0
  9  8  1  1  0  0  0
 10 12  1  0  0  0  0
 12 11  1  0  0  0  0
 13 15  1  0  0  0  0
 13 10  1  0  0  0  0
 14 11  1  0  0  0  0
 15 14  1  0  0  0  0
 16 17  2  0  0  0  0
 17  4  1  0  0  0  0
 18 16  1  0  0  0  0
 19 18  1  0  0  0  0
 21 17  1  0  0  0  0
 21 20  1  0  0  0  0
 22 16  1  0  0  0  0
 23 24  3  0  0  0  0
 24 22  1  0  0  0  0
 25 23  1  0  0  0  0
 26 25  1  0  0  0  0
 27 26  1  0  0  0  0
 29 28  2  1  0  0  0
 29 30  1  0  0  0  0
 29 27  1  0  0  0  0
 31 32  1  6  0  0  0
 31 29  1  0  0  0  0
 33 34  1  1  0  0  0
 33 31  1  0  0  0  0
 33 36  1  0  0  0  0
 36 35  1  6  0  0  0
 37 39  2  0  0  0  0
 39 38  1  0  0  0  0
 39 36  1  0  0  0  0
 40  4  1  0  0  0  0
 40 41  1  0  0  0  0
 43 45  1  0  0  0  0
 43 48  1  0  0  0  0
 44 43  1  0  0  0  0
 46 42  1  1  0  0  0
 46 44  1  0  0  0  0
 46 47  1  0  0  0  0
 47 41  1  1  0  0  0
 47 49  1  0  0  0  0
 48 50  2  0  0  0  0
 49 48  1  0  0  0  0
M  END
>  <MODEL>
8

>  <REMARK>
 VINA RESULT:      -5.0      2.450      5.854
  Name = 
  18 active torsions:
  status: ('A' for Active; 'I' for Inactive)
    1  A    between atoms: O_1  and  C_10
    2  A    between atoms: O_1  and  C_34
    3  A    between atoms: O_2  and  C_13
    4  A    between atoms: C_3  and  C_42
    5  A    between atoms: C_5  and  C_8
    6  A    between atoms: C_5  and  C_27
    7  A    between atoms: C_8  and  P_36
    8  A    between atoms: C_9  and  C_37
    9  A    between atoms: C_10  and  C_32
   10  A    between atoms: C_13  and  C_35
   11  A    between atoms: N_18  and  P_36
   12  A    between atoms: N_18  and  C_43
   13  A    between atoms: C_26  and  C_32
   14  A    between atoms: C_26  and  N_41
   15  A    between atoms: C_27  and  C_40
   16  A    between atoms: C_30  and  C_35
   17  A    between atoms: C_37  and  C_43
   18  A    between atoms: C_42  and  C_49
                            x       y       z     vdW  Elec       q    Type
                         _______ _______ _______ _____ _____    ______ ____

>  <TORSDO>
F 18

$$$$
=
 OpenBabel11052412073D

 50 52  0  0  1  0  0  0  0  0999 V2000
  160.3220  211.9940  151.2380 C   0  0  0  0  0  0  0  0  0  0  0  0
  158.9670  212.2670  151.2240 O   0  0  0  0  0  0  0  0  0  0  0  0
  160.8490  211.9640  152.6250 C   0  0  0  0  0  2  0  0  0  0  0  0
  161.7110  211.4850  149.0900 C   0  0  0  0  0  0  0  0  0  0  0  0
  158.5510  212.4070  152.5370 C   0  0  0  0  0  3  0  0  0  0  0  0
  161.0210  211.7510  150.1670 C   0  0  0  0  0  0  0  0  0  0  0  0
  159.5810  212.2380  153.3660 C   0  0  0  0  0  0  0  0  0  0  0  0
  158.1090  212.6930  155.3370 C   0  0  0  0  0  1  0  0  0  0  0  0
  159.5020  212.3120  154.8650 C   0  0  1  0  0  3  0  0  0  0  0  0
  160.0210  211.0610  155.5850 C   0  0  0  0  0  3  0  0  0  0  0  0
  160.0560  208.5530  155.7220 C   0  0  0  0  0  2  0  0  0  0  0  0
  159.5390  209.7560  154.9400 C   0  0  0  0  0  2  0  0  0  0  0  0
  161.5480  211.0850  155.6880 C   0  0  0  0  0  2  0  0  0  0  0  0
  161.5810  208.5860  155.7950 C   0  0  0  0  0  2  0  0  0  0  0  0
  162.0460  209.8740  156.4690 C   0  0  0  0  0  2  0  0  0  0  0  0
  161.3500  213.0340  147.1920 C   0  0  0  0  0  0  0  0  0  0  0  0
  162.1510  212.5820  148.1910 C   0  0  0  0  0  0  0  0  0  0  0  0
  161.6870  214.1020  146.3430 O   0  0  0  0  0  0  0  0  0  0  0  0
  162.5390  214.0180  145.2080 C   0  0  0  0  0  1  0  0  0  0  0  0
  163.7140  214.4530  148.3150 O   0  0  0  0  0  1  0  0  0  0  0  0
  163.4700  213.1220  148.3540 N   0  0  0  0  0  2  0  0  0  0  0  0
  160.0340  212.3760  146.9120 C   0  0  0  0  0  2  0  0  0  0  0  0
  159.5730  212.3440  144.2810 C   0  0  0  0  0  0  0  0  0  0  0  0
  159.7800  212.3520  145.4690 C   0  0  0  0  0  0  0  0  0  0  0  0
  159.3280  212.3420  142.8370 C   0  0  0  0  0  2  0  0  0  0  0  0
  160.5620  211.8690  142.0900 C   0  0  0  0  0  2  0  0  0  0  0  0
  160.1730  211.1190  140.9060 N   0  0  0  0  0  2  0  0  0  0  0  0
  161.8880  211.3220  138.8650 O   0  0  0  0  0  0  0  0  0  0  0  0
  160.7180  212.0290  139.5100 P   0  0  2  0  0  0  0  0  0  0  0  0
  161.2010  213.5780  139.9910 O   0  0  0  0  0  1  0  0  0  0  0  0
  159.3610  212.1570  138.3000 C   0  0  1  0  0  3  0  0  0  0  0  0
  159.7290  211.4740  137.1390 O   0  0  0  0  0  1  0  0  0  0  0  0
  158.0500  211.5850  138.8650 C   0  0  1  0  0  3  0  0  0  0  0  0
  157.4360  212.5160  139.7060 O   0  0  0  0  0  1  0  0  0  0  0  0
  156.3060  212.3240  137.1750 C   0  0  0  0  0  1  0  0  0  0  0  0
  157.0460  211.1470  137.7890 C   0  0  2  0  0  3  0  0  0  0  0  0
  156.5180  209.1750  139.2260 O   0  0  0  0  0  1  0  0  0  0  0  0
  154.9410  209.9920  137.7800 O   0  0  0  0  0  0  0  0  0  0  0  0
  156.1080  210.0700  138.2470 C   0  0  0  0  0  0  0  0  0  0  0  0
  161.8550  210.0590  148.6690 C   0  0  0  0  0  2  0  0  0  0  0  0
  161.9300  209.2210  149.7930 O   0  0  0  0  0  0  0  0  0  0  0  0
  162.4040  206.3410  147.4830 C   0  0  0  0  0  1  0  0  0  0  0  0
  160.9640  205.5560  150.0540 N   0  0  0  0  0  0  0  0  0  0  0  0
  160.4320  206.4330  149.0150 C   0  0  0  0  0  2  0  0  0  0  0  0
  160.3220  204.2740  150.2840 C   0  0  0  0  0  1  0  0  0  0  0  0
  161.5460  207.2430  148.3510 C   0  0  1  0  0  3  0  0  0  0  0  0
  162.4200  207.9550  149.4000 C   0  0  2  0  0  3  0  0  0  0  0  0
  162.0620  205.9890  150.8680 C   0  0  0  0  0  0  0  0  0  0  0  0
  162.7810  207.1330  150.5170 O   0  0  0  0  0  0  0  0  0  0  0  0
  162.4130  205.3210  151.8780 O   0  0  0  0  0  0  0  0  0  0  0  0
  1  3  1  0  0  0  0
  2  1  1  0  0  0  0
  2  5  1  0  0  0  0
  3  7  1  0  0  0  0
  4  6  2  0  0  0  0
  5  7  2  0  0  0  0
  6  1  2  0  0  0  0
  7  9  1  0  0  0  0
  9  8  1  6  0  0  0
  9 10  1  0  0  0  0
 10 13  1  0  0  0  0
 11 14  1  0  0  0  0
 12 10  1  0  0  0  0
 12 11  1  0  0  0  0
 13 15  1  0  0  0  0
 14 15  1  0  0  0  0
 16 17  2  0  0  0  0
 17 21  1  0  0  0  0
 17  4  1  0  0  0  0
 18 16  1  0  0  0  0
 19 18  1  0  0  0  0
 20 21  1  0  0  0  0
 22 16  1  0  0  0  0
 23 24  3  0  0  0  0
 24 22  1  0  0  0  0
 25 23  1  0  0  0  0
 26 25  1  0  0  0  0
 27 26  1  0  0  0  0
 29 28  2  6  0  0  0
 29 30  1  0  0  0  0
 29 27  1  0  0  0  0
 31 32  1  6  0  0  0
 31 33  1  0  0  0  0
 31 29  1  0  0  0  0
 33 34  1  1  0  0  0
 36 35  1  1  0  0  0
 36 39  1  0  0  0  0
 36 33  1  0  0  0  0
 38 39  2  0  0  0  0
 39 37  1  0  0  0  0
 40  4  1  0  0  0  0
 40 41  1  0  0  0  0
 43 45  1  0  0  0  0
 43 48  1  0  0  0  0
 44 43  1  0  0  0  0
 46 42  1  1  0  0  0
 46 44  1  0  0  0  0
 46 47  1  0  0  0  0
 47 41  1  1  0  0  0
 47 49  1  0  0  0  0
 48 50  2  0  0  0  0
 49 48  1  0  0  0  0
M  END
>  <MODEL>
9

>  <REMARK>
 VINA RESULT:      -4.8      2.576      6.261
  Name = 
  18 active torsions:
  status: ('A' for Active; 'I' for Inactive)
    1  A    between atoms: O_1  and  C_10
    2  A    between atoms: O_1  and  C_34
    3  A    between atoms: O_2  and  C_13
    4  A    between atoms: C_3  and  C_42
    5  A    between atoms: C_5  and  C_8
    6  A    between atoms: C_5  and  C_27
    7  A    between atoms: C_8  and  P_36
    8  A    between atoms: C_9  and  C_37
    9  A    between atoms: C_10  and  C_32
   10  A    between atoms: C_13  and  C_35
   11  A    between atoms: N_18  and  P_36
   12  A    between atoms: N_18  and  C_43
   13  A    between atoms: C_26  and  C_32
   14  A    between atoms: C_26  and  N_41
   15  A    between atoms: C_27  and  C_40
   16  A    between atoms: C_30  and  C_35
   17  A    between atoms: C_37  and  C_43
   18  A    between atoms: C_42  and  C_49
                            x       y       z     vdW  Elec       q    Type
                         _______ _______ _______ _____ _____    ______ ____

>  <TORSDO>
F 18

$$$$
