=
 OpenBabel11042420183D

 51 57  0  0  1  0  0  0  0  0999 V2000
  163.4600  207.8580  148.6410 C   0  0  0  0  0  2  0  0  0  0  0  0
  161.7800  206.0530  149.0480 C   0  0  1  0  0  3  0  0  0  0  0  0
  160.6990  207.1250  149.0240 C   0  0  1  0  0  3  0  0  0  0  0  0
  161.2330  208.0340  147.9010 C   0  0  2  0  0  3  0  0  0  0  0  0
  159.3770  206.5070  148.6110 C   0  0  0  0  0  1  0  0  0  0  0  0
  162.7850  206.6140  148.0450 C   0  0  1  0  0  3  0  0  0  0  0  0
  161.9350  207.1490  147.0720 O   0  0  0  0  0  0  0  0  0  0  0  0
  162.3720  208.9010  148.4440 C   0  0  1  0  0  3  0  0  0  0  0  0
  162.6680  207.0660  151.5460 S   0  0  0  0  0  0  0  0  0  0  0  0
  160.1650  207.4670  152.2650 O   0  0  0  0  0  1  0  0  0  0  0  0
  161.2320  206.6180  152.5680 C   0  0  1  0  0  0  0  0  0  0  0  0
  160.8740  205.2160  152.2200 C   0  0  0  0  0  3  0  0  0  0  0  0
  161.4370  204.7270  151.1260 C   0  0  0  0  0  0  0  0  0  0  0  0
  162.3640  205.6570  150.4180 C   0  0  1  0  0  3  0  0  0  0  0  0
  160.7330  200.7340  149.8090 C   0  0  0  0  0  3  0  0  0  0  0  0
  160.8010  203.0930  149.3420 C   0  0  0  0  0  3  0  0  0  0  0  0
  160.5700  201.7870  148.9100 C   0  0  0  0  0  3  0  0  0  0  0  0
  161.1920  203.3420  150.6640 C   0  0  0  0  0  0  0  0  0  0  0  0
  161.1150  200.9830  151.0900 N   0  0  0  0  0  0  0  0  0  0  0  0
  161.3440  202.2500  151.5310 C   0  0  0  0  0  3  0  0  0  0  0  0
  161.6100  206.7490  154.0420 C   0  0  0  0  0  2  0  0  0  0  0  0
  160.5110  207.2940  154.8330 N   0  0  0  0  0  2  0  0  0  0  0  0
  161.0720  207.9280  156.0210 C   0  0  2  0  0  3  0  0  0  0  0  0
  161.1440  206.9830  157.0500 O   0  0  0  0  0  1  0  0  0  0  0  0
  159.3310  209.4740  155.3390 C   0  0  0  0  0  2  0  0  0  0  0  0
  159.9440  211.3590  156.6160 C   0  0  2  0  0  3  0  0  0  0  0  0
  159.4360  210.9980  155.2320 C   0  0  1  0  0  3  0  0  0  0  0  0
  161.8350  210.6050  154.4330 C   0  0  0  0  0  2  0  0  0  0  0  0
  160.5100  211.3510  154.1810 C   0  0  0  0  0  2  0  0  0  0  0  0
  160.2180  209.0490  156.4370 N   0  0  0  0  0  0  0  0  0  0  0  0
  162.2000  210.5420  155.9290 C   0  0  0  0  0  2  0  0  0  0  0  0
  160.4780  212.7820  156.7620 C   0  0  0  0  0  1  0  0  0  0  0  0
  160.9630  210.2610  156.8340 C   0  0  1  0  0  3  0  0  0  0  0  0
  162.0310  209.6370  149.7340 C   0  0  0  0  0  2  0  0  0  0  0  0
  161.1840  210.8610  149.4400 C   0  0  0  0  0  2  0  0  0  0  0  0
  162.0680  211.9660  148.8900 C   0  0  0  0  0  2  0  0  0  0  0  0
  160.3610  213.7030  148.5070 N   0  0  0  0  0  0  0  0  0  0  0  0
  161.2710  212.8980  148.0350 C   0  0  0  0  0  0  0  0  0  0  0  0
  159.9470  213.8570  149.8740 C   0  0  0  0  0  0  0  0  0  0  0  0
  160.6680  214.4530  150.7210 O   0  0  0  0  0  0  0  0  0  0  0  0
  158.5000  213.3550  151.8050 C   0  0  0  0  0  1  0  0  0  0  0  0
  158.6100  213.3440  150.2890 C   0  0  0  0  0  2  0  0  0  0  0  0
  161.6000  212.9490  146.5830 C   0  0  0  0  0  2  0  0  0  0  0  0
  160.6640  213.9030  145.8600 C   0  0  0  0  0  2  0  0  0  0  0  0
  159.3030  213.0460  142.4750 N   0  0  0  0  0  0  0  0  0  0  0  0
  159.7790  211.9030  144.5860 C   0  0  0  0  0  2  0  0  0  0  0  0
  159.4200  213.1650  145.3800 C   0  0  0  0  0  3  0  0  0  0  0  0
  160.3060  212.2680  143.1970 C   0  0  0  0  0  2  0  0  0  0  0  0
  159.8690  213.3460  141.1720 C   0  0  0  0  0  1  0  0  0  0  0  0
  159.1280  214.3240  143.1610 C   0  0  0  0  0  2  0  0  0  0  0  0
  158.5300  214.0940  144.5510 C   0  0  0  0  0  2  0  0  0  0  0  0
  2 14  1  1  0  0  0
  3  5  1  6  0  0  0
  3  2  1  0  0  0  0
  4  7  1  6  0  0  0
  4  8  1  0  0  0  0
  4  3  1  0  0  0  0
  6  1  1  1  0  0  0
  6  2  1  0  0  0  0
  7  6  1  0  0  0  0
  8  1  1  0  0  0  0
  8 34  1  1  0  0  0
  9 11  1  0  0  0  0
 11 10  1  6  0  0  0
 11 21  1  0  0  0  0
 12 11  1  0  0  0  0
 13 12  2  0  0  0  0
 14 13  1  1  0  0  0
 14  9  1  0  0  0  0
 15 19  1  0  0  0  0
 16 18  2  0  0  0  0
 17 16  1  0  0  0  0
 17 15  2  0  0  0  0
 18 13  1  0  0  0  0
 18 20  1  0  0  0  0
 19 20  2  0  0  0  0
 21 22  1  0  0  0  0
 22 23  1  0  0  0  0
 23 30  1  0  0  0  0
 23 24  1  1  0  0  0
 25 30  1  0  0  0  0
 26 32  1  6  0  0  0
 26 33  1  0  0  0  0
 27 29  1  6  0  0  0
 27 25  1  0  0  0  0
 27 26  1  0  0  0  0
 28 31  1  0  0  0  0
 29 28  1  0  0  0  0
 30 33  1  0  0  0  0
 33 31  1  6  0  0  0
 35 34  1  0  0  0  0
 36 35  1  0  0  0  0
 37 39  1  0  0  0  0
 38 37  2  0  0  0  0
 38 36  1  0  0  0  0
 39 42  1  0  0  0  0
 39 40  2  0  0  0  0
 42 41  1  0  0  0  0
 43 38  1  0  0  0  0
 44 43  1  0  0  0  0
 45 50  1  0  0  0  0
 45 48  1  0  0  0  0
 46 47  1  0  0  0  0
 47 44  1  0  0  0  0
 48 46  1  0  0  0  0
 49 45  1  0  0  0  0
 50 51  1  0  0  0  0
 51 47  1  0  0  0  0
M  END
>  <MODEL>
1

>  <REMARK>
 VINA RESULT:      -3.2      0.000      0.000
  Name = 
  15 active torsions:
  status: ('A' for Active; 'I' for Inactive)
    1  A    between atoms: N_3  and  C_20
    2  A    between atoms: C_5  and  C_50
    3  A    between atoms: C_7  and  C_26
    4  A    between atoms: C_7  and  C_41
    5  A    between atoms: N_13  and  C_17
    6  A    between atoms: N_13  and  C_48
    7  A    between atoms: C_14  and  C_48
    8  A    between atoms: C_17  and  N_36
    9  A    between atoms: C_19  and  C_24
   10  A    between atoms: C_19  and  C_33
   11  A    between atoms: C_20  and  C_38
   12  A    between atoms: C_24  and  C_29
   13  A    between atoms: C_26  and  C_33
   14  A    between atoms: C_30  and  C_41
   15  A    between atoms: C_32  and  C_43
                            x       y       z     vdW  Elec       q    Type
                         _______ _______ _______ _____ _____    ______ ____

>  <TORSDO>
F 15

$$$$
=
 OpenBabel11042420183D

 51 57  0  0  1  0  0  0  0  0999 V2000
  160.0900  213.6350  148.1520 C   0  0  0  0  0  2  0  0  0  0  0  0
  161.8350  212.3030  149.3470 C   0  0  1  0  0  3  0  0  0  0  0  0
  162.6370  212.2910  148.0530 C   0  0  1  0  0  3  0  0  0  0  0  0
  162.3610  213.7170  147.5410 C   0  0  2  0  0  3  0  0  0  0  0  0
  164.1110  212.1260  148.3690 C   0  0  0  0  0  1  0  0  0  0  0  0
  161.1480  213.6640  149.2650 C   0  0  1  0  0  3  0  0  0  0  0  0
  162.1640  214.4530  148.7160 O   0  0  0  0  0  0  0  0  0  0  0  0
  160.9640  213.7720  146.9150 C   0  0  1  0  0  3  0  0  0  0  0  0
  161.4460  209.5330  148.8610 S   0  0  0  0  0  0  0  0  0  0  0  0
  163.3540  208.9710  150.5890 O   0  0  0  0  0  1  0  0  0  0  0  0
  161.9650  208.8800  150.4780 C   0  0  1  0  0  0  0  0  0  0  0  0
  161.3200  209.7300  151.5150 C   0  0  0  0  0  3  0  0  0  0  0  0
  160.7880  210.8650  151.0880 C   0  0  0  0  0  0  0  0  0  0  0  0
  160.9000  211.1070  149.6210 C   0  0  1  0  0  3  0  0  0  0  0  0
  158.7870  213.5730  153.7030 C   0  0  0  0  0  3  0  0  0  0  0  0
  160.3690  211.7910  153.3740 C   0  0  0  0  0  3  0  0  0  0  0  0
  159.7150  212.6760  154.2310 C   0  0  0  0  0  3  0  0  0  0  0  0
  160.0960  211.8040  151.9990 C   0  0  0  0  0  0  0  0  0  0  0  0
  158.5290  213.5820  152.3670 N   0  0  0  0  0  0  0  0  0  0  0  0
  159.1560  212.7260  151.5160 C   0  0  0  0  0  3  0  0  0  0  0  0
  161.5190  207.4240  150.5920 C   0  0  0  0  0  2  0  0  0  0  0  0
  160.4870  207.0990  149.6120 N   0  0  0  0  0  2  0  0  0  0  0  0
  160.8350  205.8290  148.9840 C   0  0  2  0  0  3  0  0  0  0  0  0
  161.4320  204.9980  149.9390 O   0  0  0  0  0  1  0  0  0  0  0  0
  161.0500  206.3890  146.6340 C   0  0  0  0  0  2  0  0  0  0  0  0
  162.9930  205.1620  146.1040 C   0  0  2  0  0  3  0  0  0  0  0  0
  161.6350  205.5120  145.5230 C   0  0  1  0  0  3  0  0  0  0  0  0
  160.5760  203.5370  146.7590 C   0  0  0  0  0  2  0  0  0  0  0  0
  160.7830  204.2310  145.3990 C   0  0  0  0  0  2  0  0  0  0  0  0
  161.7720  206.0620  147.8760 N   0  0  0  0  0  0  0  0  0  0  0  0
  161.8520  203.5430  147.6220 C   0  0  0  0  0  2  0  0  0  0  0  0
  163.7260  204.0210  145.4010 C   0  0  0  0  0  1  0  0  0  0  0  0
  162.6190  204.8980  147.5470 C   0  0  1  0  0  3  0  0  0  0  0  0
  160.6980  212.6770  145.8910 C   0  0  0  0  0  2  0  0  0  0  0  0
  160.7200  213.2490  144.4850 C   0  0  0  0  0  2  0  0  0  0  0  0
  159.8190  212.4190  143.5880 C   0  0  0  0  0  2  0  0  0  0  0  0
  159.7030  212.9250  141.1790 N   0  0  0  0  0  0  0  0  0  0  0  0
  160.3420  212.4040  142.1880 C   0  0  0  0  0  0  0  0  0  0  0  0
  158.4270  213.5860  141.1920 C   0  0  0  0  0  0  0  0  0  0  0  0
  158.1030  214.3800  142.1160 O   0  0  0  0  0  0  0  0  0  0  0  0
  158.1510  212.5110  138.9910 C   0  0  0  0  0  1  0  0  0  0  0  0
  157.4840  213.3630  140.0590 C   0  0  0  0  0  2  0  0  0  0  0  0
  161.6970  211.8270  141.9670 C   0  0  0  0  0  2  0  0  0  0  0  0
  162.2600  212.2910  140.6330 C   0  0  0  0  0  2  0  0  0  0  0  0
  161.3170  210.0270  137.7980 N   0  0  0  0  0  0  0  0  0  0  0  0
  163.2030  211.4490  138.4400 C   0  0  0  0  0  2  0  0  0  0  0  0
  162.9640  211.1400  139.9230 C   0  0  0  0  0  3  0  0  0  0  0  0
  161.8960  211.3600  137.6510 C   0  0  0  0  0  2  0  0  0  0  0  0
  160.0910  210.0180  137.0210 C   0  0  0  0  0  1  0  0  0  0  0  0
  160.9280  209.8450  139.1950 C   0  0  0  0  0  2  0  0  0  0  0  0
  162.1710  209.8420  140.0880 C   0  0  0  0  0  2  0  0  0  0  0  0
  2 14  1  6  0  0  0
  3  5  1  1  0  0  0
  3  2  1  0  0  0  0
  4  3  1  0  0  0  0
  4  7  1  1  0  0  0
  6  1  1  6  0  0  0
  6  2  1  0  0  0  0
  7  6  1  0  0  0  0
  8 34  1  6  0  0  0
  8  4  1  0  0  0  0
  8  1  1  0  0  0  0
  9 11  1  0  0  0  0
 11 10  1  1  0  0  0
 11 21  1  0  0  0  0
 11 12  1  0  0  0  0
 13 12  2  0  0  0  0
 13 18  1  0  0  0  0
 14  9  1  6  0  0  0
 14 13  1  0  0  0  0
 15 17  1  0  0  0  0
 16 17  2  0  0  0  0
 18 16  1  0  0  0  0
 19 15  2  0  0  0  0
 20 18  2  0  0  0  0
 20 19  1  0  0  0  0
 22 21  1  0  0  0  0
 23 22  1  0  0  0  0
 23 24  1  1  0  0  0
 25 30  1  0  0  0  0
 26 32  1  6  0  0  0
 26 33  1  0  0  0  0
 27 29  1  1  0  0  0
 27 26  1  0  0  0  0
 27 25  1  0  0  0  0
 28 31  1  0  0  0  0
 29 28  1  0  0  0  0
 30 23  1  0  0  0  0
 33 31  1  6  0  0  0
 33 30  1  0  0  0  0
 35 34  1  0  0  0  0
 36 35  1  0  0  0  0
 37 39  1  0  0  0  0
 37 38  2  0  0  0  0
 38 36  1  0  0  0  0
 39 40  2  0  0  0  0
 41 42  1  0  0  0  0
 42 39  1  0  0  0  0
 43 38  1  0  0  0  0
 44 43  1  0  0  0  0
 45 50  1  0  0  0  0
 46 47  1  0  0  0  0
 47 51  1  0  0  0  0
 47 44  1  0  0  0  0
 48 45  1  0  0  0  0
 48 46  1  0  0  0  0
 49 45  1  0  0  0  0
 50 51  1  0  0  0  0
M  END
>  <MODEL>
2

>  <REMARK>
 VINA RESULT:      -3.0      3.157      8.284
  Name = 
  15 active torsions:
  status: ('A' for Active; 'I' for Inactive)
    1  A    between atoms: N_3  and  C_20
    2  A    between atoms: C_5  and  C_50
    3  A    between atoms: C_7  and  C_26
    4  A    between atoms: C_7  and  C_41
    5  A    between atoms: N_13  and  C_17
    6  A    between atoms: N_13  and  C_48
    7  A    between atoms: C_14  and  C_48
    8  A    between atoms: C_17  and  N_36
    9  A    between atoms: C_19  and  C_24
   10  A    between atoms: C_19  and  C_33
   11  A    between atoms: C_20  and  C_38
   12  A    between atoms: C_24  and  C_29
   13  A    between atoms: C_26  and  C_33
   14  A    between atoms: C_30  and  C_41
   15  A    between atoms: C_32  and  C_43
                            x       y       z     vdW  Elec       q    Type
                         _______ _______ _______ _____ _____    ______ ____

>  <TORSDO>
F 15

$$$$
=
 OpenBabel11042420183D

 51 57  0  0  1  0  0  0  0  0999 V2000
  161.1790  208.0970  147.8190 C   0  0  0  0  0  2  0  0  0  0  0  0
  162.2620  208.5540  150.0250 C   0  0  1  0  0  3  0  0  0  0  0  0
  162.1620  207.0640  150.3240 C   0  0  1  0  0  3  0  0  0  0  0  0
  162.4750  206.4800  148.9340 C   0  0  2  0  0  3  0  0  0  0  0  0
  163.2420  206.6690  151.3120 C   0  0  0  0  0  1  0  0  0  0  0  0
  162.4730  208.5460  148.5130 C   0  0  1  0  0  3  0  0  0  0  0  0
  163.3170  207.4410  148.3580 O   0  0  0  0  0  0  0  0  0  0  0  0
  161.2360  206.5940  148.0410 C   0  0  1  0  0  3  0  0  0  0  0  0
  160.6140  209.1490  152.2580 S   0  0  0  0  0  0  0  0  0  0  0  0
  162.6460  210.3510  153.4270 O   0  0  0  0  0  1  0  0  0  0  0  0
  161.4300  210.6740  152.8230 C   0  0  1  0  0  0  0  0  0  0  0  0
  161.6750  211.5060  151.6130 C   0  0  0  0  0  3  0  0  0  0  0  0
  161.5300  210.8950  150.4480 C   0  0  0  0  0  0  0  0  0  0  0  0
  161.1220  209.4620  150.5280 C   0  0  1  0  0  3  0  0  0  0  0  0
  162.0670  212.9220  146.7360 C   0  0  0  0  0  3  0  0  0  0  0  0
  163.0100  211.9030  148.7010 C   0  0  0  0  0  3  0  0  0  0  0  0
  163.1870  212.5670  147.4870 C   0  0  0  0  0  3  0  0  0  0  0  0
  161.7220  211.5980  149.1590 C   0  0  0  0  0  0  0  0  0  0  0  0
  160.8200  212.6200  147.1860 N   0  0  0  0  0  0  0  0  0  0  0  0
  160.6270  211.9740  148.3670 C   0  0  0  0  0  3  0  0  0  0  0  0
  160.5170  211.3870  153.8170 C   0  0  0  0  0  2  0  0  0  0  0  0
  159.1250  210.9790  153.6580 N   0  0  0  0  0  2  0  0  0  0  0  0
  158.2980  212.1810  153.6090 C   0  0  2  0  0  3  0  0  0  0  0  0
  158.9340  213.1380  152.8110 O   0  0  0  0  0  1  0  0  0  0  0  0
  158.0330  211.6210  155.9550 C   0  0  0  0  0  2  0  0  0  0  0  0
  156.6270  213.3880  156.6340 C   0  0  2  0  0  3  0  0  0  0  0  0
  156.8140  211.8960  156.8400 C   0  0  1  0  0  3  0  0  0  0  0  0
  155.4070  211.4120  154.7580 C   0  0  0  0  0  2  0  0  0  0  0  0
  155.5980  211.1400  156.2630 C   0  0  0  0  0  2  0  0  0  0  0  0
  158.1130  212.7120  154.9670 N   0  0  0  0  0  0  0  0  0  0  0  0
  155.6520  212.8880  154.3910 C   0  0  0  0  0  2  0  0  0  0  0  0
  155.2910  213.9490  157.1150 C   0  0  0  0  0  1  0  0  0  0  0  0
  156.8740  213.4960  155.1440 C   0  0  1  0  0  3  0  0  0  0  0  0
  159.9620  206.0510  148.6750 C   0  0  0  0  0  2  0  0  0  0  0  0
  160.2880  204.9340  149.6490 C   0  0  0  0  0  2  0  0  0  0  0  0
  161.1030  203.8670  148.9410 C   0  0  0  0  0  2  0  0  0  0  0  0
  161.0270  202.2700  150.8160 N   0  0  0  0  0  0  0  0  0  0  0  0
  160.8530  202.5250  149.5500 C   0  0  0  0  0  0  0  0  0  0  0  0
  161.4750  203.1690  151.8420 C   0  0  0  0  0  0  0  0  0  0  0  0
  162.6900  203.4860  151.9610 O   0  0  0  0  0  0  0  0  0  0  0  0
  161.0120  205.0850  153.3220 C   0  0  0  0  0  1  0  0  0  0  0  0
  160.4700  203.7810  152.7580 C   0  0  0  0  0  2  0  0  0  0  0  0
  160.3080  201.4600  148.6630 C   0  0  0  0  0  2  0  0  0  0  0  0
  159.7610  202.0660  147.3810 C   0  0  0  0  0  2  0  0  0  0  0  0
  161.1910  204.0650  144.5510 N   0  0  0  0  0  0  0  0  0  0  0  0
  161.9880  202.5060  146.2620 C   0  0  0  0  0  2  0  0  0  0  0  0
  160.6680  201.7280  146.2040 C   0  0  0  0  0  3  0  0  0  0  0  0
  161.7690  203.9730  145.8890 C   0  0  0  0  0  2  0  0  0  0  0  0
  161.0200  205.4780  144.2680 C   0  0  0  0  0  1  0  0  0  0  0  0
  159.8530  203.4780  144.5850 C   0  0  0  0  0  2  0  0  0  0  0  0
  159.9460  201.9800  144.8790 C   0  0  0  0  0  2  0  0  0  0  0  0
  1  8  1  0  0  0  0
  2  3  1  0  0  0  0
  2 14  1  6  0  0  0
  3  5  1  1  0  0  0
  4  7  1  6  0  0  0
  4  3  1  0  0  0  0
  6  1  1  6  0  0  0
  6  2  1  0  0  0  0
  7  6  1  0  0  0  0
  8 34  1  1  0  0  0
  8  4  1  0  0  0  0
  9 11  1  0  0  0  0
 11 10  1  1  0  0  0
 11 21  1  0  0  0  0
 12 11  1  0  0  0  0
 13 12  2  0  0  0  0
 14 13  1  1  0  0  0
 14  9  1  0  0  0  0
 15 19  2  0  0  0  0
 15 17  1  0  0  0  0
 16 18  1  0  0  0  0
 17 16  2  0  0  0  0
 18 13  1  0  0  0  0
 19 20  1  0  0  0  0
 20 18  2  0  0  0  0
 22 21  1  0  0  0  0
 23 24  1  6  0  0  0
 23 22  1  0  0  0  0
 23 30  1  0  0  0  0
 26 27  1  0  0  0  0
 26 32  1  6  0  0  0
 27 25  1  6  0  0  0
 28 29  1  0  0  0  0
 29 27  1  0  0  0  0
 30 33  1  0  0  0  0
 30 25  1  0  0  0  0
 31 28  1  0  0  0  0
 33 31  1  6  0  0  0
 33 26  1  0  0  0  0
 34 35  1  0  0  0  0
 36 38  1  0  0  0  0
 36 35  1  0  0  0  0
 37 39  1  0  0  0  0
 38 37  2  0  0  0  0
 39 40  2  0  0  0  0
 39 42  1  0  0  0  0
 42 41  1  0  0  0  0
 43 38  1  0  0  0  0
 44 43  1  0  0  0  0
 45 50  1  0  0  0  0
 45 48  1  0  0  0  0
 47 46  1  0  0  0  0
 47 44  1  0  0  0  0
 48 46  1  0  0  0  0
 49 45  1  0  0  0  0
 50 51  1  0  0  0  0
 51 47  1  0  0  0  0
M  END
>  <MODEL>
3

>  <REMARK>
 VINA RESULT:      -2.7      2.790      7.751
  Name = 
  15 active torsions:
  status: ('A' for Active; 'I' for Inactive)
    1  A    between atoms: N_3  and  C_20
    2  A    between atoms: C_5  and  C_50
    3  A    between atoms: C_7  and  C_26
    4  A    between atoms: C_7  and  C_41
    5  A    between atoms: N_13  and  C_17
    6  A    between atoms: N_13  and  C_48
    7  A    between atoms: C_14  and  C_48
    8  A    between atoms: C_17  and  N_36
    9  A    between atoms: C_19  and  C_24
   10  A    between atoms: C_19  and  C_33
   11  A    between atoms: C_20  and  C_38
   12  A    between atoms: C_24  and  C_29
   13  A    between atoms: C_26  and  C_33
   14  A    between atoms: C_30  and  C_41
   15  A    between atoms: C_32  and  C_43
                            x       y       z     vdW  Elec       q    Type
                         _______ _______ _______ _____ _____    ______ ____

>  <TORSDO>
F 15

$$$$
=
 OpenBabel11042420183D

 51 57  0  0  1  0  0  0  0  0999 V2000
  161.2040  208.4070  148.5660 C   0  0  0  0  0  2  0  0  0  0  0  0
  162.1580  208.3550  150.8750 C   0  0  1  0  0  3  0  0  0  0  0  0
  162.2740  206.8430  150.7380 C   0  0  1  0  0  3  0  0  0  0  0  0
  162.7010  206.7300  149.2620 C   0  0  2  0  0  3  0  0  0  0  0  0
  163.3790  206.3320  151.6420 C   0  0  0  0  0  1  0  0  0  0  0  0
  162.4010  208.8110  149.4380 C   0  0  1  0  0  3  0  0  0  0  0  0
  163.4030  207.9210  149.0340 O   0  0  0  0  0  0  0  0  0  0  0  0
  161.4780  206.9260  148.3600 C   0  0  1  0  0  3  0  0  0  0  0  0
  160.4270  208.0980  153.1110 S   0  0  0  0  0  0  0  0  0  0  0  0
  162.2360  209.2590  154.6340 O   0  0  0  0  0  1  0  0  0  0  0  0
  160.9860  209.5340  154.0770 C   0  0  1  0  0  0  0  0  0  0  0  0
  161.0980  210.6760  153.1290 C   0  0  0  0  0  3  0  0  0  0  0  0
  161.0580  210.3680  151.8420 C   0  0  0  0  0  0  0  0  0  0  0  0
  160.8850  208.9180  151.5390 C   0  0  1  0  0  3  0  0  0  0  0  0
  161.2990  213.3270  148.7810 C   0  0  0  0  0  3  0  0  0  0  0  0
  160.2310  212.4660  150.7580 C   0  0  0  0  0  3  0  0  0  0  0  0
  160.3080  213.4340  149.7570 C   0  0  0  0  0  3  0  0  0  0  0  0
  161.1390  211.3980  150.7810 C   0  0  0  0  0  0  0  0  0  0  0  0
  162.1780  212.2890  148.8120 N   0  0  0  0  0  0  0  0  0  0  0  0
  162.1180  211.3350  149.7790 C   0  0  0  0  0  3  0  0  0  0  0  0
  159.9660  209.8200  155.1770 C   0  0  0  0  0  2  0  0  0  0  0  0
  159.0640  210.9050  154.8060 N   0  0  0  0  0  2  0  0  0  0  0  0
  158.9560  211.8190  155.9390 C   0  0  2  0  0  3  0  0  0  0  0  0
  159.7670  211.3510  156.9780 O   0  0  0  0  0  1  0  0  0  0  0  0
  156.6440  211.3570  155.3650 C   0  0  0  0  0  2  0  0  0  0  0  0
  155.5850  213.1230  156.5130 C   0  0  2  0  0  3  0  0  0  0  0  0
  155.5120  212.3740  155.1960 C   0  0  1  0  0  3  0  0  0  0  0  0
  157.2850  213.9240  154.1940 C   0  0  0  0  0  2  0  0  0  0  0  0
  155.8710  213.3310  154.0390 C   0  0  0  0  0  2  0  0  0  0  0  0
  157.5600  211.8870  156.3910 N   0  0  0  0  0  0  0  0  0  0  0  0
  157.6040  214.3100  155.6520 C   0  0  0  0  0  2  0  0  0  0  0  0
  154.8050  214.4350  156.5600 C   0  0  0  0  0  1  0  0  0  0  0  0
  157.0840  213.2560  156.6760 C   0  0  1  0  0  3  0  0  0  0  0  0
  160.2850  206.0560  148.7340 C   0  0  0  0  0  2  0  0  0  0  0  0
  160.7040  204.6030  148.8530 C   0  0  0  0  0  2  0  0  0  0  0  0
  161.9330  204.3600  147.9960 C   0  0  0  0  0  2  0  0  0  0  0  0
  161.6810  203.5490  145.6820 N   0  0  0  0  0  0  0  0  0  0  0  0
  161.6550  203.3140  146.9640 C   0  0  0  0  0  0  0  0  0  0  0  0
  161.9630  204.7920  145.0200 C   0  0  0  0  0  0  0  0  0  0  0  0
  163.1190  205.2960  145.0240 O   0  0  0  0  0  0  0  0  0  0  0  0
  160.0080  206.2790  145.2280 C   0  0  0  0  0  1  0  0  0  0  0  0
  160.8720  205.4760  144.2680 C   0  0  0  0  0  2  0  0  0  0  0  0
  161.4110  201.9250  147.4420 C   0  0  0  0  0  2  0  0  0  0  0  0
  160.0750  201.8390  148.1610 C   0  0  0  0  0  2  0  0  0  0  0  0
  160.8290  202.4530  151.7810 N   0  0  0  0  0  0  0  0  0  0  0  0
  159.1390  201.2890  150.4470 C   0  0  0  0  0  2  0  0  0  0  0  0
  160.1850  200.9350  149.3830 C   0  0  0  0  0  3  0  0  0  0  0  0
  159.5120  202.5870  151.1640 C   0  0  0  0  0  2  0  0  0  0  0  0
  161.1090  203.7140  152.4430 C   0  0  0  0  0  1  0  0  0  0  0  0
  161.8230  202.3060  150.7200 C   0  0  0  0  0  2  0  0  0  0  0  0
  161.5980  200.9930  149.9690 C   0  0  0  0  0  2  0  0  0  0  0  0
  2 14  1  6  0  0  0
  3  2  1  0  0  0  0
  3  5  1  1  0  0  0
  4  7  1  6  0  0  0
  4  3  1  0  0  0  0
  6  1  1  6  0  0  0
  6  2  1  0  0  0  0
  7  6  1  0  0  0  0
  8  1  1  0  0  0  0
  8 34  1  1  0  0  0
  8  4  1  0  0  0  0
  9 11  1  0  0  0  0
 11 10  1  1  0  0  0
 11 21  1  0  0  0  0
 12 11  1  0  0  0  0
 13 12  2  0  0  0  0
 14 13  1  1  0  0  0
 14  9  1  0  0  0  0
 15 19  2  0  0  0  0
 15 17  1  0  0  0  0
 16 18  1  0  0  0  0
 17 16  2  0  0  0  0
 18 13  1  0  0  0  0
 19 20  1  0  0  0  0
 20 18  2  0  0  0  0
 22 21  1  0  0  0  0
 22 23  1  0  0  0  0
 23 30  1  0  0  0  0
 23 24  1  1  0  0  0
 25 30  1  0  0  0  0
 26 32  1  6  0  0  0
 26 33  1  0  0  0  0
 27 29  1  6  0  0  0
 27 25  1  0  0  0  0
 27 26  1  0  0  0  0
 28 31  1  0  0  0  0
 29 28  1  0  0  0  0
 30 33  1  0  0  0  0
 33 31  1  6  0  0  0
 34 35  1  0  0  0  0
 36 35  1  0  0  0  0
 37 38  2  0  0  0  0
 38 43  1  0  0  0  0
 38 36  1  0  0  0  0
 39 40  2  0  0  0  0
 39 37  1  0  0  0  0
 42 39  1  0  0  0  0
 42 41  1  0  0  0  0
 43 44  1  0  0  0  0
 44 47  1  0  0  0  0
 45 49  1  0  0  0  0
 46 48  1  0  0  0  0
 47 51  1  0  0  0  0
 47 46  1  0  0  0  0
 48 45  1  0  0  0  0
 50 45  1  0  0  0  0
 51 50  1  0  0  0  0
M  END
>  <MODEL>
4

>  <REMARK>
 VINA RESULT:      -1.5      2.959      8.255
  Name = 
  15 active torsions:
  status: ('A' for Active; 'I' for Inactive)
    1  A    between atoms: N_3  and  C_20
    2  A    between atoms: C_5  and  C_50
    3  A    between atoms: C_7  and  C_26
    4  A    between atoms: C_7  and  C_41
    5  A    between atoms: N_13  and  C_17
    6  A    between atoms: N_13  and  C_48
    7  A    between atoms: C_14  and  C_48
    8  A    between atoms: C_17  and  N_36
    9  A    between atoms: C_19  and  C_24
   10  A    between atoms: C_19  and  C_33
   11  A    between atoms: C_20  and  C_38
   12  A    between atoms: C_24  and  C_29
   13  A    between atoms: C_26  and  C_33
   14  A    between atoms: C_30  and  C_41
   15  A    between atoms: C_32  and  C_43
                            x       y       z     vdW  Elec       q    Type
                         _______ _______ _______ _____ _____    ______ ____

>  <TORSDO>
F 15

$$$$
=
 OpenBabel11042420183D

 51 57  0  0  1  0  0  0  0  0999 V2000
  160.8800  207.4030  149.7610 C   0  0  0  0  0  2  0  0  0  0  0  0
  161.9150  207.7830  152.0040 C   0  0  1  0  0  3  0  0  0  0  0  0
  162.0580  206.2720  152.1360 C   0  0  1  0  0  3  0  0  0  0  0  0
  162.4340  205.9010  150.6890 C   0  0  2  0  0  3  0  0  0  0  0  0
  163.2040  205.9490  153.0740 C   0  0  0  0  0  1  0  0  0  0  0  0
  162.0980  207.9740  150.5000 C   0  0  1  0  0  3  0  0  0  0  0  0
  163.1030  207.0400  150.2240 O   0  0  0  0  0  0  0  0  0  0  0  0
  161.1770  205.9130  149.8150 C   0  0  1  0  0  3  0  0  0  0  0  0
  160.1630  207.7730  154.2370 S   0  0  0  0  0  0  0  0  0  0  0  0
  161.9960  209.0100  155.6700 O   0  0  0  0  0  1  0  0  0  0  0  0
  160.7580  209.2720  155.0790 C   0  0  1  0  0  0  0  0  0  0  0  0
  160.9100  210.3220  154.0350 C   0  0  0  0  0  3  0  0  0  0  0  0
  160.8690  209.9040  152.7800 C   0  0  0  0  0  0  0  0  0  0  0  0
  160.6550  208.4380  152.6040 C   0  0  1  0  0  3  0  0  0  0  0  0
  161.2010  212.5910  149.4860 C   0  0  0  0  0  3  0  0  0  0  0  0
  161.9470  210.6130  150.6370 C   0  0  0  0  0  3  0  0  0  0  0  0
  162.0560  211.4920  149.5580 C   0  0  0  0  0  3  0  0  0  0  0  0
  160.9870  210.8340  151.6340 C   0  0  0  0  0  0  0  0  0  0  0  0
  160.2710  212.7970  150.4580 N   0  0  0  0  0  0  0  0  0  0  0  0
  160.1490  211.9520  151.5170 C   0  0  0  0  0  3  0  0  0  0  0  0
  159.7400  209.6820  156.1410 C   0  0  0  0  0  2  0  0  0  0  0  0
  159.9460  211.0590  156.5800 N   0  0  0  0  0  2  0  0  0  0  0  0
  158.6410  211.6920  156.7320 C   0  0  2  0  0  3  0  0  0  0  0  0
  157.6660  210.8670  156.1600 O   0  0  0  0  0  1  0  0  0  0  0  0
  157.5060  213.8240  156.5110 C   0  0  0  0  0  2  0  0  0  0  0  0
  157.9420  214.2790  154.2390 C   0  0  2  0  0  3  0  0  0  0  0  0
  156.8240  214.3850  155.2600 C   0  0  1  0  0  3  0  0  0  0  0  0
  156.1220  211.9730  154.7700 C   0  0  0  0  0  2  0  0  0  0  0  0
  155.6690  213.4440  154.8580 C   0  0  0  0  0  2  0  0  0  0  0  0
  158.6400  212.9980  156.0600 N   0  0  0  0  0  0  0  0  0  0  0  0
  157.5110  211.8240  154.1200 C   0  0  0  0  0  2  0  0  0  0  0  0
  157.5120  214.4480  152.7840 C   0  0  0  0  0  1  0  0  0  0  0  0
  158.5120  212.9210  154.5910 C   0  0  1  0  0  3  0  0  0  0  0  0
  160.0160  205.1080  150.3850 C   0  0  0  0  0  2  0  0  0  0  0  0
  159.8970  203.7720  149.6750 C   0  0  0  0  0  2  0  0  0  0  0  0
  161.0230  203.6350  148.6660 C   0  0  0  0  0  2  0  0  0  0  0  0
  161.0840  201.2000  149.0430 N   0  0  0  0  0  0  0  0  0  0  0  0
  161.1640  202.2130  148.2270 C   0  0  0  0  0  0  0  0  0  0  0  0
  160.8610  201.2280  150.4620 C   0  0  0  0  0  0  0  0  0  0  0  0
  159.8200  200.7370  150.9770 O   0  0  0  0  0  0  0  0  0  0  0  0
  161.2670  202.7370  152.3670 C   0  0  0  0  0  1  0  0  0  0  0  0
  161.9090  201.8080  151.3490 C   0  0  0  0  0  2  0  0  0  0  0  0
  161.3270  201.9580  146.7680 C   0  0  0  0  0  2  0  0  0  0  0  0
  160.4600  202.9110  145.9630 C   0  0  0  0  0  2  0  0  0  0  0  0
  162.1050  206.2790  145.9200 N   0  0  0  0  0  0  0  0  0  0  0  0
  162.7130  203.9520  145.4650 C   0  0  0  0  0  2  0  0  0  0  0  0
  161.3030  203.6600  144.9370 C   0  0  0  0  0  3  0  0  0  0  0  0
  162.6810  205.0720  146.5060 C   0  0  0  0  0  2  0  0  0  0  0  0
  162.1140  207.2920  146.9590 C   0  0  0  0  0  1  0  0  0  0  0  0
  160.7030  206.0150  145.6030 C   0  0  0  0  0  2  0  0  0  0  0  0
  160.6050  204.9520  144.5070 C   0  0  0  0  0  2  0  0  0  0  0  0
  1  8  1  0  0  0  0
  2  3  1  0  0  0  0
  2 14  1  6  0  0  0
  3  5  1  1  0  0  0
  4  7  1  6  0  0  0
  4  3  1  0  0  0  0
  6  1  1  6  0  0  0
  6  2  1  0  0  0  0
  7  6  1  0  0  0  0
  8 34  1  1  0  0  0
  8  4  1  0  0  0  0
  9 11  1  0  0  0  0
 11 10  1  1  0  0  0
 11 21  1  0  0  0  0
 12 11  1  0  0  0  0
 13 12  2  0  0  0  0
 14 13  1  1  0  0  0
 14  9  1  0  0  0  0
 15 17  2  0  0  0  0
 15 19  1  0  0  0  0
 16 18  2  0  0  0  0
 17 16  1  0  0  0  0
 18 13  1  0  0  0  0
 19 20  2  0  0  0  0
 20 18  1  0  0  0  0
 21 22  1  0  0  0  0
 22 23  1  0  0  0  0
 23 24  1  6  0  0  0
 26 32  1  6  0  0  0
 26 33  1  0  0  0  0
 26 27  1  0  0  0  0
 27 29  1  6  0  0  0
 27 25  1  0  0  0  0
 28 29  1  0  0  0  0
 30 25  1  0  0  0  0
 30 23  1  0  0  0  0
 31 28  1  0  0  0  0
 33 31  1  1  0  0  0
 33 30  1  0  0  0  0
 35 34  1  0  0  0  0
 36 35  1  0  0  0  0
 37 39  1  0  0  0  0
 38 36  1  0  0  0  0
 38 37  2  0  0  0  0
 39 40  2  0  0  0  0
 39 42  1  0  0  0  0
 42 41  1  0  0  0  0
 43 38  1  0  0  0  0
 44 43  1  0  0  0  0
 45 48  1  0  0  0  0
 45 49  1  0  0  0  0
 46 48  1  0  0  0  0
 47 46  1  0  0  0  0
 47 44  1  0  0  0  0
 50 45  1  0  0  0  0
 51 47  1  0  0  0  0
 51 50  1  0  0  0  0
M  END
>  <MODEL>
5

>  <REMARK>
 VINA RESULT:      -1.3      3.229      7.588
  Name = 
  15 active torsions:
  status: ('A' for Active; 'I' for Inactive)
    1  A    between atoms: N_3  and  C_20
    2  A    between atoms: C_5  and  C_50
    3  A    between atoms: C_7  and  C_26
    4  A    between atoms: C_7  and  C_41
    5  A    between atoms: N_13  and  C_17
    6  A    between atoms: N_13  and  C_48
    7  A    between atoms: C_14  and  C_48
    8  A    between atoms: C_17  and  N_36
    9  A    between atoms: C_19  and  C_24
   10  A    between atoms: C_19  and  C_33
   11  A    between atoms: C_20  and  C_38
   12  A    between atoms: C_24  and  C_29
   13  A    between atoms: C_26  and  C_33
   14  A    between atoms: C_30  and  C_41
   15  A    between atoms: C_32  and  C_43
                            x       y       z     vdW  Elec       q    Type
                         _______ _______ _______ _____ _____    ______ ____

>  <TORSDO>
F 15

$$$$
=
 OpenBabel11042420183D

 51 57  0  0  1  0  0  0  0  0999 V2000
  160.9390  207.8270  150.1960 C   0  0  0  0  0  2  0  0  0  0  0  0
  161.8490  208.1480  152.5010 C   0  0  1  0  0  3  0  0  0  0  0  0
  161.8500  206.6330  152.6560 C   0  0  1  0  0  3  0  0  0  0  0  0
  162.2900  206.2100  151.2420 C   0  0  2  0  0  3  0  0  0  0  0  0
  162.8970  206.2250  153.6740 C   0  0  0  0  0  1  0  0  0  0  0  0
  162.1500  208.3010  151.0120 C   0  0  1  0  0  3  0  0  0  0  0  0
  163.0860  207.2800  150.8140 O   0  0  0  0  0  0  0  0  0  0  0  0
  161.1010  206.3180  150.2830 C   0  0  1  0  0  3  0  0  0  0  0  0
  160.1200  208.5120  154.7240 S   0  0  0  0  0  0  0  0  0  0  0  0
  162.0000  209.8950  155.9480 O   0  0  0  0  0  1  0  0  0  0  0  0
  160.7630  210.1010  155.3330 C   0  0  1  0  0  0  0  0  0  0  0  0
  160.9320  210.9830  154.1470 C   0  0  0  0  0  3  0  0  0  0  0  0
  160.8680  210.3880  152.9660 C   0  0  0  0  0  0  0  0  0  0  0  0
  160.6130  208.9190  153.0080 C   0  0  1  0  0  3  0  0  0  0  0  0
  161.2530  212.5360  149.3040 C   0  0  0  0  0  3  0  0  0  0  0  0
  160.1300  212.1980  151.4050 C   0  0  0  0  0  3  0  0  0  0  0  0
  160.2550  212.9020  150.2070 C   0  0  0  0  0  3  0  0  0  0  0  0
  160.9980  211.1370  151.6960 C   0  0  0  0  0  0  0  0  0  0  0  0
  162.0930  211.5070  149.5940 N   0  0  0  0  0  0  0  0  0  0  0  0
  161.9870  210.8090  150.7570 C   0  0  0  0  0  3  0  0  0  0  0  0
  159.7680  210.6900  156.3300 C   0  0  0  0  0  2  0  0  0  0  0  0
  159.5870  212.1240  156.1260 N   0  0  0  0  0  2  0  0  0  0  0  0
  158.4340  212.5560  156.9090 C   0  0  2  0  0  3  0  0  0  0  0  0
  157.5490  211.4820  157.0460 O   0  0  0  0  0  1  0  0  0  0  0  0
  156.3100  213.6520  156.4930 C   0  0  0  0  0  2  0  0  0  0  0  0
  156.6900  214.4500  154.3070 C   0  0  2  0  0  3  0  0  0  0  0  0
  155.5990  213.8120  155.1460 C   0  0  1  0  0  3  0  0  0  0  0  0
  156.5030  211.4840  154.5870 C   0  0  0  0  0  2  0  0  0  0  0  0
  155.2720  212.4110  154.5860 C   0  0  0  0  0  2  0  0  0  0  0  0
  157.7590  213.6700  156.2280 N   0  0  0  0  0  0  0  0  0  0  0  0
  157.7890  212.2150  154.1550 C   0  0  0  0  0  2  0  0  0  0  0  0
  156.4350  214.4530  152.8020 C   0  0  0  0  0  1  0  0  0  0  0  0
  157.8930  213.6490  154.7580 C   0  0  1  0  0  3  0  0  0  0  0  0
  159.8380  205.6250  150.7780 C   0  0  0  0  0  2  0  0  0  0  0  0
  160.0460  204.1230  150.8380 C   0  0  0  0  0  2  0  0  0  0  0  0
  161.3300  203.7620  150.1140 C   0  0  0  0  0  2  0  0  0  0  0  0
  160.8840  202.5490  148.0150 N   0  0  0  0  0  0  0  0  0  0  0  0
  161.0950  203.6720  148.6400 C   0  0  0  0  0  0  0  0  0  0  0  0
  160.8380  201.2260  148.5740 C   0  0  0  0  0  0  0  0  0  0  0  0
  160.1360  200.9600  149.5880 O   0  0  0  0  0  0  0  0  0  0  0  0
  161.2540  200.0850  146.4300 C   0  0  0  0  0  1  0  0  0  0  0  0
  161.6010  200.1310  147.9090 C   0  0  0  0  0  2  0  0  0  0  0  0
  161.0280  204.9500  147.8770 C   0  0  0  0  0  2  0  0  0  0  0  0
  162.4110  205.3500  147.3910 C   0  0  0  0  0  2  0  0  0  0  0  0
  160.4640  204.2420  144.3860 N   0  0  0  0  0  0  0  0  0  0  0  0
  160.9540  206.3290  145.5680 C   0  0  0  0  0  2  0  0  0  0  0  0
  162.3510  205.8190  145.9420 C   0  0  0  0  0  3  0  0  0  0  0  0
  159.9770  205.1640  145.4080 C   0  0  0  0  0  2  0  0  0  0  0  0
  159.4870  203.1740  144.2880 C   0  0  0  0  0  1  0  0  0  0  0  0
  161.7040  203.6340  144.8660 C   0  0  0  0  0  2  0  0  0  0  0  0
  162.7940  204.7000  144.9970 C   0  0  0  0  0  2  0  0  0  0  0  0
  1  8  1  0  0  0  0
  2  3  1  0  0  0  0
  2 14  1  6  0  0  0
  3  5  1  1  0  0  0
  4  7  1  6  0  0  0
  4  3  1  0  0  0  0
  6  1  1  6  0  0  0
  6  2  1  0  0  0  0
  7  6  1  0  0  0  0
  8 34  1  1  0  0  0
  8  4  1  0  0  0  0
  9 11  1  0  0  0  0
 11 10  1  1  0  0  0
 11 21  1  0  0  0  0
 12 11  1  0  0  0  0
 13 12  2  0  0  0  0
 14 13  1  1  0  0  0
 14  9  1  0  0  0  0
 15 19  2  0  0  0  0
 15 17  1  0  0  0  0
 16 18  1  0  0  0  0
 17 16  2  0  0  0  0
 18 13  1  0  0  0  0
 19 20  1  0  0  0  0
 20 18  2  0  0  0  0
 22 21  1  0  0  0  0
 22 23  1  0  0  0  0
 23 24  1  6  0  0  0
 26 32  1  6  0  0  0
 26 33  1  0  0  0  0
 26 27  1  0  0  0  0
 27 29  1  6  0  0  0
 27 25  1  0  0  0  0
 29 28  1  0  0  0  0
 30 25  1  0  0  0  0
 30 23  1  0  0  0  0
 31 28  1  0  0  0  0
 33 31  1  6  0  0  0
 33 30  1  0  0  0  0
 34 35  1  0  0  0  0
 36 35  1  0  0  0  0
 37 39  1  0  0  0  0
 37 38  2  0  0  0  0
 38 36  1  0  0  0  0
 39 40  2  0  0  0  0
 41 42  1  0  0  0  0
 42 39  1  0  0  0  0
 43 38  1  0  0  0  0
 44 43  1  0  0  0  0
 45 50  1  0  0  0  0
 45 48  1  0  0  0  0
 46 47  1  0  0  0  0
 47 44  1  0  0  0  0
 48 46  1  0  0  0  0
 49 45  1  0  0  0  0
 50 51  1  0  0  0  0
 51 47  1  0  0  0  0
M  END
>  <MODEL>
6

>  <REMARK>
 VINA RESULT:      -1.0      3.303      7.758
  Name = 
  15 active torsions:
  status: ('A' for Active; 'I' for Inactive)
    1  A    between atoms: N_3  and  C_20
    2  A    between atoms: C_5  and  C_50
    3  A    between atoms: C_7  and  C_26
    4  A    between atoms: C_7  and  C_41
    5  A    between atoms: N_13  and  C_17
    6  A    between atoms: N_13  and  C_48
    7  A    between atoms: C_14  and  C_48
    8  A    between atoms: C_17  and  N_36
    9  A    between atoms: C_19  and  C_24
   10  A    between atoms: C_19  and  C_33
   11  A    between atoms: C_20  and  C_38
   12  A    between atoms: C_24  and  C_29
   13  A    between atoms: C_26  and  C_33
   14  A    between atoms: C_30  and  C_41
   15  A    between atoms: C_32  and  C_43
                            x       y       z     vdW  Elec       q    Type
                         _______ _______ _______ _____ _____    ______ ____

>  <TORSDO>
F 15

$$$$
=
 OpenBabel11042420183D

 51 57  0  0  1  0  0  0  0  0999 V2000
  160.0630  206.0940  148.9070 C   0  0  0  0  0  2  0  0  0  0  0  0
  161.5800  204.6950  147.4980 C   0  0  1  0  0  3  0  0  0  0  0  0
  162.6460  205.7690  147.6700 C   0  0  1  0  0  3  0  0  0  0  0  0
  162.4040  206.1680  149.1380 C   0  0  2  0  0  3  0  0  0  0  0  0
  164.0220  205.1510  147.5170 C   0  0  0  0  0  1  0  0  0  0  0  0
  160.8480  204.7770  148.8350 C   0  0  1  0  0  3  0  0  0  0  0  0
  161.9110  204.9920  149.7180 O   0  0  0  0  0  0  0  0  0  0  0  0
  161.1770  207.0800  149.2230 C   0  0  1  0  0  3  0  0  0  0  0  0
  160.7510  206.3750  145.3650 S   0  0  0  0  0  0  0  0  0  0  0  0
  163.0760  206.0050  144.1810 O   0  0  0  0  0  1  0  0  0  0  0  0
  161.7360  205.6450  144.0210 C   0  0  1  0  0  0  0  0  0  0  0  0
  161.5950  204.1680  144.1350 C   0  0  0  0  0  3  0  0  0  0  0  0
  161.0710  203.7190  145.2650 C   0  0  0  0  0  0  0  0  0  0  0  0
  160.6810  204.7730  146.2470 C   0  0  1  0  0  3  0  0  0  0  0  0
  160.4320  199.5640  145.9740 C   0  0  0  0  0  3  0  0  0  0  0  0
  161.4140  201.6580  146.6390 C   0  0  0  0  0  3  0  0  0  0  0  0
  161.2060  200.2980  146.8720 C   0  0  0  0  0  3  0  0  0  0  0  0
  160.8510  202.2770  145.5150 C   0  0  0  0  0  0  0  0  0  0  0  0
  159.8870  200.1730  144.8860 N   0  0  0  0  0  0  0  0  0  0  0  0
  160.0790  201.4970  144.6420 C   0  0  0  0  0  3  0  0  0  0  0  0
  161.2060  206.1550  142.6830 C   0  0  0  0  0  2  0  0  0  0  0  0
  162.2890  206.5990  141.8100 N   0  0  0  0  0  2  0  0  0  0  0  0
  161.7060  207.0510  140.5510 C   0  0  2  0  0  3  0  0  0  0  0  0
  161.9580  206.0930  139.5630 O   0  0  0  0  0  1  0  0  0  0  0  0
  161.5680  209.4640  140.7590 C   0  0  0  0  0  2  0  0  0  0  0  0
  162.3640  210.0970  138.6310 C   0  0  2  0  0  3  0  0  0  0  0  0
  161.2960  210.4750  139.6410 C   0  0  1  0  0  3  0  0  0  0  0  0
  159.7200  208.7130  138.6630 C   0  0  0  0  0  2  0  0  0  0  0  0
  159.9010  210.1950  139.0440 C   0  0  0  0  0  2  0  0  0  0  0  0
  162.3030  208.3360  140.1600 N   0  0  0  0  0  0  0  0  0  0  0  0
  160.9810  208.1150  138.0100 C   0  0  0  0  0  2  0  0  0  0  0  0
  162.1800  210.6910  137.2370 C   0  0  0  0  0  1  0  0  0  0  0  0
  162.2940  208.5870  138.7050 C   0  0  1  0  0  3  0  0  0  0  0  0
  161.2060  208.2540  148.2530 C   0  0  0  0  0  2  0  0  0  0  0  0
  162.3610  209.1830  148.5780 C   0  0  0  0  0  2  0  0  0  0  0  0
  161.9280  210.6220  148.3630 C   0  0  0  0  0  2  0  0  0  0  0  0
  161.2120  212.5060  149.7810 N   0  0  0  0  0  0  0  0  0  0  0  0
  161.7060  211.3050  149.6740 C   0  0  0  0  0  0  0  0  0  0  0  0
  160.8000  213.3870  148.7230 C   0  0  0  0  0  0  0  0  0  0  0  0
  159.6060  213.4210  148.3190 O   0  0  0  0  0  0  0  0  0  0  0  0
  161.8170  214.1490  146.6110 C   0  0  0  0  0  1  0  0  0  0  0  0
  161.7990  214.3160  148.1220 C   0  0  0  0  0  2  0  0  0  0  0  0
  162.0010  210.5300  150.9110 C   0  0  0  0  0  2  0  0  0  0  0  0
  161.2050  211.0800  152.0830 C   0  0  0  0  0  2  0  0  0  0  0  0
  160.6070  208.7630  154.9680 N   0  0  0  0  0  0  0  0  0  0  0  0
  159.4030  210.5280  153.7730 C   0  0  0  0  0  2  0  0  0  0  0  0
  160.0750  210.1270  152.4540 C   0  0  0  0  0  3  0  0  0  0  0  0
  160.3030  210.1910  154.9630 C   0  0  0  0  0  2  0  0  0  0  0  0
  161.4530  208.5210  156.1220 C   0  0  0  0  0  1  0  0  0  0  0  0
  161.4100  208.4580  153.7860 C   0  0  0  0  0  2  0  0  0  0  0  0
  160.5850  208.6860  152.5180 C   0  0  0  0  0  2  0  0  0  0  0  0
  1  8  1  0  0  0  0
  2 14  1  6  0  0  0
  2  3  1  0  0  0  0
  2  6  1  0  0  0  0
  3  5  1  1  0  0  0
  3  4  1  0  0  0  0
  4  8  1  0  0  0  0
  4  7  1  1  0  0  0
  6  1  1  6  0  0  0
  6  7  1  0  0  0  0
  8 34  1  6  0  0  0
  9 14  1  0  0  0  0
 11 12  1  0  0  0  0
 11 10  1  1  0  0  0
 11  9  1  0  0  0  0
 12 13  2  0  0  0  0
 13 18  1  0  0  0  0
 14 13  1  6  0  0  0
 15 17  1  0  0  0  0
 16 17  2  0  0  0  0
 18 16  1  0  0  0  0
 19 15  2  0  0  0  0
 20 19  1  0  0  0  0
 20 18  2  0  0  0  0
 21 11  1  0  0  0  0
 22 21  1  0  0  0  0
 23 24  1  6  0  0  0
 23 22  1  0  0  0  0
 26 32  1  6  0  0  0
 26 33  1  0  0  0  0
 26 27  1  0  0  0  0
 27 29  1  6  0  0  0
 27 25  1  0  0  0  0
 28 29  1  0  0  0  0
 30 23  1  0  0  0  0
 30 25  1  0  0  0  0
 31 28  1  0  0  0  0
 33 31  1  1  0  0  0
 33 30  1  0  0  0  0
 34 35  1  0  0  0  0
 36 35  1  0  0  0  0
 36 38  1  0  0  0  0
 38 37  2  0  0  0  0
 38 43  1  0  0  0  0
 39 37  1  0  0  0  0
 40 39  2  0  0  0  0
 41 42  1  0  0  0  0
 42 39  1  0  0  0  0
 43 44  1  0  0  0  0
 44 47  1  0  0  0  0
 45 49  1  0  0  0  0
 46 48  1  0  0  0  0
 47 51  1  0  0  0  0
 47 46  1  0  0  0  0
 48 45  1  0  0  0  0
 50 45  1  0  0  0  0
 51 50  1  0  0  0  0
M  END
>  <MODEL>
7

>  <REMARK>
 VINA RESULT:      -0.6      3.691     10.023
  Name = 
  15 active torsions:
  status: ('A' for Active; 'I' for Inactive)
    1  A    between atoms: N_3  and  C_20
    2  A    between atoms: C_5  and  C_50
    3  A    between atoms: C_7  and  C_26
    4  A    between atoms: C_7  and  C_41
    5  A    between atoms: N_13  and  C_17
    6  A    between atoms: N_13  and  C_48
    7  A    between atoms: C_14  and  C_48
    8  A    between atoms: C_17  and  N_36
    9  A    between atoms: C_19  and  C_24
   10  A    between atoms: C_19  and  C_33
   11  A    between atoms: C_20  and  C_38
   12  A    between atoms: C_24  and  C_29
   13  A    between atoms: C_26  and  C_33
   14  A    between atoms: C_30  and  C_41
   15  A    between atoms: C_32  and  C_43
                            x       y       z     vdW  Elec       q    Type
                         _______ _______ _______ _____ _____    ______ ____

>  <TORSDO>
F 15

$$$$
=
 OpenBabel11042420183D

 51 57  0  0  1  0  0  0  0  0999 V2000
  160.1000  206.2040  148.8150 C   0  0  0  0  0  2  0  0  0  0  0  0
  161.5460  204.6600  147.4850 C   0  0  1  0  0  3  0  0  0  0  0  0
  162.6670  205.6820  147.6130 C   0  0  1  0  0  3  0  0  0  0  0  0
  162.4400  206.1640  149.0580 C   0  0  2  0  0  3  0  0  0  0  0  0
  164.0080  204.9850  147.4990 C   0  0  0  0  0  1  0  0  0  0  0  0
  160.8130  204.8440  148.8110 C   0  0  1  0  0  3  0  0  0  0  0  0
  161.8830  205.0440  149.6910 O   0  0  0  0  0  0  0  0  0  0  0  0
  161.2640  207.1430  149.0910 C   0  0  1  0  0  3  0  0  0  0  0  0
  160.7260  206.3240  145.3360 S   0  0  0  0  0  0  0  0  0  0  0  0
  163.0630  205.9630  144.1750 O   0  0  0  0  0  1  0  0  0  0  0  0
  161.7280  205.5940  144.0050 C   0  0  1  0  0  0  0  0  0  0  0  0
  161.5950  204.1160  144.1250 C   0  0  0  0  0  3  0  0  0  0  0  0
  161.0640  203.6700  145.2520 C   0  0  0  0  0  0  0  0  0  0  0  0
  160.6580  204.7250  146.2250 C   0  0  1  0  0  3  0  0  0  0  0  0
  160.4450  199.5140  145.9750 C   0  0  0  0  0  3  0  0  0  0  0  0
  161.4080  201.6170  146.6390 C   0  0  0  0  0  3  0  0  0  0  0  0
  161.2070  200.2570  146.8770 C   0  0  0  0  0  3  0  0  0  0  0  0
  160.8510  202.2280  145.5080 C   0  0  0  0  0  0  0  0  0  0  0  0
  159.9060  200.1140  144.8800 N   0  0  0  0  0  0  0  0  0  0  0  0
  160.0910  201.4390  144.6310 C   0  0  0  0  0  3  0  0  0  0  0  0
  161.2070  206.0940  142.6590 C   0  0  0  0  0  2  0  0  0  0  0  0
  162.2710  206.6940  141.8600 N   0  0  0  0  0  2  0  0  0  0  0  0
  161.7140  207.0730  140.5670 C   0  0  2  0  0  3  0  0  0  0  0  0
  161.9710  206.0540  139.6440 O   0  0  0  0  0  1  0  0  0  0  0  0
  161.7180  209.4910  140.7680 C   0  0  0  0  0  2  0  0  0  0  0  0
  162.3260  210.0770  138.5660 C   0  0  2  0  0  3  0  0  0  0  0  0
  161.3860  210.5110  139.6750 C   0  0  1  0  0  3  0  0  0  0  0  0
  159.6320  208.8270  138.8750 C   0  0  0  0  0  2  0  0  0  0  0  0
  159.9250  210.3000  139.2240 C   0  0  0  0  0  2  0  0  0  0  0  0
  162.3310  208.3250  140.1070 N   0  0  0  0  0  0  0  0  0  0  0  0
  160.7900  208.1650  138.1030 C   0  0  0  0  0  2  0  0  0  0  0  0
  162.0320  210.6750  137.1920 C   0  0  0  0  0  1  0  0  0  0  0  0
  162.1880  208.5720  138.6580 C   0  0  1  0  0  3  0  0  0  0  0  0
  161.3610  208.2660  148.0670 C   0  0  0  0  0  2  0  0  0  0  0  0
  161.9560  209.5110  148.6980 C   0  0  0  0  0  2  0  0  0  0  0  0
  161.9600  209.3580  150.2090 C   0  0  0  0  0  2  0  0  0  0  0  0
  161.0940  210.7120  152.0770 N   0  0  0  0  0  0  0  0  0  0  0  0
  161.5720  210.6430  150.8670 C   0  0  0  0  0  0  0  0  0  0  0  0
  160.8450  209.6290  152.9890 C   0  0  0  0  0  0  0  0  0  0  0  0
  160.6180  209.8340  154.2130 O   0  0  0  0  0  0  0  0  0  0  0  0
  161.2010  207.2590  153.5610 C   0  0  0  0  0  1  0  0  0  0  0  0
  160.8060  208.2350  152.4640 C   0  0  0  0  0  2  0  0  0  0  0  0
  161.8220  211.9030  150.1140 C   0  0  0  0  0  2  0  0  0  0  0  0
  160.5130  212.6230  149.8350 C   0  0  0  0  0  2  0  0  0  0  0  0
  159.9970  213.2090  146.1690 N   0  0  0  0  0  0  0  0  0  0  0  0
  159.4390  214.3090  148.2830 C   0  0  0  0  0  2  0  0  0  0  0  0
  160.7460  213.8150  148.9150 C   0  0  0  0  0  3  0  0  0  0  0  0
  158.9660  213.3460  147.1940 C   0  0  0  0  0  2  0  0  0  0  0  0
  159.4760  212.2910  145.1740 C   0  0  0  0  0  1  0  0  0  0  0  0
  161.1610  212.5600  146.7700 C   0  0  0  0  0  2  0  0  0  0  0  0
  161.7750  213.4690  147.8370 C   0  0  0  0  0  2  0  0  0  0  0  0
  1  8  1  0  0  0  0
  2 14  1  6  0  0  0
  2  3  1  0  0  0  0
  2  6  1  0  0  0  0
  3  5  1  1  0  0  0
  3  4  1  0  0  0  0
  4  8  1  0  0  0  0
  4  7  1  1  0  0  0
  6  1  1  6  0  0  0
  6  7  1  0  0  0  0
  8 34  1  6  0  0  0
  9 14  1  0  0  0  0
 11 12  1  0  0  0  0
 11 10  1  1  0  0  0
 11  9  1  0  0  0  0
 12 13  2  0  0  0  0
 13 18  1  0  0  0  0
 14 13  1  6  0  0  0
 15 17  1  0  0  0  0
 16 17  2  0  0  0  0
 18 16  1  0  0  0  0
 19 15  2  0  0  0  0
 20 19  1  0  0  0  0
 20 18  2  0  0  0  0
 21 11  1  0  0  0  0
 22 21  1  0  0  0  0
 23 24  1  6  0  0  0
 23 22  1  0  0  0  0
 26 32  1  6  0  0  0
 26 33  1  0  0  0  0
 26 27  1  0  0  0  0
 27 29  1  6  0  0  0
 27 25  1  0  0  0  0
 28 29  1  0  0  0  0
 30 23  1  0  0  0  0
 30 25  1  0  0  0  0
 31 28  1  0  0  0  0
 33 31  1  1  0  0  0
 33 30  1  0  0  0  0
 34 35  1  0  0  0  0
 35 36  1  0  0  0  0
 36 38  1  0  0  0  0
 37 39  1  0  0  0  0
 38 37  2  0  0  0  0
 39 40  2  0  0  0  0
 42 39  1  0  0  0  0
 42 41  1  0  0  0  0
 43 38  1  0  0  0  0
 44 43  1  0  0  0  0
 45 50  1  0  0  0  0
 45 48  1  0  0  0  0
 46 47  1  0  0  0  0
 47 44  1  0  0  0  0
 48 46  1  0  0  0  0
 49 45  1  0  0  0  0
 50 51  1  0  0  0  0
 51 47  1  0  0  0  0
M  END
>  <MODEL>
8

>  <REMARK>
 VINA RESULT:      -0.3      3.718      9.231
  Name = 
  15 active torsions:
  status: ('A' for Active; 'I' for Inactive)
    1  A    between atoms: N_3  and  C_20
    2  A    between atoms: C_5  and  C_50
    3  A    between atoms: C_7  and  C_26
    4  A    between atoms: C_7  and  C_41
    5  A    between atoms: N_13  and  C_17
    6  A    between atoms: N_13  and  C_48
    7  A    between atoms: C_14  and  C_48
    8  A    between atoms: C_17  and  N_36
    9  A    between atoms: C_19  and  C_24
   10  A    between atoms: C_19  and  C_33
   11  A    between atoms: C_20  and  C_38
   12  A    between atoms: C_24  and  C_29
   13  A    between atoms: C_26  and  C_33
   14  A    between atoms: C_30  and  C_41
   15  A    between atoms: C_32  and  C_43
                            x       y       z     vdW  Elec       q    Type
                         _______ _______ _______ _____ _____    ______ ____

>  <TORSDO>
F 15

$$$$
=
 OpenBabel11042420183D

 51 57  0  0  1  0  0  0  0  0999 V2000
  160.1000  206.0100  149.0240 C   0  0  0  0  0  2  0  0  0  0  0  0
  161.5870  204.7080  147.4960 C   0  0  1  0  0  3  0  0  0  0  0  0
  162.6630  205.7600  147.7310 C   0  0  1  0  0  3  0  0  0  0  0  0
  162.4430  206.0520  149.2270 C   0  0  2  0  0  3  0  0  0  0  0  0
  164.0320  205.1460  147.5140 C   0  0  0  0  0  1  0  0  0  0  0  0
  160.8740  204.6970  148.8450 C   0  0  1  0  0  3  0  0  0  0  0  0
  161.9500  204.8400  149.7270 O   0  0  0  0  0  0  0  0  0  0  0  0
  161.2250  206.9640  149.3950 C   0  0  1  0  0  3  0  0  0  0  0  0
  160.8050  206.5160  145.4520 S   0  0  0  0  0  0  0  0  0  0  0  0
  163.0890  206.0860  144.2090 O   0  0  0  0  0  1  0  0  0  0  0  0
  161.7310  205.7980  144.0600 C   0  0  1  0  0  0  0  0  0  0  0  0
  161.5200  204.3260  144.1140 C   0  0  0  0  0  3  0  0  0  0  0  0
  160.9940  203.8550  145.2340 C   0  0  0  0  0  0  0  0  0  0  0  0
  160.6720  204.8830  146.2670 C   0  0  1  0  0  3  0  0  0  0  0  0
  160.1660  199.7080  145.7780 C   0  0  0  0  0  3  0  0  0  0  0  0
  161.2100  201.7360  146.5450 C   0  0  0  0  0  3  0  0  0  0  0  0
  160.9400  200.3790  146.7240 C   0  0  0  0  0  3  0  0  0  0  0  0
  160.7080  202.4160  145.4270 C   0  0  0  0  0  0  0  0  0  0  0  0
  159.6800  200.3750  144.6970 N   0  0  0  0  0  0  0  0  0  0  0  0
  159.9330  201.6980  144.5040 C   0  0  0  0  0  3  0  0  0  0  0  0
  161.2040  206.3910  142.7550 C   0  0  0  0  0  2  0  0  0  0  0  0
  162.2890  206.7060  141.8310 N   0  0  0  0  0  2  0  0  0  0  0  0
  161.7030  207.1330  140.5650 C   0  0  2  0  0  3  0  0  0  0  0  0
  161.9560  206.1580  139.5940 O   0  0  0  0  0  1  0  0  0  0  0  0
  161.5340  209.5500  140.6940 C   0  0  0  0  0  2  0  0  0  0  0  0
  162.3770  210.1260  138.5690 C   0  0  2  0  0  3  0  0  0  0  0  0
  161.2800  210.5230  139.5390 C   0  0  1  0  0  3  0  0  0  0  0  0
  159.7480  208.7140  138.5780 C   0  0  0  0  0  2  0  0  0  0  0  0
  159.9030  210.2090  138.9170 C   0  0  0  0  0  2  0  0  0  0  0  0
  162.2960  208.4120  140.1490 N   0  0  0  0  0  0  0  0  0  0  0  0
  161.0310  208.1100  137.9750 C   0  0  0  0  0  2  0  0  0  0  0  0
  162.2220  210.6760  137.1520 C   0  0  0  0  0  1  0  0  0  0  0  0
  162.3210  208.6180  138.6870 C   0  0  1  0  0  3  0  0  0  0  0  0
  161.2500  208.2050  148.5130 C   0  0  0  0  0  2  0  0  0  0  0  0
  161.7710  209.3990  149.2910 C   0  0  0  0  0  2  0  0  0  0  0  0
  162.1360  208.9630  150.6990 C   0  0  0  0  0  2  0  0  0  0  0  0
  160.7290  208.9050  152.7220 N   0  0  0  0  0  0  0  0  0  0  0  0
  161.1930  209.5590  151.6940 C   0  0  0  0  0  0  0  0  0  0  0  0
  161.0050  207.5470  153.0980 C   0  0  0  0  0  0  0  0  0  0  0  0
  160.8110  206.5870  152.3030 O   0  0  0  0  0  0  0  0  0  0  0  0
  161.0630  208.2900  155.4470 C   0  0  0  0  0  1  0  0  0  0  0  0
  161.5810  207.2700  154.4450 C   0  0  0  0  0  2  0  0  0  0  0  0
  160.8350  210.9950  151.5270 C   0  0  0  0  0  2  0  0  0  0  0  0
  159.5230  211.3000  152.2330 C   0  0  0  0  0  2  0  0  0  0  0  0
  157.7510  212.2790  155.3870 N   0  0  0  0  0  0  0  0  0  0  0  0
  160.0490  211.8890  154.6380 C   0  0  0  0  0  2  0  0  0  0  0  0
  159.7110  212.4270  153.2420 C   0  0  0  0  0  3  0  0  0  0  0  0
  158.8110  211.2780  155.2960 C   0  0  0  0  0  2  0  0  0  0  0  0
  156.6200  211.6310  156.0250 C   0  0  0  0  0  1  0  0  0  0  0  0
  157.3270  212.6260  154.0320 C   0  0  0  0  0  2  0  0  0  0  0  0
  158.4700  213.3200  153.2880 C   0  0  0  0  0  2  0  0  0  0  0  0
  1  8  1  0  0  0  0
  2 14  1  6  0  0  0
  2  3  1  0  0  0  0
  2  6  1  0  0  0  0
  3  5  1  1  0  0  0
  3  4  1  0  0  0  0
  4  8  1  0  0  0  0
  4  7  1  1  0  0  0
  6  1  1  6  0  0  0
  6  7  1  0  0  0  0
  8 34  1  6  0  0  0
  9 14  1  0  0  0  0
 11 12  1  0  0  0  0
 11 10  1  1  0  0  0
 11  9  1  0  0  0  0
 12 13  2  0  0  0  0
 13 18  1  0  0  0  0
 14 13  1  6  0  0  0
 15 17  1  0  0  0  0
 16 17  2  0  0  0  0
 18 16  1  0  0  0  0
 19 15  2  0  0  0  0
 20 19  1  0  0  0  0
 20 18  2  0  0  0  0
 21 11  1  0  0  0  0
 22 21  1  0  0  0  0
 23 24  1  6  0  0  0
 23 22  1  0  0  0  0
 26 32  1  6  0  0  0
 26 33  1  0  0  0  0
 26 27  1  0  0  0  0
 27 29  1  6  0  0  0
 27 25  1  0  0  0  0
 28 29  1  0  0  0  0
 30 23  1  0  0  0  0
 30 25  1  0  0  0  0
 31 28  1  0  0  0  0
 33 31  1  6  0  0  0
 33 30  1  0  0  0  0
 34 35  1  0  0  0  0
 35 36  1  0  0  0  0
 36 38  1  0  0  0  0
 37 39  1  0  0  0  0
 38 37  2  0  0  0  0
 39 42  1  0  0  0  0
 40 39  2  0  0  0  0
 42 41  1  0  0  0  0
 43 38  1  0  0  0  0
 43 44  1  0  0  0  0
 44 47  1  0  0  0  0
 45 49  1  0  0  0  0
 46 48  1  0  0  0  0
 47 51  1  0  0  0  0
 47 46  1  0  0  0  0
 48 45  1  0  0  0  0
 50 45  1  0  0  0  0
 51 50  1  0  0  0  0
M  END
>  <MODEL>
9

>  <REMARK>
 VINA RESULT:      -0.2      3.749     10.221
  Name = 
  15 active torsions:
  status: ('A' for Active; 'I' for Inactive)
    1  A    between atoms: N_3  and  C_20
    2  A    between atoms: C_5  and  C_50
    3  A    between atoms: C_7  and  C_26
    4  A    between atoms: C_7  and  C_41
    5  A    between atoms: N_13  and  C_17
    6  A    between atoms: N_13  and  C_48
    7  A    between atoms: C_14  and  C_48
    8  A    between atoms: C_17  and  N_36
    9  A    between atoms: C_19  and  C_24
   10  A    between atoms: C_19  and  C_33
   11  A    between atoms: C_20  and  C_38
   12  A    between atoms: C_24  and  C_29
   13  A    between atoms: C_26  and  C_33
   14  A    between atoms: C_30  and  C_41
   15  A    between atoms: C_32  and  C_43
                            x       y       z     vdW  Elec       q    Type
                         _______ _______ _______ _____ _____    ______ ____

>  <TORSDO>
F 15

$$$$
