=
 OpenBabel11042420253D

 31 35  0  0  1  0  0  0  0  0999 V2000
  159.1360  209.6520  152.8270 C   0  0  0  0  0  2  0  0  0  0  0  0
  158.5330  214.0180  153.4170 C   0  0  0  0  0  3  0  0  0  0  0  0
  157.4340  214.1830  152.5730 C   0  0  0  0  0  0  0  0  0  0  0  0
  154.7590  214.3770  155.1010 N   0  0  0  0  0  0  0  0  0  0  0  0
  158.8240  214.2720  150.3660 C   0  0  1  0  0  3  0  0  0  0  0  0
  159.5610  210.9630  153.4650 C   0  0  2  0  0  0  0  0  0  0  0  0
  161.2520  213.8500  150.1990 N   0  0  0  0  0  1  0  0  0  0  0  0
  157.5920  214.0980  151.1480 N   0  0  0  0  0  2  0  0  0  0  0  0
  158.3950  213.9210  154.7950 C   0  0  0  0  0  0  0  0  0  0  0  0
  156.1490  214.2930  153.1370 C   0  0  0  0  0  0  0  0  0  0  0  0
  154.5920  214.3180  156.4470 C   0  0  0  0  0  0  0  0  0  0  0  0
  154.9550  214.4490  152.2500 C   0  0  0  0  0  1  0  0  0  0  0  0
  153.2910  214.4480  157.0070 N   0  0  0  0  0  1  0  0  0  0  0  0
  155.9930  214.2580  154.5370 C   0  0  0  0  0  0  0  0  0  0  0  0
  156.9150  214.0010  156.7500 C   0  0  0  0  0  3  0  0  0  0  0  0
  160.0620  213.6150  151.0010 C   0  0  2  0  0  3  0  0  0  0  0  0
  157.1200  214.0680  155.3690 C   0  0  0  0  0  0  0  0  0  0  0  0
  155.6640  214.1290  157.2610 N   0  0  0  0  0  0  0  0  0  0  0  0
  160.4110  211.8630  152.6520 N   0  0  0  0  0  0  0  0  0  0  0  0
  157.3250  210.5040  154.3000 C   0  0  0  0  0  2  0  0  0  0  0  0
  159.6130  211.0410  154.9890 C   0  0  2  0  0  3  0  0  0  0  0  0
  160.0950  214.4530  156.3370 O   0  0  0  0  0  0  0  0  0  0  0  0
  159.9050  212.1310  151.2990 C   0  0  0  0  0  2  0  0  0  0  0  0
  158.1940  210.8540  155.4990 C   0  0  0  0  0  2  0  0  0  0  0  0
  160.2050  212.2810  155.5060 N   0  0  0  0  0  2  0  0  0  0  0  0
  158.1190  210.7710  153.0310 C   0  0  2  0  0  3  0  0  0  0  0  0
  159.5910  213.5800  155.5840 C   0  0  0  0  0  0  0  0  0  0  0  0
  157.1840  213.2620  148.7800 C   0  0  0  0  0  1  0  0  0  0  0  0
  158.6000  213.7790  148.9420 C   0  0  0  0  0  2  0  0  0  0  0  0
  161.7860  211.3580  152.5840 C   0  0  0  0  0  2  0  0  0  0  0  0
  161.9580  210.4880  151.5020 O   0  0  0  0  0  1  0  0  0  0  0  0
  2  9  1  0  0  0  0
  3 10  1  0  0  0  0
  3  2  2  0  0  0  0
  4 11  2  0  0  0  0
  5 29  1  6  0  0  0
  5 16  1  0  0  0  0
  5  8  1  0  0  0  0
  6  1  1  6  0  0  0
  6 21  1  0  0  0  0
  8  3  1  0  0  0  0
  9 17  2  0  0  0  0
  9 27  1  0  0  0  0
 10 14  2  0  0  0  0
 11 13  1  0  0  0  0
 11 18  1  0  0  0  0
 12 10  1  0  0  0  0
 14  4  1  0  0  0  0
 14 17  1  0  0  0  0
 15 18  2  0  0  0  0
 16  7  1  6  0  0  0
 16 23  1  0  0  0  0
 17 15  1  0  0  0  0
 19  6  1  0  0  0  0
 20 24  1  0  0  0  0
 21 24  1  1  0  0  0
 21 25  1  0  0  0  0
 23 19  1  0  0  0  0
 25 27  1  0  0  0  0
 26  1  1  6  0  0  0
 26  6  1  0  0  0  0
 26 20  1  0  0  0  0
 27 22  2  0  0  0  0
 28 29  1  0  0  0  0
 30 19  1  0  0  0  0
 31 30  1  0  0  0  0
M  END
>  <MODEL>
1

>  <REMARK>
 VINA RESULT:       0.2      0.000      0.000
  Name = 
  2 active torsions:
  status: ('A' for Active; 'I' for Inactive)
    1  A    between atoms: C_5  and  C_23
    2  A    between atoms: N_20  and  C_27
                            x       y       z     vdW  Elec       q    Type
                         _______ _______ _______ _____ _____    ______ ____

>  <TORSDO>
F 2

$$$$
=
 OpenBabel11042420253D

 31 35  0  0  1  0  0  0  0  0999 V2000
  161.5780  210.9190  156.6590 C   0  0  0  0  0  2  0  0  0  0  0  0
  159.2020  210.4360  152.9320 C   0  0  0  0  0  3  0  0  0  0  0  0
  158.9080  211.7820  152.7070 C   0  0  0  0  0  0  0  0  0  0  0  0
  161.3250  212.4850  150.0160 N   0  0  0  0  0  0  0  0  0  0  0  0
  156.9390  211.8960  154.4180 C   0  0  1  0  0  3  0  0  0  0  0  0
  160.9620  210.0210  155.6010 C   0  0  2  0  0  0  0  0  0  0  0  0
  156.3020  210.0860  155.9730 N   0  0  0  0  0  1  0  0  0  0  0  0
  157.9810  212.4760  153.5590 N   0  0  0  0  0  2  0  0  0  0  0  0
  160.2140  209.7790  152.2450 C   0  0  0  0  0  0  0  0  0  0  0  0
  159.6330  212.4860  151.7290 C   0  0  0  0  0  0  0  0  0  0  0  0
  162.3010  211.8640  149.3040 C   0  0  0  0  0  0  0  0  0  0  0  0
  159.3490  213.9340  151.4870 C   0  0  0  0  0  1  0  0  0  0  0  0
  163.0150  212.5810  148.3040 N   0  0  0  0  0  1  0  0  0  0  0  0
  160.6240  211.8220  150.9780 C   0  0  0  0  0  0  0  0  0  0  0  0
  161.9340  209.8560  150.4970 C   0  0  0  0  0  3  0  0  0  0  0  0
  157.3850  210.6280  155.1670 C   0  0  2  0  0  3  0  0  0  0  0  0
  160.9170  210.4650  151.2390 C   0  0  0  0  0  0  0  0  0  0  0  0
  162.6000  210.5610  149.5470 N   0  0  0  0  0  0  0  0  0  0  0  0
  159.5350  209.6640  155.7690 N   0  0  0  0  0  0  0  0  0  0  0  0
  162.5700  211.4250  154.4390 C   0  0  0  0  0  2  0  0  0  0  0  0
  161.8870  209.1020  154.8070 C   0  0  2  0  0  3  0  0  0  0  0  0
  160.2890  207.4490  151.9070 O   0  0  0  0  0  0  0  0  0  0  0  0
  158.6390  210.8030  156.0110 C   0  0  0  0  0  2  0  0  0  0  0  0
  162.8230  209.9890  154.0030 C   0  0  0  0  0  2  0  0  0  0  0  0
  161.1840  208.1480  153.9400 N   0  0  0  0  0  2  0  0  0  0  0  0
  161.2930  211.4640  155.2640 C   0  0  2  0  0  3  0  0  0  0  0  0
  160.5590  208.4120  152.6700 C   0  0  0  0  0  0  0  0  0  0  0  0
  157.2610  214.2160  155.2790 C   0  0  0  0  0  1  0  0  0  0  0  0
  156.4190  212.9590  155.3780 C   0  0  0  0  0  2  0  0  0  0  0  0
  159.3720  208.6620  156.8280 C   0  0  0  0  0  2  0  0  0  0  0  0
  159.3160  207.3670  156.3030 O   0  0  0  0  0  1  0  0  0  0  0  0
  3  2  1  0  0  0  0
  3  8  1  0  0  0  0
  4 14  1  0  0  0  0
  5 16  1  0  0  0  0
  5 29  1  1  0  0  0
  6 19  1  0  0  0  0
  6  1  1  1  0  0  0
  8  5  1  0  0  0  0
  9 27  1  0  0  0  0
  9  2  2  0  0  0  0
 10  3  2  0  0  0  0
 11 18  1  0  0  0  0
 11  4  2  0  0  0  0
 12 10  1  0  0  0  0
 13 11  1  0  0  0  0
 14 17  2  0  0  0  0
 14 10  1  0  0  0  0
 15 17  1  0  0  0  0
 16  7  1  1  0  0  0
 16 23  1  0  0  0  0
 17  9  1  0  0  0  0
 18 15  2  0  0  0  0
 19 23  1  0  0  0  0
 19 30  1  0  0  0  0
 21 24  1  6  0  0  0
 21  6  1  0  0  0  0
 22 27  2  0  0  0  0
 24 20  1  0  0  0  0
 25 21  1  0  0  0  0
 26 20  1  6  0  0  0
 26  6  1  0  0  0  0
 26  1  1  0  0  0  0
 27 25  1  0  0  0  0
 28 29  1  0  0  0  0
 31 30  1  0  0  0  0
M  END
>  <MODEL>
2

>  <REMARK>
 VINA RESULT:       1.0      2.731      6.498
  Name = 
  2 active torsions:
  status: ('A' for Active; 'I' for Inactive)
    1  A    between atoms: C_5  and  C_23
    2  A    between atoms: N_20  and  C_27
                            x       y       z     vdW  Elec       q    Type
                         _______ _______ _______ _____ _____    ______ ____

>  <TORSDO>
F 2

$$$$
=
 OpenBabel11042420253D

 31 35  0  0  1  0  0  0  0  0999 V2000
  163.8840  204.9630  145.8620 C   0  0  0  0  0  2  0  0  0  0  0  0
  160.4680  203.9520  148.5220 C   0  0  0  0  0  3  0  0  0  0  0  0
  161.1000  202.9790  149.2980 C   0  0  0  0  0  0  0  0  0  0  0  0
  161.7330  204.9540  152.3440 N   0  0  0  0  0  0  0  0  0  0  0  0
  160.8260  201.0540  147.5550 C   0  0  1  0  0  3  0  0  0  0  0  0
  162.4360  205.1610  146.2730 C   0  0  2  0  0  0  0  0  0  0  0  0
  159.9540  201.3290  145.2610 N   0  0  0  0  0  1  0  0  0  0  0  0
  161.4230  201.6970  148.7340 N   0  0  0  0  0  2  0  0  0  0  0  0
  160.2950  205.2540  148.9730 C   0  0  0  0  0  0  0  0  0  0  0  0
  161.5430  203.3150  150.5900 C   0  0  0  0  0  0  0  0  0  0  0  0
  161.5520  206.2100  152.8270 C   0  0  0  0  0  0  0  0  0  0  0  0
  162.2430  202.2940  151.4290 C   0  0  0  0  0  1  0  0  0  0  0  0
  161.9870  206.5340  154.1420 N   0  0  0  0  0  1  0  0  0  0  0  0
  161.3240  204.6150  151.0900 C   0  0  0  0  0  0  0  0  0  0  0  0
  160.5370  206.8750  150.7990 C   0  0  0  0  0  3  0  0  0  0  0  0
  160.5750  202.0170  146.3820 C   0  0  2  0  0  3  0  0  0  0  0  0
  160.7000  205.5880  150.2770 C   0  0  0  0  0  0  0  0  0  0  0  0
  160.9590  207.1590  152.0560 N   0  0  0  0  0  0  0  0  0  0  0  0
  161.4470  204.1960  145.7410 N   0  0  0  0  0  0  0  0  0  0  0  0
  163.7760  205.8320  148.1860 C   0  0  0  0  0  2  0  0  0  0  0  0
  161.9860  206.5610  146.6820 C   0  0  2  0  0  3  0  0  0  0  0  0
  158.6130  206.7110  148.1980 O   0  0  0  0  0  0  0  0  0  0  0  0
  161.8070  202.7830  145.9210 C   0  0  0  0  0  2  0  0  0  0  0  0
  162.7550  206.9330  147.9380 C   0  0  0  0  0  2  0  0  0  0  0  0
  160.5380  206.6900  146.8870 N   0  0  0  0  0  2  0  0  0  0  0  0
  163.4430  204.6510  147.2880 C   0  0  2  0  0  3  0  0  0  0  0  0
  159.7700  206.2470  148.0210 C   0  0  0  0  0  0  0  0  0  0  0  0
  161.1010  199.2140  145.8930 C   0  0  0  0  0  1  0  0  0  0  0  0
  161.6830  199.8680  147.1310 C   0  0  0  0  0  2  0  0  0  0  0  0
  161.1650  204.4670  144.3270 C   0  0  0  0  0  2  0  0  0  0  0  0
  159.7940  204.4070  144.0580 O   0  0  0  0  0  1  0  0  0  0  0  0
  2  9  2  0  0  0  0
  2  3  1  0  0  0  0
  3 10  2  0  0  0  0
  4 11  2  0  0  0  0
  5 29  1  6  0  0  0
  5  8  1  0  0  0  0
  6  1  1  6  0  0  0
  6 21  1  0  0  0  0
  6 26  1  0  0  0  0
  8  3  1  0  0  0  0
  9 17  1  0  0  0  0
 10 14  1  0  0  0  0
 10 12  1  0  0  0  0
 11 13  1  0  0  0  0
 14  4  1  0  0  0  0
 15 18  2  0  0  0  0
 16  7  1  6  0  0  0
 16  5  1  0  0  0  0
 17 15  1  0  0  0  0
 17 14  2  0  0  0  0
 18 11  1  0  0  0  0
 19 23  1  0  0  0  0
 19  6  1  0  0  0  0
 21 25  1  0  0  0  0
 21 24  1  1  0  0  0
 23 16  1  0  0  0  0
 24 20  1  0  0  0  0
 25 27  1  0  0  0  0
 26  1  1  6  0  0  0
 26 20  1  0  0  0  0
 27 22  2  0  0  0  0
 27  9  1  0  0  0  0
 28 29  1  0  0  0  0
 30 19  1  0  0  0  0
 31 30  1  0  0  0  0
M  END
>  <MODEL>
3

>  <REMARK>
 VINA RESULT:       3.0      8.387     11.503
  Name = 
  2 active torsions:
  status: ('A' for Active; 'I' for Inactive)
    1  A    between atoms: C_5  and  C_23
    2  A    between atoms: N_20  and  C_27
                            x       y       z     vdW  Elec       q    Type
                         _______ _______ _______ _____ _____    ______ ____

>  <TORSDO>
F 2

$$$$
