=
 OpenBabel11042421063D

 36 41  0  0  1  0  0  0  0  0999 V2000
  159.5470  211.1530  153.7340 C   0  0  1  0  0  3  0  0  0  0  0  0
  157.3610  214.1770  146.7530 C   0  0  0  0  0  0  0  0  0  0  0  0
  162.3450  211.8140  148.9250 C   0  0  0  0  0  2  0  0  0  0  0  0
  158.1200  211.6560  153.7350 C   0  0  0  0  0  0  0  0  0  0  0  0
  161.1820  210.2350  151.9760 C   0  0  0  0  0  0  0  0  0  0  0  0
  158.6530  213.8490  148.5210 C   0  0  0  0  0  0  0  0  0  0  0  0
  160.5680  212.8790  147.4630 C   0  0  0  0  0  3  0  0  0  0  0  0
  156.2160  214.4530  145.9540 N   0  0  0  0  0  1  0  0  0  0  0  0
  158.5690  213.2560  152.1070 O   0  0  0  0  0  0  0  0  0  0  0  0
  159.8520  212.4180  155.9760 C   0  0  0  0  0  2  0  0  0  0  0  0
  161.0880  212.6080  148.7570 C   0  0  0  0  0  0  0  0  0  0  0  0
  160.0910  211.0710  152.3810 N   0  0  0  0  0  2  0  0  0  0  0  0
  159.3350  213.5450  147.3870 C   0  0  0  0  0  0  0  0  0  0  0  0
  160.4610  211.9970  154.6330 C   0  0  0  0  0  2  0  0  0  0  0  0
  161.6340  210.3320  150.7520 C   0  0  0  0  0  0  0  0  0  0  0  0
  157.7040  212.6180  152.9680 N   0  0  0  0  0  0  0  0  0  0  0  0
  160.3500  212.9610  149.9130 C   0  0  0  0  0  3  0  0  0  0  0  0
  157.4840  211.6310  156.1430 C   0  0  0  0  0  2  0  0  0  0  0  0
  156.8410  214.0980  150.5600 C   0  0  0  0  0  3  0  0  0  0  0  0
  158.4960  213.7620  146.2480 N   0  0  0  0  0  0  0  0  0  0  0  0
  159.0910  213.5600  149.7910 C   0  0  0  0  0  0  0  0  0  0  0  0
  157.3950  214.2310  148.2190 C   0  0  0  0  0  0  0  0  0  0  0  0
  157.1950  211.0730  154.7500 C   0  0  0  0  0  2  0  0  0  0  0  0
  158.9230  211.3750  156.5930 C   0  0  0  0  0  2  0  0  0  0  0  0
  162.0700  210.4620  149.5230 C   0  0  0  0  0  3  0  0  0  0  0  0
  156.4340  214.3660  149.2260 C   0  0  0  0  0  3  0  0  0  0  0  0
  158.1720  213.6780  150.8420 C   0  0  0  0  0  0  0  0  0  0  0  0
  161.7180  209.1670  152.8730 C   0  0  0  0  0  2  0  0  0  0  0  0
  160.8880  207.8970  152.7630 C   0  0  0  0  0  2  0  0  0  0  0  0
  161.0570  206.0420  151.3780 C   0  0  1  0  0  3  0  0  0  0  0  0
  161.7420  206.7740  152.4130 N   0  0  0  0  0  0  0  0  0  0  0  0
  162.0520  206.9130  151.0710 O   0  0  0  0  0  0  0  0  0  0  0  0
  161.5910  204.6240  151.3240 C   0  0  0  0  0  2  0  0  0  0  0  0
  161.1560  204.5400  148.8750 O   0  0  0  0  0  0  0  0  0  0  0  0
  161.0700  203.9270  150.1170 C   0  0  0  0  0  0  0  0  0  0  0  0
  160.5830  202.7700  150.2180 O   0  0  0  0  0  1  0  0  0  0  0  0
  1  4  1  0  0  0  0
  1 14  1  1  0  0  0
  2 22  1  0  0  0  0
  3 25  1  0  0  0  0
  4 23  1  0  0  0  0
  5 12  1  0  0  0  0
  5 28  1  0  0  0  0
  6 21  1  0  0  0  0
  7 11  1  0  0  0  0
  8  2  1  0  0  0  0
  9 16  1  0  0  0  0
 10 24  1  0  0  0  0
 11  3  1  0  0  0  0
 11 17  2  0  0  0  0
 12  1  1  0  0  0  0
 13  7  2  0  0  0  0
 13  6  1  0  0  0  0
 14 10  1  0  0  0  0
 15  5  2  0  0  0  0
 16  4  2  0  0  0  0
 18 24  1  0  0  0  0
 19 27  1  0  0  0  0
 20  2  2  0  0  0  0
 20 13  1  0  0  0  0
 21 17  1  0  0  0  0
 21 27  2  0  0  0  0
 22  6  2  0  0  0  0
 22 26  1  0  0  0  0
 23 18  1  0  0  0  0
 25 15  2  0  0  0  0
 26 19  2  0  0  0  0
 27  9  1  0  0  0  0
 29 28  1  0  0  0  0
 30 33  1  1  0  0  0
 30 31  1  0  0  0  0
 31 29  1  0  0  0  0
 32 30  1  0  0  0  0
 32 31  1  0  0  0  0
 34 35  2  0  0  0  0
 35 36  1  0  0  0  0
 35 33  1  0  0  0  0
M  END
>  <MODEL>
1

>  <REMARK>
 VINA RESULT:      -7.2      0.000      0.000
  Name = 
  5 active torsions:
  status: ('A' for Active; 'I' for Inactive)
    1  A    between atoms: C_2  and  N_15
    2  A    between atoms: C_2  and  C_29
    3  A    between atoms: C_7  and  C_29
    4  A    between atoms: C_8  and  C_22
    5  A    between atoms: C_18  and  C_22
                            x       y       z     vdW  Elec       q    Type
                         _______ _______ _______ _____ _____    ______ ____

>  <TORSDO>
F 5

$$$$
=
 OpenBabel11042421063D

 36 41  0  0  1  0  0  0  0  0999 V2000
  160.8650  212.7070  148.8970 C   0  0  1  0  0  3  0  0  0  0  0  0
  161.1380  205.0900  151.0350 C   0  0  0  0  0  0  0  0  0  0  0  0
  161.2210  210.2640  153.9270 C   0  0  0  0  0  2  0  0  0  0  0  0
  160.8380  211.7660  147.7130 C   0  0  0  0  0  0  0  0  0  0  0  0
  160.1510  212.5960  151.3640 C   0  0  0  0  0  0  0  0  0  0  0  0
  161.7160  207.2280  151.0170 C   0  0  0  0  0  0  0  0  0  0  0  0
  161.2230  207.8110  153.2850 C   0  0  0  0  0  3  0  0  0  0  0  0
  160.8030  203.7820  150.5870 N   0  0  0  0  0  1  0  0  0  0  0  0
  162.0390  210.1290  148.8500 O   0  0  0  0  0  0  0  0  0  0  0  0
  162.6730  214.0520  147.6150 C   0  0  0  0  0  2  0  0  0  0  0  0
  161.4750  209.1670  152.9410 C   0  0  0  0  0  0  0  0  0  0  0  0
  160.6400  212.0010  150.1550 N   0  0  0  0  0  2  0  0  0  0  0  0
  161.3910  206.8470  152.2790 C   0  0  0  0  0  0  0  0  0  0  0  0
  162.1650  213.5230  148.9610 C   0  0  0  0  0  2  0  0  0  0  0  0
  160.0880  211.8680  152.4480 C   0  0  0  0  0  0  0  0  0  0  0  0
  161.3810  210.5850  147.7300 N   0  0  0  0  0  0  0  0  0  0  0  0
  161.8320  209.5150  151.6170 C   0  0  0  0  0  3  0  0  0  0  0  0
  161.1980  213.2630  145.7560 C   0  0  0  0  0  2  0  0  0  0  0  0
  161.8340  207.7260  148.3260 C   0  0  0  0  0  3  0  0  0  0  0  0
  161.0210  205.4650  152.2850 N   0  0  0  0  0  0  0  0  0  0  0  0
  161.9180  208.5290  150.6270 C   0  0  0  0  0  0  0  0  0  0  0  0
  161.5620  206.1940  150.1650 C   0  0  0  0  0  0  0  0  0  0  0  0
  160.2480  212.2850  146.4460 C   0  0  0  0  0  2  0  0  0  0  0  0
  161.5650  214.4530  146.6440 C   0  0  0  0  0  2  0  0  0  0  0  0
  160.0500  211.1140  153.5210 C   0  0  0  0  0  3  0  0  0  0  0  0
  161.6080  206.4010  148.7820 C   0  0  0  0  0  3  0  0  0  0  0  0
  161.9740  208.7980  149.2520 C   0  0  0  0  0  0  0  0  0  0  0  0
  159.5860  213.9790  151.3750 C   0  0  0  0  0  2  0  0  0  0  0  0
  158.8410  214.2530  152.6730 C   0  0  0  0  0  2  0  0  0  0  0  0
  157.1570  213.3690  154.0030 C   0  0  1  0  0  3  0  0  0  0  0  0
  157.5300  213.6260  152.6360 N   0  0  0  0  0  0  0  0  0  0  0  0
  156.6740  214.4520  153.3430 O   0  0  0  0  0  0  0  0  0  0  0  0
  156.0970  212.2850  154.0430 C   0  0  0  0  0  2  0  0  0  0  0  0
  157.3420  211.6750  156.1100 O   0  0  0  0  0  1  0  0  0  0  0  0
  156.3210  211.3950  155.2140 C   0  0  0  0  0  0  0  0  0  0  0  0
  155.5630  210.4080  155.4100 O   0  0  0  0  0  0  0  0  0  0  0  0
  1 14  1  1  0  0  0
  1 12  1  0  0  0  0
  2 20  2  0  0  0  0
  4 16  2  0  0  0  0
  4  1  1  0  0  0  0
  5 28  1  0  0  0  0
  5 15  2  0  0  0  0
  6 13  1  0  0  0  0
  8  2  1  0  0  0  0
  9 27  1  0  0  0  0
 10 14  1  0  0  0  0
 11  7  1  0  0  0  0
 11  3  1  0  0  0  0
 12  5  1  0  0  0  0
 13 20  1  0  0  0  0
 13  7  2  0  0  0  0
 15 25  2  0  0  0  0
 16  9  1  0  0  0  0
 17 11  2  0  0  0  0
 18 23  1  0  0  0  0
 18 24  1  0  0  0  0
 19 26  2  0  0  0  0
 19 27  1  0  0  0  0
 21  6  1  0  0  0  0
 21 17  1  0  0  0  0
 22  6  2  0  0  0  0
 22  2  1  0  0  0  0
 23  4  1  0  0  0  0
 24 10  1  0  0  0  0
 25  3  1  0  0  0  0
 26 22  1  0  0  0  0
 27 21  2  0  0  0  0
 28 29  1  0  0  0  0
 30 33  1  6  0  0  0
 31 29  1  0  0  0  0
 31 32  1  0  0  0  0
 31 30  1  0  0  0  0
 32 30  1  0  0  0  0
 33 35  1  0  0  0  0
 35 36  2  0  0  0  0
 35 34  1  0  0  0  0
M  END
>  <MODEL>
2

>  <REMARK>
 VINA RESULT:      -6.9      2.846      8.053
  Name = 
  5 active torsions:
  status: ('A' for Active; 'I' for Inactive)
    1  A    between atoms: C_2  and  N_15
    2  A    between atoms: C_2  and  C_29
    3  A    between atoms: C_7  and  C_29
    4  A    between atoms: C_8  and  C_22
    5  A    between atoms: C_18  and  C_22
                            x       y       z     vdW  Elec       q    Type
                         _______ _______ _______ _____ _____    ______ ____

>  <TORSDO>
F 5

$$$$
=
 OpenBabel11042421063D

 36 41  0  0  1  0  0  0  0  0999 V2000
  161.4300  208.4810  152.7540 C   0  0  1  0  0  3  0  0  0  0  0  0
  161.4090  201.6140  148.8170 C   0  0  0  0  0  0  0  0  0  0  0  0
  161.0960  207.3310  147.2800 C   0  0  0  0  0  2  0  0  0  0  0  0
  161.5070  207.2800  153.6710 C   0  0  0  0  0  0  0  0  0  0  0  0
  162.1140  209.0050  150.3320 C   0  0  0  0  0  0  0  0  0  0  0  0
  160.7530  203.6580  149.3600 C   0  0  0  0  0  0  0  0  0  0  0  0
  161.1940  204.7970  147.3020 C   0  0  0  0  0  3  0  0  0  0  0  0
  161.7980  200.2500  148.9300 N   0  0  0  0  0  1  0  0  0  0  0  0
  160.3520  205.9260  152.1730 O   0  0  0  0  0  0  0  0  0  0  0  0
  159.5910  209.4000  154.3330 C   0  0  0  0  0  2  0  0  0  0  0  0
  160.8970  206.0170  147.9680 C   0  0  0  0  0  0  0  0  0  0  0  0
  161.6640  208.1130  151.3600 N   0  0  0  0  0  2  0  0  0  0  0  0
  161.0750  203.6100  148.0420 C   0  0  0  0  0  0  0  0  0  0  0  0
  160.1000  209.2370  152.8970 C   0  0  0  0  0  2  0  0  0  0  0  0
  162.1890  208.5670  149.1020 C   0  0  0  0  0  0  0  0  0  0  0  0
  161.0090  206.1200  153.3680 N   0  0  0  0  0  0  0  0  0  0  0  0
  160.5450  206.0160  149.3390 C   0  0  0  0  0  3  0  0  0  0  0  0
  161.1190  208.2390  155.9360 C   0  0  0  0  0  2  0  0  0  0  0  0
  160.6530  203.4780  152.0910 C   0  0  0  0  0  3  0  0  0  0  0  0
  161.4950  202.2870  147.6960 N   0  0  0  0  0  0  0  0  0  0  0  0
  160.5080  204.8150  150.0580 C   0  0  0  0  0  0  0  0  0  0  0  0
  160.9560  202.4540  149.9320 C   0  0  0  0  0  0  0  0  0  0  0  0
  162.0950  207.4960  155.0250 C   0  0  0  0  0  2  0  0  0  0  0  0
  160.6970  209.5940  155.3690 C   0  0  0  0  0  2  0  0  0  0  0  0
  162.2410  208.1010  147.8780 C   0  0  0  0  0  3  0  0  0  0  0  0
  160.9210  202.3140  151.3240 C   0  0  0  0  0  3  0  0  0  0  0  0
  160.4610  204.7380  151.4570 C   0  0  0  0  0  0  0  0  0  0  0  0
  162.6280  210.3690  150.6580 C   0  0  0  0  0  2  0  0  0  0  0  0
  161.7160  211.4450  150.0870 C   0  0  0  0  0  2  0  0  0  0  0  0
  161.0810  212.6270  148.1930 C   0  0  1  0  0  3  0  0  0  0  0  0
  162.0810  211.7280  148.7090 N   0  0  0  0  0  0  0  0  0  0  0  0
  162.2810  213.0950  148.6230 O   0  0  0  0  0  0  0  0  0  0  0  0
  161.0760  212.5620  146.6780 C   0  0  0  0  0  2  0  0  0  0  0  0
  159.4430  212.2100  144.8330 O   0  0  0  0  0  0  0  0  0  0  0  0
  159.6790  212.4730  146.1750 C   0  0  0  0  0  0  0  0  0  0  0  0
  158.7130  212.6020  146.9720 O   0  0  0  0  0  1  0  0  0  0  0  0
  1 14  1  6  0  0  0
  1  4  1  0  0  0  0
  2  8  1  0  0  0  0
  2 22  1  0  0  0  0
  3 25  1  0  0  0  0
  3 11  1  0  0  0  0
  4 23  1  0  0  0  0
  5 28  1  0  0  0  0
  5 12  1  0  0  0  0
  6 22  1  0  0  0  0
  6 21  1  0  0  0  0
  7 11  2  0  0  0  0
  7 13  1  0  0  0  0
  9 16  1  0  0  0  0
 10 24  1  0  0  0  0
 11 17  1  0  0  0  0
 12  1  1  0  0  0  0
 13  6  2  0  0  0  0
 14 10  1  0  0  0  0
 15  5  2  0  0  0  0
 16  4  2  0  0  0  0
 17 21  2  0  0  0  0
 20 13  1  0  0  0  0
 20  2  2  0  0  0  0
 21 27  1  0  0  0  0
 22 26  2  0  0  0  0
 23 18  1  0  0  0  0
 24 18  1  0  0  0  0
 25 15  2  0  0  0  0
 26 19  1  0  0  0  0
 27 19  2  0  0  0  0
 27  9  1  0  0  0  0
 29 28  1  0  0  0  0
 30 33  1  6  0  0  0
 30 32  1  0  0  0  0
 30 31  1  0  0  0  0
 31 29  1  0  0  0  0
 32 31  1  0  0  0  0
 34 35  2  0  0  0  0
 35 33  1  0  0  0  0
 35 36  1  0  0  0  0
M  END
>  <MODEL>
3

>  <REMARK>
 VINA RESULT:      -6.9      3.165      8.129
  Name = 
  5 active torsions:
  status: ('A' for Active; 'I' for Inactive)
    1  A    between atoms: C_2  and  N_15
    2  A    between atoms: C_2  and  C_29
    3  A    between atoms: C_7  and  C_29
    4  A    between atoms: C_8  and  C_22
    5  A    between atoms: C_18  and  C_22
                            x       y       z     vdW  Elec       q    Type
                         _______ _______ _______ _____ _____    ______ ____

>  <TORSDO>
F 5

$$$$
=
 OpenBabel11042421063D

 36 41  0  0  1  0  0  0  0  0999 V2000
  160.8280  212.7010  148.9510 C   0  0  1  0  0  3  0  0  0  0  0  0
  161.3230  205.1540  151.2870 C   0  0  0  0  0  0  0  0  0  0  0  0
  160.7510  210.3690  154.0460 C   0  0  0  0  0  2  0  0  0  0  0  0
  160.9960  211.7400  147.7950 C   0  0  0  0  0  0  0  0  0  0  0  0
  159.8420  212.5850  151.3230 C   0  0  0  0  0  0  0  0  0  0  0  0
  161.7670  207.3230  151.2850 C   0  0  0  0  0  0  0  0  0  0  0  0
  160.9790  207.9110  153.4670 C   0  0  0  0  0  3  0  0  0  0  0  0
  161.1240  203.8200  150.8350 N   0  0  0  0  0  1  0  0  0  0  0  0
  162.1570  210.2030  149.1000 O   0  0  0  0  0  0  0  0  0  0  0  0
  162.6850  214.1380  147.8530 C   0  0  0  0  0  2  0  0  0  0  0  0
  161.1850  209.2740  153.1220 C   0  0  0  0  0  0  0  0  0  0  0  0
  160.5030  212.0020  150.1930 N   0  0  0  0  0  2  0  0  0  0  0  0
  161.3220  206.9430  152.5100 C   0  0  0  0  0  0  0  0  0  0  0  0
  162.0580  213.6000  149.1450 C   0  0  0  0  0  2  0  0  0  0  0  0
  159.7000  211.8720  152.4100 C   0  0  0  0  0  0  0  0  0  0  0  0
  161.6050  210.5980  147.9020 N   0  0  0  0  0  0  0  0  0  0  0  0
  161.6700  209.6230  151.8390 C   0  0  0  0  0  3  0  0  0  0  0  0
  161.4860  213.2260  145.8570 C   0  0  0  0  0  2  0  0  0  0  0  0
  162.1630  207.7840  148.6140 C   0  0  0  0  0  3  0  0  0  0  0  0
  161.0410  205.5410  152.5060 N   0  0  0  0  0  0  0  0  0  0  0  0
  161.9310  208.6290  150.8890 C   0  0  0  0  0  0  0  0  0  0  0  0
  161.7760  206.2680  150.4450 C   0  0  0  0  0  0  0  0  0  0  0  0
  160.5260  212.2000  146.4570 C   0  0  0  0  0  2  0  0  0  0  0  0
  161.6730  214.4510  146.7520 C   0  0  0  0  0  2  0  0  0  0  0  0
  159.5840  211.1350  153.4880 C   0  0  0  0  0  3  0  0  0  0  0  0
  161.9690  206.4540  149.0720 C   0  0  0  0  0  3  0  0  0  0  0  0
  162.1290  208.8780  149.5240 C   0  0  0  0  0  0  0  0  0  0  0  0
  159.1950  213.9290  151.2370 C   0  0  0  0  0  2  0  0  0  0  0  0
  157.7050  213.7990  150.9600 C   0  0  0  0  0  2  0  0  0  0  0  0
  157.4770  213.4400  148.6790 C   0  0  1  0  0  3  0  0  0  0  0  0
  157.3730  214.4480  149.7020 N   0  0  0  0  0  0  0  0  0  0  0  0
  156.2690  213.7870  149.1920 O   0  0  0  0  0  0  0  0  0  0  0  0
  157.6640  214.1080  147.3300 C   0  0  0  0  0  2  0  0  0  0  0  0
  155.7840  214.0680  145.7000 O   0  0  0  0  0  0  0  0  0  0  0  0
  156.8500  213.4120  146.2980 C   0  0  0  0  0  0  0  0  0  0  0  0
  157.1490  212.2410  145.9430 O   0  0  0  0  0  1  0  0  0  0  0  0
  1 14  1  1  0  0  0
  1 12  1  0  0  0  0
  2 20  2  0  0  0  0
  4 16  2  0  0  0  0
  4  1  1  0  0  0  0
  5 15  2  0  0  0  0
  6 13  1  0  0  0  0
  8  2  1  0  0  0  0
  9 27  1  0  0  0  0
 10 14  1  0  0  0  0
 11  7  1  0  0  0  0
 11  3  1  0  0  0  0
 12  5  1  0  0  0  0
 13  7  2  0  0  0  0
 15 25  2  0  0  0  0
 16  9  1  0  0  0  0
 17 11  2  0  0  0  0
 18 23  1  0  0  0  0
 18 24  1  0  0  0  0
 19 26  2  0  0  0  0
 19 27  1  0  0  0  0
 20 13  1  0  0  0  0
 21  6  1  0  0  0  0
 21 17  1  0  0  0  0
 22  6  2  0  0  0  0
 22  2  1  0  0  0  0
 23  4  1  0  0  0  0
 24 10  1  0  0  0  0
 25  3  1  0  0  0  0
 26 22  1  0  0  0  0
 27 21  2  0  0  0  0
 28  5  1  0  0  0  0
 29 28  1  0  0  0  0
 30 33  1  6  0  0  0
 30 32  1  0  0  0  0
 30 31  1  0  0  0  0
 31 29  1  0  0  0  0
 32 31  1  0  0  0  0
 34 35  2  0  0  0  0
 35 33  1  0  0  0  0
 36 35  1  0  0  0  0
M  END
>  <MODEL>
4

>  <REMARK>
 VINA RESULT:      -6.9      2.591      8.218
  Name = 
  5 active torsions:
  status: ('A' for Active; 'I' for Inactive)
    1  A    between atoms: C_2  and  N_15
    2  A    between atoms: C_2  and  C_29
    3  A    between atoms: C_7  and  C_29
    4  A    between atoms: C_8  and  C_22
    5  A    between atoms: C_18  and  C_22
                            x       y       z     vdW  Elec       q    Type
                         _______ _______ _______ _____ _____    ______ ____

>  <TORSDO>
F 5

$$$$
=
 OpenBabel11042421063D

 36 41  0  0  1  0  0  0  0  0999 V2000
  161.0400  212.4240  149.0020 C   0  0  1  0  0  3  0  0  0  0  0  0
  160.9690  204.6440  150.4610 C   0  0  0  0  0  0  0  0  0  0  0  0
  161.1920  209.5370  153.8010 C   0  0  0  0  0  2  0  0  0  0  0  0
  161.0020  211.5920  147.7390 C   0  0  0  0  0  0  0  0  0  0  0  0
  160.2690  212.1260  151.4360 C   0  0  0  0  0  0  0  0  0  0  0  0
  161.6310  206.7500  150.6430 C   0  0  0  0  0  0  0  0  0  0  0  0
  161.1120  207.1510  152.9440 C   0  0  0  0  0  3  0  0  0  0  0  0
  160.5930  203.3960  149.8930 N   0  0  0  0  0  1  0  0  0  0  0  0
  162.1130  209.8150  148.7480 O   0  0  0  0  0  0  0  0  0  0  0  0
  162.9260  213.8020  147.8770 C   0  0  0  0  0  2  0  0  0  0  0  0
  161.4230  208.5210  152.7270 C   0  0  0  0  0  0  0  0  0  0  0  0
  160.7600  211.6200  150.1880 N   0  0  0  0  0  2  0  0  0  0  0  0
  161.2640  206.2730  151.8600 C   0  0  0  0  0  0  0  0  0  0  0  0
  162.3680  213.1780  149.1620 C   0  0  0  0  0  2  0  0  0  0  0  0
  160.1540  211.3090  152.4500 C   0  0  0  0  0  0  0  0  0  0  0  0
  161.4970  210.3940  147.6610 N   0  0  0  0  0  0  0  0  0  0  0  0
  161.8220  208.9690  151.4450 C   0  0  0  0  0  3  0  0  0  0  0  0
  161.4610  213.2400  145.9290 C   0  0  0  0  0  2  0  0  0  0  0  0
  161.8260  207.4770  148.0090 C   0  0  0  0  0  3  0  0  0  0  0  0
  160.8410  204.9120  151.7370 N   0  0  0  0  0  0  0  0  0  0  0  0
  161.8910  208.0710  150.3730 C   0  0  0  0  0  0  0  0  0  0  0  0
  161.4550  205.8020  149.7000 C   0  0  0  0  0  0  0  0  0  0  0  0
  160.4600  212.2440  146.5120 C   0  0  0  0  0  2  0  0  0  0  0  0
  161.8550  214.3310  146.9250 C   0  0  0  0  0  2  0  0  0  0  0  0
  160.0630  210.4660  153.4510 C   0  0  0  0  0  3  0  0  0  0  0  0
  161.5390  206.1270  148.3420 C   0  0  0  0  0  3  0  0  0  0  0  0
  161.9880  208.4580  149.0290 C   0  0  0  0  0  0  0  0  0  0  0  0
  159.7580  213.5240  151.5600 C   0  0  0  0  0  2  0  0  0  0  0  0
  158.2510  213.5380  151.7700 C   0  0  0  0  0  2  0  0  0  0  0  0
  156.9570  213.5390  153.6960 C   0  0  1  0  0  3  0  0  0  0  0  0
  157.9210  214.3110  152.9560 N   0  0  0  0  0  0  0  0  0  0  0  0
  158.2690  213.5340  154.0470 O   0  0  0  0  0  0  0  0  0  0  0  0
  156.1870  214.4530  154.6300 C   0  0  0  0  0  2  0  0  0  0  0  0
  155.6190  212.3870  155.8960 O   0  0  0  0  0  0  0  0  0  0  0  0
  155.8890  213.7480  155.9060 C   0  0  0  0  0  0  0  0  0  0  0  0
  155.9180  214.3780  156.9960 O   0  0  0  0  0  1  0  0  0  0  0  0
  1 14  1  1  0  0  0
  1 12  1  0  0  0  0
  2 20  2  0  0  0  0
  4  1  1  0  0  0  0
  5 28  1  0  0  0  0
  5 15  2  0  0  0  0
  6 13  1  0  0  0  0
  8  2  1  0  0  0  0
  9 27  1  0  0  0  0
 10 14  1  0  0  0  0
 11  7  1  0  0  0  0
 11  3  1  0  0  0  0
 12  5  1  0  0  0  0
 13  7  2  0  0  0  0
 15 25  2  0  0  0  0
 16  4  2  0  0  0  0
 16  9  1  0  0  0  0
 17 11  2  0  0  0  0
 18 23  1  0  0  0  0
 18 24  1  0  0  0  0
 19 26  2  0  0  0  0
 19 27  1  0  0  0  0
 20 13  1  0  0  0  0
 21  6  1  0  0  0  0
 21 17  1  0  0  0  0
 22  2  1  0  0  0  0
 22  6  2  0  0  0  0
 23  4  1  0  0  0  0
 24 10  1  0  0  0  0
 25  3  1  0  0  0  0
 26 22  1  0  0  0  0
 27 21  2  0  0  0  0
 28 29  1  0  0  0  0
 29 31  1  0  0  0  0
 30 32  1  0  0  0  0
 30 33  1  1  0  0  0
 31 30  1  0  0  0  0
 31 32  1  0  0  0  0
 33 35  1  0  0  0  0
 34 35  2  0  0  0  0
 35 36  1  0  0  0  0
M  END
>  <MODEL>
5

>  <REMARK>
 VINA RESULT:      -6.3      2.904      8.420
  Name = 
  5 active torsions:
  status: ('A' for Active; 'I' for Inactive)
    1  A    between atoms: C_2  and  N_15
    2  A    between atoms: C_2  and  C_29
    3  A    between atoms: C_7  and  C_29
    4  A    between atoms: C_8  and  C_22
    5  A    between atoms: C_18  and  C_22
                            x       y       z     vdW  Elec       q    Type
                         _______ _______ _______ _____ _____    ______ ____

>  <TORSDO>
F 5

$$$$
=
 OpenBabel11042421063D

 36 41  0  0  1  0  0  0  0  0999 V2000
  161.3110  208.1770  153.4990 C   0  0  1  0  0  3  0  0  0  0  0  0
  161.4590  201.8730  148.7130 C   0  0  0  0  0  0  0  0  0  0  0  0
  161.0720  207.7350  147.9180 C   0  0  0  0  0  2  0  0  0  0  0  0
  161.3960  206.8700  154.2550 C   0  0  0  0  0  0  0  0  0  0  0  0
  162.0200  209.0180  151.1750 C   0  0  0  0  0  0  0  0  0  0  0  0
  160.7610  203.8210  149.5030 C   0  0  0  0  0  0  0  0  0  0  0  0
  161.2110  205.2210  147.6160 C   0  0  0  0  0  3  0  0  0  0  0  0
  161.8690  200.5120  148.6560 N   0  0  0  0  0  1  0  0  0  0  0  0
  160.2840  205.7020  152.5770 O   0  0  0  0  0  0  0  0  0  0  0  0
  159.4350  208.8580  155.1530 C   0  0  0  0  0  2  0  0  0  0  0  0
  160.8850  206.3400  148.4280 C   0  0  0  0  0  0  0  0  0  0  0  0
  161.5700  207.9950  152.0720 N   0  0  0  0  0  2  0  0  0  0  0  0
  161.1020  203.9470  148.1950 C   0  0  0  0  0  0  0  0  0  0  0  0
  159.9670  208.8880  153.7160 C   0  0  0  0  0  2  0  0  0  0  0  0
  162.1190  208.7430  149.9000 C   0  0  0  0  0  0  0  0  0  0  0  0
  160.9210  205.7500  153.7980 N   0  0  0  0  0  0  0  0  0  0  0  0
  160.5140  206.1590  149.7820 C   0  0  0  0  0  3  0  0  0  0  0  0
  160.9610  207.5230  156.6180 C   0  0  0  0  0  2  0  0  0  0  0  0
  160.6270  203.2900  152.1870 C   0  0  0  0  0  3  0  0  0  0  0  0
  161.5490  202.6860  147.6890 N   0  0  0  0  0  0  0  0  0  0  0  0
  160.4880  204.8750  150.3400 C   0  0  0  0  0  0  0  0  0  0  0  0
  160.9770  202.5560  149.9190 C   0  0  0  0  0  0  0  0  0  0  0  0
  161.9610  206.9190  155.6340 C   0  0  0  0  0  2  0  0  0  0  0  0
  160.5240  208.9340  156.2220 C   0  0  0  0  0  2  0  0  0  0  0  0
  162.1950  208.4380  148.6270 C   0  0  0  0  0  3  0  0  0  0  0  0
  160.9250  202.2380  151.2810 C   0  0  0  0  0  3  0  0  0  0  0  0
  160.4220  204.6180  151.7160 C   0  0  0  0  0  0  0  0  0  0  0  0
  162.5060  210.3370  151.6800 C   0  0  0  0  0  2  0  0  0  0  0  0
  161.6700  211.4770  151.1200 C   0  0  0  0  0  2  0  0  0  0  0  0
  160.0640  212.5400  152.4150 C   0  0  1  0  0  3  0  0  0  0  0  0
  160.3020  211.3750  151.6020 N   0  0  0  0  0  0  0  0  0  0  0  0
  159.6300  212.4890  151.1300 O   0  0  0  0  0  0  0  0  0  0  0  0
  158.9020  212.2720  153.3530 C   0  0  0  0  0  2  0  0  0  0  0  0
  160.5680  212.2360  155.2020 O   0  0  0  0  0  0  0  0  0  0  0  0
  159.2970  212.5720  154.7560 C   0  0  0  0  0  0  0  0  0  0  0  0
  158.4930  213.1610  155.5250 O   0  0  0  0  0  1  0  0  0  0  0  0
  1 14  1  6  0  0  0
  1  4  1  0  0  0  0
  2 22  1  0  0  0  0
  3 11  1  0  0  0  0
  3 25  1  0  0  0  0
  4 23  1  0  0  0  0
  5 28  1  0  0  0  0
  5 12  1  0  0  0  0
  6 22  2  0  0  0  0
  6 21  1  0  0  0  0
  7 13  2  0  0  0  0
  7 11  1  0  0  0  0
  8  2  1  0  0  0  0
  9 16  1  0  0  0  0
 10 24  1  0  0  0  0
 11 17  2  0  0  0  0
 12  1  1  0  0  0  0
 13  6  1  0  0  0  0
 14 10  1  0  0  0  0
 15  5  2  0  0  0  0
 16  4  2  0  0  0  0
 17 21  1  0  0  0  0
 20 13  1  0  0  0  0
 20  2  2  0  0  0  0
 21 27  2  0  0  0  0
 22 26  1  0  0  0  0
 23 18  1  0  0  0  0
 24 18  1  0  0  0  0
 25 15  2  0  0  0  0
 26 19  2  0  0  0  0
 27 19  1  0  0  0  0
 27  9  1  0  0  0  0
 29 31  1  0  0  0  0
 29 28  1  0  0  0  0
 30 33  1  1  0  0  0
 31 30  1  0  0  0  0
 32 31  1  0  0  0  0
 32 30  1  0  0  0  0
 33 35  1  0  0  0  0
 35 34  2  0  0  0  0
 35 36  1  0  0  0  0
M  END
>  <MODEL>
6

>  <REMARK>
 VINA RESULT:      -6.0      3.291      8.084
  Name = 
  5 active torsions:
  status: ('A' for Active; 'I' for Inactive)
    1  A    between atoms: C_2  and  N_15
    2  A    between atoms: C_2  and  C_29
    3  A    between atoms: C_7  and  C_29
    4  A    between atoms: C_8  and  C_22
    5  A    between atoms: C_18  and  C_22
                            x       y       z     vdW  Elec       q    Type
                         _______ _______ _______ _____ _____    ______ ____

>  <TORSDO>
F 5

$$$$
=
 OpenBabel11042421063D

 36 41  0  0  1  0  0  0  0  0999 V2000
  161.4620  209.5770  152.2390 C   0  0  1  0  0  3  0  0  0  0  0  0
  161.3210  201.9150  150.2540 C   0  0  0  0  0  0  0  0  0  0  0  0
  160.9110  207.0270  147.2800 C   0  0  0  0  0  2  0  0  0  0  0  0
  161.5850  208.6600  153.4360 C   0  0  0  0  0  0  0  0  0  0  0  0
  162.0440  209.4400  149.7380 C   0  0  0  0  0  0  0  0  0  0  0  0
  160.6750  204.0330  150.2650 C   0  0  0  0  0  0  0  0  0  0  0  0
  161.0240  204.5870  147.9640 C   0  0  0  0  0  3  0  0  0  0  0  0
  161.7220  200.6270  150.7060 N   0  0  0  0  0  1  0  0  0  0  0  0
  160.3770  206.9650  152.3960 O   0  0  0  0  0  0  0  0  0  0  0  0
  159.6850  210.8890  153.5940 C   0  0  0  0  0  2  0  0  0  0  0  0
  160.7480  205.9410  148.2970 C   0  0  0  0  0  0  0  0  0  0  0  0
  161.6410  208.8530  150.9820 N   0  0  0  0  0  2  0  0  0  0  0  0
  160.9430  203.6380  148.9950 C   0  0  0  0  0  0  0  0  0  0  0  0
  160.1360  210.3500  152.2310 C   0  0  0  0  0  2  0  0  0  0  0  0
  162.0710  208.6940  148.6650 C   0  0  0  0  0  0  0  0  0  0  0  0
  161.0810  207.4630  153.4700 N   0  0  0  0  0  0  0  0  0  0  0  0
  160.4520  206.3040  149.6330 C   0  0  0  0  0  3  0  0  0  0  0  0
  161.2850  210.1830  155.3820 C   0  0  0  0  0  2  0  0  0  0  0  0
  160.6890  204.5800  152.9500 C   0  0  0  0  0  3  0  0  0  0  0  0
  161.3560  202.2690  148.9930 N   0  0  0  0  0  0  0  0  0  0  0  0
  160.4530  205.3350  150.6440 C   0  0  0  0  0  0  0  0  0  0  0  0
  160.9090  203.0210  151.1260 C   0  0  0  0  0  0  0  0  0  0  0  0
  162.2260  209.2220  154.6590 C   0  0  0  0  0  2  0  0  0  0  0  0
  160.8310  211.3430  154.4950 C   0  0  0  0  0  2  0  0  0  0  0  0
  162.0750  207.9210  147.6060 C   0  0  0  0  0  3  0  0  0  0  0  0
  160.9320  203.2540  152.5060 C   0  0  0  0  0  3  0  0  0  0  0  0
  160.4630  205.6290  152.0140 C   0  0  0  0  0  0  0  0  0  0  0  0
  162.5620  210.8400  149.6710 C   0  0  0  0  0  2  0  0  0  0  0  0
  161.4990  211.7900  149.1420 C   0  0  0  0  0  2  0  0  0  0  0  0
  162.0110  212.7780  147.1060 C   0  0  1  0  0  3  0  0  0  0  0  0
  162.1270  212.9500  148.5310 N   0  0  0  0  0  0  0  0  0  0  0  0
  161.1500  213.5820  147.7810 O   0  0  0  0  0  0  0  0  0  0  0  0
  163.0560  213.6270  146.4080 C   0  0  0  0  0  2  0  0  0  0  0  0
  161.4000  214.1460  144.6240 O   0  0  0  0  0  1  0  0  0  0  0  0
  162.6970  213.8030  144.9740 C   0  0  0  0  0  0  0  0  0  0  0  0
  163.5780  213.6740  144.0840 O   0  0  0  0  0  0  0  0  0  0  0  0
  1 14  1  6  0  0  0
  1  4  1  0  0  0  0
  2  8  1  0  0  0  0
  2 22  1  0  0  0  0
  3 25  1  0  0  0  0
  3 11  1  0  0  0  0
  4 16  2  0  0  0  0
  4 23  1  0  0  0  0
  5 12  1  0  0  0  0
  6 21  1  0  0  0  0
  6 22  1  0  0  0  0
  7 11  2  0  0  0  0
  7 13  1  0  0  0  0
  9 16  1  0  0  0  0
 10 24  1  0  0  0  0
 11 17  1  0  0  0  0
 12  1  1  0  0  0  0
 13  6  2  0  0  0  0
 14 10  1  0  0  0  0
 15  5  2  0  0  0  0
 17 21  2  0  0  0  0
 20 13  1  0  0  0  0
 20  2  2  0  0  0  0
 21 27  1  0  0  0  0
 22 26  2  0  0  0  0
 23 18  1  0  0  0  0
 24 18  1  0  0  0  0
 25 15  2  0  0  0  0
 26 19  1  0  0  0  0
 27  9  1  0  0  0  0
 27 19  2  0  0  0  0
 28  5  1  0  0  0  0
 29 28  1  0  0  0  0
 30 33  1  6  0  0  0
 30 32  1  0  0  0  0
 30 31  1  0  0  0  0
 31 29  1  0  0  0  0
 32 31  1  0  0  0  0
 34 35  1  0  0  0  0
 35 33  1  0  0  0  0
 36 35  2  0  0  0  0
M  END
>  <MODEL>
7

>  <REMARK>
 VINA RESULT:      -5.8      3.268      8.262
  Name = 
  5 active torsions:
  status: ('A' for Active; 'I' for Inactive)
    1  A    between atoms: C_2  and  N_15
    2  A    between atoms: C_2  and  C_29
    3  A    between atoms: C_7  and  C_29
    4  A    between atoms: C_8  and  C_22
    5  A    between atoms: C_18  and  C_22
                            x       y       z     vdW  Elec       q    Type
                         _______ _______ _______ _____ _____    ______ ____

>  <TORSDO>
F 5

$$$$
=
 OpenBabel11042421063D

 36 41  0  0  1  0  0  0  0  0999 V2000
  161.0330  212.3090  149.2380 C   0  0  1  0  0  3  0  0  0  0  0  0
  161.0440  204.5960  151.0180 C   0  0  0  0  0  0  0  0  0  0  0  0
  161.2710  209.6240  154.1500 C   0  0  0  0  0  2  0  0  0  0  0  0
  160.9850  211.4250  148.0110 C   0  0  0  0  0  0  0  0  0  0  0  0
  160.2960  212.1070  151.6930 C   0  0  0  0  0  0  0  0  0  0  0  0
  161.6910  206.7120  151.1050 C   0  0  0  0  0  0  0  0  0  0  0  0
  161.1990  207.2050  153.3940 C   0  0  0  0  0  3  0  0  0  0  0  0
  160.6710  203.3220  150.5070 N   0  0  0  0  0  1  0  0  0  0  0  0
  162.1230  209.7000  149.0780 O   0  0  0  0  0  0  0  0  0  0  0  0
  162.8920  213.6540  148.0320 C   0  0  0  0  0  2  0  0  0  0  0  0
  161.4970  208.5660  153.1160 C   0  0  0  0  0  0  0  0  0  0  0  0
  160.7750  211.5530  150.4610 N   0  0  0  0  0  2  0  0  0  0  0  0
  161.3440  206.2840  152.3450 C   0  0  0  0  0  0  0  0  0  0  0  0
  162.3570  213.0790  149.3490 C   0  0  0  0  0  2  0  0  0  0  0  0
  160.2020  211.3310  152.7410 C   0  0  0  0  0  0  0  0  0  0  0  0
  161.4890  210.2290  147.9760 N   0  0  0  0  0  0  0  0  0  0  0  0
  161.8750  208.9650  151.8110 C   0  0  0  0  0  3  0  0  0  0  0  0
  161.4070  213.0000  146.1290 C   0  0  0  0  0  2  0  0  0  0  0  0
  161.8450  207.3320  148.4410 C   0  0  0  0  0  3  0  0  0  0  0  0
  160.9310  204.9160  152.2840 N   0  0  0  0  0  0  0  0  0  0  0  0
  161.9380  208.0240  150.7770 C   0  0  0  0  0  0  0  0  0  0  0  0
  161.5110  205.7250  150.2040 C   0  0  0  0  0  0  0  0  0  0  0  0
  160.4210  212.0220  146.7660 C   0  0  0  0  0  2  0  0  0  0  0  0
  161.8050  214.1350  147.0740 C   0  0  0  0  0  2  0  0  0  0  0  0
  160.1310  210.5300  153.7770 C   0  0  0  0  0  3  0  0  0  0  0  0
  161.5740  205.9940  148.8330 C   0  0  0  0  0  3  0  0  0  0  0  0
  162.0130  208.3550  149.4170 C   0  0  0  0  0  0  0  0  0  0  0  0
  159.7750  213.5050  151.7650 C   0  0  0  0  0  2  0  0  0  0  0  0
  158.4930  213.5670  152.5800 C   0  0  0  0  0  2  0  0  0  0  0  0
  156.6210  213.5150  151.2090 C   0  0  1  0  0  3  0  0  0  0  0  0
  157.5140  214.4050  151.9060 N   0  0  0  0  0  0  0  0  0  0  0  0
  156.2740  214.0500  152.4080 O   0  0  0  0  0  0  0  0  0  0  0  0
  155.9220  214.2720  150.0960 C   0  0  0  0  0  2  0  0  0  0  0  0
  155.9950  214.4470  147.6140 O   0  0  0  0  0  0  0  0  0  0  0  0
  156.4410  213.8290  148.7730 C   0  0  0  0  0  0  0  0  0  0  0  0
  157.3090  212.9190  148.7100 O   0  0  0  0  0  1  0  0  0  0  0  0
  1 14  1  1  0  0  0
  1 12  1  0  0  0  0
  2 20  2  0  0  0  0
  4  1  1  0  0  0  0
  5 28  1  0  0  0  0
  5 15  2  0  0  0  0
  6 13  1  0  0  0  0
  8  2  1  0  0  0  0
  9 27  1  0  0  0  0
 10 14  1  0  0  0  0
 11  7  1  0  0  0  0
 11  3  1  0  0  0  0
 12  5  1  0  0  0  0
 13  7  2  0  0  0  0
 15 25  2  0  0  0  0
 16  4  2  0  0  0  0
 16  9  1  0  0  0  0
 17 11  2  0  0  0  0
 18 23  1  0  0  0  0
 18 24  1  0  0  0  0
 19 26  2  0  0  0  0
 19 27  1  0  0  0  0
 20 13  1  0  0  0  0
 21  6  1  0  0  0  0
 21 17  1  0  0  0  0
 22  2  1  0  0  0  0
 22  6  2  0  0  0  0
 23  4  1  0  0  0  0
 24 10  1  0  0  0  0
 25  3  1  0  0  0  0
 26 22  1  0  0  0  0
 27 21  2  0  0  0  0
 28 29  1  0  0  0  0
 30 33  1  6  0  0  0
 30 31  1  0  0  0  0
 30 32  1  0  0  0  0
 31 32  1  0  0  0  0
 31 29  1  0  0  0  0
 34 35  2  0  0  0  0
 35 33  1  0  0  0  0
 36 35  1  0  0  0  0
M  END
>  <MODEL>
8

>  <REMARK>
 VINA RESULT:      -5.8      2.709      8.238
  Name = 
  5 active torsions:
  status: ('A' for Active; 'I' for Inactive)
    1  A    between atoms: C_2  and  N_15
    2  A    between atoms: C_2  and  C_29
    3  A    between atoms: C_7  and  C_29
    4  A    between atoms: C_8  and  C_22
    5  A    between atoms: C_18  and  C_22
                            x       y       z     vdW  Elec       q    Type
                         _______ _______ _______ _____ _____    ______ ____

>  <TORSDO>
F 5

$$$$
=
 OpenBabel11042421063D

 36 41  0  0  1  0  0  0  0  0999 V2000
  161.5430  207.6590  152.1060 C   0  0  1  0  0  3  0  0  0  0  0  0
  161.4060  200.9000  147.9870 C   0  0  0  0  0  0  0  0  0  0  0  0
  161.1080  206.6580  146.6100 C   0  0  0  0  0  2  0  0  0  0  0  0
  161.6270  206.4330  152.9890 C   0  0  0  0  0  0  0  0  0  0  0  0
  162.1900  208.2430  149.6880 C   0  0  0  0  0  0  0  0  0  0  0  0
  160.7730  202.9330  148.5960 C   0  0  0  0  0  0  0  0  0  0  0  0
  161.1870  204.1240  146.5620 C   0  0  0  0  0  3  0  0  0  0  0  0
  161.7870  199.5310  148.0570 N   0  0  0  0  0  1  0  0  0  0  0  0
  160.4380  205.1280  151.4750 O   0  0  0  0  0  0  0  0  0  0  0  0
  159.7380  208.5470  153.7410 C   0  0  0  0  0  2  0  0  0  0  0  0
  160.9110  205.3270  147.2660 C   0  0  0  0  0  0  0  0  0  0  0  0
  161.7500  207.3270  150.6990 N   0  0  0  0  0  2  0  0  0  0  0  0
  161.0720  202.9190  147.2710 C   0  0  0  0  0  0  0  0  0  0  0  0
  160.2220  208.4190  152.2920 C   0  0  0  0  0  2  0  0  0  0  0  0
  162.2410  207.8380  148.4450 C   0  0  0  0  0  0  0  0  0  0  0  0
  161.1150  205.2840  152.6640 N   0  0  0  0  0  0  0  0  0  0  0  0
  160.5820  205.2930  148.6420 C   0  0  0  0  0  3  0  0  0  0  0  0
  161.2850  207.3330  155.2860 C   0  0  0  0  0  2  0  0  0  0  0  0
  160.7190  202.6800  151.3230 C   0  0  0  0  0  3  0  0  0  0  0  0
  161.4770  201.6030  146.8840 N   0  0  0  0  0  0  0  0  0  0  0  0
  160.5490  204.0730  149.3290 C   0  0  0  0  0  0  0  0  0  0  0  0
  160.9780  201.7130  149.1320 C   0  0  0  0  0  0  0  0  0  0  0  0
  162.2400  206.6090  154.3370 C   0  0  0  0  0  2  0  0  0  0  0  0
  160.8630  208.7060  154.7620 C   0  0  0  0  0  2  0  0  0  0  0  0
  162.2680  207.4040  147.2080 C   0  0  0  0  0  3  0  0  0  0  0  0
  160.9660  201.5360  150.5200 C   0  0  0  0  0  3  0  0  0  0  0  0
  160.5250  203.9580  150.7260 C   0  0  0  0  0  0  0  0  0  0  0  0
  162.7190  209.5950  150.0400 C   0  0  0  0  0  2  0  0  0  0  0  0
  161.7060  210.6800  149.7070 C   0  0  0  0  0  2  0  0  0  0  0  0
  161.2900  212.2390  148.0400 C   0  0  1  0  0  3  0  0  0  0  0  0
  162.3270  211.7040  148.8830 N   0  0  0  0  0  0  0  0  0  0  0  0
  161.6750  212.8920  149.1660 O   0  0  0  0  0  0  0  0  0  0  0  0
  161.9160  212.9050  146.8290 C   0  0  0  0  0  2  0  0  0  0  0  0
  161.1520  214.0940  144.7810 O   0  0  0  0  0  0  0  0  0  0  0  0
  160.8830  213.6630  146.0720 C   0  0  0  0  0  0  0  0  0  0  0  0
  159.7560  213.8810  146.5890 O   0  0  0  0  0  1  0  0  0  0  0  0
  1 14  1  6  0  0  0
  1  4  1  0  0  0  0
  2  8  1  0  0  0  0
  2 22  1  0  0  0  0
  3 25  1  0  0  0  0
  3 11  1  0  0  0  0
  4 23  1  0  0  0  0
  5 28  1  0  0  0  0
  5 12  1  0  0  0  0
  6 22  1  0  0  0  0
  6 21  1  0  0  0  0
  7 11  2  0  0  0  0
  7 13  1  0  0  0  0
  9 16  1  0  0  0  0
 10 24  1  0  0  0  0
 11 17  1  0  0  0  0
 12  1  1  0  0  0  0
 13  6  2  0  0  0  0
 14 10  1  0  0  0  0
 15  5  2  0  0  0  0
 16  4  2  0  0  0  0
 17 21  2  0  0  0  0
 20 13  1  0  0  0  0
 20  2  2  0  0  0  0
 21 27  1  0  0  0  0
 22 26  2  0  0  0  0
 23 18  1  0  0  0  0
 24 18  1  0  0  0  0
 25 15  2  0  0  0  0
 26 19  1  0  0  0  0
 27 19  2  0  0  0  0
 27  9  1  0  0  0  0
 29 28  1  0  0  0  0
 30 33  1  6  0  0  0
 30 31  1  0  0  0  0
 30 32  1  0  0  0  0
 31 32  1  0  0  0  0
 31 29  1  0  0  0  0
 34 35  2  0  0  0  0
 35 36  1  0  0  0  0
 35 33  1  0  0  0  0
M  END
>  <MODEL>
9

>  <REMARK>
 VINA RESULT:      -5.4      3.453      8.745
  Name = 
  5 active torsions:
  status: ('A' for Active; 'I' for Inactive)
    1  A    between atoms: C_2  and  N_15
    2  A    between atoms: C_2  and  C_29
    3  A    between atoms: C_7  and  C_29
    4  A    between atoms: C_8  and  C_22
    5  A    between atoms: C_18  and  C_22
                            x       y       z     vdW  Elec       q    Type
                         _______ _______ _______ _____ _____    ______ ____

>  <TORSDO>
F 5

$$$$
