=
 OpenBabel11042421263D

 33 35  0  0  1  0  0  0  0  0999 V2000
  161.9860  208.1750  151.6780 C   0  0  1  0  0  3  0  0  0  0  0  0
  162.0470  209.8720  148.3440 N   0  0  0  0  0  0  0  0  0  0  0  0
  162.0790  210.8130  149.2290 C   0  0  0  0  0  0  0  0  0  0  0  0
  162.0630  210.3490  150.5720 N   0  0  0  0  0  0  0  0  0  0  0  0
  162.0470  209.0650  150.4800 C   0  0  0  0  0  0  0  0  0  0  0  0
  162.0330  208.6060  149.0590 C   0  0  0  0  0  2  0  0  0  0  0  0
  162.9830  212.5240  147.7210 C   0  0  0  0  0  3  0  0  0  0  0  0
  162.8290  213.3940  145.1400 Cl  0  0  0  0  0  0  0  0  0  0  0  0
  162.2280  212.9470  146.7230 C   0  0  0  0  0  0  0  0  0  0  0  0
  162.0440  212.2600  148.8590 C   0  0  1  0  0  3  0  0  0  0  0  0
  160.8630  212.9910  147.0890 N   0  0  0  0  0  0  0  0  0  0  0  0
  160.7460  212.6060  148.2920 N   0  0  0  0  0  0  0  0  0  0  0  0
  160.6010  208.2260  152.3110 C   0  0  0  0  0  2  0  0  0  0  0  0
  161.1220  207.2120  154.5290 C   0  0  0  0  0  1  0  0  0  0  0  0
  160.6930  208.4780  153.8120 C   0  0  1  0  0  3  0  0  0  0  0  0
  161.6070  209.6600  154.1550 C   0  0  0  0  0  2  0  0  0  0  0  0
  162.0650  210.8590  156.3080 C   0  0  0  0  0  1  0  0  0  0  0  0
  161.0350  210.5900  155.2260 C   0  0  1  0  0  3  0  0  0  0  0  0
  160.4150  211.8800  154.6600 C   0  0  0  0  0  2  0  0  0  0  0  0
  158.9190  211.8370  154.3090 C   0  0  2  0  0  3  0  0  0  0  0  0
  158.2100  210.9880  155.1640 O   0  0  0  0  0  0  0  0  0  0  0  0
  156.8640  211.2460  154.8980 C   0  0  0  0  0  1  0  0  0  0  0  0
  158.6920  211.4540  152.8530 C   0  0  0  0  0  2  0  0  0  0  0  0
  159.3400  212.4690  151.9310 C   0  0  0  0  0  1  0  0  0  0  0  0
  162.3290  206.7480  151.2910 C   0  0  0  0  0  2  0  0  0  0  0  0
  161.1050  205.9740  151.1410 N   0  0  0  0  0  2  0  0  0  0  0  0
  161.0460  204.7490  150.4040 C   0  0  0  0  0  0  0  0  0  0  0  0
  161.3640  203.4390  148.2610 C   0  0  0  0  0  2  0  0  0  0  0  0
  160.8870  203.5940  151.0760 C   0  0  0  0  0  0  0  0  0  0  0  0
  160.8600  202.2580  150.3800 C   0  0  0  0  0  2  0  0  0  0  0  0
  160.8050  203.6080  152.4630 O   0  0  0  0  0  1  0  0  0  0  0  0
  160.4980  202.3700  148.9030 C   0  0  0  0  0  2  0  0  0  0  0  0
  161.0440  204.7900  148.8920 C   0  0  0  0  0  2  0  0  0  0  0  0
  1 25  1  6  0  0  0
  1 13  1  0  0  0  0
  2  6  1  0  0  0  0
  2  3  2  0  0  0  0
  3  4  1  0  0  0  0
  5  4  2  0  0  0  0
  5  1  1  0  0  0  0
  6  5  1  0  0  0  0
  7 10  1  0  0  0  0
  8  9  1  0  0  0  0
  9 11  1  0  0  0  0
  9  7  2  0  0  0  0
 10  3  1  6  0  0  0
 11 12  2  0  0  0  0
 12 10  1  0  0  0  0
 13 15  1  0  0  0  0
 15 16  1  0  0  0  0
 15 14  1  1  0  0  0
 16 18  1  0  0  0  0
 18 17  1  1  0  0  0
 19 18  1  0  0  0  0
 20 23  1  6  0  0  0
 20 19  1  0  0  0  0
 20 21  1  0  0  0  0
 22 21  1  0  0  0  0
 24 23  1  0  0  0  0
 26 25  1  0  0  0  0
 27 29  2  0  0  0  0
 27 26  1  0  0  0  0
 28 33  1  0  0  0  0
 28 32  1  0  0  0  0
 29 31  1  0  0  0  0
 30 29  1  0  0  0  0
 32 30  1  0  0  0  0
 33 27  1  0  0  0  0
M  END
>  <MODEL>
1

>  <REMARK>
 VINA RESULT:      -7.4      0.000      0.000
  Name = 
  13 active torsions:
  status: ('A' for Active; 'I' for Inactive)
    1  A    between atoms: C_3  and  N_28
    2  A    between atoms: C_4  and  C_17
    3  A    between atoms: C_4  and  C_27
    4  A    between atoms: C_6  and  C_14
    5  A    between atoms: C_8  and  O_10
    6  A    between atoms: C_8  and  C_20
    7  A    between atoms: C_8  and  C_29
    8  A    between atoms: C_16  and  C_17
    9  A    between atoms: C_16  and  N_28
   10  A    between atoms: C_17  and  C_25
   11  A    between atoms: C_22  and  C_23
   12  A    between atoms: C_22  and  C_29
   13  A    between atoms: C_23  and  C_27
                            x       y       z     vdW  Elec       q    Type
                         _______ _______ _______ _____ _____    ______ ____

>  <TORSDO>
F 13

$$$$
=
 OpenBabel11042421263D

 33 35  0  0  1  0  0  0  0  0999 V2000
  161.6230  207.9940  151.6090 C   0  0  1  0  0  3  0  0  0  0  0  0
  162.0770  209.7740  148.3490 N   0  0  0  0  0  0  0  0  0  0  0  0
  162.0820  210.6870  149.2630 C   0  0  0  0  0  0  0  0  0  0  0  0
  161.9200  210.1880  150.5850 N   0  0  0  0  0  0  0  0  0  0  0  0
  161.8410  208.9100  150.4500 C   0  0  0  0  0  0  0  0  0  0  0  0
  161.9280  208.4920  149.0190 C   0  0  0  0  0  2  0  0  0  0  0  0
  163.0450  212.3580  147.7470 C   0  0  0  0  0  3  0  0  0  0  0  0
  162.8050  213.3300  145.2090 Cl  0  0  0  0  0  0  0  0  0  0  0  0
  162.2700  212.8850  146.8160 C   0  0  0  0  0  0  0  0  0  0  0  0
  162.1630  212.1430  148.9390 C   0  0  1  0  0  3  0  0  0  0  0  0
  160.9420  213.0440  147.2760 N   0  0  0  0  0  0  0  0  0  0  0  0
  160.8680  212.6290  148.4730 N   0  0  0  0  0  0  0  0  0  0  0  0
  162.6010  206.8270  151.5570 C   0  0  0  0  0  2  0  0  0  0  0  0
  161.2220  205.3580  153.0280 C   0  0  0  0  0  1  0  0  0  0  0  0
  161.8700  205.4930  151.6630 C   0  0  1  0  0  3  0  0  0  0  0  0
  160.8550  205.2880  150.5320 C   0  0  0  0  0  2  0  0  0  0  0  0
  160.5500  202.8780  149.9190 C   0  0  0  0  0  1  0  0  0  0  0  0
  161.2400  204.1790  149.5530 C   0  0  1  0  0  3  0  0  0  0  0  0
  161.0440  204.5620  148.0750 C   0  0  0  0  0  2  0  0  0  0  0  0
  162.0010  203.9190  147.0570 C   0  0  2  0  0  3  0  0  0  0  0  0
  162.9230  204.8430  146.5560 O   0  0  0  0  0  0  0  0  0  0  0  0
  162.1710  205.9820  146.2600 C   0  0  0  0  0  1  0  0  0  0  0  0
  161.2450  203.2390  145.9250 C   0  0  0  0  0  2  0  0  0  0  0  0
  160.8140  201.8450  146.3380 C   0  0  0  0  0  1  0  0  0  0  0  0
  161.7850  208.7510  152.9140 C   0  0  0  0  0  2  0  0  0  0  0  0
  160.4800  208.9590  153.5260 N   0  0  0  0  0  2  0  0  0  0  0  0
  160.1880  210.0760  154.3700 C   0  0  0  0  0  0  0  0  0  0  0  0
  159.7090  212.5420  154.6920 C   0  0  0  0  0  2  0  0  0  0  0  0
  159.8230  209.8480  155.6450 C   0  0  0  0  0  0  0  0  0  0  0  0
  159.4560  210.9660  156.5870 C   0  0  0  0  0  2  0  0  0  0  0  0
  159.7160  208.5420  156.1100 O   0  0  0  0  0  1  0  0  0  0  0  0
  160.0310  212.3110  156.1570 C   0  0  0  0  0  2  0  0  0  0  0  0
  160.4100  211.4790  153.8510 C   0  0  0  0  0  2  0  0  0  0  0  0
  1 13  1  1  0  0  0
  1 25  1  0  0  0  0
  2  6  1  0  0  0  0
  2  3  2  0  0  0  0
  3  4  1  0  0  0  0
  5  4  2  0  0  0  0
  5  1  1  0  0  0  0
  6  5  1  0  0  0  0
  7 10  1  0  0  0  0
  8  9  1  0  0  0  0
  9 11  1  0  0  0  0
  9  7  2  0  0  0  0
 10  3  1  6  0  0  0
 11 12  2  0  0  0  0
 12 10  1  0  0  0  0
 13 15  1  0  0  0  0
 15 14  1  1  0  0  0
 16 15  1  0  0  0  0
 18 17  1  1  0  0  0
 18 16  1  0  0  0  0
 19 18  1  0  0  0  0
 20 23  1  6  0  0  0
 20 19  1  0  0  0  0
 21 20  1  0  0  0  0
 22 21  1  0  0  0  0
 23 24  1  0  0  0  0
 25 26  1  0  0  0  0
 26 27  1  0  0  0  0
 27 29  2  0  0  0  0
 28 32  1  0  0  0  0
 29 31  1  0  0  0  0
 29 30  1  0  0  0  0
 32 30  1  0  0  0  0
 33 27  1  0  0  0  0
 33 28  1  0  0  0  0
M  END
>  <MODEL>
2

>  <REMARK>
 VINA RESULT:      -7.2      1.846      7.022
  Name = 
  13 active torsions:
  status: ('A' for Active; 'I' for Inactive)
    1  A    between atoms: C_3  and  N_28
    2  A    between atoms: C_4  and  C_17
    3  A    between atoms: C_4  and  C_27
    4  A    between atoms: C_6  and  C_14
    5  A    between atoms: C_8  and  O_10
    6  A    between atoms: C_8  and  C_20
    7  A    between atoms: C_8  and  C_29
    8  A    between atoms: C_16  and  C_17
    9  A    between atoms: C_16  and  N_28
   10  A    between atoms: C_17  and  C_25
   11  A    between atoms: C_22  and  C_23
   12  A    between atoms: C_22  and  C_29
   13  A    between atoms: C_23  and  C_27
                            x       y       z     vdW  Elec       q    Type
                         _______ _______ _______ _____ _____    ______ ____

>  <TORSDO>
F 13

$$$$
=
 OpenBabel11042421263D

 33 35  0  0  1  0  0  0  0  0999 V2000
  161.0800  206.8120  150.4710 C   0  0  1  0  0  3  0  0  0  0  0  0
  161.5180  203.2360  151.4850 N   0  0  0  0  0  0  0  0  0  0  0  0
  160.8370  203.2200  150.3880 C   0  0  0  0  0  0  0  0  0  0  0  0
  160.5710  204.5080  149.8480 N   0  0  0  0  0  0  0  0  0  0  0  0
  161.1480  205.3300  150.6530 C   0  0  0  0  0  0  0  0  0  0  0  0
  161.8160  204.6270  151.7890 C   0  0  0  0  0  2  0  0  0  0  0  0
  160.0090  202.1510  148.3400 C   0  0  0  0  0  3  0  0  0  0  0  0
  160.8720  201.1450  145.9560 Cl  0  0  0  0  0  0  0  0  0  0  0  0
  160.8070  201.3180  147.6970 C   0  0  0  0  0  0  0  0  0  0  0  0
  160.3030  201.9560  149.7970 C   0  0  1  0  0  3  0  0  0  0  0  0
  161.6140  200.5780  148.5930 N   0  0  0  0  0  0  0  0  0  0  0  0
  161.3390  200.9290  149.7820 N   0  0  0  0  0  0  0  0  0  0  0  0
  162.3710  207.4670  150.9440 C   0  0  0  0  0  2  0  0  0  0  0  0
  162.2750  209.9600  150.9120 C   0  0  0  0  0  1  0  0  0  0  0  0
  162.0820  208.7200  151.7640 C   0  0  1  0  0  3  0  0  0  0  0  0
  160.6930  208.6890  152.4130 C   0  0  0  0  0  2  0  0  0  0  0  0
  161.0480  207.1600  154.3660 C   0  0  0  0  0  1  0  0  0  0  0  0
  160.7280  208.5810  153.9370 C   0  0  1  0  0  3  0  0  0  0  0  0
  161.6360  209.6250  154.6120 C   0  0  0  0  0  2  0  0  0  0  0  0
  161.0860  210.3140  155.8710 C   0  0  2  0  0  3  0  0  0  0  0  0
  161.8340  209.9930  157.0080 O   0  0  0  0  0  0  0  0  0  0  0  0
  162.9770  210.7910  156.9290 C   0  0  0  0  0  1  0  0  0  0  0  0
  159.6120  210.0010  156.0870 C   0  0  0  0  0  2  0  0  0  0  0  0
  158.7490  211.1420  155.5810 C   0  0  0  0  0  1  0  0  0  0  0  0
  160.8280  207.1500  149.0130 C   0  0  0  0  0  2  0  0  0  0  0  0
  161.8880  206.5870  148.1890 N   0  0  0  0  0  2  0  0  0  0  0  0
  161.6410  205.9680  146.9240 C   0  0  0  0  0  0  0  0  0  0  0  0
  160.3680  205.8280  144.7390 C   0  0  0  0  0  2  0  0  0  0  0  0
  162.5360  205.0830  146.4480 C   0  0  0  0  0  0  0  0  0  0  0  0
  162.3740  204.4190  145.1050 C   0  0  0  0  0  2  0  0  0  0  0  0
  163.6860  204.8040  147.1780 O   0  0  0  0  0  1  0  0  0  0  0  0
  160.9290  204.4220  144.6180 C   0  0  0  0  0  2  0  0  0  0  0  0
  160.3330  206.2280  146.2110 C   0  0  0  0  0  2  0  0  0  0  0  0
  1 25  1  6  0  0  0
  1  5  1  0  0  0  0
  1 13  1  0  0  0  0
  2  6  1  0  0  0  0
  3  2  2  0  0  0  0
  4  3  1  0  0  0  0
  4  5  2  0  0  0  0
  5  6  1  0  0  0  0
  7 10  1  0  0  0  0
  8  9  1  0  0  0  0
  9  7  2  0  0  0  0
  9 11  1  0  0  0  0
 10  3  1  6  0  0  0
 11 12  2  0  0  0  0
 12 10  1  0  0  0  0
 13 15  1  0  0  0  0
 15 14  1  6  0  0  0
 15 16  1  0  0  0  0
 16 18  1  0  0  0  0
 18 17  1  6  0  0  0
 18 19  1  0  0  0  0
 20 19  1  6  0  0  0
 20 23  1  0  0  0  0
 20 21  1  0  0  0  0
 22 21  1  0  0  0  0
 24 23  1  0  0  0  0
 26 25  1  0  0  0  0
 27 26  1  0  0  0  0
 28 33  1  0  0  0  0
 29 27  2  0  0  0  0
 29 31  1  0  0  0  0
 30 29  1  0  0  0  0
 32 28  1  0  0  0  0
 32 30  1  0  0  0  0
 33 27  1  0  0  0  0
M  END
>  <MODEL>
3

>  <REMARK>
 VINA RESULT:      -7.1      3.621      6.415
  Name = 
  13 active torsions:
  status: ('A' for Active; 'I' for Inactive)
    1  A    between atoms: C_3  and  N_28
    2  A    between atoms: C_4  and  C_17
    3  A    between atoms: C_4  and  C_27
    4  A    between atoms: C_6  and  C_14
    5  A    between atoms: C_8  and  O_10
    6  A    between atoms: C_8  and  C_20
    7  A    between atoms: C_8  and  C_29
    8  A    between atoms: C_16  and  C_17
    9  A    between atoms: C_16  and  N_28
   10  A    between atoms: C_17  and  C_25
   11  A    between atoms: C_22  and  C_23
   12  A    between atoms: C_22  and  C_29
   13  A    between atoms: C_23  and  C_27
                            x       y       z     vdW  Elec       q    Type
                         _______ _______ _______ _____ _____    ______ ____

>  <TORSDO>
F 13

$$$$
=
 OpenBabel11042421263D

 33 35  0  0  1  0  0  0  0  0999 V2000
  161.9760  207.0110  150.3110 C   0  0  1  0  0  3  0  0  0  0  0  0
  161.7230  210.1780  152.2870 N   0  0  0  0  0  0  0  0  0  0  0  0
  161.1850  209.2550  153.0140 C   0  0  0  0  0  0  0  0  0  0  0  0
  161.1930  207.9650  152.4150 N   0  0  0  0  0  0  0  0  0  0  0  0
  161.7890  208.1270  151.2860 C   0  0  0  0  0  0  0  0  0  0  0  0
  162.1960  209.5470  151.0650 C   0  0  0  0  0  2  0  0  0  0  0  0
  161.5540  209.5040  155.4260 C   0  0  0  0  0  3  0  0  0  0  0  0
  162.6170  211.2210  157.2590 Cl  0  0  0  0  0  0  0  0  0  0  0  0
  161.5840  210.7210  155.9370 C   0  0  0  0  0  0  0  0  0  0  0  0
  160.5360  209.5480  154.3270 C   0  0  1  0  0  3  0  0  0  0  0  0
  160.6760  211.5820  155.2780 N   0  0  0  0  0  0  0  0  0  0  0  0
  160.0780  210.9320  154.3670 N   0  0  0  0  0  0  0  0  0  0  0  0
  160.7580  206.0970  150.3070 C   0  0  0  0  0  2  0  0  0  0  0  0
  161.1780  204.1590  151.8210 C   0  0  0  0  0  1  0  0  0  0  0  0
  161.1720  204.6300  150.3790 C   0  0  1  0  0  3  0  0  0  0  0  0
  160.3040  203.7300  149.4920 C   0  0  0  0  0  2  0  0  0  0  0  0
  159.7940  201.2850  149.6880 C   0  0  0  0  0  1  0  0  0  0  0  0
  160.8520  202.3120  149.3310 C   0  0  1  0  0  3  0  0  0  0  0  0
  161.4980  202.0500  147.9590 C   0  0  0  0  0  2  0  0  0  0  0  0
  160.8490  200.9680  147.0800 C   0  0  2  0  0  3  0  0  0  0  0  0
  161.5120  199.7420  147.1910 O   0  0  0  0  0  0  0  0  0  0  0  0
  161.4930  199.2000  145.9050 C   0  0  0  0  0  1  0  0  0  0  0  0
  160.7570  201.4040  145.6250 C   0  0  0  0  0  2  0  0  0  0  0  0
  159.3150  201.6790  145.2440 C   0  0  0  0  0  1  0  0  0  0  0  0
  162.2160  207.5650  148.9180 C   0  0  0  0  0  2  0  0  0  0  0  0
  162.7500  206.5180  148.0590 N   0  0  0  0  0  2  0  0  0  0  0  0
  162.0770  206.0600  146.8840 C   0  0  0  0  0  0  0  0  0  0  0  0
  160.2160  206.2630  145.1780 C   0  0  0  0  0  2  0  0  0  0  0  0
  162.6880  205.1560  146.0950 C   0  0  0  0  0  0  0  0  0  0  0  0
  162.0660  204.6550  144.8170 C   0  0  0  0  0  2  0  0  0  0  0  0
  163.9600  204.7030  146.4230 O   0  0  0  0  0  1  0  0  0  0  0  0
  160.5520  204.8350  144.7890 C   0  0  0  0  0  2  0  0  0  0  0  0
  160.6560  206.5070  146.6180 C   0  0  0  0  0  2  0  0  0  0  0  0
  1 25  1  6  0  0  0
  1  5  1  0  0  0  0
  2  3  2  0  0  0  0
  4  3  1  0  0  0  0
  5  4  2  0  0  0  0
  6  5  1  0  0  0  0
  6  2  1  0  0  0  0
  7  9  2  0  0  0  0
  9  8  1  0  0  0  0
 10  3  1  6  0  0  0
 10 12  1  0  0  0  0
 10  7  1  0  0  0  0
 11  9  1  0  0  0  0
 12 11  2  0  0  0  0
 13  1  1  0  0  0  0
 13 15  1  0  0  0  0
 15 14  1  1  0  0  0
 16 15  1  0  0  0  0
 18 16  1  0  0  0  0
 18 17  1  6  0  0  0
 19 18  1  0  0  0  0
 20 23  1  6  0  0  0
 20 21  1  0  0  0  0
 20 19  1  0  0  0  0
 22 21  1  0  0  0  0
 24 23  1  0  0  0  0
 26 25  1  0  0  0  0
 27 26  1  0  0  0  0
 28 33  1  0  0  0  0
 29 31  1  0  0  0  0
 29 27  2  0  0  0  0
 30 29  1  0  0  0  0
 32 30  1  0  0  0  0
 32 28  1  0  0  0  0
 33 27  1  0  0  0  0
M  END
>  <MODEL>
4

>  <REMARK>
 VINA RESULT:      -7.1      4.139      8.077
  Name = 
  13 active torsions:
  status: ('A' for Active; 'I' for Inactive)
    1  A    between atoms: C_3  and  N_28
    2  A    between atoms: C_4  and  C_17
    3  A    between atoms: C_4  and  C_27
    4  A    between atoms: C_6  and  C_14
    5  A    between atoms: C_8  and  O_10
    6  A    between atoms: C_8  and  C_20
    7  A    between atoms: C_8  and  C_29
    8  A    between atoms: C_16  and  C_17
    9  A    between atoms: C_16  and  N_28
   10  A    between atoms: C_17  and  C_25
   11  A    between atoms: C_22  and  C_23
   12  A    between atoms: C_22  and  C_29
   13  A    between atoms: C_23  and  C_27
                            x       y       z     vdW  Elec       q    Type
                         _______ _______ _______ _____ _____    ______ ____

>  <TORSDO>
F 13

$$$$
=
 OpenBabel11042421263D

 33 35  0  0  1  0  0  0  0  0999 V2000
  162.1080  207.6420  149.9630 C   0  0  1  0  0  3  0  0  0  0  0  0
  161.9990  211.3810  150.0960 N   0  0  0  0  0  0  0  0  0  0  0  0
  162.0030  211.0630  148.8440 C   0  0  0  0  0  0  0  0  0  0  0  0
  162.0420  209.6640  148.5980 N   0  0  0  0  0  0  0  0  0  0  0  0
  162.0340  209.1210  149.7660 C   0  0  0  0  0  0  0  0  0  0  0  0
  162.0090  210.1410  150.8570 C   0  0  0  0  0  2  0  0  0  0  0  0
  160.7060  212.2270  147.1170 C   0  0  0  0  0  3  0  0  0  0  0  0
  158.8040  214.1580  146.8110 Cl  0  0  0  0  0  0  0  0  0  0  0  0
  160.3220  213.4690  147.3460 C   0  0  0  0  0  0  0  0  0  0  0  0
  162.0520  212.0900  147.7600 C   0  0  1  0  0  3  0  0  0  0  0  0
  161.2920  214.1820  148.0880 N   0  0  0  0  0  0  0  0  0  0  0  0
  162.2740  213.4150  148.3280 N   0  0  0  0  0  0  0  0  0  0  0  0
  160.8060  207.1180  150.5560 C   0  0  0  0  0  2  0  0  0  0  0  0
  161.8200  205.1080  151.6300 C   0  0  0  0  0  1  0  0  0  0  0  0
  161.0560  206.3950  151.8750 C   0  0  1  0  0  3  0  0  0  0  0  0
  161.7590  207.2840  152.9080 C   0  0  0  0  0  2  0  0  0  0  0  0
  160.5280  207.0800  155.0810 C   0  0  0  0  0  1  0  0  0  0  0  0
  160.8020  207.9700  153.8830 C   0  0  1  0  0  3  0  0  0  0  0  0
  161.2400  209.3900  154.2840 C   0  0  0  0  0  2  0  0  0  0  0  0
  160.1240  210.4210  154.5230 C   0  0  2  0  0  3  0  0  0  0  0  0
  160.1730  211.4640  153.5930 O   0  0  0  0  0  0  0  0  0  0  0  0
  159.0320  211.3030  152.8060 C   0  0  0  0  0  1  0  0  0  0  0  0
  160.1510  210.9610  155.9450 C   0  0  0  0  0  2  0  0  0  0  0  0
  161.5800  211.0840  156.4380 C   0  0  0  0  0  1  0  0  0  0  0  0
  162.3940  206.9500  148.6430 C   0  0  0  0  0  2  0  0  0  0  0  0
  161.2380  206.1610  148.2420 N   0  0  0  0  0  2  0  0  0  0  0  0
  161.1630  205.4760  146.9890 C   0  0  0  0  0  0  0  0  0  0  0  0
  160.9900  205.4970  144.4620 C   0  0  0  0  0  2  0  0  0  0  0  0
  161.4450  204.1610  146.9490 C   0  0  0  0  0  0  0  0  0  0  0  0
  161.4330  203.3750  145.6630 C   0  0  0  0  0  2  0  0  0  0  0  0
  161.8220  203.5010  148.1130 O   0  0  0  0  0  1  0  0  0  0  0  0
  160.5910  204.0370  144.5780 C   0  0  0  0  0  2  0  0  0  0  0  0
  160.6570  206.2120  145.7680 C   0  0  0  0  0  2  0  0  0  0  0  0
  1 25  1  6  0  0  0
  1 13  1  0  0  0  0
  2  6  1  0  0  0  0
  3  2  2  0  0  0  0
  4  3  1  0  0  0  0
  4  5  2  0  0  0  0
  5  1  1  0  0  0  0
  5  6  1  0  0  0  0
  7  9  2  0  0  0  0
  7 10  1  0  0  0  0
  8  9  1  0  0  0  0
  9 11  1  0  0  0  0
 10 12  1  0  0  0  0
 10  3  1  1  0  0  0
 11 12  2  0  0  0  0
 13 15  1  0  0  0  0
 15 14  1  6  0  0  0
 15 16  1  0  0  0  0
 16 18  1  0  0  0  0
 18 19  1  0  0  0  0
 18 17  1  1  0  0  0
 20 19  1  6  0  0  0
 20 23  1  0  0  0  0
 21 20  1  0  0  0  0
 22 21  1  0  0  0  0
 23 24  1  0  0  0  0
 26 25  1  0  0  0  0
 27 26  1  0  0  0  0
 28 32  1  0  0  0  0
 28 33  1  0  0  0  0
 29 27  2  0  0  0  0
 29 31  1  0  0  0  0
 30 29  1  0  0  0  0
 32 30  1  0  0  0  0
 33 27  1  0  0  0  0
M  END
>  <MODEL>
5

>  <REMARK>
 VINA RESULT:      -6.9      2.126      3.125
  Name = 
  13 active torsions:
  status: ('A' for Active; 'I' for Inactive)
    1  A    between atoms: C_3  and  N_28
    2  A    between atoms: C_4  and  C_17
    3  A    between atoms: C_4  and  C_27
    4  A    between atoms: C_6  and  C_14
    5  A    between atoms: C_8  and  O_10
    6  A    between atoms: C_8  and  C_20
    7  A    between atoms: C_8  and  C_29
    8  A    between atoms: C_16  and  C_17
    9  A    between atoms: C_16  and  N_28
   10  A    between atoms: C_17  and  C_25
   11  A    between atoms: C_22  and  C_23
   12  A    between atoms: C_22  and  C_29
   13  A    between atoms: C_23  and  C_27
                            x       y       z     vdW  Elec       q    Type
                         _______ _______ _______ _____ _____    ______ ____

>  <TORSDO>
F 13

$$$$
=
 OpenBabel11042421263D

 33 35  0  0  1  0  0  0  0  0999 V2000
  161.3070  207.1220  151.3110 C   0  0  1  0  0  3  0  0  0  0  0  0
  160.8810  207.6050  154.9970 N   0  0  0  0  0  0  0  0  0  0  0  0
  160.8160  208.7820  154.4680 C   0  0  0  0  0  0  0  0  0  0  0  0
  160.9580  208.7940  153.0540 N   0  0  0  0  0  0  0  0  0  0  0  0
  161.0890  207.5560  152.7240 C   0  0  0  0  0  0  0  0  0  0  0  0
  161.0580  206.6530  153.9130 C   0  0  0  0  0  2  0  0  0  0  0  0
  160.4470  211.2070  154.4070 C   0  0  0  0  0  3  0  0  0  0  0  0
  158.4840  213.0600  154.0140 Cl  0  0  0  0  0  0  0  0  0  0  0  0
  159.2590  211.6730  154.7490 C   0  0  0  0  0  0  0  0  0  0  0  0
  160.6910  210.0220  155.2920 C   0  0  1  0  0  3  0  0  0  0  0  0
  158.6810  210.9050  155.7870 N   0  0  0  0  0  0  0  0  0  0  0  0
  159.4800  209.9710  156.1030 N   0  0  0  0  0  0  0  0  0  0  0  0
  162.3430  208.0100  150.6340 C   0  0  0  0  0  2  0  0  0  0  0  0
  161.9580  209.9290  149.0880 C   0  0  0  0  0  1  0  0  0  0  0  0
  161.8860  208.4220  149.2390 C   0  0  1  0  0  3  0  0  0  0  0  0
  162.6630  207.7030  148.1300 C   0  0  0  0  0  2  0  0  0  0  0  0
  160.4480  206.5690  147.8380 C   0  0  0  0  0  1  0  0  0  0  0  0
  161.9380  206.4840  147.5600 C   0  0  1  0  0  3  0  0  0  0  0  0
  162.2530  206.2110  146.0790 C   0  0  0  0  0  2  0  0  0  0  0  0
  161.9690  204.7930  145.5570 C   0  0  2  0  0  3  0  0  0  0  0  0
  163.1170  204.1970  145.0250 O   0  0  0  0  0  0  0  0  0  0  0  0
  164.0700  204.2720  146.0420 C   0  0  0  0  0  1  0  0  0  0  0  0
  160.8340  204.7830  144.5430 C   0  0  0  0  0  2  0  0  0  0  0  0
  160.1050  203.4530  144.5780 C   0  0  0  0  0  1  0  0  0  0  0  0
  161.7570  205.6730  151.2710 C   0  0  0  0  0  2  0  0  0  0  0  0
  160.6520  204.8280  150.8410 N   0  0  0  0  0  2  0  0  0  0  0  0
  160.8450  203.5690  150.1900 C   0  0  0  0  0  0  0  0  0  0  0  0
  161.4200  202.2050  148.1350 C   0  0  0  0  0  2  0  0  0  0  0  0
  160.9300  202.4560  150.9410 C   0  0  0  0  0  0  0  0  0  0  0  0
  161.1770  201.0970  150.3380 C   0  0  0  0  0  2  0  0  0  0  0  0
  160.8510  202.5500  152.3260 O   0  0  0  0  0  1  0  0  0  0  0  0
  160.7940  201.0290  148.8640 C   0  0  0  0  0  2  0  0  0  0  0  0
  160.8300  203.5030  148.6790 C   0  0  0  0  0  2  0  0  0  0  0  0
  1 13  1  1  0  0  0
  1  5  1  0  0  0  0
  3  2  2  0  0  0  0
  4  3  1  0  0  0  0
  5  4  2  0  0  0  0
  5  6  1  0  0  0  0
  6  2  1  0  0  0  0
  7  9  2  0  0  0  0
  7 10  1  0  0  0  0
  8  9  1  0  0  0  0
  9 11  1  0  0  0  0
 10  3  1  6  0  0  0
 10 12  1  0  0  0  0
 11 12  2  0  0  0  0
 15 14  1  6  0  0  0
 15 13  1  0  0  0  0
 16 15  1  0  0  0  0
 18 17  1  6  0  0  0
 18 16  1  0  0  0  0
 19 18  1  0  0  0  0
 20 23  1  6  0  0  0
 20 19  1  0  0  0  0
 21 20  1  0  0  0  0
 21 22  1  0  0  0  0
 23 24  1  0  0  0  0
 25  1  1  0  0  0  0
 26 25  1  0  0  0  0
 27 26  1  0  0  0  0
 27 29  2  0  0  0  0
 28 33  1  0  0  0  0
 28 32  1  0  0  0  0
 29 31  1  0  0  0  0
 30 29  1  0  0  0  0
 32 30  1  0  0  0  0
 33 27  1  0  0  0  0
M  END
>  <MODEL>
6

>  <REMARK>
 VINA RESULT:      -6.7      3.390      7.179
  Name = 
  13 active torsions:
  status: ('A' for Active; 'I' for Inactive)
    1  A    between atoms: C_3  and  N_28
    2  A    between atoms: C_4  and  C_17
    3  A    between atoms: C_4  and  C_27
    4  A    between atoms: C_6  and  C_14
    5  A    between atoms: C_8  and  O_10
    6  A    between atoms: C_8  and  C_20
    7  A    between atoms: C_8  and  C_29
    8  A    between atoms: C_16  and  C_17
    9  A    between atoms: C_16  and  N_28
   10  A    between atoms: C_17  and  C_25
   11  A    between atoms: C_22  and  C_23
   12  A    between atoms: C_22  and  C_29
   13  A    between atoms: C_23  and  C_27
                            x       y       z     vdW  Elec       q    Type
                         _______ _______ _______ _____ _____    ______ ____

>  <TORSDO>
F 13

$$$$
=
 OpenBabel11042421263D

 33 35  0  0  1  0  0  0  0  0999 V2000
  161.4640  207.0590  150.7480 C   0  0  1  0  0  3  0  0  0  0  0  0
  162.0570  209.5730  148.0400 N   0  0  0  0  0  0  0  0  0  0  0  0
  162.1350  210.2180  149.1570 C   0  0  0  0  0  0  0  0  0  0  0  0
  161.9340  209.4130  150.3110 N   0  0  0  0  0  0  0  0  0  0  0  0
  161.7530  208.2220  149.8560 C   0  0  0  0  0  0  0  0  0  0  0  0
  161.8060  208.1770  148.3640 C   0  0  0  0  0  2  0  0  0  0  0  0
  162.9680  212.1820  147.9450 C   0  0  0  0  0  3  0  0  0  0  0  0
  162.3340  213.8430  145.8760 Cl  0  0  0  0  0  0  0  0  0  0  0  0
  162.0910  213.0000  147.3900 C   0  0  0  0  0  0  0  0  0  0  0  0
  162.3310  211.6980  149.2120 C   0  0  1  0  0  3  0  0  0  0  0  0
  160.9180  213.1090  148.1740 N   0  0  0  0  0  0  0  0  0  0  0  0
  161.0410  212.3800  149.2050 N   0  0  0  0  0  0  0  0  0  0  0  0
  160.8400  207.5320  152.0550 C   0  0  0  0  0  2  0  0  0  0  0  0
  162.1200  205.5000  152.7290 C   0  0  0  0  0  1  0  0  0  0  0  0
  161.1210  206.5460  153.1850 C   0  0  1  0  0  3  0  0  0  0  0  0
  161.5780  207.2430  154.4720 C   0  0  0  0  0  2  0  0  0  0  0  0
  159.7020  207.3430  156.1300 C   0  0  0  0  0  1  0  0  0  0  0  0
  160.5040  208.1270  155.1070 C   0  0  1  0  0  3  0  0  0  0  0  0
  161.0450  209.4550  155.6660 C   0  0  0  0  0  2  0  0  0  0  0  0
  160.3740  210.7440  155.1670 C   0  0  2  0  0  3  0  0  0  0  0  0
  159.4620  211.2490  156.1000 O   0  0  0  0  0  0  0  0  0  0  0  0
  158.2030  210.9850  155.5570 C   0  0  0  0  0  1  0  0  0  0  0  0
  159.7090  210.5460  153.8130 C   0  0  0  0  0  2  0  0  0  0  0  0
  160.3520  211.4400  152.7700 C   0  0  0  0  0  1  0  0  0  0  0  0
  160.5340  206.0820  150.0510 C   0  0  0  0  0  2  0  0  0  0  0  0
  161.3010  205.2320  149.1510 N   0  0  0  0  0  2  0  0  0  0  0  0
  161.1000  203.8190  149.0590 C   0  0  0  0  0  0  0  0  0  0  0  0
  160.2710  201.6330  150.0330 C   0  0  0  0  0  2  0  0  0  0  0  0
  161.2560  203.2170  147.8660 C   0  0  0  0  0  0  0  0  0  0  0  0
  161.0200  201.7410  147.6740 C   0  0  0  0  0  2  0  0  0  0  0  0
  161.5860  203.9750  146.7490 O   0  0  0  0  0  1  0  0  0  0  0  0
  161.1230  200.9540  148.9760 C   0  0  0  0  0  2  0  0  0  0  0  0
  160.8360  203.0220  150.3170 C   0  0  0  0  0  2  0  0  0  0  0  0
  1 25  1  6  0  0  0
  1 13  1  0  0  0  0
  2  6  1  0  0  0  0
  2  3  2  0  0  0  0
  3  4  1  0  0  0  0
  5  4  2  0  0  0  0
  5  1  1  0  0  0  0
  6  5  1  0  0  0  0
  7 10  1  0  0  0  0
  8  9  1  0  0  0  0
  9  7  2  0  0  0  0
  9 11  1  0  0  0  0
 10  3  1  6  0  0  0
 11 12  2  0  0  0  0
 12 10  1  0  0  0  0
 13 15  1  0  0  0  0
 15 14  1  6  0  0  0
 15 16  1  0  0  0  0
 16 18  1  0  0  0  0
 18 19  1  0  0  0  0
 18 17  1  1  0  0  0
 20 23  1  6  0  0  0
 20 19  1  0  0  0  0
 20 21  1  0  0  0  0
 22 21  1  0  0  0  0
 24 23  1  0  0  0  0
 26 25  1  0  0  0  0
 27 26  1  0  0  0  0
 27 33  1  0  0  0  0
 28 33  1  0  0  0  0
 29 27  2  0  0  0  0
 30 29  1  0  0  0  0
 30 32  1  0  0  0  0
 31 29  1  0  0  0  0
 32 28  1  0  0  0  0
M  END
>  <MODEL>
7

>  <REMARK>
 VINA RESULT:      -6.6      1.555      2.156
  Name = 
  13 active torsions:
  status: ('A' for Active; 'I' for Inactive)
    1  A    between atoms: C_3  and  N_28
    2  A    between atoms: C_4  and  C_17
    3  A    between atoms: C_4  and  C_27
    4  A    between atoms: C_6  and  C_14
    5  A    between atoms: C_8  and  O_10
    6  A    between atoms: C_8  and  C_20
    7  A    between atoms: C_8  and  C_29
    8  A    between atoms: C_16  and  C_17
    9  A    between atoms: C_16  and  N_28
   10  A    between atoms: C_17  and  C_25
   11  A    between atoms: C_22  and  C_23
   12  A    between atoms: C_22  and  C_29
   13  A    between atoms: C_23  and  C_27
                            x       y       z     vdW  Elec       q    Type
                         _______ _______ _______ _____ _____    ______ ____

>  <TORSDO>
F 13

$$$$
=
 OpenBabel11042421263D

 33 35  0  0  1  0  0  0  0  0999 V2000
  161.5870  208.6640  149.5370 C   0  0  1  0  0  3  0  0  0  0  0  0
  160.8290  205.2130  148.3040 N   0  0  0  0  0  0  0  0  0  0  0  0
  161.7030  205.7040  147.4890 C   0  0  0  0  0  0  0  0  0  0  0  0
  162.1160  207.0270  147.8060 N   0  0  0  0  0  0  0  0  0  0  0  0
  161.4720  207.3270  148.8800 C   0  0  0  0  0  0  0  0  0  0  0  0
  160.5770  206.2170  149.3250 C   0  0  0  0  0  2  0  0  0  0  0  0
  161.7050  203.5430  146.3270 C   0  0  0  0  0  2  0  0  0  0  0  0
  160.0820  201.8920  144.8850 Cl  0  0  0  0  0  0  0  0  0  0  0  0
  160.9020  203.3850  145.2900 C   0  0  0  0  0  0  0  0  0  0  0  0
  162.1640  204.9690  146.2740 C   0  0  1  0  0  3  0  0  0  0  0  0
  160.7810  204.5790  144.5420 N   0  0  0  0  0  0  0  0  0  0  0  0
  161.4890  205.4810  145.0860 N   0  0  0  0  0  2  0  0  0  0  0  0
  162.3190  208.5420  150.8680 C   0  0  0  0  0  2  0  0  0  0  0  0
  161.0300  207.5330  152.7510 C   0  0  0  0  0  1  0  0  0  0  0  0
  161.3810  208.8250  152.0370 C   0  0  1  0  0  3  0  0  0  0  0  0
  161.9470  209.8710  153.0050 C   0  0  0  0  0  2  0  0  0  0  0  0
  159.7210  210.8960  152.4830 C   0  0  0  0  0  1  0  0  0  0  0  0
  160.9550  210.9780  153.3630 C   0  0  1  0  0  3  0  0  0  0  0  0
  160.6130  211.0430  154.8630 C   0  0  0  0  0  2  0  0  0  0  0  0
  159.6910  209.9440  155.4140 C   0  0  2  0  0  3  0  0  0  0  0  0
  158.4340  210.4480  155.7640 O   0  0  0  0  0  0  0  0  0  0  0  0
  158.6600  211.7830  156.1040 C   0  0  0  0  0  1  0  0  0  0  0  0
  160.3260  209.2100  156.5870 C   0  0  0  0  0  2  0  0  0  0  0  0
  160.4130  207.7240  156.2980 C   0  0  0  0  0  1  0  0  0  0  0  0
  162.3190  209.6340  148.6280 C   0  0  0  0  0  2  0  0  0  0  0  0
  161.9000  210.9960  148.9260 N   0  0  0  0  0  2  0  0  0  0  0  0
  161.7370  211.9960  147.9170 C   0  0  0  0  0  0  0  0  0  0  0  0
  160.2630  213.4080  146.4170 C   0  0  0  0  0  2  0  0  0  0  0  0
  162.7920  212.7640  147.5860 C   0  0  0  0  0  0  0  0  0  0  0  0
  162.6930  213.8690  146.5660 C   0  0  0  0  0  2  0  0  0  0  0  0
  164.0050  212.5880  148.2410 O   0  0  0  0  0  1  0  0  0  0  0  0
  161.5190  213.6840  145.6110 C   0  0  0  0  0  2  0  0  0  0  0  0
  160.4280  212.0880  147.1650 C   0  0  0  0  0  2  0  0  0  0  0  0
  1 25  1  6  0  0  0
  1 13  1  0  0  0  0
  2  6  1  0  0  0  0
  3  4  1  0  0  0  0
  3  2  2  0  0  0  0
  4  5  2  0  0  0  0
  5  6  1  0  0  0  0
  5  1  1  0  0  0  0
  8  9  1  0  0  0  0
  9  7  1  0  0  0  0
 10  7  1  0  0  0  0
 10  3  1  1  0  0  0
 11 12  1  0  0  0  0
 11  9  2  0  0  0  0
 12 10  1  0  0  0  0
 13 15  1  0  0  0  0
 15 14  1  1  0  0  0
 15 16  1  0  0  0  0
 16 18  1  0  0  0  0
 18 17  1  6  0  0  0
 18 19  1  0  0  0  0
 20 19  1  1  0  0  0
 20 21  1  0  0  0  0
 20 23  1  0  0  0  0
 21 22  1  0  0  0  0
 24 23  1  0  0  0  0
 25 26  1  0  0  0  0
 27 26  1  0  0  0  0
 28 33  1  0  0  0  0
 29 27  2  0  0  0  0
 29 31  1  0  0  0  0
 30 29  1  0  0  0  0
 32 28  1  0  0  0  0
 32 30  1  0  0  0  0
 33 27  1  0  0  0  0
M  END
>  <MODEL>
8

>  <REMARK>
 VINA RESULT:      -6.6      3.403      6.717
  Name = 
  13 active torsions:
  status: ('A' for Active; 'I' for Inactive)
    1  A    between atoms: C_3  and  N_28
    2  A    between atoms: C_4  and  C_17
    3  A    between atoms: C_4  and  C_27
    4  A    between atoms: C_6  and  C_14
    5  A    between atoms: C_8  and  O_10
    6  A    between atoms: C_8  and  C_20
    7  A    between atoms: C_8  and  C_29
    8  A    between atoms: C_16  and  C_17
    9  A    between atoms: C_16  and  N_28
   10  A    between atoms: C_17  and  C_25
   11  A    between atoms: C_22  and  C_23
   12  A    between atoms: C_22  and  C_29
   13  A    between atoms: C_23  and  C_27
                            x       y       z     vdW  Elec       q    Type
                         _______ _______ _______ _____ _____    ______ ____

>  <TORSDO>
F 13

$$$$
=
 OpenBabel11042421263D

 33 35  0  0  1  0  0  0  0  0999 V2000
  161.4850  208.4710  149.3950 C   0  0  1  0  0  3  0  0  0  0  0  0
  161.1000  204.8780  148.4220 N   0  0  0  0  0  0  0  0  0  0  0  0
  161.7800  205.4380  147.4770 C   0  0  0  0  0  0  0  0  0  0  0  0
  162.0280  206.8230  147.6790 N   0  0  0  0  0  0  0  0  0  0  0  0
  161.4880  207.0940  148.8160 C   0  0  0  0  0  0  0  0  0  0  0  0
  160.8330  205.8970  149.4250 C   0  0  0  0  0  2  0  0  0  0  0  0
  161.6910  203.2900  146.2950 C   0  0  0  0  0  2  0  0  0  0  0  0
  159.9850  201.6970  144.8840 Cl  0  0  0  0  0  0  0  0  0  0  0  0
  160.8560  203.1630  145.2800 C   0  0  0  0  0  0  0  0  0  0  0  0
  162.1870  204.7020  146.2420 C   0  0  1  0  0  3  0  0  0  0  0  0
  160.7470  204.3670  144.5460 N   0  0  0  0  0  0  0  0  0  0  0  0
  161.4930  205.2440  145.0790 N   0  0  0  0  0  2  0  0  0  0  0  0
  162.2100  208.4880  150.7350 C   0  0  0  0  0  2  0  0  0  0  0  0
  161.1660  207.4710  152.7590 C   0  0  0  0  0  1  0  0  0  0  0  0
  161.2320  208.7080  151.8840 C   0  0  1  0  0  3  0  0  0  0  0  0
  161.5600  209.9630  152.7030 C   0  0  0  0  0  2  0  0  0  0  0  0
  161.0950  211.0810  154.8960 C   0  0  0  0  0  1  0  0  0  0  0  0
  160.4860  210.3270  153.7280 C   0  0  1  0  0  3  0  0  0  0  0  0
  159.2690  211.0480  153.1220 C   0  0  0  0  0  2  0  0  0  0  0  0
  159.0540  212.5140  153.5330 C   0  0  2  0  0  3  0  0  0  0  0  0
  157.9280  212.6640  154.3490 O   0  0  0  0  0  0  0  0  0  0  0  0
  158.3590  213.4430  155.4240 C   0  0  0  0  0  1  0  0  0  0  0  0
  158.9720  213.4330  152.3220 C   0  0  0  0  0  2  0  0  0  0  0  0
  159.9040  212.9500  151.2270 C   0  0  0  0  0  1  0  0  0  0  0  0
  162.1440  209.4450  148.4350 C   0  0  0  0  0  2  0  0  0  0  0  0
  161.9540  210.8080  148.9120 N   0  0  0  0  0  2  0  0  0  0  0  0
  161.7240  211.9120  148.0330 C   0  0  0  0  0  0  0  0  0  0  0  0
  160.1620  213.5600  146.9110 C   0  0  0  0  0  2  0  0  0  0  0  0
  162.7760  212.6380  147.6120 C   0  0  0  0  0  0  0  0  0  0  0  0
  162.6160  213.8430  146.7210 C   0  0  0  0  0  2  0  0  0  0  0  0
  164.0550  212.3170  148.0520 O   0  0  0  0  0  1  0  0  0  0  0  0
  161.3020  213.8320  145.9470 C   0  0  0  0  0  2  0  0  0  0  0  0
  160.3290  212.1650  147.5050 C   0  0  0  0  0  2  0  0  0  0  0  0
  1 25  1  6  0  0  0
  1 13  1  0  0  0  0
  2  6  1  0  0  0  0
  3  4  1  0  0  0  0
  3  2  2  0  0  0  0
  4  5  2  0  0  0  0
  5  1  1  0  0  0  0
  5  6  1  0  0  0  0
  8  9  1  0  0  0  0
  9  7  1  0  0  0  0
 10  7  1  0  0  0  0
 10  3  1  1  0  0  0
 11 12  1  0  0  0  0
 11  9  2  0  0  0  0
 12 10  1  0  0  0  0
 13 15  1  0  0  0  0
 15 16  1  0  0  0  0
 15 14  1  1  0  0  0
 16 18  1  0  0  0  0
 18 17  1  1  0  0  0
 19 20  1  0  0  0  0
 19 18  1  0  0  0  0
 20 23  1  6  0  0  0
 20 21  1  0  0  0  0
 21 22  1  0  0  0  0
 24 23  1  0  0  0  0
 25 26  1  0  0  0  0
 27 26  1  0  0  0  0
 28 33  1  0  0  0  0
 29 27  2  0  0  0  0
 29 31  1  0  0  0  0
 30 29  1  0  0  0  0
 32 30  1  0  0  0  0
 32 28  1  0  0  0  0
 33 27  1  0  0  0  0
M  END
>  <MODEL>
9

>  <REMARK>
 VINA RESULT:      -6.5      3.437      6.617
  Name = 
  13 active torsions:
  status: ('A' for Active; 'I' for Inactive)
    1  A    between atoms: C_3  and  N_28
    2  A    between atoms: C_4  and  C_17
    3  A    between atoms: C_4  and  C_27
    4  A    between atoms: C_6  and  C_14
    5  A    between atoms: C_8  and  O_10
    6  A    between atoms: C_8  and  C_20
    7  A    between atoms: C_8  and  C_29
    8  A    between atoms: C_16  and  C_17
    9  A    between atoms: C_16  and  N_28
   10  A    between atoms: C_17  and  C_25
   11  A    between atoms: C_22  and  C_23
   12  A    between atoms: C_22  and  C_29
   13  A    between atoms: C_23  and  C_27
                            x       y       z     vdW  Elec       q    Type
                         _______ _______ _______ _____ _____    ______ ____

>  <TORSDO>
F 13

$$$$
