=
 OpenBabel11052411103D

 44 49  0  0  1  0  0  0  0  0999 V2000
  161.2900  205.6220  149.9660 C   0  0  0  0  0  0  0  0  0  0  0  0
  161.4810  204.4140  147.8690 C   0  0  0  0  0  0  0  0  0  0  0  0
  161.3970  207.9780  154.2660 C   0  0  1  0  0  3  0  0  0  0  0  0
  161.0590  205.5970  151.2850 C   0  0  0  0  0  3  0  0  0  0  0  0
  161.8310  206.7870  147.9460 N   0  0  0  0  0  0  0  0  0  0  0  0
  161.5240  210.4650  154.2700 C   0  0  0  0  0  3  0  0  0  0  0  0
  161.4680  210.5000  155.6060 C   0  0  0  0  0  3  0  0  0  0  0  0
  161.0040  209.2640  153.5150 C   0  0  1  0  0  3  0  0  0  0  0  0
  161.2400  204.4330  149.2440 C   0  0  0  0  0  3  0  0  0  0  0  0
  161.0160  209.3540  156.3430 N   0  0  0  0  0  2  0  0  0  0  0  0
  160.9020  208.0850  155.6900 C   0  0  0  0  0  0  0  0  0  0  0  0
  160.6580  205.6890  154.0680 O   0  0  0  0  0  0  0  0  0  0  0  0
  160.4670  207.0900  156.3270 O   0  0  0  0  0  0  0  0  0  0  0  0
  162.1600  211.6020  149.0540 C   0  0  0  0  0  1  0  0  0  0  0  0
  161.7820  205.6370  147.2200 C   0  0  0  0  0  0  0  0  0  0  0  0
  161.3550  209.2350  152.0280 C   0  0  0  0  0  0  0  0  0  0  0  0
  161.5960  206.8250  149.2860 C   0  0  0  0  0  0  0  0  0  0  0  0
  161.1160  206.8020  152.0630 N   0  0  0  0  0  0  0  0  0  0  0  0
  161.6430  208.0020  149.9380 C   0  0  0  0  0  0  0  0  0  0  0  0
  160.9890  206.7600  153.4890 C   0  0  0  0  0  0  0  0  0  0  0  0
  161.4790  210.4480  151.2350 N   0  0  0  0  0  0  0  0  0  0  0  0
  161.3820  208.0460  151.3890 C   0  0  0  0  0  0  0  0  0  0  0  0
  161.9280  209.2210  149.2450 N   0  0  0  0  0  0  0  0  0  0  0  0
  161.8650  210.3690  149.8440 C   0  0  0  0  0  0  0  0  0  0  0  0
  160.9180  205.6540  145.0240 O   0  0  0  0  0  1  0  0  0  0  0  0
  162.0980  205.7250  145.7660 C   0  0  0  0  0  2  0  0  0  0  0  0
  161.0130  211.7380  151.7400 C   0  0  0  0  0  2  0  0  0  0  0  0
  159.4980  211.7770  151.7530 C   0  0  0  0  0  2  0  0  0  0  0  0
  159.0420  213.1310  152.2550 C   0  0  0  0  0  2  0  0  0  0  0  0
  158.9000  213.0890  153.7650 C   0  0  0  0  0  2  0  0  0  0  0  0
  158.7530  212.4210  156.2940 O   0  0  0  0  0  1  0  0  0  0  0  0
  156.4260  213.2730  156.5560 O   0  0  0  0  0  1  0  0  0  0  0  0
  157.8950  211.6350  155.5870 N   0  0  0  0  0  0  0  0  0  0  0  0
  156.5300  212.1750  155.6910 C   0  0  2  0  0  0  0  0  0  0  0  0
  157.8830  212.0170  154.1610 C   0  0  1  0  0  3  0  0  0  0  0  0
  156.4880  212.6050  154.2390 C   0  0  0  0  0  2  0  0  0  0  0  0
  155.2900  210.1830  155.1990 O   0  0  0  0  0  0  0  0  0  0  0  0
  155.5230  211.1130  156.0180 C   0  0  0  0  0  0  0  0  0  0  0  0
  154.8940  211.1070  157.2580 O   0  0  0  0  0  1  0  0  0  0  0  0
  161.4140  203.1420  147.2050 N   0  0  0  0  0  2  0  0  0  0  0  0
  160.4490  202.0840  147.4630 C   0  0  0  0  0  2  0  0  0  0  0  0
  161.0890  201.0060  148.2690 C   0  0  0  0  0  0  0  0  0  0  0  0
  160.9920  201.0290  149.7550 C   0  0  0  0  0  1  0  0  0  0  0  0
  161.6610  200.0860  147.7120 O   0  0  0  0  0  0  0  0  0  0  0  0
  1  4  2  0  0  0  0
  2  9  2  0  0  0  0
  3 20  1  6  0  0  0
  3 11  1  0  0  0  0
  4 18  1  0  0  0  0
  5 17  1  0  0  0  0
  6  7  2  0  0  0  0
  7 10  1  0  0  0  0
  8  3  1  0  0  0  0
  8  6  1  1  0  0  0
  9  1  1  0  0  0  0
 11 13  2  0  0  0  0
 11 10  1  0  0  0  0
 14 24  1  0  0  0  0
 15  2  1  0  0  0  0
 15  5  2  0  0  0  0
 16  8  1  0  0  0  0
 17 19  2  0  0  0  0
 17  1  1  0  0  0  0
 18 20  1  0  0  0  0
 19 22  1  0  0  0  0
 20 12  2  0  0  0  0
 21 27  1  0  0  0  0
 21 16  1  0  0  0  0
 22 16  2  0  0  0  0
 22 18  1  0  0  0  0
 23 24  2  0  0  0  0
 23 19  1  0  0  0  0
 24 21  1  0  0  0  0
 25 26  1  0  0  0  0
 26 15  1  0  0  0  0
 27 28  1  0  0  0  0
 28 29  1  0  0  0  0
 29 30  1  0  0  0  0
 33 34  1  0  0  0  0
 33 31  1  0  0  0  0
 34 38  1  0  0  0  0
 34 32  1  1  0  0  0
 35 30  1  1  0  0  0
 35 36  1  0  0  0  0
 35 33  1  0  0  0  0
 36 34  1  0  0  0  0
 37 38  2  0  0  0  0
 38 39  1  0  0  0  0
 40 41  1  0  0  0  0
 40  2  1  0  0  0  0
 41 42  1  0  0  0  0
 42 43  1  0  0  0  0
 44 42  2  0  0  0  0
M  END
>  <MODEL>
1

>  <REMARK>
 VINA RESULT:      -8.7      0.000      0.000
  Name = 
  10 active torsions:
  status: ('A' for Active; 'I' for Inactive)
    1  A    between atoms: C_2  and  N_32
    2  A    between atoms: C_5  and  C_11
    3  A    between atoms: C_5  and  N_36
    4  A    between atoms: C_6  and  C_15
    5  A    between atoms: C_6  and  N_32
    6  A    between atoms: C_11  and  C_24
    7  A    between atoms: C_24  and  C_40
    8  A    between atoms: CA_25  and  C_43
    9  A    between atoms: C_26  and  C_37
   10  A    between atoms: C_35  and  C_40
                            x       y       z     vdW  Elec       q    Type
                         _______ _______ _______ _____ _____    ______ ____

>  <TORSDO>
F 10

$$$$
=
 OpenBabel11052411103D

 44 49  0  0  1  0  0  0  0  0999 V2000
  161.2130  205.8050  149.9430 C   0  0  0  0  0  0  0  0  0  0  0  0
  161.4220  204.5540  147.8730 C   0  0  0  0  0  0  0  0  0  0  0  0
  161.2790  208.2330  154.2030 C   0  0  1  0  0  3  0  0  0  0  0  0
  160.9440  205.8110  151.2550 C   0  0  0  0  0  3  0  0  0  0  0  0
  161.8490  206.9150  147.9190 N   0  0  0  0  0  0  0  0  0  0  0  0
  161.4900  210.7140  154.1680 C   0  0  0  0  0  3  0  0  0  0  0  0
  161.3980  210.7750  155.5010 C   0  0  0  0  0  3  0  0  0  0  0  0
  160.9510  209.5180  153.4190 C   0  0  1  0  0  3  0  0  0  0  0  0
  161.1430  204.6050  149.2400 C   0  0  0  0  0  3  0  0  0  0  0  0
  160.8870  209.6580  156.2450 N   0  0  0  0  0  2  0  0  0  0  0  0
  160.7480  208.3820  155.6100 C   0  0  0  0  0  0  0  0  0  0  0  0
  160.4700  205.9670  154.0230 O   0  0  0  0  0  0  0  0  0  0  0  0
  160.2630  207.4140  156.2520 O   0  0  0  0  0  0  0  0  0  0  0  0
  162.3080  211.7350  148.9540 C   0  0  0  0  0  1  0  0  0  0  0  0
  161.7810  205.7540  147.2120 C   0  0  0  0  0  0  0  0  0  0  0  0
  161.3420  209.4510  151.9440 C   0  0  0  0  0  0  0  0  0  0  0  0
  161.5780  206.9850  149.2510 C   0  0  0  0  0  0  0  0  0  0  0  0
  161.0210  207.0270  152.0140 N   0  0  0  0  0  0  0  0  0  0  0  0
  161.6470  208.1710  149.8850 C   0  0  0  0  0  0  0  0  0  0  0  0
  160.8520  207.0160  153.4360 C   0  0  0  0  0  0  0  0  0  0  0  0
  161.5280  210.6450  151.1340 N   0  0  0  0  0  0  0  0  0  0  0  0
  161.3470  208.2500  151.3260 C   0  0  0  0  0  0  0  0  0  0  0  0
  161.9910  209.3670  149.1780 N   0  0  0  0  0  0  0  0  0  0  0  0
  161.9500  210.5270  149.7560 C   0  0  0  0  0  0  0  0  0  0  0  0
  161.1400  205.1910  145.0120 O   0  0  0  0  0  1  0  0  0  0  0  0
  162.1410  205.8060  145.7660 C   0  0  0  0  0  2  0  0  0  0  0  0
  161.0920  211.9580  151.6040 C   0  0  0  0  0  2  0  0  0  0  0  0
  159.6440  212.1940  151.2230 C   0  0  0  0  0  2  0  0  0  0  0  0
  159.4330  213.6710  150.9710 C   0  0  0  0  0  2  0  0  0  0  0  0
  158.5480  213.8560  149.7540 C   0  0  0  0  0  2  0  0  0  0  0  0
  157.0930  212.6700  147.9260 O   0  0  0  0  0  1  0  0  0  0  0  0
  157.5510  214.4050  146.1960 O   0  0  0  0  0  1  0  0  0  0  0  0
  158.3990  212.6070  147.5480 N   0  0  0  0  0  0  0  0  0  0  0  0
  158.6840  213.6720  146.5730 C   0  0  2  0  0  0  0  0  0  0  0  0
  159.2610  213.3240  148.5090 C   0  0  1  0  0  3  0  0  0  0  0  0
  159.5550  214.4510  147.5380 C   0  0  0  0  0  2  0  0  0  0  0  0
  158.8300  212.5620  144.4530 O   0  0  0  0  0  0  0  0  0  0  0  0
  159.4380  213.1630  145.3810 C   0  0  0  0  0  0  0  0  0  0  0  0
  160.8000  213.4140  145.2570 O   0  0  0  0  0  1  0  0  0  0  0  0
  161.3300  203.2730  147.2290 N   0  0  0  0  0  2  0  0  0  0  0  0
  161.1230  201.9900  147.8840 C   0  0  0  0  0  2  0  0  0  0  0  0
  161.0660  200.9070  146.8620 C   0  0  0  0  0  0  0  0  0  0  0  0
  160.4010  201.1520  145.5520 C   0  0  0  0  0  1  0  0  0  0  0  0
  161.5960  199.8330  147.0830 O   0  0  0  0  0  0  0  0  0  0  0  0
  1  4  2  0  0  0  0
  2  9  2  0  0  0  0
  3 20  1  6  0  0  0
  3 11  1  0  0  0  0
  4 18  1  0  0  0  0
  5 17  1  0  0  0  0
  6  7  2  0  0  0  0
  7 10  1  0  0  0  0
  8  6  1  1  0  0  0
  8  3  1  0  0  0  0
  9  1  1  0  0  0  0
 11 10  1  0  0  0  0
 11 13  2  0  0  0  0
 14 24  1  0  0  0  0
 15  2  1  0  0  0  0
 15  5  2  0  0  0  0
 16  8  1  0  0  0  0
 17 19  2  0  0  0  0
 17  1  1  0  0  0  0
 18 20  1  0  0  0  0
 19 22  1  0  0  0  0
 20 12  2  0  0  0  0
 21 27  1  0  0  0  0
 21 16  1  0  0  0  0
 22 16  2  0  0  0  0
 22 18  1  0  0  0  0
 23 24  2  0  0  0  0
 23 19  1  0  0  0  0
 24 21  1  0  0  0  0
 25 26  1  0  0  0  0
 26 15  1  0  0  0  0
 28 27  1  0  0  0  0
 29 28  1  0  0  0  0
 30 29  1  0  0  0  0
 33 31  1  0  0  0  0
 33 35  1  0  0  0  0
 34 32  1  6  0  0  0
 34 36  1  0  0  0  0
 34 33  1  0  0  0  0
 35 30  1  1  0  0  0
 36 35  1  0  0  0  0
 37 38  2  0  0  0  0
 38 34  1  0  0  0  0
 39 38  1  0  0  0  0
 40  2  1  0  0  0  0
 40 41  1  0  0  0  0
 42 44  2  0  0  0  0
 42 41  1  0  0  0  0
 43 42  1  0  0  0  0
M  END
>  <MODEL>
2

>  <REMARK>
 VINA RESULT:      -7.7      2.958      4.584
  Name = 
  10 active torsions:
  status: ('A' for Active; 'I' for Inactive)
    1  A    between atoms: C_2  and  N_32
    2  A    between atoms: C_5  and  C_11
    3  A    between atoms: C_5  and  N_36
    4  A    between atoms: C_6  and  C_15
    5  A    between atoms: C_6  and  N_32
    6  A    between atoms: C_11  and  C_24
    7  A    between atoms: C_24  and  C_40
    8  A    between atoms: CA_25  and  C_43
    9  A    between atoms: C_26  and  C_37
   10  A    between atoms: C_35  and  C_40
                            x       y       z     vdW  Elec       q    Type
                         _______ _______ _______ _____ _____    ______ ____

>  <TORSDO>
F 10

$$$$
=
 OpenBabel11052411103D

 44 49  0  0  1  0  0  0  0  0999 V2000
  161.2250  205.7460  150.3690 C   0  0  0  0  0  0  0  0  0  0  0  0
  161.4480  204.3830  148.3720 C   0  0  0  0  0  0  0  0  0  0  0  0
  161.2680  208.4220  154.4780 C   0  0  1  0  0  3  0  0  0  0  0  0
  160.9740  205.8210  151.6820 C   0  0  0  0  0  3  0  0  0  0  0  0
  161.7950  206.7560  148.2740 N   0  0  0  0  0  0  0  0  0  0  0  0
  161.3930  210.9020  154.2950 C   0  0  0  0  0  3  0  0  0  0  0  0
  161.3180  211.0390  155.6240 C   0  0  0  0  0  3  0  0  0  0  0  0
  160.8850  209.6460  153.6260 C   0  0  1  0  0  3  0  0  0  0  0  0
  161.1860  204.5050  149.7380 C   0  0  0  0  0  3  0  0  0  0  0  0
  160.8560  209.9510  156.4400 N   0  0  0  0  0  2  0  0  0  0  0  0
  160.7510  208.6360  155.8830 C   0  0  0  0  0  0  0  0  0  0  0  0
  160.5330  206.1240  154.4440 O   0  0  0  0  0  0  0  0  0  0  0  0
  160.3080  207.6920  156.5870 O   0  0  0  0  0  0  0  0  0  0  0  0
  162.1050  211.6410  149.0180 C   0  0  0  0  0  1  0  0  0  0  0  0
  161.7570  205.5530  147.6370 C   0  0  0  0  0  0  0  0  0  0  0  0
  161.2580  209.5060  152.1510 C   0  0  0  0  0  0  0  0  0  0  0  0
  161.5400  206.8950  149.6040 C   0  0  0  0  0  0  0  0  0  0  0  0
  161.0200  207.0810  152.3670 N   0  0  0  0  0  0  0  0  0  0  0  0
  161.5770  208.1180  150.1660 C   0  0  0  0  0  0  0  0  0  0  0  0
  160.8720  207.1480  153.7900 C   0  0  0  0  0  0  0  0  0  0  0  0
  161.3930  210.6550  151.2710 N   0  0  0  0  0  0  0  0  0  0  0  0
  161.2950  208.2710  151.6050 C   0  0  0  0  0  0  0  0  0  0  0  0
  161.8710  209.2810  149.3860 N   0  0  0  0  0  0  0  0  0  0  0  0
  161.7990  210.4710  149.8950 C   0  0  0  0  0  0  0  0  0  0  0  0
  163.2310  204.7480  145.9790 O   0  0  0  0  0  1  0  0  0  0  0  0
  162.0950  205.5320  146.1850 C   0  0  0  0  0  2  0  0  0  0  0  0
  160.9180  211.9790  151.6690 C   0  0  0  0  0  2  0  0  0  0  0  0
  159.4380  212.1150  151.3720 C   0  0  0  0  0  2  0  0  0  0  0  0
  159.0030  213.5340  151.6670 C   0  0  0  0  0  2  0  0  0  0  0  0
  157.5790  213.5290  152.1900 C   0  0  0  0  0  2  0  0  0  0  0  0
  155.2710  213.4960  153.4290 O   0  0  0  0  0  1  0  0  0  0  0  0
  155.7550  211.3660  154.6270 O   0  0  0  0  0  1  0  0  0  0  0  0
  156.2530  213.7010  154.3490 N   0  0  0  0  0  0  0  0  0  0  0  0
  156.5830  212.4290  155.0120 C   0  0  2  0  0  0  0  0  0  0  0  0
  157.5860  213.6580  153.7150 C   0  0  1  0  0  3  0  0  0  0  0  0
  157.9470  212.3350  154.3610 C   0  0  0  0  0  2  0  0  0  0  0  0
  155.8910  213.3770  157.1030 O   0  0  0  0  0  0  0  0  0  0  0  0
  156.6510  212.5680  156.5030 C   0  0  0  0  0  0  0  0  0  0  0  0
  157.5020  211.7540  157.2420 O   0  0  0  0  0  1  0  0  0  0  0  0
  161.3900  203.0640  147.8060 N   0  0  0  0  0  2  0  0  0  0  0  0
  160.4460  202.0140  148.1570 C   0  0  0  0  0  2  0  0  0  0  0  0
  161.1730  200.7270  148.3450 C   0  0  0  0  0  0  0  0  0  0  0  0
  161.6700  199.9720  147.1610 C   0  0  0  0  0  1  0  0  0  0  0  0
  161.3930  200.3090  149.4680 O   0  0  0  0  0  0  0  0  0  0  0  0
  1  4  2  0  0  0  0
  2  9  2  0  0  0  0
  3 20  1  6  0  0  0
  3 11  1  0  0  0  0
  4 18  1  0  0  0  0
  5 17  1  0  0  0  0
  6  7  2  0  0  0  0
  7 10  1  0  0  0  0
  8  6  1  1  0  0  0
  8  3  1  0  0  0  0
  9  1  1  0  0  0  0
 11 10  1  0  0  0  0
 11 13  2  0  0  0  0
 14 24  1  0  0  0  0
 15  5  2  0  0  0  0
 15  2  1  0  0  0  0
 16  8  1  0  0  0  0
 17 19  2  0  0  0  0
 17  1  1  0  0  0  0
 18 20  1  0  0  0  0
 19 22  1  0  0  0  0
 20 12  2  0  0  0  0
 21 27  1  0  0  0  0
 21 16  1  0  0  0  0
 22 16  2  0  0  0  0
 22 18  1  0  0  0  0
 23 24  2  0  0  0  0
 23 19  1  0  0  0  0
 24 21  1  0  0  0  0
 25 26  1  0  0  0  0
 26 15  1  0  0  0  0
 28 29  1  0  0  0  0
 28 27  1  0  0  0  0
 29 30  1  0  0  0  0
 31 33  1  0  0  0  0
 33 34  1  0  0  0  0
 34 32  1  6  0  0  0
 34 38  1  0  0  0  0
 35 30  1  6  0  0  0
 35 33  1  0  0  0  0
 35 36  1  0  0  0  0
 36 34  1  0  0  0  0
 38 37  2  0  0  0  0
 38 39  1  0  0  0  0
 40 41  1  0  0  0  0
 40  2  1  0  0  0  0
 41 42  1  0  0  0  0
 42 44  2  0  0  0  0
 43 42  1  0  0  0  0
M  END
>  <MODEL>
3

>  <REMARK>
 VINA RESULT:      -7.7      1.071      1.494
  Name = 
  10 active torsions:
  status: ('A' for Active; 'I' for Inactive)
    1  A    between atoms: C_2  and  N_32
    2  A    between atoms: C_5  and  C_11
    3  A    between atoms: C_5  and  N_36
    4  A    between atoms: C_6  and  C_15
    5  A    between atoms: C_6  and  N_32
    6  A    between atoms: C_11  and  C_24
    7  A    between atoms: C_24  and  C_40
    8  A    between atoms: CA_25  and  C_43
    9  A    between atoms: C_26  and  C_37
   10  A    between atoms: C_35  and  C_40
                            x       y       z     vdW  Elec       q    Type
                         _______ _______ _______ _____ _____    ______ ____

>  <TORSDO>
F 10

$$$$
