=
 OpenBabel11052410563D

 70 76  0  0  1  0  0  0  0  0999 V2000
  158.3990  213.4050  152.5130 C   0  0  2  0  0  3  0  0  0  0  0  0
  156.9150  213.0640  152.1610 C   0  0  1  0  0  3  0  0  0  0  0  0
  155.9580  212.9850  153.3750 C   0  0  1  0  0  3  0  0  0  0  0  0
  155.5170  214.2700  153.7650 O   0  0  0  0  0  0  0  0  0  0  0  0
  154.5720  213.4510  153.1320 C   0  0  0  0  0  2  0  0  0  0  0  0
  156.4130  213.9720  151.1590 O   0  0  0  0  0  0  0  0  0  0  0  0
  155.0780  214.0420  150.7350 C   0  0  0  0  0  3  0  0  0  0  0  0
  154.7670  214.2300  149.4520 C   0  0  0  0  0  3  0  0  0  0  0  0
  155.8050  214.4120  148.3840 C   0  0  0  0  0  2  0  0  0  0  0  0
  155.2710  214.2180  147.0890 O   0  0  0  0  0  0  0  0  0  0  0  0
  156.3100  214.4530  146.1710 C   0  0  0  0  0  2  0  0  0  0  0  0
  157.5050  213.5600  146.4510 C   0  0  0  0  0  2  0  0  0  0  0  0
  159.8660  213.6680  145.5550 N   0  0  0  0  0  2  0  0  0  0  0  0
  157.9950  213.6910  144.1310 O   0  0  0  0  0  0  0  0  0  0  0  0
  158.4560  213.6770  145.3150 C   0  0  0  0  0  0  0  0  0  0  0  0
  160.8350  213.6280  144.4690 C   0  0  0  0  0  2  0  0  0  0  0  0
  160.8440  212.2900  143.8210 C   0  0  0  0  0  0  0  0  0  0  0  0
  161.2920  211.3250  144.4170 O   0  0  0  0  0  0  0  0  0  0  0  0
  160.2860  212.1220  142.4560 C   0  0  0  0  0  2  0  0  0  0  0  0
  160.7560  213.1880  141.5010 C   0  0  0  0  0  0  0  0  0  0  0  0
  159.9360  213.9850  141.0600 O   0  0  0  0  0  0  0  0  0  0  0  0
  162.1960  213.3210  141.0670 C   0  0  0  0  0  2  0  0  0  0  0  0
  162.6570  212.1300  140.5040 O   0  0  0  0  0  0  0  0  0  0  0  0
  161.6370  211.6920  139.6490 C   0  0  2  0  0  3  0  0  0  0  0  0
  161.5460  213.6550  138.0620 C   0  0  0  0  0  2  0  0  0  0  0  0
  160.5720  212.5830  137.6160 C   0  0  0  0  0  2  0  0  0  0  0  0
  160.7940  212.8500  139.1070 C   0  0  0  0  0  3  0  0  0  0  0  0
  160.7350  210.6470  140.3340 C   0  0  0  0  0  2  0  0  0  0  0  0
  159.8060  209.9440  139.3590 C   0  0  0  0  0  2  0  0  0  0  0  0
  160.5130  208.9200  138.7310 O   0  0  0  0  0  0  0  0  0  0  0  0
  163.0790  206.5600  139.8410 C   0  0  0  0  0  2  0  0  0  0  0  0
  161.4660  208.5320  139.6590 C   0  0  2  0  0  3  0  0  0  0  0  0
  162.7390  208.7950  139.1370 O   0  0  0  0  0  0  0  0  0  0  0  0
  163.6120  207.9730  139.8600 C   0  0  0  0  0  2  0  0  0  0  0  0
  161.3050  206.7550  140.0260 S   0  0  0  0  0  0  0  0  0  0  0  0
  158.6520  214.1580  154.1440 S   0  0  0  0  0  0  0  0  0  0  0  0
  158.1180  212.6940  155.0590 C   0  0  1  0  0  3  0  0  0  0  0  0
  156.7370  212.8090  155.7470 C   0  0  2  0  0  3  0  0  0  0  0  0
  156.8860  213.1940  157.0800 O   0  0  0  0  0  1  0  0  0  0  0  0
  156.4560  210.3730  155.6060 O   0  0  0  0  0  1  0  0  0  0  0  0
  155.7830  211.5960  155.6440 C   0  0  1  0  0  3  0  0  0  0  0  0
  154.6940  211.5840  156.7120 C   0  0  0  0  0  1  0  0  0  0  0  0
  158.4720  211.3460  154.4040 C   0  0  0  0  0  2  0  0  0  0  0  0
  159.8980  211.0120  154.5070 N   0  0  0  0  0  0  0  0  0  0  0  0
  160.5690  212.1240  155.1640 C   0  0  0  0  0  2  0  0  0  0  0  0
  160.2150  210.1720  155.6850 C   0  0  1  0  0  3  0  0  0  0  0  0
  160.9030  211.3290  156.3930 C   0  0  1  0  0  3  0  0  0  0  0  0
  159.0410  209.6630  156.5140 C   0  0  0  0  0  1  0  0  0  0  0  0
  164.1940  209.7190  157.1840 C   0  0  0  0  0  3  0  0  0  0  0  0
  165.0910  210.7000  156.7800 C   0  0  0  0  0  3  0  0  0  0  0  0
  163.2390  212.0480  156.1090 N   0  0  0  0  0  0  0  0  0  0  0  0
  162.8590  209.9170  157.0480 N   0  0  0  0  0  0  0  0  0  0  0  0
  164.5820  211.8800  156.2310 C   0  0  0  0  0  3  0  0  0  0  0  0
  162.3780  211.0820  156.5110 C   0  0  0  0  0  0  0  0  0  0  0  0
  159.1090  214.2710  151.4680 C   0  0  0  0  0  2  0  0  0  0  0  0
  159.6290  213.4570  150.4220 O   0  0  0  0  0  0  0  0  0  0  0  0
  160.9980  213.3520  150.1450 C   0  0  0  0  0  0  0  0  0  0  0  0
  161.5790  214.0970  149.2980 O   0  0  0  0  0  0  0  0  0  0  0  0
  161.7980  212.3360  150.9220 C   0  0  0  0  0  2  0  0  0  0  0  0
  161.5460  210.9540  150.4880 N   0  0  0  0  0  0  0  0  0  0  0  0
  160.7820  210.2610  151.5140 C   0  0  0  0  0  2  0  0  0  0  0  0
  161.5130  209.0780  151.9350 N   0  0  0  0  0  2  0  0  0  0  0  0
  161.8270  207.9650  151.0810 C   0  0  0  0  0  0  0  0  0  0  0  0
  162.6820  208.0790  150.0670 C   0  0  0  0  0  2  0  0  0  0  0  0
  161.4350  206.6010  151.5100 C   0  0  0  0  0  1  0  0  0  0  0  0
  160.7590  210.9590  149.2440 C   0  0  0  0  0  2  0  0  0  0  0  0
  162.4930  212.2990  148.2620 C   0  0  2  0  0  3  0  0  0  0  0  0
  163.0200  210.9970  148.3610 O   0  0  0  0  0  0  0  0  0  0  0  0
  161.6630  211.0940  148.0130 C   0  0  1  0  0  0  0  0  0  0  0  0
  161.4130  212.3710  147.2260 C   0  0  0  0  0  2  0  0  0  0  0  0
  1 55  1  6  0  0  0
  1 36  1  0  0  0  0
  2  6  1  6  0  0  0
  2  1  1  0  0  0  0
  3  2  1  6  0  0  0
  3  4  1  0  0  0  0
  5  3  1  0  0  0  0
  5  4  1  0  0  0  0
  7  6  1  0  0  0  0
  8  7  2  0  0  0  0
  9  8  1  0  0  0  0
 10  9  1  0  0  0  0
 11 12  1  0  0  0  0
 11 10  1  0  0  0  0
 14 15  2  0  0  0  0
 15 13  1  0  0  0  0
 15 12  1  0  0  0  0
 16 13  1  0  0  0  0
 17 18  2  0  0  0  0
 17 16  1  0  0  0  0
 19 17  1  0  0  0  0
 20 19  1  0  0  0  0
 21 20  2  0  0  0  0
 22 20  1  0  0  0  0
 23 22  1  0  0  0  0
 24 28  1  1  0  0  0
 24 23  1  0  0  0  0
 25 27  1  0  0  0  0
 26 25  1  0  0  0  0
 26 27  1  0  0  0  0
 27 24  1  0  0  0  0
 29 28  1  0  0  0  0
 30 29  1  0  0  0  0
 31 34  1  0  0  0  0
 31 35  1  0  0  0  0
 32 30  1  6  0  0  0
 32 35  1  0  0  0  0
 33 32  1  0  0  0  0
 33 34  1  0  0  0  0
 36 37  1  0  0  0  0
 37 43  1  6  0  0  0
 37 38  1  0  0  0  0
 38 39  1  1  0  0  0
 40 41  1  0  0  0  0
 41 38  1  0  0  0  0
 41 42  1  1  0  0  0
 43 44  1  0  0  0  0
 44 45  1  0  0  0  0
 44 46  1  0  0  0  0
 45 47  1  0  0  0  0
 46 47  1  0  0  0  0
 46 48  1  1  0  0  0
 47 54  1  6  0  0  0
 50 49  1  0  0  0  0
 51 53  1  0  0  0  0
 51 54  2  0  0  0  0
 52 49  2  0  0  0  0
 53 50  2  0  0  0  0
 54 52  1  0  0  0  0
 56 55  1  0  0  0  0
 57 56  1  0  0  0  0
 57 59  1  0  0  0  0
 58 57  2  0  0  0  0
 60 59  1  0  0  0  0
 60 61  1  0  0  0  0
 61 62  1  0  0  0  0
 63 65  1  0  0  0  0
 63 62  1  0  0  0  0
 64 63  2  0  0  0  0
 66 60  1  0  0  0  0
 67 70  1  6  0  0  0
 67 68  1  0  0  0  0
 69 67  1  0  0  0  0
 69 68  1  0  0  0  0
 69 66  1  1  0  0  0
 70 69  1  0  0  0  0
M  END
>  <MODEL>
1

>  <REMARK>
 VINA RESULT:       4.0      0.000      0.000
  Name = 
  38 active torsions:
  status: ('A' for Active; 'I' for Inactive)
    1  A    between atoms: N_1  and  C_51
    2  A    between atoms: C_2  and  C_12
    3  A    between atoms: C_2  and  C_26
    4  A    between atoms: O_3  and  C_9
    5  A    between atoms: O_3  and  C_57
    6  A    between atoms: C_4  and  C_52
    7  A    between atoms: C_6  and  C_57
    8  A    between atoms: C_6  and  C_70
    9  A    between atoms: C_7  and  C_24
   10  A    between atoms: C_7  and  C_51
   11  A    between atoms: C_7  and  S_66
   12  A    between atoms: C_9  and  C_61
   13  A    between atoms: C_10  and  C_52
   14  A    between atoms: C_10  and  S_66
   15  A    between atoms: C_10  and  C_69
   16  A    between atoms: C_11  and  C_26
   17  A    between atoms: C_11  and  N_59
   18  A    between atoms: C_12  and  C_33
   19  A    between atoms: N_15  and  C_27
   20  A    between atoms: N_15  and  C_42
   21  A    between atoms: C_18  and  O_54
   22  A    between atoms: C_19  and  C_45
   23  A    between atoms: C_19  and  N_58
   24  A    between atoms: C_20  and  C_35
   25  A    between atoms: C_20  and  O_54
   26  A    between atoms: C_24  and  C_46
   27  A    between atoms: O_28  and  C_39
   28  A    between atoms: O_28  and  C_69
   29  A    between atoms: C_31  and  O_53
   30  A    between atoms: C_32  and  C_35
   31  A    between atoms: C_32  and  C_62
   32  A    between atoms: C_32  and  O_63
   33  A    between atoms: C_33  and  O_63
   34  A    between atoms: C_37  and  C_49
   35  A    between atoms: C_39  and  C_60
   36  A    between atoms: C_42  and  N_58
   37  A    between atoms: C_52  and  O_53
   38  A    between atoms: N_58  and  C_60
                            x       y       z     vdW  Elec       q    Type
                         _______ _______ _______ _____ _____    ______ ____

>  <TORSDO>
F 38

$$$$
