=
 OpenBabel11052412093D

 50 55  0  0  1  0  0  0  0  0999 V2000
  161.3120  209.3410  151.5440 C   0  0  0  0  0  0  0  0  0  0  0  0
  162.1890  210.4950  148.1130 O   0  0  0  0  0  1  0  0  0  0  0  0
  160.4900  209.4830  154.2120 C   0  0  0  0  0  3  0  0  0  0  0  0
  162.0600  204.4990  151.9160 C   0  0  0  0  0  1  0  0  0  0  0  0
  160.8730  208.2560  153.6570 C   0  0  0  0  0  0  0  0  0  0  0  0
  161.6580  205.8120  152.5010 C   0  0  0  0  0  0  0  0  0  0  0  0
  161.6570  206.9800  151.7220 C   0  0  1  0  0  3  0  0  0  0  0  0
  161.7900  210.4820  149.4460 C   0  0  0  0  0  0  0  0  0  0  0  0
  161.7300  209.2810  150.1920 C   0  0  0  0  0  0  0  0  0  0  0  0
  162.0800  208.0090  149.6640 C   0  0  0  0  0  0  0  0  0  0  0  0
  161.0240  211.7120  151.3510 N   0  0  0  0  0  0  0  0  0  0  0  0
  161.4470  211.6910  150.0610 C   0  0  0  0  0  0  0  0  0  0  0  0
  160.1190  211.7950  153.9420 N   0  0  0  0  0  2  0  0  0  0  0  0
  161.2730  208.2100  152.2990 C   0  0  0  0  0  0  0  0  0  0  0  0
  162.0280  206.9340  150.4450 O   0  0  0  0  0  0  0  0  0  0  0  0
  160.9440  210.5850  152.1070 C   0  0  0  0  0  0  0  0  0  0  0  0
  160.8770  207.0750  154.4300 C   0  0  0  0  0  0  0  0  0  0  0  0
  160.5050  210.6550  153.4410 C   0  0  0  0  0  0  0  0  0  0  0  0
  161.2780  205.8650  153.8420 C   0  0  0  0  0  3  0  0  0  0  0  0
  160.1330  213.1920  155.8300 O   0  0  0  0  0  0  0  0  0  0  0  0
  156.7240  213.8910  155.7690 C   0  0  0  0  0  1  0  0  0  0  0  0
  159.6250  211.9880  155.3040 C   0  0  1  0  0  3  0  0  0  0  0  0
  159.0150  213.9400  156.2580 C   0  0  0  0  0  2  0  0  0  0  0  0
  158.1210  212.0860  155.3120 C   0  0  0  0  0  2  0  0  0  0  0  0
  157.8260  213.0970  156.2910 N   0  0  0  0  0  0  0  0  0  0  0  0
  159.1730  207.5250  156.0250 O   0  0  0  0  0  1  0  0  0  0  0  0
  160.4960  207.1020  155.8860 C   0  0  2  0  0  3  0  0  0  0  0  0
  161.4130  208.0110  156.6820 C   0  0  0  0  0  1  0  0  0  0  0  0
  162.5160  207.8140  148.2440 C   0  0  0  0  0  2  0  0  0  0  0  0
  162.1420  206.4300  147.7560 C   0  0  0  0  0  2  0  0  0  0  0  0
  160.8580  206.5050  146.9490 C   0  0  0  0  0  2  0  0  0  0  0  0
  161.0400  205.8060  145.6140 C   0  0  0  0  0  2  0  0  0  0  0  0
  161.9780  204.6990  145.7410 N   0  0  0  0  0  2  0  0  0  0  0  0
  160.3280  204.0010  144.4180 O   0  0  0  0  0  1  0  0  0  0  0  0
  161.3750  203.5680  145.1600 N   0  0  0  0  0  0  0  0  0  0  0  0
  160.8450  202.7010  146.2200 C   0  0  1  0  0  3  0  0  0  0  0  0
  160.5840  201.4160  145.7310 O   0  0  0  0  0  1  0  0  0  0  0  0
  161.7010  202.6680  147.4980 C   0  0  0  0  0  2  0  0  0  0  0  0
  160.9340  203.0820  148.7470 C   0  0  0  0  0  2  0  0  0  0  0  0
  160.4620  201.8730  149.4860 C   0  0  0  0  0  0  0  0  0  0  0  0
  159.3340  201.3750  149.2210 O   0  0  0  0  0  0  0  0  0  0  0  0
  161.2560  201.2900  150.4650 O   0  0  0  0  0  1  0  0  0  0  0  0
  161.5470  212.9690  149.3010 C   0  0  0  0  0  2  0  0  0  0  0  0
  160.0190  213.8410  147.5080 C   0  0  0  0  0  0  0  0  0  0  0  0
  160.9700  212.7390  144.2770 C   0  0  0  0  0  1  0  0  0  0  0  0
  161.0480  213.7060  146.5280 N   0  0  0  0  0  0  0  0  0  0  0  0
  162.4070  213.2670  146.0970 C   0  0  0  0  0  2  0  0  0  0  0  0
  161.5850  213.8270  145.1400 C   0  0  1  0  0  3  0  0  0  0  0  0
  158.9150  214.3550  147.1870 O   0  0  0  0  0  0  0  0  0  0  0  0
  160.2300  213.3880  148.8470 N   0  0  0  0  0  2  0  0  0  0  0  0
  1 16  1  0  0  0  0
  1 14  2  0  0  0  0
  2  8  1  0  0  0  0
  4  6  1  0  0  0  0
  5  3  1  0  0  0  0
  5 17  2  0  0  0  0
  6 19  2  0  0  0  0
  7 15  1  1  0  0  0
  7 14  1  0  0  0  0
  7  6  1  0  0  0  0
  8 12  2  0  0  0  0
  8  9  1  0  0  0  0
  9  1  1  0  0  0  0
 10  9  2  0  0  0  0
 10 15  1  0  0  0  0
 11 16  2  0  0  0  0
 12 11  1  0  0  0  0
 14  5  1  0  0  0  0
 16 18  1  0  0  0  0
 17 27  1  0  0  0  0
 18 13  1  0  0  0  0
 18  3  2  0  0  0  0
 19 17  1  0  0  0  0
 20 23  1  0  0  0  0
 21 25  1  0  0  0  0
 22 13  1  6  0  0  0
 22 24  1  0  0  0  0
 22 20  1  0  0  0  0
 23 25  1  0  0  0  0
 24 25  1  0  0  0  0
 27 26  1  0  0  0  0
 27 28  1  1  0  0  0
 29 10  1  0  0  0  0
 30 29  1  0  0  0  0
 31 30  1  0  0  0  0
 32 33  1  0  0  0  0
 32 31  1  0  0  0  0
 34 35  1  0  0  0  0
 35 33  1  0  0  0  0
 35 36  1  0  0  0  0
 36 37  1  6  0  0  0
 36 38  1  0  0  0  0
 38 39  1  0  0  0  0
 39 40  1  0  0  0  0
 40 42  1  0  0  0  0
 41 40  2  0  0  0  0
 43 12  1  0  0  0  0
 44 50  1  0  0  0  0
 46 44  1  0  0  0  0
 47 46  1  0  0  0  0
 48 45  1  6  0  0  0
 48 47  1  0  0  0  0
 48 46  1  0  0  0  0
 49 44  2  0  0  0  0
 50 43  1  0  0  0  0
M  END
>  <MODEL>
1

>  <REMARK>
 VINA RESULT:      -8.5      0.000      0.000
  Name = 
  14 active torsions:
  status: ('A' for Active; 'I' for Inactive)
    1  A    between atoms: C_16  and  C_17
    2  A    between atoms: C_16  and  C_24
    3  A    between atoms: C_17  and  C_49
    4  A    between atoms: C_18  and  C_31
    5  A    between atoms: C_18  and  C_34
    6  A    between atoms: N_19  and  C_23
    7  A    between atoms: N_19  and  N_37
    8  A    between atoms: C_23  and  C_49
    9  A    between atoms: C_25  and  C_46
   10  A    between atoms: C_26  and  C_29
   11  A    between atoms: C_26  and  N_47
   12  A    between atoms: C_28  and  C_34
   13  A    between atoms: C_28  and  N_37
   14  A    between atoms: N_30  and  C_32
                            x       y       z     vdW  Elec       q    Type
                         _______ _______ _______ _____ _____    ______ ____

>  <TORSDO>
F 14

$$$$
=
 OpenBabel11052412093D

 50 55  0  0  1  0  0  0  0  0999 V2000
  160.9790  210.2610  151.9070 C   0  0  0  0  0  0  0  0  0  0  0  0
  161.7170  211.4320  148.4490 O   0  0  0  0  0  1  0  0  0  0  0  0
  160.1500  210.3660  154.5740 C   0  0  0  0  0  3  0  0  0  0  0  0
  162.2640  205.5420  152.3770 C   0  0  0  0  0  1  0  0  0  0  0  0
  160.6670  209.1790  154.0430 C   0  0  0  0  0  0  0  0  0  0  0  0
  161.7190  206.8140  152.9350 C   0  0  0  0  0  0  0  0  0  0  0  0
  161.5860  207.9580  152.1320 C   0  0  1  0  0  3  0  0  0  0  0  0
  161.3230  211.4030  149.7830 C   0  0  0  0  0  0  0  0  0  0  0  0
  161.4000  210.2190  150.5540 C   0  0  0  0  0  0  0  0  0  0  0  0
  161.8890  208.9840  150.0510 C   0  0  0  0  0  0  0  0  0  0  0  0
  160.4280  212.5810  151.6650 N   0  0  0  0  0  0  0  0  0  0  0  0
  160.8490  212.5790  150.3740 C   0  0  0  0  0  0  0  0  0  0  0  0
  159.5220  212.6160  154.2570 N   0  0  0  0  0  2  0  0  0  0  0  0
  161.0680  209.1490  152.6850 C   0  0  0  0  0  0  0  0  0  0  0  0
  161.9580  207.9270  150.8560 O   0  0  0  0  0  0  0  0  0  0  0  0
  160.4750  211.4670  152.4450 C   0  0  0  0  0  0  0  0  0  0  0  0
  160.8040  208.0220  154.8400 C   0  0  0  0  0  0  0  0  0  0  0  0
  160.0330  211.5170  153.7790 C   0  0  0  0  0  0  0  0  0  0  0  0
  161.3370  206.8530  154.2760 C   0  0  0  0  0  3  0  0  0  0  0  0
  158.8320  214.1510  155.8950 O   0  0  0  0  0  0  0  0  0  0  0  0
  155.5500  213.0110  156.0770 C   0  0  0  0  0  1  0  0  0  0  0  0
  159.0120  212.7820  155.6160 C   0  0  1  0  0  3  0  0  0  0  0  0
  157.4930  214.2970  156.3160 C   0  0  0  0  0  2  0  0  0  0  0  0
  157.6710  212.1080  155.7630 C   0  0  0  0  0  2  0  0  0  0  0  0
  156.9070  212.9930  156.6000 N   0  0  0  0  0  0  0  0  0  0  0  0
  161.5740  208.0320  157.0890 O   0  0  0  0  0  1  0  0  0  0  0  0
  160.4240  208.0380  156.2970 C   0  0  2  0  0  3  0  0  0  0  0  0
  159.5470  206.8540  156.6540 C   0  0  0  0  0  1  0  0  0  0  0  0
  162.3420  208.8090  148.6350 C   0  0  0  0  0  2  0  0  0  0  0  0
  162.3340  207.3440  148.2480 C   0  0  0  0  0  2  0  0  0  0  0  0
  160.9260  206.9280  147.8620 C   0  0  0  0  0  2  0  0  0  0  0  0
  160.4300  205.8380  148.7960 C   0  0  0  0  0  2  0  0  0  0  0  0
  161.4350  204.7940  148.9420 N   0  0  0  0  0  2  0  0  0  0  0  0
  161.0010  202.8760  149.9850 O   0  0  0  0  0  1  0  0  0  0  0  0
  160.7740  203.5570  148.8360 N   0  0  0  0  0  0  0  0  0  0  0  0
  161.3610  202.7840  147.7340 C   0  0  1  0  0  3  0  0  0  0  0  0
  160.4580  201.8290  147.2570 O   0  0  0  0  0  1  0  0  0  0  0  0
  161.9440  203.6430  146.5990 C   0  0  0  0  0  2  0  0  0  0  0  0
  161.1470  203.5500  145.3030 C   0  0  0  0  0  2  0  0  0  0  0  0
  160.9260  204.9140  144.7360 C   0  0  0  0  0  0  0  0  0  0  0  0
  161.8000  205.4330  143.9900 O   0  0  0  0  0  0  0  0  0  0  0  0
  159.7650  205.6180  145.0260 O   0  0  0  0  0  1  0  0  0  0  0  0
  160.8040  213.8440  149.5870 C   0  0  0  0  0  2  0  0  0  0  0  0
  159.7590  214.1560  147.3240 C   0  0  0  0  0  0  0  0  0  0  0  0
  161.9290  213.1920  144.6950 C   0  0  0  0  0  1  0  0  0  0  0  0
  161.0450  214.2620  146.7150 N   0  0  0  0  0  0  0  0  0  0  0  0
  162.5350  214.1970  146.7630 C   0  0  0  0  0  2  0  0  0  0  0  0
  161.9470  214.4530  145.5400 C   0  0  1  0  0  3  0  0  0  0  0  0
  158.7230  214.3240  146.6270 O   0  0  0  0  0  0  0  0  0  0  0  0
  159.6390  213.8530  148.7160 N   0  0  0  0  0  2  0  0  0  0  0  0
  1 16  1  0  0  0  0
  1 14  2  0  0  0  0
  2  8  1  0  0  0  0
  4  6  1  0  0  0  0
  5  3  1  0  0  0  0
  5 17  2  0  0  0  0
  6 19  2  0  0  0  0
  7 15  1  1  0  0  0
  7 14  1  0  0  0  0
  7  6  1  0  0  0  0
  8 12  2  0  0  0  0
  8  9  1  0  0  0  0
  9  1  1  0  0  0  0
 10  9  2  0  0  0  0
 10 15  1  0  0  0  0
 11 16  2  0  0  0  0
 12 11  1  0  0  0  0
 14  5  1  0  0  0  0
 16 18  1  0  0  0  0
 17 27  1  0  0  0  0
 18 13  1  0  0  0  0
 18  3  2  0  0  0  0
 19 17  1  0  0  0  0
 20 23  1  0  0  0  0
 21 25  1  0  0  0  0
 22 13  1  6  0  0  0
 22 24  1  0  0  0  0
 22 20  1  0  0  0  0
 23 25  1  0  0  0  0
 24 25  1  0  0  0  0
 27 28  1  1  0  0  0
 27 26  1  0  0  0  0
 29 10  1  0  0  0  0
 30 29  1  0  0  0  0
 31 30  1  0  0  0  0
 31 32  1  0  0  0  0
 32 33  1  0  0  0  0
 35 33  1  0  0  0  0
 35 34  1  0  0  0  0
 36 37  1  6  0  0  0
 36 35  1  0  0  0  0
 38 36  1  0  0  0  0
 39 38  1  0  0  0  0
 40 42  1  0  0  0  0
 40 39  1  0  0  0  0
 41 40  2  0  0  0  0
 43 12  1  0  0  0  0
 44 50  1  0  0  0  0
 46 47  1  0  0  0  0
 46 44  1  0  0  0  0
 48 45  1  6  0  0  0
 48 46  1  0  0  0  0
 48 47  1  0  0  0  0
 49 44  2  0  0  0  0
 50 43  1  0  0  0  0
M  END
>  <MODEL>
2

>  <REMARK>
 VINA RESULT:      -7.8      1.334      2.337
  Name = 
  14 active torsions:
  status: ('A' for Active; 'I' for Inactive)
    1  A    between atoms: C_16  and  C_17
    2  A    between atoms: C_16  and  C_24
    3  A    between atoms: C_17  and  C_49
    4  A    between atoms: C_18  and  C_31
    5  A    between atoms: C_18  and  C_34
    6  A    between atoms: N_19  and  C_23
    7  A    between atoms: N_19  and  N_37
    8  A    between atoms: C_23  and  C_49
    9  A    between atoms: C_25  and  C_46
   10  A    between atoms: C_26  and  C_29
   11  A    between atoms: C_26  and  N_47
   12  A    between atoms: C_28  and  C_34
   13  A    between atoms: C_28  and  N_37
   14  A    between atoms: N_30  and  C_32
                            x       y       z     vdW  Elec       q    Type
                         _______ _______ _______ _____ _____    ______ ____

>  <TORSDO>
F 14

$$$$
=
 OpenBabel11052412093D

 50 55  0  0  1  0  0  0  0  0999 V2000
  161.5540  206.6810  150.0730 C   0  0  0  0  0  0  0  0  0  0  0  0
  161.8300  209.8570  151.9990 O   0  0  0  0  0  1  0  0  0  0  0  0
  161.5550  204.9590  147.8710 C   0  0  0  0  0  3  0  0  0  0  0  0
  160.3530  202.9980  153.0950 C   0  0  0  0  0  1  0  0  0  0  0  0
  161.2590  204.4700  149.1490 C   0  0  0  0  0  0  0  0  0  0  0  0
  160.6650  203.5300  151.7350 C   0  0  0  0  0  0  0  0  0  0  0  0
  160.9890  204.8830  151.5460 C   0  0  0  0  0  0  0  0  0  0  0  0
  161.8130  208.9370  150.9560 C   0  0  0  0  0  0  0  0  0  0  0  0
  161.5540  207.5640  151.1810 C   0  0  0  0  0  0  0  0  0  0  0  0
  161.2780  207.0160  152.4630 C   0  0  0  0  0  0  0  0  0  0  0  0
  162.0710  208.5120  148.6150 N   0  0  0  0  0  0  0  0  0  0  0  0
  162.0500  209.3870  149.6530 C   0  0  0  0  0  0  0  0  0  0  0  0
  162.1680  206.7710  146.4940 N   0  0  0  0  0  0  0  0  0  0  0  0
  161.2790  205.3610  150.2490 C   0  0  0  0  0  0  0  0  0  0  0  0
  161.0120  205.7180  152.5800 O   0  0  0  0  0  0  0  0  0  0  0  0
  161.8340  207.1830  148.7810 C   0  0  0  0  0  0  0  0  0  0  0  0
  160.9340  203.1110  149.3530 C   0  0  0  0  0  0  0  0  0  0  0  0
  161.8610  206.3150  147.6750 C   0  0  0  0  0  0  0  0  0  0  0  0
  160.6320  202.6590  150.6470 C   0  0  0  0  0  3  0  0  0  0  0  0
  162.8910  204.7410  145.5580 O   0  0  0  0  0  0  0  0  0  0  0  0
  159.7200  203.6240  144.6630 C   0  0  0  0  0  1  0  0  0  0  0  0
  162.2490  205.9640  145.2780 C   0  0  1  0  0  3  0  0  0  0  0  0
  162.0150  203.7240  145.1220 C   0  0  0  0  0  2  0  0  0  0  0  0
  160.8680  205.6450  144.7630 C   0  0  0  0  0  2  0  0  0  0  0  0
  160.9590  204.2900  144.2920 N   0  0  0  0  0  0  0  0  0  0  0  0
  159.5380  201.9740  147.8000 O   0  0  0  0  0  1  0  0  0  0  0  0
  160.8650  202.1510  148.1960 C   0  0  2  0  0  3  0  0  0  0  0  0
  161.4790  200.8100  148.5500 C   0  0  0  0  0  1  0  0  0  0  0  0
  161.2700  207.8410  153.7120 C   0  0  0  0  0  2  0  0  0  0  0  0
  160.6230  207.0820  154.8510 C   0  0  0  0  0  2  0  0  0  0  0  0
  160.2710  208.0460  155.9700 C   0  0  0  0  0  2  0  0  0  0  0  0
  161.5290  208.7060  156.5050 C   0  0  0  0  0  2  0  0  0  0  0  0
  161.2550  210.0790  156.9070 N   0  0  0  0  0  2  0  0  0  0  0  0
  161.4180  211.2390  155.0130 O   0  0  0  0  0  1  0  0  0  0  0  0
  160.5250  210.6840  155.8680 N   0  0  0  0  0  0  0  0  0  0  0  0
  159.7000  211.7670  156.4190 C   0  0  1  0  0  3  0  0  0  0  0  0
  160.4520  212.9340  156.5860 O   0  0  0  0  0  1  0  0  0  0  0  0
  158.3970  212.0270  155.6420 C   0  0  0  0  0  2  0  0  0  0  0  0
  157.5820  210.7640  155.3940 C   0  0  0  0  0  2  0  0  0  0  0  0
  156.1850  211.1230  155.0030 C   0  0  0  0  0  0  0  0  0  0  0  0
  155.9260  212.2900  154.6020 O   0  0  0  0  0  0  0  0  0  0  0  0
  155.1680  210.1810  155.0780 O   0  0  0  0  0  1  0  0  0  0  0  0
  162.2810  210.8360  149.3950 C   0  0  0  0  0  2  0  0  0  0  0  0
  160.8390  212.8810  149.1850 C   0  0  0  0  0  0  0  0  0  0  0  0
  160.8570  214.2100  145.9010 C   0  0  0  0  0  1  0  0  0  0  0  0
  161.5990  213.3370  148.0670 N   0  0  0  0  0  0  0  0  0  0  0  0
  162.6610  213.1560  147.0350 C   0  0  0  0  0  2  0  0  0  0  0  0
  161.9150  214.3160  146.9850 C   0  0  1  0  0  3  0  0  0  0  0  0
  159.9170  213.6040  149.6490 O   0  0  0  0  0  0  0  0  0  0  0  0
  161.1090  211.6080  149.7760 N   0  0  0  0  0  2  0  0  0  0  0  0
  1 14  2  0  0  0  0
  1  9  1  0  0  0  0
  3  5  2  0  0  0  0
  5 17  1  0  0  0  0
  5 14  1  0  0  0  0
  6  4  1  0  0  0  0
  7  6  2  0  0  0  0
  7 15  1  0  0  0  0
  8  9  1  0  0  0  0
  8  2  1  0  0  0  0
  9 10  2  0  0  0  0
 10 15  1  0  0  0  0
 10 29  1  0  0  0  0
 11 16  2  0  0  0  0
 11 12  1  0  0  0  0
 12  8  2  0  0  0  0
 13 18  2  0  0  0  0
 14  7  1  0  0  0  0
 16  1  1  0  0  0  0
 17 19  2  0  0  0  0
 18  3  1  0  0  0  0
 18 16  1  0  0  0  0
 19  6  1  0  0  0  0
 22 20  1  0  0  0  0
 22 13  1  1  0  0  0
 23 20  1  0  0  0  0
 24 22  1  0  0  0  0
 25 21  1  0  0  0  0
 25 24  1  0  0  0  0
 25 23  1  0  0  0  0
 26 27  1  0  0  0  0
 27 28  1  1  0  0  0
 27 17  1  0  0  0  0
 29 30  1  0  0  0  0
 30 31  1  0  0  0  0
 31 32  1  0  0  0  0
 32 33  1  0  0  0  0
 34 35  1  0  0  0  0
 35 36  1  0  0  0  0
 35 33  1  0  0  0  0
 36 37  1  6  0  0  0
 38 36  1  0  0  0  0
 39 38  1  0  0  0  0
 40 42  1  0  0  0  0
 40 39  1  0  0  0  0
 41 40  2  0  0  0  0
 43 12  1  0  0  0  0
 43 50  1  0  0  0  0
 44 49  2  0  0  0  0
 44 50  1  0  0  0  0
 46 44  1  0  0  0  0
 47 46  1  0  0  0  0
 48 45  1  6  0  0  0
 48 47  1  0  0  0  0
 48 46  1  0  0  0  0
M  END
>  <MODEL>
3

>  <REMARK>
 VINA RESULT:      -7.6      1.970      8.817
  Name = 
  14 active torsions:
  status: ('A' for Active; 'I' for Inactive)
    1  A    between atoms: C_16  and  C_17
    2  A    between atoms: C_16  and  C_24
    3  A    between atoms: C_17  and  C_49
    4  A    between atoms: C_18  and  C_31
    5  A    between atoms: C_18  and  C_34
    6  A    between atoms: N_19  and  C_23
    7  A    between atoms: N_19  and  N_37
    8  A    between atoms: C_23  and  C_49
    9  A    between atoms: C_25  and  C_46
   10  A    between atoms: C_26  and  C_29
   11  A    between atoms: C_26  and  N_47
   12  A    between atoms: C_28  and  C_34
   13  A    between atoms: C_28  and  N_37
   14  A    between atoms: N_30  and  C_32
                            x       y       z     vdW  Elec       q    Type
                         _______ _______ _______ _____ _____    ______ ____

>  <TORSDO>
F 14

$$$$
=
 OpenBabel11052412093D

 50 55  0  0  1  0  0  0  0  0999 V2000
  161.1720  209.8660  151.5580 C   0  0  0  0  0  0  0  0  0  0  0  0
  161.9760  210.7580  148.0320 O   0  0  0  0  0  1  0  0  0  0  0  0
  160.3660  210.2010  154.2140 C   0  0  0  0  0  3  0  0  0  0  0  0
  162.1150  205.1060  152.3290 C   0  0  0  0  0  1  0  0  0  0  0  0
  160.7930  208.9480  153.7590 C   0  0  0  0  0  0  0  0  0  0  0  0
  161.6650  206.4470  152.8050 C   0  0  0  0  0  0  0  0  0  0  0  0
  161.6120  207.5440  151.9300 C   0  0  1  0  0  3  0  0  0  0  0  0
  161.5880  210.8420  149.3660 C   0  0  0  0  0  0  0  0  0  0  0  0
  161.5820  209.7070  150.2110 C   0  0  0  0  0  0  0  0  0  0  0  0
  161.9780  208.4100  149.7880 C   0  0  0  0  0  0  0  0  0  0  0  0
  160.7890  212.1990  151.1690 N   0  0  0  0  0  0  0  0  0  0  0  0
  161.2030  212.0850  149.8800 C   0  0  0  0  0  0  0  0  0  0  0  0
  159.9010  212.4660  153.7530 N   0  0  0  0  0  2  0  0  0  0  0  0
  161.1840  208.8020  152.4060 C   0  0  0  0  0  0  0  0  0  0  0  0
  161.9740  207.4040  150.6590 O   0  0  0  0  0  0  0  0  0  0  0  0
  160.7600  211.1380  152.0180 C   0  0  0  0  0  0  0  0  0  0  0  0
  160.8500  207.8380  154.6290 C   0  0  0  0  0  0  0  0  0  0  0  0
  160.3290  211.3040  153.3460 C   0  0  0  0  0  0  0  0  0  0  0  0
  161.2930  206.5990  154.1410 C   0  0  0  0  0  3  0  0  0  0  0  0
  159.2640  214.1460  155.2660 O   0  0  0  0  0  0  0  0  0  0  0  0
  155.9600  213.0990  155.5750 C   0  0  0  0  0  1  0  0  0  0  0  0
  159.4110  212.7540  155.0990 C   0  0  1  0  0  3  0  0  0  0  0  0
  157.9330  214.3570  155.6870 C   0  0  0  0  0  2  0  0  0  0  0  0
  158.0580  212.1250  155.3150 C   0  0  0  0  0  2  0  0  0  0  0  0
  157.3240  213.0940  156.0830 N   0  0  0  0  0  0  0  0  0  0  0  0
  161.5840  207.6830  156.8850 O   0  0  0  0  0  1  0  0  0  0  0  0
  160.4790  207.9740  156.0820 C   0  0  2  0  0  3  0  0  0  0  0  0
  159.3230  207.0630  156.4480 C   0  0  0  0  0  1  0  0  0  0  0  0
  162.4100  208.1130  148.3860 C   0  0  0  0  0  2  0  0  0  0  0  0
  162.4310  206.6190  148.1390 C   0  0  0  0  0  2  0  0  0  0  0  0
  161.1480  206.2000  147.4440 C   0  0  0  0  0  2  0  0  0  0  0  0
  161.4600  205.6250  146.0740 C   0  0  0  0  0  2  0  0  0  0  0  0
  162.0520  204.3000  146.1990 N   0  0  0  0  0  2  0  0  0  0  0  0
  160.6830  204.2730  144.4430 O   0  0  0  0  0  1  0  0  0  0  0  0
  161.4640  203.4820  145.2180 N   0  0  0  0  0  0  0  0  0  0  0  0
  160.5940  202.4920  145.8660 C   0  0  1  0  0  3  0  0  0  0  0  0
  160.1620  201.5290  144.9480 O   0  0  0  0  0  1  0  0  0  0  0  0
  161.1950  201.8540  147.1310 C   0  0  0  0  0  2  0  0  0  0  0  0
  160.1790  201.6650  148.2500 C   0  0  0  0  0  2  0  0  0  0  0  0
  160.7120  202.2250  149.5280 C   0  0  0  0  0  0  0  0  0  0  0  0
  160.5990  203.4570  149.7700 O   0  0  0  0  0  0  0  0  0  0  0  0
  161.3360  201.3990  150.4540 O   0  0  0  0  0  1  0  0  0  0  0  0
  161.2450  213.2960  149.0140 C   0  0  0  0  0  2  0  0  0  0  0  0
  159.6610  212.7350  147.1480 C   0  0  0  0  0  0  0  0  0  0  0  0
  156.5750  214.4500  147.4390 C   0  0  0  0  0  1  0  0  0  0  0  0
  158.5390  213.0800  147.9590 N   0  0  0  0  0  0  0  0  0  0  0  0
  157.9370  213.6300  149.2080 C   0  0  0  0  0  2  0  0  0  0  0  0
  157.0750  213.2370  148.2040 C   0  0  1  0  0  3  0  0  0  0  0  0
  159.4750  212.2590  145.9960 O   0  0  0  0  0  0  0  0  0  0  0  0
  160.9930  212.9340  147.6290 N   0  0  0  0  0  2  0  0  0  0  0  0
  1 16  1  0  0  0  0
  1 14  2  0  0  0  0
  2  8  1  0  0  0  0
  4  6  1  0  0  0  0
  5  3  1  0  0  0  0
  5 17  2  0  0  0  0
  6 19  2  0  0  0  0
  7 15  1  1  0  0  0
  7 14  1  0  0  0  0
  7  6  1  0  0  0  0
  8 12  2  0  0  0  0
  8  9  1  0  0  0  0
  9  1  1  0  0  0  0
 10  9  2  0  0  0  0
 10 15  1  0  0  0  0
 11 16  2  0  0  0  0
 12 11  1  0  0  0  0
 14  5  1  0  0  0  0
 16 18  1  0  0  0  0
 17 27  1  0  0  0  0
 18 13  1  0  0  0  0
 18  3  2  0  0  0  0
 19 17  1  0  0  0  0
 20 23  1  0  0  0  0
 21 25  1  0  0  0  0
 22 13  1  6  0  0  0
 22 20  1  0  0  0  0
 22 24  1  0  0  0  0
 23 25  1  0  0  0  0
 24 25  1  0  0  0  0
 27 28  1  1  0  0  0
 27 26  1  0  0  0  0
 29 10  1  0  0  0  0
 30 29  1  0  0  0  0
 31 30  1  0  0  0  0
 32 33  1  0  0  0  0
 32 31  1  0  0  0  0
 34 35  1  0  0  0  0
 35 36  1  0  0  0  0
 35 33  1  0  0  0  0
 36 37  1  6  0  0  0
 36 38  1  0  0  0  0
 38 39  1  0  0  0  0
 39 40  1  0  0  0  0
 40 41  2  0  0  0  0
 40 42  1  0  0  0  0
 43 12  1  0  0  0  0
 44 50  1  0  0  0  0
 44 46  1  0  0  0  0
 46 48  1  0  0  0  0
 46 47  1  0  0  0  0
 48 45  1  6  0  0  0
 48 47  1  0  0  0  0
 49 44  2  0  0  0  0
 50 43  1  0  0  0  0
M  END
>  <MODEL>
4

>  <REMARK>
 VINA RESULT:      -7.6      1.232      1.732
  Name = 
  14 active torsions:
  status: ('A' for Active; 'I' for Inactive)
    1  A    between atoms: C_16  and  C_17
    2  A    between atoms: C_16  and  C_24
    3  A    between atoms: C_17  and  C_49
    4  A    between atoms: C_18  and  C_31
    5  A    between atoms: C_18  and  C_34
    6  A    between atoms: N_19  and  C_23
    7  A    between atoms: N_19  and  N_37
    8  A    between atoms: C_23  and  C_49
    9  A    between atoms: C_25  and  C_46
   10  A    between atoms: C_26  and  C_29
   11  A    between atoms: C_26  and  N_47
   12  A    between atoms: C_28  and  C_34
   13  A    between atoms: C_28  and  N_37
   14  A    between atoms: N_30  and  C_32
                            x       y       z     vdW  Elec       q    Type
                         _______ _______ _______ _____ _____    ______ ____

>  <TORSDO>
F 14

$$$$
=
 OpenBabel11052412093D

 50 55  0  0  1  0  0  0  0  0999 V2000
  161.5720  208.5330  150.5040 C   0  0  0  0  0  0  0  0  0  0  0  0
  161.4020  212.2530  150.5880 O   0  0  0  0  0  1  0  0  0  0  0  0
  161.9030  205.9620  149.4600 C   0  0  0  0  0  3  0  0  0  0  0  0
  160.4870  206.7140  154.9370 C   0  0  0  0  0  1  0  0  0  0  0  0
  161.5560  206.1370  150.8050 C   0  0  0  0  0  0  0  0  0  0  0  0
  160.8520  206.5370  153.5010 C   0  0  0  0  0  0  0  0  0  0  0  0
  161.0630  207.6470  152.6660 C   0  0  0  0  0  0  0  0  0  0  0  0
  161.5510  210.9430  150.1450 C   0  0  0  0  0  0  0  0  0  0  0  0
  161.4030  209.8410  151.0220 C   0  0  0  0  0  0  0  0  0  0  0  0
  161.0820  209.9710  152.3990 C   0  0  0  0  0  0  0  0  0  0  0  0
  162.0280  209.4490  148.3370 N   0  0  0  0  0  0  0  0  0  0  0  0
  161.8460  210.7140  148.7970 C   0  0  0  0  0  0  0  0  0  0  0  0
  162.4510  206.9130  147.3740 N   0  0  0  0  0  0  0  0  0  0  0  0
  161.4070  207.4520  151.3110 C   0  0  0  0  0  0  0  0  0  0  0  0
  160.9280  208.8800  153.1450 O   0  0  0  0  0  0  0  0  0  0  0  0
  161.9030  208.3590  149.1400 C   0  0  0  0  0  0  0  0  0  0  0  0
  161.3430  205.0300  151.6540 C   0  0  0  0  0  0  0  0  0  0  0  0
  162.0960  207.0680  148.6180 C   0  0  0  0  0  0  0  0  0  0  0  0
  160.9850  205.2450  152.9940 C   0  0  0  0  0  3  0  0  0  0  0  0
  161.9980  204.6080  147.4020 O   0  0  0  0  0  0  0  0  0  0  0  0
  160.4420  204.5230  144.2910 C   0  0  0  0  0  1  0  0  0  0  0  0
  162.7000  205.6260  146.7270 C   0  0  1  0  0  3  0  0  0  0  0  0
  161.2160  203.9520  146.4270 C   0  0  0  0  0  2  0  0  0  0  0  0
  162.2110  205.6480  145.3020 C   0  0  0  0  0  2  0  0  0  0  0  0
  161.6440  204.3430  145.0900 N   0  0  0  0  0  0  0  0  0  0  0  0
  160.4360  203.3750  150.2080 O   0  0  0  0  0  1  0  0  0  0  0  0
  161.4540  203.6220  151.1310 C   0  0  2  0  0  3  0  0  0  0  0  0
  161.3870  202.6070  152.2550 C   0  0  0  0  0  1  0  0  0  0  0  0
  160.9000  211.2990  153.0670 C   0  0  0  0  0  2  0  0  0  0  0  0
  159.5580  211.3670  153.7650 C   0  0  0  0  0  2  0  0  0  0  0  0
  159.7690  211.6030  155.2500 C   0  0  0  0  0  2  0  0  0  0  0  0
  158.6280  210.9900  156.0430 C   0  0  0  0  0  2  0  0  0  0  0  0
  157.4260  210.9060  155.2250 N   0  0  0  0  0  2  0  0  0  0  0  0
  155.3000  210.4840  155.7340 O   0  0  0  0  0  1  0  0  0  0  0  0
  156.3410  211.2990  156.0290 N   0  0  0  0  0  0  0  0  0  0  0  0
  155.9490  212.6700  155.6810 C   0  0  1  0  0  3  0  0  0  0  0  0
  156.5510  213.5960  156.5390 O   0  0  0  0  0  1  0  0  0  0  0  0
  156.1610  213.0330  154.2010 C   0  0  0  0  0  2  0  0  0  0  0  0
  157.0670  214.2420  154.0020 C   0  0  0  0  0  2  0  0  0  0  0  0
  157.5530  214.2930  152.5900 C   0  0  0  0  0  0  0  0  0  0  0  0
  158.7830  214.4390  152.3550 O   0  0  0  0  0  1  0  0  0  0  0  0
  156.6600  214.1830  151.5330 O   0  0  0  0  0  0  0  0  0  0  0  0
  161.9610  211.8610  147.8540 C   0  0  0  0  0  2  0  0  0  0  0  0
  160.5710  212.8660  146.0180 C   0  0  0  0  0  0  0  0  0  0  0  0
  162.2010  212.7440  142.8750 C   0  0  0  0  0  1  0  0  0  0  0  0
  161.7400  213.1440  145.2480 N   0  0  0  0  0  0  0  0  0  0  0  0
  163.2090  213.0560  145.0060 C   0  0  0  0  0  2  0  0  0  0  0  0
  162.4410  213.6820  144.0450 C   0  0  1  0  0  3  0  0  0  0  0  0
  159.4450  213.2490  145.6040 O   0  0  0  0  0  0  0  0  0  0  0  0
  160.6690  212.1490  147.2510 N   0  0  0  0  0  2  0  0  0  0  0  0
  1  9  1  0  0  0  0
  1 14  2  0  0  0  0
  3  5  2  0  0  0  0
  5 14  1  0  0  0  0
  5 17  1  0  0  0  0
  6  4  1  0  0  0  0
  7 15  1  0  0  0  0
  7  6  2  0  0  0  0
  8  2  1  0  0  0  0
  8  9  1  0  0  0  0
  9 10  2  0  0  0  0
 10 29  1  0  0  0  0
 10 15  1  0  0  0  0
 11 12  1  0  0  0  0
 11 16  2  0  0  0  0
 12  8  2  0  0  0  0
 13 18  2  0  0  0  0
 14  7  1  0  0  0  0
 16  1  1  0  0  0  0
 17 19  2  0  0  0  0
 18 16  1  0  0  0  0
 18  3  1  0  0  0  0
 19  6  1  0  0  0  0
 21 25  1  0  0  0  0
 22 13  1  1  0  0  0
 22 20  1  0  0  0  0
 23 20  1  0  0  0  0
 24 22  1  0  0  0  0
 25 24  1  0  0  0  0
 25 23  1  0  0  0  0
 26 27  1  0  0  0  0
 27 17  1  0  0  0  0
 27 28  1  1  0  0  0
 29 30  1  0  0  0  0
 30 31  1  0  0  0  0
 31 32  1  0  0  0  0
 33 35  1  0  0  0  0
 33 32  1  0  0  0  0
 34 35  1  0  0  0  0
 36 35  1  0  0  0  0
 36 37  1  1  0  0  0
 38 36  1  0  0  0  0
 39 38  1  0  0  0  0
 40 39  1  0  0  0  0
 41 40  1  0  0  0  0
 42 40  2  0  0  0  0
 43 12  1  0  0  0  0
 44 50  1  0  0  0  0
 46 44  1  0  0  0  0
 47 46  1  0  0  0  0
 48 45  1  6  0  0  0
 48 47  1  0  0  0  0
 48 46  1  0  0  0  0
 49 44  2  0  0  0  0
 50 43  1  0  0  0  0
M  END
>  <MODEL>
5

>  <REMARK>
 VINA RESULT:      -7.4      2.128      8.703
  Name = 
  14 active torsions:
  status: ('A' for Active; 'I' for Inactive)
    1  A    between atoms: C_16  and  C_17
    2  A    between atoms: C_16  and  C_24
    3  A    between atoms: C_17  and  C_49
    4  A    between atoms: C_18  and  C_31
    5  A    between atoms: C_18  and  C_34
    6  A    between atoms: N_19  and  C_23
    7  A    between atoms: N_19  and  N_37
    8  A    between atoms: C_23  and  C_49
    9  A    between atoms: C_25  and  C_46
   10  A    between atoms: C_26  and  C_29
   11  A    between atoms: C_26  and  N_47
   12  A    between atoms: C_28  and  C_34
   13  A    between atoms: C_28  and  N_37
   14  A    between atoms: N_30  and  C_32
                            x       y       z     vdW  Elec       q    Type
                         _______ _______ _______ _____ _____    ______ ____

>  <TORSDO>
F 14

$$$$
=
 OpenBabel11052412093D

 50 55  0  0  1  0  0  0  0  0999 V2000
  160.8060  209.6130  152.6440 C   0  0  0  0  0  0  0  0  0  0  0  0
  162.6340  208.0130  149.8210 O   0  0  0  0  0  1  0  0  0  0  0  0
  159.3810  211.5580  154.0580 C   0  0  0  0  0  3  0  0  0  0  0  0
  160.8160  206.6240  156.5440 C   0  0  0  0  0  1  0  0  0  0  0  0
  159.7290  210.3500  154.6760 C   0  0  0  0  0  0  0  0  0  0  0  0
  160.4540  207.9110  155.8790 C   0  0  0  0  0  0  0  0  0  0  0  0
  160.7930  208.1510  154.5370 C   0  0  1  0  0  3  0  0  0  0  0  0
  161.9230  208.9280  150.5910 C   0  0  0  0  0  0  0  0  0  0  0  0
  161.5310  208.6350  151.9180 C   0  0  0  0  0  0  0  0  0  0  0  0
  161.8340  207.4130  152.5770 C   0  0  0  0  0  0  0  0  0  0  0  0
  160.8790  211.0760  150.7470 N   0  0  0  0  0  0  0  0  0  0  0  0
  161.5980  210.1700  150.0360 C   0  0  0  0  0  0  0  0  0  0  0  0
  159.3860  212.9170  152.1330 N   0  0  0  0  0  2  0  0  0  0  0  0
  160.4400  209.3770  153.9320 C   0  0  0  0  0  0  0  0  0  0  0  0
  161.4550  207.2340  153.8390 O   0  0  0  0  0  0  0  0  0  0  0  0
  160.4740  210.8390  152.0230 C   0  0  0  0  0  0  0  0  0  0  0  0
  159.3930  210.0970  156.0230 C   0  0  0  0  0  0  0  0  0  0  0  0
  159.7340  211.8090  152.7240 C   0  0  0  0  0  0  0  0  0  0  0  0
  159.7680  208.8790  156.6110 C   0  0  0  0  0  3  0  0  0  0  0  0
  157.6250  214.4440  151.8450 O   0  0  0  0  0  0  0  0  0  0  0  0
  155.6200  213.1410  154.3730 C   0  0  0  0  0  1  0  0  0  0  0  0
  158.6030  213.9860  152.7490 C   0  0  1  0  0  3  0  0  0  0  0  0
  156.3870  214.3470  152.5170 C   0  0  0  0  0  2  0  0  0  0  0  0
  157.8880  213.4780  153.9750 C   0  0  0  0  0  2  0  0  0  0  0  0
  156.6030  214.1220  153.9410 N   0  0  0  0  0  0  0  0  0  0  0  0
  157.4080  211.3710  156.3140 O   0  0  0  0  0  1  0  0  0  0  0  0
  158.6750  211.1300  156.8490 C   0  0  2  0  0  3  0  0  0  0  0  0
  159.4580  212.4270  156.9200 C   0  0  0  0  0  1  0  0  0  0  0  0
  162.5740  206.2960  151.9090 C   0  0  0  0  0  2  0  0  0  0  0  0
  161.6120  205.3570  151.2120 C   0  0  0  0  0  2  0  0  0  0  0  0
  161.1870  204.2600  152.1730 C   0  0  0  0  0  2  0  0  0  0  0  0
  160.6290  203.0780  151.4010 C   0  0  0  0  0  2  0  0  0  0  0  0
  161.4120  202.8400  150.1960 N   0  0  0  0  0  2  0  0  0  0  0  0
  160.0790  201.2430  149.4020 O   0  0  0  0  0  1  0  0  0  0  0  0
  160.5120  202.5050  149.1690 N   0  0  0  0  0  0  0  0  0  0  0  0
  161.2200  202.5040  147.8820 C   0  0  1  0  0  3  0  0  0  0  0  0
  160.4920  201.8090  146.9110 O   0  0  0  0  0  1  0  0  0  0  0  0
  161.6460  203.9000  147.3930 C   0  0  0  0  0  2  0  0  0  0  0  0
  161.6620  204.0270  145.8750 C   0  0  0  0  0  2  0  0  0  0  0  0
  161.0690  205.3330  145.4610 C   0  0  0  0  0  0  0  0  0  0  0  0
  160.9610  205.6150  144.2370 O   0  0  0  0  0  0  0  0  0  0  0  0
  160.6350  206.2440  146.4150 O   0  0  0  0  0  1  0  0  0  0  0  0
  162.0430  210.5090  148.6540 C   0  0  0  0  0  2  0  0  0  0  0  0
  162.3430  212.8590  147.8200 C   0  0  0  0  0  0  0  0  0  0  0  0
  159.2580  214.4110  147.0310 C   0  0  0  0  0  1  0  0  0  0  0  0
  161.1000  212.7990  147.1210 N   0  0  0  0  0  0  0  0  0  0  0  0
  159.8230  212.1170  146.7620 C   0  0  0  0  0  2  0  0  0  0  0  0
  160.0410  213.3770  146.2420 C   0  0  1  0  0  3  0  0  0  0  0  0
  163.0730  213.8800  147.7090 O   0  0  0  0  0  0  0  0  0  0  0  0
  162.7600  211.7740  148.6530 N   0  0  0  0  0  2  0  0  0  0  0  0
  1 14  2  0  0  0  0
  2  8  1  0  0  0  0
  3  5  1  0  0  0  0
  5 17  2  0  0  0  0
  6  4  1  0  0  0  0
  6 19  2  0  0  0  0
  7 15  1  1  0  0  0
  7  6  1  0  0  0  0
  8  9  1  0  0  0  0
  9 10  2  0  0  0  0
  9  1  1  0  0  0  0
 10 15  1  0  0  0  0
 11 16  2  0  0  0  0
 12  8  2  0  0  0  0
 12 11  1  0  0  0  0
 13 18  1  0  0  0  0
 14  7  1  0  0  0  0
 14  5  1  0  0  0  0
 16  1  1  0  0  0  0
 16 18  1  0  0  0  0
 17 19  1  0  0  0  0
 17 27  1  0  0  0  0
 18  3  2  0  0  0  0
 20 23  1  0  0  0  0
 20 22  1  0  0  0  0
 22 13  1  6  0  0  0
 22 24  1  0  0  0  0
 23 25  1  0  0  0  0
 25 24  1  0  0  0  0
 25 21  1  0  0  0  0
 26 27  1  0  0  0  0
 27 28  1  6  0  0  0
 29 10  1  0  0  0  0
 30 29  1  0  0  0  0
 30 31  1  0  0  0  0
 32 31  1  0  0  0  0
 33 32  1  0  0  0  0
 35 34  1  0  0  0  0
 35 33  1  0  0  0  0
 36 37  1  6  0  0  0
 36 35  1  0  0  0  0
 38 36  1  0  0  0  0
 39 38  1  0  0  0  0
 40 39  1  0  0  0  0
 40 42  1  0  0  0  0
 41 40  2  0  0  0  0
 43 12  1  0  0  0  0
 44 50  1  0  0  0  0
 46 44  1  0  0  0  0
 47 46  1  0  0  0  0
 48 47  1  0  0  0  0
 48 45  1  1  0  0  0
 48 46  1  0  0  0  0
 49 44  2  0  0  0  0
 50 43  1  0  0  0  0
M  END
>  <MODEL>
6

>  <REMARK>
 VINA RESULT:      -6.6      2.078      3.641
  Name = 
  14 active torsions:
  status: ('A' for Active; 'I' for Inactive)
    1  A    between atoms: C_16  and  C_17
    2  A    between atoms: C_16  and  C_24
    3  A    between atoms: C_17  and  C_49
    4  A    between atoms: C_18  and  C_31
    5  A    between atoms: C_18  and  C_34
    6  A    between atoms: N_19  and  C_23
    7  A    between atoms: N_19  and  N_37
    8  A    between atoms: C_23  and  C_49
    9  A    between atoms: C_25  and  C_46
   10  A    between atoms: C_26  and  C_29
   11  A    between atoms: C_26  and  N_47
   12  A    between atoms: C_28  and  C_34
   13  A    between atoms: C_28  and  N_37
   14  A    between atoms: N_30  and  C_32
                            x       y       z     vdW  Elec       q    Type
                         _______ _______ _______ _____ _____    ______ ____

>  <TORSDO>
F 14

$$$$
=
 OpenBabel11052412093D

 50 55  0  0  1  0  0  0  0  0999 V2000
  161.3750  206.7280  151.0540 C   0  0  0  0  0  0  0  0  0  0  0  0
  161.0070  204.0450  153.6120 O   0  0  0  0  0  1  0  0  0  0  0  0
  161.7430  207.9060  148.5470 C   0  0  0  0  0  3  0  0  0  0  0  0
  161.2310  211.1320  153.2270 C   0  0  0  0  0  1  0  0  0  0  0  0
  161.6180  208.7050  149.6900 C   0  0  0  0  0  0  0  0  0  0  0  0
  161.3680  210.2720  152.0150 C   0  0  0  0  0  0  0  0  0  0  0  0
  161.2860  208.8740  152.1080 C   0  0  0  0  0  0  0  0  0  0  0  0
  161.1840  204.7070  152.4010 C   0  0  0  0  0  0  0  0  0  0  0  0
  161.1930  206.1200  152.3210 C   0  0  0  0  0  0  0  0  0  0  0  0
  161.0400  206.9720  153.4480 C   0  0  0  0  0  0  0  0  0  0  0  0
  161.5120  204.5630  150.0340 N   0  0  0  0  0  0  0  0  0  0  0  0
  161.3670  203.9520  151.2380 C   0  0  0  0  0  0  0  0  0  0  0  0
  161.7620  205.7590  147.5750 N   0  0  0  0  0  0  0  0  0  0  0  0
  161.4200  208.0830  150.9460 C   0  0  0  0  0  0  0  0  0  0  0  0
  161.0940  208.2910  153.2880 O   0  0  0  0  0  0  0  0  0  0  0  0
  161.5210  205.9170  149.9050 C   0  0  0  0  0  0  0  0  0  0  0  0
  161.6980  210.1120  149.6090 C   0  0  0  0  0  0  0  0  0  0  0  0
  161.6790  206.5080  148.6390 C   0  0  0  0  0  0  0  0  0  0  0  0
  161.5790  210.8800  150.7770 C   0  0  0  0  0  3  0  0  0  0  0  0
  162.9130  205.5300  145.5400 O   0  0  0  0  0  0  0  0  0  0  0  0
  160.1180  204.6630  143.6580 C   0  0  0  0  0  1  0  0  0  0  0  0
  161.9070  206.2570  146.2090 C   0  0  1  0  0  3  0  0  0  0  0  0
  162.3220  205.0310  144.3590 C   0  0  0  0  0  2  0  0  0  0  0  0
  160.6240  206.0710  145.4400 C   0  0  0  0  0  2  0  0  0  0  0  0
  161.0430  205.6870  144.1190 N   0  0  0  0  0  0  0  0  0  0  0  0
  163.1250  211.5470  148.3620 O   0  0  0  0  0  1  0  0  0  0  0  0
  161.9490  210.7980  148.2920 C   0  0  2  0  0  3  0  0  0  0  0  0
  160.7900  211.6950  147.9040 C   0  0  0  0  0  1  0  0  0  0  0  0
  160.8190  206.4490  154.8340 C   0  0  0  0  0  2  0  0  0  0  0  0
  159.8420  207.3280  155.5870 C   0  0  0  0  0  2  0  0  0  0  0  0
  160.3580  207.5710  156.9940 C   0  0  0  0  0  2  0  0  0  0  0  0
  160.8940  208.9870  157.1150 C   0  0  0  0  0  2  0  0  0  0  0  0
  159.7990  209.9480  157.1230 N   0  0  0  0  0  2  0  0  0  0  0  0
  161.5520  211.2340  156.6410 O   0  0  0  0  0  1  0  0  0  0  0  0
  160.2270  211.0780  156.4040 N   0  0  0  0  0  0  0  0  0  0  0  0
  159.5380  212.2700  156.9160 C   0  0  1  0  0  3  0  0  0  0  0  0
  160.4550  213.2690  157.2610 O   0  0  0  0  0  1  0  0  0  0  0  0
  158.4260  212.8020  155.9950 C   0  0  0  0  0  2  0  0  0  0  0  0
  157.8770  211.7470  155.0430 C   0  0  0  0  0  2  0  0  0  0  0  0
  156.3850  211.8020  155.0190 C   0  0  0  0  0  0  0  0  0  0  0  0
  155.7990  212.5810  154.2200 O   0  0  0  0  0  0  0  0  0  0  0  0
  155.6360  211.0020  155.8710 O   0  0  0  0  0  1  0  0  0  0  0  0
  161.4030  202.4640  151.3130 C   0  0  0  0  0  2  0  0  0  0  0  0
  159.7050  201.6560  149.6480 C   0  0  0  0  0  0  0  0  0  0  0  0
  161.2080  200.1500  146.8150 C   0  0  0  0  0  1  0  0  0  0  0  0
  160.6580  201.7480  148.5900 N   0  0  0  0  0  0  0  0  0  0  0  0
  162.0400  201.9850  148.0780 C   0  0  0  0  0  2  0  0  0  0  0  0
  161.0740  201.6220  147.1610 C   0  0  1  0  0  3  0  0  0  0  0  0
  158.5140  201.3390  149.3880 O   0  0  0  0  0  0  0  0  0  0  0  0
  160.0950  201.9120  150.9990 N   0  0  0  0  0  2  0  0  0  0  0  0
  1  9  1  0  0  0  0
  3 18  1  0  0  0  0
  3  5  2  0  0  0  0
  5 14  1  0  0  0  0
  6  7  2  0  0  0  0
  6  4  1  0  0  0  0
  7 15  1  0  0  0  0
  8  2  1  0  0  0  0
  9  8  1  0  0  0  0
  9 10  2  0  0  0  0
 10 29  1  0  0  0  0
 11 12  1  0  0  0  0
 12 43  1  0  0  0  0
 12  8  2  0  0  0  0
 13 18  2  0  0  0  0
 14  1  2  0  0  0  0
 14  7  1  0  0  0  0
 15 10  1  0  0  0  0
 16 11  2  0  0  0  0
 16  1  1  0  0  0  0
 17  5  1  0  0  0  0
 17 19  2  0  0  0  0
 18 16  1  0  0  0  0
 19  6  1  0  0  0  0
 20 22  1  0  0  0  0
 21 25  1  0  0  0  0
 22 13  1  1  0  0  0
 23 20  1  0  0  0  0
 24 22  1  0  0  0  0
 25 23  1  0  0  0  0
 25 24  1  0  0  0  0
 27 28  1  1  0  0  0
 27 26  1  0  0  0  0
 27 17  1  0  0  0  0
 29 30  1  0  0  0  0
 30 31  1  0  0  0  0
 31 32  1  0  0  0  0
 32 33  1  0  0  0  0
 35 34  1  0  0  0  0
 35 36  1  0  0  0  0
 35 33  1  0  0  0  0
 36 37  1  6  0  0  0
 38 36  1  0  0  0  0
 39 38  1  0  0  0  0
 40 39  1  0  0  0  0
 40 42  1  0  0  0  0
 41 40  2  0  0  0  0
 44 50  1  0  0  0  0
 46 44  1  0  0  0  0
 47 46  1  0  0  0  0
 48 45  1  1  0  0  0
 48 47  1  0  0  0  0
 48 46  1  0  0  0  0
 49 44  2  0  0  0  0
 50 43  1  0  0  0  0
M  END
>  <MODEL>
7

>  <REMARK>
 VINA RESULT:      -5.5      2.652     10.331
  Name = 
  14 active torsions:
  status: ('A' for Active; 'I' for Inactive)
    1  A    between atoms: C_16  and  C_17
    2  A    between atoms: C_16  and  C_24
    3  A    between atoms: C_17  and  C_49
    4  A    between atoms: C_18  and  C_31
    5  A    between atoms: C_18  and  C_34
    6  A    between atoms: N_19  and  C_23
    7  A    between atoms: N_19  and  N_37
    8  A    between atoms: C_23  and  C_49
    9  A    between atoms: C_25  and  C_46
   10  A    between atoms: C_26  and  C_29
   11  A    between atoms: C_26  and  N_47
   12  A    between atoms: C_28  and  C_34
   13  A    between atoms: C_28  and  N_37
   14  A    between atoms: N_30  and  C_32
                            x       y       z     vdW  Elec       q    Type
                         _______ _______ _______ _____ _____    ______ ____

>  <TORSDO>
F 14

$$$$
