=
 OpenBabel11042421473D

 63 64  0  0  1  0  0  0  0  0999 V2000
  161.3040  211.5590  148.4050 C   0  0  1  0  0  0  0  0  0  0  0  0
  159.9450  212.1260  148.0070 C   0  0  0  0  0  1  0  0  0  0  0  0
  161.4300  211.5630  149.9280 C   0  0  0  0  0  2  0  0  0  0  0  0
  160.4760  212.4740  150.5470 N   0  0  0  0  0  2  0  0  0  0  0  0
  160.8070  212.5180  151.9640 C   0  0  0  0  0  2  0  0  0  0  0  0
  159.5470  212.6090  152.8150 C   0  0  1  0  0  3  0  0  0  0  0  0
  158.7860  214.4380  151.4820 O   0  0  0  0  0  1  0  0  0  0  0  0
  158.3960  213.2130  152.0250 C   0  0  0  0  0  2  0  0  0  0  0  0
  159.1640  211.2420  153.3720 C   0  0  0  0  0  2  0  0  0  0  0  0
  158.1710  211.3980  154.5160 C   0  0  2  0  0  3  0  0  0  0  0  0
  158.2850  210.3260  155.4050 O   0  0  0  0  0  0  0  0  0  0  0  0
  159.6320  209.9650  155.3570 C   0  0  0  0  0  2  0  0  0  0  0  0
  159.9820  209.1020  156.5560 C   0  0  0  0  0  2  0  0  0  0  0  0
  160.6330  207.8080  156.1040 C   0  0  0  0  0  1  0  0  0  0  0  0
  156.7320  211.5370  154.0000 C   0  0  0  0  0  2  0  0  0  0  0  0
  155.8410  212.3730  154.8780 C   0  0  0  0  0  0  0  0  0  0  0  0
  155.2370  213.5680  154.3760 N   0  0  0  0  0  2  0  0  0  0  0  0
  155.5650  211.9910  156.0460 O   0  0  0  0  0  0  0  0  0  0  0  0
  155.4620  214.0500  153.0230 C   0  0  0  0  0  1  0  0  0  0  0  0
  161.4320  210.1340  147.8600 C   0  0  0  0  0  2  0  0  0  0  0  0
  162.6150  209.4670  148.3990 N   0  0  0  0  0  2  0  0  0  0  0  0
  161.5360  206.6320  152.2430 C   0  0  0  0  0  0  0  0  0  0  0  0
  162.0230  208.9830  152.5200 C   0  0  0  0  0  3  0  0  0  0  0  0
  162.2110  208.2240  148.9150 N   0  0  0  0  0  0  0  0  0  0  0  0
  161.7020  207.7420  153.0780 C   0  0  0  0  0  3  0  0  0  0  0  0
  161.6830  206.7960  150.8620 C   0  0  0  0  0  3  0  0  0  0  0  0
  162.1690  209.1080  151.1730 N   0  0  0  0  0  0  0  0  0  0  0  0
  162.0130  208.0510  150.3310 C   0  0  0  0  0  0  0  0  0  0  0  0
  160.7100  205.2370  153.9620 O   0  0  0  0  0  0  0  0  0  0  0  0
  161.1970  203.9540  150.6390 C   0  0  0  0  0  0  0  0  0  0  0  0
  160.6730  204.8730  149.9550 O   0  0  0  0  0  0  0  0  0  0  0  0
  161.1730  205.3100  152.7930 C   0  0  0  0  0  0  0  0  0  0  0  0
  161.3620  204.0970  152.0530 N   0  0  0  0  0  2  0  0  0  0  0  0
  161.5710  202.6690  149.9810 C   0  0  0  0  0  2  0  0  0  0  0  0
  160.3480  201.7880  149.7850 C   0  0  0  0  0  2  0  0  0  0  0  0
  159.9870  201.7050  148.3140 C   0  0  0  0  0  2  0  0  0  0  0  0
  160.4610  202.7380  145.9320 C   0  0  0  0  0  1  0  0  0  0  0  0
  161.4510  202.0360  147.2870 S   0  0  0  0  0  0  0  0  0  0  0  0
  160.7680  206.9290  147.6070 O   0  0  0  0  0  1  0  0  0  0  0  0
  162.0970  207.1000  147.9910 C   0  0  0  0  0  2  0  0  0  0  0  0
  162.4060  212.4660  147.8560 C   0  0  0  0  0  2  0  0  0  0  0  0
  161.8860  213.7800  147.2810 C   0  0  0  0  0  2  0  0  0  0  0  0
  160.5300  213.7230  145.1720 C   0  0  0  0  0  0  0  0  0  0  0  0
  159.4630  213.5720  145.8330 O   0  0  0  0  0  0  0  0  0  0  0  0
  161.7980  213.6630  145.8320 N   0  0  0  0  0  0  0  0  0  0  0  0
  162.9330  213.7100  145.0980 O   0  0  0  0  0  1  0  0  0  0  0  0
  160.4810  213.9950  143.8030 O   0  0  0  0  0  0  0  0  0  0  0  0
  159.3010  213.3370  140.5590 C   0  0  0  0  0  0  0  0  0  0  0  0
  159.2860  213.9560  143.0930 C   0  0  0  0  0  3  0  0  0  0  0  0
  159.2870  213.6360  141.8310 C   0  0  0  0  0  0  0  0  0  0  0  0
  157.3890  214.4280  139.4060 C   0  0  0  0  0  1  0  0  0  0  0  0
  158.1180  213.2720  139.8090 O   0  0  0  0  0  0  0  0  0  0  0  0
  160.5530  213.0570  139.9360 N   0  0  0  0  0  2  0  0  0  0  0  0
  162.6780  210.1270  139.6010 N   0  0  0  0  0  2  0  0  0  0  0  0
  160.7120  210.7990  140.8390 C   0  0  0  0  0  2  0  0  0  0  0  0
  162.4540  211.5550  139.3840 C   0  0  2  0  0  3  0  0  0  0  0  0
  161.4650  212.0370  140.4400 C   0  0  1  0  0  3  0  0  0  0  0  0
  161.6980  209.6790  140.5930 C   0  0  0  0  0  2  0  0  0  0  0  0
  162.0450  211.8270  137.9250 C   0  0  1  0  0  3  0  0  0  0  0  0
  163.1430  212.2890  137.2010 O   0  0  0  0  0  1  0  0  0  0  0  0
  159.7600  208.8850  137.0220 C   0  0  0  0  0  1  0  0  0  0  0  0
  160.3250  210.0840  137.6970 C   0  0  0  0  0  3  0  0  0  0  0  0
  161.4600  210.6210  137.2540 C   0  0  0  0  0  3  0  0  0  0  0  0
  1  2  1  6  0  0  0
  1  3  1  0  0  0  0
  3  4  1  0  0  0  0
  4  5  1  0  0  0  0
  6  5  1  6  0  0  0
  6  9  1  0  0  0  0
  7  8  1  0  0  0  0
  8  6  1  0  0  0  0
 10  9  1  6  0  0  0
 10 11  1  0  0  0  0
 12 11  1  0  0  0  0
 12 13  1  0  0  0  0
 14 13  1  0  0  0  0
 15 10  1  0  0  0  0
 15 16  1  0  0  0  0
 16 18  2  0  0  0  0
 17 16  1  0  0  0  0
 19 17  1  0  0  0  0
 20 21  1  0  0  0  0
 20  1  1  0  0  0  0
 21 24  1  0  0  0  0
 22 32  1  0  0  0  0
 22 25  1  0  0  0  0
 23 25  2  0  0  0  0
 24 28  1  0  0  0  0
 26 22  2  0  0  0  0
 27 23  1  0  0  0  0
 28 26  1  0  0  0  0
 28 27  2  0  0  0  0
 30 33  1  0  0  0  0
 31 30  2  0  0  0  0
 32 29  2  0  0  0  0
 33 32  1  0  0  0  0
 34 30  1  0  0  0  0
 35 34  1  0  0  0  0
 36 35  1  0  0  0  0
 37 38  1  0  0  0  0
 38 36  1  0  0  0  0
 39 40  1  0  0  0  0
 40 24  1  0  0  0  0
 41  1  1  0  0  0  0
 42 41  1  0  0  0  0
 43 45  1  0  0  0  0
 43 44  2  0  0  0  0
 45 42  1  0  0  0  0
 46 45  1  0  0  0  0
 47 43  1  0  0  0  0
 48 50  2  0  0  0  0
 49 47  1  0  0  0  0
 50 49  2  0  0  0  0
 51 52  1  0  0  0  0
 52 48  1  0  0  0  0
 53 48  1  0  0  0  0
 54 58  1  0  0  0  0
 56 59  1  6  0  0  0
 56 54  1  0  0  0  0
 56 57  1  0  0  0  0
 57 53  1  6  0  0  0
 57 55  1  0  0  0  0
 58 55  1  0  0  0  0
 59 60  1  6  0  0  0
 61 62  1  0  0  0  0
 63 62  2  0  0  0  0
 63 59  1  0  0  0  0
M  END
>  <MODEL>
1

>  <REMARK>
 VINA RESULT:      -3.5      0.000      0.000
  Name = 
  31 active torsions:
  status: ('A' for Active; 'I' for Inactive)
    1  A    between atoms: C_1  and  N_12
    2  A    between atoms: C_1  and  C_22
    3  A    between atoms: C_2  and  C_22
    4  A    between atoms: C_2  and  C_35
    5  A    between atoms: C_2  and  C_44
    6  A    between atoms: C_3  and  N_37
    7  A    between atoms: C_3  and  O_40
    8  A    between atoms: C_5  and  O_42
    9  A    between atoms: O_7  and  C_18
   10  A    between atoms: O_7  and  C_20
   11  A    between atoms: C_9  and  C_36
   12  A    between atoms: N_10  and  C_33
   13  A    between atoms: N_10  and  C_44
   14  A    between atoms: C_13  and  C_29
   15  A    between atoms: C_13  and  C_54
   16  A    between atoms: C_15  and  C_39
   17  A    between atoms: N_17  and  C_35
   18  A    between atoms: N_17  and  N_48
   19  A    between atoms: C_18  and  C_36
   20  A    between atoms: C_18  and  C_57
   21  A    between atoms: C_19  and  N_48
   22  A    between atoms: C_20  and  C_47
   23  A    between atoms: C_24  and  C_46
   24  A    between atoms: C_29  and  C_31
   25  A    between atoms: C_30  and  O_42
   26  A    between atoms: C_33  and  C_53
   27  A    between atoms: N_37  and  C_51
   28  A    between atoms: C_38  and  C_39
   29  A    between atoms: C_45  and  C_53
   30  A    between atoms: C_53  and  C_57
   31  A    between atoms: C_54  and  S_55
                            x       y       z     vdW  Elec       q    Type
                         _______ _______ _______ _____ _____    ______ ____

>  <TORSDO>
F 31

$$$$
=
 OpenBabel11042421473D

 63 64  0  0  1  0  0  0  0  0999 V2000
  161.3370  211.5810  148.4290 C   0  0  1  0  0  0  0  0  0  0  0  0
  159.9620  212.0790  147.9980 C   0  0  0  0  0  1  0  0  0  0  0  0
  161.4460  211.6440  149.9530 C   0  0  0  0  0  2  0  0  0  0  0  0
  160.3370  212.3820  150.5440 N   0  0  0  0  0  2  0  0  0  0  0  0
  160.8460  212.9800  151.7700 C   0  0  0  0  0  2  0  0  0  0  0  0
  159.9180  212.6880  152.9430 C   0  0  1  0  0  3  0  0  0  0  0  0
  158.4000  214.4530  152.4150 O   0  0  0  0  0  1  0  0  0  0  0  0
  158.4840  213.0750  152.6160 C   0  0  0  0  0  2  0  0  0  0  0  0
  160.0040  211.2230  153.3560 C   0  0  0  0  0  2  0  0  0  0  0  0
  159.3520  211.0190  154.7180 C   0  0  2  0  0  3  0  0  0  0  0  0
  158.2380  211.8520  154.8500 O   0  0  0  0  0  0  0  0  0  0  0  0
  157.3540  211.1380  155.6600 C   0  0  0  0  0  2  0  0  0  0  0  0
  156.8230  212.0330  156.7650 C   0  0  0  0  0  2  0  0  0  0  0  0
  155.3070  212.0920  156.7160 C   0  0  0  0  0  1  0  0  0  0  0  0
  160.3500  211.2450  155.8620 C   0  0  0  0  0  2  0  0  0  0  0  0
  160.8440  209.9780  156.5070 C   0  0  0  0  0  0  0  0  0  0  0  0
  162.2290  209.8140  156.8220 N   0  0  0  0  0  2  0  0  0  0  0  0
  160.0300  209.0750  156.8360 O   0  0  0  0  0  0  0  0  0  0  0  0
  163.2260  210.8290  156.5240 C   0  0  0  0  0  1  0  0  0  0  0  0
  161.5280  210.1440  147.9370 C   0  0  0  0  0  2  0  0  0  0  0  0
  162.5140  209.4340  148.7500 N   0  0  0  0  0  2  0  0  0  0  0  0
  160.8670  205.7140  151.4760 C   0  0  0  0  0  0  0  0  0  0  0  0
  161.1170  207.9310  152.4040 C   0  0  0  0  0  3  0  0  0  0  0  0
  162.1010  208.0940  148.8540 N   0  0  0  0  0  0  0  0  0  0  0  0
  160.7770  206.5850  152.5660 C   0  0  0  0  0  3  0  0  0  0  0  0
  161.2850  206.2180  150.2400 C   0  0  0  0  0  3  0  0  0  0  0  0
  161.5290  208.3890  151.1920 N   0  0  0  0  0  0  0  0  0  0  0  0
  161.6270  207.5720  150.1090 C   0  0  0  0  0  0  0  0  0  0  0  0
  159.6990  203.9420  152.5140 O   0  0  0  0  0  0  0  0  0  0  0  0
  161.3350  203.4490  149.3500 C   0  0  0  0  0  0  0  0  0  0  0  0
  160.9560  204.4780  148.7300 O   0  0  0  0  0  0  0  0  0  0  0  0
  160.4930  204.2900  151.6010 C   0  0  0  0  0  0  0  0  0  0  0  0
  161.0330  203.2800  150.7390 N   0  0  0  0  0  2  0  0  0  0  0  0
  162.0300  202.3580  148.6100 C   0  0  0  0  0  2  0  0  0  0  0  0
  161.0250  201.4120  147.9740 C   0  0  0  0  0  2  0  0  0  0  0  0
  160.4840  202.0040  146.6860 C   0  0  0  0  0  2  0  0  0  0  0  0
  159.6180  201.8620  144.1970 C   0  0  0  0  0  1  0  0  0  0  0  0
  160.2640  200.7000  145.4370 S   0  0  0  0  0  0  0  0  0  0  0  0
  163.5050  206.6050  147.7220 O   0  0  0  0  0  1  0  0  0  0  0  0
  162.2620  207.2330  147.6860 C   0  0  0  0  0  2  0  0  0  0  0  0
  162.4090  212.5110  147.8600 C   0  0  0  0  0  2  0  0  0  0  0  0
  161.8440  213.7840  147.2350 C   0  0  0  0  0  2  0  0  0  0  0  0
  160.8120  214.1210  144.9740 C   0  0  0  0  0  0  0  0  0  0  0  0
  159.6820  214.3400  145.4950 O   0  0  0  0  0  0  0  0  0  0  0  0
  161.9010  213.6670  145.7860 N   0  0  0  0  0  0  0  0  0  0  0  0
  163.0710  213.3250  145.1990 O   0  0  0  0  0  1  0  0  0  0  0  0
  161.0240  214.3620  143.6150 O   0  0  0  0  0  0  0  0  0  0  0  0
  160.2260  213.4100  140.3270 C   0  0  0  0  0  0  0  0  0  0  0  0
  159.9680  214.4320  142.7130 C   0  0  0  0  0  3  0  0  0  0  0  0
  160.0880  213.9130  141.5250 C   0  0  0  0  0  0  0  0  0  0  0  0
  157.8100  213.3340  139.7550 C   0  0  0  0  0  1  0  0  0  0  0  0
  159.1830  213.4470  139.3930 O   0  0  0  0  0  0  0  0  0  0  0  0
  161.4680  212.7980  139.9820 N   0  0  0  0  0  2  0  0  0  0  0  0
  161.3450  210.1060  137.5430 N   0  0  0  0  0  2  0  0  0  0  0  0
  160.2090  210.7520  139.5780 C   0  0  0  0  0  2  0  0  0  0  0  0
  162.0450  211.2480  138.1270 C   0  0  2  0  0  3  0  0  0  0  0  0
  161.5620  211.4040  139.5660 C   0  0  1  0  0  3  0  0  0  0  0  0
  160.2980  209.7080  138.4870 C   0  0  0  0  0  2  0  0  0  0  0  0
  161.8860  212.4960  137.2400 C   0  0  1  0  0  3  0  0  0  0  0  0
  160.5720  212.9560  137.2960 O   0  0  0  0  0  1  0  0  0  0  0  0
  165.0400  214.4450  138.2150 C   0  0  0  0  0  1  0  0  0  0  0  0
  164.1180  213.3410  137.8370 C   0  0  0  0  0  3  0  0  0  0  0  0
  162.8300  213.5980  137.6180 C   0  0  0  0  0  3  0  0  0  0  0  0
  1  2  1  6  0  0  0
  1  3  1  0  0  0  0
  3  4  1  0  0  0  0
  4  5  1  0  0  0  0
  6  5  1  6  0  0  0
  6  9  1  0  0  0  0
  7  8  1  0  0  0  0
  8  6  1  0  0  0  0
 10  9  1  6  0  0  0
 10 11  1  0  0  0  0
 10 15  1  0  0  0  0
 11 12  1  0  0  0  0
 12 13  1  0  0  0  0
 14 13  1  0  0  0  0
 15 16  1  0  0  0  0
 16 17  1  0  0  0  0
 16 18  2  0  0  0  0
 19 17  1  0  0  0  0
 20  1  1  0  0  0  0
 20 21  1  0  0  0  0
 21 24  1  0  0  0  0
 22 32  1  0  0  0  0
 22 25  1  0  0  0  0
 23 25  2  0  0  0  0
 24 28  1  0  0  0  0
 26 22  2  0  0  0  0
 27 23  1  0  0  0  0
 28 26  1  0  0  0  0
 28 27  2  0  0  0  0
 30 33  1  0  0  0  0
 31 30  2  0  0  0  0
 32 29  2  0  0  0  0
 33 32  1  0  0  0  0
 34 30  1  0  0  0  0
 35 34  1  0  0  0  0
 36 35  1  0  0  0  0
 37 38  1  0  0  0  0
 38 36  1  0  0  0  0
 40 39  1  0  0  0  0
 40 24  1  0  0  0  0
 41  1  1  0  0  0  0
 42 41  1  0  0  0  0
 43 44  2  0  0  0  0
 43 45  1  0  0  0  0
 45 42  1  0  0  0  0
 46 45  1  0  0  0  0
 47 43  1  0  0  0  0
 48 50  2  0  0  0  0
 49 47  1  0  0  0  0
 50 49  2  0  0  0  0
 52 51  1  0  0  0  0
 52 48  1  0  0  0  0
 53 48  1  0  0  0  0
 54 56  1  0  0  0  0
 54 58  1  0  0  0  0
 56 59  1  6  0  0  0
 56 57  1  0  0  0  0
 57 55  1  0  0  0  0
 57 53  1  6  0  0  0
 58 55  1  0  0  0  0
 59 60  1  1  0  0  0
 59 63  1  0  0  0  0
 62 61  1  0  0  0  0
 63 62  2  0  0  0  0
M  END
>  <MODEL>
2

>  <REMARK>
 VINA RESULT:      -2.5      1.627      2.789
  Name = 
  31 active torsions:
  status: ('A' for Active; 'I' for Inactive)
    1  A    between atoms: C_1  and  N_12
    2  A    between atoms: C_1  and  C_22
    3  A    between atoms: C_2  and  C_22
    4  A    between atoms: C_2  and  C_35
    5  A    between atoms: C_2  and  C_44
    6  A    between atoms: C_3  and  N_37
    7  A    between atoms: C_3  and  O_40
    8  A    between atoms: C_5  and  O_42
    9  A    between atoms: O_7  and  C_18
   10  A    between atoms: O_7  and  C_20
   11  A    between atoms: C_9  and  C_36
   12  A    between atoms: N_10  and  C_33
   13  A    between atoms: N_10  and  C_44
   14  A    between atoms: C_13  and  C_29
   15  A    between atoms: C_13  and  C_54
   16  A    between atoms: C_15  and  C_39
   17  A    between atoms: N_17  and  C_35
   18  A    between atoms: N_17  and  N_48
   19  A    between atoms: C_18  and  C_36
   20  A    between atoms: C_18  and  C_57
   21  A    between atoms: C_19  and  N_48
   22  A    between atoms: C_20  and  C_47
   23  A    between atoms: C_24  and  C_46
   24  A    between atoms: C_29  and  C_31
   25  A    between atoms: C_30  and  O_42
   26  A    between atoms: C_33  and  C_53
   27  A    between atoms: N_37  and  C_51
   28  A    between atoms: C_38  and  C_39
   29  A    between atoms: C_45  and  C_53
   30  A    between atoms: C_53  and  C_57
   31  A    between atoms: C_54  and  S_55
                            x       y       z     vdW  Elec       q    Type
                         _______ _______ _______ _____ _____    ______ ____

>  <TORSDO>
F 31

$$$$
=
 OpenBabel11042421473D

 63 64  0  0  1  0  0  0  0  0999 V2000
  161.2440  211.4850  148.3200 C   0  0  1  0  0  0  0  0  0  0  0  0
  159.9010  212.0950  147.9340 C   0  0  0  0  0  1  0  0  0  0  0  0
  161.3590  211.4330  149.8430 C   0  0  0  0  0  2  0  0  0  0  0  0
  160.1140  211.8200  150.4930 N   0  0  0  0  0  2  0  0  0  0  0  0
  160.4470  212.1250  151.8770 C   0  0  0  0  0  2  0  0  0  0  0  0
  159.2090  212.5520  152.6540 C   0  0  1  0  0  3  0  0  0  0  0  0
  158.0230  214.4510  151.8250 O   0  0  0  0  0  1  0  0  0  0  0  0
  158.1250  213.0640  151.7170 C   0  0  0  0  0  2  0  0  0  0  0  0
  158.6850  211.4110  153.5190 C   0  0  0  0  0  2  0  0  0  0  0  0
  159.0320  211.6550  154.9820 C   0  0  2  0  0  3  0  0  0  0  0  0
  158.5230  212.8860  155.4010 O   0  0  0  0  0  0  0  0  0  0  0  0
  157.2980  212.5810  155.9970 C   0  0  0  0  0  2  0  0  0  0  0  0
  156.5080  213.8550  156.2430 C   0  0  0  0  0  2  0  0  0  0  0  0
  155.7340  214.2450  154.9970 C   0  0  0  0  0  1  0  0  0  0  0  0
  160.5450  211.5700  155.2250 C   0  0  0  0  0  2  0  0  0  0  0  0
  161.1830  210.3100  154.7060 C   0  0  0  0  0  0  0  0  0  0  0  0
  160.8310  209.0370  155.2520 N   0  0  0  0  0  2  0  0  0  0  0  0
  161.9870  210.3600  153.7380 O   0  0  0  0  0  0  0  0  0  0  0  0
  159.8720  208.8880  156.3350 C   0  0  0  0  0  1  0  0  0  0  0  0
  161.3460  210.0780  147.7260 C   0  0  0  0  0  2  0  0  0  0  0  0
  162.2220  209.2280  148.5290 N   0  0  0  0  0  2  0  0  0  0  0  0
  161.3580  204.8770  150.6060 C   0  0  0  0  0  0  0  0  0  0  0  0
  162.1530  206.7510  151.9100 C   0  0  0  0  0  3  0  0  0  0  0  0
  161.7490  207.9070  148.4310 N   0  0  0  0  0  0  0  0  0  0  0  0
  161.7680  205.4090  151.8330 C   0  0  0  0  0  3  0  0  0  0  0  0
  161.3310  205.7100  149.4830 C   0  0  0  0  0  3  0  0  0  0  0  0
  162.1250  207.5330  150.7980 N   0  0  0  0  0  0  0  0  0  0  0  0
  161.7310  207.0510  149.5880 C   0  0  0  0  0  0  0  0  0  0  0  0
  160.3420  202.9260  151.4650 O   0  0  0  0  0  0  0  0  0  0  0  0
  161.1440  203.1840  147.9700 C   0  0  0  0  0  0  0  0  0  0  0  0
  160.7060  204.3370  147.7150 O   0  0  0  0  0  0  0  0  0  0  0  0
  160.9210  203.4710  150.4890 C   0  0  0  0  0  0  0  0  0  0  0  0
  161.1660  202.6900  149.3120 N   0  0  0  0  0  2  0  0  0  0  0  0
  161.5630  202.2920  146.8500 C   0  0  0  0  0  2  0  0  0  0  0  0
  160.3520  201.7760  146.0910 C   0  0  0  0  0  2  0  0  0  0  0  0
  160.2270  200.2730  146.2550 C   0  0  0  0  0  2  0  0  0  0  0  0
  161.4510  199.8310  148.5510 C   0  0  0  0  0  1  0  0  0  0  0  0
  161.8150  199.5630  146.7890 S   0  0  0  0  0  0  0  0  0  0  0  0
  162.4220  206.6630  146.5690 O   0  0  0  0  0  1  0  0  0  0  0  0
  161.3770  207.4070  147.1110 C   0  0  0  0  0  2  0  0  0  0  0  0
  162.3690  212.3860  147.8120 C   0  0  0  0  0  2  0  0  0  0  0  0
  161.8790  213.7170  147.2460 C   0  0  0  0  0  2  0  0  0  0  0  0
  160.4920  213.8110  145.1580 C   0  0  0  0  0  0  0  0  0  0  0  0
  159.4260  213.7950  145.8370 O   0  0  0  0  0  0  0  0  0  0  0  0
  161.7550  213.6020  145.8010 N   0  0  0  0  0  0  0  0  0  0  0  0
  162.8760  213.5060  145.0500 O   0  0  0  0  0  1  0  0  0  0  0  0
  160.4560  214.0790  143.7880 O   0  0  0  0  0  0  0  0  0  0  0  0
  158.8750  213.7670  140.6650 C   0  0  0  0  0  0  0  0  0  0  0  0
  159.2790  214.4530  143.1490 C   0  0  0  0  0  3  0  0  0  0  0  0
  159.0680  214.1030  141.9130 C   0  0  0  0  0  0  0  0  0  0  0  0
  157.6380  214.2940  138.5760 C   0  0  0  0  0  1  0  0  0  0  0  0
  157.6980  214.1120  139.9870 O   0  0  0  0  0  0  0  0  0  0  0  0
  159.8880  213.0190  139.9940 N   0  0  0  0  0  2  0  0  0  0  0  0
  163.3510  211.9170  140.0730 N   0  0  0  0  0  2  0  0  0  0  0  0
  161.6340  212.5880  141.6390 C   0  0  0  0  0  2  0  0  0  0  0  0
  162.2050  212.4260  139.3210 C   0  0  2  0  0  3  0  0  0  0  0  0
  161.3050  213.1790  140.2970 C   0  0  1  0  0  3  0  0  0  0  0  0
  163.0680  212.1310  141.4950 C   0  0  0  0  0  2  0  0  0  0  0  0
  161.5230  211.2930  138.5350 C   0  0  1  0  0  3  0  0  0  0  0  0
  162.0710  211.2040  137.2570 O   0  0  0  0  0  1  0  0  0  0  0  0
  161.6420  207.5270  139.2370 C   0  0  0  0  0  1  0  0  0  0  0  0
  161.5480  208.8350  138.5330 C   0  0  0  0  0  3  0  0  0  0  0  0
  161.6200  209.9680  139.2270 C   0  0  0  0  0  3  0  0  0  0  0  0
  1  2  1  6  0  0  0
  1  3  1  0  0  0  0
  3  4  1  0  0  0  0
  4  5  1  0  0  0  0
  5  6  1  0  0  0  0
  6  8  1  6  0  0  0
  6  9  1  0  0  0  0
  8  7  1  0  0  0  0
 10  9  1  6  0  0  0
 10 15  1  0  0  0  0
 10 11  1  0  0  0  0
 11 12  1  0  0  0  0
 12 13  1  0  0  0  0
 14 13  1  0  0  0  0
 16 15  1  0  0  0  0
 16 17  1  0  0  0  0
 17 19  1  0  0  0  0
 18 16  2  0  0  0  0
 20  1  1  0  0  0  0
 20 21  1  0  0  0  0
 22 25  1  0  0  0  0
 24 21  1  0  0  0  0
 24 28  1  0  0  0  0
 25 23  2  0  0  0  0
 26 28  1  0  0  0  0
 26 22  2  0  0  0  0
 27 23  1  0  0  0  0
 28 27  2  0  0  0  0
 30 33  1  0  0  0  0
 31 30  2  0  0  0  0
 32 22  1  0  0  0  0
 32 29  2  0  0  0  0
 33 32  1  0  0  0  0
 34 30  1  0  0  0  0
 35 36  1  0  0  0  0
 35 34  1  0  0  0  0
 36 38  1  0  0  0  0
 38 37  1  0  0  0  0
 39 40  1  0  0  0  0
 40 24  1  0  0  0  0
 41  1  1  0  0  0  0
 42 41  1  0  0  0  0
 43 45  1  0  0  0  0
 43 44  2  0  0  0  0
 45 42  1  0  0  0  0
 46 45  1  0  0  0  0
 47 43  1  0  0  0  0
 48 50  2  0  0  0  0
 49 47  1  0  0  0  0
 50 49  2  0  0  0  0
 51 52  1  0  0  0  0
 52 48  1  0  0  0  0
 53 48  1  0  0  0  0
 54 58  1  0  0  0  0
 56 59  1  1  0  0  0
 56 54  1  0  0  0  0
 56 57  1  0  0  0  0
 57 53  1  6  0  0  0
 57 55  1  0  0  0  0
 58 55  1  0  0  0  0
 59 60  1  6  0  0  0
 59 63  1  0  0  0  0
 62 63  2  0  0  0  0
 62 61  1  0  0  0  0
M  END
>  <MODEL>
3

>  <REMARK>
 VINA RESULT:      -2.4      1.649      2.827
  Name = 
  31 active torsions:
  status: ('A' for Active; 'I' for Inactive)
    1  A    between atoms: C_1  and  N_12
    2  A    between atoms: C_1  and  C_22
    3  A    between atoms: C_2  and  C_22
    4  A    between atoms: C_2  and  C_35
    5  A    between atoms: C_2  and  C_44
    6  A    between atoms: C_3  and  N_37
    7  A    between atoms: C_3  and  O_40
    8  A    between atoms: C_5  and  O_42
    9  A    between atoms: O_7  and  C_18
   10  A    between atoms: O_7  and  C_20
   11  A    between atoms: C_9  and  C_36
   12  A    between atoms: N_10  and  C_33
   13  A    between atoms: N_10  and  C_44
   14  A    between atoms: C_13  and  C_29
   15  A    between atoms: C_13  and  C_54
   16  A    between atoms: C_15  and  C_39
   17  A    between atoms: N_17  and  C_35
   18  A    between atoms: N_17  and  N_48
   19  A    between atoms: C_18  and  C_36
   20  A    between atoms: C_18  and  C_57
   21  A    between atoms: C_19  and  N_48
   22  A    between atoms: C_20  and  C_47
   23  A    between atoms: C_24  and  C_46
   24  A    between atoms: C_29  and  C_31
   25  A    between atoms: C_30  and  O_42
   26  A    between atoms: C_33  and  C_53
   27  A    between atoms: N_37  and  C_51
   28  A    between atoms: C_38  and  C_39
   29  A    between atoms: C_45  and  C_53
   30  A    between atoms: C_53  and  C_57
   31  A    between atoms: C_54  and  S_55
                            x       y       z     vdW  Elec       q    Type
                         _______ _______ _______ _____ _____    ______ ____

>  <TORSDO>
F 31

$$$$
=
 OpenBabel11042421473D

 63 64  0  0  1  0  0  0  0  0999 V2000
  161.0470  207.3260  152.6490 C   0  0  1  0  0  0  0  0  0  0  0  0
  159.7050  207.3250  153.3730 C   0  0  0  0  0  1  0  0  0  0  0  0
  162.0140  208.2640  153.3710 C   0  0  0  0  0  2  0  0  0  0  0  0
  161.6390  208.4580  154.7660 N   0  0  0  0  0  2  0  0  0  0  0  0
  162.0000  209.8270  155.1040 C   0  0  0  0  0  2  0  0  0  0  0  0
  160.7600  210.7060  155.2140 C   0  0  1  0  0  3  0  0  0  0  0  0
  161.9930  211.4240  157.1280 O   0  0  0  0  0  1  0  0  0  0  0  0
  160.9380  211.7720  156.2840 C   0  0  0  0  0  2  0  0  0  0  0  0
  160.4170  211.3380  153.8690 C   0  0  0  0  0  2  0  0  0  0  0  0
  158.9210  211.6100  153.7800 C   0  0  2  0  0  3  0  0  0  0  0  0
  158.6900  212.8350  153.1480 O   0  0  0  0  0  0  0  0  0  0  0  0
  159.5980  212.8660  152.0890 C   0  0  0  0  0  2  0  0  0  0  0  0
  159.3990  214.1300  151.2710 C   0  0  0  0  0  2  0  0  0  0  0  0
  157.9190  214.4200  151.0980 C   0  0  0  0  0  1  0  0  0  0  0  0
  158.2550  211.5670  155.1620 C   0  0  0  0  0  2  0  0  0  0  0  0
  157.7290  212.8950  155.6340 C   0  0  0  0  0  0  0  0  0  0  0  0
  156.6450  212.9590  156.5640 N   0  0  0  0  0  2  0  0  0  0  0  0
  158.2830  213.9640  155.2640 O   0  0  0  0  0  0  0  0  0  0  0  0
  155.9850  211.7710  157.0800 C   0  0  0  0  0  1  0  0  0  0  0  0
  161.6030  205.9000  152.6210 C   0  0  0  0  0  2  0  0  0  0  0  0
  162.5800  205.7350  151.5470 N   0  0  0  0  0  2  0  0  0  0  0  0
  161.5830  204.5090  146.9120 C   0  0  0  0  0  0  0  0  0  0  0  0
  162.8310  206.5110  147.4360 C   0  0  0  0  0  3  0  0  0  0  0  0
  162.0510  204.8210  150.6200 N   0  0  0  0  0  0  0  0  0  0  0  0
  162.2440  205.6670  146.4890 C   0  0  0  0  0  3  0  0  0  0  0  0
  161.5380  204.2170  148.2780 C   0  0  0  0  0  3  0  0  0  0  0  0
  162.7620  206.2050  148.7590 N   0  0  0  0  0  0  0  0  0  0  0  0
  162.1290  205.0870  149.2070 C   0  0  0  0  0  0  0  0  0  0  0  0
  160.4650  202.5040  146.3550 O   0  0  0  0  0  0  0  0  0  0  0  0
  160.8240  205.1330  143.9290 C   0  0  0  0  0  0  0  0  0  0  0  0
  160.4950  206.1340  144.6200 O   0  0  0  0  0  0  0  0  0  0  0  0
  160.9720  203.5800  145.9400 C   0  0  0  0  0  0  0  0  0  0  0  0
  160.9650  203.8430  144.5310 N   0  0  0  0  0  2  0  0  0  0  0  0
  160.9830  205.2780  142.4530 C   0  0  0  0  0  2  0  0  0  0  0  0
  162.0340  206.3260  142.1250 C   0  0  0  0  0  2  0  0  0  0  0  0
  161.8930  206.7820  140.6850 C   0  0  0  0  0  2  0  0  0  0  0  0
  161.9550  208.5870  138.7600 C   0  0  0  0  0  1  0  0  0  0  0  0
  162.0870  208.5870  140.5740 S   0  0  0  0  0  0  0  0  0  0  0  0
  161.6310  202.5350  150.3580 O   0  0  0  0  0  1  0  0  0  0  0  0
  161.3390  203.6550  151.1330 C   0  0  0  0  0  2  0  0  0  0  0  0
  160.8530  207.8760  151.2360 C   0  0  0  0  0  2  0  0  0  0  0  0
  162.0330  208.7060  150.7370 C   0  0  0  0  0  2  0  0  0  0  0  0
  161.9140  211.0430  149.8330 C   0  0  0  0  0  0  0  0  0  0  0  0
  162.3790  211.5100  150.9110 O   0  0  0  0  0  0  0  0  0  0  0  0
  161.5570  209.6590  149.7450 N   0  0  0  0  0  0  0  0  0  0  0  0
  160.9530  209.1980  148.6260 O   0  0  0  0  0  1  0  0  0  0  0  0
  161.7870  211.8570  148.7050 O   0  0  0  0  0  0  0  0  0  0  0  0
  160.1500  212.8590  145.7610 C   0  0  0  0  0  0  0  0  0  0  0  0
  160.5510  212.3350  148.2850 C   0  0  0  0  0  3  0  0  0  0  0  0
  160.3420  212.5870  147.0250 C   0  0  0  0  0  0  0  0  0  0  0  0
  158.2010  214.3930  145.9160 C   0  0  0  0  0  1  0  0  0  0  0  0
  158.9160  213.3290  145.2930 O   0  0  0  0  0  0  0  0  0  0  0  0
  161.2260  212.6550  144.8470 N   0  0  0  0  0  2  0  0  0  0  0  0
  163.4800  214.1180  142.3990 N   0  0  0  0  0  2  0  0  0  0  0  0
  163.3250  213.8900  144.8020 C   0  0  0  0  0  2  0  0  0  0  0  0
  162.1740  213.5530  142.7330 C   0  0  2  0  0  3  0  0  0  0  0  0
  161.9430  213.7620  144.2270 C   0  0  1  0  0  3  0  0  0  0  0  0
  164.1450  214.4520  143.6620 C   0  0  0  0  0  2  0  0  0  0  0  0
  162.0700  212.0970  142.2470 C   0  0  1  0  0  3  0  0  0  0  0  0
  160.7560  211.6470  142.3700 O   0  0  0  0  0  1  0  0  0  0  0  0
  162.7130  212.6370  138.5080 C   0  0  0  0  0  1  0  0  0  0  0  0
  162.2420  212.8270  139.9060 C   0  0  0  0  0  3  0  0  0  0  0  0
  162.5400  211.9230  140.8350 C   0  0  0  0  0  3  0  0  0  0  0  0
  1  3  1  0  0  0  0
  1  2  1  1  0  0  0
  3  4  1  0  0  0  0
  4  5  1  0  0  0  0
  5  6  1  0  0  0  0
  6  9  1  6  0  0  0
  6  8  1  0  0  0  0
  8  7  1  0  0  0  0
 10  9  1  1  0  0  0
 10 15  1  0  0  0  0
 11 10  1  0  0  0  0
 12 11  1  0  0  0  0
 13 12  1  0  0  0  0
 14 13  1  0  0  0  0
 15 16  1  0  0  0  0
 16 17  1  0  0  0  0
 17 19  1  0  0  0  0
 18 16  2  0  0  0  0
 20  1  1  0  0  0  0
 21 20  1  0  0  0  0
 22 26  1  0  0  0  0
 23 27  2  0  0  0  0
 24 40  1  0  0  0  0
 24 21  1  0  0  0  0
 25 22  2  0  0  0  0
 25 23  1  0  0  0  0
 26 28  2  0  0  0  0
 27 28  1  0  0  0  0
 28 24  1  0  0  0  0
 30 33  1  0  0  0  0
 30 31  2  0  0  0  0
 32 29  2  0  0  0  0
 32 22  1  0  0  0  0
 33 32  1  0  0  0  0
 34 30  1  0  0  0  0
 35 34  1  0  0  0  0
 36 35  1  0  0  0  0
 37 38  1  0  0  0  0
 38 36  1  0  0  0  0
 39 40  1  0  0  0  0
 41  1  1  0  0  0  0
 42 41  1  0  0  0  0
 43 44  2  0  0  0  0
 45 43  1  0  0  0  0
 45 42  1  0  0  0  0
 46 45  1  0  0  0  0
 47 43  1  0  0  0  0
 48 50  2  0  0  0  0
 49 47  1  0  0  0  0
 50 49  2  0  0  0  0
 52 48  1  0  0  0  0
 52 51  1  0  0  0  0
 53 48  1  0  0  0  0
 54 56  1  0  0  0  0
 54 58  1  0  0  0  0
 56 59  1  1  0  0  0
 56 57  1  0  0  0  0
 57 55  1  0  0  0  0
 57 53  1  1  0  0  0
 58 55  1  0  0  0  0
 59 60  1  6  0  0  0
 61 62  1  0  0  0  0
 62 63  2  0  0  0  0
 63 59  1  0  0  0  0
M  END
>  <MODEL>
4

>  <REMARK>
 VINA RESULT:      -1.3      2.739      5.730
  Name = 
  31 active torsions:
  status: ('A' for Active; 'I' for Inactive)
    1  A    between atoms: C_1  and  N_12
    2  A    between atoms: C_1  and  C_22
    3  A    between atoms: C_2  and  C_22
    4  A    between atoms: C_2  and  C_35
    5  A    between atoms: C_2  and  C_44
    6  A    between atoms: C_3  and  N_37
    7  A    between atoms: C_3  and  O_40
    8  A    between atoms: C_5  and  O_42
    9  A    between atoms: O_7  and  C_18
   10  A    between atoms: O_7  and  C_20
   11  A    between atoms: C_9  and  C_36
   12  A    between atoms: N_10  and  C_33
   13  A    between atoms: N_10  and  C_44
   14  A    between atoms: C_13  and  C_29
   15  A    between atoms: C_13  and  C_54
   16  A    between atoms: C_15  and  C_39
   17  A    between atoms: N_17  and  C_35
   18  A    between atoms: N_17  and  N_48
   19  A    between atoms: C_18  and  C_36
   20  A    between atoms: C_18  and  C_57
   21  A    between atoms: C_19  and  N_48
   22  A    between atoms: C_20  and  C_47
   23  A    between atoms: C_24  and  C_46
   24  A    between atoms: C_29  and  C_31
   25  A    between atoms: C_30  and  O_42
   26  A    between atoms: C_33  and  C_53
   27  A    between atoms: N_37  and  C_51
   28  A    between atoms: C_38  and  C_39
   29  A    between atoms: C_45  and  C_53
   30  A    between atoms: C_53  and  C_57
   31  A    between atoms: C_54  and  S_55
                            x       y       z     vdW  Elec       q    Type
                         _______ _______ _______ _____ _____    ______ ____

>  <TORSDO>
F 31

$$$$
=
 OpenBabel11042421473D

 63 64  0  0  1  0  0  0  0  0999 V2000
  162.0640  205.2650  147.2930 C   0  0  1  0  0  0  0  0  0  0  0  0
  163.3510  204.5820  146.8420 C   0  0  0  0  0  1  0  0  0  0  0  0
  161.2150  204.2740  148.0880 C   0  0  0  0  0  2  0  0  0  0  0  0
  161.9520  203.7090  149.2110 N   0  0  0  0  0  2  0  0  0  0  0  0
  160.9950  202.9280  149.9820 C   0  0  0  0  0  2  0  0  0  0  0  0
  160.8300  201.5330  149.3940 C   0  0  1  0  0  3  0  0  0  0  0  0
  158.5690  202.1830  149.7960 O   0  0  0  0  0  1  0  0  0  0  0  0
  159.3610  201.1510  149.2930 C   0  0  0  0  0  2  0  0  0  0  0  0
  161.5120  201.4290  148.0340 C   0  0  0  0  0  2  0  0  0  0  0  0
  160.4740  201.2370  146.9360 C   0  0  2  0  0  3  0  0  0  0  0  0
  160.3500  199.8810  146.6200 O   0  0  0  0  0  0  0  0  0  0  0  0
  161.6380  199.3620  146.7650 C   0  0  0  0  0  2  0  0  0  0  0  0
  161.9150  198.3490  145.6680 C   0  0  0  0  0  2  0  0  0  0  0  0
  160.6480  198.0590  144.8840 C   0  0  0  0  0  1  0  0  0  0  0  0
  160.8110  202.0660  145.6890 C   0  0  0  0  0  2  0  0  0  0  0  0
  159.8710  201.8490  144.5340 C   0  0  0  0  0  0  0  0  0  0  0  0
  158.9300  202.8590  144.1620 N   0  0  0  0  0  2  0  0  0  0  0  0
  159.9500  200.8010  143.8400 O   0  0  0  0  0  0  0  0  0  0  0  0
  158.8100  204.1190  144.8770 C   0  0  0  0  0  1  0  0  0  0  0  0
  162.4170  206.4800  148.1550 C   0  0  0  0  0  2  0  0  0  0  0  0
  161.2540  207.3440  148.3510 N   0  0  0  0  0  2  0  0  0  0  0  0
  161.1540  207.7900  153.2270 C   0  0  0  0  0  0  0  0  0  0  0  0
  160.6340  205.6890  152.1510 C   0  0  0  0  0  3  0  0  0  0  0  0
  161.4790  208.1150  149.5040 N   0  0  0  0  0  0  0  0  0  0  0  0
  160.7680  206.4490  153.3170 C   0  0  0  0  0  3  0  0  0  0  0  0
  161.4100  208.3370  151.9650 C   0  0  0  0  0  3  0  0  0  0  0  0
  160.8820  206.2520  150.9380 N   0  0  0  0  0  0  0  0  0  0  0  0
  161.2600  207.5520  150.8120 C   0  0  0  0  0  0  0  0  0  0  0  0
  162.2150  208.3030  155.2740 O   0  0  0  0  0  0  0  0  0  0  0  0
  159.9810  210.6600  153.7310 C   0  0  0  0  0  0  0  0  0  0  0  0
  160.3900  210.6220  152.5400 O   0  0  0  0  0  0  0  0  0  0  0  0
  161.3300  208.6190  154.4370 C   0  0  0  0  0  0  0  0  0  0  0  0
  160.5000  209.7550  154.7110 N   0  0  0  0  0  2  0  0  0  0  0  0
  159.0100  211.7130  154.1430 C   0  0  0  0  0  2  0  0  0  0  0  0
  158.8470  212.7540  153.0470 C   0  0  0  0  0  2  0  0  0  0  0  0
  157.4020  213.2080  152.9620 C   0  0  0  0  0  2  0  0  0  0  0  0
  156.1060  211.9610  154.8940 C   0  0  0  0  0  1  0  0  0  0  0  0
  156.7760  213.6290  154.6170 S   0  0  0  0  0  0  0  0  0  0  0  0
  162.6950  209.6640  148.2430 O   0  0  0  0  0  1  0  0  0  0  0  0
  161.8400  209.5180  149.3340 C   0  0  0  0  0  2  0  0  0  0  0  0
  161.2530  205.6720  146.0630 C   0  0  0  0  0  2  0  0  0  0  0  0
  161.9450  205.3470  144.7410 C   0  0  0  0  0  2  0  0  0  0  0  0
  161.9890  206.2040  142.3840 C   0  0  0  0  0  0  0  0  0  0  0  0
  163.0300  205.5320  142.1340 O   0  0  0  0  0  0  0  0  0  0  0  0
  161.4930  206.2860  143.7250 N   0  0  0  0  0  0  0  0  0  0  0  0
  160.4480  207.1000  143.9990 O   0  0  0  0  0  1  0  0  0  0  0  0
  161.2860  206.8320  141.3540 O   0  0  0  0  0  0  0  0  0  0  0  0
  161.7630  210.0510  140.0270 C   0  0  0  0  0  0  0  0  0  0  0  0
  161.9430  207.4630  140.3030 C   0  0  0  0  0  3  0  0  0  0  0  0
  161.8660  208.7560  140.1680 C   0  0  0  0  0  0  0  0  0  0  0  0
  161.7290  211.3960  137.9380 C   0  0  0  0  0  1  0  0  0  0  0  0
  162.4190  210.7290  138.9910 O   0  0  0  0  0  0  0  0  0  0  0  0
  160.9740  210.7810  140.9660 N   0  0  0  0  0  2  0  0  0  0  0  0
  158.7430  213.5720  141.6270 N   0  0  0  0  0  2  0  0  0  0  0  0
  158.8890  211.7000  140.1040 C   0  0  0  0  0  2  0  0  0  0  0  0
  160.0420  212.9260  141.8030 C   0  0  2  0  0  3  0  0  0  0  0  0
  160.2710  212.0060  140.6080 C   0  0  1  0  0  3  0  0  0  0  0  0
  158.0790  212.9140  140.4990 C   0  0  0  0  0  2  0  0  0  0  0  0
  160.1300  212.2490  143.1820 C   0  0  1  0  0  3  0  0  0  0  0  0
  161.3730  212.5050  143.7590 O   0  0  0  0  0  1  0  0  0  0  0  0
  158.2280  213.6610  146.1950 C   0  0  0  0  0  1  0  0  0  0  0  0
  159.3260  213.2410  145.2830 C   0  0  0  0  0  3  0  0  0  0  0  0
  159.0370  212.6820  144.1110 C   0  0  0  0  0  3  0  0  0  0  0  0
  1  2  1  6  0  0  0
  1  3  1  0  0  0  0
  1 20  1  0  0  0  0
  3  4  1  0  0  0  0
  4  5  1  0  0  0  0
  6  9  1  6  0  0  0
  6  5  1  0  0  0  0
  8  6  1  0  0  0  0
  8  7  1  0  0  0  0
 10 15  1  6  0  0  0
 10  9  1  0  0  0  0
 11 12  1  0  0  0  0
 11 10  1  0  0  0  0
 13 12  1  0  0  0  0
 14 13  1  0  0  0  0
 16 15  1  0  0  0  0
 17 16  1  0  0  0  0
 17 19  1  0  0  0  0
 18 16  2  0  0  0  0
 20 21  1  0  0  0  0
 21 24  1  0  0  0  0
 22 25  1  0  0  0  0
 22 32  1  0  0  0  0
 23 25  2  0  0  0  0
 24 28  1  0  0  0  0
 26 22  2  0  0  0  0
 27 23  1  0  0  0  0
 28 27  2  0  0  0  0
 28 26  1  0  0  0  0
 30 34  1  0  0  0  0
 30 33  1  0  0  0  0
 31 30  2  0  0  0  0
 32 33  1  0  0  0  0
 32 29  2  0  0  0  0
 35 34  1  0  0  0  0
 36 35  1  0  0  0  0
 36 38  1  0  0  0  0
 38 37  1  0  0  0  0
 39 40  1  0  0  0  0
 40 24  1  0  0  0  0
 41  1  1  0  0  0  0
 42 41  1  0  0  0  0
 43 45  1  0  0  0  0
 44 43  2  0  0  0  0
 45 46  1  0  0  0  0
 45 42  1  0  0  0  0
 47 43  1  0  0  0  0
 48 50  2  0  0  0  0
 48 53  1  0  0  0  0
 49 47  1  0  0  0  0
 50 49  2  0  0  0  0
 51 52  1  0  0  0  0
 52 48  1  0  0  0  0
 54 56  1  0  0  0  0
 55 58  1  0  0  0  0
 55 57  1  0  0  0  0
 56 59  1  1  0  0  0
 57 53  1  1  0  0  0
 57 56  1  0  0  0  0
 58 54  1  0  0  0  0
 59 60  1  1  0  0  0
 59 63  1  0  0  0  0
 62 61  1  0  0  0  0
 63 62  2  0  0  0  0
M  END
>  <MODEL>
5

>  <REMARK>
 VINA RESULT:      -0.6      3.456      8.976
  Name = 
  31 active torsions:
  status: ('A' for Active; 'I' for Inactive)
    1  A    between atoms: C_1  and  N_12
    2  A    between atoms: C_1  and  C_22
    3  A    between atoms: C_2  and  C_22
    4  A    between atoms: C_2  and  C_35
    5  A    between atoms: C_2  and  C_44
    6  A    between atoms: C_3  and  N_37
    7  A    between atoms: C_3  and  O_40
    8  A    between atoms: C_5  and  O_42
    9  A    between atoms: O_7  and  C_18
   10  A    between atoms: O_7  and  C_20
   11  A    between atoms: C_9  and  C_36
   12  A    between atoms: N_10  and  C_33
   13  A    between atoms: N_10  and  C_44
   14  A    between atoms: C_13  and  C_29
   15  A    between atoms: C_13  and  C_54
   16  A    between atoms: C_15  and  C_39
   17  A    between atoms: N_17  and  C_35
   18  A    between atoms: N_17  and  N_48
   19  A    between atoms: C_18  and  C_36
   20  A    between atoms: C_18  and  C_57
   21  A    between atoms: C_19  and  N_48
   22  A    between atoms: C_20  and  C_47
   23  A    between atoms: C_24  and  C_46
   24  A    between atoms: C_29  and  C_31
   25  A    between atoms: C_30  and  O_42
   26  A    between atoms: C_33  and  C_53
   27  A    between atoms: N_37  and  C_51
   28  A    between atoms: C_38  and  C_39
   29  A    between atoms: C_45  and  C_53
   30  A    between atoms: C_53  and  C_57
   31  A    between atoms: C_54  and  S_55
                            x       y       z     vdW  Elec       q    Type
                         _______ _______ _______ _____ _____    ______ ____

>  <TORSDO>
F 31

$$$$
