=
 OpenBabel11042420473D

 48 52  0  0  1  0  0  0  0  0999 V2000
  161.2000  206.9600  152.3910 S   0  0  0  0  0  0  0  0  0  0  0  0
  161.9850  206.4230  150.8230 C   0  0  2  0  0  3  0  0  0  0  0  0
  160.9450  208.5750  151.6430 C   0  0  2  0  0  3  0  0  0  0  0  0
  162.5830  207.5780  150.1390 N   0  0  0  0  0  2  0  0  0  0  0  0
  162.1220  208.8310  150.7280 C   0  0  1  0  0  3  0  0  0  0  0  0
  161.9950  209.9850  153.4650 O   0  0  0  0  0  0  0  0  0  0  0  0
  159.7830  210.0670  153.1800 N   0  0  0  0  0  0  0  0  0  0  0  0
  161.5790  210.8530  154.5040 C   0  0  0  0  0  2  0  0  0  0  0  0
  160.8910  209.5810  152.7460 C   0  0  0  0  0  0  0  0  0  0  0  0
  160.0570  210.8650  154.3570 C   0  0  1  0  0  3  0  0  0  0  0  0
  159.4770  212.2790  154.2690 C   0  0  2  0  0  3  0  0  0  0  0  0
  159.9930  213.0640  155.2900 O   0  0  0  0  0  1  0  0  0  0  0  0
  156.1270  211.6920  155.9540 C   0  0  2  0  0  3  0  0  0  0  0  0
  156.0430  213.2050  155.7530 C   0  0  2  0  0  3  0  0  0  0  0  0
  156.0350  213.6990  153.3690 C   0  0  0  0  0  2  0  0  0  0  0  0
  157.9290  212.3910  154.1980 C   0  0  2  0  0  3  0  0  0  0  0  0
  155.3100  213.5360  154.5940 O   0  0  0  0  0  0  0  0  0  0  0  0
  157.5380  213.6820  153.5010 C   0  0  0  0  0  2  0  0  0  0  0  0
  157.3900  212.4920  155.6240 C   0  0  2  0  0  3  0  0  0  0  0  0
  154.9120  209.7440  155.3070 O   0  0  0  0  0  1  0  0  0  0  0  0
  155.6010  210.8430  154.8000 C   0  0  0  0  0  2  0  0  0  0  0  0
  161.0890  206.4170  148.6190 C   0  0  0  0  0  1  0  0  0  0  0  0
  161.0330  205.7490  149.9210 N   0  0  0  0  0  0  0  0  0  0  0  0
  160.3880  203.3770  150.4370 C   0  0  0  0  0  2  0  0  0  0  0  0
  161.3950  204.3230  149.7710 C   0  0  1  0  0  3  0  0  0  0  0  0
  160.9910  202.4970  148.3570 C   0  0  0  0  0  0  0  0  0  0  0  0
  160.3410  202.2520  149.4770 C   0  0  0  0  0  0  0  0  0  0  0  0
  161.6040  203.8530  148.3260 C   0  0  0  0  0  2  0  0  0  0  0  0
  159.6840  201.0610  149.7380 O   0  0  0  0  0  1  0  0  0  0  0  0
  161.0190  201.5870  147.2600 N   0  0  0  0  0  2  0  0  0  0  0  0
  160.6420  201.9990  145.9120 C   0  0  0  0  0  2  0  0  0  0  0  0
  159.5680  204.0730  144.1900 O   0  0  0  0  0  0  0  0  0  0  0  0
  161.5310  205.4140  144.2300 C   0  0  0  0  0  1  0  0  0  0  0  0
  160.7300  204.2250  144.6470 C   0  0  0  0  0  0  0  0  0  0  0  0
  161.2930  203.2510  145.5440 N   0  0  0  0  0  2  0  0  0  0  0  0
  161.7130  209.8050  149.6200 C   0  0  0  0  0  2  0  0  0  0  0  0
  162.2620  211.1970  149.8710 C   0  0  0  0  0  2  0  0  0  0  0  0
  162.2240  212.0240  148.6370 C   0  0  0  0  0  0  0  0  0  0  0  0
  161.0300  212.7450  148.3100 N   0  0  0  0  0  2  0  0  0  0  0  0
  163.2330  212.0690  147.8760 O   0  0  0  0  0  0  0  0  0  0  0  0
  160.8720  213.5240  147.0930 C   0  0  0  0  0  2  0  0  0  0  0  0
  160.4500  212.6420  145.9150 C   0  0  0  0  0  2  0  0  0  0  0  0
  159.4230  213.3210  145.0260 C   0  0  2  0  0  3  0  0  0  0  0  0
  158.2790  212.5140  144.9240 O   0  0  0  0  0  1  0  0  0  0  0  0
  159.9740  213.6250  143.6440 C   0  0  0  0  0  2  0  0  0  0  0  0
  162.3030  212.6040  143.1090 C   0  0  0  0  0  1  0  0  0  0  0  0
  160.8180  212.4910  143.1480 C   0  0  0  0  0  0  0  0  0  0  0  0
  160.2860  211.4570  142.7850 O   0  0  0  0  0  0  0  0  0  0  0  0
  2 23  1  6  0  0  0
  2  1  1  0  0  0  0
  3  1  1  0  0  0  0
  3  9  1  1  0  0  0
  4  5  1  0  0  0  0
  4  2  1  0  0  0  0
  5 36  1  6  0  0  0
  5  3  1  0  0  0  0
  6  8  1  0  0  0  0
  7 10  1  0  0  0  0
  9  7  2  0  0  0  0
  9  6  1  0  0  0  0
 10 11  1  6  0  0  0
 10  8  1  0  0  0  0
 11 12  1  1  0  0  0
 13 21  1  6  0  0  0
 14 17  1  6  0  0  0
 14 13  1  0  0  0  0
 15 18  1  0  0  0  0
 15 17  1  0  0  0  0
 16 11  1  1  0  0  0
 16 19  1  0  0  0  0
 18 16  1  0  0  0  0
 19 14  1  0  0  0  0
 19 13  1  0  0  0  0
 21 20  1  0  0  0  0
 22 23  1  0  0  0  0
 25 23  1  0  0  0  0
 25 24  1  0  0  0  0
 26 27  2  0  0  0  0
 27 29  1  0  0  0  0
 27 24  1  0  0  0  0
 28 26  1  0  0  0  0
 28 25  1  0  0  0  0
 30 26  1  0  0  0  0
 31 30  1  0  0  0  0
 32 34  2  0  0  0  0
 33 34  1  0  0  0  0
 34 35  1  0  0  0  0
 35 31  1  0  0  0  0
 36 37  1  0  0  0  0
 38 37  1  0  0  0  0
 39 38  1  0  0  0  0
 40 38  2  0  0  0  0
 41 39  1  0  0  0  0
 42 41  1  0  0  0  0
 43 42  1  0  0  0  0
 44 43  1  0  0  0  0
 45 43  1  0  0  0  0
 46 47  1  0  0  0  0
 47 45  1  0  0  0  0
 48 47  2  0  0  0  0
M  END
>  <MODEL>
1

>  <REMARK>
 VINA RESULT:      -7.5      0.000      0.000
  Name = 
  17 active torsions:
  status: ('A' for Active; 'I' for Inactive)
    1  A    between atoms: C_1  and  C_25
    2  A    between atoms: C_1  and  C_46
    3  A    between atoms: C_2  and  C_9
    4  A    between atoms: C_2  and  C_24
    5  A    between atoms: C_3  and  C_36
    6  A    between atoms: C_3  and  C_45
    7  A    between atoms: C_7  and  C_30
    8  A    between atoms: C_9  and  C_17
    9  A    between atoms: C_10  and  N_37
   10  A    between atoms: C_14  and  C_36
   11  A    between atoms: C_18  and  N_37
   12  A    between atoms: C_19  and  N_21
   13  A    between atoms: N_21  and  C_27
   14  A    between atoms: C_24  and  C_29
   15  A    between atoms: C_26  and  C_33
   16  A    between atoms: C_27  and  N_48
   17  A    between atoms: C_29  and  N_32
                            x       y       z     vdW  Elec       q    Type
                         _______ _______ _______ _____ _____    ______ ____

>  <TORSDO>
F 17

$$$$
=
 OpenBabel11042420473D

 48 52  0  0  1  0  0  0  0  0999 V2000
  161.7920  208.6340  149.9910 S   0  0  0  0  0  0  0  0  0  0  0  0
  162.0110  210.1600  150.9840 C   0  0  2  0  0  3  0  0  0  0  0  0
  160.9350  207.9110  151.3970 C   0  0  2  0  0  3  0  0  0  0  0  0
  162.0430  209.8280  152.4150 N   0  0  0  0  0  2  0  0  0  0  0  0
  161.5890  208.4610  152.6450 C   0  0  1  0  0  3  0  0  0  0  0  0
  161.1070  205.5980  152.4120 O   0  0  0  0  0  0  0  0  0  0  0  0
  161.3450  205.8260  150.2040 N   0  0  0  0  0  0  0  0  0  0  0  0
  161.3920  204.2770  151.9910 C   0  0  0  0  0  2  0  0  0  0  0  0
  161.0960  206.4290  151.3120 C   0  0  0  0  0  0  0  0  0  0  0  0
  161.6200  204.4330  150.4870 C   0  0  1  0  0  3  0  0  0  0  0  0
  160.7680  203.4730  149.6510 C   0  0  2  0  0  3  0  0  0  0  0  0
  161.0490  202.1620  150.0080 O   0  0  0  0  0  1  0  0  0  0  0  0
  161.8540  205.6060  146.7050 C   0  0  2  0  0  3  0  0  0  0  0  0
  162.6020  204.3150  146.3680 C   0  0  2  0  0  3  0  0  0  0  0  0
  160.9920  202.5400  145.9430 C   0  0  0  0  0  2  0  0  0  0  0  0
  160.8200  203.6620  148.1100 C   0  0  2  0  0  3  0  0  0  0  0  0
  161.8940  203.5310  145.4340 O   0  0  0  0  0  0  0  0  0  0  0  0
  161.0470  202.3210  147.4350 C   0  0  0  0  0  2  0  0  0  0  0  0
  162.0360  204.5240  147.7730 C   0  0  2  0  0  3  0  0  0  0  0  0
  160.4590  206.3970  144.9390 O   0  0  0  0  0  1  0  0  0  0  0  0
  160.4360  205.7080  146.1500 C   0  0  0  0  0  2  0  0  0  0  0  0
  160.4860  211.6660  152.0160 C   0  0  0  0  0  1  0  0  0  0  0  0
  160.9520  211.1530  150.7270 N   0  0  0  0  0  0  0  0  0  0  0  0
  162.3360  211.7780  148.7250 C   0  0  0  0  0  2  0  0  0  0  0  0
  161.4830  212.2620  149.9050 C   0  0  1  0  0  3  0  0  0  0  0  0
  160.9460  213.5110  147.9930 C   0  0  0  0  0  0  0  0  0  0  0  0
  161.9550  212.7310  147.6590 C   0  0  0  0  0  0  0  0  0  0  0  0
  160.4260  213.2330  149.3610 C   0  0  0  0  0  2  0  0  0  0  0  0
  162.6030  212.7970  146.4360 O   0  0  0  0  0  1  0  0  0  0  0  0
  160.3630  214.4530  147.0980 N   0  0  0  0  0  2  0  0  0  0  0  0
  159.3960  214.0490  146.0810 C   0  0  0  0  0  2  0  0  0  0  0  0
  159.5960  212.0120  144.0250 O   0  0  0  0  0  0  0  0  0  0  0  0
  160.7550  213.3930  142.4760 C   0  0  0  0  0  1  0  0  0  0  0  0
  160.0600  213.1540  143.7740 C   0  0  0  0  0  0  0  0  0  0  0  0
  159.9440  214.2150  144.7400 N   0  0  0  0  0  2  0  0  0  0  0  0
  160.5910  208.4350  153.8060 C   0  0  0  0  0  2  0  0  0  0  0  0
  161.2190  207.8770  155.0700 C   0  0  0  0  0  2  0  0  0  0  0  0
  161.5850  208.9620  156.0160 C   0  0  0  0  0  0  0  0  0  0  0  0
  161.0930  210.2880  155.7900 N   0  0  0  0  0  2  0  0  0  0  0  0
  162.3420  208.7140  156.9990 O   0  0  0  0  0  0  0  0  0  0  0  0
  161.4490  211.4280  156.6180 C   0  0  0  0  0  2  0  0  0  0  0  0
  160.2060  212.1190  157.1840 C   0  0  0  0  0  2  0  0  0  0  0  0
  159.4980  212.9730  156.1480 C   0  0  2  0  0  3  0  0  0  0  0  0
  159.8820  214.3150  156.2990 O   0  0  0  0  0  1  0  0  0  0  0  0
  157.9870  212.8470  156.2380 C   0  0  0  0  0  2  0  0  0  0  0  0
  156.2490  212.8410  154.3080 C   0  0  0  0  0  1  0  0  0  0  0  0
  157.4290  212.2390  154.9880 C   0  0  0  0  0  0  0  0  0  0  0  0
  157.9560  211.2490  154.5120 O   0  0  0  0  0  0  0  0  0  0  0  0
  1  2  1  0  0  0  0
  1  3  1  0  0  0  0
  2 23  1  1  0  0  0
  2  4  1  0  0  0  0
  3  9  1  6  0  0  0
  3  5  1  0  0  0  0
  4  5  1  0  0  0  0
  5 36  1  1  0  0  0
  7 10  1  0  0  0  0
  7  9  2  0  0  0  0
  8  6  1  0  0  0  0
  9  6  1  0  0  0  0
 10 11  1  6  0  0  0
 10  8  1  0  0  0  0
 11 12  1  6  0  0  0
 13 21  1  6  0  0  0
 13 19  1  0  0  0  0
 14 17  1  6  0  0  0
 14 13  1  0  0  0  0
 14 19  1  0  0  0  0
 15 18  1  0  0  0  0
 16 11  1  1  0  0  0
 17 15  1  0  0  0  0
 18 16  1  0  0  0  0
 19 16  1  0  0  0  0
 20 21  1  0  0  0  0
 23 22  1  0  0  0  0
 24 25  1  0  0  0  0
 25 23  1  0  0  0  0
 26 28  1  0  0  0  0
 27 26  2  0  0  0  0
 27 24  1  0  0  0  0
 28 25  1  0  0  0  0
 29 27  1  0  0  0  0
 30 26  1  0  0  0  0
 31 30  1  0  0  0  0
 33 34  1  0  0  0  0
 34 32  2  0  0  0  0
 34 35  1  0  0  0  0
 35 31  1  0  0  0  0
 36 37  1  0  0  0  0
 37 38  1  0  0  0  0
 38 40  2  0  0  0  0
 39 38  1  0  0  0  0
 39 41  1  0  0  0  0
 41 42  1  0  0  0  0
 43 45  1  0  0  0  0
 43 44  1  0  0  0  0
 43 42  1  0  0  0  0
 46 47  1  0  0  0  0
 47 45  1  0  0  0  0
 48 47  2  0  0  0  0
M  END
>  <MODEL>
2

>  <REMARK>
 VINA RESULT:      -7.0      2.084      9.894
  Name = 
  17 active torsions:
  status: ('A' for Active; 'I' for Inactive)
    1  A    between atoms: C_1  and  C_25
    2  A    between atoms: C_1  and  C_46
    3  A    between atoms: C_2  and  C_9
    4  A    between atoms: C_2  and  C_24
    5  A    between atoms: C_3  and  C_36
    6  A    between atoms: C_3  and  C_45
    7  A    between atoms: C_7  and  C_30
    8  A    between atoms: C_9  and  C_17
    9  A    between atoms: C_10  and  N_37
   10  A    between atoms: C_14  and  C_36
   11  A    between atoms: C_18  and  N_37
   12  A    between atoms: C_19  and  N_21
   13  A    between atoms: N_21  and  C_27
   14  A    between atoms: C_24  and  C_29
   15  A    between atoms: C_26  and  C_33
   16  A    between atoms: C_27  and  N_48
   17  A    between atoms: C_29  and  N_32
                            x       y       z     vdW  Elec       q    Type
                         _______ _______ _______ _____ _____    ______ ____

>  <TORSDO>
F 17

$$$$
=
 OpenBabel11042420473D

 48 52  0  0  1  0  0  0  0  0999 V2000
  160.8480  206.7810  154.1390 S   0  0  0  0  0  0  0  0  0  0  0  0
  160.5120  208.5820  154.0620 C   0  0  2  0  0  3  0  0  0  0  0  0
  161.6610  206.9220  152.5420 C   0  0  2  0  0  3  0  0  0  0  0  0
  160.4200  209.0160  152.6610 N   0  0  0  0  0  2  0  0  0  0  0  0
  160.9210  207.9830  151.7600 C   0  0  1  0  0  3  0  0  0  0  0  0
  161.6110  204.3910  152.5420 O   0  0  0  0  0  0  0  0  0  0  0  0
  161.5520  205.4690  150.5890 N   0  0  0  0  0  0  0  0  0  0  0  0
  161.6170  203.3320  151.6020 C   0  0  0  0  0  2  0  0  0  0  0  0
  161.5700  205.5920  151.8680 C   0  0  0  0  0  0  0  0  0  0  0  0
  161.6400  204.0610  150.2590 C   0  0  1  0  0  3  0  0  0  0  0  0
  160.5330  203.5990  149.3080 C   0  0  2  0  0  3  0  0  0  0  0  0
  160.2370  202.2650  149.5430 O   0  0  0  0  0  1  0  0  0  0  0  0
  161.9130  205.8960  146.6200 C   0  0  2  0  0  3  0  0  0  0  0  0
  162.7180  204.6340  146.3080 C   0  0  2  0  0  3  0  0  0  0  0  0
  161.2010  202.8640  145.6090 C   0  0  0  0  0  2  0  0  0  0  0  0
  160.7590  203.8690  147.7950 C   0  0  2  0  0  3  0  0  0  0  0  0
  162.1370  203.8910  145.2590 O   0  0  0  0  0  0  0  0  0  0  0  0
  161.0870  202.5680  147.0840 C   0  0  0  0  0  2  0  0  0  0  0  0
  161.9900  204.7620  147.6460 C   0  0  2  0  0  3  0  0  0  0  0  0
  160.7770  206.1930  144.5440 O   0  0  0  0  0  1  0  0  0  0  0  0
  160.5670  206.0100  145.9090 C   0  0  0  0  0  2  0  0  0  0  0  0
  162.0290  210.4010  153.8400 C   0  0  0  0  0  1  0  0  0  0  0  0
  161.5390  209.3750  154.7620 N   0  0  0  0  0  0  0  0  0  0  0  0
  161.4770  211.4380  156.1940 C   0  0  0  0  0  2  0  0  0  0  0  0
  160.9580  210.0130  155.9630 C   0  0  1  0  0  3  0  0  0  0  0  0
  159.1720  211.4010  156.5840 C   0  0  0  0  0  0  0  0  0  0  0  0
  160.2640  212.1330  156.6780 C   0  0  0  0  0  0  0  0  0  0  0  0
  159.4240  210.0540  156.0000 C   0  0  0  0  0  2  0  0  0  0  0  0
  160.2810  213.4220  157.1860 O   0  0  0  0  0  1  0  0  0  0  0  0
  157.8770  211.8900  156.9230 N   0  0  0  0  0  2  0  0  0  0  0  0
  156.6620  211.2630  156.4100 C   0  0  0  0  0  2  0  0  0  0  0  0
  157.0810  213.5520  154.6780 O   0  0  0  0  0  0  0  0  0  0  0  0
  154.9020  214.4500  154.9890 C   0  0  0  0  0  1  0  0  0  0  0  0
  155.9490  213.4090  155.2070 C   0  0  0  0  0  0  0  0  0  0  0  0
  155.6720  212.2660  156.0360 N   0  0  0  0  0  2  0  0  0  0  0  0
  161.8570  208.6090  150.7230 C   0  0  0  0  0  2  0  0  0  0  0  0
  162.3400  209.9790  151.1620 C   0  0  0  0  0  2  0  0  0  0  0  0
  161.7770  211.0510  150.3020 C   0  0  0  0  0  0  0  0  0  0  0  0
  162.3350  211.2750  149.0010 N   0  0  0  0  0  2  0  0  0  0  0  0
  160.8280  211.7710  150.7290 O   0  0  0  0  0  0  0  0  0  0  0  0
  161.9000  212.3410  148.1150 C   0  0  0  0  0  2  0  0  0  0  0  0
  160.7030  211.9090  147.2640 C   0  0  0  0  0  2  0  0  0  0  0  0
  160.3090  212.9630  146.2440 C   0  0  2  0  0  3  0  0  0  0  0  0
  161.4260  213.7500  145.9220 O   0  0  0  0  0  1  0  0  0  0  0  0
  159.1750  213.8430  146.7410 C   0  0  0  0  0  2  0  0  0  0  0  0
  157.1830  213.0640  148.2160 C   0  0  0  0  0  1  0  0  0  0  0  0
  157.9220  213.0430  146.9220 C   0  0  0  0  0  0  0  0  0  0  0  0
  157.4910  212.3790  145.9970 O   0  0  0  0  0  0  0  0  0  0  0  0
  2  1  1  0  0  0  0
  2 23  1  6  0  0  0
  3  9  1  6  0  0  0
  3  1  1  0  0  0  0
  4  2  1  0  0  0  0
  5 36  1  6  0  0  0
  5  3  1  0  0  0  0
  5  4  1  0  0  0  0
  7  9  2  0  0  0  0
  8  6  1  0  0  0  0
  9  6  1  0  0  0  0
 10 11  1  6  0  0  0
 10  7  1  0  0  0  0
 10  8  1  0  0  0  0
 11 12  1  6  0  0  0
 13 21  1  6  0  0  0
 13 19  1  0  0  0  0
 14 17  1  6  0  0  0
 14 13  1  0  0  0  0
 14 19  1  0  0  0  0
 15 18  1  0  0  0  0
 16 11  1  1  0  0  0
 17 15  1  0  0  0  0
 18 16  1  0  0  0  0
 19 16  1  0  0  0  0
 20 21  1  0  0  0  0
 22 23  1  0  0  0  0
 23 25  1  0  0  0  0
 24 27  1  0  0  0  0
 25 28  1  0  0  0  0
 25 24  1  0  0  0  0
 26 27  2  0  0  0  0
 26 30  1  0  0  0  0
 27 29  1  0  0  0  0
 28 26  1  0  0  0  0
 31 30  1  0  0  0  0
 32 34  2  0  0  0  0
 33 34  1  0  0  0  0
 34 35  1  0  0  0  0
 35 31  1  0  0  0  0
 36 37  1  0  0  0  0
 38 40  2  0  0  0  0
 38 37  1  0  0  0  0
 39 38  1  0  0  0  0
 41 39  1  0  0  0  0
 42 41  1  0  0  0  0
 43 45  1  0  0  0  0
 43 42  1  0  0  0  0
 44 43  1  0  0  0  0
 45 47  1  0  0  0  0
 47 46  1  0  0  0  0
 48 47  2  0  0  0  0
M  END
>  <MODEL>
3

>  <REMARK>
 VINA RESULT:      -6.4      2.251      9.524
  Name = 
  17 active torsions:
  status: ('A' for Active; 'I' for Inactive)
    1  A    between atoms: C_1  and  C_25
    2  A    between atoms: C_1  and  C_46
    3  A    between atoms: C_2  and  C_9
    4  A    between atoms: C_2  and  C_24
    5  A    between atoms: C_3  and  C_36
    6  A    between atoms: C_3  and  C_45
    7  A    between atoms: C_7  and  C_30
    8  A    between atoms: C_9  and  C_17
    9  A    between atoms: C_10  and  N_37
   10  A    between atoms: C_14  and  C_36
   11  A    between atoms: C_18  and  N_37
   12  A    between atoms: C_19  and  N_21
   13  A    between atoms: N_21  and  C_27
   14  A    between atoms: C_24  and  C_29
   15  A    between atoms: C_26  and  C_33
   16  A    between atoms: C_27  and  N_48
   17  A    between atoms: C_29  and  N_32
                            x       y       z     vdW  Elec       q    Type
                         _______ _______ _______ _____ _____    ______ ____

>  <TORSDO>
F 17

$$$$
=
 OpenBabel11042420473D

 48 52  0  0  1  0  0  0  0  0999 V2000
  161.6770  205.8340  149.6560 S   0  0  0  0  0  0  0  0  0  0  0  0
  162.4140  206.2250  148.0230 C   0  0  2  0  0  3  0  0  0  0  0  0
  161.2000  207.5620  149.7900 C   0  0  2  0  0  3  0  0  0  0  0  0
  162.8370  207.6310  147.9860 N   0  0  0  0  0  2  0  0  0  0  0  0
  162.2810  208.3740  149.1120 C   0  0  1  0  0  3  0  0  0  0  0  0
  161.4020  207.0010  152.2510 O   0  0  0  0  0  0  0  0  0  0  0  0
  160.6400  209.0150  151.6650 N   0  0  0  0  0  0  0  0  0  0  0  0
  161.1010  207.5950  153.5000 C   0  0  0  0  0  2  0  0  0  0  0  0
  161.1080  207.8940  151.2440 C   0  0  0  0  0  0  0  0  0  0  0  0
  160.5180  208.9530  153.1070 C   0  0  1  0  0  3  0  0  0  0  0  0
  161.2010  210.1250  153.8160 C   0  0  2  0  0  3  0  0  0  0  0  0
  161.5870  209.7420  155.0920 O   0  0  0  0  0  1  0  0  0  0  0  0
  158.5030  212.3110  152.2840 C   0  0  2  0  0  3  0  0  0  0  0  0
  157.9590  212.2040  153.7090 C   0  0  2  0  0  3  0  0  0  0  0  0
  159.5240  213.2560  155.2480 C   0  0  0  0  0  2  0  0  0  0  0  0
  160.4250  211.4700  153.8400 C   0  0  2  0  0  3  0  0  0  0  0  0
  158.3120  213.3270  154.4870 O   0  0  0  0  0  0  0  0  0  0  0  0
  160.1920  211.9040  155.2770 C   0  0  0  0  0  2  0  0  0  0  0  0
  159.0420  211.2360  153.2320 C   0  0  2  0  0  3  0  0  0  0  0  0
  159.6340  213.6430  150.6600 O   0  0  0  0  0  1  0  0  0  0  0  0
  159.4670  213.4670  152.0320 C   0  0  0  0  0  2  0  0  0  0  0  0
  162.2620  205.9010  145.6700 C   0  0  0  0  0  1  0  0  0  0  0  0
  161.4840  205.9560  146.9100 N   0  0  0  0  0  0  0  0  0  0  0  0
  160.7200  203.8050  145.8590 C   0  0  0  0  0  2  0  0  0  0  0  0
  160.7900  204.6680  147.1260 C   0  0  1  0  0  3  0  0  0  0  0  0
  161.2570  202.4370  147.6780 C   0  0  0  0  0  0  0  0  0  0  0  0
  160.9230  202.4440  146.4020 C   0  0  0  0  0  0  0  0  0  0  0  0
  161.3610  203.8040  148.2580 C   0  0  0  0  0  2  0  0  0  0  0  0
  160.7680  201.2960  145.6430 O   0  0  0  0  0  1  0  0  0  0  0  0
  161.5720  201.2440  148.3910 N   0  0  0  0  0  2  0  0  0  0  0  0
  160.8400  200.8520  149.5910 C   0  0  0  0  0  2  0  0  0  0  0  0
  162.3430  201.9580  151.8120 O   0  0  0  0  0  0  0  0  0  0  0  0
  160.7280  203.6170  152.3520 C   0  0  0  0  0  1  0  0  0  0  0  0
  161.2450  202.4950  151.5140 C   0  0  0  0  0  0  0  0  0  0  0  0
  160.4820  202.0170  150.3920 N   0  0  0  0  0  2  0  0  0  0  0  0
  161.6980  209.7020  148.6200 C   0  0  0  0  0  2  0  0  0  0  0  0
  162.4510  210.8880  149.1930 C   0  0  0  0  0  2  0  0  0  0  0  0
  162.3860  212.0600  148.2830 C   0  0  0  0  0  0  0  0  0  0  0  0
  161.1280  212.4350  147.7080 N   0  0  0  0  0  2  0  0  0  0  0  0
  163.4390  212.7040  148.0050 O   0  0  0  0  0  0  0  0  0  0  0  0
  160.9740  213.5220  146.7550 C   0  0  0  0  0  2  0  0  0  0  0  0
  160.4070  213.0220  145.4230 C   0  0  0  0  0  2  0  0  0  0  0  0
  161.4640  212.9580  144.3350 C   0  0  2  0  0  3  0  0  0  0  0  0
  162.6560  213.5360  144.7990 O   0  0  0  0  0  1  0  0  0  0  0  0
  161.0120  213.6460  143.0580 C   0  0  0  0  0  2  0  0  0  0  0  0
  160.6520  211.4130  141.7800 C   0  0  0  0  0  1  0  0  0  0  0  0
  160.1460  212.7360  142.2430 C   0  0  0  0  0  0  0  0  0  0  0  0
  159.0080  213.0720  141.9670 O   0  0  0  0  0  0  0  0  0  0  0  0
  1  3  1  0  0  0  0
  2 23  1  6  0  0  0
  2  1  1  0  0  0  0
  3  9  1  1  0  0  0
  4  2  1  0  0  0  0
  4  5  1  0  0  0  0
  5 36  1  6  0  0  0
  5  3  1  0  0  0  0
  6  8  1  0  0  0  0
  7 10  1  0  0  0  0
  9  7  2  0  0  0  0
  9  6  1  0  0  0  0
 10  8  1  0  0  0  0
 10 11  1  1  0  0  0
 11 12  1  1  0  0  0
 13 21  1  1  0  0  0
 13 19  1  0  0  0  0
 13 14  1  0  0  0  0
 14 17  1  1  0  0  0
 15 18  1  0  0  0  0
 16 11  1  1  0  0  0
 16 18  1  0  0  0  0
 17 15  1  0  0  0  0
 19 14  1  0  0  0  0
 19 16  1  0  0  0  0
 20 21  1  0  0  0  0
 22 23  1  0  0  0  0
 23 25  1  0  0  0  0
 24 27  1  0  0  0  0
 24 25  1  0  0  0  0
 25 28  1  0  0  0  0
 26 28  1  0  0  0  0
 26 30  1  0  0  0  0
 27 26  2  0  0  0  0
 29 27  1  0  0  0  0
 30 31  1  0  0  0  0
 31 35  1  0  0  0  0
 34 32  2  0  0  0  0
 34 33  1  0  0  0  0
 35 34  1  0  0  0  0
 36 37  1  0  0  0  0
 38 37  1  0  0  0  0
 39 38  1  0  0  0  0
 40 38  2  0  0  0  0
 41 39  1  0  0  0  0
 42 41  1  0  0  0  0
 43 44  1  0  0  0  0
 43 42  1  0  0  0  0
 45 43  1  0  0  0  0
 46 47  1  0  0  0  0
 47 45  1  0  0  0  0
 48 47  2  0  0  0  0
M  END
>  <MODEL>
4

>  <REMARK>
 VINA RESULT:      -6.4      1.991      3.570
  Name = 
  17 active torsions:
  status: ('A' for Active; 'I' for Inactive)
    1  A    between atoms: C_1  and  C_25
    2  A    between atoms: C_1  and  C_46
    3  A    between atoms: C_2  and  C_9
    4  A    between atoms: C_2  and  C_24
    5  A    between atoms: C_3  and  C_36
    6  A    between atoms: C_3  and  C_45
    7  A    between atoms: C_7  and  C_30
    8  A    between atoms: C_9  and  C_17
    9  A    between atoms: C_10  and  N_37
   10  A    between atoms: C_14  and  C_36
   11  A    between atoms: C_18  and  N_37
   12  A    between atoms: C_19  and  N_21
   13  A    between atoms: N_21  and  C_27
   14  A    between atoms: C_24  and  C_29
   15  A    between atoms: C_26  and  C_33
   16  A    between atoms: C_27  and  N_48
   17  A    between atoms: C_29  and  N_32
                            x       y       z     vdW  Elec       q    Type
                         _______ _______ _______ _____ _____    ______ ____

>  <TORSDO>
F 17

$$$$
=
 OpenBabel11042420473D

 48 52  0  0  1  0  0  0  0  0999 V2000
  161.8300  209.5390  148.7200 S   0  0  0  0  0  0  0  0  0  0  0  0
  162.1080  211.2370  149.3550 C   0  0  2  0  0  3  0  0  0  0  0  0
  161.1160  209.1210  150.3160 C   0  0  2  0  0  3  0  0  0  0  0  0
  162.2730  211.2060  150.8140 N   0  0  0  0  0  2  0  0  0  0  0  0
  161.8680  209.9150  151.3600 C   0  0  1  0  0  3  0  0  0  0  0  0
  161.3250  207.0530  151.7620 O   0  0  0  0  0  0  0  0  0  0  0  0
  161.5470  206.8470  149.5510 N   0  0  0  0  0  0  0  0  0  0  0  0
  161.6260  205.6790  151.6060 C   0  0  0  0  0  2  0  0  0  0  0  0
  161.2960  207.6520  150.5210 C   0  0  0  0  0  0  0  0  0  0  0  0
  161.8430  205.5400  150.0990 C   0  0  1  0  0  3  0  0  0  0  0  0
  161.0000  204.4250  149.4730 C   0  0  2  0  0  3  0  0  0  0  0  0
  161.2870  203.2160  150.0910 O   0  0  0  0  0  1  0  0  0  0  0  0
  162.1880  205.8590  146.1670 C   0  0  2  0  0  3  0  0  0  0  0  0
  162.8640  204.4890  146.1020 C   0  0  2  0  0  3  0  0  0  0  0  0
  161.1590  202.7530  146.0310 C   0  0  0  0  0  2  0  0  0  0  0  0
  161.0560  204.2960  147.9270 C   0  0  2  0  0  3  0  0  0  0  0  0
  162.1110  203.5710  145.3400 O   0  0  0  0  0  0  0  0  0  0  0  0
  161.2080  202.8360  147.5370 C   0  0  0  0  0  2  0  0  0  0  0  0
  162.3160  205.0060  147.4320 C   0  0  2  0  0  3  0  0  0  0  0  0
  160.8430  206.0320  144.2040 O   0  0  0  0  0  1  0  0  0  0  0  0
  160.7760  205.9230  145.5920 C   0  0  0  0  0  2  0  0  0  0  0  0
  160.5930  212.8590  150.2120 C   0  0  0  0  0  1  0  0  0  0  0  0
  161.0110  212.1560  148.9980 N   0  0  0  0  0  0  0  0  0  0  0  0
  162.7410  212.6750  147.2520 C   0  0  0  0  0  2  0  0  0  0  0  0
  161.4720  213.1290  147.9850 C   0  0  1  0  0  3  0  0  0  0  0  0
  161.2570  213.5910  145.6950 C   0  0  0  0  0  0  0  0  0  0  0  0
  162.4820  213.1370  145.8710 C   0  0  0  0  0  0  0  0  0  0  0  0
  160.4270  213.5150  146.9300 C   0  0  0  0  0  2  0  0  0  0  0  0
  163.4380  213.1020  144.8690 O   0  0  0  0  0  1  0  0  0  0  0  0
  160.7620  214.0210  144.4300 N   0  0  0  0  0  2  0  0  0  0  0  0
  159.9470  213.1490  143.5890 C   0  0  0  0  0  2  0  0  0  0  0  0
  159.3950  212.1810  140.9110 O   0  0  0  0  0  0  0  0  0  0  0  0
  161.2940  210.7540  140.8090 C   0  0  0  0  0  1  0  0  0  0  0  0
  160.4360  211.7700  141.4860 C   0  0  0  0  0  0  0  0  0  0  0  0
  160.7830  212.2550  142.7960 N   0  0  0  0  0  2  0  0  0  0  0  0
  160.9780  210.1270  152.5880 C   0  0  0  0  0  2  0  0  0  0  0  0
  161.7990  210.4480  153.8230 C   0  0  0  0  0  2  0  0  0  0  0  0
  160.9950  210.2910  155.0620 C   0  0  0  0  0  0  0  0  0  0  0  0
  159.7810  211.0370  155.2130 N   0  0  0  0  0  2  0  0  0  0  0  0
  161.3950  209.5190  155.9810 O   0  0  0  0  0  0  0  0  0  0  0  0
  158.9640  211.0040  156.4130 C   0  0  0  0  0  2  0  0  0  0  0  0
  158.2050  212.3200  156.6100 C   0  0  0  0  0  2  0  0  0  0  0  0
  156.8390  212.3020  155.9480 C   0  0  2  0  0  3  0  0  0  0  0  0
  156.4140  210.9760  155.7740 O   0  0  0  0  0  1  0  0  0  0  0  0
  156.8410  213.0300  154.6150 C   0  0  0  0  0  2  0  0  0  0  0  0
  155.0200  213.9980  153.0350 C   0  0  0  0  0  1  0  0  0  0  0  0
  155.5500  213.7610  154.4070 C   0  0  0  0  0  0  0  0  0  0  0  0
  154.9160  214.1540  155.3710 O   0  0  0  0  0  0  0  0  0  0  0  0
  1  2  1  0  0  0  0
  1  3  1  0  0  0  0
  2 23  1  1  0  0  0
  2  4  1  0  0  0  0
  3  9  1  1  0  0  0
  3  5  1  0  0  0  0
  4  5  1  0  0  0  0
  5 36  1  1  0  0  0
  7 10  1  0  0  0  0
  7  9  2  0  0  0  0
  8  6  1  0  0  0  0
  9  6  1  0  0  0  0
 10 11  1  6  0  0  0
 10  8  1  0  0  0  0
 11 12  1  1  0  0  0
 13 21  1  6  0  0  0
 13 19  1  0  0  0  0
 14 17  1  6  0  0  0
 14 13  1  0  0  0  0
 14 19  1  0  0  0  0
 15 18  1  0  0  0  0
 16 11  1  1  0  0  0
 17 15  1  0  0  0  0
 18 16  1  0  0  0  0
 19 16  1  0  0  0  0
 20 21  1  0  0  0  0
 23 22  1  0  0  0  0
 24 25  1  0  0  0  0
 25 23  1  0  0  0  0
 26 27  2  0  0  0  0
 26 28  1  0  0  0  0
 27 24  1  0  0  0  0
 28 25  1  0  0  0  0
 29 27  1  0  0  0  0
 30 26  1  0  0  0  0
 31 30  1  0  0  0  0
 32 34  2  0  0  0  0
 33 34  1  0  0  0  0
 34 35  1  0  0  0  0
 35 31  1  0  0  0  0
 36 37  1  0  0  0  0
 37 38  1  0  0  0  0
 38 39  1  0  0  0  0
 38 40  2  0  0  0  0
 39 41  1  0  0  0  0
 41 42  1  0  0  0  0
 43 42  1  0  0  0  0
 44 43  1  0  0  0  0
 45 43  1  0  0  0  0
 46 47  1  0  0  0  0
 47 45  1  0  0  0  0
 47 48  2  0  0  0  0
M  END
>  <MODEL>
5

>  <REMARK>
 VINA RESULT:      -6.2      2.169      9.832
  Name = 
  17 active torsions:
  status: ('A' for Active; 'I' for Inactive)
    1  A    between atoms: C_1  and  C_25
    2  A    between atoms: C_1  and  C_46
    3  A    between atoms: C_2  and  C_9
    4  A    between atoms: C_2  and  C_24
    5  A    between atoms: C_3  and  C_36
    6  A    between atoms: C_3  and  C_45
    7  A    between atoms: C_7  and  C_30
    8  A    between atoms: C_9  and  C_17
    9  A    between atoms: C_10  and  N_37
   10  A    between atoms: C_14  and  C_36
   11  A    between atoms: C_18  and  N_37
   12  A    between atoms: C_19  and  N_21
   13  A    between atoms: N_21  and  C_27
   14  A    between atoms: C_24  and  C_29
   15  A    between atoms: C_26  and  C_33
   16  A    between atoms: C_27  and  N_48
   17  A    between atoms: C_29  and  N_32
                            x       y       z     vdW  Elec       q    Type
                         _______ _______ _______ _____ _____    ______ ____

>  <TORSDO>
F 17

$$$$
=
 OpenBabel11042420473D

 48 52  0  0  1  0  0  0  0  0999 V2000
  160.5670  207.1750  154.6330 S   0  0  0  0  0  0  0  0  0  0  0  0
  160.3810  208.9970  154.5450 C   0  0  2  0  0  3  0  0  0  0  0  0
  161.5290  207.2580  153.1160 C   0  0  2  0  0  3  0  0  0  0  0  0
  160.4490  209.4420  153.1470 N   0  0  0  0  0  2  0  0  0  0  0  0
  160.9470  208.3770  152.2830 C   0  0  1  0  0  3  0  0  0  0  0  0
  161.0020  204.7830  153.0550 O   0  0  0  0  0  0  0  0  0  0  0  0
  161.7400  205.7720  151.1960 N   0  0  0  0  0  0  0  0  0  0  0  0
  161.0900  203.7040  152.1420 C   0  0  0  0  0  2  0  0  0  0  0  0
  161.3940  205.9420  152.4220 C   0  0  0  0  0  0  0  0  0  0  0  0
  161.6560  204.3610  150.8830 C   0  0  1  0  0  3  0  0  0  0  0  0
  160.8200  204.0750  149.6320 C   0  0  2  0  0  3  0  0  0  0  0  0
  160.6900  202.7050  149.4570 O   0  0  0  0  0  1  0  0  0  0  0  0
  162.1550  203.7220  146.0970 C   0  0  2  0  0  3  0  0  0  0  0  0
  160.8500  204.4590  145.7980 C   0  0  2  0  0  3  0  0  0  0  0  0
  160.9230  206.6690  146.8160 C   0  0  0  0  0  2  0  0  0  0  0  0
  161.2730  204.7710  148.3200 C   0  0  2  0  0  3  0  0  0  0  0  0
  161.0570  205.8470  145.6510 O   0  0  0  0  0  0  0  0  0  0  0  0
  160.3850  205.9710  148.0410 C   0  0  0  0  0  2  0  0  0  0  0  0
  161.0580  203.7980  147.1620 C   0  0  2  0  0  3  0  0  0  0  0  0
  164.4360  204.2000  145.5860 O   0  0  0  0  0  1  0  0  0  0  0  0
  163.3640  204.6110  146.3760 C   0  0  0  0  0  2  0  0  0  0  0  0
  162.1120  210.6260  154.4580 C   0  0  0  0  0  1  0  0  0  0  0  0
  161.4000  209.7040  155.3430 N   0  0  0  0  0  0  0  0  0  0  0  0
  161.2440  211.9080  156.5400 C   0  0  0  0  0  2  0  0  0  0  0  0
  160.7540  210.4570  156.4410 C   0  0  1  0  0  3  0  0  0  0  0  0
  158.9240  211.8720  156.8260 C   0  0  0  0  0  0  0  0  0  0  0  0
  160.0010  212.6290  156.8900 C   0  0  0  0  0  0  0  0  0  0  0  0
  159.2200  210.4750  156.4020 C   0  0  0  0  0  2  0  0  0  0  0  0
  159.9780  213.9650  157.2560 O   0  0  0  0  0  1  0  0  0  0  0  0
  157.6080  212.3720  157.0500 N   0  0  0  0  0  2  0  0  0  0  0  0
  156.7680  212.8380  155.9510 C   0  0  0  0  0  2  0  0  0  0  0  0
  157.5390  211.6670  153.4120 O   0  0  0  0  0  0  0  0  0  0  0  0
  158.8910  213.5020  152.7380 C   0  0  0  0  0  1  0  0  0  0  0  0
  157.9600  212.8210  153.6840 C   0  0  0  0  0  0  0  0  0  0  0  0
  157.5690  213.4680  154.9080 N   0  0  0  0  0  2  0  0  0  0  0  0
  162.0180  208.9320  151.3400 C   0  0  0  0  0  2  0  0  0  0  0  0
  161.8060  208.4590  149.9140 C   0  0  0  0  0  2  0  0  0  0  0  0
  162.2040  209.5030  148.9350 C   0  0  0  0  0  0  0  0  0  0  0  0
  162.0260  210.8850  149.2680 N   0  0  0  0  0  2  0  0  0  0  0  0
  162.6740  209.1660  147.8090 O   0  0  0  0  0  0  0  0  0  0  0  0
  162.3200  211.9750  148.3530 C   0  0  0  0  0  2  0  0  0  0  0  0
  161.4490  213.2000  148.6420 C   0  0  0  0  0  2  0  0  0  0  0  0
  160.5120  213.5250  147.4920 C   0  0  2  0  0  3  0  0  0  0  0  0
  159.5990  212.4740  147.3140 O   0  0  0  0  0  1  0  0  0  0  0  0
  161.2640  213.7910  146.2000 C   0  0  0  0  0  2  0  0  0  0  0  0
  159.7490  214.2070  144.1310 C   0  0  0  0  0  1  0  0  0  0  0  0
  160.4960  213.2760  145.0220 C   0  0  0  0  0  0  0  0  0  0  0  0
  160.4930  212.0820  144.7780 O   0  0  0  0  0  0  0  0  0  0  0  0
  2  1  1  0  0  0  0
  2 23  1  1  0  0  0
  3  9  1  6  0  0  0
  3  1  1  0  0  0  0
  4  2  1  0  0  0  0
  5 36  1  6  0  0  0
  5  3  1  0  0  0  0
  5  4  1  0  0  0  0
  7  9  2  0  0  0  0
  8  6  1  0  0  0  0
  9  6  1  0  0  0  0
 10 11  1  6  0  0  0
 10  7  1  0  0  0  0
 10  8  1  0  0  0  0
 11 12  1  6  0  0  0
 13 21  1  1  0  0  0
 13 19  1  0  0  0  0
 14 17  1  1  0  0  0
 14 13  1  0  0  0  0
 14 19  1  0  0  0  0
 15 18  1  0  0  0  0
 16 11  1  1  0  0  0
 17 15  1  0  0  0  0
 18 16  1  0  0  0  0
 19 16  1  0  0  0  0
 20 21  1  0  0  0  0
 22 23  1  0  0  0  0
 23 25  1  0  0  0  0
 24 27  1  0  0  0  0
 25 24  1  0  0  0  0
 26 27  2  0  0  0  0
 26 30  1  0  0  0  0
 27 29  1  0  0  0  0
 28 25  1  0  0  0  0
 28 26  1  0  0  0  0
 31 30  1  0  0  0  0
 32 34  2  0  0  0  0
 33 34  1  0  0  0  0
 34 35  1  0  0  0  0
 35 31  1  0  0  0  0
 37 36  1  0  0  0  0
 38 39  1  0  0  0  0
 38 37  1  0  0  0  0
 40 38  2  0  0  0  0
 41 42  1  0  0  0  0
 41 39  1  0  0  0  0
 43 42  1  0  0  0  0
 44 43  1  0  0  0  0
 45 43  1  0  0  0  0
 46 47  1  0  0  0  0
 47 45  1  0  0  0  0
 48 47  2  0  0  0  0
M  END
>  <MODEL>
6

>  <REMARK>
 VINA RESULT:      -6.1      2.233      9.200
  Name = 
  17 active torsions:
  status: ('A' for Active; 'I' for Inactive)
    1  A    between atoms: C_1  and  C_25
    2  A    between atoms: C_1  and  C_46
    3  A    between atoms: C_2  and  C_9
    4  A    between atoms: C_2  and  C_24
    5  A    between atoms: C_3  and  C_36
    6  A    between atoms: C_3  and  C_45
    7  A    between atoms: C_7  and  C_30
    8  A    between atoms: C_9  and  C_17
    9  A    between atoms: C_10  and  N_37
   10  A    between atoms: C_14  and  C_36
   11  A    between atoms: C_18  and  N_37
   12  A    between atoms: C_19  and  N_21
   13  A    between atoms: N_21  and  C_27
   14  A    between atoms: C_24  and  C_29
   15  A    between atoms: C_26  and  C_33
   16  A    between atoms: C_27  and  N_48
   17  A    between atoms: C_29  and  N_32
                            x       y       z     vdW  Elec       q    Type
                         _______ _______ _______ _____ _____    ______ ____

>  <TORSDO>
F 17

$$$$
=
 OpenBabel11042420473D

 48 52  0  0  1  0  0  0  0  0999 V2000
  161.6010  210.8770  150.9640 S   0  0  0  0  0  0  0  0  0  0  0  0
  161.5570  211.2480  149.1690 C   0  0  2  0  0  3  0  0  0  0  0  0
  162.3630  209.2990  150.5600 C   0  0  2  0  0  3  0  0  0  0  0  0
  161.4810  209.9990  148.3990 N   0  0  0  0  0  2  0  0  0  0  0  0
  161.7730  208.8450  149.2440 C   0  0  1  0  0  3  0  0  0  0  0  0
  162.5050  207.0490  151.7120 O   0  0  0  0  0  0  0  0  0  0  0  0
  161.1870  208.6250  152.5850 N   0  0  0  0  0  0  0  0  0  0  0  0
  161.9110  206.3840  152.8120 C   0  0  0  0  0  2  0  0  0  0  0  0
  162.0310  208.3420  151.6580 C   0  0  0  0  0  0  0  0  0  0  0  0
  160.9570  207.4360  153.3800 C   0  0  1  0  0  3  0  0  0  0  0  0
  161.1520  207.6720  154.8800 C   0  0  2  0  0  3  0  0  0  0  0  0
  160.2140  206.9430  155.5970 O   0  0  0  0  0  1  0  0  0  0  0  0
  159.2580  210.8900  155.5620 C   0  0  2  0  0  3  0  0  0  0  0  0
  159.8400  210.6430  156.9550 C   0  0  2  0  0  3  0  0  0  0  0  0
  162.2690  210.7640  156.8450 C   0  0  0  0  0  2  0  0  0  0  0  0
  161.1960  209.1520  155.3500 C   0  0  2  0  0  3  0  0  0  0  0  0
  161.0190  211.3870  157.1660 O   0  0  0  0  0  0  0  0  0  0  0  0
  162.1880  209.3000  156.4900 C   0  0  0  0  0  2  0  0  0  0  0  0
  159.8260  209.5140  155.9220 C   0  0  2  0  0  3  0  0  0  0  0  0
  159.4240  212.0000  153.4570 O   0  0  0  0  0  1  0  0  0  0  0  0
  160.1370  211.7050  154.6170 C   0  0  0  0  0  2  0  0  0  0  0  0
  163.5220  211.1980  147.8290 C   0  0  0  0  0  1  0  0  0  0  0  0
  162.7250  212.0330  148.7300 N   0  0  0  0  0  0  0  0  0  0  0  0
  162.9060  213.4000  146.6290 C   0  0  0  0  0  2  0  0  0  0  0  0
  162.2810  213.2540  148.0230 C   0  0  1  0  0  3  0  0  0  0  0  0
  160.6410  213.9650  146.5040 C   0  0  0  0  0  0  0  0  0  0  0  0
  161.7810  213.9530  145.8430 C   0  0  0  0  0  0  0  0  0  0  0  0
  160.7610  213.4060  147.8790 C   0  0  0  0  0  2  0  0  0  0  0  0
  161.9210  214.4170  144.5460 O   0  0  0  0  0  1  0  0  0  0  0  0
  159.4100  214.3860  145.9220 N   0  0  0  0  0  2  0  0  0  0  0  0
  158.6000  213.4840  145.1080 C   0  0  0  0  0  2  0  0  0  0  0  0
  159.7700  211.5880  143.2500 O   0  0  0  0  0  0  0  0  0  0  0  0
  159.8030  213.0920  141.4100 C   0  0  0  0  0  1  0  0  0  0  0  0
  159.4740  212.7330  142.8210 C   0  0  0  0  0  0  0  0  0  0  0  0
  158.8470  213.6960  143.6860 N   0  0  0  0  0  2  0  0  0  0  0  0
  162.7560  207.9150  148.5290 C   0  0  0  0  0  2  0  0  0  0  0  0
  162.1280  207.2700  147.3080 C   0  0  0  0  0  2  0  0  0  0  0  0
  161.5220  205.9560  147.6430 C   0  0  0  0  0  0  0  0  0  0  0  0
  160.9230  205.7640  148.9300 N   0  0  0  0  0  2  0  0  0  0  0  0
  161.5560  205.0120  146.8010 O   0  0  0  0  0  0  0  0  0  0  0  0
  160.3660  204.4980  149.3750 C   0  0  0  0  0  2  0  0  0  0  0  0
  161.2710  203.8210  150.4080 C   0  0  0  0  0  2  0  0  0  0  0  0
  160.7590  202.4500  150.8130 C   0  0  2  0  0  3  0  0  0  0  0  0
  160.7620  202.3390  152.2120 O   0  0  0  0  0  1  0  0  0  0  0  0
  161.5770  201.3290  150.1960 C   0  0  0  0  0  2  0  0  0  0  0  0
  159.7290  201.5060  148.3790 C   0  0  0  0  0  1  0  0  0  0  0  0
  161.0070  200.9220  148.8720 C   0  0  0  0  0  0  0  0  0  0  0  0
  161.6030  200.1140  148.1810 O   0  0  0  0  0  0  0  0  0  0  0  0
  2 23  1  6  0  0  0
  2  1  1  0  0  0  0
  3  1  1  0  0  0  0
  3  9  1  1  0  0  0
  4  2  1  0  0  0  0
  4  5  1  0  0  0  0
  5 36  1  6  0  0  0
  5  3  1  0  0  0  0
  6  8  1  0  0  0  0
  7 10  1  0  0  0  0
  8 10  1  0  0  0  0
  9  6  1  0  0  0  0
  9  7  2  0  0  0  0
 10 11  1  1  0  0  0
 11 12  1  1  0  0  0
 13 21  1  6  0  0  0
 13 19  1  0  0  0  0
 13 14  1  0  0  0  0
 14 17  1  6  0  0  0
 15 17  1  0  0  0  0
 16 11  1  1  0  0  0
 16 19  1  0  0  0  0
 16 18  1  0  0  0  0
 18 15  1  0  0  0  0
 19 14  1  0  0  0  0
 20 21  1  0  0  0  0
 22 23  1  0  0  0  0
 24 25  1  0  0  0  0
 25 23  1  0  0  0  0
 26 28  1  0  0  0  0
 27 26  2  0  0  0  0
 27 24  1  0  0  0  0
 28 25  1  0  0  0  0
 29 27  1  0  0  0  0
 30 26  1  0  0  0  0
 31 30  1  0  0  0  0
 33 34  1  0  0  0  0
 34 32  2  0  0  0  0
 34 35  1  0  0  0  0
 35 31  1  0  0  0  0
 37 38  1  0  0  0  0
 37 36  1  0  0  0  0
 38 39  1  0  0  0  0
 39 41  1  0  0  0  0
 40 38  2  0  0  0  0
 41 42  1  0  0  0  0
 42 43  1  0  0  0  0
 43 44  1  0  0  0  0
 45 43  1  0  0  0  0
 46 47  1  0  0  0  0
 47 45  1  0  0  0  0
 48 47  2  0  0  0  0
M  END
>  <MODEL>
7

>  <REMARK>
 VINA RESULT:      -5.8      2.668      8.291
  Name = 
  17 active torsions:
  status: ('A' for Active; 'I' for Inactive)
    1  A    between atoms: C_1  and  C_25
    2  A    between atoms: C_1  and  C_46
    3  A    between atoms: C_2  and  C_9
    4  A    between atoms: C_2  and  C_24
    5  A    between atoms: C_3  and  C_36
    6  A    between atoms: C_3  and  C_45
    7  A    between atoms: C_7  and  C_30
    8  A    between atoms: C_9  and  C_17
    9  A    between atoms: C_10  and  N_37
   10  A    between atoms: C_14  and  C_36
   11  A    between atoms: C_18  and  N_37
   12  A    between atoms: C_19  and  N_21
   13  A    between atoms: N_21  and  C_27
   14  A    between atoms: C_24  and  C_29
   15  A    between atoms: C_26  and  C_33
   16  A    between atoms: C_27  and  N_48
   17  A    between atoms: C_29  and  N_32
                            x       y       z     vdW  Elec       q    Type
                         _______ _______ _______ _____ _____    ______ ____

>  <TORSDO>
F 17

$$$$
=
 OpenBabel11042420473D

 48 52  0  0  1  0  0  0  0  0999 V2000
  159.5880  214.4430  148.0910 S   0  0  0  0  0  0  0  0  0  0  0  0
  160.2220  213.9130  149.7280 C   0  0  2  0  0  3  0  0  0  0  0  0
  160.2840  212.9360  147.3990 C   0  0  2  0  0  3  0  0  0  0  0  0
  161.4080  213.0640  149.5570 N   0  0  0  0  0  2  0  0  0  0  0  0
  161.5520  212.6390  148.1680 C   0  0  1  0  0  3  0  0  0  0  0  0
  161.8310  213.5010  145.4760 O   0  0  0  0  0  0  0  0  0  0  0  0
  159.6510  213.2540  145.0670 N   0  0  0  0  0  0  0  0  0  0  0  0
  161.7380  213.7970  144.0940 C   0  0  0  0  0  2  0  0  0  0  0  0
  160.5770  213.1940  145.9570 C   0  0  0  0  0  0  0  0  0  0  0  0
  160.2380  213.6920  143.8170 C   0  0  1  0  0  3  0  0  0  0  0  0
  159.9090  212.7650  142.6440 C   0  0  2  0  0  3  0  0  0  0  0  0
  159.8100  211.4560  143.0920 O   0  0  0  0  0  1  0  0  0  0  0  0
  161.5600  211.0140  139.7100 C   0  0  2  0  0  3  0  0  0  0  0  0
  160.7580  212.0710  138.9500 C   0  0  2  0  0  3  0  0  0  0  0  0
  161.5760  214.2850  139.5480 C   0  0  0  0  0  2  0  0  0  0  0  0
  160.8320  212.8680  141.3990 C   0  0  2  0  0  3  0  0  0  0  0  0
  161.5510  213.1910  138.6220 O   0  0  0  0  0  0  0  0  0  0  0  0
  160.5920  214.1890  140.6880 C   0  0  0  0  0  2  0  0  0  0  0  0
  160.4310  211.7710  140.4130 C   0  0  2  0  0  3  0  0  0  0  0  0
  163.8750  211.1050  139.1400 O   0  0  0  0  0  1  0  0  0  0  0  0
  162.9630  211.4360  140.1400 C   0  0  0  0  0  2  0  0  0  0  0  0
  159.8910  212.4490  151.5740 C   0  0  0  0  0  1  0  0  0  0  0  0
  159.2050  213.1940  150.5170 N   0  0  0  0  0  0  0  0  0  0  0  0
  156.8310  214.0180  150.5530 C   0  0  0  0  0  2  0  0  0  0  0  0
  158.2520  214.1550  151.1150 C   0  0  1  0  0  3  0  0  0  0  0  0
  156.7020  214.3050  152.8700 C   0  0  0  0  0  0  0  0  0  0  0  0
  156.0000  214.2460  151.7550 C   0  0  0  0  0  0  0  0  0  0  0  0
  158.1620  214.1130  152.6470 C   0  0  0  0  0  2  0  0  0  0  0  0
  154.6240  214.3910  151.7070 O   0  0  0  0  0  1  0  0  0  0  0  0
  156.1060  214.4450  154.1560 N   0  0  0  0  0  2  0  0  0  0  0  0
  155.7340  213.2830  154.9590 C   0  0  0  0  0  2  0  0  0  0  0  0
  157.3540  210.9060  154.5800 O   0  0  0  0  0  0  0  0  0  0  0  0
  158.6220  211.1990  156.5690 C   0  0  0  0  0  1  0  0  0  0  0  0
  157.5870  211.6280  155.5840 C   0  0  0  0  0  0  0  0  0  0  0  0
  156.8470  212.8440  155.7940 N   0  0  0  0  0  2  0  0  0  0  0  0
  161.8500  211.1380  148.1130 C   0  0  0  0  0  2  0  0  0  0  0  0
  161.9790  210.5430  149.5030 C   0  0  0  0  0  2  0  0  0  0  0  0
  162.2380  209.0820  149.4430 C   0  0  0  0  0  0  0  0  0  0  0  0
  161.8450  208.2520  150.5440 N   0  0  0  0  0  2  0  0  0  0  0  0
  162.8180  208.5840  148.4360 O   0  0  0  0  0  0  0  0  0  0  0  0
  162.1150  206.8260  150.6090 C   0  0  0  0  0  2  0  0  0  0  0  0
  160.8300  206.0060  150.4680 C   0  0  0  0  0  2  0  0  0  0  0  0
  160.7440  205.2930  149.1300 C   0  0  2  0  0  3  0  0  0  0  0  0
  161.9220  204.5620  148.9070 O   0  0  0  0  0  1  0  0  0  0  0  0
  160.5020  206.2580  147.9830 C   0  0  0  0  0  2  0  0  0  0  0  0
  160.9920  204.6890  145.9720 C   0  0  0  0  0  1  0  0  0  0  0  0
  161.3290  205.8860  146.7910 C   0  0  0  0  0  0  0  0  0  0  0  0
  162.2810  206.5790  146.4770 O   0  0  0  0  0  0  0  0  0  0  0  0
  1  2  1  0  0  0  0
  2 23  1  6  0  0  0
  3  9  1  6  0  0  0
  3  1  1  0  0  0  0
  3  5  1  0  0  0  0
  4  2  1  0  0  0  0
  5 36  1  1  0  0  0
  5  4  1  0  0  0  0
  6  9  1  0  0  0  0
  7  9  2  0  0  0  0
  8  6  1  0  0  0  0
 10 11  1  6  0  0  0
 10  8  1  0  0  0  0
 10  7  1  0  0  0  0
 11 12  1  1  0  0  0
 13 21  1  1  0  0  0
 13 19  1  0  0  0  0
 14 17  1  1  0  0  0
 14 13  1  0  0  0  0
 14 19  1  0  0  0  0
 15 18  1  0  0  0  0
 16 11  1  1  0  0  0
 17 15  1  0  0  0  0
 18 16  1  0  0  0  0
 19 16  1  0  0  0  0
 20 21  1  0  0  0  0
 23 25  1  0  0  0  0
 23 22  1  0  0  0  0
 24 25  1  0  0  0  0
 24 27  1  0  0  0  0
 25 28  1  0  0  0  0
 26 30  1  0  0  0  0
 27 26  2  0  0  0  0
 28 26  1  0  0  0  0
 29 27  1  0  0  0  0
 30 31  1  0  0  0  0
 31 35  1  0  0  0  0
 32 34  2  0  0  0  0
 34 35  1  0  0  0  0
 34 33  1  0  0  0  0
 36 37  1  0  0  0  0
 38 37  1  0  0  0  0
 38 39  1  0  0  0  0
 39 41  1  0  0  0  0
 40 38  2  0  0  0  0
 42 41  1  0  0  0  0
 43 42  1  0  0  0  0
 44 43  1  0  0  0  0
 45 43  1  0  0  0  0
 46 47  1  0  0  0  0
 47 45  1  0  0  0  0
 48 47  2  0  0  0  0
M  END
>  <MODEL>
8

>  <REMARK>
 VINA RESULT:      -5.6      2.976     11.300
  Name = 
  17 active torsions:
  status: ('A' for Active; 'I' for Inactive)
    1  A    between atoms: C_1  and  C_25
    2  A    between atoms: C_1  and  C_46
    3  A    between atoms: C_2  and  C_9
    4  A    between atoms: C_2  and  C_24
    5  A    between atoms: C_3  and  C_36
    6  A    between atoms: C_3  and  C_45
    7  A    between atoms: C_7  and  C_30
    8  A    between atoms: C_9  and  C_17
    9  A    between atoms: C_10  and  N_37
   10  A    between atoms: C_14  and  C_36
   11  A    between atoms: C_18  and  N_37
   12  A    between atoms: C_19  and  N_21
   13  A    between atoms: N_21  and  C_27
   14  A    between atoms: C_24  and  C_29
   15  A    between atoms: C_26  and  C_33
   16  A    between atoms: C_27  and  N_48
   17  A    between atoms: C_29  and  N_32
                            x       y       z     vdW  Elec       q    Type
                         _______ _______ _______ _____ _____    ______ ____

>  <TORSDO>
F 17

$$$$
=
 OpenBabel11042420473D

 48 52  0  0  1  0  0  0  0  0999 V2000
  161.5420  210.4330  151.1360 S   0  0  0  0  0  0  0  0  0  0  0  0
  161.5770  210.6530  149.3160 C   0  0  2  0  0  3  0  0  0  0  0  0
  162.2940  208.8170  150.8970 C   0  0  2  0  0  3  0  0  0  0  0  0
  161.5120  209.3450  148.6500 N   0  0  0  0  0  2  0  0  0  0  0  0
  161.7500  208.2630  149.6000 C   0  0  1  0  0  3  0  0  0  0  0  0
  162.3360  206.6640  152.2280 O   0  0  0  0  0  0  0  0  0  0  0  0
  161.0390  208.3390  152.9310 N   0  0  0  0  0  0  0  0  0  0  0  0
  161.6900  206.1050  153.3570 C   0  0  0  0  0  2  0  0  0  0  0  0
  161.9020  207.9600  152.0570 C   0  0  0  0  0  0  0  0  0  0  0  0
  160.7520  207.2240  153.8100 C   0  0  1  0  0  3  0  0  0  0  0  0
  160.9090  207.5740  155.2920 C   0  0  2  0  0  3  0  0  0  0  0  0
  159.8700  207.0120  156.0200 O   0  0  0  0  0  1  0  0  0  0  0  0
  159.3520  211.0250  155.5580 C   0  0  2  0  0  3  0  0  0  0  0  0
  159.8150  210.8480  157.0040 C   0  0  2  0  0  3  0  0  0  0  0  0
  162.2440  210.6990  157.0580 C   0  0  0  0  0  2  0  0  0  0  0  0
  161.0910  209.0770  155.6350 C   0  0  2  0  0  3  0  0  0  0  0  0
  161.0560  211.4790  157.2350 O   0  0  0  0  0  0  0  0  0  0  0  0
  162.0220  209.2250  156.8260 C   0  0  0  0  0  2  0  0  0  0  0  0
  159.7380  209.6360  156.0750 C   0  0  2  0  0  3  0  0  0  0  0  0
  159.7110  212.2390  153.5360 O   0  0  0  0  0  1  0  0  0  0  0  0
  160.3730  211.6490  154.6110 C   0  0  0  0  0  2  0  0  0  0  0  0
  163.4280  210.5860  147.8220 C   0  0  0  0  0  1  0  0  0  0  0  0
  162.7750  211.3830  148.8620 N   0  0  0  0  0  0  0  0  0  0  0  0
  162.6200  212.8170  146.8050 C   0  0  0  0  0  2  0  0  0  0  0  0
  162.3900  212.7030  148.3180 C   0  0  1  0  0  3  0  0  0  0  0  0
  160.5580  213.7840  147.3310 C   0  0  0  0  0  0  0  0  0  0  0  0
  161.4460  213.6070  146.3730 C   0  0  0  0  0  0  0  0  0  0  0  0
  160.9470  213.1330  148.6120 C   0  0  0  0  0  2  0  0  0  0  0  0
  161.3050  214.1150  145.0920 O   0  0  0  0  0  1  0  0  0  0  0  0
  159.3160  214.4520  147.1230 N   0  0  0  0  0  2  0  0  0  0  0  0
  158.1450  213.7490  146.6060 C   0  0  0  0  0  2  0  0  0  0  0  0
  157.7840  213.3170  149.4520 O   0  0  0  0  0  0  0  0  0  0  0  0
  155.5130  214.0180  149.4830 C   0  0  0  0  0  1  0  0  0  0  0  0
  156.8170  213.7820  148.7960 C   0  0  0  0  0  0  0  0  0  0  0  0
  156.9560  214.0610  147.3920 N   0  0  0  0  0  2  0  0  0  0  0  0
  162.7470  207.2620  149.0070 C   0  0  0  0  0  2  0  0  0  0  0  0
  162.5430  207.0900  147.5140 C   0  0  0  0  0  2  0  0  0  0  0  0
  162.2820  205.6700  147.1640 C   0  0  0  0  0  0  0  0  0  0  0  0
  162.3830  205.2510  145.7970 N   0  0  0  0  0  2  0  0  0  0  0  0
  161.9540  204.8470  148.0680 O   0  0  0  0  0  0  0  0  0  0  0  0
  162.0810  203.9030  145.3480 C   0  0  0  0  0  2  0  0  0  0  0  0
  161.2300  203.1490  146.3720 C   0  0  0  0  0  2  0  0  0  0  0  0
  160.7720  201.7960  145.8570 C   0  0  2  0  0  3  0  0  0  0  0  0
  159.9120  201.9730  144.7610 O   0  0  0  0  0  1  0  0  0  0  0  0
  160.0840  200.9760  146.9350 C   0  0  0  0  0  2  0  0  0  0  0  0
  160.1250  201.7410  149.4170 C   0  0  0  0  0  1  0  0  0  0  0  0
  160.7980  201.1150  148.2440 C   0  0  0  0  0  0  0  0  0  0  0  0
  161.9360  200.6980  148.3590 O   0  0  0  0  0  0  0  0  0  0  0  0
  2 23  1  1  0  0  0
  2  1  1  0  0  0  0
  3  1  1  0  0  0  0
  3  9  1  1  0  0  0
  4  2  1  0  0  0  0
  4  5  1  0  0  0  0
  5 36  1  6  0  0  0
  5  3  1  0  0  0  0
  6  8  1  0  0  0  0
  7 10  1  0  0  0  0
  8 10  1  0  0  0  0
  9  6  1  0  0  0  0
  9  7  2  0  0  0  0
 10 11  1  1  0  0  0
 11 12  1  1  0  0  0
 13 21  1  6  0  0  0
 13 19  1  0  0  0  0
 13 14  1  0  0  0  0
 14 17  1  6  0  0  0
 15 17  1  0  0  0  0
 16 11  1  1  0  0  0
 16 19  1  0  0  0  0
 16 18  1  0  0  0  0
 18 15  1  0  0  0  0
 19 14  1  0  0  0  0
 20 21  1  0  0  0  0
 22 23  1  0  0  0  0
 24 25  1  0  0  0  0
 25 28  1  0  0  0  0
 25 23  1  0  0  0  0
 26 28  1  0  0  0  0
 27 24  1  0  0  0  0
 27 26  2  0  0  0  0
 29 27  1  0  0  0  0
 30 26  1  0  0  0  0
 31 30  1  0  0  0  0
 31 35  1  0  0  0  0
 34 32  2  0  0  0  0
 34 33  1  0  0  0  0
 35 34  1  0  0  0  0
 37 36  1  0  0  0  0
 38 37  1  0  0  0  0
 38 40  2  0  0  0  0
 39 38  1  0  0  0  0
 41 39  1  0  0  0  0
 41 42  1  0  0  0  0
 43 42  1  0  0  0  0
 43 45  1  0  0  0  0
 44 43  1  0  0  0  0
 45 47  1  0  0  0  0
 47 48  2  0  0  0  0
 47 46  1  0  0  0  0
M  END
>  <MODEL>
9

>  <REMARK>
 VINA RESULT:      -5.3      2.727      8.335
  Name = 
  17 active torsions:
  status: ('A' for Active; 'I' for Inactive)
    1  A    between atoms: C_1  and  C_25
    2  A    between atoms: C_1  and  C_46
    3  A    between atoms: C_2  and  C_9
    4  A    between atoms: C_2  and  C_24
    5  A    between atoms: C_3  and  C_36
    6  A    between atoms: C_3  and  C_45
    7  A    between atoms: C_7  and  C_30
    8  A    between atoms: C_9  and  C_17
    9  A    between atoms: C_10  and  N_37
   10  A    between atoms: C_14  and  C_36
   11  A    between atoms: C_18  and  N_37
   12  A    between atoms: C_19  and  N_21
   13  A    between atoms: N_21  and  C_27
   14  A    between atoms: C_24  and  C_29
   15  A    between atoms: C_26  and  C_33
   16  A    between atoms: C_27  and  N_48
   17  A    between atoms: C_29  and  N_32
                            x       y       z     vdW  Elec       q    Type
                         _______ _______ _______ _____ _____    ______ ____

>  <TORSDO>
F 17

$$$$
