=
 OpenBabel11052411043D

 34 40  0  0  1  0  0  0  0  0999 V2000
  161.5110  204.5530  151.1780 C   0  0  0  0  0  0  0  0  0  0  0  0
  161.1730  202.8130  149.9020 C   0  0  0  0  0  0  0  0  0  0  0  0
  161.9260  203.3160  151.8610 C   0  0  0  0  0  3  0  0  0  0  0  0
  161.0410  202.1690  148.7880 N   0  0  0  0  0  0  0  0  0  0  0  0
  161.7600  207.3500  151.5320 C   0  0  1  0  0  0  0  0  0  0  0  0
  160.6070  206.7770  148.7250 S   0  0  0  0  0  0  0  0  0  0  0  0
  162.3610  206.8210  152.6530 C   0  0  1  0  0  3  0  0  0  0  0  0
  160.2650  207.8770  153.3500 C   0  0  1  0  0  3  0  0  0  0  0  0
  160.3950  207.9430  151.8440 C   0  0  0  0  0  2  0  0  0  0  0  0
  161.3840  206.9600  153.8130 C   0  0  0  0  0  2  0  0  0  0  0  0
  160.5470  202.8410  147.5710 C   0  0  0  0  0  2  0  0  0  0  0  0
  161.7300  202.2830  151.0960 N   0  0  0  0  0  0  0  0  0  0  0  0
  160.5650  204.3190  147.6660 N   0  0  0  0  0  0  0  0  0  0  0  0
  162.7030  207.9370  150.4760 C   0  0  1  0  0  3  0  0  0  0  0  0
  161.0330  204.2280  149.9870 C   0  0  0  0  0  0  0  0  0  0  0  0
  160.7420  204.9890  148.7690 C   0  0  0  0  0  0  0  0  0  0  0  0
  161.8020  205.8670  151.6390 N   0  0  0  0  0  0  0  0  0  0  0  0
  162.7190  207.0540  148.8640 S   0  0  0  0  0  0  0  0  0  0  0  0
  160.1470  210.3870  153.1330 N   0  0  0  0  0  2  0  0  0  0  0  0
  160.8070  209.3830  155.1360 O   0  0  0  0  0  0  0  0  0  0  0  0
  160.4210  209.2430  153.9420 C   0  0  0  0  0  0  0  0  0  0  0  0
  160.0140  212.6530  152.6070 O   0  0  0  0  0  0  0  0  0  0  0  0
  159.0180  212.4520  153.5800 C   0  0  0  0  0  2  0  0  0  0  0  0
  160.3110  211.7410  153.6360 C   0  0  1  0  0  3  0  0  0  0  0  0
  162.4610  209.4250  150.2730 C   0  0  0  0  0  2  0  0  0  0  0  0
  162.1160  209.6890  148.8850 N   0  0  0  0  0  2  0  0  0  0  0  0
  162.5830  211.0310  148.5740 C   0  0  0  0  0  2  0  0  0  0  0  0
  159.7480  212.7710  146.7870 C   0  0  0  0  0  0  0  0  0  0  0  0
  160.9680  212.8220  149.2520 C   0  0  0  0  0  3  0  0  0  0  0  0
  160.8100  211.9040  147.0340 C   0  0  0  0  0  3  0  0  0  0  0  0
  161.4240  211.9250  148.2850 C   0  0  0  0  0  0  0  0  0  0  0  0
  159.3360  213.6230  147.7630 N   0  0  0  0  0  0  0  0  0  0  0  0
  159.0690  212.7660  145.4650 C   0  0  0  0  0  1  0  0  0  0  0  0
  159.9290  213.6480  148.9590 N   0  0  0  0  0  0  0  0  0  0  0  0
  1 17  1  0  0  0  0
  1  3  1  0  0  0  0
  2 15  1  0  0  0  0
  2 12  1  0  0  0  0
  4  2  2  0  0  0  0
  5 17  1  0  0  0  0
  5  9  1  1  0  0  0
  5  7  1  0  0  0  0
  6 16  1  0  0  0  0
  6 18  1  0  0  0  0
  7 10  1  1  0  0  0
  8 10  1  0  0  0  0
  8 21  1  1  0  0  0
  9  8  1  0  0  0  0
 11 13  1  0  0  0  0
 11  4  1  0  0  0  0
 12  3  2  0  0  0  0
 13 16  2  0  0  0  0
 14 25  1  6  0  0  0
 14  5  1  0  0  0  0
 15  1  2  0  0  0  0
 16 15  1  0  0  0  0
 17  7  1  0  0  0  0
 18 14  1  0  0  0  0
 19 21  1  0  0  0  0
 21 20  2  0  0  0  0
 22 23  1  0  0  0  0
 22 24  1  0  0  0  0
 23 24  1  0  0  0  0
 24 19  1  6  0  0  0
 26 25  1  0  0  0  0
 27 26  1  0  0  0  0
 28 30  2  0  0  0  0
 28 32  1  0  0  0  0
 30 31  1  0  0  0  0
 31 27  1  0  0  0  0
 31 29  2  0  0  0  0
 32 34  2  0  0  0  0
 33 28  1  0  0  0  0
 34 29  1  0  0  0  0
M  END
>  <MODEL>
1

>  <REMARK>
 VINA RESULT:      -5.4      0.000      0.000
  Name = 
  6 active torsions:
  status: ('A' for Active; 'I' for Inactive)
    1  A    between atoms: N_11  and  C_32
    2  A    between atoms: C_14  and  C_26
    3  A    between atoms: C_16  and  C_34
    4  A    between atoms: N_23  and  C_26
    5  A    between atoms: N_23  and  C_28
    6  A    between atoms: C_27  and  C_28
                            x       y       z     vdW  Elec       q    Type
                         _______ _______ _______ _____ _____    ______ ____

>  <TORSDO>
F 6

$$$$
=
 OpenBabel11052411043D

 34 40  0  0  1  0  0  0  0  0999 V2000
  161.2240  205.5460  151.8210 C   0  0  0  0  0  0  0  0  0  0  0  0
  160.9800  203.6520  150.7620 C   0  0  0  0  0  0  0  0  0  0  0  0
  161.4820  204.4090  152.7200 C   0  0  0  0  0  3  0  0  0  0  0  0
  160.9710  202.8590  149.7400 N   0  0  0  0  0  0  0  0  0  0  0  0
  161.5550  208.3570  151.8180 C   0  0  1  0  0  0  0  0  0  0  0  0
  160.7710  207.4210  148.9820 S   0  0  0  0  0  0  0  0  0  0  0  0
  161.9710  207.9770  153.0760 C   0  0  1  0  0  3  0  0  0  0  0  0
  159.8530  209.1810  153.3160 C   0  0  1  0  0  3  0  0  0  0  0  0
  160.1900  209.0270  151.8490 C   0  0  0  0  0  2  0  0  0  0  0  0
  160.8530  208.3080  154.0540 C   0  0  0  0  0  2  0  0  0  0  0  0
  160.6800  203.3630  148.3840 C   0  0  0  0  0  2  0  0  0  0  0  0
  161.3440  203.2830  152.0840 N   0  0  0  0  0  0  0  0  0  0  0  0
  160.7560  204.8390  148.2760 N   0  0  0  0  0  0  0  0  0  0  0  0
  162.6610  208.7610  150.8360 C   0  0  1  0  0  3  0  0  0  0  0  0
  160.8980  205.0680  150.6310 C   0  0  0  0  0  0  0  0  0  0  0  0
  160.8130  205.6550  149.2900 C   0  0  0  0  0  0  0  0  0  0  0  0
  161.5110  206.9050  152.1340 N   0  0  0  0  0  0  0  0  0  0  0  0
  162.8550  207.6560  149.3800 S   0  0  0  0  0  0  0  0  0  0  0  0
  158.8230  211.4280  153.8140 N   0  0  0  0  0  2  0  0  0  0  0  0
  161.1290  211.0980  153.9840 O   0  0  0  0  0  0  0  0  0  0  0  0
  159.9920  210.6120  153.7300 C   0  0  0  0  0  0  0  0  0  0  0  0
  158.6360  213.6160  153.0370 O   0  0  0  0  0  0  0  0  0  0  0  0
  157.5780  213.4700  153.9530 C   0  0  0  0  0  2  0  0  0  0  0  0
  158.8920  212.8330  154.1780 C   0  0  1  0  0  3  0  0  0  0  0  0
  162.5200  210.2100  150.3980 C   0  0  0  0  0  2  0  0  0  0  0  0
  162.2050  210.2740  148.9800 N   0  0  0  0  0  2  0  0  0  0  0  0
  162.4760  211.6330  148.5400 C   0  0  0  0  0  2  0  0  0  0  0  0
  159.3660  212.8060  146.7480 C   0  0  0  0  0  0  0  0  0  0  0  0
  160.6680  213.2640  149.1280 C   0  0  0  0  0  3  0  0  0  0  0  0
  160.5430  212.1110  147.0200 C   0  0  0  0  0  3  0  0  0  0  0  0
  161.1980  212.3390  148.2290 C   0  0  0  0  0  0  0  0  0  0  0  0
  158.8850  213.6930  147.6590 N   0  0  0  0  0  0  0  0  0  0  0  0
  158.6400  212.5790  145.4710 C   0  0  0  0  0  1  0  0  0  0  0  0
  159.5170  213.9160  148.8130 N   0  0  0  0  0  0  0  0  0  0  0  0
  1 17  1  0  0  0  0
  1  3  1  0  0  0  0
  2 12  1  0  0  0  0
  4  2  2  0  0  0  0
  5  9  1  6  0  0  0
  5 17  1  0  0  0  0
  5  7  1  0  0  0  0
  6 16  1  0  0  0  0
  6 18  1  0  0  0  0
  7 10  1  1  0  0  0
  8 21  1  1  0  0  0
  8 10  1  0  0  0  0
  9  8  1  0  0  0  0
 11  4  1  0  0  0  0
 12  3  2  0  0  0  0
 13 11  1  0  0  0  0
 13 16  2  0  0  0  0
 14 25  1  6  0  0  0
 14  5  1  0  0  0  0
 15  2  1  0  0  0  0
 15  1  2  0  0  0  0
 16 15  1  0  0  0  0
 17  7  1  0  0  0  0
 18 14  1  0  0  0  0
 21 19  1  0  0  0  0
 21 20  2  0  0  0  0
 22 23  1  0  0  0  0
 22 24  1  0  0  0  0
 23 24  1  0  0  0  0
 24 19  1  6  0  0  0
 26 25  1  0  0  0  0
 27 26  1  0  0  0  0
 28 30  2  0  0  0  0
 28 32  1  0  0  0  0
 30 31  1  0  0  0  0
 31 27  1  0  0  0  0
 31 29  2  0  0  0  0
 32 34  2  0  0  0  0
 33 28  1  0  0  0  0
 34 29  1  0  0  0  0
M  END
>  <MODEL>
2

>  <REMARK>
 VINA RESULT:      -5.1      1.073      1.162
  Name = 
  6 active torsions:
  status: ('A' for Active; 'I' for Inactive)
    1  A    between atoms: N_11  and  C_32
    2  A    between atoms: C_14  and  C_26
    3  A    between atoms: C_16  and  C_34
    4  A    between atoms: N_23  and  C_26
    5  A    between atoms: N_23  and  C_28
    6  A    between atoms: C_27  and  C_28
                            x       y       z     vdW  Elec       q    Type
                         _______ _______ _______ _____ _____    ______ ____

>  <TORSDO>
F 6

$$$$
=
 OpenBabel11052411043D

 34 40  0  0  1  0  0  0  0  0999 V2000
  161.6270  204.3990  150.9570 C   0  0  0  0  0  0  0  0  0  0  0  0
  161.2500  202.7380  149.5900 C   0  0  0  0  0  0  0  0  0  0  0  0
  162.1070  203.1310  151.5310 C   0  0  0  0  0  3  0  0  0  0  0  0
  161.0660  202.1650  148.4440 N   0  0  0  0  0  0  0  0  0  0  0  0
  161.8390  207.1720  151.4800 C   0  0  1  0  0  0  0  0  0  0  0  0
  160.5360  206.7550  148.7130 S   0  0  0  0  0  0  0  0  0  0  0  0
  162.5160  206.5860  152.5280 C   0  0  1  0  0  3  0  0  0  0  0  0
  160.4440  207.5440  153.4120 C   0  0  1  0  0  3  0  0  0  0  0  0
  160.4840  207.7100  151.9090 C   0  0  0  0  0  2  0  0  0  0  0  0
  161.6060  206.6250  153.7480 C   0  0  0  0  0  2  0  0  0  0  0  0
  160.4880  202.9020  147.3050 C   0  0  0  0  0  2  0  0  0  0  0  0
  161.8880  202.1450  150.7120 N   0  0  0  0  0  0  0  0  0  0  0  0
  160.4820  204.3710  147.4970 N   0  0  0  0  0  0  0  0  0  0  0  0
  162.7070  207.8500  150.4130 C   0  0  1  0  0  3  0  0  0  0  0  0
  161.0870  204.1410  149.7770 C   0  0  0  0  0  0  0  0  0  0  0  0
  160.7090  204.9720  148.6300 C   0  0  0  0  0  0  0  0  0  0  0  0
  161.9180  205.6870  151.4870 N   0  0  0  0  0  0  0  0  0  0  0  0
  162.6460  207.0740  148.7490 S   0  0  0  0  0  0  0  0  0  0  0  0
  161.0630  208.9160  155.4350 N   0  0  0  0  0  2  0  0  0  0  0  0
  160.3250  209.9380  153.4690 O   0  0  0  0  0  0  0  0  0  0  0  0
  160.6060  208.8710  154.0840 C   0  0  0  0  0  0  0  0  0  0  0  0
  162.0590  209.9690  157.2590 O   0  0  0  0  0  0  0  0  0  0  0  0
  162.6240  210.5940  156.1330 C   0  0  0  0  0  2  0  0  0  0  0  0
  161.2100  210.1690  156.1560 C   0  0  1  0  0  3  0  0  0  0  0  0
  162.4220  209.3410  150.3240 C   0  0  0  0  0  2  0  0  0  0  0  0
  162.0310  209.6930  148.9690 N   0  0  0  0  0  2  0  0  0  0  0  0
  162.8410  210.8340  148.5700 C   0  0  0  0  0  2  0  0  0  0  0  0
  160.3310  213.6090  149.0720 C   0  0  0  0  0  0  0  0  0  0  0  0
  161.9450  212.6310  147.0730 C   0  0  0  0  0  3  0  0  0  0  0  0
  161.1500  212.5140  149.3390 C   0  0  0  0  0  3  0  0  0  0  0  0
  161.9720  212.0230  148.3280 C   0  0  0  0  0  0  0  0  0  0  0  0
  160.3440  214.1720  147.8350 N   0  0  0  0  0  0  0  0  0  0  0  0
  159.4480  214.1610  150.1330 C   0  0  0  0  0  1  0  0  0  0  0  0
  161.1270  213.6960  146.8640 N   0  0  0  0  0  0  0  0  0  0  0  0
  1 17  1  0  0  0  0
  1  3  1  0  0  0  0
  2 15  1  0  0  0  0
  2 12  1  0  0  0  0
  4  2  2  0  0  0  0
  5 17  1  0  0  0  0
  5  9  1  1  0  0  0
  5  7  1  0  0  0  0
  6 18  1  0  0  0  0
  7 10  1  1  0  0  0
  8 10  1  0  0  0  0
  8 21  1  1  0  0  0
  9  8  1  0  0  0  0
 11 13  1  0  0  0  0
 11  4  1  0  0  0  0
 12  3  2  0  0  0  0
 13 16  2  0  0  0  0
 14 25  1  6  0  0  0
 14  5  1  0  0  0  0
 15  1  2  0  0  0  0
 16  6  1  0  0  0  0
 16 15  1  0  0  0  0
 17  7  1  0  0  0  0
 18 14  1  0  0  0  0
 20 21  2  0  0  0  0
 21 19  1  0  0  0  0
 23 24  1  0  0  0  0
 23 22  1  0  0  0  0
 24 19  1  6  0  0  0
 24 22  1  0  0  0  0
 26 25  1  0  0  0  0
 27 26  1  0  0  0  0
 28 30  1  0  0  0  0
 28 33  1  0  0  0  0
 29 31  1  0  0  0  0
 31 27  1  0  0  0  0
 31 30  2  0  0  0  0
 32 28  2  0  0  0  0
 34 29  2  0  0  0  0
 34 32  1  0  0  0  0
M  END
>  <MODEL>
3

>  <REMARK>
 VINA RESULT:      -4.6      1.396      1.942
  Name = 
  6 active torsions:
  status: ('A' for Active; 'I' for Inactive)
    1  A    between atoms: N_11  and  C_32
    2  A    between atoms: C_14  and  C_26
    3  A    between atoms: C_16  and  C_34
    4  A    between atoms: N_23  and  C_26
    5  A    between atoms: N_23  and  C_28
    6  A    between atoms: C_27  and  C_28
                            x       y       z     vdW  Elec       q    Type
                         _______ _______ _______ _____ _____    ______ ____

>  <TORSDO>
F 6

$$$$
=
 OpenBabel11052411043D

 34 40  0  0  1  0  0  0  0  0999 V2000
  161.6430  208.9140  152.3500 C   0  0  0  0  0  0  0  0  0  0  0  0
  161.1740  209.7840  154.2980 C   0  0  0  0  0  0  0  0  0  0  0  0
  162.1930  210.2760  152.4600 C   0  0  0  0  0  3  0  0  0  0  0  0
  160.8980  209.7790  155.5620 N   0  0  0  0  0  0  0  0  0  0  0  0
  161.8540  206.6810  150.6250 C   0  0  1  0  0  0  0  0  0  0  0  0
  160.3170  205.8570  153.1730 S   0  0  0  0  0  0  0  0  0  0  0  0
  162.6310  207.6420  150.0160 C   0  0  1  0  0  3  0  0  0  0  0  0
  160.6300  207.3120  148.6450 C   0  0  1  0  0  3  0  0  0  0  0  0
  160.5330  206.4740  149.9010 C   0  0  0  0  0  2  0  0  0  0  0  0
  161.8330  208.2160  148.8540 C   0  0  0  0  0  2  0  0  0  0  0  0
  160.2080  208.6360  156.1890 C   0  0  0  0  0  2  0  0  0  0  0  0
  161.9180  210.7880  153.6230 N   0  0  0  0  0  0  0  0  0  0  0  0
  160.1950  207.4210  155.3430 N   0  0  0  0  0  0  0  0  0  0  0  0
  162.6120  205.5430  151.3190 C   0  0  1  0  0  3  0  0  0  0  0  0
  161.0040  208.6330  153.4750 C   0  0  0  0  0  0  0  0  0  0  0  0
  160.5120  207.3920  154.0800 C   0  0  0  0  0  0  0  0  0  0  0  0
  161.9580  207.9970  151.3090 N   0  0  0  0  0  0  0  0  0  0  0  0
  162.4170  205.4730  153.1450 S   0  0  0  0  0  0  0  0  0  0  0  0
  161.9800  205.5890  147.3930 N   0  0  0  0  0  2  0  0  0  0  0  0
  160.0000  206.4460  146.5000 O   0  0  0  0  0  0  0  0  0  0  0  0
  160.8290  206.4310  147.4510 C   0  0  0  0  0  0  0  0  0  0  0  0
  162.9220  205.4840  145.2640 O   0  0  0  0  0  0  0  0  0  0  0  0
  163.7090  204.6180  146.0470 C   0  0  0  0  0  2  0  0  0  0  0  0
  162.2500  204.7360  146.2480 C   0  0  1  0  0  3  0  0  0  0  0  0
  162.2960  204.1940  150.6920 C   0  0  0  0  0  2  0  0  0  0  0  0
  161.3990  203.4420  151.5530 N   0  0  0  0  0  2  0  0  0  0  0  0
  160.2460  203.0670  150.7500 C   0  0  0  0  0  2  0  0  0  0  0  0
  160.7900  201.5940  147.3160 C   0  0  0  0  0  0  0  0  0  0  0  0
  161.2620  200.9250  149.9420 C   0  0  0  0  0  3  0  0  0  0  0  0
  160.4150  202.4850  148.3190 C   0  0  0  0  0  3  0  0  0  0  0  0
  160.6600  202.1490  149.6490 C   0  0  0  0  0  0  0  0  0  0  0  0
  161.3800  200.4150  147.6510 N   0  0  0  0  0  0  0  0  0  0  0  0
  160.5490  201.9280  145.8880 C   0  0  0  0  0  1  0  0  0  0  0  0
  161.6080  200.0910  148.9260 N   0  0  0  0  0  0  0  0  0  0  0  0
  1  3  1  0  0  0  0
  1 15  2  0  0  0  0
  2  4  2  0  0  0  0
  3 12  2  0  0  0  0
  4 11  1  0  0  0  0
  5  9  1  6  0  0  0
  5 17  1  0  0  0  0
  5 14  1  0  0  0  0
  6 16  1  0  0  0  0
  7 10  1  6  0  0  0
  7  5  1  0  0  0  0
  7 17  1  0  0  0  0
  8 21  1  6  0  0  0
  8 10  1  0  0  0  0
  8  9  1  0  0  0  0
 12  2  1  0  0  0  0
 13 11  1  0  0  0  0
 14 25  1  6  0  0  0
 14 18  1  0  0  0  0
 15 16  1  0  0  0  0
 15  2  1  0  0  0  0
 16 13  2  0  0  0  0
 17  1  1  0  0  0  0
 18  6  1  0  0  0  0
 19 21  1  0  0  0  0
 20 21  2  0  0  0  0
 22 23  1  0  0  0  0
 22 24  1  0  0  0  0
 23 24  1  0  0  0  0
 24 19  1  1  0  0  0
 25 26  1  0  0  0  0
 27 26  1  0  0  0  0
 28 32  2  0  0  0  0
 28 30  1  0  0  0  0
 30 31  2  0  0  0  0
 31 29  1  0  0  0  0
 31 27  1  0  0  0  0
 32 34  1  0  0  0  0
 33 28  1  0  0  0  0
 34 29  2  0  0  0  0
M  END
>  <MODEL>
4

>  <REMARK>
 VINA RESULT:      -4.5      3.760      8.266
  Name = 
  6 active torsions:
  status: ('A' for Active; 'I' for Inactive)
    1  A    between atoms: N_11  and  C_32
    2  A    between atoms: C_14  and  C_26
    3  A    between atoms: C_16  and  C_34
    4  A    between atoms: N_23  and  C_26
    5  A    between atoms: N_23  and  C_28
    6  A    between atoms: C_27  and  C_28
                            x       y       z     vdW  Elec       q    Type
                         _______ _______ _______ _____ _____    ______ ____

>  <TORSDO>
F 6

$$$$
=
 OpenBabel11052411043D

 34 40  0  0  1  0  0  0  0  0999 V2000
  161.5330  204.2010  149.0120 C   0  0  0  0  0  0  0  0  0  0  0  0
  161.1380  203.2940  147.0650 C   0  0  0  0  0  0  0  0  0  0  0  0
  161.9380  202.7850  149.0040 C   0  0  0  0  0  3  0  0  0  0  0  0
  160.9720  203.2680  145.7820 N   0  0  0  0  0  0  0  0  0  0  0  0
  161.8420  206.4790  150.6620 C   0  0  1  0  0  0  0  0  0  0  0  0
  160.6260  207.3390  147.9580 S   0  0  0  0  0  0  0  0  0  0  0  0
  162.4540  205.4710  151.3740 C   0  0  1  0  0  3  0  0  0  0  0  0
  160.3930  206.0770  152.5480 C   0  0  1  0  0  3  0  0  0  0  0  0
  160.4960  206.8590  151.2570 C   0  0  0  0  0  2  0  0  0  0  0  0
  161.5030  205.0410  152.4820 C   0  0  0  0  0  2  0  0  0  0  0  0
  160.4680  204.4470  145.0520 C   0  0  0  0  0  2  0  0  0  0  0  0
  161.7080  202.2510  147.8410 N   0  0  0  0  0  0  0  0  0  0  0  0
  160.5170  205.6960  145.8470 N   0  0  0  0  0  0  0  0  0  0  0  0
  162.7770  207.4960  149.9960 C   0  0  1  0  0  3  0  0  0  0  0  0
  161.0270  204.4940  147.8250 C   0  0  0  0  0  0  0  0  0  0  0  0
  160.7270  205.7500  147.1320 C   0  0  0  0  0  0  0  0  0  0  0  0
  161.8580  205.1280  150.0410 N   0  0  0  0  0  0  0  0  0  0  0  0
  162.7450  207.4990  148.1590 S   0  0  0  0  0  0  0  0  0  0  0  0
  160.9410  208.3510  153.4910 N   0  0  0  0  0  2  0  0  0  0  0  0
  160.4560  206.5500  154.8980 O   0  0  0  0  0  0  0  0  0  0  0  0
  160.5860  206.9870  153.7200 C   0  0  0  0  0  0  0  0  0  0  0  0
  161.4970  210.5410  154.0570 O   0  0  0  0  0  0  0  0  0  0  0  0
  160.1840  210.3710  154.5330 C   0  0  0  0  0  2  0  0  0  0  0  0
  161.1750  209.2770  154.5850 C   0  0  1  0  0  3  0  0  0  0  0  0
  162.5590  208.8990  150.5410 C   0  0  0  0  0  2  0  0  0  0  0  0
  161.9570  209.7420  149.5210 N   0  0  0  0  0  2  0  0  0  0  0  0
  162.4180  211.1000  149.7580 C   0  0  0  0  0  2  0  0  0  0  0  0
  162.0050  213.1040  146.5850 C   0  0  0  0  0  0  0  0  0  0  0  0
  160.6850  212.7270  148.9690 C   0  0  0  0  0  3  0  0  0  0  0  0
  162.5350  212.2170  147.5190 C   0  0  0  0  0  3  0  0  0  0  0  0
  161.8630  212.0210  148.7240 C   0  0  0  0  0  0  0  0  0  0  0  0
  160.8510  213.7650  146.8670 N   0  0  0  0  0  0  0  0  0  0  0  0
  162.6950  213.3280  145.2880 C   0  0  0  0  0  1  0  0  0  0  0  0
  160.2110  213.5830  148.0250 N   0  0  0  0  0  0  0  0  0  0  0  0
  1 17  1  0  0  0  0
  2 15  1  0  0  0  0
  2 12  1  0  0  0  0
  3  1  1  0  0  0  0
  4  2  2  0  0  0  0
  5  9  1  1  0  0  0
  5  7  1  0  0  0  0
  6 18  1  0  0  0  0
  7 10  1  1  0  0  0
  8 21  1  1  0  0  0
  9  8  1  0  0  0  0
 10  8  1  0  0  0  0
 11  4  1  0  0  0  0
 11 13  1  0  0  0  0
 12  3  2  0  0  0  0
 13 16  2  0  0  0  0
 14 25  1  1  0  0  0
 14  5  1  0  0  0  0
 15  1  2  0  0  0  0
 16 15  1  0  0  0  0
 16  6  1  0  0  0  0
 17  5  1  0  0  0  0
 17  7  1  0  0  0  0
 18 14  1  0  0  0  0
 19 21  1  0  0  0  0
 21 20  2  0  0  0  0
 22 23  1  0  0  0  0
 22 24  1  0  0  0  0
 23 24  1  0  0  0  0
 24 19  1  6  0  0  0
 26 27  1  0  0  0  0
 26 25  1  0  0  0  0
 28 32  2  0  0  0  0
 28 30  1  0  0  0  0
 30 31  2  0  0  0  0
 31 29  1  0  0  0  0
 31 27  1  0  0  0  0
 32 34  1  0  0  0  0
 33 28  1  0  0  0  0
 34 29  2  0  0  0  0
M  END
>  <MODEL>
5

>  <REMARK>
 VINA RESULT:      -3.9      1.613      2.141
  Name = 
  6 active torsions:
  status: ('A' for Active; 'I' for Inactive)
    1  A    between atoms: N_11  and  C_32
    2  A    between atoms: C_14  and  C_26
    3  A    between atoms: C_16  and  C_34
    4  A    between atoms: N_23  and  C_26
    5  A    between atoms: N_23  and  C_28
    6  A    between atoms: C_27  and  C_28
                            x       y       z     vdW  Elec       q    Type
                         _______ _______ _______ _____ _____    ______ ____

>  <TORSDO>
F 6

$$$$
=
 OpenBabel11052411043D

 34 40  0  0  1  0  0  0  0  0999 V2000
  161.3140  204.7920  151.2990 C   0  0  0  0  0  0  0  0  0  0  0  0
  161.0050  203.4430  149.6090 C   0  0  0  0  0  0  0  0  0  0  0  0
  161.5990  203.4000  151.6830 C   0  0  0  0  0  3  0  0  0  0  0  0
  160.9430  203.1010  148.3630 N   0  0  0  0  0  0  0  0  0  0  0  0
  161.6750  207.3940  152.3530 C   0  0  1  0  0  0  0  0  0  0  0  0
  160.7580  207.6050  149.4120 S   0  0  0  0  0  0  0  0  0  0  0  0
  162.1410  206.5660  153.3510 C   0  0  1  0  0  3  0  0  0  0  0  0
  160.0490  207.5720  154.1250 C   0  0  1  0  0  3  0  0  0  0  0  0
  160.3200  207.9920  152.6970 C   0  0  0  0  0  2  0  0  0  0  0  0
  161.0700  206.4900  154.4300 C   0  0  0  0  0  2  0  0  0  0  0  0
  160.5990  204.0820  147.3160 C   0  0  0  0  0  2  0  0  0  0  0  0
  161.4210  202.6010  150.6730 N   0  0  0  0  0  0  0  0  0  0  0  0
  160.6860  205.4870  147.7760 N   0  0  0  0  0  0  0  0  0  0  0  0
  162.7410  208.1490  151.5510 C   0  0  1  0  0  3  0  0  0  0  0  0
  160.9320  204.8020  150.0320 C   0  0  0  0  0  0  0  0  0  0  0  0
  160.7950  205.8550  149.0210 C   0  0  0  0  0  0  0  0  0  0  0  0
  161.6290  205.9300  152.0920 N   0  0  0  0  0  0  0  0  0  0  0  0
  162.8600  207.6850  149.7780 S   0  0  0  0  0  0  0  0  0  0  0  0
  161.4660  208.9160  155.7200 N   0  0  0  0  0  2  0  0  0  0  0  0
  159.2680  209.5450  155.2430 O   0  0  0  0  0  0  0  0  0  0  0  0
  160.2200  208.7390  155.0480 C   0  0  0  0  0  0  0  0  0  0  0  0
  162.9480  209.8490  157.2580 O   0  0  0  0  0  0  0  0  0  0  0  0
  162.8570  210.8010  156.2260 C   0  0  0  0  0  2  0  0  0  0  0  0
  161.6870  210.0070  156.6540 C   0  0  1  0  0  3  0  0  0  0  0  0
  162.5970  209.6550  151.7060 C   0  0  0  0  0  2  0  0  0  0  0  0
  161.1920  210.0270  151.6720 N   0  0  0  0  0  2  0  0  0  0  0  0
  161.0220  211.1510  152.5780 C   0  0  0  0  0  2  0  0  0  0  0  0
  158.0390  213.4130  152.0860 C   0  0  0  0  0  0  0  0  0  0  0  0
  160.3330  212.7080  150.7420 C   0  0  0  0  0  3  0  0  0  0  0  0
  158.9130  212.4990  152.6710 C   0  0  0  0  0  3  0  0  0  0  0  0
  160.0780  212.1480  151.9930 C   0  0  0  0  0  0  0  0  0  0  0  0
  158.3340  213.9370  150.8660 N   0  0  0  0  0  0  0  0  0  0  0  0
  156.7920  213.8130  152.7880 C   0  0  0  0  0  1  0  0  0  0  0  0
  159.4470  213.5940  150.2140 N   0  0  0  0  0  0  0  0  0  0  0  0
  1  3  1  0  0  0  0
  1 17  1  0  0  0  0
  2 15  1  0  0  0  0
  2 12  1  0  0  0  0
  4  2  2  0  0  0  0
  5  9  1  1  0  0  0
  5  7  1  0  0  0  0
  6 18  1  0  0  0  0
  7 10  1  1  0  0  0
  8 10  1  0  0  0  0
  8 21  1  1  0  0  0
  9  8  1  0  0  0  0
 11 13  1  0  0  0  0
 11  4  1  0  0  0  0
 12  3  2  0  0  0  0
 13 16  2  0  0  0  0
 14 25  1  6  0  0  0
 14  5  1  0  0  0  0
 15  1  2  0  0  0  0
 16  6  1  0  0  0  0
 16 15  1  0  0  0  0
 17  5  1  0  0  0  0
 17  7  1  0  0  0  0
 18 14  1  0  0  0  0
 21 20  2  0  0  0  0
 21 19  1  0  0  0  0
 23 24  1  0  0  0  0
 23 22  1  0  0  0  0
 24 19  1  6  0  0  0
 24 22  1  0  0  0  0
 26 25  1  0  0  0  0
 26 27  1  0  0  0  0
 28 30  1  0  0  0  0
 28 33  1  0  0  0  0
 29 31  1  0  0  0  0
 31 27  1  0  0  0  0
 31 30  2  0  0  0  0
 32 28  2  0  0  0  0
 34 29  2  0  0  0  0
 34 32  1  0  0  0  0
M  END
>  <MODEL>
6

>  <REMARK>
 VINA RESULT:      -3.3      2.040      2.930
  Name = 
  6 active torsions:
  status: ('A' for Active; 'I' for Inactive)
    1  A    between atoms: N_11  and  C_32
    2  A    between atoms: C_14  and  C_26
    3  A    between atoms: C_16  and  C_34
    4  A    between atoms: N_23  and  C_26
    5  A    between atoms: N_23  and  C_28
    6  A    between atoms: C_27  and  C_28
                            x       y       z     vdW  Elec       q    Type
                         _______ _______ _______ _____ _____    ______ ____

>  <TORSDO>
F 6

$$$$
=
 OpenBabel11052411043D

 34 40  0  0  1  0  0  0  0  0999 V2000
  160.9610  203.9780  147.0260 C   0  0  0  0  0  0  0  0  0  0  0  0
  161.1340  201.8990  146.3780 C   0  0  0  0  0  0  0  0  0  0  0  0
  160.5070  203.8250  145.6330 C   0  0  0  0  0  3  0  0  0  0  0  0
  161.1750  200.6140  146.5200 N   0  0  0  0  0  0  0  0  0  0  0  0
  160.8930  205.9350  149.0690 C   0  0  1  0  0  0  0  0  0  0  0  0
  161.8730  203.2580  150.2550 S   0  0  0  0  0  0  0  0  0  0  0  0
  160.3170  206.5660  147.9880 C   0  0  1  0  0  3  0  0  0  0  0  0
  162.5020  207.5970  148.3850 C   0  0  1  0  0  3  0  0  0  0  0  0
  162.3040  206.4360  149.3350 C   0  0  0  0  0  2  0  0  0  0  0  0
  161.3550  207.5080  147.3930 C   0  0  0  0  0  2  0  0  0  0  0  0
  161.6480  199.9980  147.7750 C   0  0  0  0  0  2  0  0  0  0  0  0
  160.6050  202.5850  145.2540 N   0  0  0  0  0  0  0  0  0  0  0  0
  161.7200  200.9500  148.9070 N   0  0  0  0  0  0  0  0  0  0  0  0
  159.9360  205.5040  150.1870 C   0  0  1  0  0  3  0  0  0  0  0  0
  161.3610  202.7950  147.4630 C   0  0  0  0  0  0  0  0  0  0  0  0
  161.6370  202.2450  148.7940 C   0  0  0  0  0  0  0  0  0  0  0  0
  160.7700  205.1470  147.8140 N   0  0  0  0  0  0  0  0  0  0  0  0
  159.7900  203.6890  150.4340 S   0  0  0  0  0  0  0  0  0  0  0  0
  162.2220  210.1030  148.4160 N   0  0  0  0  0  2  0  0  0  0  0  0
  162.6380  208.9150  150.3840 O   0  0  0  0  0  0  0  0  0  0  0  0
  162.4550  208.8920  149.1350 C   0  0  0  0  0  0  0  0  0  0  0  0
  162.9430  212.3160  148.3180 O   0  0  0  0  0  0  0  0  0  0  0  0
  161.5430  212.3910  148.2040 C   0  0  0  0  0  2  0  0  0  0  0  0
  162.1980  211.3960  149.0780 C   0  0  1  0  0  3  0  0  0  0  0  0
  160.2550  206.2030  151.4980 C   0  0  0  0  0  2  0  0  0  0  0  0
  160.8840  205.2710  152.4200 N   0  0  0  0  0  2  0  0  0  0  0  0
  161.8520  206.0250  153.2000 C   0  0  0  0  0  2  0  0  0  0  0  0
  160.6560  209.4080  154.3730 C   0  0  0  0  0  0  0  0  0  0  0  0
  160.4240  206.7710  155.1180 C   0  0  0  0  0  3  0  0  0  0  0  0
  161.2880  208.4310  153.6070 C   0  0  0  0  0  3  0  0  0  0  0  0
  161.1650  207.0940  153.9810 C   0  0  0  0  0  0  0  0  0  0  0  0
  159.9400  209.0430  155.4700 N   0  0  0  0  0  0  0  0  0  0  0  0
  160.7630  210.8420  153.9950 C   0  0  0  0  0  1  0  0  0  0  0  0
  159.8290  207.7630  155.8310 N   0  0  0  0  0  0  0  0  0  0  0  0
  1 15  2  0  0  0  0
  1 17  1  0  0  0  0
  2  4  2  0  0  0  0
  2 15  1  0  0  0  0
  3  1  1  0  0  0  0
  4 11  1  0  0  0  0
  5  9  1  1  0  0  0
  5 14  1  0  0  0  0
  6 18  1  0  0  0  0
  7 10  1  6  0  0  0
  7  5  1  0  0  0  0
  8 21  1  1  0  0  0
  8  9  1  0  0  0  0
 10  8  1  0  0  0  0
 11 13  1  0  0  0  0
 12  3  2  0  0  0  0
 12  2  1  0  0  0  0
 14 18  1  0  0  0  0
 14 25  1  1  0  0  0
 15 16  1  0  0  0  0
 16 13  2  0  0  0  0
 16  6  1  0  0  0  0
 17  7  1  0  0  0  0
 17  5  1  0  0  0  0
 19 21  1  0  0  0  0
 21 20  2  0  0  0  0
 22 24  1  0  0  0  0
 23 22  1  0  0  0  0
 23 24  1  0  0  0  0
 24 19  1  6  0  0  0
 25 26  1  0  0  0  0
 26 27  1  0  0  0  0
 27 31  1  0  0  0  0
 28 32  1  0  0  0  0
 29 34  1  0  0  0  0
 30 31  1  0  0  0  0
 30 28  2  0  0  0  0
 31 29  2  0  0  0  0
 32 34  2  0  0  0  0
 33 28  1  0  0  0  0
M  END
>  <MODEL>
7

>  <REMARK>
 VINA RESULT:      -3.2      2.454      5.691
  Name = 
  6 active torsions:
  status: ('A' for Active; 'I' for Inactive)
    1  A    between atoms: N_11  and  C_32
    2  A    between atoms: C_14  and  C_26
    3  A    between atoms: C_16  and  C_34
    4  A    between atoms: N_23  and  C_26
    5  A    between atoms: N_23  and  C_28
    6  A    between atoms: C_27  and  C_28
                            x       y       z     vdW  Elec       q    Type
                         _______ _______ _______ _____ _____    ______ ____

>  <TORSDO>
F 6

$$$$
=
 OpenBabel11052411043D

 34 40  0  0  1  0  0  0  0  0999 V2000
  160.5470  203.4980  146.2930 C   0  0  0  0  0  0  0  0  0  0  0  0
  160.5110  201.5580  145.2910 C   0  0  0  0  0  0  0  0  0  0  0  0
  159.8100  203.5800  145.0200 C   0  0  0  0  0  3  0  0  0  0  0  0
  160.5370  200.2670  145.2080 N   0  0  0  0  0  0  0  0  0  0  0  0
  160.9700  205.0850  148.5970 C   0  0  1  0  0  0  0  0  0  0  0  0
  162.0830  202.2480  149.0950 S   0  0  0  0  0  0  0  0  0  0  0  0
  160.2050  205.8880  147.7800 C   0  0  1  0  0  3  0  0  0  0  0  0
  162.4580  206.8390  147.8740 C   0  0  1  0  0  3  0  0  0  0  0  0
  162.4220  205.5360  148.6410 C   0  0  0  0  0  2  0  0  0  0  0  0
  161.1290  206.9170  147.1440 C   0  0  0  0  0  2  0  0  0  0  0  0
  161.2380  199.4500  146.2170 C   0  0  0  0  0  2  0  0  0  0  0  0
  159.7850  202.4220  144.4310 N   0  0  0  0  0  0  0  0  0  0  0  0
  161.5750  200.1980  147.4490 N   0  0  0  0  0  0  0  0  0  0  0  0
  160.2510  204.4710  149.8050 C   0  0  1  0  0  3  0  0  0  0  0  0
  160.9880  202.2590  146.4360 C   0  0  0  0  0  0  0  0  0  0  0  0
  161.5140  201.4940  147.5710 C   0  0  0  0  0  0  0  0  0  0  0  0
  160.5630  204.5190  147.2840 N   0  0  0  0  0  0  0  0  0  0  0  0
  160.0980  202.6410  149.7760 S   0  0  0  0  0  0  0  0  0  0  0  0
  162.1750  209.2870  148.4120 N   0  0  0  0  0  2  0  0  0  0  0  0
  163.1390  207.8210  149.9540 O   0  0  0  0  0  0  0  0  0  0  0  0
  162.6120  207.9900  148.8190 C   0  0  0  0  0  0  0  0  0  0  0  0
  162.8930  211.5010  148.5210 O   0  0  0  0  0  0  0  0  0  0  0  0
  161.5050  211.5630  148.7450 C   0  0  0  0  0  2  0  0  0  0  0  0
  162.3260  210.4520  149.2670 C   0  0  1  0  0  3  0  0  0  0  0  0
  160.8580  204.9410  151.1170 C   0  0  0  0  0  2  0  0  0  0  0  0
  160.5660  206.3500  151.3260 N   0  0  0  0  0  2  0  0  0  0  0  0
  161.5280  206.8490  152.2960 C   0  0  0  0  0  2  0  0  0  0  0  0
  160.2460  210.3310  152.9950 C   0  0  0  0  0  0  0  0  0  0  0  0
  160.7380  208.0020  154.3740 C   0  0  0  0  0  3  0  0  0  0  0  0
  160.7350  209.2250  152.3020 C   0  0  0  0  0  3  0  0  0  0  0  0
  160.9780  208.0430  153.0000 C   0  0  0  0  0  0  0  0  0  0  0  0
  160.0220  210.2400  154.3330 N   0  0  0  0  0  0  0  0  0  0  0  0
  159.9700  211.6020  152.2760 C   0  0  0  0  0  1  0  0  0  0  0  0
  160.2610  209.1100  155.0020 N   0  0  0  0  0  0  0  0  0  0  0  0
  1 15  2  0  0  0  0
  1 17  1  0  0  0  0
  2 15  1  0  0  0  0
  3  1  1  0  0  0  0
  4  2  2  0  0  0  0
  4 11  1  0  0  0  0
  5  9  1  1  0  0  0
  5 14  1  0  0  0  0
  6 18  1  0  0  0  0
  7 10  1  6  0  0  0
  7  5  1  0  0  0  0
  8  9  1  0  0  0  0
  8 21  1  1  0  0  0
 10  8  1  0  0  0  0
 11 13  1  0  0  0  0
 12  3  2  0  0  0  0
 12  2  1  0  0  0  0
 13 16  2  0  0  0  0
 14 25  1  1  0  0  0
 15 16  1  0  0  0  0
 16  6  1  0  0  0  0
 17  7  1  0  0  0  0
 17  5  1  0  0  0  0
 18 14  1  0  0  0  0
 19 21  1  0  0  0  0
 21 20  2  0  0  0  0
 22 23  1  0  0  0  0
 22 24  1  0  0  0  0
 23 24  1  0  0  0  0
 24 19  1  6  0  0  0
 25 26  1  0  0  0  0
 26 27  1  0  0  0  0
 27 31  1  0  0  0  0
 28 32  1  0  0  0  0
 29 34  1  0  0  0  0
 30 28  2  0  0  0  0
 30 31  1  0  0  0  0
 31 29  2  0  0  0  0
 32 34  2  0  0  0  0
 33 28  1  0  0  0  0
M  END
>  <MODEL>
8

>  <REMARK>
 VINA RESULT:      -3.1      2.682      5.537
  Name = 
  6 active torsions:
  status: ('A' for Active; 'I' for Inactive)
    1  A    between atoms: N_11  and  C_32
    2  A    between atoms: C_14  and  C_26
    3  A    between atoms: C_16  and  C_34
    4  A    between atoms: N_23  and  C_26
    5  A    between atoms: N_23  and  C_28
    6  A    between atoms: C_27  and  C_28
                            x       y       z     vdW  Elec       q    Type
                         _______ _______ _______ _____ _____    ______ ____

>  <TORSDO>
F 6

$$$$
=
 OpenBabel11052411043D

 34 40  0  0  1  0  0  0  0  0999 V2000
  160.4890  203.4270  146.3010 C   0  0  0  0  0  0  0  0  0  0  0  0
  160.4480  201.4760  145.3200 C   0  0  0  0  0  0  0  0  0  0  0  0
  159.7230  203.4900  145.0450 C   0  0  0  0  0  3  0  0  0  0  0  0
  160.4830  200.1850  145.2500 N   0  0  0  0  0  0  0  0  0  0  0  0
  160.9500  205.0400  148.5800 C   0  0  1  0  0  0  0  0  0  0  0  0
  162.0980  202.2180  149.0810 S   0  0  0  0  0  0  0  0  0  0  0  0
  160.1600  205.8290  147.7720 C   0  0  1  0  0  3  0  0  0  0  0  0
  162.4070  206.8000  147.8060 C   0  0  1  0  0  3  0  0  0  0  0  0
  162.3980  205.5040  148.5870 C   0  0  0  0  0  2  0  0  0  0  0  0
  161.0600  206.8590  147.1050 C   0  0  0  0  0  2  0  0  0  0  0  0
  161.2130  199.3840  146.2500 C   0  0  0  0  0  2  0  0  0  0  0  0
  159.6950  202.3260  144.4670 N   0  0  0  0  0  0  0  0  0  0  0  0
  161.5710  200.1480  147.4680 N   0  0  0  0  0  0  0  0  0  0  0  0
  160.2630  204.4330  149.8090 C   0  0  1  0  0  3  0  0  0  0  0  0
  160.9440  202.1930  146.4470 C   0  0  0  0  0  0  0  0  0  0  0  0
  161.5020  201.4440  147.5770 C   0  0  0  0  0  0  0  0  0  0  0  0
  160.5180  204.4580  147.2820 N   0  0  0  0  0  0  0  0  0  0  0  0
  160.1250  202.6010  149.8020 S   0  0  0  0  0  0  0  0  0  0  0  0
  162.1660  209.2610  148.3040 N   0  0  0  0  0  2  0  0  0  0  0  0
  163.0790  207.7990  149.8800 O   0  0  0  0  0  0  0  0  0  0  0  0
  162.5710  207.9620  148.7360 C   0  0  0  0  0  0  0  0  0  0  0  0
  162.9860  211.4390  148.4090 O   0  0  0  0  0  0  0  0  0  0  0  0
  161.5930  211.5730  148.5570 C   0  0  0  0  0  2  0  0  0  0  0  0
  162.3290  210.4350  149.1440 C   0  0  1  0  0  3  0  0  0  0  0  0
  160.8950  204.9210  151.1030 C   0  0  0  0  0  2  0  0  0  0  0  0
  160.5030  206.2970  151.3620 N   0  0  0  0  0  2  0  0  0  0  0  0
  161.6000  206.9290  152.0780 C   0  0  0  0  0  2  0  0  0  0  0  0
  160.3420  207.6740  155.5590 C   0  0  0  0  0  0  0  0  0  0  0  0
  160.7930  209.0170  153.2020 C   0  0  0  0  0  3  0  0  0  0  0  0
  160.8490  206.9730  154.4670 C   0  0  0  0  0  3  0  0  0  0  0  0
  161.0840  207.6550  153.2750 C   0  0  0  0  0  0  0  0  0  0  0  0
  160.0800  209.0030  155.4410 N   0  0  0  0  0  0  0  0  0  0  0  0
  160.0880  206.9750  156.8460 C   0  0  0  0  0  1  0  0  0  0  0  0
  160.2990  209.6540  154.2960 N   0  0  0  0  0  0  0  0  0  0  0  0
  1 15  2  0  0  0  0
  1 17  1  0  0  0  0
  2 15  1  0  0  0  0
  3  1  1  0  0  0  0
  4  2  2  0  0  0  0
  4 11  1  0  0  0  0
  5  9  1  1  0  0  0
  5 14  1  0  0  0  0
  6 18  1  0  0  0  0
  7 10  1  6  0  0  0
  7  5  1  0  0  0  0
  8  9  1  0  0  0  0
  8 21  1  1  0  0  0
 10  8  1  0  0  0  0
 11 13  1  0  0  0  0
 12  3  2  0  0  0  0
 12  2  1  0  0  0  0
 13 16  2  0  0  0  0
 14 25  1  1  0  0  0
 15 16  1  0  0  0  0
 16  6  1  0  0  0  0
 17  7  1  0  0  0  0
 17  5  1  0  0  0  0
 18 14  1  0  0  0  0
 19 21  1  0  0  0  0
 21 20  2  0  0  0  0
 22 23  1  0  0  0  0
 22 24  1  0  0  0  0
 23 24  1  0  0  0  0
 24 19  1  6  0  0  0
 25 26  1  0  0  0  0
 26 27  1  0  0  0  0
 27 31  1  0  0  0  0
 28 33  1  0  0  0  0
 29 31  2  0  0  0  0
 29 34  1  0  0  0  0
 30 28  2  0  0  0  0
 31 30  1  0  0  0  0
 32 28  1  0  0  0  0
 34 32  2  0  0  0  0
M  END
>  <MODEL>
9

>  <REMARK>
 VINA RESULT:      -3.0      2.782      6.114
  Name = 
  6 active torsions:
  status: ('A' for Active; 'I' for Inactive)
    1  A    between atoms: N_11  and  C_32
    2  A    between atoms: C_14  and  C_26
    3  A    between atoms: C_16  and  C_34
    4  A    between atoms: N_23  and  C_26
    5  A    between atoms: N_23  and  C_28
    6  A    between atoms: C_27  and  C_28
                            x       y       z     vdW  Elec       q    Type
                         _______ _______ _______ _____ _____    ______ ____

>  <TORSDO>
F 6

$$$$
