=
 OpenBabel11052409483D

 26 31  0  0  1  0  0  0  0  0999 V2000
  161.2250  207.1530  151.1430 N   0  0  0  0  0  0  0  0  0  0  0  0
  161.3190  205.1280  152.6980 C   0  0  0  0  0  2  0  0  0  0  0  0
  161.1470  205.6810  151.2920 C   0  0  0  0  0  0  0  0  0  0  0  0
  162.4320  204.9550  151.6670 C   0  0  0  0  0  2  0  0  0  0  0  0
  160.8670  203.7590  148.8920 C   0  0  2  0  0  0  0  0  0  0  0  0
  160.6100  202.2900  150.8350 C   0  0  0  0  0  3  0  0  0  0  0  0
  161.3920  201.4800  148.6170 C   0  0  0  0  0  3  0  0  0  0  0  0
  160.2310  204.9290  150.3040 C   0  0  1  0  0  0  0  0  0  0  0  0
  161.3020  202.7680  148.0330 C   0  0  0  0  0  3  0  0  0  0  0  0
  160.5380  203.5320  150.2330 C   0  0  0  0  0  0  0  0  0  0  0  0
  161.0540  201.2460  149.9860 C   0  0  0  0  0  2  0  0  0  0  0  0
  160.5790  205.1590  148.9760 O   0  0  0  0  0  0  0  0  0  0  0  0
  162.4520  207.6910  150.5200 C   0  0  0  0  0  2  0  0  0  0  0  0
  162.2780  208.1460  149.0980 C   0  0  0  0  0  0  0  0  0  0  0  0
  161.8600  209.3080  148.8540 O   0  0  0  0  0  0  0  0  0  0  0  0
  162.6130  207.2780  148.0220 N   0  0  0  0  0  1  0  0  0  0  0  0
  160.8940  207.8310  152.3960 C   0  0  0  0  0  2  0  0  0  0  0  0
  160.7900  209.3340  152.1720 C   0  0  0  0  0  2  0  0  0  0  0  0
  161.5380  210.1110  153.2480 C   0  0  0  0  0  2  0  0  0  0  0  0
  158.6080  211.5570  156.8140 O   0  0  0  0  0  1  0  0  0  0  0  0
  159.2800  211.1830  153.2230 C   0  0  0  0  0  2  0  0  0  0  0  0
  160.6450  211.1650  153.8910 C   0  0  1  0  0  3  0  0  0  0  0  0
  158.9650  210.9470  155.6140 C   0  0  1  0  0  0  0  0  0  0  0  0
  158.2660  211.3570  154.3340 C   0  0  0  0  0  2  0  0  0  0  0  0
  160.4560  210.9310  155.3920 C   0  0  1  0  0  3  0  0  0  0  0  0
  159.7050  209.6330  155.7060 C   0  0  0  0  0  2  0  0  0  0  0  0
  1  3  1  0  0  0  0
  1 17  1  0  0  0  0
  3  4  1  0  0  0  0
  3  2  1  0  0  0  0
  4  2  1  0  0  0  0
  5  9  1  6  0  0  0
  5 12  1  0  0  0  0
  5 10  1  0  0  0  0
  5  8  1  0  0  0  0
  7 11  1  0  0  0  0
  8  3  1  1  0  0  0
  9  7  2  0  0  0  0
 10  8  1  0  0  0  0
 10  6  2  0  0  0  0
 11  6  1  0  0  0  0
 12  8  1  0  0  0  0
 13  1  1  0  0  0  0
 14 13  1  0  0  0  0
 15 14  2  0  0  0  0
 16 14  1  0  0  0  0
 18 17  1  0  0  0  0
 18 19  1  0  0  0  0
 21 22  1  0  0  0  0
 21 24  1  0  0  0  0
 22 19  1  6  0  0  0
 22 25  1  0  0  0  0
 23 26  1  0  0  0  0
 23 20  1  1  0  0  0
 24 23  1  0  0  0  0
 25 23  1  0  0  0  0
 25 26  1  6  0  0  0
M  END
>  <MODEL>
1

>  <REMARK>
 VINA RESULT:      -7.4      0.000      0.000
  Name = 
  8 active torsions:
  status: ('A' for Active; 'I' for Inactive)
    1  A    between atoms: C_5  and  C_8
    2  A    between atoms: C_6  and  N_9
    3  A    between atoms: C_6  and  C_11
    4  A    between atoms: C_7  and  C_8
    5  A    between atoms: C_7  and  C_18
    6  A    between atoms: N_9  and  C_12
    7  A    between atoms: N_9  and  C_18
    8  A    between atoms: C_12  and  C_16
                            x       y       z     vdW  Elec       q    Type
                         _______ _______ _______ _____ _____    ______ ____

>  <TORSDO>
F 8

$$$$
=
 OpenBabel11052409483D

 26 31  0  0  1  0  0  0  0  0999 V2000
  161.7380  205.3640  151.2050 N   0  0  0  0  0  0  0  0  0  0  0  0
  162.4780  207.2520  149.6520 C   0  0  0  0  0  2  0  0  0  0  0  0
  161.4220  206.2320  150.0470 C   0  0  0  0  0  0  0  0  0  0  0  0
  161.1890  207.7090  150.3330 C   0  0  0  0  0  2  0  0  0  0  0  0
  160.6470  206.0750  147.0630 C   0  0  2  0  0  0  0  0  0  0  0  0
  162.2040  204.2070  147.3480 C   0  0  0  0  0  3  0  0  0  0  0  0
  161.8110  205.3220  145.1600 C   0  0  0  0  0  3  0  0  0  0  0  0
  160.5250  205.6260  148.9470 C   0  0  1  0  0  0  0  0  0  0  0  0
  160.8710  206.2300  145.7080 C   0  0  0  0  0  3  0  0  0  0  0  0
  161.2860  205.1100  147.8490 C   0  0  0  0  0  0  0  0  0  0  0  0
  162.4630  204.3340  145.9610 C   0  0  0  0  0  2  0  0  0  0  0  0
  159.9060  206.6010  148.1700 O   0  0  0  0  0  0  0  0  0  0  0  0
  160.7370  204.3350  151.5530 C   0  0  0  0  0  2  0  0  0  0  0  0
  161.1330  202.9330  151.1810 C   0  0  0  0  0  0  0  0  0  0  0  0
  161.9920  202.3170  151.8640 O   0  0  0  0  0  0  0  0  0  0  0  0
  160.5180  202.2850  150.0730 N   0  0  0  0  0  1  0  0  0  0  0  0
  162.1490  206.1560  152.3650 C   0  0  0  0  0  2  0  0  0  0  0  0
  161.3530  205.7420  153.5970 C   0  0  0  0  0  2  0  0  0  0  0  0
  160.5150  206.8960  154.1310 C   0  0  0  0  0  2  0  0  0  0  0  0
  161.8430  210.7460  156.7400 O   0  0  0  0  0  1  0  0  0  0  0  0
  160.7530  209.3120  153.5390 C   0  0  0  0  0  2  0  0  0  0  0  0
  161.3570  208.1530  154.3140 C   0  0  1  0  0  3  0  0  0  0  0  0
  161.0820  210.0080  155.8370 C   0  0  1  0  0  0  0  0  0  0  0  0
  160.8830  210.5310  154.4300 C   0  0  0  0  0  2  0  0  0  0  0  0
  161.4880  208.5570  155.7850 C   0  0  1  0  0  3  0  0  0  0  0  0
  160.1530  208.9650  156.4140 C   0  0  0  0  0  2  0  0  0  0  0  0
  1 13  1  0  0  0  0
  1 17  1  0  0  0  0
  2  3  1  0  0  0  0
  2  4  1  0  0  0  0
  3  4  1  0  0  0  0
  3  1  1  0  0  0  0
  5  9  1  6  0  0  0
  5 10  1  0  0  0  0
  5 12  1  0  0  0  0
  5  8  1  0  0  0  0
  6 10  2  0  0  0  0
  7  9  2  0  0  0  0
  7 11  1  0  0  0  0
  8  3  1  1  0  0  0
 10  8  1  0  0  0  0
 11  6  1  0  0  0  0
 12  8  1  0  0  0  0
 14 13  1  0  0  0  0
 14 15  2  0  0  0  0
 16 14  1  0  0  0  0
 17 18  1  0  0  0  0
 18 19  1  0  0  0  0
 21 22  1  0  0  0  0
 21 24  1  0  0  0  0
 22 19  1  1  0  0  0
 22 25  1  0  0  0  0
 23 26  1  0  0  0  0
 23 20  1  1  0  0  0
 24 23  1  0  0  0  0
 25 23  1  0  0  0  0
 25 26  1  1  0  0  0
M  END
>  <MODEL>
2

>  <REMARK>
 VINA RESULT:      -7.3      2.369      3.742
  Name = 
  8 active torsions:
  status: ('A' for Active; 'I' for Inactive)
    1  A    between atoms: C_5  and  C_8
    2  A    between atoms: C_6  and  N_9
    3  A    between atoms: C_6  and  C_11
    4  A    between atoms: C_7  and  C_8
    5  A    between atoms: C_7  and  C_18
    6  A    between atoms: N_9  and  C_12
    7  A    between atoms: N_9  and  C_18
    8  A    between atoms: C_12  and  C_16
                            x       y       z     vdW  Elec       q    Type
                         _______ _______ _______ _____ _____    ______ ____

>  <TORSDO>
F 8

$$$$
=
 OpenBabel11052409483D

 26 31  0  0  1  0  0  0  0  0999 V2000
  161.5320  207.1970  150.7270 N   0  0  0  0  0  0  0  0  0  0  0  0
  162.9280  207.7440  148.6600 C   0  0  0  0  0  2  0  0  0  0  0  0
  161.6250  207.2270  149.2500 C   0  0  0  0  0  0  0  0  0  0  0  0
  161.6630  208.5970  148.5870 C   0  0  0  0  0  2  0  0  0  0  0  0
  160.5980  206.1280  146.5540 C   0  0  2  0  0  0  0  0  0  0  0  0
  162.6770  204.8870  146.9220 C   0  0  0  0  0  3  0  0  0  0  0  0
  161.7110  205.2730  144.6630 C   0  0  0  0  0  3  0  0  0  0  0  0
  160.8390  206.1460  148.4790 C   0  0  1  0  0  0  0  0  0  0  0  0
  160.6060  205.9960  145.1780 C   0  0  0  0  0  3  0  0  0  0  0  0
  161.5890  205.6000  147.3890 C   0  0  0  0  0  0  0  0  0  0  0  0
  162.7230  204.7310  145.5150 C   0  0  0  0  0  2  0  0  0  0  0  0
  159.8640  206.6890  147.6480 O   0  0  0  0  0  0  0  0  0  0  0  0
  161.9760  208.4100  151.4440 C   0  0  0  0  0  2  0  0  0  0  0  0
  161.0250  208.8880  152.5050 C   0  0  0  0  0  0  0  0  0  0  0  0
  160.2290  209.8310  152.2620 O   0  0  0  0  0  0  0  0  0  0  0  0
  161.0000  208.2570  153.7810 N   0  0  0  0  0  1  0  0  0  0  0  0
  162.1290  205.9780  151.2730 C   0  0  0  0  0  2  0  0  0  0  0  0
  161.0800  205.1600  152.0140 C   0  0  0  0  0  2  0  0  0  0  0  0
  160.3590  204.1990  151.0790 C   0  0  0  0  0  2  0  0  0  0  0  0
  161.2940  200.5130  148.0900 O   0  0  0  0  0  1  0  0  0  0  0  0
  161.4650  201.9890  151.4490 C   0  0  0  0  0  2  0  0  0  0  0  0
  161.3180  203.1660  150.5000 C   0  0  1  0  0  3  0  0  0  0  0  0
  160.8690  201.1430  149.2580 C   0  0  1  0  0  0  0  0  0  0  0  0
  161.4850  200.7460  150.5830 C   0  0  0  0  0  2  0  0  0  0  0  0
  160.8590  202.6460  149.1350 C   0  0  1  0  0  3  0  0  0  0  0  0
  159.5430  201.8650  149.2050 C   0  0  0  0  0  2  0  0  0  0  0  0
  1 17  1  0  0  0  0
  1 13  1  0  0  0  0
  2  3  1  0  0  0  0
  3  1  1  0  0  0  0
  4  2  1  0  0  0  0
  4  3  1  0  0  0  0
  5  9  1  1  0  0  0
  5 10  1  0  0  0  0
  5 12  1  0  0  0  0
  5  8  1  0  0  0  0
  6 10  2  0  0  0  0
  7  9  2  0  0  0  0
  7 11  1  0  0  0  0
  8  3  1  6  0  0  0
 10  8  1  0  0  0  0
 11  6  1  0  0  0  0
 12  8  1  0  0  0  0
 13 14  1  0  0  0  0
 14 16  1  0  0  0  0
 15 14  2  0  0  0  0
 17 18  1  0  0  0  0
 19 18  1  0  0  0  0
 22 19  1  1  0  0  0
 22 21  1  0  0  0  0
 23 20  1  6  0  0  0
 23 24  1  0  0  0  0
 24 21  1  0  0  0  0
 25 26  1  1  0  0  0
 25 23  1  0  0  0  0
 25 22  1  0  0  0  0
 26 23  1  0  0  0  0
M  END
>  <MODEL>
3

>  <REMARK>
 VINA RESULT:      -7.3      2.362      6.776
  Name = 
  8 active torsions:
  status: ('A' for Active; 'I' for Inactive)
    1  A    between atoms: C_5  and  C_8
    2  A    between atoms: C_6  and  N_9
    3  A    between atoms: C_6  and  C_11
    4  A    between atoms: C_7  and  C_8
    5  A    between atoms: C_7  and  C_18
    6  A    between atoms: N_9  and  C_12
    7  A    between atoms: N_9  and  C_18
    8  A    between atoms: C_12  and  C_16
                            x       y       z     vdW  Elec       q    Type
                         _______ _______ _______ _____ _____    ______ ____

>  <TORSDO>
F 8

$$$$
=
 OpenBabel11052409483D

 26 31  0  0  1  0  0  0  0  0999 V2000
  161.4670  206.4230  151.9340 N   0  0  0  0  0  0  0  0  0  0  0  0
  160.9360  203.9890  152.4950 C   0  0  0  0  0  2  0  0  0  0  0  0
  161.1610  205.0610  151.4400 C   0  0  0  0  0  0  0  0  0  0  0  0
  162.2180  203.9890  151.6660 C   0  0  0  0  0  2  0  0  0  0  0  0
  161.1650  204.2960  148.4500 C   0  0  2  0  0  0  0  0  0  0  0  0
  160.2620  202.3020  149.5490 C   0  0  0  0  0  3  0  0  0  0  0  0
  161.4060  202.2320  147.3410 C   0  0  0  0  0  3  0  0  0  0  0  0
  160.3970  204.9600  150.1030 C   0  0  1  0  0  0  0  0  0  0  0  0
  161.6380  203.6300  147.3350 C   0  0  0  0  0  3  0  0  0  0  0  0
  160.5080  203.6610  149.5100 C   0  0  0  0  0  0  0  0  0  0  0  0
  160.7340  201.5830  148.4230 C   0  0  0  0  0  2  0  0  0  0  0  0
  161.0690  205.5880  149.0590 O   0  0  0  0  0  0  0  0  0  0  0  0
  162.5120  207.1710  151.2050 C   0  0  0  0  0  2  0  0  0  0  0  0
  162.0800  208.5260  150.7170 C   0  0  0  0  0  0  0  0  0  0  0  0
  161.7390  209.4140  151.5400 O   0  0  0  0  0  0  0  0  0  0  0  0
  162.0840  208.8210  149.3250 N   0  0  0  0  0  1  0  0  0  0  0  0
  161.6860  206.4280  153.3800 C   0  0  0  0  0  2  0  0  0  0  0  0
  160.5820  207.2090  154.0800 C   0  0  0  0  0  2  0  0  0  0  0  0
  161.0380  207.7210  155.4400 C   0  0  0  0  0  2  0  0  0  0  0  0
  160.1730  212.4780  155.3330 O   0  0  0  0  0  1  0  0  0  0  0  0
  160.6520  209.3890  157.2610 C   0  0  0  0  0  2  0  0  0  0  0  0
  160.2270  208.9360  155.8740 C   0  0  1  0  0  3  0  0  0  0  0  0
  160.7600  211.2900  155.7610 C   0  0  1  0  0  0  0  0  0  0  0  0
  160.6760  210.9040  157.2240 C   0  0  0  0  0  2  0  0  0  0  0  0
  160.3740  210.1110  154.9040 C   0  0  1  0  0  3  0  0  0  0  0  0
  161.7990  210.6720  154.8550 C   0  0  0  0  0  2  0  0  0  0  0  0
  1 17  1  0  0  0  0
  3  4  1  0  0  0  0
  3  1  1  0  0  0  0
  3  2  1  0  0  0  0
  4  2  1  0  0  0  0
  5  9  1  6  0  0  0
  5 12  1  0  0  0  0
  5 10  1  0  0  0  0
  5  8  1  0  0  0  0
  7 11  1  0  0  0  0
  8  3  1  1  0  0  0
  9  7  2  0  0  0  0
 10  6  2  0  0  0  0
 10  8  1  0  0  0  0
 11  6  1  0  0  0  0
 12  8  1  0  0  0  0
 13  1  1  0  0  0  0
 14 13  1  0  0  0  0
 14 15  2  0  0  0  0
 16 14  1  0  0  0  0
 17 18  1  0  0  0  0
 18 19  1  0  0  0  0
 22 19  1  6  0  0  0
 22 21  1  0  0  0  0
 23 20  1  6  0  0  0
 23 24  1  0  0  0  0
 24 21  1  0  0  0  0
 25 26  1  6  0  0  0
 25 23  1  0  0  0  0
 25 22  1  0  0  0  0
 26 23  1  0  0  0  0
M  END
>  <MODEL>
4

>  <REMARK>
 VINA RESULT:      -7.1      1.519      2.077
  Name = 
  8 active torsions:
  status: ('A' for Active; 'I' for Inactive)
    1  A    between atoms: C_5  and  C_8
    2  A    between atoms: C_6  and  N_9
    3  A    between atoms: C_6  and  C_11
    4  A    between atoms: C_7  and  C_8
    5  A    between atoms: C_7  and  C_18
    6  A    between atoms: N_9  and  C_12
    7  A    between atoms: N_9  and  C_18
    8  A    between atoms: C_12  and  C_16
                            x       y       z     vdW  Elec       q    Type
                         _______ _______ _______ _____ _____    ______ ____

>  <TORSDO>
F 8

$$$$
=
 OpenBabel11052409483D

 26 31  0  0  1  0  0  0  0  0999 V2000
  161.7240  207.8130  150.9160 N   0  0  0  0  0  0  0  0  0  0  0  0
  161.5960  210.3640  150.9550 C   0  0  0  0  0  2  0  0  0  0  0  0
  161.5040  209.0450  151.7070 C   0  0  0  0  0  0  0  0  0  0  0  0
  162.7060  209.9540  151.9210 C   0  0  0  0  0  2  0  0  0  0  0  0
  160.7110  209.9650  154.5450 C   0  0  2  0  0  0  0  0  0  0  0  0
  159.3390  211.3720  153.0830 C   0  0  0  0  0  3  0  0  0  0  0  0
  159.9780  212.0360  155.3930 C   0  0  0  0  0  3  0  0  0  0  0  0
  160.5390  208.9400  152.9070 C   0  0  1  0  0  0  0  0  0  0  0  0
  160.7050  210.8400  155.6150 C   0  0  0  0  0  3  0  0  0  0  0  0
  160.0590  210.2200  153.3330 C   0  0  0  0  0  0  0  0  0  0  0  0
  159.3110  212.2970  154.1570 C   0  0  0  0  0  2  0  0  0  0  0  0
  161.2050  208.6960  154.1050 O   0  0  0  0  0  0  0  0  0  0  0  0
  162.4040  206.6970  151.6060 C   0  0  0  0  0  2  0  0  0  0  0  0
  161.5510  205.4740  151.7970 C   0  0  0  0  0  0  0  0  0  0  0  0
  161.2060  205.1190  152.9540 O   0  0  0  0  0  0  0  0  0  0  0  0
  161.1060  204.7270  150.6700 N   0  0  0  0  0  1  0  0  0  0  0  0
  162.3280  208.1150  149.6180 C   0  0  0  0  0  2  0  0  0  0  0  0
  161.3930  207.7000  148.4900 C   0  0  0  0  0  2  0  0  0  0  0  0
  162.0500  206.6820  147.5680 C   0  0  0  0  0  2  0  0  0  0  0  0
  160.9500  202.5760  145.2610 O   0  0  0  0  0  1  0  0  0  0  0  0
  160.5230  206.2030  145.6480 C   0  0  0  0  0  2  0  0  0  0  0  0
  161.0240  205.7110  146.9960 C   0  0  1  0  0  3  0  0  0  0  0  0
  161.2930  203.9190  145.3980 C   0  0  1  0  0  0  0  0  0  0  0  0
  160.4170  204.9790  144.7620 C   0  0  0  0  0  2  0  0  0  0  0  0
  161.5900  204.2990  146.8260 C   0  0  1  0  0  3  0  0  0  0  0  0
  162.7180  204.2270  145.7920 C   0  0  0  0  0  2  0  0  0  0  0  0
  1 13  1  0  0  0  0
  1  3  1  0  0  0  0
  2  3  1  0  0  0  0
  2  4  1  0  0  0  0
  3  4  1  0  0  0  0
  5  9  1  1  0  0  0
  6 10  2  0  0  0  0
  6 11  1  0  0  0  0
  7  9  2  0  0  0  0
  8  3  1  6  0  0  0
  8 10  1  0  0  0  0
  8 12  1  0  0  0  0
  8  5  1  0  0  0  0
 10  5  1  0  0  0  0
 11  7  1  0  0  0  0
 12  5  1  0  0  0  0
 13 14  1  0  0  0  0
 14 15  2  0  0  0  0
 16 14  1  0  0  0  0
 17  1  1  0  0  0  0
 18 17  1  0  0  0  0
 19 18  1  0  0  0  0
 21 22  1  0  0  0  0
 22 19  1  6  0  0  0
 23 20  1  6  0  0  0
 23 26  1  0  0  0  0
 23 25  1  0  0  0  0
 24 23  1  0  0  0  0
 24 21  1  0  0  0  0
 25 26  1  6  0  0  0
 25 22  1  0  0  0  0
M  END
>  <MODEL>
5

>  <REMARK>
 VINA RESULT:      -6.9      2.458      8.412
  Name = 
  8 active torsions:
  status: ('A' for Active; 'I' for Inactive)
    1  A    between atoms: C_5  and  C_8
    2  A    between atoms: C_6  and  N_9
    3  A    between atoms: C_6  and  C_11
    4  A    between atoms: C_7  and  C_8
    5  A    between atoms: C_7  and  C_18
    6  A    between atoms: N_9  and  C_12
    7  A    between atoms: N_9  and  C_18
    8  A    between atoms: C_12  and  C_16
                            x       y       z     vdW  Elec       q    Type
                         _______ _______ _______ _____ _____    ______ ____

>  <TORSDO>
F 8

$$$$
=
 OpenBabel11052409483D

 26 31  0  0  1  0  0  0  0  0999 V2000
  161.2880  208.4750  153.4300 N   0  0  0  0  0  0  0  0  0  0  0  0
  162.1160  210.5160  154.7230 C   0  0  0  0  0  2  0  0  0  0  0  0
  161.0000  209.5230  154.4360 C   0  0  0  0  0  0  0  0  0  0  0  0
  161.7610  209.4450  155.7520 C   0  0  0  0  0  2  0  0  0  0  0  0
  158.9960  211.7410  155.2050 C   0  0  2  0  0  0  0  0  0  0  0  0
  159.3070  212.0610  152.7960 C   0  0  0  0  0  3  0  0  0  0  0  0
  158.5940  213.8880  154.3260 C   0  0  0  0  0  3  0  0  0  0  0  0
  159.5360  209.9960  154.5500 C   0  0  1  0  0  0  0  0  0  0  0  0
  158.6210  213.0460  155.4650 C   0  0  0  0  0  3  0  0  0  0  0  0
  159.3270  211.2700  153.9300 C   0  0  0  0  0  0  0  0  0  0  0  0
  158.9290  213.4080  153.0220 C   0  0  0  0  0  2  0  0  0  0  0  0
  159.2290  210.4700  155.8220 O   0  0  0  0  0  0  0  0  0  0  0  0
  160.7840  208.7150  152.0620 C   0  0  0  0  0  2  0  0  0  0  0  0
  161.8410  209.1210  151.0730 C   0  0  0  0  0  0  0  0  0  0  0  0
  162.6110  208.2560  150.5810 O   0  0  0  0  0  0  0  0  0  0  0  0
  161.9570  210.4800  150.6660 N   0  0  0  0  0  1  0  0  0  0  0  0
  160.9310  207.1470  153.9290 C   0  0  0  0  0  2  0  0  0  0  0  0
  161.8250  206.0870  153.2990 C   0  0  0  0  0  2  0  0  0  0  0  0
  161.0200  204.8740  152.8500 C   0  0  0  0  0  2  0  0  0  0  0  0
  161.7010  204.6000  148.0690 O   0  0  0  0  0  1  0  0  0  0  0  0
  160.8810  202.9590  151.2510 C   0  0  0  0  0  2  0  0  0  0  0  0
  161.6520  204.2120  151.6320 C   0  0  1  0  0  3  0  0  0  0  0  0
  161.0740  204.3720  149.2920 C   0  0  1  0  0  0  0  0  0  0  0  0
  160.8090  202.9490  149.7370 C   0  0  0  0  0  2  0  0  0  0  0  0
  161.7040  205.1470  150.4210 C   0  0  1  0  0  3  0  0  0  0  0  0
  160.3150  205.5280  149.9000 C   0  0  0  0  0  2  0  0  0  0  0  0
  1 17  1  0  0  0  0
  1  3  1  0  0  0  0
  2  4  1  0  0  0  0
  3  2  1  0  0  0  0
  3  4  1  0  0  0  0
  5  9  1  6  0  0  0
  5 12  1  0  0  0  0
  6 11  1  0  0  0  0
  6 10  2  0  0  0  0
  7  9  2  0  0  0  0
  8  3  1  1  0  0  0
  8  5  1  0  0  0  0
  8 12  1  0  0  0  0
 10  8  1  0  0  0  0
 10  5  1  0  0  0  0
 11  7  1  0  0  0  0
 13  1  1  0  0  0  0
 14 13  1  0  0  0  0
 15 14  2  0  0  0  0
 16 14  1  0  0  0  0
 18 17  1  0  0  0  0
 19 18  1  0  0  0  0
 21 22  1  0  0  0  0
 22 19  1  1  0  0  0
 23 20  1  6  0  0  0
 23 24  1  0  0  0  0
 23 26  1  0  0  0  0
 23 25  1  0  0  0  0
 24 21  1  0  0  0  0
 25 26  1  1  0  0  0
 25 22  1  0  0  0  0
M  END
>  <MODEL>
6

>  <REMARK>
 VINA RESULT:      -6.9      1.630      8.009
  Name = 
  8 active torsions:
  status: ('A' for Active; 'I' for Inactive)
    1  A    between atoms: C_5  and  C_8
    2  A    between atoms: C_6  and  N_9
    3  A    between atoms: C_6  and  C_11
    4  A    between atoms: C_7  and  C_8
    5  A    between atoms: C_7  and  C_18
    6  A    between atoms: N_9  and  C_12
    7  A    between atoms: N_9  and  C_18
    8  A    between atoms: C_12  and  C_16
                            x       y       z     vdW  Elec       q    Type
                         _______ _______ _______ _____ _____    ______ ____

>  <TORSDO>
F 8

$$$$
=
 OpenBabel11052409483D

 26 31  0  0  1  0  0  0  0  0999 V2000
  161.8500  206.7770  150.5700 N   0  0  0  0  0  0  0  0  0  0  0  0
  163.0150  207.5140  148.4200 C   0  0  0  0  0  2  0  0  0  0  0  0
  161.7340  207.1070  149.1310 C   0  0  0  0  0  0  0  0  0  0  0  0
  161.9490  208.5610  148.7360 C   0  0  0  0  0  2  0  0  0  0  0  0
  160.9000  205.6230  146.5560 C   0  0  2  0  0  0  0  0  0  0  0  0
  161.5520  203.8140  148.0740 C   0  0  0  0  0  3  0  0  0  0  0  0
  161.6080  203.5920  145.5970 C   0  0  0  0  0  3  0  0  0  0  0  0
  160.6440  206.3630  148.3310 C   0  0  1  0  0  0  0  0  0  0  0  0
  161.1390  204.9140  145.3940 C   0  0  0  0  0  3  0  0  0  0  0  0
  161.0990  205.0980  147.8380 C   0  0  0  0  0  0  0  0  0  0  0  0
  161.8110  203.0550  146.9050 C   0  0  0  0  0  2  0  0  0  0  0  0
  160.4660  206.8920  147.0560 O   0  0  0  0  0  0  0  0  0  0  0  0
  160.7490  205.9880  151.1590 C   0  0  0  0  0  2  0  0  0  0  0  0
  161.1970  204.8860  152.0780 C   0  0  0  0  0  0  0  0  0  0  0  0
  161.2320  205.0760  153.3220 O   0  0  0  0  0  0  0  0  0  0  0  0
  161.5530  203.6130  151.5500 N   0  0  0  0  0  1  0  0  0  0  0  0
  162.1710  207.9640  151.3630 C   0  0  0  0  0  2  0  0  0  0  0  0
  160.9700  208.3790  152.2030 C   0  0  0  0  0  2  0  0  0  0  0  0
  161.4030  209.0420  153.5040 C   0  0  0  0  0  2  0  0  0  0  0  0
  159.0080  212.6350  155.6820 O   0  0  0  0  0  1  0  0  0  0  0  0
  159.7600  210.7170  152.6420 C   0  0  0  0  0  2  0  0  0  0  0  0
  160.9500  210.4950  153.5620 C   0  0  1  0  0  3  0  0  0  0  0  0
  159.1890  211.5320  154.8520 C   0  0  1  0  0  0  0  0  0  0  0  0
  158.8120  211.6330  153.3890 C   0  0  0  0  0  2  0  0  0  0  0  0
  160.5660  210.9300  154.9790 C   0  0  1  0  0  3  0  0  0  0  0  0
  159.3420  210.1870  155.5220 C   0  0  0  0  0  2  0  0  0  0  0  0
  1 13  1  0  0  0  0
  1 17  1  0  0  0  0
  2  4  1  0  0  0  0
  2  3  1  0  0  0  0
  3  1  1  0  0  0  0
  4  3  1  0  0  0  0
  5  9  1  6  0  0  0
  5 12  1  0  0  0  0
  5 10  1  0  0  0  0
  5  8  1  0  0  0  0
  7 11  1  0  0  0  0
  8  3  1  6  0  0  0
  9  7  2  0  0  0  0
 10  6  2  0  0  0  0
 10  8  1  0  0  0  0
 11  6  1  0  0  0  0
 12  8  1  0  0  0  0
 13 14  1  0  0  0  0
 14 15  2  0  0  0  0
 16 14  1  0  0  0  0
 17 18  1  0  0  0  0
 18 19  1  0  0  0  0
 21 24  1  0  0  0  0
 21 22  1  0  0  0  0
 22 19  1  1  0  0  0
 22 25  1  0  0  0  0
 23 25  1  0  0  0  0
 23 26  1  0  0  0  0
 23 20  1  1  0  0  0
 24 23  1  0  0  0  0
 25 26  1  1  0  0  0
M  END
>  <MODEL>
7

>  <REMARK>
 VINA RESULT:      -6.8      1.872      3.040
  Name = 
  8 active torsions:
  status: ('A' for Active; 'I' for Inactive)
    1  A    between atoms: C_5  and  C_8
    2  A    between atoms: C_6  and  N_9
    3  A    between atoms: C_6  and  C_11
    4  A    between atoms: C_7  and  C_8
    5  A    between atoms: C_7  and  C_18
    6  A    between atoms: N_9  and  C_12
    7  A    between atoms: N_9  and  C_18
    8  A    between atoms: C_12  and  C_16
                            x       y       z     vdW  Elec       q    Type
                         _______ _______ _______ _____ _____    ______ ____

>  <TORSDO>
F 8

$$$$
=
 OpenBabel11052409483D

 26 31  0  0  1  0  0  0  0  0999 V2000
  161.6940  206.7330  151.5210 N   0  0  0  0  0  0  0  0  0  0  0  0
  161.9490  206.9750  154.0510 C   0  0  0  0  0  2  0  0  0  0  0  0
  161.4830  207.5640  152.7290 C   0  0  0  0  0  0  0  0  0  0  0  0
  160.4570  207.0690  153.7380 C   0  0  0  0  0  2  0  0  0  0  0  0
  160.2300  210.3320  153.2710 C   0  0  2  0  0  0  0  0  0  0  0  0
  161.9250  210.1180  155.0260 C   0  0  0  0  0  3  0  0  0  0  0  0
  159.9190  211.5720  155.2500 C   0  0  0  0  0  3  0  0  0  0  0  0
  161.5320  209.0950  152.5390 C   0  0  1  0  0  0  0  0  0  0  0  0
  159.4340  211.2260  153.9640 C   0  0  0  0  0  3  0  0  0  0  0  0
  161.4200  209.8010  153.7790 C   0  0  0  0  0  0  0  0  0  0  0  0
  161.1360  211.0310  155.7690 C   0  0  0  0  0  2  0  0  0  0  0  0
  160.3370  209.6070  152.0420 O   0  0  0  0  0  0  0  0  0  0  0  0
  162.1830  205.3570  151.7420 C   0  0  0  0  0  2  0  0  0  0  0  0
  161.2620  204.2820  151.2380 C   0  0  0  0  0  0  0  0  0  0  0  0
  160.3810  204.5550  150.3810 O   0  0  0  0  0  0  0  0  0  0  0  0
  161.3990  202.9440  151.7030 N   0  0  0  0  0  1  0  0  0  0  0  0
  162.4800  207.4480  150.5150 C   0  0  0  0  0  2  0  0  0  0  0  0
  161.6610  207.6450  149.2460 C   0  0  0  0  0  2  0  0  0  0  0  0
  162.2790  206.9080  148.0650 C   0  0  0  0  0  2  0  0  0  0  0  0
  161.2740  203.0370  145.3460 O   0  0  0  0  0  1  0  0  0  0  0  0
  160.7120  206.5770  146.1460 C   0  0  0  0  0  2  0  0  0  0  0  0
  161.2760  205.9620  147.4170 C   0  0  1  0  0  3  0  0  0  0  0  0
  161.5660  204.3700  145.6230 C   0  0  1  0  0  0  0  0  0  0  0  0
  160.6280  205.4530  145.1330 C   0  0  0  0  0  2  0  0  0  0  0  0
  161.8940  204.6040  147.0760 C   0  0  1  0  0  3  0  0  0  0  0  0
  162.9900  204.6950  146.0100 C   0  0  0  0  0  2  0  0  0  0  0  0
  1 13  1  0  0  0  0
  1  3  1  0  0  0  0
  3  4  1  0  0  0  0
  3  2  1  0  0  0  0
  4  2  1  0  0  0  0
  5 10  1  0  0  0  0
  5  9  1  6  0  0  0
  6 11  1  0  0  0  0
  7 11  1  0  0  0  0
  8  3  1  1  0  0  0
  8  5  1  0  0  0  0
  8 10  1  0  0  0  0
  9  7  2  0  0  0  0
 10  6  2  0  0  0  0
 12  8  1  0  0  0  0
 12  5  1  0  0  0  0
 14 16  1  0  0  0  0
 14 13  1  0  0  0  0
 15 14  2  0  0  0  0
 17  1  1  0  0  0  0
 18 17  1  0  0  0  0
 19 18  1  0  0  0  0
 21 22  1  0  0  0  0
 22 19  1  6  0  0  0
 23 20  1  6  0  0  0
 23 26  1  0  0  0  0
 23 25  1  0  0  0  0
 24 23  1  0  0  0  0
 24 21  1  0  0  0  0
 25 26  1  6  0  0  0
 25 22  1  0  0  0  0
M  END
>  <MODEL>
8

>  <REMARK>
 VINA RESULT:      -6.8      2.260      8.027
  Name = 
  8 active torsions:
  status: ('A' for Active; 'I' for Inactive)
    1  A    between atoms: C_5  and  C_8
    2  A    between atoms: C_6  and  N_9
    3  A    between atoms: C_6  and  C_11
    4  A    between atoms: C_7  and  C_8
    5  A    between atoms: C_7  and  C_18
    6  A    between atoms: N_9  and  C_12
    7  A    between atoms: N_9  and  C_18
    8  A    between atoms: C_12  and  C_16
                            x       y       z     vdW  Elec       q    Type
                         _______ _______ _______ _____ _____    ______ ____

>  <TORSDO>
F 8

$$$$
=
 OpenBabel11052409483D

 26 31  0  0  1  0  0  0  0  0999 V2000
  161.4760  207.1980  152.7770 N   0  0  0  0  0  0  0  0  0  0  0  0
  161.5560  207.3110  155.3270 C   0  0  0  0  0  2  0  0  0  0  0  0
  161.1730  207.9630  154.0080 C   0  0  0  0  0  0  0  0  0  0  0  0
  160.0880  207.4060  154.9190 C   0  0  0  0  0  2  0  0  0  0  0  0
  160.3040  210.7110  155.1130 C   0  0  2  0  0  0  0  0  0  0  0  0
  162.4970  210.3490  156.1420 C   0  0  0  0  0  3  0  0  0  0  0  0
  160.7580  211.8200  157.1410 C   0  0  0  0  0  3  0  0  0  0  0  0
  161.2140  209.5020  153.9000 C   0  0  1  0  0  0  0  0  0  0  0  0
  159.8390  211.5700  156.0910 C   0  0  0  0  0  3  0  0  0  0  0  0
  161.5740  210.1250  155.1380 C   0  0  0  0  0  0  0  0  0  0  0  0
  162.0560  211.2240  157.1660 C   0  0  0  0  0  2  0  0  0  0  0  0
  159.9430  210.0680  153.8860 O   0  0  0  0  0  0  0  0  0  0  0  0
  160.9040  207.7170  151.5170 C   0  0  0  0  0  2  0  0  0  0  0  0
  161.9080  208.3470  150.5930 C   0  0  0  0  0  0  0  0  0  0  0  0
  162.3590  207.6980  149.6130 O   0  0  0  0  0  0  0  0  0  0  0  0
  162.3320  209.6890  150.8020 N   0  0  0  0  0  1  0  0  0  0  0  0
  161.2130  205.7710  152.9600 C   0  0  0  0  0  2  0  0  0  0  0  0
  161.7410  204.9780  151.7710 C   0  0  0  0  0  2  0  0  0  0  0  0
  160.8890  203.7450  151.5010 C   0  0  0  0  0  2  0  0  0  0  0  0
  160.4510  201.4070  147.2900 O   0  0  0  0  0  1  0  0  0  0  0  0
  161.4290  204.4160  149.1550 C   0  0  0  0  0  2  0  0  0  0  0  0
  160.4330  203.6960  150.0480 C   0  0  1  0  0  3  0  0  0  0  0  0
  161.0620  202.1920  148.2650 C   0  0  1  0  0  0  0  0  0  0  0  0
  161.5590  203.5760  147.9010 C   0  0  0  0  0  2  0  0  0  0  0  0
  160.2610  202.2620  149.5400 C   0  0  1  0  0  3  0  0  0  0  0  0
  161.5780  201.4820  149.4940 C   0  0  0  0  0  2  0  0  0  0  0  0
  1 17  1  0  0  0  0
  1  3  1  0  0  0  0
  3  4  1  0  0  0  0
  3  2  1  0  0  0  0
  4  2  1  0  0  0  0
  5 10  1  0  0  0  0
  5  9  1  6  0  0  0
  6 11  1  0  0  0  0
  7 11  1  0  0  0  0
  8  3  1  1  0  0  0
  8  5  1  0  0  0  0
  8 10  1  0  0  0  0
  9  7  2  0  0  0  0
 10  6  2  0  0  0  0
 12  8  1  0  0  0  0
 12  5  1  0  0  0  0
 13  1  1  0  0  0  0
 14 16  1  0  0  0  0
 14 13  1  0  0  0  0
 15 14  2  0  0  0  0
 18 17  1  0  0  0  0
 19 18  1  0  0  0  0
 21 22  1  0  0  0  0
 22 19  1  1  0  0  0
 23 20  1  6  0  0  0
 23 26  1  0  0  0  0
 23 25  1  0  0  0  0
 24 23  1  0  0  0  0
 24 21  1  0  0  0  0
 25 26  1  1  0  0  0
 25 22  1  0  0  0  0
M  END
>  <MODEL>
9

>  <REMARK>
 VINA RESULT:      -6.8      1.846      8.213
  Name = 
  8 active torsions:
  status: ('A' for Active; 'I' for Inactive)
    1  A    between atoms: C_5  and  C_8
    2  A    between atoms: C_6  and  N_9
    3  A    between atoms: C_6  and  C_11
    4  A    between atoms: C_7  and  C_8
    5  A    between atoms: C_7  and  C_18
    6  A    between atoms: N_9  and  C_12
    7  A    between atoms: N_9  and  C_18
    8  A    between atoms: C_12  and  C_16
                            x       y       z     vdW  Elec       q    Type
                         _______ _______ _______ _____ _____    ______ ____

>  <TORSDO>
F 8

$$$$
