=
 OpenBabel11042422543D

 54 60  0  0  1  0  0  0  0  0999 V2000
  160.8210  212.7920  148.4180 C   0  0  0  0  0  0  0  0  0  0  0  0
  158.6490  213.8160  148.7730 C   0  0  0  0  0  3  0  0  0  0  0  0
  159.1120  212.6440  146.6980 C   0  0  0  0  0  0  0  0  0  0  0  0
  160.4020  212.3570  147.1540 C   0  0  0  0  0  3  0  0  0  0  0  0
  159.9350  213.5160  149.2330 C   0  0  0  0  0  0  0  0  0  0  0  0
  156.9520  213.6920  147.0690 O   0  0  0  0  0  1  0  0  0  0  0  0
  158.2350  213.3860  147.5080 C   0  0  0  0  0  0  0  0  0  0  0  0
  160.3190  213.9360  150.5010 O   0  0  0  0  0  1  0  0  0  0  0  0
  158.6870  212.1580  145.3550 C   0  0  0  0  0  2  0  0  0  0  0  0
  159.0860  213.1150  144.3360 N   0  0  0  0  0  2  0  0  0  0  0  0
  159.9450  212.2410  142.2180 C   0  0  0  0  0  2  0  0  0  0  0  0
  161.0320  212.6620  141.3280 N   0  0  0  0  0  0  0  0  0  0  0  0
  162.4790  212.8080  143.3290 C   0  0  0  0  0  2  0  0  0  0  0  0
  161.3220  213.4870  143.7640 O   0  0  0  0  0  0  0  0  0  0  0  0
  160.2640  212.5660  143.6860 C   0  0  1  0  0  3  0  0  0  0  0  0
  162.3200  212.2610  141.8960 C   0  0  0  0  0  2  0  0  0  0  0  0
  160.8230  211.8260  139.8220 S   0  0  0  0  0  0  0  0  0  0  0  0
  161.9910  210.9080  139.5960 O   0  0  0  0  0  0  0  0  0  0  0  0
  160.7480  212.8150  138.6900 O   0  0  0  0  0  0  0  0  0  0  0  0
  159.3210  210.8600  139.8520 C   0  0  0  0  0  2  0  0  0  0  0  0
  155.2900  211.0280  137.4770 C   0  0  0  0  0  1  0  0  0  0  0  0
  158.4740  209.7630  137.9650 C   0  0  0  0  0  2  0  0  0  0  0  0
  155.7250  209.5160  139.2660 O   0  0  0  0  0  1  0  0  0  0  0  0
  156.3430  210.3320  138.3150 C   0  0  2  0  0  0  0  0  0  0  0  0
  157.2070  211.3560  139.0060 C   0  0  0  0  0  2  0  0  0  0  0  0
  157.1640  209.5560  137.4890 O   0  0  0  0  0  0  0  0  0  0  0  0
  158.5680  211.0600  138.6210 N   0  0  0  0  0  0  0  0  0  0  0  0
  162.4730  212.3680  148.9800 S   0  0  0  0  0  0  0  0  0  0  0  0
  161.9990  209.6470  149.3790 C   0  0  0  0  0  0  0  0  0  0  0  0
  161.9190  210.9410  149.9180 C   0  0  0  0  0  0  0  0  0  0  0  0
  161.0220  210.0170  151.9850 C   0  0  0  0  0  0  0  0  0  0  0  0
  161.4360  211.1190  151.2180 C   0  0  0  0  0  3  0  0  0  0  0  0
  161.5890  208.5480  150.1400 C   0  0  0  0  0  3  0  0  0  0  0  0
  161.1010  208.7250  151.4440 C   0  0  0  0  0  0  0  0  0  0  0  0
  162.4990  209.4420  148.0990 O   0  0  0  0  0  1  0  0  0  0  0  0
  160.6900  207.6340  152.2190 O   0  0  0  0  0  0  0  0  0  0  0  0
  161.3740  206.3850  152.2190 C   0  0  0  0  0  2  0  0  0  0  0  0
  162.0790  206.1870  150.8920 C   0  0  0  0  0  2  0  0  0  0  0  0
  161.9270  204.8040  150.4560 N   0  0  0  0  0  0  0  0  0  0  0  0
  160.5180  204.4460  150.7310 C   0  0  1  0  0  3  0  0  0  0  0  0
  160.4650  205.9190  148.6420 C   0  0  0  0  0  2  0  0  0  0  0  0
  161.3130  204.9820  146.5370 N   0  0  0  0  0  2  0  0  0  0  0  0
  160.9540  204.6440  149.3430 C   0  0  0  0  0  0  0  0  0  0  0  0
  161.3160  206.1660  147.3960 C   0  0  0  0  0  2  0  0  0  0  0  0
  161.2780  203.4430  148.4520 C   0  0  0  0  0  2  0  0  0  0  0  0
  162.0510  203.9190  147.2200 C   0  0  0  0  0  2  0  0  0  0  0  0
  160.4440  202.9890  151.1640 C   0  0  0  0  0  2  0  0  0  0  0  0
  161.5760  202.6660  151.9100 O   0  0  0  0  0  1  0  0  0  0  0  0
  160.5340  210.1830  153.2860 O   0  0  0  0  0  0  0  0  0  0  0  0
  161.2780  210.8260  154.3150 C   0  0  0  0  0  2  0  0  0  0  0  0
  161.1080  210.0770  155.6310 C   0  0  0  0  0  2  0  0  0  0  0  0
  161.2320  207.8790  156.7500 C   0  0  0  0  0  2  0  0  0  0  0  0
  159.9330  207.9350  155.9720 C   0  0  0  0  0  2  0  0  0  0  0  0
  161.1820  208.5790  155.4030 C   0  0  0  0  0  3  0  0  0  0  0  0
  1 28  1  0  0  0  0
  1  5  1  0  0  0  0
  2  5  2  0  0  0  0
  3  4  1  0  0  0  0
  3  7  2  0  0  0  0
  4  1  2  0  0  0  0
  5  8  1  0  0  0  0
  6  7  1  0  0  0  0
  7  2  1  0  0  0  0
  9  3  1  0  0  0  0
 10  9  1  0  0  0  0
 11 15  1  0  0  0  0
 12 16  1  0  0  0  0
 12 11  1  0  0  0  0
 13 14  1  0  0  0  0
 15 14  1  0  0  0  0
 15 10  1  6  0  0  0
 16 13  1  0  0  0  0
 17 20  1  0  0  0  0
 17 12  1  0  0  0  0
 18 17  2  0  0  0  0
 19 17  2  0  0  0  0
 22 27  1  0  0  0  0
 24 21  1  6  0  0  0
 24 25  1  0  0  0  0
 24 23  1  0  0  0  0
 26 22  1  0  0  0  0
 26 24  1  0  0  0  0
 27 25  1  0  0  0  0
 27 20  1  0  0  0  0
 28 30  1  0  0  0  0
 29 30  2  0  0  0  0
 29 33  1  0  0  0  0
 30 32  1  0  0  0  0
 31 49  1  0  0  0  0
 32 31  2  0  0  0  0
 33 34  2  0  0  0  0
 34 31  1  0  0  0  0
 34 36  1  0  0  0  0
 35 29  1  0  0  0  0
 37 36  1  0  0  0  0
 38 37  1  0  0  0  0
 39 40  1  0  0  0  0
 39 38  1  0  0  0  0
 40 47  1  6  0  0  0
 41 43  1  0  0  0  0
 42 46  1  0  0  0  0
 42 44  1  0  0  0  0
 43 39  1  0  0  0  0
 43 40  1  0  0  0  0
 44 41  1  0  0  0  0
 45 43  1  0  0  0  0
 46 45  1  0  0  0  0
 47 48  1  0  0  0  0
 49 50  1  0  0  0  0
 50 51  1  0  0  0  0
 53 52  1  0  0  0  0
 54 51  1  0  0  0  0
 54 53  1  0  0  0  0
 54 52  1  0  0  0  0
M  END
>  <MODEL>
1

>  <REMARK>
 VINA RESULT:      -6.7      0.000      0.000
  Name = 
  17 active torsions:
  status: ('A' for Active; 'I' for Inactive)
    1  A    between atoms: C_1  and  O_6
    2  A    between atoms: C_1  and  C_24
    3  A    between atoms: C_3  and  C_27
    4  A    between atoms: C_5  and  S_45
    5  A    between atoms: O_6  and  C_39
    6  A    between atoms: C_8  and  C_18
    7  A    between atoms: C_8  and  O_20
    8  A    between atoms: C_9  and  S_45
    9  A    between atoms: C_10  and  O_20
   10  A    between atoms: N_11  and  C_24
   11  A    between atoms: C_14  and  C_23
   12  A    between atoms: N_15  and  S_26
   13  A    between atoms: C_18  and  C_22
   14  A    between atoms: N_19  and  C_23
   15  A    between atoms: N_19  and  C_50
   16  A    between atoms: S_26  and  C_53
   17  A    between atoms: N_47  and  C_53
                            x       y       z     vdW  Elec       q    Type
                         _______ _______ _______ _____ _____    ______ ____

>  <TORSDO>
F 17

$$$$
=
 OpenBabel11042422543D

 54 60  0  0  1  0  0  0  0  0999 V2000
  159.4310  213.7530  148.2330 C   0  0  0  0  0  0  0  0  0  0  0  0
  157.1430  213.1340  147.7150 C   0  0  0  0  0  3  0  0  0  0  0  0
  158.9190  212.6370  146.1380 C   0  0  0  0  0  0  0  0  0  0  0  0
  159.8470  213.2160  147.0080 C   0  0  0  0  0  3  0  0  0  0  0  0
  158.0730  213.7010  148.5900 C   0  0  0  0  0  0  0  0  0  0  0  0
  156.6180  212.0430  145.6330 O   0  0  0  0  0  1  0  0  0  0  0  0
  157.5590  212.6050  146.4890 C   0  0  0  0  0  0  0  0  0  0  0  0
  157.6400  214.2030  149.8120 O   0  0  0  0  0  1  0  0  0  0  0  0
  159.3900  212.0610  144.8460 C   0  0  0  0  0  2  0  0  0  0  0  0
  159.5450  213.1210  143.8620 N   0  0  0  0  0  2  0  0  0  0  0  0
  160.1390  212.0440  141.7470 C   0  0  0  0  0  2  0  0  0  0  0  0
  160.8430  212.5120  140.5480 N   0  0  0  0  0  0  0  0  0  0  0  0
  162.5860  213.4220  142.0500 C   0  0  0  0  0  2  0  0  0  0  0  0
  161.4060  213.8830  142.6700 O   0  0  0  0  0  0  0  0  0  0  0  0
  160.6610  212.7420  143.0130 C   0  0  1  0  0  3  0  0  0  0  0  0
  162.2830  212.5600  140.8080 C   0  0  0  0  0  2  0  0  0  0  0  0
  160.5600  211.3480  139.2930 S   0  0  0  0  0  0  0  0  0  0  0  0
  161.6680  210.3320  139.2980 O   0  0  0  0  0  0  0  0  0  0  0  0
  160.5260  212.0330  137.9540 O   0  0  0  0  0  0  0  0  0  0  0  0
  159.0040  210.5130  139.5600 C   0  0  0  0  0  2  0  0  0  0  0  0
  154.7630  210.4180  137.5790 C   0  0  0  0  0  1  0  0  0  0  0  0
  158.0940  209.4830  137.6650 C   0  0  0  0  0  2  0  0  0  0  0  0
  155.5270  208.8250  139.1780 O   0  0  0  0  0  1  0  0  0  0  0  0
  155.9600  209.7800  138.2530 C   0  0  2  0  0  0  0  0  0  0  0  0
  156.7770  210.8350  138.9550 C   0  0  0  0  0  2  0  0  0  0  0  0
  156.7720  209.1690  137.2900 O   0  0  0  0  0  0  0  0  0  0  0  0
  158.1170  210.7250  138.4250 N   0  0  0  0  0  0  0  0  0  0  0  0
  160.6610  214.4530  149.3390 S   0  0  0  0  0  0  0  0  0  0  0  0
  161.5460  211.8960  150.0190 C   0  0  0  0  0  0  0  0  0  0  0  0
  160.7410  212.9890  150.3750 C   0  0  0  0  0  0  0  0  0  0  0  0
  160.0840  211.8330  152.4150 C   0  0  0  0  0  0  0  0  0  0  0  0
  160.0190  212.9550  151.5710 C   0  0  0  0  0  3  0  0  0  0  0  0
  161.6150  210.7780  150.8570 C   0  0  0  0  0  3  0  0  0  0  0  0
  160.8880  210.7400  152.0570 C   0  0  0  0  0  0  0  0  0  0  0  0
  162.2930  211.9170  148.8470 O   0  0  0  0  0  1  0  0  0  0  0  0
  160.9500  209.6300  152.9070 O   0  0  0  0  0  0  0  0  0  0  0  0
  161.7360  208.4790  152.6190 C   0  0  0  0  0  2  0  0  0  0  0  0
  160.8420  207.2590  152.5230 C   0  0  0  0  0  2  0  0  0  0  0  0
  160.6430  206.9040  151.1230 N   0  0  0  0  0  0  0  0  0  0  0  0
  161.9370  207.1620  150.4530 C   0  0  1  0  0  3  0  0  0  0  0  0
  162.2540  204.9870  151.7580 C   0  0  0  0  0  2  0  0  0  0  0  0
  161.1240  202.9660  150.9420 N   0  0  0  0  0  2  0  0  0  0  0  0
  161.5050  205.7770  150.6760 C   0  0  0  0  0  0  0  0  0  0  0  0
  161.4370  203.7510  152.1360 C   0  0  0  0  0  2  0  0  0  0  0  0
  160.8690  204.9700  149.5420 C   0  0  0  0  0  2  0  0  0  0  0  0
  160.1830  203.7310  150.1250 C   0  0  0  0  0  2  0  0  0  0  0  0
  161.6800  207.6820  149.0460 C   0  0  0  0  0  2  0  0  0  0  0  0
  162.8320  207.5330  148.2750 O   0  0  0  0  0  1  0  0  0  0  0  0
  159.3630  211.7850  153.6140 O   0  0  0  0  0  0  0  0  0  0  0  0
  159.1800  212.9220  154.4510 C   0  0  0  0  0  2  0  0  0  0  0  0
  158.2460  212.5770  155.6050 C   0  0  0  0  0  2  0  0  0  0  0  0
  156.2540  211.2170  156.1390 C   0  0  0  0  0  2  0  0  0  0  0  0
  156.2270  211.5230  154.6550 C   0  0  0  0  0  2  0  0  0  0  0  0
  157.5490  211.2530  155.3470 C   0  0  0  0  0  3  0  0  0  0  0  0
  1  5  1  0  0  0  0
  1 28  1  0  0  0  0
  2  5  2  0  0  0  0
  3  7  2  0  0  0  0
  3  4  1  0  0  0  0
  4  1  2  0  0  0  0
  5  8  1  0  0  0  0
  6  7  1  0  0  0  0
  7  2  1  0  0  0  0
  9  3  1  0  0  0  0
 10  9  1  0  0  0  0
 11 15  1  0  0  0  0
 12 16  1  0  0  0  0
 12 11  1  0  0  0  0
 13 14  1  0  0  0  0
 14 15  1  0  0  0  0
 15 10  1  1  0  0  0
 16 13  1  0  0  0  0
 17 18  2  0  0  0  0
 17 20  1  0  0  0  0
 17 12  1  0  0  0  0
 19 17  2  0  0  0  0
 22 27  1  0  0  0  0
 24 21  1  6  0  0  0
 24 25  1  0  0  0  0
 24 23  1  0  0  0  0
 26 22  1  0  0  0  0
 26 24  1  0  0  0  0
 27 25  1  0  0  0  0
 27 20  1  0  0  0  0
 28 30  1  0  0  0  0
 29 30  2  0  0  0  0
 29 33  1  0  0  0  0
 30 32  1  0  0  0  0
 31 49  1  0  0  0  0
 32 31  2  0  0  0  0
 33 34  2  0  0  0  0
 34 31  1  0  0  0  0
 34 36  1  0  0  0  0
 35 29  1  0  0  0  0
 37 36  1  0  0  0  0
 38 37  1  0  0  0  0
 39 38  1  0  0  0  0
 40 47  1  6  0  0  0
 40 43  1  0  0  0  0
 40 39  1  0  0  0  0
 41 44  1  0  0  0  0
 42 44  1  0  0  0  0
 43 39  1  0  0  0  0
 43 41  1  0  0  0  0
 45 46  1  0  0  0  0
 45 43  1  0  0  0  0
 46 42  1  0  0  0  0
 48 47  1  0  0  0  0
 49 50  1  0  0  0  0
 50 51  1  0  0  0  0
 53 54  1  0  0  0  0
 53 52  1  0  0  0  0
 54 51  1  0  0  0  0
 54 52  1  0  0  0  0
M  END
>  <MODEL>
2

>  <REMARK>
 VINA RESULT:      -6.4      1.947      2.652
  Name = 
  17 active torsions:
  status: ('A' for Active; 'I' for Inactive)
    1  A    between atoms: C_1  and  O_6
    2  A    between atoms: C_1  and  C_24
    3  A    between atoms: C_3  and  C_27
    4  A    between atoms: C_5  and  S_45
    5  A    between atoms: O_6  and  C_39
    6  A    between atoms: C_8  and  C_18
    7  A    between atoms: C_8  and  O_20
    8  A    between atoms: C_9  and  S_45
    9  A    between atoms: C_10  and  O_20
   10  A    between atoms: N_11  and  C_24
   11  A    between atoms: C_14  and  C_23
   12  A    between atoms: N_15  and  S_26
   13  A    between atoms: C_18  and  C_22
   14  A    between atoms: N_19  and  C_23
   15  A    between atoms: N_19  and  C_50
   16  A    between atoms: S_26  and  C_53
   17  A    between atoms: N_47  and  C_53
                            x       y       z     vdW  Elec       q    Type
                         _______ _______ _______ _____ _____    ______ ____

>  <TORSDO>
F 17

$$$$
=
 OpenBabel11042422543D

 54 60  0  0  1  0  0  0  0  0999 V2000
  161.1530  212.8030  148.3080 C   0  0  0  0  0  0  0  0  0  0  0  0
  159.0650  214.0080  148.5900 C   0  0  0  0  0  3  0  0  0  0  0  0
  159.4540  212.7110  146.5750 C   0  0  0  0  0  0  0  0  0  0  0  0
  160.7120  212.3450  147.0600 C   0  0  0  0  0  3  0  0  0  0  0  0
  160.3190  213.6300  149.0790 C   0  0  0  0  0  0  0  0  0  0  0  0
  157.3790  213.9400  146.8720 O   0  0  0  0  0  1  0  0  0  0  0  0
  158.6300  213.5550  147.3400 C   0  0  0  0  0  0  0  0  0  0  0  0
  160.7230  214.0760  150.3320 O   0  0  0  0  0  1  0  0  0  0  0  0
  159.0030  212.1990  145.2500 C   0  0  0  0  0  2  0  0  0  0  0  0
  159.3270  213.1660  144.2130 N   0  0  0  0  0  2  0  0  0  0  0  0
  160.1290  212.0220  142.2040 C   0  0  0  0  0  2  0  0  0  0  0  0
  161.0500  212.4110  141.1310 N   0  0  0  0  0  0  0  0  0  0  0  0
  162.6240  213.1570  142.8880 C   0  0  0  0  0  2  0  0  0  0  0  0
  161.4140  213.7350  143.3250 O   0  0  0  0  0  0  0  0  0  0  0  0
  160.5180  212.6740  143.5410 C   0  0  1  0  0  3  0  0  0  0  0  0
  162.4320  212.3200  141.6070 C   0  0  0  0  0  2  0  0  0  0  0  0
  160.8500  211.2720  139.8370 S   0  0  0  0  0  0  0  0  0  0  0  0
  159.6400  210.4230  140.1040 O   0  0  0  0  0  0  0  0  0  0  0  0
  162.0620  210.3860  139.7400 O   0  0  0  0  0  0  0  0  0  0  0  0
  160.6290  212.1280  138.2850 C   0  0  0  0  0  2  0  0  0  0  0  0
  156.5500  214.4080  138.5720 C   0  0  0  0  0  1  0  0  0  0  0  0
  159.6860  213.9630  137.1780 C   0  0  0  0  0  2  0  0  0  0  0  0
  156.9630  212.5890  137.0890 O   0  0  0  0  0  1  0  0  0  0  0  0
  157.5920  213.5770  137.8510 C   0  0  2  0  0  0  0  0  0  0  0  0
  158.5180  212.9350  138.8530 C   0  0  0  0  0  2  0  0  0  0  0  0
  158.3560  214.4010  137.0170 O   0  0  0  0  0  0  0  0  0  0  0  0
  159.8540  213.3450  138.4860 N   0  0  0  0  0  0  0  0  0  0  0  0
  162.7610  212.2770  148.9090 S   0  0  0  0  0  0  0  0  0  0  0  0
  162.1010  209.5910  149.2740 C   0  0  0  0  0  0  0  0  0  0  0  0
  162.0990  210.8830  149.8240 C   0  0  0  0  0  0  0  0  0  0  0  0
  161.1100  210.0030  151.8680 C   0  0  0  0  0  0  0  0  0  0  0  0
  161.6090  211.0810  151.1180 C   0  0  0  0  0  3  0  0  0  0  0  0
  161.6060  208.5150  150.0190 C   0  0  0  0  0  3  0  0  0  0  0  0
  161.1110  208.7120  151.3160 C   0  0  0  0  0  0  0  0  0  0  0  0
  162.6070  209.3640  148.0000 O   0  0  0  0  0  1  0  0  0  0  0  0
  160.6160  207.6450  152.0740 O   0  0  0  0  0  0  0  0  0  0  0  0
  161.3220  206.4190  152.2360 C   0  0  0  0  0  2  0  0  0  0  0  0
  162.0600  206.0800  150.9570 C   0  0  0  0  0  2  0  0  0  0  0  0
  161.7970  204.6940  150.5890 N   0  0  0  0  0  0  0  0  0  0  0  0
  160.3450  204.4910  150.7950 C   0  0  1  0  0  3  0  0  0  0  0  0
  160.5580  205.8320  148.6290 C   0  0  0  0  0  2  0  0  0  0  0  0
  161.4260  204.6910  146.6350 N   0  0  0  0  0  2  0  0  0  0  0  0
  160.8770  204.5610  149.4280 C   0  0  0  0  0  0  0  0  0  0  0  0
  161.4980  205.9200  147.4260 C   0  0  0  0  0  2  0  0  0  0  0  0
  161.1300  203.2820  148.6270 C   0  0  0  0  0  2  0  0  0  0  0  0
  162.0150  203.6060  147.4200 C   0  0  0  0  0  2  0  0  0  0  0  0
  160.1020  203.0770  151.3030 C   0  0  0  0  0  2  0  0  0  0  0  0
  161.2810  202.5660  151.8430 O   0  0  0  0  0  1  0  0  0  0  0  0
  160.6120  210.1890  153.1640 O   0  0  0  0  0  0  0  0  0  0  0  0
  160.9830  211.2930  153.9820 C   0  0  0  0  0  2  0  0  0  0  0  0
  159.7920  211.7520  154.8130 C   0  0  0  0  0  2  0  0  0  0  0  0
  159.2150  213.4270  156.5350 C   0  0  0  0  0  2  0  0  0  0  0  0
  159.2980  212.0720  157.2100 C   0  0  0  0  0  2  0  0  0  0  0  0
  160.2630  212.4210  156.0920 C   0  0  0  0  0  3  0  0  0  0  0  0
  1 28  1  0  0  0  0
  1  5  1  0  0  0  0
  2  5  2  0  0  0  0
  3  4  1  0  0  0  0
  3  7  2  0  0  0  0
  4  1  2  0  0  0  0
  5  8  1  0  0  0  0
  6  7  1  0  0  0  0
  7  2  1  0  0  0  0
  9  3  1  0  0  0  0
 10  9  1  0  0  0  0
 11 15  1  0  0  0  0
 12 16  1  0  0  0  0
 12 11  1  0  0  0  0
 13 14  1  0  0  0  0
 14 15  1  0  0  0  0
 15 10  1  6  0  0  0
 16 13  1  0  0  0  0
 17 18  2  0  0  0  0
 17 12  1  0  0  0  0
 19 17  2  0  0  0  0
 20 27  1  0  0  0  0
 20 17  1  0  0  0  0
 22 27  1  0  0  0  0
 23 24  1  0  0  0  0
 24 21  1  1  0  0  0
 24 25  1  0  0  0  0
 26 22  1  0  0  0  0
 26 24  1  0  0  0  0
 27 25  1  0  0  0  0
 28 30  1  0  0  0  0
 29 30  2  0  0  0  0
 29 33  1  0  0  0  0
 30 32  1  0  0  0  0
 31 49  1  0  0  0  0
 32 31  2  0  0  0  0
 33 34  2  0  0  0  0
 34 31  1  0  0  0  0
 34 36  1  0  0  0  0
 35 29  1  0  0  0  0
 36 37  1  0  0  0  0
 38 37  1  0  0  0  0
 39 40  1  0  0  0  0
 39 38  1  0  0  0  0
 40 47  1  1  0  0  0
 41 43  1  0  0  0  0
 42 46  1  0  0  0  0
 42 44  1  0  0  0  0
 43 39  1  0  0  0  0
 43 40  1  0  0  0  0
 44 41  1  0  0  0  0
 45 43  1  0  0  0  0
 46 45  1  0  0  0  0
 47 48  1  0  0  0  0
 49 50  1  0  0  0  0
 50 51  1  0  0  0  0
 51 54  1  0  0  0  0
 52 53  1  0  0  0  0
 54 52  1  0  0  0  0
 54 53  1  0  0  0  0
M  END
>  <MODEL>
3

>  <REMARK>
 VINA RESULT:      -5.2      1.602      1.917
  Name = 
  17 active torsions:
  status: ('A' for Active; 'I' for Inactive)
    1  A    between atoms: C_1  and  O_6
    2  A    between atoms: C_1  and  C_24
    3  A    between atoms: C_3  and  C_27
    4  A    between atoms: C_5  and  S_45
    5  A    between atoms: O_6  and  C_39
    6  A    between atoms: C_8  and  C_18
    7  A    between atoms: C_8  and  O_20
    8  A    between atoms: C_9  and  S_45
    9  A    between atoms: C_10  and  O_20
   10  A    between atoms: N_11  and  C_24
   11  A    between atoms: C_14  and  C_23
   12  A    between atoms: N_15  and  S_26
   13  A    between atoms: C_18  and  C_22
   14  A    between atoms: N_19  and  C_23
   15  A    between atoms: N_19  and  C_50
   16  A    between atoms: S_26  and  C_53
   17  A    between atoms: N_47  and  C_53
                            x       y       z     vdW  Elec       q    Type
                         _______ _______ _______ _____ _____    ______ ____

>  <TORSDO>
F 17

$$$$
=
 OpenBabel11042422543D

 54 60  0  0  1  0  0  0  0  0999 V2000
  159.3480  213.7850  148.6070 C   0  0  0  0  0  0  0  0  0  0  0  0
  156.9630  213.7220  148.1650 C   0  0  0  0  0  3  0  0  0  0  0  0
  158.5320  213.0270  146.4490 C   0  0  0  0  0  0  0  0  0  0  0  0
  159.5940  213.3030  147.3160 C   0  0  0  0  0  3  0  0  0  0  0  0
  158.0240  213.9850  149.0350 C   0  0  0  0  0  0  0  0  0  0  0  0
  156.1410  212.9890  146.0240 O   0  0  0  0  0  1  0  0  0  0  0  0
  157.2100  213.2470  146.8730 C   0  0  0  0  0  0  0  0  0  0  0  0
  157.7550  214.4380  150.3210 O   0  0  0  0  0  1  0  0  0  0  0  0
  158.8210  212.5020  145.0850 C   0  0  0  0  0  2  0  0  0  0  0  0
  159.0180  213.6090  144.1630 N   0  0  0  0  0  2  0  0  0  0  0  0
  159.7130  213.3010  141.8370 C   0  0  0  0  0  2  0  0  0  0  0  0
  160.7370  213.9410  141.0050 N   0  0  0  0  0  0  0  0  0  0  0  0
  162.3270  213.5930  142.8680 C   0  0  0  0  0  2  0  0  0  0  0  0
  161.2110  214.1310  143.5420 O   0  0  0  0  0  0  0  0  0  0  0  0
  160.1400  213.2500  143.3130 C   0  0  1  0  0  3  0  0  0  0  0  0
  162.0590  213.4210  141.3600 C   0  0  0  0  0  2  0  0  0  0  0  0
  160.4120  213.5070  139.3560 S   0  0  0  0  0  0  0  0  0  0  0  0
  161.6810  213.6010  138.5580 O   0  0  0  0  0  0  0  0  0  0  0  0
  159.3900  214.4430  138.7700 O   0  0  0  0  0  0  0  0  0  0  0  0
  159.7900  211.8350  139.2660 C   0  0  0  0  0  2  0  0  0  0  0  0
  161.0670  207.9370  137.0110 C   0  0  0  0  0  1  0  0  0  0  0  0
  161.7850  211.0590  138.3190 C   0  0  0  0  0  2  0  0  0  0  0  0
  161.2580  208.2410  139.3660 O   0  0  0  0  0  1  0  0  0  0  0  0
  161.1390  208.9280  138.1550 C   0  0  2  0  0  0  0  0  0  0  0  0
  159.8950  209.7810  138.1720 C   0  0  0  0  0  2  0  0  0  0  0  0
  162.2420  209.7700  137.9790 O   0  0  0  0  0  0  0  0  0  0  0  0
  160.3470  211.1510  138.1080 N   0  0  0  0  0  0  0  0  0  0  0  0
  160.7390  214.0910  149.7010 S   0  0  0  0  0  0  0  0  0  0  0  0
  161.8890  211.7550  148.6980 C   0  0  0  0  0  0  0  0  0  0  0  0
  161.2200  212.3630  149.7720 C   0  0  0  0  0  0  0  0  0  0  0  0
  161.3460  210.2770  151.0210 C   0  0  0  0  0  0  0  0  0  0  0  0
  160.9560  211.6230  150.9280 C   0  0  0  0  0  3  0  0  0  0  0  0
  162.2800  210.4150  148.7870 C   0  0  0  0  0  3  0  0  0  0  0  0
  162.0140  209.6700  149.9460 C   0  0  0  0  0  0  0  0  0  0  0  0
  162.1860  212.4770  147.5470 O   0  0  0  0  0  1  0  0  0  0  0  0
  162.4020  208.3300  150.0520 O   0  0  0  0  0  0  0  0  0  0  0  0
  163.2160  207.6820  149.0800 C   0  0  0  0  0  2  0  0  0  0  0  0
  162.3410  206.9400  148.0900 C   0  0  0  0  0  2  0  0  0  0  0  0
  161.9830  205.6340  148.6330 N   0  0  0  0  0  0  0  0  0  0  0  0
  160.5430  205.7160  148.9640 C   0  0  1  0  0  3  0  0  0  0  0  0
  160.6560  205.4850  146.4210 C   0  0  0  0  0  2  0  0  0  0  0  0
  161.3140  203.3160  145.4790 N   0  0  0  0  0  2  0  0  0  0  0  0
  160.9730  204.9160  147.8110 C   0  0  0  0  0  0  0  0  0  0  0  0
  161.5060  204.7620  145.3750 C   0  0  0  0  0  2  0  0  0  0  0  0
  161.1010  203.3950  147.9250 C   0  0  0  0  0  2  0  0  0  0  0  0
  161.9080  202.8640  146.7370 C   0  0  0  0  0  2  0  0  0  0  0  0
  160.2710  204.9060  150.2240 C   0  0  0  0  0  2  0  0  0  0  0  0
  161.1820  205.2650  151.2160 O   0  0  0  0  0  1  0  0  0  0  0  0
  161.0850  209.5240  152.1730 O   0  0  0  0  0  0  0  0  0  0  0  0
  161.2100  210.0550  153.4880 C   0  0  0  0  0  2  0  0  0  0  0  0
  159.8760  209.9680  154.2170 C   0  0  0  0  0  2  0  0  0  0  0  0
  158.6330  211.8930  155.1400 C   0  0  0  0  0  2  0  0  0  0  0  0
  159.7270  212.4310  154.2410 C   0  0  0  0  0  2  0  0  0  0  0  0
  158.9990  211.1550  153.8640 C   0  0  0  0  0  3  0  0  0  0  0  0
  1  5  1  0  0  0  0
  1 28  1  0  0  0  0
  2  5  2  0  0  0  0
  3  7  2  0  0  0  0
  3  4  1  0  0  0  0
  4  1  2  0  0  0  0
  5  8  1  0  0  0  0
  6  7  1  0  0  0  0
  7  2  1  0  0  0  0
  9  3  1  0  0  0  0
 10  9  1  0  0  0  0
 11 15  1  0  0  0  0
 12 16  1  0  0  0  0
 12 11  1  0  0  0  0
 13 14  1  0  0  0  0
 15 14  1  0  0  0  0
 15 10  1  1  0  0  0
 16 13  1  0  0  0  0
 17 12  1  0  0  0  0
 18 17  2  0  0  0  0
 19 17  2  0  0  0  0
 20 17  1  0  0  0  0
 24 21  1  6  0  0  0
 24 25  1  0  0  0  0
 24 23  1  0  0  0  0
 26 24  1  0  0  0  0
 26 22  1  0  0  0  0
 27 25  1  0  0  0  0
 27 22  1  0  0  0  0
 27 20  1  0  0  0  0
 28 30  1  0  0  0  0
 29 33  2  0  0  0  0
 29 30  1  0  0  0  0
 30 32  2  0  0  0  0
 31 49  1  0  0  0  0
 32 31  1  0  0  0  0
 33 34  1  0  0  0  0
 34 36  1  0  0  0  0
 34 31  2  0  0  0  0
 35 29  1  0  0  0  0
 37 36  1  0  0  0  0
 38 39  1  0  0  0  0
 38 37  1  0  0  0  0
 39 40  1  0  0  0  0
 40 47  1  1  0  0  0
 41 43  1  0  0  0  0
 42 46  1  0  0  0  0
 43 45  1  0  0  0  0
 43 39  1  0  0  0  0
 43 40  1  0  0  0  0
 44 42  1  0  0  0  0
 44 41  1  0  0  0  0
 46 45  1  0  0  0  0
 47 48  1  0  0  0  0
 49 50  1  0  0  0  0
 50 51  1  0  0  0  0
 53 52  1  0  0  0  0
 54 51  1  0  0  0  0
 54 53  1  0  0  0  0
 54 52  1  0  0  0  0
M  END
>  <MODEL>
4

>  <REMARK>
 VINA RESULT:      -4.9      2.061      2.642
  Name = 
  17 active torsions:
  status: ('A' for Active; 'I' for Inactive)
    1  A    between atoms: C_1  and  O_6
    2  A    between atoms: C_1  and  C_24
    3  A    between atoms: C_3  and  C_27
    4  A    between atoms: C_5  and  S_45
    5  A    between atoms: O_6  and  C_39
    6  A    between atoms: C_8  and  C_18
    7  A    between atoms: C_8  and  O_20
    8  A    between atoms: C_9  and  S_45
    9  A    between atoms: C_10  and  O_20
   10  A    between atoms: N_11  and  C_24
   11  A    between atoms: C_14  and  C_23
   12  A    between atoms: N_15  and  S_26
   13  A    between atoms: C_18  and  C_22
   14  A    between atoms: N_19  and  C_23
   15  A    between atoms: N_19  and  C_50
   16  A    between atoms: S_26  and  C_53
   17  A    between atoms: N_47  and  C_53
                            x       y       z     vdW  Elec       q    Type
                         _______ _______ _______ _____ _____    ______ ____

>  <TORSDO>
F 17

$$$$
