=
 OpenBabel11042421133D

 32 34  0  0  1  0  0  0  0  0999 V2000
  161.3980  207.7160  149.4820 C   0  0  0  0  0  2  0  0  0  0  0  0
  161.9800  209.0190  148.9540 C   0  0  0  0  0  2  0  0  0  0  0  0
  161.9180  210.0900  150.0350 C   0  0  0  0  0  2  0  0  0  0  0  0
  162.6370  209.6030  151.3000 C   0  0  0  0  0  2  0  0  0  0  0  0
  162.0880  208.3340  151.8020 N   0  0  0  0  0  0  0  0  0  0  0  0
  162.1560  207.3030  150.7460 C   0  0  1  0  0  3  0  0  0  0  0  0
  160.7160  208.5460  152.2630 C   0  0  0  0  0  2  0  0  0  0  0  0
  160.7320  209.2620  153.5980 C   0  0  0  0  0  2  0  0  0  0  0  0
  160.7880  208.2840  154.6720 N   0  0  0  0  0  2  0  0  0  0  0  0
  161.3190  208.9600  155.8450 C   0  0  2  0  0  3  0  0  0  0  0  0
  160.6000  208.4670  157.0910 C   0  0  0  0  0  2  0  0  0  0  0  0
  160.0990  207.0500  156.8860 C   0  0  0  0  0  1  0  0  0  0  0  0
  161.1940  210.4760  155.6930 C   0  0  0  0  0  2  0  0  0  0  0  0
  160.3480  211.0360  156.7380 N   0  0  0  0  0  2  0  0  0  0  0  0
  159.4470  212.6980  154.5700 C   0  0  0  0  0  1  0  0  0  0  0  0
  158.2390  212.6050  156.9570 O   0  0  0  0  0  0  0  0  0  0  0  0
  158.0280  210.6280  155.5240 O   0  0  0  0  0  0  0  0  0  0  0  0
  158.9550  211.7230  155.9740 S   0  0  0  0  0  0  0  0  0  0  0  0
  161.6730  205.9450  151.2420 C   0  0  0  0  0  2  0  0  0  0  0  0
  160.5670  205.4190  150.3440 C   0  0  0  0  0  2  0  0  0  0  0  0
  161.4860  202.1270  148.3320 C   0  0  2  0  0  3  0  0  0  0  0  0
  160.6220  201.6460  147.2140 C   0  0  0  0  0  3  0  0  0  0  0  0
  159.7050  201.3650  144.7410 Cl  0  0  0  0  0  0  0  0  0  0  0  0
  161.5380  204.5260  147.7220 C   0  0  0  0  0  3  0  0  0  0  0  0
  161.2930  201.2630  149.5010 N   0  0  0  0  0  0  0  0  0  0  0  0
  161.9340  204.2810  146.3230 C   0  0  0  0  0  3  0  0  0  0  0  0
  161.5620  203.2440  145.5640 C   0  0  0  0  0  3  0  0  0  0  0  0
  161.2570  203.5880  148.6340 C   0  0  0  0  0  0  0  0  0  0  0  0
  160.8260  203.9890  149.9890 C   0  0  0  0  0  0  0  0  0  0  0  0
  160.6800  202.1340  145.9740 C   0  0  0  0  0  0  0  0  0  0  0  0
  160.6840  203.0640  150.9300 C   0  0  0  0  0  3  0  0  0  0  0  0
  160.9350  201.6830  150.6520 N   0  0  0  0  0  0  0  0  0  0  0  0
  1  6  1  0  0  0  0
  2  1  1  0  0  0  0
  2  3  1  0  0  0  0
  3  4  1  0  0  0  0
  4  5  1  0  0  0  0
  5  7  1  0  0  0  0
  6 19  1  1  0  0  0
  6  5  1  0  0  0  0
  7  8  1  0  0  0  0
  8  9  1  0  0  0  0
  9 10  1  0  0  0  0
 10 13  1  6  0  0  0
 10 11  1  0  0  0  0
 12 11  1  0  0  0  0
 13 14  1  0  0  0  0
 15 18  1  0  0  0  0
 17 18  2  0  0  0  0
 18 14  1  0  0  0  0
 18 16  2  0  0  0  0
 20 19  1  0  0  0  0
 21 22  1  6  0  0  0
 21 28  1  0  0  0  0
 21 25  1  0  0  0  0
 23 30  1  0  0  0  0
 24 28  2  0  0  0  0
 25 32  2  0  0  0  0
 26 24  1  0  0  0  0
 27 30  1  0  0  0  0
 27 26  2  0  0  0  0
 28 29  1  0  0  0  0
 29 20  1  0  0  0  0
 29 31  2  0  0  0  0
 30 22  2  0  0  0  0
 32 31  1  0  0  0  0
M  END
>  <MODEL>
1

>  <REMARK>
 VINA RESULT:      -7.9      0.000      0.000
  Name = 
  11 active torsions:
  status: ('A' for Active; 'I' for Inactive)
    1  A    between atoms: C_3  and  N_15
    2  A    between atoms: C_3  and  C_16
    3  A    between atoms: C_7  and  N_12
    4  A    between atoms: C_7  and  C_26
    5  A    between atoms: N_12  and  S_23
    6  A    between atoms: C_14  and  C_26
    7  A    between atoms: C_16  and  N_31
    8  A    between atoms: C_18  and  C_24
    9  A    between atoms: C_18  and  C_27
   10  A    between atoms: C_26  and  N_31
   11  A    between atoms: C_27  and  C_32
                            x       y       z     vdW  Elec       q    Type
                         _______ _______ _______ _____ _____    ______ ____

>  <TORSDO>
F 11

$$$$
=
 OpenBabel11042421133D

 32 34  0  0  1  0  0  0  0  0999 V2000
  161.3940  207.8190  149.5080 C   0  0  0  0  0  2  0  0  0  0  0  0
  162.0540  209.0760  148.9600 C   0  0  0  0  0  2  0  0  0  0  0  0
  162.0090  210.1820  150.0060 C   0  0  0  0  0  2  0  0  0  0  0  0
  162.6640  209.7030  151.3080 C   0  0  0  0  0  2  0  0  0  0  0  0
  162.0400  208.4770  151.8290 N   0  0  0  0  0  0  0  0  0  0  0  0
  162.0910  207.4110  150.8080 C   0  0  1  0  0  3  0  0  0  0  0  0
  160.6650  208.7680  152.2390 C   0  0  0  0  0  2  0  0  0  0  0  0
  160.6620  209.3580  153.6340 C   0  0  0  0  0  2  0  0  0  0  0  0
  160.4420  210.7920  153.5530 N   0  0  0  0  0  2  0  0  0  0  0  0
  159.0040  211.0080  153.5420 C   0  0  2  0  0  3  0  0  0  0  0  0
  158.6520  212.0600  152.5000 C   0  0  0  0  0  2  0  0  0  0  0  0
  159.9100  212.5960  151.8440 C   0  0  0  0  0  1  0  0  0  0  0  0
  158.5120  211.4130  154.9310 C   0  0  0  0  0  2  0  0  0  0  0  0
  157.0890  211.1360  155.0800 N   0  0  0  0  0  2  0  0  0  0  0  0
  157.4820  213.9240  155.6680 C   0  0  0  0  0  1  0  0  0  0  0  0
  155.3900  212.5100  156.5570 O   0  0  0  0  0  0  0  0  0  0  0  0
  155.4580  213.0100  154.1590 O   0  0  0  0  0  0  0  0  0  0  0  0
  156.2860  212.6440  155.3590 S   0  0  0  0  0  0  0  0  0  0  0  0
  161.5290  206.0930  151.3280 C   0  0  0  0  0  2  0  0  0  0  0  0
  160.4920  205.5460  150.3640 C   0  0  0  0  0  2  0  0  0  0  0  0
  161.5070  202.2270  148.4440 C   0  0  2  0  0  3  0  0  0  0  0  0
  160.6670  201.6990  147.3290 C   0  0  0  0  0  3  0  0  0  0  0  0
  159.7860  201.3360  144.8540 Cl  0  0  0  0  0  0  0  0  0  0  0  0
  161.5130  204.6100  147.7750 C   0  0  0  0  0  3  0  0  0  0  0  0
  161.3200  201.3870  149.6320 N   0  0  0  0  0  0  0  0  0  0  0  0
  161.9310  204.3400  146.3880 C   0  0  0  0  0  3  0  0  0  0  0  0
  161.5910  203.2760  145.6500 C   0  0  0  0  0  3  0  0  0  0  0  0
  161.2430  203.6890  148.7070 C   0  0  0  0  0  0  0  0  0  0  0  0
  160.7870  204.1140  150.0470 C   0  0  0  0  0  0  0  0  0  0  0  0
  160.7290  202.1570  146.0780 C   0  0  0  0  0  0  0  0  0  0  0  0
  160.6540  203.2090  151.0100 C   0  0  0  0  0  3  0  0  0  0  0  0
  160.9390  201.8280  150.7680 N   0  0  0  0  0  0  0  0  0  0  0  0
  1  6  1  0  0  0  0
  2  1  1  0  0  0  0
  2  3  1  0  0  0  0
  3  4  1  0  0  0  0
  4  5  1  0  0  0  0
  5  7  1  0  0  0  0
  6 19  1  1  0  0  0
  6  5  1  0  0  0  0
  7  8  1  0  0  0  0
  9  8  1  0  0  0  0
 10 11  1  6  0  0  0
 10  9  1  0  0  0  0
 10 13  1  0  0  0  0
 12 11  1  0  0  0  0
 13 14  1  0  0  0  0
 14 18  1  0  0  0  0
 17 18  2  0  0  0  0
 18 15  1  0  0  0  0
 18 16  2  0  0  0  0
 20 19  1  0  0  0  0
 21 22  1  6  0  0  0
 21 28  1  0  0  0  0
 21 25  1  0  0  0  0
 23 30  1  0  0  0  0
 24 28  2  0  0  0  0
 25 32  2  0  0  0  0
 26 24  1  0  0  0  0
 27 30  1  0  0  0  0
 27 26  2  0  0  0  0
 28 29  1  0  0  0  0
 29 20  1  0  0  0  0
 29 31  2  0  0  0  0
 30 22  2  0  0  0  0
 32 31  1  0  0  0  0
M  END
>  <MODEL>
2

>  <REMARK>
 VINA RESULT:      -7.6      1.672      2.348
  Name = 
  11 active torsions:
  status: ('A' for Active; 'I' for Inactive)
    1  A    between atoms: C_3  and  N_15
    2  A    between atoms: C_3  and  C_16
    3  A    between atoms: C_7  and  N_12
    4  A    between atoms: C_7  and  C_26
    5  A    between atoms: N_12  and  S_23
    6  A    between atoms: C_14  and  C_26
    7  A    between atoms: C_16  and  N_31
    8  A    between atoms: C_18  and  C_24
    9  A    between atoms: C_18  and  C_27
   10  A    between atoms: C_26  and  N_31
   11  A    between atoms: C_27  and  C_32
                            x       y       z     vdW  Elec       q    Type
                         _______ _______ _______ _____ _____    ______ ____

>  <TORSDO>
F 11

$$$$
=
 OpenBabel11042421133D

 32 34  0  0  1  0  0  0  0  0999 V2000
  161.5170  206.4740  153.9410 C   0  0  0  0  0  2  0  0  0  0  0  0
  160.7440  207.2990  154.9590 C   0  0  0  0  0  2  0  0  0  0  0  0
  160.7090  208.7590  154.5240 C   0  0  0  0  0  2  0  0  0  0  0  0
  160.1180  208.8740  153.1140 C   0  0  0  0  0  2  0  0  0  0  0  0
  160.8520  208.0620  152.1310 N   0  0  0  0  0  0  0  0  0  0  0  0
  160.8780  206.6500  152.5620 C   0  0  1  0  0  3  0  0  0  0  0  0
  162.2030  208.6020  151.9680 C   0  0  0  0  0  2  0  0  0  0  0  0
  162.1280  209.9880  151.3600 C   0  0  0  0  0  2  0  0  0  0  0  0
  162.6570  209.9530  150.0070 N   0  0  0  0  0  2  0  0  0  0  0  0
  161.5250  209.8050  149.1050 C   0  0  2  0  0  3  0  0  0  0  0  0
  161.5380  208.4140  148.4900 C   0  0  0  0  0  2  0  0  0  0  0  0
  162.9260  207.8080  148.5830 C   0  0  0  0  0  1  0  0  0  0  0  0
  161.5520  210.8900  148.0290 C   0  0  0  0  0  2  0  0  0  0  0  0
  162.6060  211.8610  148.2950 N   0  0  0  0  0  2  0  0  0  0  0  0
  160.4770  213.7450  147.8600 C   0  0  0  0  0  1  0  0  0  0  0  0
  162.3320  213.1680  146.0200 O   0  0  0  0  0  0  0  0  0  0  0  0
  163.0660  214.4500  147.9750 O   0  0  0  0  0  0  0  0  0  0  0  0
  162.1710  213.3380  147.5040 S   0  0  0  0  0  0  0  0  0  0  0  0
  161.5580  205.7510  151.5350 C   0  0  0  0  0  2  0  0  0  0  0  0
  160.5730  205.3520  150.4500 C   0  0  0  0  0  2  0  0  0  0  0  0
  161.4660  202.1490  148.2880 C   0  0  2  0  0  3  0  0  0  0  0  0
  160.6060  201.7340  147.1410 C   0  0  0  0  0  3  0  0  0  0  0  0
  159.7080  201.5860  144.6500 Cl  0  0  0  0  0  0  0  0  0  0  0  0
  161.5560  204.5730  147.7960 C   0  0  0  0  0  3  0  0  0  0  0  0
  161.2510  201.2310  149.4120 N   0  0  0  0  0  0  0  0  0  0  0  0
  161.9620  204.3910  146.3900 C   0  0  0  0  0  3  0  0  0  0  0  0
  161.5830  203.3970  145.5780 C   0  0  0  0  0  3  0  0  0  0  0  0
  161.2550  203.5960  148.6590 C   0  0  0  0  0  0  0  0  0  0  0  0
  160.8170  203.9370  150.0280 C   0  0  0  0  0  0  0  0  0  0  0  0
  160.6820  202.2810  145.9270 C   0  0  0  0  0  0  0  0  0  0  0  0
  160.6530  202.9700  150.9220 C   0  0  0  0  0  3  0  0  0  0  0  0
  160.8880  201.6010  150.5790 N   0  0  0  0  0  0  0  0  0  0  0  0
  1  2  1  0  0  0  0
  3  2  1  0  0  0  0
  4  3  1  0  0  0  0
  5  6  1  0  0  0  0
  5  4  1  0  0  0  0
  6 19  1  6  0  0  0
  6  1  1  0  0  0  0
  7  5  1  0  0  0  0
  8  7  1  0  0  0  0
  9  8  1  0  0  0  0
 10 13  1  6  0  0  0
 10  9  1  0  0  0  0
 11 12  1  0  0  0  0
 11 10  1  0  0  0  0
 13 14  1  0  0  0  0
 16 18  2  0  0  0  0
 18 15  1  0  0  0  0
 18 17  2  0  0  0  0
 18 14  1  0  0  0  0
 20 19  1  0  0  0  0
 21 22  1  6  0  0  0
 21 28  1  0  0  0  0
 21 25  1  0  0  0  0
 23 30  1  0  0  0  0
 24 28  2  0  0  0  0
 25 32  2  0  0  0  0
 26 24  1  0  0  0  0
 27 30  1  0  0  0  0
 27 26  2  0  0  0  0
 28 29  1  0  0  0  0
 29 20  1  0  0  0  0
 29 31  2  0  0  0  0
 30 22  2  0  0  0  0
 32 31  1  0  0  0  0
M  END
>  <MODEL>
3

>  <REMARK>
 VINA RESULT:      -7.1      3.434      5.126
  Name = 
  11 active torsions:
  status: ('A' for Active; 'I' for Inactive)
    1  A    between atoms: C_3  and  N_15
    2  A    between atoms: C_3  and  C_16
    3  A    between atoms: C_7  and  N_12
    4  A    between atoms: C_7  and  C_26
    5  A    between atoms: N_12  and  S_23
    6  A    between atoms: C_14  and  C_26
    7  A    between atoms: C_16  and  N_31
    8  A    between atoms: C_18  and  C_24
    9  A    between atoms: C_18  and  C_27
   10  A    between atoms: C_26  and  N_31
   11  A    between atoms: C_27  and  C_32
                            x       y       z     vdW  Elec       q    Type
                         _______ _______ _______ _____ _____    ______ ____

>  <TORSDO>
F 11

$$$$
=
 OpenBabel11042421133D

 32 34  0  0  1  0  0  0  0  0999 V2000
  161.7330  206.9460  153.2260 C   0  0  0  0  0  2  0  0  0  0  0  0
  160.9950  207.6070  154.3810 C   0  0  0  0  0  2  0  0  0  0  0  0
  160.8730  209.1040  154.1290 C   0  0  0  0  0  2  0  0  0  0  0  0
  160.1870  209.3560  152.7800 C   0  0  0  0  0  2  0  0  0  0  0  0
  160.8880  208.7030  151.6650 N   0  0  0  0  0  0  0  0  0  0  0  0
  160.9980  207.2520  151.9190 C   0  0  1  0  0  3  0  0  0  0  0  0
  162.2020  209.3220  151.4870 C   0  0  0  0  0  2  0  0  0  0  0  0
  162.2520  210.0390  150.1530 C   0  0  0  0  0  2  0  0  0  0  0  0
  161.9620  211.4490  150.3500 N   0  0  0  0  0  2  0  0  0  0  0  0
  161.3070  211.9290  149.1430 C   0  0  2  0  0  3  0  0  0  0  0  0
  162.2810  211.8770  147.9760 C   0  0  0  0  0  2  0  0  0  0  0  0
  162.0030  213.0090  147.0050 C   0  0  0  0  0  1  0  0  0  0  0  0
  160.7640  213.3420  149.3530 C   0  0  0  0  0  2  0  0  0  0  0  0
  159.3090  213.3570  149.2740 N   0  0  0  0  0  2  0  0  0  0  0  0
  157.0890  214.3240  150.8260 C   0  0  0  0  0  1  0  0  0  0  0  0
  159.6320  214.4510  151.6510 O   0  0  0  0  0  0  0  0  0  0  0  0
  158.6000  212.2310  151.5650 O   0  0  0  0  0  0  0  0  0  0  0  0
  158.6970  213.5650  150.8790 S   0  0  0  0  0  0  0  0  0  0  0  0
  161.6470  206.5140  150.7530 C   0  0  0  0  0  2  0  0  0  0  0  0
  160.5810  205.9320  149.8410 C   0  0  0  0  0  2  0  0  0  0  0  0
  161.4460  202.4140  148.2260 C   0  0  2  0  0  3  0  0  0  0  0  0
  160.5870  201.8320  147.1530 C   0  0  0  0  0  3  0  0  0  0  0  0
  159.7010  201.2970  144.7110 Cl  0  0  0  0  0  0  0  0  0  0  0  0
  161.5680  204.7280  147.3530 C   0  0  0  0  0  3  0  0  0  0  0  0
  161.2130  201.6910  149.4800 N   0  0  0  0  0  0  0  0  0  0  0  0
  161.9800  204.3180  145.9980 C   0  0  0  0  0  3  0  0  0  0  0  0
  161.5930  203.2120  145.3520 C   0  0  0  0  0  3  0  0  0  0  0  0
  161.2500  203.9050  148.3590 C   0  0  0  0  0  0  0  0  0  0  0  0
  160.8090  204.4660  149.6530 C   0  0  0  0  0  0  0  0  0  0  0  0
  160.6770  202.1760  145.8680 C   0  0  0  0  0  0  0  0  0  0  0  0
  160.6290  203.6550  150.6890 C   0  0  0  0  0  3  0  0  0  0  0  0
  160.8480  202.2460  150.5700 N   0  0  0  0  0  0  0  0  0  0  0  0
  1  2  1  0  0  0  0
  3  2  1  0  0  0  0
  4  3  1  0  0  0  0
  5  6  1  0  0  0  0
  5  4  1  0  0  0  0
  6 19  1  6  0  0  0
  6  1  1  0  0  0  0
  7  5  1  0  0  0  0
  8  9  1  0  0  0  0
  8  7  1  0  0  0  0
 10 11  1  6  0  0  0
 10 13  1  0  0  0  0
 10  9  1  0  0  0  0
 12 11  1  0  0  0  0
 14 13  1  0  0  0  0
 14 18  1  0  0  0  0
 15 18  1  0  0  0  0
 18 17  2  0  0  0  0
 18 16  2  0  0  0  0
 20 19  1  0  0  0  0
 21 22  1  6  0  0  0
 21 28  1  0  0  0  0
 21 25  1  0  0  0  0
 23 30  1  0  0  0  0
 24 28  2  0  0  0  0
 25 32  2  0  0  0  0
 26 24  1  0  0  0  0
 27 30  1  0  0  0  0
 27 26  2  0  0  0  0
 28 29  1  0  0  0  0
 29 20  1  0  0  0  0
 29 31  2  0  0  0  0
 30 22  2  0  0  0  0
 32 31  1  0  0  0  0
M  END
>  <MODEL>
4

>  <REMARK>
 VINA RESULT:      -6.9      2.574      4.445
  Name = 
  11 active torsions:
  status: ('A' for Active; 'I' for Inactive)
    1  A    between atoms: C_3  and  N_15
    2  A    between atoms: C_3  and  C_16
    3  A    between atoms: C_7  and  N_12
    4  A    between atoms: C_7  and  C_26
    5  A    between atoms: N_12  and  S_23
    6  A    between atoms: C_14  and  C_26
    7  A    between atoms: C_16  and  N_31
    8  A    between atoms: C_18  and  C_24
    9  A    between atoms: C_18  and  C_27
   10  A    between atoms: C_26  and  N_31
   11  A    between atoms: C_27  and  C_32
                            x       y       z     vdW  Elec       q    Type
                         _______ _______ _______ _____ _____    ______ ____

>  <TORSDO>
F 11

$$$$
=
 OpenBabel11042421133D

 32 34  0  0  1  0  0  0  0  0999 V2000
  160.8600  207.4890  153.0740 C   0  0  0  0  0  2  0  0  0  0  0  0
  161.1940  206.0940  153.5840 C   0  0  0  0  0  2  0  0  0  0  0  0
  161.3450  205.1370  152.4090 C   0  0  0  0  0  2  0  0  0  0  0  0
  162.4020  205.6660  151.4300 C   0  0  0  0  0  2  0  0  0  0  0  0
  162.0900  207.0220  150.9520 N   0  0  0  0  0  0  0  0  0  0  0  0
  161.9480  207.9420  152.0980 C   0  0  1  0  0  3  0  0  0  0  0  0
  160.8750  206.9830  150.1360 C   0  0  0  0  0  2  0  0  0  0  0  0
  161.2450  207.0470  148.6680 C   0  0  0  0  0  2  0  0  0  0  0  0
  160.6750  205.9040  147.9750 N   0  0  0  0  0  2  0  0  0  0  0  0
  161.7830  205.1150  147.4590 C   0  0  2  0  0  3  0  0  0  0  0  0
  161.9320  205.3560  145.9640 C   0  0  0  0  0  2  0  0  0  0  0  0
  161.3100  204.2150  145.1810 C   0  0  0  0  0  1  0  0  0  0  0  0
  161.5740  203.6330  147.7660 C   0  0  0  0  0  2  0  0  0  0  0  0
  160.8540  203.4580  149.0200 N   0  0  0  0  0  2  0  0  0  0  0  0
  161.3500  200.8480  147.9180 C   0  0  0  0  0  1  0  0  0  0  0  0
  159.1360  201.4740  149.2860 O   0  0  0  0  0  0  0  0  0  0  0  0
  161.2260  201.3310  150.5570 O   0  0  0  0  0  0  0  0  0  0  0  0
  160.6100  201.7600  149.2540 S   0  0  0  0  0  0  0  0  0  0  0  0
  161.7050  209.3790  151.6520 C   0  0  0  0  0  2  0  0  0  0  0  0
  161.7580  210.3170  152.8460 C   0  0  0  0  0  2  0  0  0  0  0  0
  158.5860  212.4520  153.9010 C   0  0  0  0  0  0  0  0  0  0  0  0
  157.2950  211.7870  154.2440 C   0  0  0  0  0  3  0  0  0  0  0  0
  155.4210  210.6390  155.7300 Cl  0  0  0  0  0  0  0  0  0  0  0  0
  160.0940  210.9590  155.1770 C   0  0  0  0  0  3  0  0  0  0  0  0
  158.4720  213.0820  152.5810 N   0  0  0  0  0  0  0  0  0  0  0  0
  159.3320  211.0740  156.4340 C   0  0  0  0  0  3  0  0  0  0  0  0
  158.0050  211.2000  156.5480 C   0  0  0  0  0  3  0  0  0  0  0  0
  159.7550  211.5020  154.0010 C   0  0  0  0  0  0  0  0  0  0  0  0
  160.5970  211.2600  152.8120 C   0  0  0  0  0  0  0  0  0  0  0  0
  157.0350  211.2520  155.4370 C   0  0  2  0  0  3  0  0  0  0  0  0
  160.3380  211.9100  151.6840 C   0  0  0  0  0  3  0  0  0  0  0  0
  159.2510  212.8360  151.6000 N   0  0  0  0  0  0  0  0  0  0  0  0
  1  2  1  0  0  0  0
  3  2  1  0  0  0  0
  4  3  1  0  0  0  0
  5  4  1  0  0  0  0
  5  6  1  0  0  0  0
  6 19  1  6  0  0  0
  6  1  1  0  0  0  0
  7  5  1  0  0  0  0
  8  7  1  0  0  0  0
  9  8  1  0  0  0  0
 10 11  1  6  0  0  0
 10 13  1  0  0  0  0
 10  9  1  0  0  0  0
 12 11  1  0  0  0  0
 13 14  1  0  0  0  0
 14 18  1  0  0  0  0
 15 18  1  0  0  0  0
 18 16  2  0  0  0  0
 18 17  2  0  0  0  0
 19 20  1  0  0  0  0
 21 28  1  0  0  0  0
 21 22  2  0  0  0  0
 22 30  1  0  0  0  0
 24 26  1  0  0  0  0
 25 21  1  0  0  0  0
 26 27  2  0  0  0  0
 28 24  2  0  0  0  0
 29 20  1  0  0  0  0
 29 28  1  0  0  0  0
 30 23  1  1  0  0  0
 30 27  1  0  0  0  0
 31 29  2  0  0  0  0
 32 31  1  0  0  0  0
 32 25  2  0  0  0  0
M  END
>  <MODEL>
5

>  <REMARK>
 VINA RESULT:      -6.9      5.006      9.921
  Name = 
  11 active torsions:
  status: ('A' for Active; 'I' for Inactive)
    1  A    between atoms: C_3  and  N_15
    2  A    between atoms: C_3  and  C_16
    3  A    between atoms: C_7  and  N_12
    4  A    between atoms: C_7  and  C_26
    5  A    between atoms: N_12  and  S_23
    6  A    between atoms: C_14  and  C_26
    7  A    between atoms: C_16  and  N_31
    8  A    between atoms: C_18  and  C_24
    9  A    between atoms: C_18  and  C_27
   10  A    between atoms: C_26  and  N_31
   11  A    between atoms: C_27  and  C_32
                            x       y       z     vdW  Elec       q    Type
                         _______ _______ _______ _____ _____    ______ ____

>  <TORSDO>
F 11

$$$$
=
 OpenBabel11042421133D

 32 34  0  0  1  0  0  0  0  0999 V2000
  160.8770  208.1990  152.4950 C   0  0  0  0  0  2  0  0  0  0  0  0
  161.1300  207.2700  153.6730 C   0  0  0  0  0  2  0  0  0  0  0  0
  161.2350  205.8310  153.1850 C   0  0  0  0  0  2  0  0  0  0  0  0
  162.3250  205.7170  152.1110 C   0  0  0  0  0  2  0  0  0  0  0  0
  162.0920  206.6280  150.9790 N   0  0  0  0  0  0  0  0  0  0  0  0
  161.9940  208.0200  151.4640 C   0  0  1  0  0  3  0  0  0  0  0  0
  160.8810  206.2180  150.2660 C   0  0  0  0  0  2  0  0  0  0  0  0
  161.2540  205.3260  149.1000 C   0  0  0  0  0  2  0  0  0  0  0  0
  160.9710  203.9420  149.4380 N   0  0  0  0  0  2  0  0  0  0  0  0
  160.8680  203.2040  148.1880 C   0  0  2  0  0  3  0  0  0  0  0  0
  161.0470  201.7170  148.4540 C   0  0  0  0  0  2  0  0  0  0  0  0
  160.8960  201.4230  149.9350 C   0  0  0  0  0  1  0  0  0  0  0  0
  161.8930  203.7170  147.1770 C   0  0  0  0  0  2  0  0  0  0  0  0
  161.3620  203.6570  145.8220 N   0  0  0  0  0  2  0  0  0  0  0  0
  160.0780  206.2270  145.6770 C   0  0  0  0  0  1  0  0  0  0  0  0
  161.4510  205.1480  143.6480 O   0  0  0  0  0  0  0  0  0  0  0  0
  162.7430  205.9060  145.5870 O   0  0  0  0  0  0  0  0  0  0  0  0
  161.4650  205.2480  145.1470 S   0  0  0  0  0  0  0  0  0  0  0  0
  161.8330  209.0140  150.3200 C   0  0  0  0  0  2  0  0  0  0  0  0
  162.0270  210.4340  150.8250 C   0  0  0  0  0  2  0  0  0  0  0  0
  160.3350  213.4550  148.8910 C   0  0  0  0  0  0  0  0  0  0  0  0
  158.8710  213.4530  148.5970 C   0  0  0  0  0  3  0  0  0  0  0  0
  156.2780  213.8950  148.9400 Cl  0  0  0  0  0  0  0  0  0  0  0  0
  160.2160  212.7050  151.2470 C   0  0  0  0  0  3  0  0  0  0  0  0
  161.0780  213.1850  147.6550 N   0  0  0  0  0  0  0  0  0  0  0  0
  159.2200  213.7190  151.6410 C   0  0  0  0  0  3  0  0  0  0  0  0
  158.2320  214.1980  150.8760 C   0  0  0  0  0  3  0  0  0  0  0  0
  160.6870  212.5060  150.0100 C   0  0  0  0  0  0  0  0  0  0  0  0
  161.6520  211.4150  149.7600 C   0  0  0  0  0  0  0  0  0  0  0  0
  157.9410  213.8100  149.4820 C   0  0  2  0  0  3  0  0  0  0  0  0
  162.2220  211.3090  148.5660 C   0  0  0  0  0  3  0  0  0  0  0  0
  161.9130  212.2300  147.5160 N   0  0  0  0  0  0  0  0  0  0  0  0
  1  2  1  0  0  0  0
  3  2  1  0  0  0  0
  4  3  1  0  0  0  0
  5  6  1  0  0  0  0
  5  4  1  0  0  0  0
  6 19  1  6  0  0  0
  6  1  1  0  0  0  0
  7  5  1  0  0  0  0
  8  9  1  0  0  0  0
  8  7  1  0  0  0  0
 10 13  1  6  0  0  0
 10 11  1  0  0  0  0
 10  9  1  0  0  0  0
 11 12  1  0  0  0  0
 14 13  1  0  0  0  0
 16 18  2  0  0  0  0
 18 17  2  0  0  0  0
 18 15  1  0  0  0  0
 18 14  1  0  0  0  0
 19 20  1  0  0  0  0
 21 28  1  0  0  0  0
 22 21  2  0  0  0  0
 22 30  1  0  0  0  0
 24 26  1  0  0  0  0
 25 21  1  0  0  0  0
 27 26  2  0  0  0  0
 28 24  2  0  0  0  0
 29 28  1  0  0  0  0
 29 20  1  0  0  0  0
 30 23  1  6  0  0  0
 30 27  1  0  0  0  0
 31 29  2  0  0  0  0
 32 25  2  0  0  0  0
 32 31  1  0  0  0  0
M  END
>  <MODEL>
6

>  <REMARK>
 VINA RESULT:      -6.9      5.388      9.580
  Name = 
  11 active torsions:
  status: ('A' for Active; 'I' for Inactive)
    1  A    between atoms: C_3  and  N_15
    2  A    between atoms: C_3  and  C_16
    3  A    between atoms: C_7  and  N_12
    4  A    between atoms: C_7  and  C_26
    5  A    between atoms: N_12  and  S_23
    6  A    between atoms: C_14  and  C_26
    7  A    between atoms: C_16  and  N_31
    8  A    between atoms: C_18  and  C_24
    9  A    between atoms: C_18  and  C_27
   10  A    between atoms: C_26  and  N_31
   11  A    between atoms: C_27  and  C_32
                            x       y       z     vdW  Elec       q    Type
                         _______ _______ _______ _____ _____    ______ ____

>  <TORSDO>
F 11

$$$$
=
 OpenBabel11042421133D

 32 34  0  0  1  0  0  0  0  0999 V2000
  161.8370  207.0070  152.6020 C   0  0  0  0  0  2  0  0  0  0  0  0
  161.2600  207.4780  153.9290 C   0  0  0  0  0  2  0  0  0  0  0  0
  161.1640  208.9980  153.9410 C   0  0  0  0  0  2  0  0  0  0  0  0
  160.3370  209.4830  152.7430 C   0  0  0  0  0  2  0  0  0  0  0  0
  160.8820  209.0130  151.4600 N   0  0  0  0  0  0  0  0  0  0  0  0
  160.9690  207.5380  151.4590 C   0  0  1  0  0  3  0  0  0  0  0  0
  162.1880  209.6320  151.2310 C   0  0  0  0  0  2  0  0  0  0  0  0
  162.0000  211.0240  150.6640 C   0  0  0  0  0  2  0  0  0  0  0  0
  161.9590  210.9550  149.2130 N   0  0  0  0  0  2  0  0  0  0  0  0
  161.6060  212.2800  148.7280 C   0  0  2  0  0  3  0  0  0  0  0  0
  160.8230  213.0260  149.7960 C   0  0  0  0  0  2  0  0  0  0  0  0
  159.7190  213.8530  149.1630 C   0  0  0  0  0  1  0  0  0  0  0  0
  160.8150  212.1800  147.4240 C   0  0  0  0  0  2  0  0  0  0  0  0
  161.4780  212.9160  146.3550 N   0  0  0  0  0  2  0  0  0  0  0  0
  158.7920  213.7540  145.7590 C   0  0  0  0  0  1  0  0  0  0  0  0
  160.0760  211.8420  144.3960 O   0  0  0  0  0  0  0  0  0  0  0  0
  160.8590  214.1430  144.0900 O   0  0  0  0  0  0  0  0  0  0  0  0
  160.3250  213.1520  145.0860 S   0  0  0  0  0  0  0  0  0  0  0  0
  161.4520  206.9950  150.1190 C   0  0  0  0  0  2  0  0  0  0  0  0
  160.3410  206.2200  149.4340 C   0  0  0  0  0  2  0  0  0  0  0  0
  161.4540  202.5960  148.2680 C   0  0  2  0  0  3  0  0  0  0  0  0
  160.6590  201.8380  147.2580 C   0  0  0  0  0  3  0  0  0  0  0  0
  159.8680  200.9630  144.8810 Cl  0  0  0  0  0  0  0  0  0  0  0  0
  161.4610  204.7920  147.1260 C   0  0  0  0  0  3  0  0  0  0  0  0
  161.2330  202.0130  149.5960 N   0  0  0  0  0  0  0  0  0  0  0  0
  161.9310  204.2510  145.8380 C   0  0  0  0  0  3  0  0  0  0  0  0
  161.6270  203.0540  145.3230 C   0  0  0  0  0  3  0  0  0  0  0  0
  161.1670  204.0760  148.2180 C   0  0  0  0  0  0  0  0  0  0  0  0
  160.6600  204.7580  149.4270 C   0  0  0  0  0  0  0  0  0  0  0  0
  160.7600  202.0320  145.9420 C   0  0  0  0  0  0  0  0  0  0  0  0
  160.5020  204.0670  150.5490 C   0  0  0  0  0  3  0  0  0  0  0  0
  160.8080  202.6700  150.6050 N   0  0  0  0  0  0  0  0  0  0  0  0
  1  2  1  0  0  0  0
  2  3  1  0  0  0  0
  4  3  1  0  0  0  0
  5  4  1  0  0  0  0
  6 19  1  6  0  0  0
  6  5  1  0  0  0  0
  6  1  1  0  0  0  0
  7  5  1  0  0  0  0
  8  7  1  0  0  0  0
  9  8  1  0  0  0  0
 10 13  1  6  0  0  0
 10  9  1  0  0  0  0
 10 11  1  0  0  0  0
 12 11  1  0  0  0  0
 14 13  1  0  0  0  0
 16 18  2  0  0  0  0
 17 18  2  0  0  0  0
 18 15  1  0  0  0  0
 18 14  1  0  0  0  0
 20 19  1  0  0  0  0
 21 22  1  6  0  0  0
 21 25  1  0  0  0  0
 23 30  1  0  0  0  0
 24 28  2  0  0  0  0
 25 32  2  0  0  0  0
 26 24  1  0  0  0  0
 27 26  2  0  0  0  0
 27 30  1  0  0  0  0
 28 21  1  0  0  0  0
 28 29  1  0  0  0  0
 29 20  1  0  0  0  0
 29 31  2  0  0  0  0
 30 22  2  0  0  0  0
 31 32  1  0  0  0  0
M  END
>  <MODEL>
7

>  <REMARK>
 VINA RESULT:      -6.7      4.250      5.788
  Name = 
  11 active torsions:
  status: ('A' for Active; 'I' for Inactive)
    1  A    between atoms: C_3  and  N_15
    2  A    between atoms: C_3  and  C_16
    3  A    between atoms: C_7  and  N_12
    4  A    between atoms: C_7  and  C_26
    5  A    between atoms: N_12  and  S_23
    6  A    between atoms: C_14  and  C_26
    7  A    between atoms: C_16  and  N_31
    8  A    between atoms: C_18  and  C_24
    9  A    between atoms: C_18  and  C_27
   10  A    between atoms: C_26  and  N_31
   11  A    between atoms: C_27  and  C_32
                            x       y       z     vdW  Elec       q    Type
                         _______ _______ _______ _____ _____    ______ ____

>  <TORSDO>
F 11

$$$$
=
 OpenBabel11042421133D

 32 34  0  0  1  0  0  0  0  0999 V2000
  161.8730  206.4160  152.4150 C   0  0  0  0  0  2  0  0  0  0  0  0
  161.3540  205.9180  153.7560 C   0  0  0  0  0  2  0  0  0  0  0  0
  161.1270  207.0970  154.6930 C   0  0  0  0  0  2  0  0  0  0  0  0
  160.1770  208.1120  154.0430 C   0  0  0  0  0  2  0  0  0  0  0  0
  160.6680  208.5800  152.7380 N   0  0  0  0  0  0  0  0  0  0  0  0
  160.8820  207.4300  151.8370 C   0  0  1  0  0  3  0  0  0  0  0  0
  161.8960  209.3530  152.9300 C   0  0  0  0  0  2  0  0  0  0  0  0
  161.5690  210.6730  153.5970 C   0  0  0  0  0  2  0  0  0  0  0  0
  162.1540  210.7030  154.9270 N   0  0  0  0  0  2  0  0  0  0  0  0
  161.1810  211.3210  155.8140 C   0  0  2  0  0  3  0  0  0  0  0  0
  160.9820  210.4500  157.0440 C   0  0  0  0  0  2  0  0  0  0  0  0
  162.1370  209.4780  157.1960 C   0  0  0  0  0  1  0  0  0  0  0  0
  159.8610  211.5580  155.0800 C   0  0  0  0  0  2  0  0  0  0  0  0
  158.7420  211.0040  155.8300 N   0  0  0  0  0  2  0  0  0  0  0  0
  155.9170  210.7030  155.3820 C   0  0  0  0  0  1  0  0  0  0  0  0
  157.4880  212.2670  153.8830 O   0  0  0  0  0  0  0  0  0  0  0  0
  157.0430  213.0080  156.1760 O   0  0  0  0  0  0  0  0  0  0  0  0
  157.3050  211.8120  155.3030 S   0  0  0  0  0  0  0  0  0  0  0  0
  161.3140  207.8680  150.4430 C   0  0  0  0  0  2  0  0  0  0  0  0
  162.4150  206.9600  149.9230 C   0  0  0  0  0  2  0  0  0  0  0  0
  160.8270  204.2890  147.4570 C   0  0  0  0  0  0  0  0  0  0  0  0
  161.4180  202.9250  147.3220 C   0  0  0  0  0  3  0  0  0  0  0  0
  161.8270  200.3480  147.7980 Cl  0  0  0  0  0  0  0  0  0  0  0  0
  160.8910  204.4510  149.9270 C   0  0  0  0  0  3  0  0  0  0  0  0
  161.1510  205.0790  146.2650 N   0  0  0  0  0  0  0  0  0  0  0  0
  160.2200  203.1560  150.1450 C   0  0  0  0  0  3  0  0  0  0  0  0
  160.3430  202.0610  149.3860 C   0  0  0  0  0  3  0  0  0  0  0  0
  161.2460  204.9610  148.7420 C   0  0  0  0  0  0  0  0  0  0  0  0
  161.9590  206.2540  148.6850 C   0  0  0  0  0  0  0  0  0  0  0  0
  161.1770  201.9290  148.1750 C   0  0  2  0  0  3  0  0  0  0  0  0
  162.1850  206.8240  147.5070 C   0  0  0  0  0  3  0  0  0  0  0  0
  161.7560  206.2030  146.2920 N   0  0  0  0  0  0  0  0  0  0  0  0
  1  2  1  0  0  0  0
  2  3  1  0  0  0  0
  4  3  1  0  0  0  0
  5  7  1  0  0  0  0
  5  4  1  0  0  0  0
  6 19  1  6  0  0  0
  6  1  1  0  0  0  0
  6  5  1  0  0  0  0
  7  8  1  0  0  0  0
  8  9  1  0  0  0  0
  9 10  1  0  0  0  0
 10 13  1  6  0  0  0
 10 11  1  0  0  0  0
 11 12  1  0  0  0  0
 13 14  1  0  0  0  0
 16 18  2  0  0  0  0
 18 15  1  0  0  0  0
 18 14  1  0  0  0  0
 18 17  2  0  0  0  0
 20 19  1  0  0  0  0
 21 28  1  0  0  0  0
 22 21  2  0  0  0  0
 22 30  1  0  0  0  0
 24 26  1  0  0  0  0
 25 32  2  0  0  0  0
 25 21  1  0  0  0  0
 27 26  2  0  0  0  0
 28 24  2  0  0  0  0
 29 28  1  0  0  0  0
 29 20  1  0  0  0  0
 30 23  1  6  0  0  0
 30 27  1  0  0  0  0
 31 29  2  0  0  0  0
 32 31  1  0  0  0  0
M  END
>  <MODEL>
8

>  <REMARK>
 VINA RESULT:      -6.7      2.245      3.340
  Name = 
  11 active torsions:
  status: ('A' for Active; 'I' for Inactive)
    1  A    between atoms: C_3  and  N_15
    2  A    between atoms: C_3  and  C_16
    3  A    between atoms: C_7  and  N_12
    4  A    between atoms: C_7  and  C_26
    5  A    between atoms: N_12  and  S_23
    6  A    between atoms: C_14  and  C_26
    7  A    between atoms: C_16  and  N_31
    8  A    between atoms: C_18  and  C_24
    9  A    between atoms: C_18  and  C_27
   10  A    between atoms: C_26  and  N_31
   11  A    between atoms: C_27  and  C_32
                            x       y       z     vdW  Elec       q    Type
                         _______ _______ _______ _____ _____    ______ ____

>  <TORSDO>
F 11

$$$$
=
 OpenBabel11042421133D

 32 34  0  0  1  0  0  0  0  0999 V2000
  161.9290  206.2170  153.0770 C   0  0  0  0  0  2  0  0  0  0  0  0
  161.3590  206.2480  154.4880 C   0  0  0  0  0  2  0  0  0  0  0  0
  161.0940  207.6880  154.9080 C   0  0  0  0  0  2  0  0  0  0  0  0
  160.1700  208.3710  153.8930 C   0  0  0  0  0  2  0  0  0  0  0  0
  160.7100  208.3260  152.5250 N   0  0  0  0  0  0  0  0  0  0  0  0
  160.9600  206.9250  152.1280 C   0  0  1  0  0  3  0  0  0  0  0  0
  161.9290  209.1330  152.4570 C   0  0  0  0  0  2  0  0  0  0  0  0
  161.6050  210.5750  152.7920 C   0  0  0  0  0  2  0  0  0  0  0  0
  160.7490  211.1320  151.7590 N   0  0  0  0  0  2  0  0  0  0  0  0
  159.7040  211.8930  152.4270 C   0  0  2  0  0  3  0  0  0  0  0  0
  159.5750  213.2630  151.7810 C   0  0  0  0  0  2  0  0  0  0  0  0
  158.1700  213.4640  151.2420 C   0  0  0  0  0  1  0  0  0  0  0  0
  159.9980  212.0070  153.9220 C   0  0  0  0  0  2  0  0  0  0  0  0
  158.8190  211.6770  154.7110 N   0  0  0  0  0  2  0  0  0  0  0  0
  156.9950  213.9000  154.7630 C   0  0  0  0  0  1  0  0  0  0  0  0
  159.5200  214.0440  155.6400 O   0  0  0  0  0  0  0  0  0  0  0  0
  157.9490  212.7280  156.9830 O   0  0  0  0  0  0  0  0  0  0  0  0
  158.3540  213.0980  155.5830 S   0  0  0  0  0  0  0  0  0  0  0  0
  161.4450  206.8180  150.6870 C   0  0  0  0  0  2  0  0  0  0  0  0
  160.3940  206.1360  149.8280 C   0  0  0  0  0  2  0  0  0  0  0  0
  161.4740  202.6020  148.3860 C   0  0  2  0  0  3  0  0  0  0  0  0
  160.6790  201.9370  147.3120 C   0  0  0  0  0  3  0  0  0  0  0  0
  159.8990  201.2650  144.8670 Cl  0  0  0  0  0  0  0  0  0  0  0  0
  161.5180  204.8820  147.4230 C   0  0  0  0  0  3  0  0  0  0  0  0
  161.2330  201.9190  149.6610 N   0  0  0  0  0  0  0  0  0  0  0  0
  161.9920  204.4390  146.0990 C   0  0  0  0  0  3  0  0  0  0  0  0
  161.6780  203.2910  145.4880 C   0  0  0  0  0  3  0  0  0  0  0  0
  161.2050  204.0850  148.4520 C   0  0  0  0  0  0  0  0  0  0  0  0
  160.6960  204.6760  149.7070 C   0  0  0  0  0  0  0  0  0  0  0  0
  160.7940  202.2340  146.0170 C   0  0  0  0  0  0  0  0  0  0  0  0
  160.5190  203.8990  150.7690 C   0  0  0  0  0  3  0  0  0  0  0  0
  160.8080  202.4990  150.7160 N   0  0  0  0  0  0  0  0  0  0  0  0
  1  2  1  0  0  0  0
  2  3  1  0  0  0  0
  4  3  1  0  0  0  0
  5  4  1  0  0  0  0
  6 19  1  6  0  0  0
  6  5  1  0  0  0  0
  6  1  1  0  0  0  0
  7  5  1  0  0  0  0
  7  8  1  0  0  0  0
  9 10  1  0  0  0  0
  9  8  1  0  0  0  0
 10 11  1  6  0  0  0
 10 13  1  0  0  0  0
 12 11  1  0  0  0  0
 13 14  1  0  0  0  0
 14 18  1  0  0  0  0
 15 18  1  0  0  0  0
 18 16  2  0  0  0  0
 18 17  2  0  0  0  0
 20 19  1  0  0  0  0
 21 22  1  6  0  0  0
 21 28  1  0  0  0  0
 21 25  1  0  0  0  0
 23 30  1  0  0  0  0
 24 28  2  0  0  0  0
 25 32  2  0  0  0  0
 26 24  1  0  0  0  0
 27 30  1  0  0  0  0
 27 26  2  0  0  0  0
 28 29  1  0  0  0  0
 29 20  1  0  0  0  0
 29 31  2  0  0  0  0
 30 22  2  0  0  0  0
 32 31  1  0  0  0  0
M  END
>  <MODEL>
9

>  <REMARK>
 VINA RESULT:      -6.5      1.675      3.158
  Name = 
  11 active torsions:
  status: ('A' for Active; 'I' for Inactive)
    1  A    between atoms: C_3  and  N_15
    2  A    between atoms: C_3  and  C_16
    3  A    between atoms: C_7  and  N_12
    4  A    between atoms: C_7  and  C_26
    5  A    between atoms: N_12  and  S_23
    6  A    between atoms: C_14  and  C_26
    7  A    between atoms: C_16  and  N_31
    8  A    between atoms: C_18  and  C_24
    9  A    between atoms: C_18  and  C_27
   10  A    between atoms: C_26  and  N_31
   11  A    between atoms: C_27  and  C_32
                            x       y       z     vdW  Elec       q    Type
                         _______ _______ _______ _____ _____    ______ ____

>  <TORSDO>
F 11

$$$$
