=
 OpenBabel11052409483D

 26 29  0  0  1  0  0  0  0  0999 V2000
  160.6240  209.6930  154.2590 C   0  0  0  0  0  3  0  0  0  0  0  0
  161.2450  206.8220  153.2010 C   0  0  0  0  0  0  0  0  0  0  0  0
  161.7990  209.9480  153.3510 C   0  0  0  0  0  2  0  0  0  0  0  0
  160.3630  208.5020  154.8270 C   0  0  0  0  0  3  0  0  0  0  0  0
  161.0690  205.0830  151.6170 C   0  0  0  0  0  3  0  0  0  0  0  0
  161.3430  205.9370  150.5220 C   0  0  0  0  0  0  0  0  0  0  0  0
  161.5760  207.2710  150.8280 C   0  0  0  0  0  0  0  0  0  0  0  0
  161.7540  209.0600  152.1480 C   0  0  0  0  0  0  0  0  0  0  0  0
  161.8490  208.3860  150.0570 C   0  0  0  0  0  3  0  0  0  0  0  0
  161.0300  205.5420  152.8800 O   0  0  0  0  0  0  0  0  0  0  0  0
  161.2150  207.2730  154.6320 C   0  0  0  0  0  2  0  0  0  0  0  0
  161.5310  207.7100  152.1740 C   0  0  0  0  0  0  0  0  0  0  0  0
  161.9580  209.4710  150.8730 N   0  0  0  0  0  0  0  0  0  0  0  0
  161.3920  205.4410  149.1080 C   0  0  1  0  0  3  0  0  0  0  0  0
  161.0770  201.9800  148.4290 C   0  0  0  0  0  0  0  0  0  0  0  0
  160.4210  203.2920  149.9800 N   0  0  0  0  0  0  0  0  0  0  0  0
  161.5440  203.1820  148.0420 N   0  0  0  0  0  0  0  0  0  0  0  0
  161.1050  203.9720  149.0410 C   0  0  0  0  0  0  0  0  0  0  0  0
  160.4010  202.0290  149.5900 N   0  0  0  0  0  2  0  0  0  0  0  0
  161.4480  199.7970  147.0800 N   0  0  0  0  0  0  0  0  0  0  0  0
  161.2820  200.7720  147.6820 C   0  0  0  0  0  0  0  0  0  0  0  0
  160.4620  206.2460  148.2070 C   0  0  0  0  0  2  0  0  0  0  0  0
  161.1540  206.5830  146.8990 C   0  0  0  0  0  2  0  0  0  0  0  0
  160.2850  206.2360  145.7910 N   0  0  0  0  0  2  0  0  0  0  0  0
  161.0480  205.3580  144.9230 C   0  0  0  0  0  2  0  0  0  0  0  0
  162.5120  205.4190  145.3030 C   0  0  0  0  0  1  0  0  0  0  0  0
  1  4  2  0  0  0  0
  2 11  1  0  0  0  0
  3  1  1  0  0  0  0
  5 10  1  0  0  0  0
  6  7  1  0  0  0  0
  6  5  2  0  0  0  0
  7 12  1  0  0  0  0
  8 12  1  0  0  0  0
  8  3  1  0  0  0  0
  9  7  2  0  0  0  0
  9 13  1  0  0  0  0
 10  2  1  0  0  0  0
 11  4  1  0  0  0  0
 12  2  2  0  0  0  0
 13  8  2  0  0  0  0
 14 22  1  6  0  0  0
 14  6  1  0  0  0  0
 15 19  1  0  0  0  0
 17 15  2  0  0  0  0
 17 18  1  0  0  0  0
 18 14  1  0  0  0  0
 18 16  2  0  0  0  0
 19 16  1  0  0  0  0
 20 21  3  0  0  0  0
 21 15  1  0  0  0  0
 23 22  1  0  0  0  0
 24 23  1  0  0  0  0
 25 26  1  0  0  0  0
 25 24  1  0  0  0  0
M  END
>  <MODEL>
1

>  <REMARK>
 VINA RESULT:      -8.3      0.000      0.000
  Name = 
  7 active torsions:
  status: ('A' for Active; 'I' for Inactive)
    1  A    between atoms: C_5  and  C_25
    2  A    between atoms: C_7  and  N_20
    3  A    between atoms: C_8  and  C_16
    4  A    between atoms: C_11  and  C_15
    5  A    between atoms: C_11  and  C_16
    6  A    between atoms: C_15  and  N_20
    7  A    between atoms: C_16  and  C_21
                            x       y       z     vdW  Elec       q    Type
                         _______ _______ _______ _____ _____    ______ ____

>  <TORSDO>
F 7

$$$$
=
 OpenBabel11052409483D

 26 29  0  0  1  0  0  0  0  0999 V2000
  160.5290  201.8110  146.6380 C   0  0  0  0  0  3  0  0  0  0  0  0
  161.9970  204.5530  146.9080 C   0  0  0  0  0  0  0  0  0  0  0  0
  160.9990  201.7670  148.0690 C   0  0  0  0  0  2  0  0  0  0  0  0
  161.1040  202.5650  145.6850 C   0  0  0  0  0  3  0  0  0  0  0  0
  162.0940  206.8350  147.4960 C   0  0  0  0  0  3  0  0  0  0  0  0
  161.4930  206.6230  148.7590 C   0  0  0  0  0  0  0  0  0  0  0  0
  161.1550  205.3120  149.0660 C   0  0  0  0  0  0  0  0  0  0  0  0
  160.9360  203.1230  148.6990 C   0  0  0  0  0  0  0  0  0  0  0  0
  160.5500  204.7200  150.1590 C   0  0  0  0  0  3  0  0  0  0  0  0
  162.3180  205.8220  146.6400 O   0  0  0  0  0  0  0  0  0  0  0  0
  162.2950  203.4590  145.9240 C   0  0  0  0  0  2  0  0  0  0  0  0
  161.4150  204.2750  148.1360 C   0  0  0  0  0  0  0  0  0  0  0  0
  160.4240  203.3840  149.9250 N   0  0  0  0  0  0  0  0  0  0  0  0
  161.2380  207.7400  149.7260 C   0  0  1  0  0  3  0  0  0  0  0  0
  161.3150  206.9560  153.1780 C   0  0  0  0  0  0  0  0  0  0  0  0
  162.6100  206.6250  151.5140 N   0  0  0  0  0  0  0  0  0  0  0  0
  160.6640  207.5380  152.1540 N   0  0  0  0  0  0  0  0  0  0  0  0
  161.5150  207.3100  151.1340 C   0  0  0  0  0  0  0  0  0  0  0  0
  162.4840  206.4020  152.8100 N   0  0  0  0  0  2  0  0  0  0  0  0
  160.4070  206.9020  155.6060 N   0  0  0  0  0  0  0  0  0  0  0  0
  160.8120  206.9260  154.5220 C   0  0  0  0  0  0  0  0  0  0  0  0
  162.0250  208.9900  149.3460 C   0  0  0  0  0  2  0  0  0  0  0  0
  161.9800  210.0060  150.4720 C   0  0  0  0  0  2  0  0  0  0  0  0
  161.9680  211.3450  149.9140 N   0  0  0  0  0  2  0  0  0  0  0  0
  162.1500  211.2010  148.4810 C   0  0  0  0  0  2  0  0  0  0  0  0
  162.9390  212.3790  147.9510 C   0  0  0  0  0  1  0  0  0  0  0  0
  1  3  1  0  0  0  0
  2 12  2  0  0  0  0
  3  8  1  0  0  0  0
  4 11  1  0  0  0  0
  4  1  2  0  0  0  0
  5  6  2  0  0  0  0
  6  7  1  0  0  0  0
  6 14  1  0  0  0  0
  7  9  2  0  0  0  0
  8 13  2  0  0  0  0
 10  2  1  0  0  0  0
 10  5  1  0  0  0  0
 11  2  1  0  0  0  0
 12  8  1  0  0  0  0
 12  7  1  0  0  0  0
 13  9  1  0  0  0  0
 14 22  1  6  0  0  0
 14 18  1  0  0  0  0
 15 21  1  0  0  0  0
 16 19  1  0  0  0  0
 17 15  2  0  0  0  0
 18 16  2  0  0  0  0
 18 17  1  0  0  0  0
 19 15  1  0  0  0  0
 21 20  3  0  0  0  0
 22 23  1  0  0  0  0
 24 23  1  0  0  0  0
 25 24  1  0  0  0  0
 26 25  1  0  0  0  0
M  END
>  <MODEL>
2

>  <REMARK>
 VINA RESULT:      -8.0      2.542      6.874
  Name = 
  7 active torsions:
  status: ('A' for Active; 'I' for Inactive)
    1  A    between atoms: C_5  and  C_25
    2  A    between atoms: C_7  and  N_20
    3  A    between atoms: C_8  and  C_16
    4  A    between atoms: C_11  and  C_15
    5  A    between atoms: C_11  and  C_16
    6  A    between atoms: C_15  and  N_20
    7  A    between atoms: C_16  and  C_21
                            x       y       z     vdW  Elec       q    Type
                         _______ _______ _______ _____ _____    ______ ____

>  <TORSDO>
F 7

$$$$
=
 OpenBabel11052409483D

 26 29  0  0  1  0  0  0  0  0999 V2000
  161.7120  200.9430  147.4570 C   0  0  0  0  0  3  0  0  0  0  0  0
  160.5660  202.7440  149.7350 C   0  0  0  0  0  0  0  0  0  0  0  0
  160.9870  202.0060  146.6720 C   0  0  0  0  0  2  0  0  0  0  0  0
  161.4180  200.6210  148.7290 C   0  0  0  0  0  3  0  0  0  0  0  0
  160.6430  204.6060  151.1800 C   0  0  0  0  0  3  0  0  0  0  0  0
  160.9720  205.5090  150.1410 C   0  0  0  0  0  0  0  0  0  0  0  0
  161.0850  204.9630  148.8690 C   0  0  0  0  0  0  0  0  0  0  0  0
  161.0990  203.3400  147.3400 C   0  0  0  0  0  0  0  0  0  0  0  0
  161.4040  205.4970  147.6340 C   0  0  0  0  0  3  0  0  0  0  0  0
  160.4580  203.2950  150.9480 O   0  0  0  0  0  0  0  0  0  0  0  0
  160.3220  201.2770  149.5300 C   0  0  0  0  0  2  0  0  0  0  0  0
  160.8750  203.5760  148.6690 C   0  0  0  0  0  0  0  0  0  0  0  0
  161.4070  204.4990  146.7080 N   0  0  0  0  0  0  0  0  0  0  0  0
  161.1810  206.9730  150.3830 C   0  0  1  0  0  3  0  0  0  0  0  0
  160.9480  208.1900  153.7000 C   0  0  0  0  0  0  0  0  0  0  0  0
  161.8120  206.4760  152.7650 N   0  0  0  0  0  0  0  0  0  0  0  0
  160.6710  208.3710  152.3950 N   0  0  0  0  0  0  0  0  0  0  0  0
  161.2350  207.2760  151.8490 C   0  0  0  0  0  0  0  0  0  0  0  0
  161.6320  207.0560  153.9390 N   0  0  0  0  0  2  0  0  0  0  0  0
  160.2320  209.8490  155.5600 N   0  0  0  0  0  0  0  0  0  0  0  0
  160.5520  209.1080  154.7290 C   0  0  0  0  0  0  0  0  0  0  0  0
  162.4150  207.4850  149.6480 C   0  0  0  0  0  2  0  0  0  0  0  0
  162.0510  208.6560  148.7540 C   0  0  0  0  0  2  0  0  0  0  0  0
  162.0960  209.8830  149.5250 N   0  0  0  0  0  2  0  0  0  0  0  0
  162.2810  210.9650  148.5750 C   0  0  0  0  0  2  0  0  0  0  0  0
  161.4900  212.1750  149.0270 C   0  0  0  0  0  1  0  0  0  0  0  0
  1  4  2  0  0  0  0
  2 10  1  0  0  0  0
  3  8  1  0  0  0  0
  3  1  1  0  0  0  0
  4 11  1  0  0  0  0
  6 14  1  0  0  0  0
  6  5  2  0  0  0  0
  7  6  1  0  0  0  0
  8 12  1  0  0  0  0
  9  7  2  0  0  0  0
 10  5  1  0  0  0  0
 11  2  1  0  0  0  0
 12  7  1  0  0  0  0
 12  2  2  0  0  0  0
 13  8  2  0  0  0  0
 13  9  1  0  0  0  0
 14 22  1  6  0  0  0
 14 18  1  0  0  0  0
 15 19  1  0  0  0  0
 15 21  1  0  0  0  0
 16 19  1  0  0  0  0
 17 15  2  0  0  0  0
 18 17  1  0  0  0  0
 18 16  2  0  0  0  0
 21 20  3  0  0  0  0
 23 24  1  0  0  0  0
 23 22  1  0  0  0  0
 25 26  1  0  0  0  0
 25 24  1  0  0  0  0
M  END
>  <MODEL>
3

>  <REMARK>
 VINA RESULT:      -7.9      2.136      6.895
  Name = 
  7 active torsions:
  status: ('A' for Active; 'I' for Inactive)
    1  A    between atoms: C_5  and  C_25
    2  A    between atoms: C_7  and  N_20
    3  A    between atoms: C_8  and  C_16
    4  A    between atoms: C_11  and  C_15
    5  A    between atoms: C_11  and  C_16
    6  A    between atoms: C_15  and  N_20
    7  A    between atoms: C_16  and  C_21
                            x       y       z     vdW  Elec       q    Type
                         _______ _______ _______ _____ _____    ______ ____

>  <TORSDO>
F 7

$$$$
=
 OpenBabel11052409483D

 26 29  0  0  1  0  0  0  0  0999 V2000
  162.1290  209.9900  156.5670 C   0  0  0  0  0  3  0  0  0  0  0  0
  161.4070  209.7230  153.5410 C   0  0  0  0  0  0  0  0  0  0  0  0
  160.8870  209.1380  156.6220 C   0  0  0  0  0  2  0  0  0  0  0  0
  162.4260  210.8130  155.5450 C   0  0  0  0  0  3  0  0  0  0  0  0
  161.4450  208.6080  151.4630 C   0  0  0  0  0  3  0  0  0  0  0  0
  161.0900  207.3600  152.0290 C   0  0  0  0  0  0  0  0  0  0  0  0
  160.8910  207.3440  153.4030 C   0  0  0  0  0  0  0  0  0  0  0  0
  160.8310  208.1910  155.4650 C   0  0  0  0  0  0  0  0  0  0  0  0
  160.5650  206.3450  154.3010 C   0  0  0  0  0  3  0  0  0  0  0  0
  161.5870  209.7120  152.2170 O   0  0  0  0  0  0  0  0  0  0  0  0
  161.5540  210.9920  154.3290 C   0  0  0  0  0  2  0  0  0  0  0  0
  161.0450  208.5330  154.1570 C   0  0  0  0  0  0  0  0  0  0  0  0
  160.5290  206.8730  155.5560 N   0  0  0  0  0  0  0  0  0  0  0  0
  160.9250  206.1200  151.2020 C   0  0  1  0  0  3  0  0  0  0  0  0
  161.0870  206.4840  147.6840 C   0  0  0  0  0  0  0  0  0  0  0  0
  162.3170  207.0600  149.3310 N   0  0  0  0  0  0  0  0  0  0  0  0
  160.4230  206.0070  148.7530 N   0  0  0  0  0  0  0  0  0  0  0  0
  161.2330  206.3870  149.7610 C   0  0  0  0  0  0  0  0  0  0  0  0
  162.2260  207.1200  148.0140 N   0  0  0  0  0  2  0  0  0  0  0  0
  160.2550  206.2140  145.2430 N   0  0  0  0  0  0  0  0  0  0  0  0
  160.6270  206.3340  146.3330 C   0  0  0  0  0  0  0  0  0  0  0  0
  161.7560  204.9700  151.7600 C   0  0  0  0  0  2  0  0  0  0  0  0
  160.8860  203.7460  151.9780 C   0  0  0  0  0  2  0  0  0  0  0  0
  161.4180  202.6340  151.2150 N   0  0  0  0  0  2  0  0  0  0  0  0
  160.5770  202.4940  150.0400 C   0  0  0  0  0  2  0  0  0  0  0  0
  160.9330  201.2150  149.3130 C   0  0  0  0  0  1  0  0  0  0  0  0
  1  3  1  0  0  0  0
  2 12  2  0  0  0  0
  2 11  1  0  0  0  0
  4  1  2  0  0  0  0
  5  6  2  0  0  0  0
  5 10  1  0  0  0  0
  6  7  1  0  0  0  0
  7 12  1  0  0  0  0
  7  9  2  0  0  0  0
  8 13  2  0  0  0  0
  8  3  1  0  0  0  0
  9 13  1  0  0  0  0
 10  2  1  0  0  0  0
 11  4  1  0  0  0  0
 12  8  1  0  0  0  0
 14 22  1  1  0  0  0
 14  6  1  0  0  0  0
 15 19  1  0  0  0  0
 15 17  2  0  0  0  0
 16 18  2  0  0  0  0
 17 18  1  0  0  0  0
 18 14  1  0  0  0  0
 19 16  1  0  0  0  0
 20 21  3  0  0  0  0
 21 15  1  0  0  0  0
 22 23  1  0  0  0  0
 24 23  1  0  0  0  0
 25 24  1  0  0  0  0
 26 25  1  0  0  0  0
M  END
>  <MODEL>
4

>  <REMARK>
 VINA RESULT:      -7.9      2.084      4.395
  Name = 
  7 active torsions:
  status: ('A' for Active; 'I' for Inactive)
    1  A    between atoms: C_5  and  C_25
    2  A    between atoms: C_7  and  N_20
    3  A    between atoms: C_8  and  C_16
    4  A    between atoms: C_11  and  C_15
    5  A    between atoms: C_11  and  C_16
    6  A    between atoms: C_15  and  N_20
    7  A    between atoms: C_16  and  C_21
                            x       y       z     vdW  Elec       q    Type
                         _______ _______ _______ _____ _____    ______ ____

>  <TORSDO>
F 7

$$$$
=
 OpenBabel11052409483D

 26 29  0  0  1  0  0  0  0  0999 V2000
  160.6900  208.3670  153.0560 C   0  0  0  0  0  3  0  0  0  0  0  0
  161.6190  205.4930  152.2630 C   0  0  0  0  0  0  0  0  0  0  0  0
  161.4330  208.6280  151.7710 C   0  0  0  0  0  2  0  0  0  0  0  0
  160.9070  207.2960  153.8410 C   0  0  0  0  0  3  0  0  0  0  0  0
  161.3830  203.4560  151.0990 C   0  0  0  0  0  3  0  0  0  0  0  0
  161.0970  204.0930  149.8680 C   0  0  0  0  0  0  0  0  0  0  0  0
  161.0890  205.4820  149.8840 C   0  0  0  0  0  0  0  0  0  0  0  0
  161.2330  207.5110  150.7960 C   0  0  0  0  0  0  0  0  0  0  0  0
  160.8390  206.4390  148.9180 C   0  0  0  0  0  3  0  0  0  0  0  0
  161.6260  204.1570  152.2200 O   0  0  0  0  0  0  0  0  0  0  0  0
  161.9240  206.2240  153.5390 C   0  0  0  0  0  2  0  0  0  0  0  0
  161.3570  206.1800  151.0870 C   0  0  0  0  0  0  0  0  0  0  0  0
  160.9320  207.6740  149.4840 N   0  0  0  0  0  0  0  0  0  0  0  0
  160.8260  203.3260  148.6090 C   0  0  1  0  0  3  0  0  0  0  0  0
  161.8880  204.8400  145.5890 C   0  0  0  0  0  0  0  0  0  0  0  0
  162.8370  204.2310  147.4020 N   0  0  0  0  0  0  0  0  0  0  0  0
  160.8790  204.3200  146.3130 N   0  0  0  0  0  0  0  0  0  0  0  0
  161.5220  203.9480  147.4370 C   0  0  0  0  0  0  0  0  0  0  0  0
  163.0700  204.7950  146.2300 N   0  0  0  0  0  2  0  0  0  0  0  0
  161.5840  205.8310  143.2130 N   0  0  0  0  0  0  0  0  0  0  0  0
  161.7200  205.3880  144.2740 C   0  0  0  0  0  0  0  0  0  0  0  0
  161.1860  201.8530  148.7700 C   0  0  0  0  0  2  0  0  0  0  0  0
  160.4890  201.0190  147.7110 C   0  0  0  0  0  2  0  0  0  0  0  0
  161.4830  200.3790  146.8710 N   0  0  0  0  0  2  0  0  0  0  0  0
  160.8070  199.9900  145.6470 C   0  0  0  0  0  2  0  0  0  0  0  0
  160.0810  201.1860  145.0700 C   0  0  0  0  0  1  0  0  0  0  0  0
  1  4  2  0  0  0  0
  2 11  1  0  0  0  0
  3  1  1  0  0  0  0
  5 10  1  0  0  0  0
  6  7  1  0  0  0  0
  6  5  2  0  0  0  0
  7 12  1  0  0  0  0
  8 12  1  0  0  0  0
  8  3  1  0  0  0  0
  9 13  1  0  0  0  0
  9  7  2  0  0  0  0
 10  2  1  0  0  0  0
 11  4  1  0  0  0  0
 12  2  2  0  0  0  0
 13  8  2  0  0  0  0
 14 22  1  1  0  0  0
 14  6  1  0  0  0  0
 15 19  1  0  0  0  0
 15 17  2  0  0  0  0
 16 18  2  0  0  0  0
 17 18  1  0  0  0  0
 18 14  1  0  0  0  0
 19 16  1  0  0  0  0
 20 21  3  0  0  0  0
 21 15  1  0  0  0  0
 23 22  1  0  0  0  0
 24 23  1  0  0  0  0
 25 24  1  0  0  0  0
 26 25  1  0  0  0  0
M  END
>  <MODEL>
5

>  <REMARK>
 VINA RESULT:      -7.8      1.593      3.648
  Name = 
  7 active torsions:
  status: ('A' for Active; 'I' for Inactive)
    1  A    between atoms: C_5  and  C_25
    2  A    between atoms: C_7  and  N_20
    3  A    between atoms: C_8  and  C_16
    4  A    between atoms: C_11  and  C_15
    5  A    between atoms: C_11  and  C_16
    6  A    between atoms: C_15  and  N_20
    7  A    between atoms: C_16  and  C_21
                            x       y       z     vdW  Elec       q    Type
                         _______ _______ _______ _____ _____    ______ ____

>  <TORSDO>
F 7

$$$$
=
 OpenBabel11052409483D

 26 29  0  0  1  0  0  0  0  0999 V2000
  160.9800  205.1330  149.9080 C   0  0  0  0  0  3  0  0  0  0  0  0
  161.6650  207.9990  150.9420 C   0  0  0  0  0  0  0  0  0  0  0  0
  161.6150  204.8350  151.2420 C   0  0  0  0  0  2  0  0  0  0  0  0
  161.2060  206.2590  149.2080 C   0  0  0  0  0  3  0  0  0  0  0  0
  161.2050  209.9480  152.1890 C   0  0  0  0  0  3  0  0  0  0  0  0
  160.8440  209.2240  153.3500 C   0  0  0  0  0  0  0  0  0  0  0  0
  160.9180  207.8400  153.2570 C   0  0  0  0  0  0  0  0  0  0  0  0
  161.2620  205.8790  152.2540 C   0  0  0  0  0  0  0  0  0  0  0  0
  160.6340  206.8150  154.1410 C   0  0  0  0  0  3  0  0  0  0  0  0
  161.5910  209.3280  151.0590 O   0  0  0  0  0  0  0  0  0  0  0  0
  162.1270  207.3620  149.6640 C   0  0  0  0  0  2  0  0  0  0  0  0
  161.3350  207.2300  152.0490 C   0  0  0  0  0  0  0  0  0  0  0  0
  160.8510  205.6230  153.5190 N   0  0  0  0  0  0  0  0  0  0  0  0
  160.4140  209.8990  154.6170 C   0  0  1  0  0  3  0  0  0  0  0  0
  163.2490  210.7030  156.5800 C   0  0  0  0  0  0  0  0  0  0  0  0
  161.7530  209.1810  156.6200 N   0  0  0  0  0  0  0  0  0  0  0  0
  162.4750  210.9960  155.5190 N   0  0  0  0  0  0  0  0  0  0  0  0
  161.5550  210.0140  155.5820 C   0  0  0  0  0  0  0  0  0  0  0  0
  162.8290  209.6160  157.2520 N   0  0  0  0  0  2  0  0  0  0  0  0
  165.3300  212.0920  157.2610 N   0  0  0  0  0  0  0  0  0  0  0  0
  164.4010  211.4720  156.9570 C   0  0  0  0  0  0  0  0  0  0  0  0
  159.7680  211.2500  154.3320 C   0  0  0  0  0  2  0  0  0  0  0  0
  158.8920  211.6740  155.4960 C   0  0  0  0  0  2  0  0  0  0  0  0
  157.8310  210.7030  155.6800 N   0  0  0  0  0  2  0  0  0  0  0  0
  156.6290  211.2880  155.1150 C   0  0  0  0  0  2  0  0  0  0  0  0
  155.4610  210.3500  155.3310 C   0  0  0  0  0  1  0  0  0  0  0  0
  1  3  1  0  0  0  0
  2 10  1  0  0  0  0
  2 12  2  0  0  0  0
  3  8  1  0  0  0  0
  4 11  1  0  0  0  0
  4  1  2  0  0  0  0
  5  6  2  0  0  0  0
  6 14  1  0  0  0  0
  7  6  1  0  0  0  0
  7  9  2  0  0  0  0
  8 13  2  0  0  0  0
 10  5  1  0  0  0  0
 11  2  1  0  0  0  0
 12  8  1  0  0  0  0
 12  7  1  0  0  0  0
 13  9  1  0  0  0  0
 14 22  1  6  0  0  0
 14 18  1  0  0  0  0
 15 21  1  0  0  0  0
 15 19  1  0  0  0  0
 16 19  1  0  0  0  0
 17 18  1  0  0  0  0
 17 15  2  0  0  0  0
 18 16  2  0  0  0  0
 21 20  3  0  0  0  0
 22 23  1  0  0  0  0
 23 24  1  0  0  0  0
 25 26  1  0  0  0  0
 25 24  1  0  0  0  0
M  END
>  <MODEL>
6

>  <REMARK>
 VINA RESULT:      -7.5      3.687      8.695
  Name = 
  7 active torsions:
  status: ('A' for Active; 'I' for Inactive)
    1  A    between atoms: C_5  and  C_25
    2  A    between atoms: C_7  and  N_20
    3  A    between atoms: C_8  and  C_16
    4  A    between atoms: C_11  and  C_15
    5  A    between atoms: C_11  and  C_16
    6  A    between atoms: C_15  and  N_20
    7  A    between atoms: C_16  and  C_21
                            x       y       z     vdW  Elec       q    Type
                         _______ _______ _______ _____ _____    ______ ____

>  <TORSDO>
F 7

$$$$
=
 OpenBabel11052409483D

 26 29  0  0  1  0  0  0  0  0999 V2000
  162.3550  205.0670  146.7740 C   0  0  0  0  0  3  0  0  0  0  0  0
  161.0110  204.8740  149.5850 C   0  0  0  0  0  0  0  0  0  0  0  0
  161.7490  206.4390  146.9190 C   0  0  0  0  0  2  0  0  0  0  0  0
  161.9130  203.9810  147.4320 C   0  0  0  0  0  3  0  0  0  0  0  0
  160.9770  205.1860  151.9230 C   0  0  0  0  0  3  0  0  0  0  0  0
  161.4430  206.5200  151.8380 C   0  0  0  0  0  0  0  0  0  0  0  0
  161.6820  207.0050  150.5590 C   0  0  0  0  0  0  0  0  0  0  0  0
  161.8220  206.9130  148.3360 C   0  0  0  0  0  0  0  0  0  0  0  0
  162.1500  208.2140  150.0770 C   0  0  0  0  0  3  0  0  0  0  0  0
  160.7840  204.4320  150.8260 O   0  0  0  0  0  0  0  0  0  0  0  0
  160.7530  203.9960  148.3950 C   0  0  0  0  0  2  0  0  0  0  0  0
  161.4590  206.1780  149.4310 C   0  0  0  0  0  0  0  0  0  0  0  0
  162.2280  208.1480  148.7190 N   0  0  0  0  0  0  0  0  0  0  0  0
  161.6620  207.3740  153.0510 C   0  0  1  0  0  3  0  0  0  0  0  0
  160.1850  210.5450  152.5040 C   0  0  0  0  0  0  0  0  0  0  0  0
  162.1810  209.7920  152.5990 N   0  0  0  0  0  0  0  0  0  0  0  0
  160.0140  209.2300  152.7340 N   0  0  0  0  0  0  0  0  0  0  0  0
  161.2890  208.7990  152.7810 C   0  0  0  0  0  0  0  0  0  0  0  0
  161.4810  210.8990  152.4210 N   0  0  0  0  0  2  0  0  0  0  0  0
  158.2250  212.2240  152.2540 N   0  0  0  0  0  0  0  0  0  0  0  0
  159.1000  211.4740  152.3660 C   0  0  0  0  0  0  0  0  0  0  0  0
  160.9280  206.8110  154.2630 C   0  0  0  0  0  2  0  0  0  0  0  0
  161.1790  207.6780  155.4830 C   0  0  0  0  0  2  0  0  0  0  0  0
  159.9110  208.0400  156.0860 N   0  0  0  0  0  2  0  0  0  0  0  0
  159.9620  209.4690  156.3360 C   0  0  0  0  0  2  0  0  0  0  0  0
  161.4010  209.9370  156.3050 C   0  0  0  0  0  1  0  0  0  0  0  0
  1  3  1  0  0  0  0
  1  4  2  0  0  0  0
  2 10  1  0  0  0  0
  3  8  1  0  0  0  0
  4 11  1  0  0  0  0
  6  5  2  0  0  0  0
  6 14  1  0  0  0  0
  7  6  1  0  0  0  0
  8 13  2  0  0  0  0
  8 12  1  0  0  0  0
  9  7  2  0  0  0  0
 10  5  1  0  0  0  0
 11  2  1  0  0  0  0
 12  2  2  0  0  0  0
 12  7  1  0  0  0  0
 13  9  1  0  0  0  0
 14 22  1  1  0  0  0
 15 17  2  0  0  0  0
 16 18  2  0  0  0  0
 17 18  1  0  0  0  0
 18 14  1  0  0  0  0
 19 15  1  0  0  0  0
 19 16  1  0  0  0  0
 20 21  3  0  0  0  0
 21 15  1  0  0  0  0
 22 23  1  0  0  0  0
 23 24  1  0  0  0  0
 24 25  1  0  0  0  0
 26 25  1  0  0  0  0
M  END
>  <MODEL>
7

>  <REMARK>
 VINA RESULT:      -7.3      2.980      7.635
  Name = 
  7 active torsions:
  status: ('A' for Active; 'I' for Inactive)
    1  A    between atoms: C_5  and  C_25
    2  A    between atoms: C_7  and  N_20
    3  A    between atoms: C_8  and  C_16
    4  A    between atoms: C_11  and  C_15
    5  A    between atoms: C_11  and  C_16
    6  A    between atoms: C_15  and  N_20
    7  A    between atoms: C_16  and  C_21
                            x       y       z     vdW  Elec       q    Type
                         _______ _______ _______ _____ _____    ______ ____

>  <TORSDO>
F 7

$$$$
=
 OpenBabel11052409483D

 26 29  0  0  1  0  0  0  0  0999 V2000
  161.7590  202.3780  149.9080 C   0  0  0  0  0  3  0  0  0  0  0  0
  161.0250  204.5410  152.0370 C   0  0  0  0  0  0  0  0  0  0  0  0
  160.6970  203.1680  149.1880 C   0  0  0  0  0  2  0  0  0  0  0  0
  161.8760  202.3280  151.2460 C   0  0  0  0  0  3  0  0  0  0  0  0
  161.2150  206.6810  153.0090 C   0  0  0  0  0  3  0  0  0  0  0  0
  161.1090  207.3500  151.7670 C   0  0  0  0  0  0  0  0  0  0  0  0
  160.9490  206.5430  150.6480 C   0  0  0  0  0  0  0  0  0  0  0  0
  160.7860  204.6240  149.5240 C   0  0  0  0  0  0  0  0  0  0  0  0
  160.8340  206.8090  149.2960 C   0  0  0  0  0  3  0  0  0  0  0  0
  161.1710  205.3400  153.0980 O   0  0  0  0  0  0  0  0  0  0  0  0
  160.9560  203.0500  152.1980 C   0  0  0  0  0  2  0  0  0  0  0  0
  160.9020  205.1340  150.7880 C   0  0  0  0  0  0  0  0  0  0  0  0
  160.7320  205.6320  148.6200 N   0  0  0  0  0  0  0  0  0  0  0  0
  161.1540  208.8440  151.6510 C   0  0  1  0  0  3  0  0  0  0  0  0
  161.8370  210.2940  154.8080 C   0  0  0  0  0  0  0  0  0  0  0  0
  160.0910  209.9930  153.6180 N   0  0  0  0  0  0  0  0  0  0  0  0
  162.3060  209.6620  153.7160 N   0  0  0  0  0  0  0  0  0  0  0  0
  161.1770  209.4900  153.0020 C   0  0  0  0  0  0  0  0  0  0  0  0
  160.5090  210.5010  154.7640 N   0  0  0  0  0  2  0  0  0  0  0  0
  163.3380  211.0420  156.7860 N   0  0  0  0  0  0  0  0  0  0  0  0
  162.6680  210.7080  155.9020 C   0  0  0  0  0  0  0  0  0  0  0  0
  162.3220  209.2960  150.7810 C   0  0  0  0  0  2  0  0  0  0  0  0
  162.0210  210.6420  150.1490 C   0  0  0  0  0  2  0  0  0  0  0  0
  162.3270  210.5890  148.7330 N   0  0  0  0  0  2  0  0  0  0  0  0
  162.3590  211.9610  148.2610 C   0  0  0  0  0  2  0  0  0  0  0  0
  161.0970  212.2560  147.4790 C   0  0  0  0  0  1  0  0  0  0  0  0
  1  4  2  0  0  0  0
  2 11  1  0  0  0  0
  2 10  1  0  0  0  0
  3  8  1  0  0  0  0
  3  1  1  0  0  0  0
  4 11  1  0  0  0  0
  5 10  1  0  0  0  0
  6  5  2  0  0  0  0
  7 12  1  0  0  0  0
  7  6  1  0  0  0  0
  8 12  1  0  0  0  0
  9  7  2  0  0  0  0
 12  2  2  0  0  0  0
 13  9  1  0  0  0  0
 13  8  2  0  0  0  0
 14 22  1  6  0  0  0
 14  6  1  0  0  0  0
 14 18  1  0  0  0  0
 15 21  1  0  0  0  0
 16 19  1  0  0  0  0
 17 15  2  0  0  0  0
 18 16  2  0  0  0  0
 18 17  1  0  0  0  0
 19 15  1  0  0  0  0
 21 20  3  0  0  0  0
 23 22  1  0  0  0  0
 24 23  1  0  0  0  0
 25 24  1  0  0  0  0
 26 25  1  0  0  0  0
M  END
>  <MODEL>
8

>  <REMARK>
 VINA RESULT:      -7.3      2.540      7.018
  Name = 
  7 active torsions:
  status: ('A' for Active; 'I' for Inactive)
    1  A    between atoms: C_5  and  C_25
    2  A    between atoms: C_7  and  N_20
    3  A    between atoms: C_8  and  C_16
    4  A    between atoms: C_11  and  C_15
    5  A    between atoms: C_11  and  C_16
    6  A    between atoms: C_15  and  N_20
    7  A    between atoms: C_16  and  C_21
                            x       y       z     vdW  Elec       q    Type
                         _______ _______ _______ _____ _____    ______ ____

>  <TORSDO>
F 7

$$$$
=
 OpenBabel11052409483D

 26 29  0  0  1  0  0  0  0  0999 V2000
  160.2570  202.2490  145.6490 C   0  0  0  0  0  3  0  0  0  0  0  0
  161.9010  204.7470  146.5440 C   0  0  0  0  0  0  0  0  0  0  0  0
  160.9900  201.7180  146.8540 C   0  0  0  0  0  2  0  0  0  0  0  0
  160.6790  203.2960  144.9180 C   0  0  0  0  0  3  0  0  0  0  0  0
  162.2370  206.6840  147.8480 C   0  0  0  0  0  3  0  0  0  0  0  0
  161.8790  206.0380  149.0550 C   0  0  0  0  0  0  0  0  0  0  0  0
  161.5340  204.6970  148.9540 C   0  0  0  0  0  0  0  0  0  0  0  0
  161.1260  202.7690  147.9090 C   0  0  0  0  0  0  0  0  0  0  0  0
  161.1170  203.7530  149.8750 C   0  0  0  0  0  3  0  0  0  0  0  0
  162.2340  206.0350  146.6700 O   0  0  0  0  0  0  0  0  0  0  0  0
  161.9410  204.0680  145.2060 C   0  0  0  0  0  2  0  0  0  0  0  0
  161.5510  204.0510  147.6920 C   0  0  0  0  0  0  0  0  0  0  0  0
  160.8740  202.5800  149.2270 N   0  0  0  0  0  0  0  0  0  0  0  0
  161.8790  206.7460  150.3770 C   0  0  1  0  0  3  0  0  0  0  0  0
  162.0370  210.1310  149.3500 C   0  0  0  0  0  0  0  0  0  0  0  0
  162.2820  209.0880  151.1960 N   0  0  0  0  0  0  0  0  0  0  0  0
  161.8500  208.8420  149.0100 N   0  0  0  0  0  0  0  0  0  0  0  0
  162.0170  208.2260  150.1960 C   0  0  0  0  0  0  0  0  0  0  0  0
  162.2970  210.2950  150.6590 N   0  0  0  0  0  2  0  0  0  0  0  0
  161.9050  212.0910  147.6580 N   0  0  0  0  0  0  0  0  0  0  0  0
  161.9640  211.2160  148.4140 C   0  0  0  0  0  0  0  0  0  0  0  0
  160.6460  206.3830  151.1970 C   0  0  0  0  0  2  0  0  0  0  0  0
  161.0470  205.6220  152.4470 C   0  0  0  0  0  2  0  0  0  0  0  0
  161.8440  206.4830  153.3010 N   0  0  0  0  0  2  0  0  0  0  0  0
  160.9770  206.9170  154.3810 C   0  0  0  0  0  2  0  0  0  0  0  0
  160.7200  208.4030  154.2570 C   0  0  0  0  0  1  0  0  0  0  0  0
  1  3  1  0  0  0  0
  2 10  1  0  0  0  0
  2 12  2  0  0  0  0
  3  8  1  0  0  0  0
  4 11  1  0  0  0  0
  4  1  2  0  0  0  0
  5  6  2  0  0  0  0
  6 14  1  0  0  0  0
  7  6  1  0  0  0  0
  7  9  2  0  0  0  0
  8 13  2  0  0  0  0
 10  5  1  0  0  0  0
 11  2  1  0  0  0  0
 12  8  1  0  0  0  0
 12  7  1  0  0  0  0
 13  9  1  0  0  0  0
 14 22  1  6  0  0  0
 15 19  1  0  0  0  0
 17 15  2  0  0  0  0
 17 18  1  0  0  0  0
 18 14  1  0  0  0  0
 18 16  2  0  0  0  0
 19 16  1  0  0  0  0
 20 21  3  0  0  0  0
 21 15  1  0  0  0  0
 22 23  1  0  0  0  0
 23 24  1  0  0  0  0
 24 25  1  0  0  0  0
 26 25  1  0  0  0  0
M  END
>  <MODEL>
9

>  <REMARK>
 VINA RESULT:      -7.2      2.155      7.677
  Name = 
  7 active torsions:
  status: ('A' for Active; 'I' for Inactive)
    1  A    between atoms: C_5  and  C_25
    2  A    between atoms: C_7  and  N_20
    3  A    between atoms: C_8  and  C_16
    4  A    between atoms: C_11  and  C_15
    5  A    between atoms: C_11  and  C_16
    6  A    between atoms: C_15  and  N_20
    7  A    between atoms: C_16  and  C_21
                            x       y       z     vdW  Elec       q    Type
                         _______ _______ _______ _____ _____    ______ ____

>  <TORSDO>
F 7

$$$$
