=
 OpenBabel11042421503D

 42 47  0  0  1  0  0  0  0  0999 V2000
  161.0770  207.0440  152.7580 C   0  0  2  0  0  3  0  0  0  0  0  0
  162.0070  205.4710  151.1350 N   0  0  0  0  0  2  0  0  0  0  0  0
  160.9340  204.6650  153.1890 N   0  0  0  0  0  2  0  0  0  0  0  0
  160.8900  204.7450  151.7330 C   0  0  2  0  0  0  0  0  0  0  0  0
  161.7520  205.6760  152.5490 C   0  0  1  0  0  0  0  0  0  0  0  0
  161.2280  203.3150  151.3590 C   0  0  0  0  0  2  0  0  0  0  0  0
  160.3350  202.8520  150.2220 C   0  0  0  0  0  2  0  0  0  0  0  0
  160.8760  201.5580  149.6510 C   0  0  0  0  0  2  0  0  0  0  0  0
  161.7580  201.8520  148.5310 N   0  0  0  0  0  2  0  0  0  0  0  0
  160.9150  202.1650  147.3880 C   0  0  0  0  0  2  0  0  0  0  0  0
  161.3590  205.1170  143.6440 O   0  0  0  0  0  0  0  0  0  0  0  0
  161.5420  204.9030  144.8700 C   0  0  0  0  0  0  0  0  0  0  0  0
  161.9670  204.3340  147.5460 N   0  0  0  0  0  0  0  0  0  0  0  0
  161.3110  203.4840  146.8100 C   0  0  0  0  0  0  0  0  0  0  0  0
  162.3070  205.6910  147.1030 C   0  0  0  0  0  2  0  0  0  0  0  0
  160.9880  203.7800  145.4820 O   0  0  0  0  0  0  0  0  0  0  0  0
  162.3450  205.7870  145.6470 N   0  0  0  0  0  2  0  0  0  0  0  0
  160.7940  207.7520  151.4370 C   0  0  0  0  0  2  0  0  0  0  0  0
  161.1390  209.1580  151.5510 N   0  0  0  0  0  2  0  0  0  0  0  0
  162.0280  210.5090  148.5910 N   0  0  0  0  0  2  0  0  0  0  0  0
  162.2840  209.3920  150.6890 C   0  0  0  0  0  3  0  0  0  0  0  0
  161.6780  209.1580  148.4110 N   0  0  0  0  0  2  0  0  0  0  0  0
  162.1380  210.7360  150.0270 C   0  0  0  0  0  2  0  0  0  0  0  0
  162.2440  208.4330  149.5340 C   0  0  0  0  0  2  0  0  0  0  0  0
  161.9660  207.9660  153.5950 C   0  0  0  0  0  2  0  0  0  0  0  0
  159.4220  209.9820  156.5220 C   0  0  1  0  0  3  0  0  0  0  0  0
  159.3050  208.5140  156.2170 C   0  0  0  0  0  3  0  0  0  0  0  0
  160.1130  207.9210  155.3350 C   0  0  0  0  0  3  0  0  0  0  0  0
  161.1870  211.7440  156.7880 C   0  0  0  0  0  1  0  0  0  0  0  0
  161.5190  209.9020  155.1040 C   0  0  0  0  0  0  0  0  0  0  0  0
  160.7430  210.5100  156.1590 N   0  0  0  0  0  0  0  0  0  0  0  0
  161.2000  208.6630  154.6780 C   0  0  0  0  0  0  0  0  0  0  0  0
  162.6890  210.6370  154.5200 C   0  0  0  0  0  1  0  0  0  0  0  0
  157.7820  212.2410  153.9280 C   0  0  0  0  0  0  0  0  0  0  0  0
  156.2560  211.9470  155.8320 C   0  0  0  0  0  2  0  0  0  0  0  0
  156.7610  212.7250  154.6490 C   0  0  0  0  0  3  0  0  0  0  0  0
  158.4340  210.9470  154.3290 C   0  0  0  0  0  2  0  0  0  0  0  0
  157.3410  211.2360  156.4850 N   0  0  0  0  0  0  0  0  0  0  0  0
  158.3380  210.7470  155.8200 C   0  0  0  0  0  0  0  0  0  0  0  0
  158.2530  212.9160  152.8020 O   0  0  0  0  0  0  0  0  0  0  0  0
  159.0020  212.2970  151.8770 O   0  0  0  0  0  0  0  0  0  0  0  0
  159.8980  213.2750  151.4410 C   0  0  0  0  0  1  0  0  0  0  0  0
  1 18  1  6  0  0  0
  1 25  1  0  0  0  0
  2  4  1  0  0  0  0
  2  5  1  0  0  0  0
  4  6  1  1  0  0  0
  4  5  1  0  0  0  0
  4  3  1  0  0  0  0
  5  1  1  1  0  0  0
  5  3  1  0  0  0  0
  7  6  1  0  0  0  0
  8  7  1  0  0  0  0
  9  8  1  0  0  0  0
 10  9  1  0  0  0  0
 11 12  2  0  0  0  0
 12 16  1  0  0  0  0
 12 17  1  0  0  0  0
 14 10  1  0  0  0  0
 14 13  2  0  0  0  0
 15 13  1  0  0  0  0
 16 14  1  0  0  0  0
 17 15  1  0  0  0  0
 18 19  1  0  0  0  0
 20 23  1  0  0  0  0
 21 19  1  0  0  0  0
 22 20  1  0  0  0  0
 22 24  1  0  0  0  0
 23 21  1  0  0  0  0
 24 21  1  0  0  0  0
 25 32  1  0  0  0  0
 26 39  1  6  0  0  0
 27 26  1  0  0  0  0
 28 27  2  0  0  0  0
 30 31  1  0  0  0  0
 31 26  1  0  0  0  0
 31 29  1  0  0  0  0
 32 30  2  0  0  0  0
 32 28  1  0  0  0  0
 33 30  1  0  0  0  0
 34 37  1  0  0  0  0
 34 36  2  0  0  0  0
 35 38  1  0  0  0  0
 36 35  1  0  0  0  0
 37 39  1  0  0  0  0
 39 38  2  0  0  0  0
 40 34  1  0  0  0  0
 41 40  1  0  0  0  0
 42 41  1  0  0  0  0
M  END
>  <MODEL>
1

>  <REMARK>
 VINA RESULT:      -6.1      0.000      0.000
  Name = 
  15 active torsions:
  status: ('A' for Active; 'I' for Inactive)
    1  A    between atoms: C_2  and  C_39
    2  A    between atoms: N_3  and  C_8
    3  A    between atoms: N_3  and  C_16
    4  A    between atoms: C_5  and  O_32
    5  A    between atoms: N_6  and  C_15
    6  A    between atoms: N_6  and  C_17
    7  A    between atoms: C_8  and  C_21
    8  A    between atoms: C_10  and  C_13
    9  A    between atoms: C_10  and  C_34
   10  A    between atoms: C_13  and  C_16
   11  A    between atoms: C_17  and  C_26
   12  A    between atoms: C_26  and  C_30
   13  A    between atoms: C_26  and  C_37
   14  A    between atoms: C_27  and  C_30
   15  A    between atoms: O_31  and  O_32
                            x       y       z     vdW  Elec       q    Type
                         _______ _______ _______ _____ _____    ______ ____

>  <TORSDO>
F 15

$$$$
=
 OpenBabel11042421503D

 42 47  0  0  1  0  0  0  0  0999 V2000
  161.5950  208.9370  149.7420 C   0  0  2  0  0  3  0  0  0  0  0  0
  162.3240  208.0920  151.9160 N   0  0  0  0  0  2  0  0  0  0  0  0
  160.4530  207.0410  150.7270 N   0  0  0  0  0  2  0  0  0  0  0  0
  161.8160  206.9080  151.2280 C   0  0  2  0  0  0  0  0  0  0  0  0
  161.1670  208.2580  151.0570 C   0  0  1  0  0  0  0  0  0  0  0  0
  161.6020  205.9550  152.3880 C   0  0  0  0  0  2  0  0  0  0  0  0
  162.0760  204.5640  152.0110 C   0  0  0  0  0  2  0  0  0  0  0  0
  160.8980  203.6120  152.0160 C   0  0  0  0  0  2  0  0  0  0  0  0
  161.0660  202.6250  150.9590 N   0  0  0  0  0  2  0  0  0  0  0  0
  160.6340  203.2450  149.7160 C   0  0  0  0  0  2  0  0  0  0  0  0
  160.5400  202.2880  145.0250 O   0  0  0  0  0  0  0  0  0  0  0  0
  160.7740  201.8950  146.1970 C   0  0  0  0  0  0  0  0  0  0  0  0
  161.2110  201.0820  148.8080 N   0  0  0  0  0  0  0  0  0  0  0  0
  160.8890  202.3220  148.5710 C   0  0  0  0  0  0  0  0  0  0  0  0
  161.5810  200.1300  147.7550 C   0  0  0  0  0  2  0  0  0  0  0  0
  160.7600  202.7940  147.2620 O   0  0  0  0  0  0  0  0  0  0  0  0
  161.0290  200.5180  146.4610 N   0  0  0  0  0  2  0  0  0  0  0  0
  162.3380  207.9790  148.8170 C   0  0  0  0  0  2  0  0  0  0  0  0
  161.5980  207.8220  147.5780 N   0  0  0  0  0  2  0  0  0  0  0  0
  162.7980  205.0290  146.1150 N   0  0  0  0  0  2  0  0  0  0  0  0
  161.3330  206.4040  147.4110 C   0  0  0  0  0  3  0  0  0  0  0  0
  161.9280  205.6920  145.2310 N   0  0  0  0  0  2  0  0  0  0  0  0
  162.6370  205.6510  147.4240 C   0  0  0  0  0  2  0  0  0  0  0  0
  160.8050  206.1540  146.0280 C   0  0  0  0  0  2  0  0  0  0  0  0
  162.5210  210.1230  150.0190 C   0  0  0  0  0  2  0  0  0  0  0  0
  160.3570  213.7460  148.8810 C   0  0  1  0  0  3  0  0  0  0  0  0
  160.0980  213.0160  150.1710 C   0  0  0  0  0  3  0  0  0  0  0  0
  160.7930  211.9250  150.5020 C   0  0  0  0  0  3  0  0  0  0  0  0
  162.2740  214.3810  147.3950 C   0  0  0  0  0  1  0  0  0  0  0  0
  162.3380  212.1890  148.6310 C   0  0  0  0  0  0  0  0  0  0  0  0
  161.6890  213.4440  148.3420 N   0  0  0  0  0  0  0  0  0  0  0  0
  161.8900  211.4320  149.6540 C   0  0  0  0  0  0  0  0  0  0  0  0
  163.5220  211.7560  147.8180 C   0  0  0  0  0  1  0  0  0  0  0  0
  158.8230  212.6260  145.5770 C   0  0  0  0  0  0  0  0  0  0  0  0
  157.1020  213.7260  146.9420 C   0  0  0  0  0  2  0  0  0  0  0  0
  157.6640  213.2970  145.6160 C   0  0  0  0  0  3  0  0  0  0  0  0
  159.5650  212.3390  146.8530 C   0  0  0  0  0  2  0  0  0  0  0  0
  158.1650  214.0480  147.8760 N   0  0  0  0  0  0  0  0  0  0  0  0
  159.2940  213.4150  147.8750 C   0  0  0  0  0  0  0  0  0  0  0  0
  159.3580  212.1790  144.3690 O   0  0  0  0  0  0  0  0  0  0  0  0
  159.9490  213.0230  143.5090 O   0  0  0  0  0  0  0  0  0  0  0  0
  161.3150  212.8620  143.7450 C   0  0  0  0  0  1  0  0  0  0  0  0
  1 18  1  6  0  0  0
  1 25  1  0  0  0  0
  3  5  1  0  0  0  0
  3  4  1  0  0  0  0
  4  2  1  0  0  0  0
  4  6  1  1  0  0  0
  5  1  1  6  0  0  0
  5  4  1  0  0  0  0
  5  2  1  0  0  0  0
  7  8  1  0  0  0  0
  7  6  1  0  0  0  0
  9  8  1  0  0  0  0
 10  9  1  0  0  0  0
 11 12  2  0  0  0  0
 12 17  1  0  0  0  0
 12 16  1  0  0  0  0
 14 13  2  0  0  0  0
 14 10  1  0  0  0  0
 15 13  1  0  0  0  0
 16 14  1  0  0  0  0
 17 15  1  0  0  0  0
 19 18  1  0  0  0  0
 20 23  1  0  0  0  0
 21 23  1  0  0  0  0
 21 19  1  0  0  0  0
 22 24  1  0  0  0  0
 22 20  1  0  0  0  0
 24 21  1  0  0  0  0
 26 39  1  6  0  0  0
 26 27  1  0  0  0  0
 27 28  2  0  0  0  0
 29 31  1  0  0  0  0
 30 32  2  0  0  0  0
 31 30  1  0  0  0  0
 31 26  1  0  0  0  0
 32 25  1  0  0  0  0
 32 28  1  0  0  0  0
 33 30  1  0  0  0  0
 34 36  2  0  0  0  0
 34 37  1  0  0  0  0
 35 38  1  0  0  0  0
 36 35  1  0  0  0  0
 37 39  1  0  0  0  0
 39 38  2  0  0  0  0
 40 34  1  0  0  0  0
 41 42  1  0  0  0  0
 41 40  1  0  0  0  0
M  END
>  <MODEL>
2

>  <REMARK>
 VINA RESULT:      -6.0      3.799      5.960
  Name = 
  15 active torsions:
  status: ('A' for Active; 'I' for Inactive)
    1  A    between atoms: C_2  and  C_39
    2  A    between atoms: N_3  and  C_8
    3  A    between atoms: N_3  and  C_16
    4  A    between atoms: C_5  and  O_32
    5  A    between atoms: N_6  and  C_15
    6  A    between atoms: N_6  and  C_17
    7  A    between atoms: C_8  and  C_21
    8  A    between atoms: C_10  and  C_13
    9  A    between atoms: C_10  and  C_34
   10  A    between atoms: C_13  and  C_16
   11  A    between atoms: C_17  and  C_26
   12  A    between atoms: C_26  and  C_30
   13  A    between atoms: C_26  and  C_37
   14  A    between atoms: C_27  and  C_30
   15  A    between atoms: O_31  and  O_32
                            x       y       z     vdW  Elec       q    Type
                         _______ _______ _______ _____ _____    ______ ____

>  <TORSDO>
F 15

$$$$
=
 OpenBabel11042421503D

 42 47  0  0  1  0  0  0  0  0999 V2000
  159.0460  211.2760  152.7870 C   0  0  2  0  0  3  0  0  0  0  0  0
  157.9350  213.3380  152.0910 N   0  0  0  0  0  2  0  0  0  0  0  0
  160.0840  212.6780  151.1070 N   0  0  0  0  0  2  0  0  0  0  0  0
  158.6580  212.9040  150.8980 C   0  0  2  0  0  0  0  0  0  0  0  0
  159.2330  212.7180  152.2800 C   0  0  1  0  0  0  0  0  0  0  0  0
  158.6890  214.1840  150.0840 C   0  0  0  0  0  2  0  0  0  0  0  0
  158.2090  213.9110  148.6710 C   0  0  0  0  0  2  0  0  0  0  0  0
  159.2380  214.4170  147.6820 C   0  0  0  0  0  2  0  0  0  0  0  0
  160.0670  213.3080  147.2330 N   0  0  0  0  0  2  0  0  0  0  0  0
  159.4390  212.7510  146.0450 C   0  0  0  0  0  2  0  0  0  0  0  0
  160.6210  211.5030  141.5760 O   0  0  0  0  0  0  0  0  0  0  0  0
  160.9570  212.0290  142.6680 C   0  0  0  0  0  0  0  0  0  0  0  0
  161.6400  213.1170  145.1210 N   0  0  0  0  0  0  0  0  0  0  0  0
  160.4150  212.7270  144.9160 C   0  0  0  0  0  0  0  0  0  0  0  0
  162.6410  213.2270  144.0540 C   0  0  0  0  0  2  0  0  0  0  0  0
  160.0070  212.2680  143.6600 O   0  0  0  0  0  0  0  0  0  0  0  0
  162.3180  212.3630  142.9230 N   0  0  0  0  0  2  0  0  0  0  0  0
  157.7680  211.1170  153.6050 C   0  0  0  0  0  2  0  0  0  0  0  0
  158.0980  211.0170  155.0150 N   0  0  0  0  0  2  0  0  0  0  0  0
  155.7810  213.4650  154.8970 N   0  0  0  0  0  2  0  0  0  0  0  0
  156.9920  211.5930  155.7580 C   0  0  0  0  0  3  0  0  0  0  0  0
  156.9520  213.9480  155.5090 N   0  0  0  0  0  2  0  0  0  0  0  0
  155.9150  212.0170  154.7950 C   0  0  0  0  0  2  0  0  0  0  0  0
  157.4280  212.8890  156.3800 C   0  0  0  0  0  2  0  0  0  0  0  0
  160.2180  210.8560  153.6760 C   0  0  0  0  0  2  0  0  0  0  0  0
  162.4340  207.7600  151.5270 C   0  0  1  0  0  3  0  0  0  0  0  0
  162.6650  209.2300  151.3030 C   0  0  0  0  0  3  0  0  0  0  0  0
  161.9890  210.1520  151.9920 C   0  0  0  0  0  3  0  0  0  0  0  0
  161.9510  206.1650  153.4010 C   0  0  0  0  0  1  0  0  0  0  0  0
  160.9900  208.4910  153.4760 C   0  0  0  0  0  0  0  0  0  0  0  0
  161.8200  207.4990  152.8350 N   0  0  0  0  0  0  0  0  0  0  0  0
  161.0420  209.7710  153.0520 C   0  0  0  0  0  0  0  0  0  0  0  0
  160.1090  208.0990  154.6240 C   0  0  0  0  0  1  0  0  0  0  0  0
  160.6520  205.1400  149.4100 C   0  0  0  0  0  0  0  0  0  0  0  0
  160.6950  207.2760  148.1960 C   0  0  0  0  0  2  0  0  0  0  0  0
  160.6160  205.7750  148.2310 C   0  0  0  0  0  3  0  0  0  0  0  0
  160.8070  205.9290  150.6810 C   0  0  0  0  0  2  0  0  0  0  0  0
  161.5340  207.7760  149.2700 N   0  0  0  0  0  0  0  0  0  0  0  0
  161.5870  207.1940  150.4260 C   0  0  0  0  0  0  0  0  0  0  0  0
  160.5440  203.7510  149.4850 O   0  0  0  0  0  0  0  0  0  0  0  0
  161.2320  202.9490  148.6580 O   0  0  0  0  0  0  0  0  0  0  0  0
  160.7180  201.6740  148.8990 C   0  0  0  0  0  1  0  0  0  0  0  0
  1 18  1  1  0  0  0
  1 25  1  0  0  0  0
  2  5  1  0  0  0  0
  3  5  1  0  0  0  0
  4  6  1  1  0  0  0
  4  3  1  0  0  0  0
  4  2  1  0  0  0  0
  4  5  1  0  0  0  0
  5  1  1  1  0  0  0
  7  6  1  0  0  0  0
  8  7  1  0  0  0  0
  9  8  1  0  0  0  0
 10  9  1  0  0  0  0
 11 12  2  0  0  0  0
 12 17  1  0  0  0  0
 12 16  1  0  0  0  0
 14 13  2  0  0  0  0
 14 10  1  0  0  0  0
 15 13  1  0  0  0  0
 16 14  1  0  0  0  0
 17 15  1  0  0  0  0
 18 19  1  0  0  0  0
 19 21  1  0  0  0  0
 20 22  1  0  0  0  0
 21 24  1  0  0  0  0
 22 24  1  0  0  0  0
 23 20  1  0  0  0  0
 23 21  1  0  0  0  0
 26 39  1  6  0  0  0
 26 31  1  0  0  0  0
 27 26  1  0  0  0  0
 27 28  2  0  0  0  0
 28 32  1  0  0  0  0
 30 33  1  0  0  0  0
 31 29  1  0  0  0  0
 31 30  1  0  0  0  0
 32 30  2  0  0  0  0
 32 25  1  0  0  0  0
 34 40  1  0  0  0  0
 34 37  1  0  0  0  0
 35 36  1  0  0  0  0
 35 38  1  0  0  0  0
 36 34  2  0  0  0  0
 38 39  2  0  0  0  0
 39 37  1  0  0  0  0
 41 42  1  0  0  0  0
 41 40  1  0  0  0  0
M  END
>  <MODEL>
3

>  <REMARK>
 VINA RESULT:      -5.8      3.442      8.293
  Name = 
  15 active torsions:
  status: ('A' for Active; 'I' for Inactive)
    1  A    between atoms: C_2  and  C_39
    2  A    between atoms: N_3  and  C_8
    3  A    between atoms: N_3  and  C_16
    4  A    between atoms: C_5  and  O_32
    5  A    between atoms: N_6  and  C_15
    6  A    between atoms: N_6  and  C_17
    7  A    between atoms: C_8  and  C_21
    8  A    between atoms: C_10  and  C_13
    9  A    between atoms: C_10  and  C_34
   10  A    between atoms: C_13  and  C_16
   11  A    between atoms: C_17  and  C_26
   12  A    between atoms: C_26  and  C_30
   13  A    between atoms: C_26  and  C_37
   14  A    between atoms: C_27  and  C_30
   15  A    between atoms: O_31  and  O_32
                            x       y       z     vdW  Elec       q    Type
                         _______ _______ _______ _____ _____    ______ ____

>  <TORSDO>
F 15

$$$$
=
 OpenBabel11042421503D

 42 47  0  0  1  0  0  0  0  0999 V2000
  160.4050  211.8360  153.8750 C   0  0  2  0  0  3  0  0  0  0  0  0
  161.9540  210.2670  154.9300 N   0  0  0  0  0  2  0  0  0  0  0  0
  159.5640  209.7390  154.7480 N   0  0  0  0  0  2  0  0  0  0  0  0
  160.9270  209.4110  154.3430 C   0  0  2  0  0  0  0  0  0  0  0  0
  160.5850  210.7480  154.9500 C   0  0  1  0  0  0  0  0  0  0  0  0
  161.1460  208.1160  155.1020 C   0  0  0  0  0  2  0  0  0  0  0  0
  161.0140  206.9340  154.1590 C   0  0  0  0  0  2  0  0  0  0  0  0
  161.3700  207.3690  152.7530 C   0  0  0  0  0  2  0  0  0  0  0  0
  162.1240  206.3130  152.0940 N   0  0  0  0  0  2  0  0  0  0  0  0
  161.1900  205.2400  151.7890 C   0  0  0  0  0  2  0  0  0  0  0  0
  161.2680  202.3080  148.0040 O   0  0  0  0  0  0  0  0  0  0  0  0
  161.2210  203.4830  148.4520 C   0  0  0  0  0  0  0  0  0  0  0  0
  161.1800  206.0410  149.5100 N   0  0  0  0  0  0  0  0  0  0  0  0
  161.1330  205.0180  150.3140 C   0  0  0  0  0  0  0  0  0  0  0  0
  161.0270  205.9320  148.0550 C   0  0  0  0  0  2  0  0  0  0  0  0
  161.0490  203.7150  149.8150 O   0  0  0  0  0  0  0  0  0  0  0  0
  161.3730  204.5980  147.5770 N   0  0  0  0  0  2  0  0  0  0  0  0
  159.4920  212.9630  154.3450 C   0  0  0  0  0  2  0  0  0  0  0  0
  159.1740  212.7820  155.7500 N   0  0  0  0  0  2  0  0  0  0  0  0
  156.1590  211.3010  156.0540 N   0  0  0  0  0  2  0  0  0  0  0  0
  157.7610  213.0700  155.9130 C   0  0  0  0  0  3  0  0  0  0  0  0
  156.4440  211.5230  154.6940 N   0  0  0  0  0  2  0  0  0  0  0  0
  157.1480  212.0420  156.8270 C   0  0  0  0  0  2  0  0  0  0  0  0
  157.0500  212.8400  154.6110 C   0  0  0  0  0  2  0  0  0  0  0  0
  159.7940  211.2460  152.6020 C   0  0  0  0  0  2  0  0  0  0  0  0
  160.6050  213.4220  148.8990 C   0  0  1  0  0  3  0  0  0  0  0  0
  159.7950  214.0050  150.0240 C   0  0  0  0  0  3  0  0  0  0  0  0
  159.5850  213.3250  151.1530 C   0  0  0  0  0  3  0  0  0  0  0  0
  162.6360  211.9920  148.5460 C   0  0  0  0  0  1  0  0  0  0  0  0
  161.1380  211.5520  150.5220 C   0  0  0  0  0  0  0  0  0  0  0  0
  161.4840  212.3410  149.3640 N   0  0  0  0  0  0  0  0  0  0  0  0
  160.1970  212.0060  151.3750 C   0  0  0  0  0  0  0  0  0  0  0  0
  161.8510  210.2580  150.7830 C   0  0  0  0  0  1  0  0  0  0  0  0
  159.4920  212.4180  145.3950 C   0  0  0  0  0  0  0  0  0  0  0  0
  157.5180  212.6620  146.8380 C   0  0  0  0  0  2  0  0  0  0  0  0
  158.1770  212.6600  145.4870 C   0  0  0  0  0  3  0  0  0  0  0  0
  160.2990  212.1840  146.6420 C   0  0  0  0  0  2  0  0  0  0  0  0
  158.4260  213.1560  147.8570 N   0  0  0  0  0  0  0  0  0  0  0  0
  159.7000  212.9320  147.8070 C   0  0  0  0  0  0  0  0  0  0  0  0
  160.1310  212.3710  144.1560 O   0  0  0  0  0  0  0  0  0  0  0  0
  161.1690  213.1730  143.8730 O   0  0  0  0  0  0  0  0  0  0  0  0
  161.9290  212.4510  142.9530 C   0  0  0  0  0  1  0  0  0  0  0  0
  1 25  1  6  0  0  0
  1 18  1  0  0  0  0
  2  5  1  0  0  0  0
  3  5  1  0  0  0  0
  4  3  1  0  0  0  0
  4  2  1  0  0  0  0
  4  5  1  0  0  0  0
  4  6  1  1  0  0  0
  5  1  1  6  0  0  0
  7  6  1  0  0  0  0
  8  7  1  0  0  0  0
  9  8  1  0  0  0  0
 10  9  1  0  0  0  0
 11 12  2  0  0  0  0
 12 16  1  0  0  0  0
 13 14  2  0  0  0  0
 14 10  1  0  0  0  0
 15 13  1  0  0  0  0
 16 14  1  0  0  0  0
 17 15  1  0  0  0  0
 17 12  1  0  0  0  0
 18 19  1  0  0  0  0
 19 21  1  0  0  0  0
 20 23  1  0  0  0  0
 21 23  1  0  0  0  0
 22 20  1  0  0  0  0
 24 22  1  0  0  0  0
 24 21  1  0  0  0  0
 26 39  1  6  0  0  0
 26 31  1  0  0  0  0
 26 27  1  0  0  0  0
 27 28  2  0  0  0  0
 28 32  1  0  0  0  0
 29 31  1  0  0  0  0
 30 33  1  0  0  0  0
 30 32  2  0  0  0  0
 31 30  1  0  0  0  0
 32 25  1  0  0  0  0
 34 36  2  0  0  0  0
 34 37  1  0  0  0  0
 35 38  1  0  0  0  0
 36 35  1  0  0  0  0
 37 39  1  0  0  0  0
 39 38  2  0  0  0  0
 40 34  1  0  0  0  0
 41 40  1  0  0  0  0
 42 41  1  0  0  0  0
M  END
>  <MODEL>
4

>  <REMARK>
 VINA RESULT:      -5.8      3.184      6.780
  Name = 
  15 active torsions:
  status: ('A' for Active; 'I' for Inactive)
    1  A    between atoms: C_2  and  C_39
    2  A    between atoms: N_3  and  C_8
    3  A    between atoms: N_3  and  C_16
    4  A    between atoms: C_5  and  O_32
    5  A    between atoms: N_6  and  C_15
    6  A    between atoms: N_6  and  C_17
    7  A    between atoms: C_8  and  C_21
    8  A    between atoms: C_10  and  C_13
    9  A    between atoms: C_10  and  C_34
   10  A    between atoms: C_13  and  C_16
   11  A    between atoms: C_17  and  C_26
   12  A    between atoms: C_26  and  C_30
   13  A    between atoms: C_26  and  C_37
   14  A    between atoms: C_27  and  C_30
   15  A    between atoms: O_31  and  O_32
                            x       y       z     vdW  Elec       q    Type
                         _______ _______ _______ _____ _____    ______ ____

>  <TORSDO>
F 15

$$$$
=
 OpenBabel11042421503D

 42 47  0  0  1  0  0  0  0  0999 V2000
  161.2810  209.6230  152.8870 C   0  0  2  0  0  3  0  0  0  0  0  0
  161.8420  207.5900  154.1210 N   0  0  0  0  0  2  0  0  0  0  0  0
  160.4480  207.4880  152.1050 N   0  0  0  0  0  2  0  0  0  0  0  0
  161.7160  207.1410  152.7370 C   0  0  2  0  0  0  0  0  0  0  0  0
  160.8190  208.2140  153.3030 C   0  0  1  0  0  0  0  0  0  0  0  0
  161.5440  205.6460  152.9210 C   0  0  0  0  0  2  0  0  0  0  0  0
  161.8580  204.9240  151.6240 C   0  0  0  0  0  2  0  0  0  0  0  0
  161.3450  203.5010  151.7020 C   0  0  0  0  0  2  0  0  0  0  0  0
  160.4390  203.2490  150.5910 N   0  0  0  0  0  2  0  0  0  0  0  0
  161.0120  202.1710  149.8010 C   0  0  0  0  0  2  0  0  0  0  0  0
  160.3070  201.1410  145.1780 O   0  0  0  0  0  0  0  0  0  0  0  0
  160.7090  201.9560  146.0470 C   0  0  0  0  0  0  0  0  0  0  0  0
  161.6310  203.6740  148.0140 N   0  0  0  0  0  0  0  0  0  0  0  0
  161.0510  202.5610  148.3610 C   0  0  0  0  0  0  0  0  0  0  0  0
  161.6290  204.1910  146.6410 C   0  0  0  0  0  2  0  0  0  0  0  0
  160.4830  201.7170  147.4010 O   0  0  0  0  0  0  0  0  0  0  0  0
  161.4310  203.1250  145.6650 N   0  0  0  0  0  2  0  0  0  0  0  0
  161.9080  210.3870  154.0480 C   0  0  0  0  0  2  0  0  0  0  0  0
  160.8720  211.0660  154.8050 N   0  0  0  0  0  2  0  0  0  0  0  0
  162.3540  209.2280  157.2150 N   0  0  0  0  0  2  0  0  0  0  0  0
  161.3120  211.1190  156.1880 C   0  0  0  0  0  3  0  0  0  0  0  0
  160.9610  209.0370  157.2600 N   0  0  0  0  0  2  0  0  0  0  0  0
  162.6030  210.3570  156.3260 C   0  0  0  0  0  2  0  0  0  0  0  0
  160.3580  210.3400  157.0470 C   0  0  0  0  0  2  0  0  0  0  0  0
  160.1020  210.4510  152.3730 C   0  0  0  0  0  2  0  0  0  0  0  0
  160.9320  213.2980  149.1610 C   0  0  1  0  0  3  0  0  0  0  0  0
  160.1930  213.6790  150.4150 C   0  0  0  0  0  3  0  0  0  0  0  0
  159.9760  212.7920  151.3890 C   0  0  0  0  0  3  0  0  0  0  0  0
  162.8600  211.8650  148.4390 C   0  0  0  0  0  1  0  0  0  0  0  0
  161.3990  211.1070  150.3440 C   0  0  0  0  0  0  0  0  0  0  0  0
  161.7570  212.0990  149.3590 N   0  0  0  0  0  0  0  0  0  0  0  0
  160.5130  211.4250  151.3110 C   0  0  0  0  0  0  0  0  0  0  0  0
  162.0390  209.7510  150.3060 C   0  0  0  0  0  1  0  0  0  0  0  0
  159.7110  212.6490  145.6100 C   0  0  0  0  0  0  0  0  0  0  0  0
  157.8440  213.4780  146.9740 C   0  0  0  0  0  2  0  0  0  0  0  0
  158.5260  213.2730  145.6510 C   0  0  0  0  0  3  0  0  0  0  0  0
  160.3620  212.1930  146.8870 C   0  0  0  0  0  2  0  0  0  0  0  0
  158.8160  213.6860  148.0320 N   0  0  0  0  0  0  0  0  0  0  0  0
  159.9670  213.0920  148.0310 C   0  0  0  0  0  0  0  0  0  0  0  0
  160.3570  212.4070  144.3970 O   0  0  0  0  0  0  0  0  0  0  0  0
  159.6960  211.9150  143.3380 O   0  0  0  0  0  0  0  0  0  0  0  0
  160.6710  211.7840  142.3480 C   0  0  0  0  0  1  0  0  0  0  0  0
  1 25  1  1  0  0  0
  1 18  1  0  0  0  0
  3  4  1  0  0  0  0
  3  5  1  0  0  0  0
  4  6  1  1  0  0  0
  4  5  1  0  0  0  0
  4  2  1  0  0  0  0
  5  1  1  6  0  0  0
  5  2  1  0  0  0  0
  7  8  1  0  0  0  0
  7  6  1  0  0  0  0
  9  8  1  0  0  0  0
 10  9  1  0  0  0  0
 11 12  2  0  0  0  0
 12 16  1  0  0  0  0
 13 14  2  0  0  0  0
 14 10  1  0  0  0  0
 15 13  1  0  0  0  0
 16 14  1  0  0  0  0
 17 12  1  0  0  0  0
 17 15  1  0  0  0  0
 18 19  1  0  0  0  0
 19 21  1  0  0  0  0
 20 22  1  0  0  0  0
 21 23  1  0  0  0  0
 21 24  1  0  0  0  0
 23 20  1  0  0  0  0
 24 22  1  0  0  0  0
 26 39  1  6  0  0  0
 26 31  1  0  0  0  0
 26 27  1  0  0  0  0
 27 28  2  0  0  0  0
 29 31  1  0  0  0  0
 30 32  2  0  0  0  0
 31 30  1  0  0  0  0
 32 28  1  0  0  0  0
 32 25  1  0  0  0  0
 33 30  1  0  0  0  0
 34 36  2  0  0  0  0
 34 37  1  0  0  0  0
 35 38  1  0  0  0  0
 36 35  1  0  0  0  0
 37 39  1  0  0  0  0
 39 38  2  0  0  0  0
 40 34  1  0  0  0  0
 41 40  1  0  0  0  0
 42 41  1  0  0  0  0
M  END
>  <MODEL>
5

>  <REMARK>
 VINA RESULT:      -5.6      3.055      5.990
  Name = 
  15 active torsions:
  status: ('A' for Active; 'I' for Inactive)
    1  A    between atoms: C_2  and  C_39
    2  A    between atoms: N_3  and  C_8
    3  A    between atoms: N_3  and  C_16
    4  A    between atoms: C_5  and  O_32
    5  A    between atoms: N_6  and  C_15
    6  A    between atoms: N_6  and  C_17
    7  A    between atoms: C_8  and  C_21
    8  A    between atoms: C_10  and  C_13
    9  A    between atoms: C_10  and  C_34
   10  A    between atoms: C_13  and  C_16
   11  A    between atoms: C_17  and  C_26
   12  A    between atoms: C_26  and  C_30
   13  A    between atoms: C_26  and  C_37
   14  A    between atoms: C_27  and  C_30
   15  A    between atoms: O_31  and  O_32
                            x       y       z     vdW  Elec       q    Type
                         _______ _______ _______ _____ _____    ______ ____

>  <TORSDO>
F 15

$$$$
=
 OpenBabel11042421503D

 42 47  0  0  1  0  0  0  0  0999 V2000
  161.9640  208.4840  149.6340 C   0  0  2  0  0  3  0  0  0  0  0  0
  162.6010  209.2840  151.8540 N   0  0  0  0  0  2  0  0  0  0  0  0
  160.4590  208.1410  151.5000 N   0  0  0  0  0  2  0  0  0  0  0  0
  161.7770  208.1090  152.1240 C   0  0  2  0  0  0  0  0  0  0  0  0
  161.4670  209.0430  150.9810 C   0  0  1  0  0  0  0  0  0  0  0  0
  161.4100  208.3270  153.5790 C   0  0  0  0  0  2  0  0  0  0  0  0
  160.9810  207.0140  154.2080 C   0  0  0  0  0  2  0  0  0  0  0  0
  160.6400  207.2410  155.6660 C   0  0  0  0  0  2  0  0  0  0  0  0
  161.1270  208.5480  156.0810 N   0  0  0  0  0  2  0  0  0  0  0  0
  160.0890  209.1580  156.8960 C   0  0  0  0  0  2  0  0  0  0  0  0
  157.5810  211.9110  153.8850 O   0  0  0  0  0  0  0  0  0  0  0  0
  158.4660  211.8220  154.7750 C   0  0  0  0  0  0  0  0  0  0  0  0
  160.4430  211.5390  156.6940 N   0  0  0  0  0  0  0  0  0  0  0  0
  159.7360  210.5010  156.3490 C   0  0  0  0  0  0  0  0  0  0  0  0
  160.1110  212.9110  156.2920 C   0  0  0  0  0  2  0  0  0  0  0  0
  158.6630  210.6250  155.4610 O   0  0  0  0  0  0  0  0  0  0  0  0
  159.3040  212.9350  155.0780 N   0  0  0  0  0  2  0  0  0  0  0  0
  162.3290  209.5930  148.6530 C   0  0  0  0  0  2  0  0  0  0  0  0
  161.6380  210.8170  149.0180 N   0  0  0  0  0  2  0  0  0  0  0  0
  162.8860  213.8070  148.0780 N   0  0  0  0  0  2  0  0  0  0  0  0
  161.7350  211.7200  147.8850 C   0  0  0  0  0  3  0  0  0  0  0  0
  161.5890  213.9750  148.5970 N   0  0  0  0  0  2  0  0  0  0  0  0
  163.0900  212.3750  147.8880 C   0  0  0  0  0  2  0  0  0  0  0  0
  160.7940  212.8730  148.0840 C   0  0  0  0  0  2  0  0  0  0  0  0
  160.8890  207.6190  148.9750 C   0  0  0  0  0  2  0  0  0  0  0  0
  162.2610  203.8450  147.2480 C   0  0  1  0  0  3  0  0  0  0  0  0
  162.7030  205.1850  146.7290 C   0  0  0  0  0  3  0  0  0  0  0  0
  162.2860  206.3210  147.2930 C   0  0  0  0  0  3  0  0  0  0  0  0
  161.7630  202.7080  149.4280 C   0  0  0  0  0  1  0  0  0  0  0  0
  161.2230  205.1520  149.1530 C   0  0  0  0  0  0  0  0  0  0  0  0
  161.7850  203.9280  148.6350 N   0  0  0  0  0  0  0  0  0  0  0  0
  161.4330  206.3090  148.4920 C   0  0  0  0  0  0  0  0  0  0  0  0
  160.4430  205.1320  150.4350 C   0  0  0  0  0  1  0  0  0  0  0  0
  160.2510  201.2110  145.3640 C   0  0  0  0  0  0  0  0  0  0  0  0
  159.6740  203.4410  144.5090 C   0  0  0  0  0  2  0  0  0  0  0  0
  159.7880  201.9510  144.3470 C   0  0  0  0  0  3  0  0  0  0  0  0
  160.6840  201.8790  146.6400 C   0  0  0  0  0  2  0  0  0  0  0  0
  160.7310  203.9520  145.3630 N   0  0  0  0  0  0  0  0  0  0  0  0
  161.1960  203.2700  146.3610 C   0  0  0  0  0  0  0  0  0  0  0  0
  160.3360  199.8220  145.2650 O   0  0  0  0  0  0  0  0  0  0  0  0
  161.2110  199.1200  146.0010 O   0  0  0  0  0  0  0  0  0  0  0  0
  161.5310  198.0180  145.2070 C   0  0  0  0  0  1  0  0  0  0  0  0
  1 18  1  6  0  0  0
  2  4  1  0  0  0  0
  3  4  1  0  0  0  0
  4  6  1  1  0  0  0
  5  1  1  6  0  0  0
  5  3  1  0  0  0  0
  5  2  1  0  0  0  0
  5  4  1  0  0  0  0
  6  7  1  0  0  0  0
  7  8  1  0  0  0  0
  8  9  1  0  0  0  0
  9 10  1  0  0  0  0
 11 12  2  0  0  0  0
 12 17  1  0  0  0  0
 12 16  1  0  0  0  0
 14 13  2  0  0  0  0
 14 10  1  0  0  0  0
 15 13  1  0  0  0  0
 16 14  1  0  0  0  0
 17 15  1  0  0  0  0
 18 19  1  0  0  0  0
 20 22  1  0  0  0  0
 21 23  1  0  0  0  0
 21 24  1  0  0  0  0
 21 19  1  0  0  0  0
 23 20  1  0  0  0  0
 24 22  1  0  0  0  0
 25  1  1  0  0  0  0
 26 39  1  6  0  0  0
 26 31  1  0  0  0  0
 27 26  1  0  0  0  0
 27 28  2  0  0  0  0
 28 32  1  0  0  0  0
 30 33  1  0  0  0  0
 31 30  1  0  0  0  0
 31 29  1  0  0  0  0
 32 25  1  0  0  0  0
 32 30  2  0  0  0  0
 34 37  1  0  0  0  0
 35 38  1  0  0  0  0
 36 35  1  0  0  0  0
 36 34  2  0  0  0  0
 38 39  2  0  0  0  0
 39 37  1  0  0  0  0
 40 34  1  0  0  0  0
 40 41  1  0  0  0  0
 42 41  1  0  0  0  0
M  END
>  <MODEL>
6

>  <REMARK>
 VINA RESULT:      -5.5      2.202      9.969
  Name = 
  15 active torsions:
  status: ('A' for Active; 'I' for Inactive)
    1  A    between atoms: C_2  and  C_39
    2  A    between atoms: N_3  and  C_8
    3  A    between atoms: N_3  and  C_16
    4  A    between atoms: C_5  and  O_32
    5  A    between atoms: N_6  and  C_15
    6  A    between atoms: N_6  and  C_17
    7  A    between atoms: C_8  and  C_21
    8  A    between atoms: C_10  and  C_13
    9  A    between atoms: C_10  and  C_34
   10  A    between atoms: C_13  and  C_16
   11  A    between atoms: C_17  and  C_26
   12  A    between atoms: C_26  and  C_30
   13  A    between atoms: C_26  and  C_37
   14  A    between atoms: C_27  and  C_30
   15  A    between atoms: O_31  and  O_32
                            x       y       z     vdW  Elec       q    Type
                         _______ _______ _______ _____ _____    ______ ____

>  <TORSDO>
F 15

$$$$
=
 OpenBabel11042421503D

 42 47  0  0  1  0  0  0  0  0999 V2000
  161.5330  208.5220  149.7050 C   0  0  2  0  0  3  0  0  0  0  0  0
  161.2300  206.4620  150.9840 N   0  0  0  0  0  2  0  0  0  0  0  0
  162.3400  208.4070  151.9860 N   0  0  0  0  0  2  0  0  0  0  0  0
  161.1850  207.5160  151.9940 C   0  0  2  0  0  0  0  0  0  0  0  0
  162.1050  207.6050  150.8030 C   0  0  1  0  0  0  0  0  0  0  0  0
  161.4420  206.7270  153.2630 C   0  0  0  0  0  2  0  0  0  0  0  0
  160.5960  207.2780  154.3960 C   0  0  0  0  0  2  0  0  0  0  0  0
  161.5010  207.8510  155.4670 C   0  0  0  0  0  2  0  0  0  0  0  0
  161.0360  209.1800  155.8360 N   0  0  0  0  0  2  0  0  0  0  0  0
  159.6770  209.3180  155.3350 C   0  0  0  0  0  2  0  0  0  0  0  0
  156.1560  212.5610  155.4380 O   0  0  0  0  0  0  0  0  0  0  0  0
  157.3860  212.3090  155.5120 C   0  0  0  0  0  0  0  0  0  0  0  0
  160.0820  211.6840  155.6070 N   0  0  0  0  0  0  0  0  0  0  0  0
  159.2080  210.7230  155.5170 C   0  0  0  0  0  0  0  0  0  0  0  0
  159.7230  213.0780  155.8890 C   0  0  0  0  0  2  0  0  0  0  0  0
  157.8360  210.9910  155.5700 O   0  0  0  0  0  0  0  0  0  0  0  0
  158.3430  213.3650  155.5100 N   0  0  0  0  0  2  0  0  0  0  0  0
  161.2060  207.7540  148.4290 C   0  0  0  0  0  2  0  0  0  0  0  0
  162.3750  207.0160  147.9870 N   0  0  0  0  0  2  0  0  0  0  0  0
  161.7820  205.4900  145.0380 N   0  0  0  0  0  2  0  0  0  0  0  0
  161.9060  205.7700  147.4090 C   0  0  0  0  0  3  0  0  0  0  0  0
  160.6300  206.1810  145.4560 N   0  0  0  0  0  2  0  0  0  0  0  0
  162.7030  205.4680  146.1680 C   0  0  0  0  0  2  0  0  0  0  0  0
  160.5110  205.9560  146.8850 C   0  0  0  0  0  2  0  0  0  0  0  0
  162.5330  209.6200  149.3390 C   0  0  0  0  0  2  0  0  0  0  0  0
  160.4630  213.4580  149.6410 C   0  0  1  0  0  3  0  0  0  0  0  0
  160.3650  212.3960  150.7010 C   0  0  0  0  0  3  0  0  0  0  0  0
  161.0290  211.2420  150.5920 C   0  0  0  0  0  3  0  0  0  0  0  0
  162.1570  214.4530  148.0830 C   0  0  0  0  0  1  0  0  0  0  0  0
  162.2710  211.9990  148.6320 C   0  0  0  0  0  0  0  0  0  0  0  0
  161.6690  213.2970  148.8190 N   0  0  0  0  0  0  0  0  0  0  0  0
  161.9420  210.9910  149.4660 C   0  0  0  0  0  0  0  0  0  0  0  0
  163.2780  211.7930  147.5400 C   0  0  0  0  0  1  0  0  0  0  0  0
  158.3470  213.5820  146.4740 C   0  0  0  0  0  0  0  0  0  0  0  0
  156.8970  213.8860  148.4340 C   0  0  0  0  0  2  0  0  0  0  0  0
  157.2030  214.0690  146.9740 C   0  0  0  0  0  3  0  0  0  0  0  0
  159.3260  212.8910  147.3820 C   0  0  0  0  0  2  0  0  0  0  0  0
  158.1130  213.9170  149.2270 N   0  0  0  0  0  0  0  0  0  0  0  0
  159.2340  213.4470  148.7800 C   0  0  0  0  0  0  0  0  0  0  0  0
  158.6480  213.6990  145.1170 O   0  0  0  0  0  0  0  0  0  0  0  0
  159.8710  213.4140  144.6440 O   0  0  0  0  0  0  0  0  0  0  0  0
  159.7110  212.2040  143.9670 C   0  0  0  0  0  1  0  0  0  0  0  0
  1 18  1  6  0  0  0
  2  4  1  0  0  0  0
  3  4  1  0  0  0  0
  4  6  1  1  0  0  0
  5  1  1  6  0  0  0
  5  2  1  0  0  0  0
  5  3  1  0  0  0  0
  5  4  1  0  0  0  0
  6  7  1  0  0  0  0
  7  8  1  0  0  0  0
  8  9  1  0  0  0  0
 10 14  1  0  0  0  0
 10  9  1  0  0  0  0
 11 12  2  0  0  0  0
 12 16  1  0  0  0  0
 13 15  1  0  0  0  0
 14 16  1  0  0  0  0
 14 13  2  0  0  0  0
 17 12  1  0  0  0  0
 17 15  1  0  0  0  0
 19 18  1  0  0  0  0
 20 22  1  0  0  0  0
 20 23  1  0  0  0  0
 21 19  1  0  0  0  0
 22 24  1  0  0  0  0
 23 21  1  0  0  0  0
 24 21  1  0  0  0  0
 25 32  1  0  0  0  0
 25  1  1  0  0  0  0
 26 39  1  6  0  0  0
 26 27  1  0  0  0  0
 28 27  2  0  0  0  0
 29 31  1  0  0  0  0
 30 31  1  0  0  0  0
 30 32  2  0  0  0  0
 31 26  1  0  0  0  0
 32 28  1  0  0  0  0
 33 30  1  0  0  0  0
 34 36  2  0  0  0  0
 34 37  1  0  0  0  0
 35 38  1  0  0  0  0
 36 35  1  0  0  0  0
 37 39  1  0  0  0  0
 39 38  2  0  0  0  0
 40 34  1  0  0  0  0
 41 40  1  0  0  0  0
 42 41  1  0  0  0  0
M  END
>  <MODEL>
7

>  <REMARK>
 VINA RESULT:      -5.4      3.058      7.954
  Name = 
  15 active torsions:
  status: ('A' for Active; 'I' for Inactive)
    1  A    between atoms: C_2  and  C_39
    2  A    between atoms: N_3  and  C_8
    3  A    between atoms: N_3  and  C_16
    4  A    between atoms: C_5  and  O_32
    5  A    between atoms: N_6  and  C_15
    6  A    between atoms: N_6  and  C_17
    7  A    between atoms: C_8  and  C_21
    8  A    between atoms: C_10  and  C_13
    9  A    between atoms: C_10  and  C_34
   10  A    between atoms: C_13  and  C_16
   11  A    between atoms: C_17  and  C_26
   12  A    between atoms: C_26  and  C_30
   13  A    between atoms: C_26  and  C_37
   14  A    between atoms: C_27  and  C_30
   15  A    between atoms: O_31  and  O_32
                            x       y       z     vdW  Elec       q    Type
                         _______ _______ _______ _____ _____    ______ ____

>  <TORSDO>
F 15

$$$$
=
 OpenBabel11042421503D

 42 47  0  0  1  0  0  0  0  0999 V2000
  162.2340  209.3500  151.2520 C   0  0  2  0  0  3  0  0  0  0  0  0
  160.3840  210.4570  152.4020 N   0  0  0  0  0  2  0  0  0  0  0  0
  161.6710  208.6880  153.5120 N   0  0  0  0  0  2  0  0  0  0  0  0
  161.3060  210.1000  153.4760 C   0  0  2  0  0  0  0  0  0  0  0  0
  161.1000  209.2000  152.2830 C   0  0  1  0  0  0  0  0  0  0  0  0
  160.4020  210.1920  154.6900 C   0  0  0  0  0  2  0  0  0  0  0  0
  161.1450  210.8450  155.8410 C   0  0  0  0  0  2  0  0  0  0  0  0
  160.2050  211.7700  156.5870 C   0  0  0  0  0  2  0  0  0  0  0  0
  160.0810  213.0250  155.8610 N   0  0  0  0  0  2  0  0  0  0  0  0
  158.8090  213.6200  156.2390 C   0  0  0  0  0  2  0  0  0  0  0  0
  157.8830  214.1250  151.5680 O   0  0  0  0  0  0  0  0  0  0  0  0
  157.4580  213.8820  152.7270 C   0  0  0  0  0  0  0  0  0  0  0  0
  156.5870  213.4150  155.3140 N   0  0  0  0  0  0  0  0  0  0  0  0
  157.8600  213.5680  155.0880 C   0  0  0  0  0  0  0  0  0  0  0  0
  155.5920  213.2490  154.2480 C   0  0  0  0  0  2  0  0  0  0  0  0
  158.3480  213.7030  153.7850 O   0  0  0  0  0  0  0  0  0  0  0  0
  156.0580  213.8140  152.9860 N   0  0  0  0  0  2  0  0  0  0  0  0
  161.7480  209.9800  149.9510 C   0  0  0  0  0  2  0  0  0  0  0  0
  162.4960  211.1950  149.6850 N   0  0  0  0  0  2  0  0  0  0  0  0
  162.1230  213.6810  147.4360 N   0  0  0  0  0  2  0  0  0  0  0  0
  162.4050  211.4550  148.2600 C   0  0  0  0  0  3  0  0  0  0  0  0
  160.8600  213.1960  147.8220 N   0  0  0  0  0  2  0  0  0  0  0  0
  163.1170  212.7430  147.9440 C   0  0  0  0  0  2  0  0  0  0  0  0
  160.9790  211.7510  147.8960 C   0  0  0  0  0  2  0  0  0  0  0  0
  162.8380  207.9870  150.9070 C   0  0  0  0  0  2  0  0  0  0  0  0
  160.0810  205.0050  149.2930 C   0  0  1  0  0  3  0  0  0  0  0  0
  160.0150  205.4880  150.7160 C   0  0  0  0  0  3  0  0  0  0  0  0
  160.8560  206.4180  151.1730 C   0  0  0  0  0  3  0  0  0  0  0  0
  160.5230  205.8950  146.9900 C   0  0  0  0  0  1  0  0  0  0  0  0
  161.7660  206.8650  148.9540 C   0  0  0  0  0  0  0  0  0  0  0  0
  160.7680  205.9670  148.4230 N   0  0  0  0  0  0  0  0  0  0  0  0
  161.8360  207.0630  150.2860 C   0  0  0  0  0  0  0  0  0  0  0  0
  162.6880  207.5920  148.0200 C   0  0  0  0  0  1  0  0  0  0  0  0
  161.2450  201.6820  147.8330 C   0  0  0  0  0  0  0  0  0  0  0  0
  161.5310  201.6440  150.2730 C   0  0  0  0  0  2  0  0  0  0  0  0
  161.3370  200.9520  148.9530 C   0  0  0  0  0  3  0  0  0  0  0  0
  161.3020  203.1830  147.9110 C   0  0  0  0  0  2  0  0  0  0  0  0
  160.8530  202.9280  150.2910 N   0  0  0  0  0  0  0  0  0  0  0  0
  160.7530  203.6650  149.2310 C   0  0  0  0  0  0  0  0  0  0  0  0
  161.1020  201.0740  146.5860 O   0  0  0  0  0  0  0  0  0  0  0  0
  160.7920  201.7860  145.4910 O   0  0  0  0  0  0  0  0  0  0  0  0
  159.7610  201.0660  144.8870 C   0  0  0  0  0  1  0  0  0  0  0  0
  1 18  1  6  0  0  0
  2  4  1  0  0  0  0
  4  3  1  0  0  0  0
  4  6  1  1  0  0  0
  5  1  1  6  0  0  0
  5  2  1  0  0  0  0
  5  4  1  0  0  0  0
  5  3  1  0  0  0  0
  6  7  1  0  0  0  0
  7  8  1  0  0  0  0
  9 10  1  0  0  0  0
  9  8  1  0  0  0  0
 11 12  2  0  0  0  0
 12 17  1  0  0  0  0
 12 16  1  0  0  0  0
 14 13  2  0  0  0  0
 14 10  1  0  0  0  0
 15 13  1  0  0  0  0
 16 14  1  0  0  0  0
 17 15  1  0  0  0  0
 19 18  1  0  0  0  0
 20 22  1  0  0  0  0
 20 23  1  0  0  0  0
 21 19  1  0  0  0  0
 22 24  1  0  0  0  0
 23 21  1  0  0  0  0
 24 21  1  0  0  0  0
 25  1  1  0  0  0  0
 26 39  1  1  0  0  0
 26 27  1  0  0  0  0
 27 28  2  0  0  0  0
 29 31  1  0  0  0  0
 30 32  2  0  0  0  0
 31 30  1  0  0  0  0
 31 26  1  0  0  0  0
 32 25  1  0  0  0  0
 32 28  1  0  0  0  0
 33 30  1  0  0  0  0
 34 37  1  0  0  0  0
 34 36  2  0  0  0  0
 35 38  1  0  0  0  0
 36 35  1  0  0  0  0
 37 39  1  0  0  0  0
 39 38  2  0  0  0  0
 40 34  1  0  0  0  0
 41 40  1  0  0  0  0
 42 41  1  0  0  0  0
M  END
>  <MODEL>
8

>  <REMARK>
 VINA RESULT:      -5.0      2.059      9.631
  Name = 
  15 active torsions:
  status: ('A' for Active; 'I' for Inactive)
    1  A    between atoms: C_2  and  C_39
    2  A    between atoms: N_3  and  C_8
    3  A    between atoms: N_3  and  C_16
    4  A    between atoms: C_5  and  O_32
    5  A    between atoms: N_6  and  C_15
    6  A    between atoms: N_6  and  C_17
    7  A    between atoms: C_8  and  C_21
    8  A    between atoms: C_10  and  C_13
    9  A    between atoms: C_10  and  C_34
   10  A    between atoms: C_13  and  C_16
   11  A    between atoms: C_17  and  C_26
   12  A    between atoms: C_26  and  C_30
   13  A    between atoms: C_26  and  C_37
   14  A    between atoms: C_27  and  C_30
   15  A    between atoms: O_31  and  O_32
                            x       y       z     vdW  Elec       q    Type
                         _______ _______ _______ _____ _____    ______ ____

>  <TORSDO>
F 15

$$$$
=
 OpenBabel11042421503D

 42 47  0  0  1  0  0  0  0  0999 V2000
  160.8620  209.2880  152.2200 C   0  0  2  0  0  3  0  0  0  0  0  0
  161.5860  210.1150  150.0370 N   0  0  0  0  0  2  0  0  0  0  0  0
  162.4220  207.9790  150.9090 N   0  0  0  0  0  2  0  0  0  0  0  0
  161.6240  208.6610  149.8960 C   0  0  2  0  0  0  0  0  0  0  0  0
  162.0050  209.3380  151.1890 C   0  0  1  0  0  0  0  0  0  0  0  0
  162.5130  208.5020  148.6770 C   0  0  0  0  0  2  0  0  0  0  0  0
  162.6760  207.0300  148.3440 C   0  0  0  0  0  2  0  0  0  0  0  0
  161.7160  206.6550  147.2350 C   0  0  0  0  0  2  0  0  0  0  0  0
  160.6540  205.8190  147.7730 N   0  0  0  0  0  2  0  0  0  0  0  0
  161.0740  204.4340  147.6220 C   0  0  0  0  0  2  0  0  0  0  0  0
  161.1570  204.5270  152.4100 O   0  0  0  0  0  0  0  0  0  0  0  0
  161.0950  203.8520  151.3490 C   0  0  0  0  0  0  0  0  0  0  0  0
  161.0210  202.4330  148.9730 N   0  0  0  0  0  0  0  0  0  0  0  0
  161.0020  203.7340  148.9390 C   0  0  0  0  0  0  0  0  0  0  0  0
  160.8500  201.6550  150.2060 C   0  0  0  0  0  2  0  0  0  0  0  0
  160.9350  204.4840  150.1170 O   0  0  0  0  0  0  0  0  0  0  0  0
  161.2150  202.4330  151.3860 N   0  0  0  0  0  2  0  0  0  0  0  0
  160.5310  210.6680  152.7780 C   0  0  0  0  0  2  0  0  0  0  0  0
  159.2360  211.0990  152.2820 N   0  0  0  0  0  2  0  0  0  0  0  0
  157.8990  213.8300  150.8220 N   0  0  0  0  0  2  0  0  0  0  0  0
  159.2060  212.5490  152.3600 C   0  0  0  0  0  3  0  0  0  0  0  0
  159.1130  213.5010  150.1930 N   0  0  0  0  0  2  0  0  0  0  0  0
  157.8170  213.0330  152.0400 C   0  0  0  0  0  2  0  0  0  0  0  0
  160.0360  213.1260  151.2490 C   0  0  0  0  0  2  0  0  0  0  0  0
  161.2330  208.3890  153.4000 C   0  0  0  0  0  2  0  0  0  0  0  0
  160.3170  210.5260  157.1010 C   0  0  1  0  0  3  0  0  0  0  0  0
  159.5560  209.3080  156.6560 C   0  0  0  0  0  3  0  0  0  0  0  0
  159.8750  208.6620  155.5320 C   0  0  0  0  0  3  0  0  0  0  0  0
  162.6650  211.4100  157.1290 C   0  0  0  0  0  1  0  0  0  0  0  0
  161.9010  209.9820  155.2010 C   0  0  0  0  0  0  0  0  0  0  0  0
  161.6480  210.5920  156.4840 N   0  0  0  0  0  0  0  0  0  0  0  0
  161.0310  209.0710  154.7180 C   0  0  0  0  0  0  0  0  0  0  0  0
  163.1410  210.3380  154.4360 C   0  0  0  0  0  1  0  0  0  0  0  0
  157.3000  212.7110  156.2980 C   0  0  0  0  0  0  0  0  0  0  0  0
  159.3600  213.9800  155.8700 C   0  0  0  0  0  2  0  0  0  0  0  0
  157.9000  213.7080  155.6340 C   0  0  0  0  0  3  0  0  0  0  0  0
  158.0960  211.8550  157.2440 C   0  0  0  0  0  2  0  0  0  0  0  0
  160.0780  212.7490  156.1480 N   0  0  0  0  0  0  0  0  0  0  0  0
  159.5330  211.7690  156.7950 C   0  0  0  0  0  0  0  0  0  0  0  0
  155.9390  212.4530  156.1350 O   0  0  0  0  0  0  0  0  0  0  0  0
  155.4610  211.2000  156.1190 O   0  0  0  0  0  0  0  0  0  0  0  0
  155.2980  210.9040  154.7650 C   0  0  0  0  0  1  0  0  0  0  0  0
  1 18  1  1  0  0  0
  1 25  1  0  0  0  0
  2  5  1  0  0  0  0
  3  5  1  0  0  0  0
  4  6  1  6  0  0  0
  4  2  1  0  0  0  0
  4  3  1  0  0  0  0
  4  5  1  0  0  0  0
  5  1  1  1  0  0  0
  7  6  1  0  0  0  0
  8  9  1  0  0  0  0
  8  7  1  0  0  0  0
 10  9  1  0  0  0  0
 10 14  1  0  0  0  0
 12 17  1  0  0  0  0
 12 11  2  0  0  0  0
 13 15  1  0  0  0  0
 14 13  2  0  0  0  0
 14 16  1  0  0  0  0
 15 17  1  0  0  0  0
 16 12  1  0  0  0  0
 19 21  1  0  0  0  0
 19 18  1  0  0  0  0
 20 23  1  0  0  0  0
 22 20  1  0  0  0  0
 22 24  1  0  0  0  0
 23 21  1  0  0  0  0
 24 21  1  0  0  0  0
 25 32  1  0  0  0  0
 26 39  1  6  0  0  0
 27 26  1  0  0  0  0
 28 27  2  0  0  0  0
 30 31  1  0  0  0  0
 31 26  1  0  0  0  0
 31 29  1  0  0  0  0
 32 30  2  0  0  0  0
 32 28  1  0  0  0  0
 33 30  1  0  0  0  0
 34 37  1  0  0  0  0
 35 38  1  0  0  0  0
 36 35  1  0  0  0  0
 36 34  2  0  0  0  0
 38 39  2  0  0  0  0
 39 37  1  0  0  0  0
 40 34  1  0  0  0  0
 41 40  1  0  0  0  0
 42 41  1  0  0  0  0
M  END
>  <MODEL>
9

>  <REMARK>
 VINA RESULT:      -5.0      2.454      4.157
  Name = 
  15 active torsions:
  status: ('A' for Active; 'I' for Inactive)
    1  A    between atoms: C_2  and  C_39
    2  A    between atoms: N_3  and  C_8
    3  A    between atoms: N_3  and  C_16
    4  A    between atoms: C_5  and  O_32
    5  A    between atoms: N_6  and  C_15
    6  A    between atoms: N_6  and  C_17
    7  A    between atoms: C_8  and  C_21
    8  A    between atoms: C_10  and  C_13
    9  A    between atoms: C_10  and  C_34
   10  A    between atoms: C_13  and  C_16
   11  A    between atoms: C_17  and  C_26
   12  A    between atoms: C_26  and  C_30
   13  A    between atoms: C_26  and  C_37
   14  A    between atoms: C_27  and  C_30
   15  A    between atoms: O_31  and  O_32
                            x       y       z     vdW  Elec       q    Type
                         _______ _______ _______ _____ _____    ______ ____

>  <TORSDO>
F 15

$$$$
