=
 OpenBabel11042420273D

 31 35  0  0  1  0  0  0  0  0999 V2000
  162.2770  209.2560  151.0540 C   0  0  2  0  0  3  0  0  0  0  0  0
  161.7480  208.3090  152.5500 S   0  0  0  0  0  0  0  0  0  0  0  0
  161.5470  210.5190  151.0240 N   0  0  0  0  0  2  0  0  0  0  0  0
  160.6220  210.6210  152.0890 C   0  0  2  0  0  3  0  0  0  0  0  0
  160.1510  211.8820  152.7290 C   0  0  2  0  0  3  0  0  0  0  0  0
  160.6230  209.6320  152.9310 C   0  0  2  0  0  3  0  0  0  0  0  0
  159.8290  211.3880  154.0850 C   0  0  1  0  0  3  0  0  0  0  0  0
  158.0740  212.7350  153.3450 C   0  0  0  0  0  2  0  0  0  0  0  0
  158.5620  211.9610  154.5650 C   0  0  0  0  0  2  0  0  0  0  0  0
  160.1680  210.1050  154.2250 C   0  0  1  0  0  3  0  0  0  0  0  0
  158.8770  212.3340  152.1800 N   0  0  1  0  0  0  0  0  0  0  0  0
  158.4200  213.4560  150.1000 C   0  0  0  0  0  2  0  0  0  0  0  0
  157.9230  214.2130  151.1750 O   0  0  0  0  0  0  0  0  0  0  0  0
  159.1360  213.5330  151.3950 C   0  0  1  0  0  3  0  0  0  0  0  0
  159.7080  209.2270  155.2600 N   0  0  0  0  0  2  0  0  0  0  0  0
  160.4990  208.7470  156.3540 C   0  0  0  0  0  0  0  0  0  0  0  0
  159.9410  208.0740  157.2610 O   0  0  0  0  0  0  0  0  0  0  0  0
  161.9880  208.9310  156.3720 C   0  0  0  0  0  2  0  0  0  0  0  0
  161.5760  211.1120  157.2610 O   0  0  0  0  0  1  0  0  0  0  0  0
  163.6020  210.8280  156.2250 O   0  0  0  0  0  0  0  0  0  0  0  0
  162.3720  210.3470  156.6550 C   0  0  0  0  0  0  0  0  0  0  0  0
  161.9740  208.4790  149.8170 C   0  0  0  0  0  3  0  0  0  0  0  0
  161.5440  207.2740  149.8980 N   0  0  0  0  0  0  0  0  0  0  0  0
  161.2600  206.5340  148.6990 C   0  0  0  0  0  2  0  0  0  0  0  0
  161.0650  202.7750  148.2830 C   0  0  0  0  0  3  0  0  0  0  0  0
  160.9010  203.3050  150.6420 C   0  0  0  0  0  0  0  0  0  0  0  0
  161.1810  204.1370  147.9850 C   0  0  0  0  0  3  0  0  0  0  0  0
  160.7590  202.8830  151.9930 N   0  0  0  0  0  1  0  0  0  0  0  0
  161.1570  205.0830  149.0150 C   0  0  0  0  0  0  0  0  0  0  0  0
  160.9240  202.3600  149.6110 C   0  0  0  0  0  3  0  0  0  0  0  0
  161.0130  204.6660  150.3440 C   0  0  0  0  0  3  0  0  0  0  0  0
  1 22  1  6  0  0  0
  1  2  1  0  0  0  0
  2  6  1  0  0  0  0
  3  1  1  0  0  0  0
  4  3  1  1  0  0  0
  4  5  1  0  0  0  0
  4  6  1  0  0  0  0
  5  7  1  0  0  0  0
  6 10  1  0  0  0  0
  7 10  1  0  0  0  0
  7  9  1  0  0  0  0
  8  9  1  0  0  0  0
 10 15  1  0  0  0  0
 11  5  1  0  0  0  0
 11  8  1  0  0  0  0
 12 13  1  0  0  0  0
 12 14  1  0  0  0  0
 13 14  1  0  0  0  0
 14 11  1  0  0  0  0
 15 16  1  0  0  0  0
 16 18  1  0  0  0  0
 16 17  2  0  0  0  0
 18 21  1  0  0  0  0
 20 21  2  0  0  0  0
 21 19  1  0  0  0  0
 22 23  2  0  0  0  0
 24 29  1  0  0  0  0
 24 23  1  0  0  0  0
 25 30  1  0  0  0  0
 26 28  1  0  0  0  0
 27 25  2  0  0  0  0
 27 29  1  0  0  0  0
 29 31  2  0  0  0  0
 30 26  2  0  0  0  0
 31 26  1  0  0  0  0
M  END
>  <MODEL>
1

>  <REMARK>
 VINA RESULT:      -7.4      0.000      0.000
  Name = 
  7 active torsions:
  status: ('A' for Active; 'I' for Inactive)
    1  A    between atoms: C_1  and  C_15
    2  A    between atoms: C_6  and  C_16
    3  A    between atoms: C_6  and  N_21
    4  A    between atoms: N_13  and  C_27
    5  A    between atoms: C_14  and  C_28
    6  A    between atoms: C_24  and  N_31
    7  A    between atoms: C_28  and  C_29
                            x       y       z     vdW  Elec       q    Type
                         _______ _______ _______ _____ _____    ______ ____

>  <TORSDO>
F 7

$$$$
=
 OpenBabel11042420273D

 31 35  0  0  1  0  0  0  0  0999 V2000
  162.2930  209.2270  150.9960 C   0  0  2  0  0  3  0  0  0  0  0  0
  161.7040  208.4450  152.5640 S   0  0  0  0  0  0  0  0  0  0  0  0
  161.6450  210.5280  150.8560 N   0  0  0  0  0  2  0  0  0  0  0  0
  160.7280  210.7770  151.9030 C   0  0  2  0  0  3  0  0  0  0  0  0
  160.3380  212.1150  152.4320 C   0  0  2  0  0  3  0  0  0  0  0  0
  160.6650  209.8650  152.8260 C   0  0  2  0  0  3  0  0  0  0  0  0
  159.9840  211.7590  153.8230 C   0  0  1  0  0  3  0  0  0  0  0  0
  158.3190  213.1480  152.9620 C   0  0  0  0  0  2  0  0  0  0  0  0
  158.7560  212.4490  154.2460 C   0  0  0  0  0  2  0  0  0  0  0  0
  160.2410  210.4730  154.0720 C   0  0  1  0  0  3  0  0  0  0  0  0
  159.0960  212.5990  151.8390 N   0  0  1  0  0  0  0  0  0  0  0  0
  159.1220  213.3520  149.5530 C   0  0  0  0  0  2  0  0  0  0  0  0
  158.2610  214.1590  150.3160 O   0  0  0  0  0  0  0  0  0  0  0  0
  159.4310  213.7080  150.9580 C   0  0  1  0  0  3  0  0  0  0  0  0
  159.7250  209.7170  155.1740 N   0  0  0  0  0  2  0  0  0  0  0  0
  160.4880  209.2650  156.3010 C   0  0  0  0  0  0  0  0  0  0  0  0
  159.8890  208.7100  157.2600 O   0  0  0  0  0  0  0  0  0  0  0  0
  161.9870  209.3360  156.2990 C   0  0  0  0  0  2  0  0  0  0  0  0
  163.7190  210.8930  156.8380 O   0  0  0  0  0  0  0  0  0  0  0  0
  161.5800  211.6020  157.2600 O   0  0  0  0  0  1  0  0  0  0  0  0
  162.4840  210.6520  156.8030 C   0  0  0  0  0  0  0  0  0  0  0  0
  161.9410  208.3690  149.8270 C   0  0  0  0  0  3  0  0  0  0  0  0
  161.1770  207.3520  149.9780 N   0  0  0  0  0  0  0  0  0  0  0  0
  160.8490  206.5300  148.8450 C   0  0  0  0  0  2  0  0  0  0  0  0
  160.6840  203.4080  150.9830 C   0  0  0  0  0  3  0  0  0  0  0  0
  160.9530  202.7500  148.6660 C   0  0  0  0  0  0  0  0  0  0  0  0
  160.6870  204.7540  150.6010 C   0  0  0  0  0  3  0  0  0  0  0  0
  161.0880  201.7330  147.6810 N   0  0  0  0  0  1  0  0  0  0  0  0
  160.8240  205.0980  149.2520 C   0  0  0  0  0  0  0  0  0  0  0  0
  160.8180  202.4070  150.0150 C   0  0  0  0  0  3  0  0  0  0  0  0
  160.9610  204.0950  148.2850 C   0  0  0  0  0  3  0  0  0  0  0  0
  1 22  1  6  0  0  0
  1  2  1  0  0  0  0
  2  6  1  0  0  0  0
  3  1  1  0  0  0  0
  4  3  1  1  0  0  0
  4  5  1  0  0  0  0
  4  6  1  0  0  0  0
  5  7  1  0  0  0  0
  6 10  1  0  0  0  0
  7 10  1  0  0  0  0
  7  9  1  0  0  0  0
  8  9  1  0  0  0  0
 10 15  1  0  0  0  0
 11  5  1  0  0  0  0
 11  8  1  0  0  0  0
 12 13  1  0  0  0  0
 12 14  1  0  0  0  0
 13 14  1  0  0  0  0
 14 11  1  0  0  0  0
 15 16  1  0  0  0  0
 16 17  2  0  0  0  0
 18 16  1  0  0  0  0
 18 21  1  0  0  0  0
 21 19  2  0  0  0  0
 21 20  1  0  0  0  0
 22 23  2  0  0  0  0
 24 29  1  0  0  0  0
 24 23  1  0  0  0  0
 26 30  1  0  0  0  0
 27 25  1  0  0  0  0
 28 26  1  0  0  0  0
 29 27  2  0  0  0  0
 30 25  2  0  0  0  0
 31 26  2  0  0  0  0
 31 29  1  0  0  0  0
M  END
>  <MODEL>
2

>  <REMARK>
 VINA RESULT:      -7.4      0.932      1.395
  Name = 
  7 active torsions:
  status: ('A' for Active; 'I' for Inactive)
    1  A    between atoms: C_1  and  C_15
    2  A    between atoms: C_6  and  C_16
    3  A    between atoms: C_6  and  N_21
    4  A    between atoms: N_13  and  C_27
    5  A    between atoms: C_14  and  C_28
    6  A    between atoms: C_24  and  N_31
    7  A    between atoms: C_28  and  C_29
                            x       y       z     vdW  Elec       q    Type
                         _______ _______ _______ _____ _____    ______ ____

>  <TORSDO>
F 7

$$$$
=
 OpenBabel11042420273D

 31 35  0  0  1  0  0  0  0  0999 V2000
  161.9900  205.4310  152.6430 C   0  0  2  0  0  3  0  0  0  0  0  0
  160.9690  205.9930  154.0770 S   0  0  0  0  0  0  0  0  0  0  0  0
  162.2470  206.5800  151.7800 N   0  0  0  0  0  2  0  0  0  0  0  0
  161.6020  207.7480  152.2480 C   0  0  2  0  0  3  0  0  0  0  0  0
  162.0520  209.1510  152.0270 C   0  0  2  0  0  3  0  0  0  0  0  0
  160.9610  207.6250  153.3710 C   0  0  2  0  0  3  0  0  0  0  0  0
  161.4830  209.8050  153.2250 C   0  0  1  0  0  3  0  0  0  0  0  0
  161.0130  211.1250  151.3600 C   0  0  0  0  0  2  0  0  0  0  0  0
  160.8820  211.1030  152.8800 C   0  0  0  0  0  2  0  0  0  0  0  0
  160.9140  208.9120  154.0390 C   0  0  1  0  0  3  0  0  0  0  0  0
  161.3730  209.7760  150.8980 N   0  0  1  0  0  0  0  0  0  0  0  0
  162.0030  209.0290  148.6980 C   0  0  0  0  0  2  0  0  0  0  0  0
  161.6940  210.4000  148.6710 O   0  0  0  0  0  0  0  0  0  0  0  0
  162.3460  209.9270  149.8260 C   0  0  1  0  0  3  0  0  0  0  0  0
  159.9920  209.2120  155.0940 N   0  0  0  0  0  2  0  0  0  0  0  0
  160.3530  209.5940  156.4270 C   0  0  0  0  0  0  0  0  0  0  0  0
  159.4450  209.9440  157.2270 O   0  0  0  0  0  0  0  0  0  0  0  0
  161.7670  209.4680  156.9130 C   0  0  0  0  0  2  0  0  0  0  0  0
  163.7240  210.8410  156.9440 O   0  0  0  0  0  0  0  0  0  0  0  0
  161.7230  211.9610  157.0030 O   0  0  0  0  0  1  0  0  0  0  0  0
  162.4660  210.7880  156.9450 C   0  0  0  0  0  0  0  0  0  0  0  0
  161.2610  204.3830  151.8690 C   0  0  0  0  0  3  0  0  0  0  0  0
  161.5440  204.1730  150.6370 N   0  0  0  0  0  0  0  0  0  0  0  0
  160.8310  203.1650  149.9020 C   0  0  0  0  0  2  0  0  0  0  0  0
  161.1260  202.4190  146.2010 C   0  0  0  0  0  3  0  0  0  0  0  0
  161.7860  204.7190  146.5850 C   0  0  0  0  0  0  0  0  0  0  0  0
  160.8740  202.2630  147.5680 C   0  0  0  0  0  3  0  0  0  0  0  0
  162.2500  205.9680  146.0870 N   0  0  0  0  0  1  0  0  0  0  0  0
  161.0790  203.3350  148.4440 C   0  0  0  0  0  0  0  0  0  0  0  0
  161.5830  203.6470  145.7110 C   0  0  0  0  0  3  0  0  0  0  0  0
  161.5390  204.5620  147.9520 C   0  0  0  0  0  3  0  0  0  0  0  0
  1 22  1  6  0  0  0
  1  2  1  0  0  0  0
  3  1  1  0  0  0  0
  4  3  1  1  0  0  0
  4  6  1  0  0  0  0
  5  4  1  0  0  0  0
  5  7  1  0  0  0  0
  6 10  1  0  0  0  0
  6  2  1  0  0  0  0
  7 10  1  0  0  0  0
  8  9  1  0  0  0  0
  9  7  1  0  0  0  0
 10 15  1  0  0  0  0
 11  8  1  0  0  0  0
 11  5  1  0  0  0  0
 12 14  1  0  0  0  0
 13 12  1  0  0  0  0
 13 14  1  0  0  0  0
 14 11  1  0  0  0  0
 15 16  1  0  0  0  0
 16 18  1  0  0  0  0
 16 17  2  0  0  0  0
 18 21  1  0  0  0  0
 19 21  2  0  0  0  0
 21 20  1  0  0  0  0
 23 22  2  0  0  0  0
 24 23  1  0  0  0  0
 25 27  1  0  0  0  0
 26 31  2  0  0  0  0
 27 29  2  0  0  0  0
 28 26  1  0  0  0  0
 29 24  1  0  0  0  0
 30 25  2  0  0  0  0
 30 26  1  0  0  0  0
 31 29  1  0  0  0  0
M  END
>  <MODEL>
3

>  <REMARK>
 VINA RESULT:      -7.2      2.105      3.456
  Name = 
  7 active torsions:
  status: ('A' for Active; 'I' for Inactive)
    1  A    between atoms: C_1  and  C_15
    2  A    between atoms: C_6  and  C_16
    3  A    between atoms: C_6  and  N_21
    4  A    between atoms: N_13  and  C_27
    5  A    between atoms: C_14  and  C_28
    6  A    between atoms: C_24  and  N_31
    7  A    between atoms: C_28  and  C_29
                            x       y       z     vdW  Elec       q    Type
                         _______ _______ _______ _____ _____    ______ ____

>  <TORSDO>
F 7

$$$$
=
 OpenBabel11042420273D

 31 35  0  0  1  0  0  0  0  0999 V2000
  162.1740  209.4490  151.4200 C   0  0  2  0  0  3  0  0  0  0  0  0
  160.8830  209.1530  152.7090 S   0  0  0  0  0  0  0  0  0  0  0  0
  161.9050  210.7350  150.7840 N   0  0  0  0  0  2  0  0  0  0  0  0
  160.7270  211.3360  151.2830 C   0  0  2  0  0  3  0  0  0  0  0  0
  160.4410  212.7980  151.3420 C   0  0  2  0  0  3  0  0  0  0  0  0
  160.1320  210.6960  152.2440 C   0  0  2  0  0  3  0  0  0  0  0  0
  159.5160  212.8420  152.4950 C   0  0  1  0  0  3  0  0  0  0  0  0
  158.6260  214.1420  150.7740 C   0  0  0  0  0  2  0  0  0  0  0  0
  158.3860  213.7440  152.2270 C   0  0  0  0  0  2  0  0  0  0  0  0
  159.3930  211.6390  153.0620 C   0  0  1  0  0  3  0  0  0  0  0  0
  159.6470  213.2490  150.2040 N   0  0  1  0  0  0  0  0  0  0  0  0
  160.7940  213.3450  148.0910 C   0  0  0  0  0  2  0  0  0  0  0  0
  159.8320  214.3670  148.1640 O   0  0  0  0  0  0  0  0  0  0  0  0
  160.5110  214.0590  149.3580 C   0  0  1  0  0  3  0  0  0  0  0  0
  158.3520  211.2430  153.9630 N   0  0  0  0  0  2  0  0  0  0  0  0
  158.4460  211.2500  155.3930 C   0  0  0  0  0  0  0  0  0  0  0  0
  157.4180  210.9890  156.0730 O   0  0  0  0  0  0  0  0  0  0  0  0
  159.7660  211.4410  156.0810 C   0  0  0  0  0  2  0  0  0  0  0  0
  161.4340  210.1210  157.1720 O   0  0  0  0  0  1  0  0  0  0  0  0
  159.7780  208.9460  156.1070 O   0  0  0  0  0  0  0  0  0  0  0  0
  160.3730  210.1400  156.4950 C   0  0  0  0  0  0  0  0  0  0  0  0
  162.1340  208.3680  150.3920 C   0  0  0  0  0  3  0  0  0  0  0  0
  161.0960  207.6260  150.2730 N   0  0  0  0  0  0  0  0  0  0  0  0
  161.0710  206.5860  149.2820 C   0  0  0  0  0  2  0  0  0  0  0  0
  161.0700  203.9130  151.9650 C   0  0  0  0  0  3  0  0  0  0  0  0
  160.8670  202.8420  149.8010 C   0  0  0  0  0  0  0  0  0  0  0  0
  161.1010  205.1650  151.3420 C   0  0  0  0  0  3  0  0  0  0  0  0
  160.7480  201.6610  149.0170 N   0  0  0  0  0  1  0  0  0  0  0  0
  161.0170  205.2560  149.9480 C   0  0  0  0  0  0  0  0  0  0  0  0
  160.9540  202.7530  151.1940 C   0  0  0  0  0  3  0  0  0  0  0  0
  160.9030  204.0930  149.1780 C   0  0  0  0  0  3  0  0  0  0  0  0
  1 22  1  6  0  0  0
  1  2  1  0  0  0  0
  3  1  1  0  0  0  0
  4  3  1  1  0  0  0
  4  5  1  0  0  0  0
  4  6  1  0  0  0  0
  5  7  1  0  0  0  0
  6  2  1  0  0  0  0
  6 10  1  0  0  0  0
  7 10  1  0  0  0  0
  8  9  1  0  0  0  0
  9  7  1  0  0  0  0
 10 15  1  0  0  0  0
 11  8  1  0  0  0  0
 11  5  1  0  0  0  0
 12 13  1  0  0  0  0
 12 14  1  0  0  0  0
 13 14  1  0  0  0  0
 14 11  1  0  0  0  0
 15 16  1  0  0  0  0
 16 17  2  0  0  0  0
 16 18  1  0  0  0  0
 18 21  1  0  0  0  0
 20 21  2  0  0  0  0
 21 19  1  0  0  0  0
 23 22  2  0  0  0  0
 24 29  1  0  0  0  0
 24 23  1  0  0  0  0
 26 30  1  0  0  0  0
 27 25  1  0  0  0  0
 28 26  1  0  0  0  0
 29 27  2  0  0  0  0
 30 25  2  0  0  0  0
 31 26  2  0  0  0  0
 31 29  1  0  0  0  0
M  END
>  <MODEL>
4

>  <REMARK>
 VINA RESULT:      -6.8      1.720      2.431
  Name = 
  7 active torsions:
  status: ('A' for Active; 'I' for Inactive)
    1  A    between atoms: C_1  and  C_15
    2  A    between atoms: C_6  and  C_16
    3  A    between atoms: C_6  and  N_21
    4  A    between atoms: N_13  and  C_27
    5  A    between atoms: C_14  and  C_28
    6  A    between atoms: C_24  and  N_31
    7  A    between atoms: C_28  and  C_29
                            x       y       z     vdW  Elec       q    Type
                         _______ _______ _______ _____ _____    ______ ____

>  <TORSDO>
F 7

$$$$
=
 OpenBabel11042420273D

 31 35  0  0  1  0  0  0  0  0999 V2000
  162.3910  209.2620  149.0310 C   0  0  2  0  0  3  0  0  0  0  0  0
  161.7740  207.7460  148.1720 S   0  0  0  0  0  0  0  0  0  0  0  0
  162.3030  209.0450  150.4720 N   0  0  0  0  0  2  0  0  0  0  0  0
  161.7250  207.7930  150.7840 C   0  0  2  0  0  3  0  0  0  0  0  0
  161.9820  206.9850  152.0090 C   0  0  2  0  0  3  0  0  0  0  0  0
  161.4380  207.0360  149.7670 C   0  0  2  0  0  3  0  0  0  0  0  0
  161.7230  205.6240  151.4910 C   0  0  1  0  0  3  0  0  0  0  0  0
  160.6430  205.8590  153.5460 C   0  0  0  0  0  2  0  0  0  0  0  0
  160.9480  204.8330  152.4590 C   0  0  0  0  0  2  0  0  0  0  0  0
  161.4790  205.6460  150.1790 C   0  0  1  0  0  3  0  0  0  0  0  0
  160.9640  207.1990  153.0330 N   0  0  1  0  0  0  0  0  0  0  0  0
  160.8400  209.2070  154.3530 C   0  0  0  0  0  2  0  0  0  0  0  0
  160.6570  208.0810  155.1720 O   0  0  0  0  0  0  0  0  0  0  0  0
  161.5810  207.9460  154.1190 C   0  0  1  0  0  3  0  0  0  0  0  0
  160.8710  204.5900  149.4250 N   0  0  0  0  0  2  0  0  0  0  0  0
  161.4060  204.0090  148.2290 C   0  0  0  0  0  0  0  0  0  0  0  0
  160.8310  203.0070  147.7280 O   0  0  0  0  0  0  0  0  0  0  0  0
  162.5570  204.6470  147.5080 C   0  0  0  0  0  2  0  0  0  0  0  0
  163.0770  204.0150  145.2610 O   0  0  0  0  0  0  0  0  0  0  0  0
  161.3320  205.4830  145.5020 O   0  0  0  0  0  1  0  0  0  0  0  0
  162.3380  204.6840  146.0300 C   0  0  0  0  0  0  0  0  0  0  0  0
  161.5600  210.4430  148.6550 C   0  0  0  0  0  3  0  0  0  0  0  0
  162.0810  211.6130  148.6100 N   0  0  0  0  0  0  0  0  0  0  0  0
  161.2680  212.7430  148.2510 C   0  0  0  0  0  2  0  0  0  0  0  0
  159.9400  212.6770  144.7050 C   0  0  0  0  0  3  0  0  0  0  0  0
  162.2740  213.3290  144.6490 C   0  0  0  0  0  0  0  0  0  0  0  0
  160.0000  212.5840  146.1000 C   0  0  0  0  0  3  0  0  0  0  0  0
  163.4300  213.7080  143.9130 N   0  0  0  0  0  1  0  0  0  0  0  0
  161.1970  212.8620  146.7690 C   0  0  0  0  0  0  0  0  0  0  0  0
  161.0770  213.0490  143.9810 C   0  0  0  0  0  3  0  0  0  0  0  0
  162.3350  213.2310  146.0430 C   0  0  0  0  0  3  0  0  0  0  0  0
  1 22  1  1  0  0  0
  1  3  1  0  0  0  0
  2  1  1  0  0  0  0
  2  6  1  0  0  0  0
  4  3  1  6  0  0  0
  4  5  1  0  0  0  0
  5 11  1  0  0  0  0
  6 10  1  0  0  0  0
  6  4  1  0  0  0  0
  7  5  1  0  0  0  0
  7  9  1  0  0  0  0
  9  8  1  0  0  0  0
 10  7  1  0  0  0  0
 11  8  1  0  0  0  0
 11 14  1  0  0  0  0
 12 13  1  0  0  0  0
 14 12  1  0  0  0  0
 14 13  1  0  0  0  0
 15 10  1  0  0  0  0
 16 15  1  0  0  0  0
 17 16  2  0  0  0  0
 18 16  1  0  0  0  0
 19 21  2  0  0  0  0
 20 21  1  0  0  0  0
 21 18  1  0  0  0  0
 23 22  2  0  0  0  0
 24 23  1  0  0  0  0
 25 27  1  0  0  0  0
 26 31  2  0  0  0  0
 27 29  2  0  0  0  0
 28 26  1  0  0  0  0
 29 24  1  0  0  0  0
 30 26  1  0  0  0  0
 30 25  2  0  0  0  0
 31 29  1  0  0  0  0
M  END
>  <MODEL>
5

>  <REMARK>
 VINA RESULT:      -6.7      4.997      8.416
  Name = 
  7 active torsions:
  status: ('A' for Active; 'I' for Inactive)
    1  A    between atoms: C_1  and  C_15
    2  A    between atoms: C_6  and  C_16
    3  A    between atoms: C_6  and  N_21
    4  A    between atoms: N_13  and  C_27
    5  A    between atoms: C_14  and  C_28
    6  A    between atoms: C_24  and  N_31
    7  A    between atoms: C_28  and  C_29
                            x       y       z     vdW  Elec       q    Type
                         _______ _______ _______ _____ _____    ______ ____

>  <TORSDO>
F 7

$$$$
=
 OpenBabel11042420273D

 31 35  0  0  1  0  0  0  0  0999 V2000
  162.4050  209.7110  150.2960 C   0  0  2  0  0  3  0  0  0  0  0  0
  161.5800  209.4760  148.6590 S   0  0  0  0  0  0  0  0  0  0  0  0
  162.3700  208.4430  151.0170 N   0  0  0  0  0  2  0  0  0  0  0  0
  161.6770  207.4430  150.2970 C   0  0  2  0  0  3  0  0  0  0  0  0
  161.9100  205.9730  150.3830 C   0  0  2  0  0  3  0  0  0  0  0  0
  161.2550  207.7890  149.1180 C   0  0  2  0  0  3  0  0  0  0  0  0
  161.4760  205.5550  149.0320 C   0  0  1  0  0  3  0  0  0  0  0  0
  160.5410  204.1020  150.6000 C   0  0  0  0  0  2  0  0  0  0  0  0
  160.6730  204.3250  149.0970 C   0  0  0  0  0  2  0  0  0  0  0  0
  161.1660  206.6110  148.2760 C   0  0  1  0  0  3  0  0  0  0  0  0
  160.9780  205.3210  151.2970 N   0  0  1  0  0  0  0  0  0  0  0  0
  161.4570  205.8250  153.6010 C   0  0  0  0  0  2  0  0  0  0  0  0
  160.8320  204.5710  153.5020 O   0  0  0  0  0  0  0  0  0  0  0  0
  161.7310  204.9060  152.4720 C   0  0  1  0  0  3  0  0  0  0  0  0
  160.4060  206.5740  147.0620 N   0  0  0  0  0  2  0  0  0  0  0  0
  160.8850  206.1000  145.7970 C   0  0  0  0  0  0  0  0  0  0  0  0
  160.0790  206.0120  144.8340 O   0  0  0  0  0  0  0  0  0  0  0  0
  162.3440  205.8260  145.5760 C   0  0  0  0  0  2  0  0  0  0  0  0
  163.8500  203.9700  145.6400 O   0  0  0  0  0  0  0  0  0  0  0  0
  161.6200  203.4420  145.7180 O   0  0  0  0  0  1  0  0  0  0  0  0
  162.6550  204.3670  145.6550 C   0  0  0  0  0  0  0  0  0  0  0  0
  161.6880  210.7520  151.0900 C   0  0  0  0  0  3  0  0  0  0  0  0
  161.0500  210.4300  152.1530 N   0  0  0  0  0  0  0  0  0  0  0  0
  160.3600  211.4410  152.9070 C   0  0  0  0  0  2  0  0  0  0  0  0
  159.9780  211.5490  156.6730 C   0  0  0  0  0  3  0  0  0  0  0  0
  160.1250  209.2340  155.9720 C   0  0  0  0  0  0  0  0  0  0  0  0
  160.0900  211.9590  155.3400 C   0  0  0  0  0  3  0  0  0  0  0  0
  160.1420  207.8480  156.2930 N   0  0  0  0  0  1  0  0  0  0  0  0
  160.2200  211.0060  154.3230 C   0  0  0  0  0  0  0  0  0  0  0  0
  159.9970  210.1860  156.9880 C   0  0  0  0  0  3  0  0  0  0  0  0
  160.2410  209.6430  154.6410 C   0  0  0  0  0  3  0  0  0  0  0  0
  1  3  1  0  0  0  0
  1 22  1  1  0  0  0
  2  6  1  0  0  0  0
  2  1  1  0  0  0  0
  4  5  1  0  0  0  0
  4  3  1  6  0  0  0
  5 11  1  0  0  0  0
  6  4  1  0  0  0  0
  7  9  1  0  0  0  0
  7  5  1  0  0  0  0
  8 11  1  0  0  0  0
  9  8  1  0  0  0  0
 10  7  1  0  0  0  0
 10  6  1  0  0  0  0
 11 14  1  0  0  0  0
 13 12  1  0  0  0  0
 14 13  1  0  0  0  0
 14 12  1  0  0  0  0
 15 10  1  0  0  0  0
 16 15  1  0  0  0  0
 17 16  2  0  0  0  0
 18 21  1  0  0  0  0
 18 16  1  0  0  0  0
 19 21  2  0  0  0  0
 21 20  1  0  0  0  0
 22 23  2  0  0  0  0
 23 24  1  0  0  0  0
 24 29  1  0  0  0  0
 25 30  1  0  0  0  0
 26 28  1  0  0  0  0
 26 30  2  0  0  0  0
 27 25  2  0  0  0  0
 29 31  2  0  0  0  0
 29 27  1  0  0  0  0
 31 26  1  0  0  0  0
M  END
>  <MODEL>
6

>  <REMARK>
 VINA RESULT:      -6.7      4.262      8.745
  Name = 
  7 active torsions:
  status: ('A' for Active; 'I' for Inactive)
    1  A    between atoms: C_1  and  C_15
    2  A    between atoms: C_6  and  C_16
    3  A    between atoms: C_6  and  N_21
    4  A    between atoms: N_13  and  C_27
    5  A    between atoms: C_14  and  C_28
    6  A    between atoms: C_24  and  N_31
    7  A    between atoms: C_28  and  C_29
                            x       y       z     vdW  Elec       q    Type
                         _______ _______ _______ _____ _____    ______ ____

>  <TORSDO>
F 7

$$$$
=
 OpenBabel11042420273D

 31 35  0  0  1  0  0  0  0  0999 V2000
  162.0470  210.4270  150.6800 C   0  0  2  0  0  3  0  0  0  0  0  0
  161.6930  210.0700  152.4590 S   0  0  0  0  0  0  0  0  0  0  0  0
  161.1980  211.5350  150.2530 N   0  0  0  0  0  2  0  0  0  0  0  0
  160.3270  211.9610  151.2820 C   0  0  2  0  0  3  0  0  0  0  0  0
  159.7710  213.3340  151.4550 C   0  0  2  0  0  3  0  0  0  0  0  0
  160.4680  211.3590  152.4250 C   0  0  2  0  0  3  0  0  0  0  0  0
  159.5720  213.3590  152.9200 C   0  0  1  0  0  3  0  0  0  0  0  0
  157.6580  214.2080  151.8920 C   0  0  0  0  0  2  0  0  0  0  0  0
  158.2840  213.9790  153.2640 C   0  0  0  0  0  2  0  0  0  0  0  0
  160.0410  212.2460  153.4900 C   0  0  1  0  0  3  0  0  0  0  0  0
  158.4320  213.4600  150.8900 N   0  0  1  0  0  0  0  0  0  0  0  0
  158.1010  213.5310  148.5070 C   0  0  0  0  0  2  0  0  0  0  0  0
  157.2500  214.4530  149.1390 O   0  0  0  0  0  0  0  0  0  0  0  0
  158.5310  214.2950  149.7010 C   0  0  1  0  0  3  0  0  0  0  0  0
  159.7240  211.7870  154.8090 N   0  0  0  0  0  2  0  0  0  0  0  0
  158.5220  211.1020  155.1830 C   0  0  0  0  0  0  0  0  0  0  0  0
  158.4180  210.6470  156.3530 O   0  0  0  0  0  0  0  0  0  0  0  0
  157.3510  211.0270  154.2470 C   0  0  0  0  0  2  0  0  0  0  0  0
  155.2120  210.2620  154.9910 O   0  0  0  0  0  0  0  0  0  0  0  0
  155.7590  212.4090  155.5820 O   0  0  0  0  0  1  0  0  0  0  0  0
  156.0520  211.1990  154.9650 C   0  0  0  0  0  0  0  0  0  0  0  0
  161.7530  209.2260  149.8450 C   0  0  0  0  0  3  0  0  0  0  0  0
  161.8520  208.0500  150.3440 N   0  0  0  0  0  0  0  0  0  0  0  0
  161.5710  206.9010  149.5280 C   0  0  0  0  0  2  0  0  0  0  0  0
  161.2140  204.7110  152.5960 C   0  0  0  0  0  3  0  0  0  0  0  0
  160.8460  203.3520  150.6240 C   0  0  0  0  0  0  0  0  0  0  0  0
  161.4170  205.8320  151.7850 C   0  0  0  0  0  3  0  0  0  0  0  0
  160.5560  202.0910  150.0320 N   0  0  0  0  0  1  0  0  0  0  0  0
  161.3350  205.7140  150.3930 C   0  0  0  0  0  0  0  0  0  0  0  0
  160.9290  203.4710  152.0150 C   0  0  0  0  0  3  0  0  0  0  0  0
  161.0540  204.4710  149.8130 C   0  0  0  0  0  3  0  0  0  0  0  0
  1 22  1  6  0  0  0
  1  2  1  0  0  0  0
  3  1  1  0  0  0  0
  4  3  1  1  0  0  0
  4  5  1  0  0  0  0
  4  6  1  0  0  0  0
  5  7  1  0  0  0  0
  6  2  1  0  0  0  0
  6 10  1  0  0  0  0
  7  9  1  0  0  0  0
  7 10  1  0  0  0  0
  8  9  1  0  0  0  0
 10 15  1  0  0  0  0
 11  5  1  0  0  0  0
 11  8  1  0  0  0  0
 12 13  1  0  0  0  0
 12 14  1  0  0  0  0
 13 14  1  0  0  0  0
 14 11  1  0  0  0  0
 15 16  1  0  0  0  0
 16 17  2  0  0  0  0
 18 21  1  0  0  0  0
 18 16  1  0  0  0  0
 21 19  2  0  0  0  0
 21 20  1  0  0  0  0
 22 23  2  0  0  0  0
 24 23  1  0  0  0  0
 24 29  1  0  0  0  0
 26 30  2  0  0  0  0
 27 25  2  0  0  0  0
 28 26  1  0  0  0  0
 29 27  1  0  0  0  0
 30 25  1  0  0  0  0
 31 29  2  0  0  0  0
 31 26  1  0  0  0  0
M  END
>  <MODEL>
7

>  <REMARK>
 VINA RESULT:      -5.9      2.188      3.210
  Name = 
  7 active torsions:
  status: ('A' for Active; 'I' for Inactive)
    1  A    between atoms: C_1  and  C_15
    2  A    between atoms: C_6  and  C_16
    3  A    between atoms: C_6  and  N_21
    4  A    between atoms: N_13  and  C_27
    5  A    between atoms: C_14  and  C_28
    6  A    between atoms: C_24  and  N_31
    7  A    between atoms: C_28  and  C_29
                            x       y       z     vdW  Elec       q    Type
                         _______ _______ _______ _____ _____    ______ ____

>  <TORSDO>
F 7

$$$$
=
 OpenBabel11042420273D

 31 35  0  0  1  0  0  0  0  0999 V2000
  162.3700  210.0530  148.9530 C   0  0  2  0  0  3  0  0  0  0  0  0
  161.6880  208.4650  148.2990 S   0  0  0  0  0  0  0  0  0  0  0  0
  162.3390  210.0040  150.4120 N   0  0  0  0  0  2  0  0  0  0  0  0
  161.7500  208.8100  150.8890 C   0  0  2  0  0  3  0  0  0  0  0  0
  162.0430  208.1410  152.1880 C   0  0  2  0  0  3  0  0  0  0  0  0
  161.4060  207.9500  149.9780 C   0  0  2  0  0  3  0  0  0  0  0  0
  161.7360  206.7370  151.8400 C   0  0  1  0  0  3  0  0  0  0  0  0
  160.7490  207.2300  153.8960 C   0  0  0  0  0  2  0  0  0  0  0  0
  160.9870  206.0800  152.9220 C   0  0  0  0  0  2  0  0  0  0  0  0
  161.4370  206.6150  150.5450 C   0  0  1  0  0  3  0  0  0  0  0  0
  161.0740  208.4950  153.2190 N   0  0  1  0  0  0  0  0  0  0  0  0
  161.1550  210.7020  154.1750 C   0  0  0  0  0  2  0  0  0  0  0  0
  160.8280  209.7610  155.1650 O   0  0  0  0  0  0  0  0  0  0  0  0
  161.7510  209.3460  154.1870 C   0  0  1  0  0  3  0  0  0  0  0  0
  160.7770  205.4950  149.9420 N   0  0  0  0  0  2  0  0  0  0  0  0
  161.2330  204.7890  148.7810 C   0  0  0  0  0  0  0  0  0  0  0  0
  160.6220  203.7480  148.4210 O   0  0  0  0  0  0  0  0  0  0  0  0
  162.3410  205.3360  147.9290 C   0  0  0  0  0  2  0  0  0  0  0  0
  161.0850  205.8930  145.9720 O   0  0  0  0  0  1  0  0  0  0  0  0
  162.7670  204.3640  145.6710 O   0  0  0  0  0  0  0  0  0  0  0  0
  162.0290  205.2260  146.4720 C   0  0  0  0  0  0  0  0  0  0  0  0
  161.5470  211.2040  148.4780 C   0  0  0  0  0  3  0  0  0  0  0  0
  161.7170  212.3710  148.9770 N   0  0  0  0  0  0  0  0  0  0  0  0
  160.9140  213.4700  148.5140 C   0  0  0  0  0  2  0  0  0  0  0  0
  160.3950  212.7220  144.8380 C   0  0  0  0  0  3  0  0  0  0  0  0
  158.2650  212.5330  145.9780 C   0  0  0  0  0  0  0  0  0  0  0  0
  161.0150  213.0420  146.0510 C   0  0  0  0  0  3  0  0  0  0  0  0
  156.8670  212.2750  145.9420 N   0  0  0  0  0  1  0  0  0  0  0  0
  160.2600  213.1090  147.2270 C   0  0  0  0  0  0  0  0  0  0  0  0
  159.0210  212.4680  144.8030 C   0  0  0  0  0  3  0  0  0  0  0  0
  158.8840  212.8580  147.1890 C   0  0  0  0  0  3  0  0  0  0  0  0
  1 22  1  6  0  0  0
  1  3  1  0  0  0  0
  2  1  1  0  0  0  0
  2  6  1  0  0  0  0
  4  3  1  6  0  0  0
  4  5  1  0  0  0  0
  5 11  1  0  0  0  0
  6 10  1  0  0  0  0
  6  4  1  0  0  0  0
  7  5  1  0  0  0  0
  7  9  1  0  0  0  0
  9  8  1  0  0  0  0
 10  7  1  0  0  0  0
 11  8  1  0  0  0  0
 11 14  1  0  0  0  0
 12 14  1  0  0  0  0
 12 13  1  0  0  0  0
 14 13  1  0  0  0  0
 15 10  1  0  0  0  0
 16 15  1  0  0  0  0
 17 16  2  0  0  0  0
 18 16  1  0  0  0  0
 19 21  1  0  0  0  0
 20 21  2  0  0  0  0
 21 18  1  0  0  0  0
 22 23  2  0  0  0  0
 24 23  1  0  0  0  0
 25 27  1  0  0  0  0
 26 31  2  0  0  0  0
 27 29  2  0  0  0  0
 28 26  1  0  0  0  0
 29 24  1  0  0  0  0
 30 25  2  0  0  0  0
 30 26  1  0  0  0  0
 31 29  1  0  0  0  0
M  END
>  <MODEL>
8

>  <REMARK>
 VINA RESULT:      -5.9      4.498      7.781
  Name = 
  7 active torsions:
  status: ('A' for Active; 'I' for Inactive)
    1  A    between atoms: C_1  and  C_15
    2  A    between atoms: C_6  and  C_16
    3  A    between atoms: C_6  and  N_21
    4  A    between atoms: N_13  and  C_27
    5  A    between atoms: C_14  and  C_28
    6  A    between atoms: C_24  and  N_31
    7  A    between atoms: C_28  and  C_29
                            x       y       z     vdW  Elec       q    Type
                         _______ _______ _______ _____ _____    ______ ____

>  <TORSDO>
F 7

$$$$
=
 OpenBabel11042420273D

 31 35  0  0  1  0  0  0  0  0999 V2000
  161.8050  205.9000  153.0380 C   0  0  2  0  0  3  0  0  0  0  0  0
  160.8960  206.6360  154.4690 S   0  0  0  0  0  0  0  0  0  0  0  0
  162.0820  206.9590  152.0730 N   0  0  0  0  0  2  0  0  0  0  0  0
  161.5330  208.1980  152.4740 C   0  0  2  0  0  3  0  0  0  0  0  0
  162.0520  209.5490  152.1180 C   0  0  2  0  0  3  0  0  0  0  0  0
  160.9470  208.2040  153.6330 C   0  0  2  0  0  3  0  0  0  0  0  0
  161.5870  210.3290  153.2840 C   0  0  1  0  0  3  0  0  0  0  0  0
  161.0970  211.5250  151.3420 C   0  0  0  0  0  2  0  0  0  0  0  0
  161.0450  211.6310  152.8630 C   0  0  0  0  0  2  0  0  0  0  0  0
  161.0110  209.5400  154.1950 C   0  0  1  0  0  3  0  0  0  0  0  0
  161.3510  210.1240  150.9750 N   0  0  1  0  0  0  0  0  0  0  0  0
  161.9060  209.0630  148.8870 C   0  0  0  0  0  2  0  0  0  0  0  0
  161.5600  210.4070  148.6680 O   0  0  0  0  0  0  0  0  0  0  0  0
  162.2740  210.1290  149.8490 C   0  0  1  0  0  3  0  0  0  0  0  0
  160.1650  209.9790  155.2650 N   0  0  0  0  0  2  0  0  0  0  0  0
  158.8610  210.5540  155.1110 C   0  0  0  0  0  0  0  0  0  0  0  0
  158.1730  210.7890  156.1390 O   0  0  0  0  0  0  0  0  0  0  0  0
  158.3600  210.9850  153.7630 C   0  0  0  0  0  2  0  0  0  0  0  0
  156.3650  212.2940  153.9080 O   0  0  0  0  0  1  0  0  0  0  0  0
  158.3230  213.4800  153.7850 O   0  0  0  0  0  0  0  0  0  0  0  0
  157.6210  212.2820  153.8320 C   0  0  0  0  0  0  0  0  0  0  0  0
  160.9760  204.8420  152.3890 C   0  0  0  0  0  3  0  0  0  0  0  0
  161.4650  204.1210  151.4500 N   0  0  0  0  0  0  0  0  0  0  0  0
  160.6550  203.1090  150.8290 C   0  0  0  0  0  2  0  0  0  0  0  0
  160.8940  201.9430  147.2340 C   0  0  0  0  0  3  0  0  0  0  0  0
  161.5930  204.2610  147.3480 C   0  0  0  0  0  0  0  0  0  0  0  0
  160.6560  201.9480  148.6130 C   0  0  0  0  0  3  0  0  0  0  0  0
  162.0690  205.4380  146.7060 N   0  0  0  0  0  1  0  0  0  0  0  0
  160.8880  203.1080  149.3590 C   0  0  0  0  0  0  0  0  0  0  0  0
  161.3630  203.1000  146.6030 C   0  0  0  0  0  3  0  0  0  0  0  0
  161.3600  204.2640  148.7270 C   0  0  0  0  0  3  0  0  0  0  0  0
  1 22  1  6  0  0  0
  1  2  1  0  0  0  0
  3  1  1  0  0  0  0
  4  3  1  1  0  0  0
  4  6  1  0  0  0  0
  5  4  1  0  0  0  0
  5  7  1  0  0  0  0
  6 10  1  0  0  0  0
  6  2  1  0  0  0  0
  7 10  1  0  0  0  0
  8  9  1  0  0  0  0
  9  7  1  0  0  0  0
 10 15  1  0  0  0  0
 11  8  1  0  0  0  0
 11  5  1  0  0  0  0
 12 14  1  0  0  0  0
 13 12  1  0  0  0  0
 13 14  1  0  0  0  0
 14 11  1  0  0  0  0
 16 15  1  0  0  0  0
 16 17  2  0  0  0  0
 18 21  1  0  0  0  0
 18 16  1  0  0  0  0
 20 21  2  0  0  0  0
 21 19  1  0  0  0  0
 23 22  2  0  0  0  0
 24 23  1  0  0  0  0
 25 27  1  0  0  0  0
 26 31  2  0  0  0  0
 27 29  2  0  0  0  0
 28 26  1  0  0  0  0
 29 24  1  0  0  0  0
 30 25  2  0  0  0  0
 30 26  1  0  0  0  0
 31 29  1  0  0  0  0
M  END
>  <MODEL>
9

>  <REMARK>
 VINA RESULT:      -5.9      2.225      3.893
  Name = 
  7 active torsions:
  status: ('A' for Active; 'I' for Inactive)
    1  A    between atoms: C_1  and  C_15
    2  A    between atoms: C_6  and  C_16
    3  A    between atoms: C_6  and  N_21
    4  A    between atoms: N_13  and  C_27
    5  A    between atoms: C_14  and  C_28
    6  A    between atoms: C_24  and  N_31
    7  A    between atoms: C_28  and  C_29
                            x       y       z     vdW  Elec       q    Type
                         _______ _______ _______ _____ _____    ______ ____

>  <TORSDO>
F 7

$$$$
