=
 OpenBabel11042423023D

 65 71  0  0  1  0  0  0  0  0999 V2000
  160.4680  212.5770  150.4700 C   0  0  0  0  0  0  0  0  0  0  0  0
  160.7720  208.8210  151.0500 C   0  0  0  0  0  2  0  0  0  0  0  0
  160.5150  210.7610  152.6270 C   0  0  0  0  0  0  0  0  0  0  0  0
  163.2520  208.4500  151.0270 C   0  0  0  0  0  1  0  0  0  0  0  0
  160.8800  211.2430  150.2640 C   0  0  0  0  0  0  0  0  0  0  0  0
  161.9610  208.6460  148.9290 O   0  0  0  0  0  0  0  0  0  0  0  0
  161.9370  208.1850  150.2690 C   0  0  2  0  0  0  0  0  0  0  0  0
  160.2110  212.1110  152.8550 C   0  0  0  0  0  0  0  0  0  0  0  0
  161.3610  210.8790  149.0040 O   0  0  0  0  0  0  0  0  0  0  0  0
  160.1660  212.9960  151.7730 C   0  0  0  0  0  3  0  0  0  0  0  0
  162.4320  209.9640  148.8480 C   0  0  0  0  0  2  0  0  0  0  0  0
  160.8160  210.3090  151.3240 C   0  0  0  0  0  0  0  0  0  0  0  0
  160.4340  214.1780  146.4990 N   0  0  0  0  0  0  0  0  0  0  0  0
  160.4080  213.5640  149.3160 C   0  0  1  0  0  3  0  0  0  0  0  0
  159.2020  214.3970  147.2730 C   0  0  0  0  0  2  0  0  0  0  0  0
  161.6520  213.4780  148.4620 C   0  0  0  0  0  3  0  0  0  0  0  0
  161.6480  213.7960  147.1670 C   0  0  0  0  0  3  0  0  0  0  0  0
  159.1400  213.4240  148.4490 C   0  0  0  0  0  2  0  0  0  0  0  0
  161.2230  213.4050  144.3100 C   0  0  0  0  0  0  0  0  0  0  0  0
  160.3900  212.8540  143.2220 C   0  0  2  0  0  3  0  0  0  0  0  0
  162.3980  213.1180  144.4880 O   0  0  0  0  0  0  0  0  0  0  0  0
  159.0380  213.3690  143.4410 N   0  0  0  0  0  2  0  0  0  0  0  0
  159.1250  214.4530  144.4260 C   0  0  0  0  0  2  0  0  0  0  0  0
  160.5140  214.4530  145.0590 C   0  0  1  0  0  3  0  0  0  0  0  0
  160.5800  210.6350  142.1110 C   0  0  0  0  0  3  0  0  0  0  0  0
  160.3710  211.3520  143.2260 C   0  0  0  0  0  3  0  0  0  0  0  0
  161.1570  210.3430  139.5680 C   0  0  1  0  0  0  0  0  0  0  0  0
  162.6710  211.8280  138.0020 C   0  0  0  0  0  2  0  0  0  0  0  0
  160.4530  213.1430  138.1070 C   0  0  0  0  0  2  0  0  0  0  0  0
  159.6160  212.0860  138.8560 C   0  0  2  0  0  3  0  0  0  0  0  0
  159.7460  212.2190  140.3630 C   0  0  0  0  0  2  0  0  0  0  0  0
  160.3670  210.4170  137.2360 O   0  0  0  0  0  1  0  0  0  0  0  0
  161.9730  213.1430  138.3500 C   0  0  1  0  0  3  0  0  0  0  0  0
  160.8660  211.2730  140.7740 C   0  0  1  0  0  3  0  0  0  0  0  0
  160.0340  210.6540  138.5740 C   0  0  1  0  0  3  0  0  0  0  0  0
  162.5660  210.7100  139.0550 C   0  0  0  0  0  2  0  0  0  0  0  0
  162.3840  213.7510  139.6870 C   0  0  0  0  0  2  0  0  0  0  0  0
  163.7640  214.3750  139.5900 C   0  0  0  0  0  1  0  0  0  0  0  0
  162.3290  208.0760  139.2560 C   0  0  0  0  0  1  0  0  0  0  0  0
  161.1760  208.8360  139.8960 C   0  0  0  0  0  2  0  0  0  0  0  0
  161.9150  205.9090  151.2570 C   0  0  0  0  0  2  0  0  0  0  0  0
  161.6810  206.6780  150.1890 C   0  0  0  0  0  0  0  0  0  0  0  0
  160.9200  206.0250  149.0610 C   0  0  1  0  0  3  0  0  0  0  0  0
  161.5270  206.2790  147.8290 O   0  0  0  0  0  0  0  0  0  0  0  0
  161.7010  205.0210  147.2480 C   0  0  0  0  0  2  0  0  0  0  0  0
  161.6920  204.1850  145.0170 O   0  0  0  0  0  0  0  0  0  0  0  0
  160.4670  206.1010  145.3670 O   0  0  0  0  0  1  0  0  0  0  0  0
  161.2990  205.0770  145.8160 C   0  0  0  0  0  0  0  0  0  0  0  0
  160.7990  204.5160  149.2780 C   0  0  0  0  0  2  0  0  0  0  0  0
  160.5270  204.2530  150.6530 O   0  0  0  0  0  0  0  0  0  0  0  0
  160.5920  202.9680  151.1910 C   0  0  0  0  0  0  0  0  0  0  0  0
  159.8030  202.6400  152.1200 O   0  0  0  0  0  0  0  0  0  0  0  0
  161.4940  201.9230  150.6020 C   0  0  0  0  0  2  0  0  0  0  0  0
  160.8430  201.2980  149.4570 N   0  0  0  0  0  2  0  0  0  0  0  0
  161.8690  201.0900  148.4500 C   0  0  0  0  0  2  0  0  0  0  0  0
  160.0680  200.8830  145.1800 C   0  0  0  0  0  3  0  0  0  0  0  0
  160.6940  199.4880  145.2970 C   0  0  0  0  0  3  0  0  0  0  0  0
  160.4950  201.5700  146.4370 C   0  0  0  0  0  3  0  0  0  0  0  0
  161.2590  200.7520  147.1320 C   0  0  0  0  0  0  0  0  0  0  0  0
  161.4520  199.5450  146.4950 O   0  0  0  0  0  0  0  0  0  0  0  0
  160.4570  209.0960  154.6270 N   0  0  0  0  0  0  0  0  0  0  0  0
  160.4790  209.8360  153.7380 C   0  0  0  0  0  0  0  0  0  0  0  0
  159.9450  212.5570  154.1560 O   0  0  0  0  0  0  0  0  0  0  0  0
  158.6290  212.6910  154.6690 C   0  0  0  0  0  2  0  0  0  0  0  0
  158.6860  213.3610  156.0230 C   0  0  0  0  0  1  0  0  0  0  0  0
  1 10  1  0  0  0  0
  2 12  1  0  0  0  0
  3  8  1  0  0  0  0
  3 62  1  0  0  0  0
  5  1  2  0  0  0  0
  5 12  1  0  0  0  0
  6  7  1  0  0  0  0
  7  4  1  1  0  0  0
  7  2  1  0  0  0  0
  8 63  1  0  0  0  0
  9  5  1  0  0  0  0
 10  8  2  0  0  0  0
 11  6  1  0  0  0  0
 11  9  1  0  0  0  0
 12  3  2  0  0  0  0
 13 17  1  0  0  0  0
 13 15  1  0  0  0  0
 14  1  1  1  0  0  0
 15 18  1  0  0  0  0
 16 14  1  0  0  0  0
 17 16  2  0  0  0  0
 18 14  1  0  0  0  0
 19 21  2  0  0  0  0
 19 24  1  0  0  0  0
 20 26  1  1  0  0  0
 20 22  1  0  0  0  0
 20 19  1  0  0  0  0
 22 23  1  0  0  0  0
 24 23  1  6  0  0  0
 24 13  1  0  0  0  0
 25 26  2  0  0  0  0
 27 40  1  1  0  0  0
 27 34  1  0  0  0  0
 28 33  1  0  0  0  0
 28 36  1  0  0  0  0
 29 33  1  0  0  0  0
 30 29  1  6  0  0  0
 30 31  1  0  0  0  0
 31 34  1  0  0  0  0
 33 37  1  1  0  0  0
 34 25  1  1  0  0  0
 35 32  1  6  0  0  0
 35 30  1  0  0  0  0
 35 27  1  0  0  0  0
 36 27  1  0  0  0  0
 38 37  1  0  0  0  0
 39 40  1  0  0  0  0
 42  7  1  0  0  0  0
 42 41  2  0  0  0  0
 43 49  1  1  0  0  0
 43 42  1  0  0  0  0
 44 43  1  0  0  0  0
 45 44  1  0  0  0  0
 46 48  2  0  0  0  0
 47 48  1  0  0  0  0
 48 45  1  0  0  0  0
 49 50  1  0  0  0  0
 50 51  1  0  0  0  0
 51 52  2  0  0  0  0
 53 51  1  0  0  0  0
 54 53  1  0  0  0  0
 55 54  1  0  0  0  0
 56 57  2  0  0  0  0
 56 58  1  0  0  0  0
 57 60  1  0  0  0  0
 58 59  2  0  0  0  0
 59 55  1  0  0  0  0
 60 59  1  0  0  0  0
 62 61  3  0  0  0  0
 63 64  1  0  0  0  0
 64 65  1  0  0  0  0
M  END
>  <MODEL>
1

>  <REMARK>
 VINA RESULT:      -1.4      0.000      0.000
  Name = 
  21 active torsions:
  status: ('A' for Active; 'I' for Inactive)
    1  A    between atoms: C_1  and  C_53
    2  A    between atoms: C_3  and  C_7
    3  A    between atoms: C_4  and  C_61
    4  A    between atoms: N_5  and  C_38
    5  A    between atoms: C_6  and  C_51
    6  A    between atoms: C_9  and  C_26
    7  A    between atoms: C_19  and  C_41
    8  A    between atoms: C_19  and  O_50
    9  A    between atoms: C_21  and  O_55
   10  A    between atoms: C_21  and  C_60
   11  A    between atoms: C_25  and  C_35
   12  A    between atoms: C_27  and  C_47
   13  A    between atoms: C_27  and  O_55
   14  A    between atoms: N_28  and  C_48
   15  A    between atoms: N_28  and  C_60
   16  A    between atoms: C_33  and  O_58
   17  A    between atoms: C_35  and  C_47
   18  A    between atoms: C_44  and  C_52
   19  A    between atoms: C_46  and  O_58
   20  A    between atoms: C_47  and  O_50
   21  A    between atoms: C_48  and  C_57
                            x       y       z     vdW  Elec       q    Type
                         _______ _______ _______ _____ _____    ______ ____

>  <TORSDO>
F 21

$$$$
=
 OpenBabel11042423023D

 65 71  0  0  1  0  0  0  0  0999 V2000
  161.8370  204.5550  147.0150 C   0  0  0  0  0  0  0  0  0  0  0  0
  162.0870  206.6260  150.2060 C   0  0  0  0  0  2  0  0  0  0  0  0
  161.2690  204.2910  149.7640 C   0  0  0  0  0  0  0  0  0  0  0  0
  159.9700  207.9710  150.1670 C   0  0  0  0  0  1  0  0  0  0  0  0
  161.8260  205.6940  147.8480 C   0  0  0  0  0  0  0  0  0  0  0  0
  161.9450  208.6420  148.8430 O   0  0  0  0  0  0  0  0  0  0  0  0
  161.5040  208.0430  150.0500 C   0  0  2  0  0  0  0  0  0  0  0  0
  161.1710  203.1760  148.9180 C   0  0  0  0  0  0  0  0  0  0  0  0
  161.9950  206.9510  147.2640 O   0  0  0  0  0  0  0  0  0  0  0  0
  161.4810  203.3150  147.5620 C   0  0  0  0  0  3  0  0  0  0  0  0
  161.2950  208.0920  147.7300 C   0  0  0  0  0  2  0  0  0  0  0  0
  161.6330  205.5510  149.2420 C   0  0  0  0  0  0  0  0  0  0  0  0
  161.6720  205.7280  142.8990 N   0  0  0  0  0  0  0  0  0  0  0  0
  162.1690  204.6720  145.5360 C   0  0  1  0  0  3  0  0  0  0  0  0
  162.8970  206.1200  143.6140 C   0  0  0  0  0  2  0  0  0  0  0  0
  160.9990  204.2430  144.6800 C   0  0  0  0  0  3  0  0  0  0  0  0
  160.8060  204.7220  143.4510 C   0  0  0  0  0  3  0  0  0  0  0  0
  162.6630  206.0740  145.1230 C   0  0  0  0  0  2  0  0  0  0  0  0
  161.5150  207.6950  141.4450 C   0  0  0  0  0  0  0  0  0  0  0  0
  162.4370  208.0500  140.3470 C   0  0  2  0  0  3  0  0  0  0  0  0
  160.8730  208.5080  142.0920 O   0  0  0  0  0  0  0  0  0  0  0  0
  163.0720  206.8000  139.9270 N   0  0  0  0  0  2  0  0  0  0  0  0
  162.3170  205.6910  140.5190 C   0  0  0  0  0  2  0  0  0  0  0  0
  161.3470  206.2380  141.5620 C   0  0  1  0  0  3  0  0  0  0  0  0
  163.4490  210.3230  140.4120 C   0  0  0  0  0  3  0  0  0  0  0  0
  163.4860  209.0340  140.7830 C   0  0  0  0  0  3  0  0  0  0  0  0
  161.2860  211.7950  140.2160 C   0  0  1  0  0  0  0  0  0  0  0  0
  159.1620  211.4760  138.6870 C   0  0  0  0  0  2  0  0  0  0  0  0
  160.9020  212.5070  137.0830 C   0  0  0  0  0  2  0  0  0  0  0  0
  161.9880  212.8300  138.1290 C   0  0  2  0  0  3  0  0  0  0  0  0
  162.9230  211.6570  138.3610 C   0  0  0  0  0  2  0  0  0  0  0  0
  160.2780  213.9230  139.4920 O   0  0  0  0  0  1  0  0  0  0  0  0
  159.9540  211.3310  137.3870 C   0  0  1  0  0  3  0  0  0  0  0  0
  162.3520  210.8900  139.5460 C   0  0  1  0  0  3  0  0  0  0  0  0
  161.4420  213.1450  139.5090 C   0  0  1  0  0  3  0  0  0  0  0  0
  159.9180  211.1190  139.9790 C   0  0  0  0  0  2  0  0  0  0  0  0
  160.5850  209.9600  137.1700 C   0  0  0  0  0  2  0  0  0  0  0  0
  159.6400  208.8600  137.6170 C   0  0  0  0  0  1  0  0  0  0  0  0
  162.1900  213.2310  142.1470 C   0  0  0  0  0  1  0  0  0  0  0  0
  161.4430  211.9700  141.7400 C   0  0  0  0  0  2  0  0  0  0  0  0
  162.6190  208.3270  152.2470 C   0  0  0  0  0  2  0  0  0  0  0  0
  162.0700  208.9100  151.1770 C   0  0  0  0  0  0  0  0  0  0  0  0
  162.2960  210.3970  151.0480 C   0  0  1  0  0  3  0  0  0  0  0  0
  162.5950  210.7490  149.7300 O   0  0  0  0  0  0  0  0  0  0  0  0
  161.6890  211.7640  149.4160 C   0  0  0  0  0  2  0  0  0  0  0  0
  163.1370  212.1060  147.5540 O   0  0  0  0  0  1  0  0  0  0  0  0
  161.0280  213.0030  147.3540 O   0  0  0  0  0  0  0  0  0  0  0  0
  162.0010  212.3040  148.0640 C   0  0  0  0  0  0  0  0  0  0  0  0
  161.0790  211.1850  151.5320 C   0  0  0  0  0  2  0  0  0  0  0  0
  160.7240  210.7530  152.8440 O   0  0  0  0  0  0  0  0  0  0  0  0
  160.4290  211.6520  153.8690 C   0  0  0  0  0  0  0  0  0  0  0  0
  159.6770  212.6380  153.6370 O   0  0  0  0  0  0  0  0  0  0  0  0
  160.8840  211.4010  155.2780 C   0  0  0  0  0  2  0  0  0  0  0  0
  162.1960  210.7680  155.2670 N   0  0  0  0  0  2  0  0  0  0  0  0
  162.1950  209.7770  156.3290 C   0  0  0  0  0  2  0  0  0  0  0  0
  159.4720  207.2440  155.9440 C   0  0  0  0  0  3  0  0  0  0  0  0
  160.5810  206.6680  155.0560 C   0  0  0  0  0  3  0  0  0  0  0  0
  160.0750  208.4930  156.5000 C   0  0  0  0  0  3  0  0  0  0  0  0
  161.2840  208.6430  155.9980 C   0  0  0  0  0  0  0  0  0  0  0  0
  161.6140  207.6390  155.1130 O   0  0  0  0  0  0  0  0  0  0  0  0
  160.8420  203.9830  152.3130 N   0  0  0  0  0  0  0  0  0  0  0  0
  161.0280  204.1210  151.1800 C   0  0  0  0  0  0  0  0  0  0  0  0
  160.7790  201.9360  149.4400 O   0  0  0  0  0  0  0  0  0  0  0  0
  159.8690  201.0750  148.7750 C   0  0  0  0  0  2  0  0  0  0  0  0
  158.6040  200.9540  149.5950 C   0  0  0  0  0  1  0  0  0  0  0  0
  1 10  2  0  0  0  0
  1  5  1  0  0  0  0
  3 62  1  0  0  0  0
  5 12  2  0  0  0  0
  6  7  1  0  0  0  0
  7  4  1  1  0  0  0
  7  2  1  0  0  0  0
  7 42  1  0  0  0  0
  8 63  1  0  0  0  0
  8  3  2  0  0  0  0
  9 11  1  0  0  0  0
  9  5  1  0  0  0  0
 10  8  1  0  0  0  0
 11  6  1  0  0  0  0
 12  3  1  0  0  0  0
 12  2  1  0  0  0  0
 13 17  1  0  0  0  0
 13 15  1  0  0  0  0
 14  1  1  1  0  0  0
 15 18  1  0  0  0  0
 16 14  1  0  0  0  0
 17 16  2  0  0  0  0
 18 14  1  0  0  0  0
 19 24  1  0  0  0  0
 19 21  2  0  0  0  0
 20 26  1  1  0  0  0
 20 19  1  0  0  0  0
 22 20  1  0  0  0  0
 22 23  1  0  0  0  0
 24 23  1  6  0  0  0
 24 13  1  0  0  0  0
 25 26  2  0  0  0  0
 27 40  1  1  0  0  0
 28 36  1  0  0  0  0
 29 33  1  0  0  0  0
 30 29  1  6  0  0  0
 30 31  1  0  0  0  0
 30 35  1  0  0  0  0
 31 34  1  0  0  0  0
 33 37  1  1  0  0  0
 33 28  1  0  0  0  0
 34 27  1  0  0  0  0
 34 25  1  1  0  0  0
 35 32  1  6  0  0  0
 35 27  1  0  0  0  0
 36 27  1  0  0  0  0
 37 38  1  0  0  0  0
 40 39  1  0  0  0  0
 42 41  2  0  0  0  0
 43 42  1  0  0  0  0
 43 49  1  6  0  0  0
 44 43  1  0  0  0  0
 45 44  1  0  0  0  0
 46 48  1  0  0  0  0
 47 48  2  0  0  0  0
 48 45  1  0  0  0  0
 49 50  1  0  0  0  0
 50 51  1  0  0  0  0
 51 53  1  0  0  0  0
 52 51  2  0  0  0  0
 54 53  1  0  0  0  0
 54 55  1  0  0  0  0
 56 58  1  0  0  0  0
 57 60  1  0  0  0  0
 57 56  2  0  0  0  0
 59 55  1  0  0  0  0
 59 58  2  0  0  0  0
 60 59  1  0  0  0  0
 62 61  3  0  0  0  0
 64 63  1  0  0  0  0
 64 65  1  0  0  0  0
M  END
>  <MODEL>
2

>  <REMARK>
 VINA RESULT:       1.4      2.606      7.705
  Name = 
  21 active torsions:
  status: ('A' for Active; 'I' for Inactive)
    1  A    between atoms: C_1  and  C_53
    2  A    between atoms: C_3  and  C_7
    3  A    between atoms: C_4  and  C_61
    4  A    between atoms: N_5  and  C_38
    5  A    between atoms: C_6  and  C_51
    6  A    between atoms: C_9  and  C_26
    7  A    between atoms: C_19  and  C_41
    8  A    between atoms: C_19  and  O_50
    9  A    between atoms: C_21  and  O_55
   10  A    between atoms: C_21  and  C_60
   11  A    between atoms: C_25  and  C_35
   12  A    between atoms: C_27  and  C_47
   13  A    between atoms: C_27  and  O_55
   14  A    between atoms: N_28  and  C_48
   15  A    between atoms: N_28  and  C_60
   16  A    between atoms: C_33  and  O_58
   17  A    between atoms: C_35  and  C_47
   18  A    between atoms: C_44  and  C_52
   19  A    between atoms: C_46  and  O_58
   20  A    between atoms: C_47  and  O_50
   21  A    between atoms: C_48  and  C_57
                            x       y       z     vdW  Elec       q    Type
                         _______ _______ _______ _____ _____    ______ ____

>  <TORSDO>
F 21

$$$$
=
 OpenBabel11042423023D

 65 71  0  0  1  0  0  0  0  0999 V2000
  161.8900  204.2540  146.9280 C   0  0  0  0  0  0  0  0  0  0  0  0
  162.0440  206.1200  150.2500 C   0  0  0  0  0  2  0  0  0  0  0  0
  161.3160  203.7900  149.6500 C   0  0  0  0  0  0  0  0  0  0  0  0
  159.8800  207.3860  150.2810 C   0  0  0  0  0  1  0  0  0  0  0  0
  161.8320  205.3350  147.8340 C   0  0  0  0  0  0  0  0  0  0  0  0
  161.8360  208.2140  149.0190 O   0  0  0  0  0  0  0  0  0  0  0  0
  161.4110  207.5230  150.1810 C   0  0  2  0  0  0  0  0  0  0  0  0
  161.2640  202.7300  148.7330 C   0  0  0  0  0  0  0  0  0  0  0  0
  161.9580  206.6340  147.3350 O   0  0  0  0  0  0  0  0  0  0  0  0
  161.5770  202.9690  147.3900 C   0  0  0  0  0  3  0  0  0  0  0  0
  161.2130  207.7150  147.8680 C   0  0  0  0  0  2  0  0  0  0  0  0
  161.6360  205.0940  149.2140 C   0  0  0  0  0  0  0  0  0  0  0  0
  161.6650  205.6270  142.8780 N   0  0  0  0  0  0  0  0  0  0  0  0
  162.2270  204.4800  145.4630 C   0  0  1  0  0  3  0  0  0  0  0  0
  162.8420  206.0880  143.6320 C   0  0  0  0  0  2  0  0  0  0  0  0
  161.1100  203.9940  144.5680 C   0  0  0  0  0  3  0  0  0  0  0  0
  160.8870  204.5190  143.3620 C   0  0  0  0  0  3  0  0  0  0  0  0
  162.5970  205.9400  145.1320 C   0  0  0  0  0  2  0  0  0  0  0  0
  161.4860  207.6350  141.4840 C   0  0  0  0  0  0  0  0  0  0  0  0
  162.3830  208.0150  140.3740 C   0  0  2  0  0  3  0  0  0  0  0  0
  160.8670  208.4340  142.1700 O   0  0  0  0  0  0  0  0  0  0  0  0
  162.9980  206.7740  139.9020 N   0  0  0  0  0  2  0  0  0  0  0  0
  162.2500  205.6530  140.4820 C   0  0  0  0  0  2  0  0  0  0  0  0
  161.3100  206.1770  141.5650 C   0  0  1  0  0  3  0  0  0  0  0  0
  163.4140  210.2790  140.4750 C   0  0  0  0  0  3  0  0  0  0  0  0
  163.4500  208.9790  140.8110 C   0  0  0  0  0  3  0  0  0  0  0  0
  161.2750  211.7950  140.3670 C   0  0  1  0  0  0  0  0  0  0  0  0
  159.0970  211.5350  138.9060 C   0  0  0  0  0  2  0  0  0  0  0  0
  160.8030  212.5500  137.2560 C   0  0  0  0  0  2  0  0  0  0  0  0
  161.9300  212.8390  138.2690 C   0  0  2  0  0  3  0  0  0  0  0  0
  162.8480  211.6450  138.4570 C   0  0  0  0  0  2  0  0  0  0  0  0
  160.2880  213.9510  139.7000 O   0  0  0  0  0  1  0  0  0  0  0  0
  159.8430  211.3900  137.5790 C   0  0  1  0  0  3  0  0  0  0  0  0
  162.3000  210.8770  139.6520 C   0  0  1  0  0  3  0  0  0  0  0  0
  161.4350  213.1500  139.6700 C   0  0  1  0  0  3  0  0  0  0  0  0
  159.8880  211.1490  140.1690 C   0  0  0  0  0  2  0  0  0  0  0  0
  160.4380  210.0090  137.3270 C   0  0  0  0  0  2  0  0  0  0  0  0
  159.3460  208.9580  137.2640 C   0  0  0  0  0  1  0  0  0  0  0  0
  160.2010  212.1450  142.6760 C   0  0  0  0  0  1  0  0  0  0  0  0
  161.4870  211.9490  141.8870 C   0  0  0  0  0  2  0  0  0  0  0  0
  162.4490  207.7000  152.4270 C   0  0  0  0  0  2  0  0  0  0  0  0
  161.9370  208.3330  151.3680 C   0  0  0  0  0  0  0  0  0  0  0  0
  162.1680  209.8250  151.3170 C   0  0  1  0  0  3  0  0  0  0  0  0
  162.3150  210.2680  150.0010 O   0  0  0  0  0  0  0  0  0  0  0  0
  161.5980  211.4650  149.9430 C   0  0  0  0  0  2  0  0  0  0  0  0
  162.8530  211.7580  147.9390 O   0  0  0  0  0  0  0  0  0  0  0  0
  161.6480  213.5890  148.6360 O   0  0  0  0  0  1  0  0  0  0  0  0
  162.0780  212.2730  148.7890 C   0  0  0  0  0  0  0  0  0  0  0  0
  161.0270  210.5840  151.9950 C   0  0  0  0  0  2  0  0  0  0  0  0
  161.2010  210.5400  153.4100 O   0  0  0  0  0  0  0  0  0  0  0  0
  160.6310  211.4880  154.2590 C   0  0  0  0  0  0  0  0  0  0  0  0
  161.0580  211.6050  155.4400 O   0  0  0  0  0  0  0  0  0  0  0  0
  159.6040  212.4630  153.7580 C   0  0  0  0  0  2  0  0  0  0  0  0
  159.1310  213.2910  154.8600 N   0  0  0  0  0  2  0  0  0  0  0  0
  157.7410  213.6070  154.5840 C   0  0  0  0  0  2  0  0  0  0  0  0
  155.4000  211.5430  156.6430 C   0  0  0  0  0  3  0  0  0  0  0  0
  155.7100  210.6100  155.4680 C   0  0  0  0  0  3  0  0  0  0  0  0
  156.2090  212.7650  156.3490 C   0  0  0  0  0  3  0  0  0  0  0  0
  156.8330  212.5970  155.2010 C   0  0  0  0  0  0  0  0  0  0  0  0
  156.5420  211.3830  154.6170 O   0  0  0  0  0  0  0  0  0  0  0  0
  160.8810  203.2970  152.1680 N   0  0  0  0  0  0  0  0  0  0  0  0
  161.0720  203.5200  151.0500 C   0  0  0  0  0  0  0  0  0  0  0  0
  160.9150  201.4460  149.1690 O   0  0  0  0  0  0  0  0  0  0  0  0
  159.7080  201.1700  149.8620 C   0  0  0  0  0  2  0  0  0  0  0  0
  158.5510  201.2170  148.8900 C   0  0  0  0  0  1  0  0  0  0  0  0
  1 10  2  0  0  0  0
  1  5  1  0  0  0  0
  3 62  1  0  0  0  0
  5 12  2  0  0  0  0
  6  7  1  0  0  0  0
  7  2  1  0  0  0  0
  7  4  1  1  0  0  0
  7 42  1  0  0  0  0
  8 63  1  0  0  0  0
  8  3  2  0  0  0  0
  9  5  1  0  0  0  0
  9 11  1  0  0  0  0
 10  8  1  0  0  0  0
 11  6  1  0  0  0  0
 12  3  1  0  0  0  0
 12  2  1  0  0  0  0
 13 17  1  0  0  0  0
 13 15  1  0  0  0  0
 14  1  1  1  0  0  0
 15 18  1  0  0  0  0
 16 14  1  0  0  0  0
 17 16  2  0  0  0  0
 18 14  1  0  0  0  0
 19 24  1  0  0  0  0
 19 21  2  0  0  0  0
 20 26  1  1  0  0  0
 20 19  1  0  0  0  0
 22 20  1  0  0  0  0
 22 23  1  0  0  0  0
 24 23  1  6  0  0  0
 24 13  1  0  0  0  0
 25 26  2  0  0  0  0
 27 40  1  1  0  0  0
 28 36  1  0  0  0  0
 29 33  1  0  0  0  0
 30 29  1  6  0  0  0
 30 31  1  0  0  0  0
 30 35  1  0  0  0  0
 31 34  1  0  0  0  0
 33 37  1  1  0  0  0
 33 28  1  0  0  0  0
 34 27  1  0  0  0  0
 34 25  1  1  0  0  0
 35 32  1  6  0  0  0
 35 27  1  0  0  0  0
 36 27  1  0  0  0  0
 38 37  1  0  0  0  0
 40 39  1  0  0  0  0
 42 41  2  0  0  0  0
 43 42  1  0  0  0  0
 43 49  1  6  0  0  0
 44 43  1  0  0  0  0
 45 44  1  0  0  0  0
 46 48  2  0  0  0  0
 47 48  1  0  0  0  0
 48 45  1  0  0  0  0
 49 50  1  0  0  0  0
 50 51  1  0  0  0  0
 51 52  2  0  0  0  0
 53 51  1  0  0  0  0
 53 54  1  0  0  0  0
 55 54  1  0  0  0  0
 55 59  1  0  0  0  0
 57 56  2  0  0  0  0
 58 56  1  0  0  0  0
 59 58  2  0  0  0  0
 60 59  1  0  0  0  0
 60 57  1  0  0  0  0
 62 61  3  0  0  0  0
 63 64  1  0  0  0  0
 65 64  1  0  0  0  0
M  END
>  <MODEL>
3

>  <REMARK>
 VINA RESULT:       1.4      2.551      8.369
  Name = 
  21 active torsions:
  status: ('A' for Active; 'I' for Inactive)
    1  A    between atoms: C_1  and  C_53
    2  A    between atoms: C_3  and  C_7
    3  A    between atoms: C_4  and  C_61
    4  A    between atoms: N_5  and  C_38
    5  A    between atoms: C_6  and  C_51
    6  A    between atoms: C_9  and  C_26
    7  A    between atoms: C_19  and  C_41
    8  A    between atoms: C_19  and  O_50
    9  A    between atoms: C_21  and  O_55
   10  A    between atoms: C_21  and  C_60
   11  A    between atoms: C_25  and  C_35
   12  A    between atoms: C_27  and  C_47
   13  A    between atoms: C_27  and  O_55
   14  A    between atoms: N_28  and  C_48
   15  A    between atoms: N_28  and  C_60
   16  A    between atoms: C_33  and  O_58
   17  A    between atoms: C_35  and  C_47
   18  A    between atoms: C_44  and  C_52
   19  A    between atoms: C_46  and  O_58
   20  A    between atoms: C_47  and  O_50
   21  A    between atoms: C_48  and  C_57
                            x       y       z     vdW  Elec       q    Type
                         _______ _______ _______ _____ _____    ______ ____

>  <TORSDO>
F 21

$$$$
