=
 OpenBabel11052410373D

 25 28  0  0  1  0  0  0  0  0999 V2000
  160.2750  208.3580  155.7980 C   0  0  0  0  0  3  0  0  0  0  0  0
  161.9310  207.8720  151.3760 N   0  0  0  0  0  0  0  0  0  0  0  0
  158.7620  211.8650  153.8410 C   0  0  0  0  0  1  0  0  0  0  0  0
  160.8400  209.2000  154.7470 N   0  0  0  0  0  0  0  0  0  0  0  0
  161.6680  210.9980  149.6160 O   0  0  0  0  0  0  0  0  0  0  0  0
  161.7460  209.9860  150.5870 C   0  0  0  0  0  0  0  0  0  0  0  0
  161.4820  212.3880  149.9070 C   0  0  2  0  0  3  0  0  0  0  0  0
  160.5060  211.1250  152.2790 N   0  0  0  0  0  0  0  0  0  0  0  0
  160.4470  206.9520  155.2990 C   0  0  0  0  0  3  0  0  0  0  0  0
  162.6140  210.7030  154.4420 O   0  0  0  0  0  0  0  0  0  0  0  0
  161.4550  208.7400  152.4020 C   0  0  1  0  0  3  0  0  0  0  0  0
  161.1510  208.3390  153.6510 C   0  0  0  0  0  0  0  0  0  0  0  0
  161.3700  210.0860  151.8510 C   0  0  0  0  0  0  0  0  0  0  0  0
  160.0760  212.5170  151.9810 C   0  0  2  0  0  3  0  0  0  0  0  0
  159.1040  211.6320  152.3860 C   0  0  2  0  0  3  0  0  0  0  0  0
  161.5830  210.3810  155.0930 C   0  0  0  0  0  0  0  0  0  0  0  0
  162.1170  208.5970  150.3180 C   0  0  0  0  0  3  0  0  0  0  0  0
  160.9530  206.9620  154.0780 C   0  0  0  0  0  0  0  0  0  0  0  0
  160.0810  212.6710  150.4670 C   0  0  0  0  0  2  0  0  0  0  0  0
  161.1910  211.1960  156.2820 C   0  0  0  0  0  2  0  0  0  0  0  0
  162.1990  211.1550  157.2440 O   0  0  0  0  0  1  0  0  0  0  0  0
  162.8150  212.6470  147.8870 N   0  0  0  0  0  1  0  0  0  0  0  0
  161.6930  213.1880  148.6350 C   0  0  0  0  0  2  0  0  0  0  0  0
  161.4090  204.8080  152.7010 N   0  0  0  0  0  0  0  0  0  0  0  0
  161.2060  205.7690  153.3150 C   0  0  0  0  0  0  0  0  0  0  0  0
  2 11  1  0  0  0  0
  4 16  1  0  0  0  0
  4  1  1  0  0  0  0
  5  7  1  0  0  0  0
  5  6  1  0  0  0  0
  6 13  2  0  0  0  0
  7 23  1  6  0  0  0
  7 19  1  0  0  0  0
  8 15  1  0  0  0  0
  9  1  2  0  0  0  0
 10 16  2  0  0  0  0
 11 12  1  1  0  0  0
 12 18  2  0  0  0  0
 12  4  1  0  0  0  0
 13  8  1  0  0  0  0
 13 11  1  0  0  0  0
 14 19  1  6  0  0  0
 14  8  1  0  0  0  0
 14 15  1  0  0  0  0
 15  3  1  1  0  0  0
 16 20  1  0  0  0  0
 17  6  1  0  0  0  0
 17  2  2  0  0  0  0
 18  9  1  0  0  0  0
 20 21  1  0  0  0  0
 22 23  1  0  0  0  0
 24 25  3  0  0  0  0
 25 18  1  0  0  0  0
M  END
>  <MODEL>
1

>  <REMARK>
 VINA RESULT:      -5.8      0.000      0.000
  Name = 
  3 active torsions:
  status: ('A' for Active; 'I' for Inactive)
    1  A    between atoms: C_2  and  C_21
    2  A    between atoms: C_9  and  C_11
    3  A    between atoms: C_18  and  C_23
                            x       y       z     vdW  Elec       q    Type
                         _______ _______ _______ _____ _____    ______ ____

>  <TORSDO>
F 3

$$$$
=
 OpenBabel11052410373D

 25 28  0  0  1  0  0  0  0  0999 V2000
  161.6750  203.9870  146.7320 C   0  0  0  0  0  3  0  0  0  0  0  0
  160.5870  203.7580  151.3460 N   0  0  0  0  0  0  0  0  0  0  0  0
  163.1880  207.7110  148.2380 C   0  0  0  0  0  1  0  0  0  0  0  0
  161.1870  204.8770  147.7820 N   0  0  0  0  0  0  0  0  0  0  0  0
  160.8620  207.0200  152.8370 O   0  0  0  0  0  0  0  0  0  0  0  0
  160.7320  205.9330  151.9570 C   0  0  0  0  0  0  0  0  0  0  0  0
  160.9240  208.3910  152.4280 C   0  0  2  0  0  3  0  0  0  0  0  0
  161.6900  207.0020  150.0490 N   0  0  0  0  0  0  0  0  0  0  0  0
  161.6510  202.6170  147.3460 C   0  0  0  0  0  3  0  0  0  0  0  0
  159.3710  206.3030  148.1960 O   0  0  0  0  0  0  0  0  0  0  0  0
  160.8830  204.5680  150.2110 C   0  0  0  0  0  0  0  0  0  0  0  0
  161.0630  204.0880  148.9660 C   0  0  0  0  0  0  0  0  0  0  0  0
  160.9490  205.9550  150.6520 C   0  0  0  0  0  0  0  0  0  0  0  0
  162.0660  208.4340  150.1930 C   0  0  2  0  0  3  0  0  0  0  0  0
  163.0350  207.5730  149.7360 C   0  0  2  0  0  3  0  0  0  0  0  0
  160.3360  205.9870  147.4480 C   0  0  0  0  0  0  0  0  0  0  0  0
  160.4820  204.5520  152.3660 C   0  0  0  0  0  2  0  0  0  0  0  0
  161.2940  202.6950  148.6160 C   0  0  0  0  0  0  0  0  0  0  0  0
  162.2290  208.7050  151.6820 C   0  0  0  0  0  2  0  0  0  0  0  0
  160.5350  206.7270  146.1650 C   0  0  0  0  0  2  0  0  0  0  0  0
  159.8370  206.0960  145.1360 O   0  0  0  0  0  1  0  0  0  0  0  0
  161.0270  208.4860  154.8580 N   0  0  0  0  0  1  0  0  0  0  0  0
  160.8160  209.2750  153.6570 C   0  0  0  0  0  2  0  0  0  0  0  0
  161.1380  200.6320  150.1860 N   0  0  0  0  0  0  0  0  0  0  0  0
  161.2070  201.5520  149.4860 C   0  0  0  0  0  0  0  0  0  0  0  0
  1  9  2  0  0  0  0
  1  4  1  0  0  0  0
  2 17  1  0  0  0  0
  4 12  1  0  0  0  0
  6 17  1  0  0  0  0
  6  5  1  0  0  0  0
  7  5  1  0  0  0  0
  7 23  1  1  0  0  0
  8 14  1  0  0  0  0
  8 13  1  0  0  0  0
  9 18  1  0  0  0  0
 11 13  1  0  0  0  0
 11  2  2  0  0  0  0
 12 11  1  0  0  0  0
 13  6  2  0  0  0  0
 14 19  1  1  0  0  0
 15  3  1  6  0  0  0
 15  8  1  0  0  0  0
 15 14  1  0  0  0  0
 16  4  1  0  0  0  0
 16 10  2  0  0  0  0
 18 12  2  0  0  0  0
 18 25  1  0  0  0  0
 19  7  1  0  0  0  0
 20 16  1  0  0  0  0
 21 20  1  0  0  0  0
 23 22  1  0  0  0  0
 25 24  3  0  0  0  0
M  END
>  <MODEL>
2

>  <REMARK>
 VINA RESULT:      -4.9      3.948      7.172
  Name = 
  3 active torsions:
  status: ('A' for Active; 'I' for Inactive)
    1  A    between atoms: C_2  and  C_21
    2  A    between atoms: C_9  and  C_11
    3  A    between atoms: C_18  and  C_23
                            x       y       z     vdW  Elec       q    Type
                         _______ _______ _______ _____ _____    ______ ____

>  <TORSDO>
F 3

$$$$
=
 OpenBabel11052410373D

 25 28  0  0  1  0  0  0  0  0999 V2000
  160.8280  206.5850  147.7720 C   0  0  0  0  0  3  0  0  0  0  0  0
  161.2900  202.3520  149.8710 N   0  0  0  0  0  0  0  0  0  0  0  0
  159.5350  203.8720  144.7070 C   0  0  0  0  0  1  0  0  0  0  0  0
  161.2690  205.2370  147.4220 N   0  0  0  0  0  0  0  0  0  0  0  0
  161.1720  199.7380  147.4030 O   0  0  0  0  0  0  0  0  0  0  0  0
  161.2980  200.9580  148.0870 C   0  0  0  0  0  0  0  0  0  0  0  0
  161.3060  199.5860  145.9850 C   0  0  2  0  0  3  0  0  0  0  0  0
  160.7070  202.3690  146.2540 N   0  0  0  0  0  0  0  0  0  0  0  0
  160.6300  206.5510  149.2600 C   0  0  0  0  0  3  0  0  0  0  0  0
  163.1570  204.1640  146.5360 O   0  0  0  0  0  0  0  0  0  0  0  0
  161.2280  203.1030  148.6600 C   0  0  0  0  0  0  0  0  0  0  0  0
  161.1590  204.4460  148.6070 C   0  0  0  0  0  0  0  0  0  0  0  0
  161.2520  202.1650  147.5460 C   0  0  0  0  0  0  0  0  0  0  0  0
  160.4690  201.7090  144.9420 C   0  0  2  0  0  3  0  0  0  0  0  0
  159.4800  202.5380  145.4180 C   0  0  2  0  0  3  0  0  0  0  0  0
  162.2670  205.0470  146.4050 C   0  0  0  0  0  0  0  0  0  0  0  0
  161.3480  201.1000  149.5410 C   0  0  0  0  0  2  0  0  0  0  0  0
  160.8290  205.3270  149.7170 C   0  0  0  0  0  0  0  0  0  0  0  0
  160.1470  200.2500  145.2290 C   0  0  0  0  0  2  0  0  0  0  0  0
  162.3120  205.9530  145.2180 C   0  0  0  0  0  2  0  0  0  0  0  0
  161.8560  205.2790  144.0840 O   0  0  0  0  0  1  0  0  0  0  0  0
  161.6290  197.9200  144.2400 N   0  0  0  0  0  1  0  0  0  0  0  0
  161.3500  198.1060  145.6530 C   0  0  0  0  0  2  0  0  0  0  0  0
  160.5680  204.6740  152.2170 N   0  0  0  0  0  0  0  0  0  0  0  0
  160.6840  204.9650  151.1020 C   0  0  0  0  0  0  0  0  0  0  0  0
  1  9  2  0  0  0  0
  4  1  1  0  0  0  0
  4 12  1  0  0  0  0
  5  6  1  0  0  0  0
  6 17  1  0  0  0  0
  7 23  1  1  0  0  0
  7  5  1  0  0  0  0
  8 13  1  0  0  0  0
  9 18  1  0  0  0  0
 11  2  2  0  0  0  0
 12 11  1  0  0  0  0
 12 18  2  0  0  0  0
 13  6  2  0  0  0  0
 13 11  1  0  0  0  0
 14 19  1  1  0  0  0
 14 15  1  0  0  0  0
 14  8  1  0  0  0  0
 15  3  1  6  0  0  0
 15  8  1  0  0  0  0
 16 10  2  0  0  0  0
 16  4  1  0  0  0  0
 17  2  1  0  0  0  0
 18 25  1  0  0  0  0
 19  7  1  0  0  0  0
 20 16  1  0  0  0  0
 21 20  1  0  0  0  0
 22 23  1  0  0  0  0
 25 24  3  0  0  0  0
M  END
>  <MODEL>
3

>  <REMARK>
 VINA RESULT:      -4.0      7.083     10.271
  Name = 
  3 active torsions:
  status: ('A' for Active; 'I' for Inactive)
    1  A    between atoms: C_2  and  C_21
    2  A    between atoms: C_9  and  C_11
    3  A    between atoms: C_18  and  C_23
                            x       y       z     vdW  Elec       q    Type
                         _______ _______ _______ _____ _____    ______ ____

>  <TORSDO>
F 3

$$$$
=
 OpenBabel11052410373D

 25 28  0  0  1  0  0  0  0  0999 V2000
  157.7130  214.3350  141.3160 C   0  0  0  0  0  3  0  0  0  0  0  0
  161.6560  211.7180  141.6810 N   0  0  0  0  0  0  0  0  0  0  0  0
  156.8900  211.0320  138.7020 C   0  0  0  0  0  1  0  0  0  0  0  0
  158.5830  213.5480  140.4470 N   0  0  0  0  0  0  0  0  0  0  0  0
  161.7920  209.3210  139.0020 O   0  0  0  0  0  0  0  0  0  0  0  0
  161.5140  210.4210  139.8310 C   0  0  0  0  0  0  0  0  0  0  0  0
  161.1840  209.0950  137.7250 C   0  0  2  0  0  3  0  0  0  0  0  0
  159.3220  210.8570  138.9910 N   0  0  0  0  0  0  0  0  0  0  0  0
  158.4320  214.3900  142.6330 C   0  0  0  0  0  3  0  0  0  0  0  0
  159.8460  213.8190  138.4880 O   0  0  0  0  0  0  0  0  0  0  0  0
  160.5090  212.0780  140.9150 C   0  0  0  0  0  0  0  0  0  0  0  0
  159.6390  213.0440  141.2670 C   0  0  0  0  0  0  0  0  0  0  0  0
  160.4720  211.2300  139.7320 C   0  0  0  0  0  0  0  0  0  0  0  0
  158.8560  210.0240  137.8510 C   0  0  2  0  0  3  0  0  0  0  0  0
  158.0430  210.0850  138.9570 C   0  0  2  0  0  3  0  0  0  0  0  0
  158.7250  213.9010  139.0600 C   0  0  0  0  0  0  0  0  0  0  0  0
  162.2550  210.7610  141.0450 C   0  0  0  0  0  2  0  0  0  0  0  0
  159.5290  213.6530  142.5830 C   0  0  0  0  0  0  0  0  0  0  0  0
  159.6940  208.7530  137.8560 C   0  0  0  0  0  2  0  0  0  0  0  0
  157.5610  214.4510  138.3010 C   0  0  0  0  0  2  0  0  0  0  0  0
  157.5360  213.9180  137.0120 O   0  0  0  0  0  1  0  0  0  0  0  0
  162.3060  206.9530  138.0040 N   0  0  0  0  0  1  0  0  0  0  0  0
  161.9100  207.9570  137.0320 C   0  0  0  0  0  2  0  0  0  0  0  0
  161.1340  213.3390  144.6000 N   0  0  0  0  0  0  0  0  0  0  0  0
  160.4190  213.4790  143.7000 C   0  0  0  0  0  0  0  0  0  0  0  0
  1  9  2  0  0  0  0
  4 12  1  0  0  0  0
  4  1  1  0  0  0  0
  5  6  1  0  0  0  0
  6 17  1  0  0  0  0
  7 23  1  1  0  0  0
  7 19  1  0  0  0  0
  7  5  1  0  0  0  0
  8 13  1  0  0  0  0
 10 16  2  0  0  0  0
 11 12  1  0  0  0  0
 11  2  2  0  0  0  0
 12 18  2  0  0  0  0
 13  6  2  0  0  0  0
 13 11  1  0  0  0  0
 14 19  1  1  0  0  0
 14 15  1  0  0  0  0
 14  8  1  0  0  0  0
 15  3  1  6  0  0  0
 15  8  1  0  0  0  0
 16  4  1  0  0  0  0
 17  2  1  0  0  0  0
 18  9  1  0  0  0  0
 18 25  1  0  0  0  0
 20 16  1  0  0  0  0
 21 20  1  0  0  0  0
 23 22  1  0  0  0  0
 25 24  3  0  0  0  0
M  END
>  <MODEL>
4

>  <REMARK>
 VINA RESULT:      -3.6     10.717     13.908
  Name = 
  3 active torsions:
  status: ('A' for Active; 'I' for Inactive)
    1  A    between atoms: C_2  and  C_21
    2  A    between atoms: C_9  and  C_11
    3  A    between atoms: C_18  and  C_23
                            x       y       z     vdW  Elec       q    Type
                         _______ _______ _______ _____ _____    ______ ____

>  <TORSDO>
F 3

$$$$
=
 OpenBabel11052410373D

 25 28  0  0  1  0  0  0  0  0999 V2000
  158.8870  212.7650  148.1060 C   0  0  0  0  0  3  0  0  0  0  0  0
  156.7330  214.2150  152.0790 N   0  0  0  0  0  0  0  0  0  0  0  0
  160.8190  210.4120  151.1310 C   0  0  0  0  0  1  0  0  0  0  0  0
  159.2420  213.0690  149.4900 N   0  0  0  0  0  0  0  0  0  0  0  0
  158.6290  213.1740  154.9540 O   0  0  0  0  0  0  0  0  0  0  0  0
  158.1960  213.5290  153.6660 C   0  0  0  0  0  0  0  0  0  0  0  0
  159.9480  212.7100  155.2660 C   0  0  2  0  0  3  0  0  0  0  0  0
  159.7530  212.1760  152.4640 N   0  0  0  0  0  0  0  0  0  0  0  0
  157.4580  213.2070  147.9690 C   0  0  0  0  0  3  0  0  0  0  0  0
  160.7160  214.4530  150.6780 O   0  0  0  0  0  0  0  0  0  0  0  0
  157.8790  213.6260  151.4690 C   0  0  0  0  0  0  0  0  0  0  0  0
  158.0430  213.4920  150.1400 C   0  0  0  0  0  0  0  0  0  0  0  0
  158.7940  213.2180  152.5270 C   0  0  0  0  0  0  0  0  0  0  0  0
  160.7660  211.4370  153.2640 C   0  0  2  0  0  3  0  0  0  0  0  0
  160.0120  210.7070  152.3760 C   0  0  2  0  0  3  0  0  0  0  0  0
  160.5570  213.5580  149.8040 C   0  0  0  0  0  0  0  0  0  0  0  0
  156.9200  214.1750  153.3620 C   0  0  0  0  0  2  0  0  0  0  0  0
  156.9980  213.6230  149.1360 C   0  0  0  0  0  0  0  0  0  0  0  0
  160.2160  211.3170  154.6780 C   0  0  0  0  0  2  0  0  0  0  0  0
  161.7440  213.0700  149.0390 C   0  0  0  0  0  2  0  0  0  0  0  0
  162.1970  214.0660  148.1730 O   0  0  0  0  0  1  0  0  0  0  0  0
  161.1970  211.7760  157.1350 N   0  0  0  0  0  1  0  0  0  0  0  0
  160.1060  212.6650  156.7750 C   0  0  0  0  0  2  0  0  0  0  0  0
  154.5640  214.4520  149.5000 N   0  0  0  0  0  0  0  0  0  0  0  0
  155.6490  214.0820  149.3380 C   0  0  0  0  0  0  0  0  0  0  0  0
  1  4  1  0  0  0  0
  2 17  1  0  0  0  0
  4 16  1  0  0  0  0
  4 12  1  0  0  0  0
  5  7  1  0  0  0  0
  6  5  1  0  0  0  0
  7 23  1  1  0  0  0
  8 13  1  0  0  0  0
  8 14  1  0  0  0  0
  9  1  2  0  0  0  0
  9 18  1  0  0  0  0
 11  2  2  0  0  0  0
 11 13  1  0  0  0  0
 12 11  1  0  0  0  0
 13  6  2  0  0  0  0
 14 19  1  1  0  0  0
 15  3  1  6  0  0  0
 15  8  1  0  0  0  0
 15 14  1  0  0  0  0
 16 10  2  0  0  0  0
 17  6  1  0  0  0  0
 18 25  1  0  0  0  0
 18 12  2  0  0  0  0
 19  7  1  0  0  0  0
 20 16  1  0  0  0  0
 21 20  1  0  0  0  0
 23 22  1  0  0  0  0
 25 24  3  0  0  0  0
M  END
>  <MODEL>
5

>  <REMARK>
 VINA RESULT:      -3.2      3.340      7.321
  Name = 
  3 active torsions:
  status: ('A' for Active; 'I' for Inactive)
    1  A    between atoms: C_2  and  C_21
    2  A    between atoms: C_9  and  C_11
    3  A    between atoms: C_18  and  C_23
                            x       y       z     vdW  Elec       q    Type
                         _______ _______ _______ _____ _____    ______ ____

>  <TORSDO>
F 3

$$$$
=
 OpenBabel11052410373D

 25 28  0  0  1  0  0  0  0  0999 V2000
  161.1630  209.7830  150.9600 C   0  0  0  0  0  3  0  0  0  0  0  0
  161.0630  206.0090  153.8370 N   0  0  0  0  0  0  0  0  0  0  0  0
  160.0830  206.5980  148.2920 C   0  0  0  0  0  1  0  0  0  0  0  0
  161.5500  208.3750  150.9250 N   0  0  0  0  0  0  0  0  0  0  0  0
  161.0780  202.9820  151.8940 O   0  0  0  0  0  0  0  0  0  0  0  0
  161.2000  204.3030  152.3550 C   0  0  0  0  0  0  0  0  0  0  0  0
  161.3790  202.5580  150.5590 C   0  0  2  0  0  3  0  0  0  0  0  0
  160.9440  205.3650  150.2320 N   0  0  0  0  0  0  0  0  0  0  0  0
  160.7770  210.0400  152.3880 C   0  0  0  0  0  3  0  0  0  0  0  0
  163.4570  207.0710  150.5160 O   0  0  0  0  0  0  0  0  0  0  0  0
  161.2060  206.5180  152.5130 C   0  0  0  0  0  0  0  0  0  0  0  0
  161.2370  207.8290  152.2070 C   0  0  0  0  0  0  0  0  0  0  0  0
  161.3060  205.3860  151.6030 C   0  0  0  0  0  0  0  0  0  0  0  0
  160.8290  204.4800  149.0420 C   0  0  2  0  0  3  0  0  0  0  0  0
  159.8480  205.4270  149.2190 C   0  0  2  0  0  3  0  0  0  0  0  0
  162.6540  207.9520  150.1050 C   0  0  0  0  0  0  0  0  0  0  0  0
  161.0750  204.7150  153.7520 C   0  0  0  0  0  2  0  0  0  0  0  0
  160.8310  208.9170  153.0830 C   0  0  0  0  0  0  0  0  0  0  0  0
  160.3730  203.1170  149.5420 C   0  0  0  0  0  2  0  0  0  0  0  0
  162.9110  208.6130  148.7910 C   0  0  0  0  0  2  0  0  0  0  0  0
  162.7100  207.7050  147.7510 O   0  0  0  0  0  1  0  0  0  0  0  0
  161.2060  200.5880  149.1400 N   0  0  0  0  0  1  0  0  0  0  0  0
  161.3620  201.0410  150.5110 C   0  0  0  0  0  2  0  0  0  0  0  0
  160.2110  208.7620  155.6000 N   0  0  0  0  0  0  0  0  0  0  0  0
  160.4880  208.8310  154.4780 C   0  0  0  0  0  0  0  0  0  0  0  0
  1  9  2  0  0  0  0
  4  1  1  0  0  0  0
  4 12  1  0  0  0  0
  5  6  1  0  0  0  0
  6 17  1  0  0  0  0
  7 23  1  1  0  0  0
  7  5  1  0  0  0  0
  8 13  1  0  0  0  0
  9 18  1  0  0  0  0
 11  2  2  0  0  0  0
 12 11  1  0  0  0  0
 12 18  2  0  0  0  0
 13  6  2  0  0  0  0
 13 11  1  0  0  0  0
 14 15  1  0  0  0  0
 14 19  1  1  0  0  0
 14  8  1  0  0  0  0
 15  3  1  6  0  0  0
 15  8  1  0  0  0  0
 16 10  2  0  0  0  0
 16  4  1  0  0  0  0
 17  2  1  0  0  0  0
 18 25  1  0  0  0  0
 19  7  1  0  0  0  0
 20 16  1  0  0  0  0
 21 20  1  0  0  0  0
 22 23  1  0  0  0  0
 25 24  3  0  0  0  0
M  END
>  <MODEL>
6

>  <REMARK>
 VINA RESULT:      -3.1      3.351      6.971
  Name = 
  3 active torsions:
  status: ('A' for Active; 'I' for Inactive)
    1  A    between atoms: C_2  and  C_21
    2  A    between atoms: C_9  and  C_11
    3  A    between atoms: C_18  and  C_23
                            x       y       z     vdW  Elec       q    Type
                         _______ _______ _______ _____ _____    ______ ____

>  <TORSDO>
F 3

$$$$
=
 OpenBabel11052410373D

 25 28  0  0  1  0  0  0  0  0999 V2000
  159.6400  214.3340  151.7040 C   0  0  0  0  0  3  0  0  0  0  0  0
  161.6980  210.3550  150.1350 N   0  0  0  0  0  0  0  0  0  0  0  0
  160.3810  212.1680  155.3340 C   0  0  0  0  0  1  0  0  0  0  0  0
  159.6160  212.9040  152.0010 N   0  0  0  0  0  0  0  0  0  0  0  0
  161.6880  207.8620  152.7280 O   0  0  0  0  0  0  0  0  0  0  0  0
  161.4330  208.9760  151.9110 C   0  0  0  0  0  0  0  0  0  0  0  0
  161.0240  207.6000  153.9700 C   0  0  2  0  0  3  0  0  0  0  0  0
  160.6220  210.4110  153.6370 N   0  0  0  0  0  0  0  0  0  0  0  0
  160.4540  214.4530  150.4480 C   0  0  0  0  0  3  0  0  0  0  0  0
  158.0650  211.1510  152.1480 O   0  0  0  0  0  0  0  0  0  0  0  0
  160.9570  211.0120  151.1610 C   0  0  2  0  0  3  0  0  0  0  0  0
  160.5030  212.2760  151.0740 C   0  0  0  0  0  0  0  0  0  0  0  0
  160.8000  210.0800  152.2700 C   0  0  0  0  0  0  0  0  0  0  0  0
  160.4960  209.8270  154.9990 C   0  0  2  0  0  3  0  0  0  0  0  0
  161.2160  210.9920  154.8790 C   0  0  2  0  0  3  0  0  0  0  0  0
  158.4230  212.2990  152.5280 C   0  0  0  0  0  0  0  0  0  0  0  0
  161.9650  209.1600  150.5610 C   0  0  0  0  0  3  0  0  0  0  0  0
  160.9320  213.2690  150.1030 C   0  0  0  0  0  0  0  0  0  0  0  0
  161.4160  208.6160  155.0520 C   0  0  0  0  0  2  0  0  0  0  0  0
  157.5470  213.0590  153.4690 C   0  0  0  0  0  2  0  0  0  0  0  0
  156.2940  213.2700  152.8930 O   0  0  0  0  0  1  0  0  0  0  0  0
  161.2040  205.2550  153.3440 N   0  0  0  0  0  1  0  0  0  0  0  0
  161.3840  206.2000  154.4320 C   0  0  0  0  0  2  0  0  0  0  0  0
  162.4580  212.8900  148.0360 N   0  0  0  0  0  0  0  0  0  0  0  0
  161.7770  213.0600  148.9570 C   0  0  0  0  0  0  0  0  0  0  0  0
  1  4  1  0  0  0  0
  2 17  2  0  0  0  0
  2 11  1  0  0  0  0
  4 16  1  0  0  0  0
  5  7  1  0  0  0  0
  6 13  2  0  0  0  0
  6  5  1  0  0  0  0
  7 23  1  1  0  0  0
  7 19  1  0  0  0  0
  8 15  1  0  0  0  0
  8 14  1  0  0  0  0
  9  1  2  0  0  0  0
 10 16  2  0  0  0  0
 11 12  1  1  0  0  0
 11 13  1  0  0  0  0
 12  4  1  0  0  0  0
 13  8  1  0  0  0  0
 14 19  1  6  0  0  0
 15 14  1  0  0  0  0
 15  3  1  1  0  0  0
 16 20  1  0  0  0  0
 17  6  1  0  0  0  0
 18  9  1  0  0  0  0
 18 12  2  0  0  0  0
 21 20  1  0  0  0  0
 22 23  1  0  0  0  0
 24 25  3  0  0  0  0
 25 18  1  0  0  0  0
M  END
>  <MODEL>
7

>  <REMARK>
 VINA RESULT:      -3.0      2.128      5.814
  Name = 
  3 active torsions:
  status: ('A' for Active; 'I' for Inactive)
    1  A    between atoms: C_2  and  C_21
    2  A    between atoms: C_9  and  C_11
    3  A    between atoms: C_18  and  C_23
                            x       y       z     vdW  Elec       q    Type
                         _______ _______ _______ _____ _____    ______ ____

>  <TORSDO>
F 3

$$$$
