=
 OpenBabel11042421283D

 53 59  0  0  1  0  0  0  0  0999 V2000
  162.2070  208.4490  150.8440 C   0  0  2  0  0  3  0  0  0  0  0  0
  161.7290  208.0690  152.2230 C   0  0  0  0  0  0  0  0  0  0  0  0
  160.7520  207.3810  154.7330 C   0  0  0  0  0  3  0  0  0  0  0  0
  161.5260  209.0660  153.1870 C   0  0  0  0  0  3  0  0  0  0  0  0
  161.4190  206.7740  152.5240 N   0  0  0  0  0  0  0  0  0  0  0  0
  161.0440  208.7230  154.4560 C   0  0  0  0  0  0  0  0  0  0  0  0
  160.9450  206.4140  153.7450 C   0  0  0  0  0  3  0  0  0  0  0  0
  159.6140  209.9950  156.1470 C   0  0  1  0  0  3  0  0  0  0  0  0
  161.2250  211.2600  157.1500 C   0  0  0  0  0  3  0  0  0  0  0  0
  161.9230  210.4760  156.0670 C   0  0  0  0  0  3  0  0  0  0  0  0
  160.8590  209.7330  155.4610 N   0  0  0  0  0  0  0  0  0  0  0  0
  159.8840  210.8220  157.2580 O   0  0  0  0  0  0  0  0  0  0  0  0
  158.6930  210.6750  155.2500 N   0  0  0  0  0  2  0  0  0  0  0  0
  158.5820  212.0530  155.7130 C   0  0  0  0  0  2  0  0  0  0  0  0
  157.3680  213.3080  152.9290 N   0  0  0  0  0  0  0  0  0  0  0  0
  156.9050  214.4470  152.1580 C   0  0  0  0  0  1  0  0  0  0  0  0
  157.7380  213.7930  154.1980 N   0  0  0  0  0  2  0  0  0  0  0  0
  158.5330  212.8350  152.3020 N   0  0  0  0  0  2  0  0  0  0  0  0
  159.3730  212.3250  153.3660 C   0  0  0  0  0  2  0  0  0  0  0  0
  158.9130  213.0400  154.5970 C   0  0  2  0  0  3  0  0  0  0  0  0
  162.4270  209.9520  150.6870 C   0  0  0  0  0  2  0  0  0  0  0  0
  160.9350  211.8200  149.9240 C   0  0  0  0  0  2  0  0  0  0  0  0
  161.6330  210.5130  149.5160 C   0  0  1  0  0  3  0  0  0  0  0  0
  161.4580  212.9330  149.0170 C   0  0  1  0  0  3  0  0  0  0  0  0
  163.1590  212.8020  147.3040 O   0  0  0  0  0  0  0  0  0  0  0  0
  162.4490  212.2310  148.1740 C   0  0  0  0  0  0  0  0  0  0  0  0
  162.5420  210.8490  148.4380 N   0  0  0  0  0  2  0  0  0  0  0  0
  160.3180  213.4660  148.1660 C   0  0  0  0  0  2  0  0  0  0  0  0
  160.7350  213.5370  146.7740 N   0  0  0  0  0  2  0  0  0  0  0  0
  159.8060  212.7320  145.9990 C   0  0  1  0  0  3  0  0  0  0  0  0
  158.6060  213.4310  145.8380 O   0  0  0  0  0  1  0  0  0  0  0  0
  159.3520  212.4540  143.5370 C   0  0  0  0  0  2  0  0  0  0  0  0
  160.4140  212.3820  144.6400 C   0  0  1  0  0  3  0  0  0  0  0  0
  159.8140  214.1080  141.7080 C   0  0  0  0  0  1  0  0  0  0  0  0
  161.3710  212.1600  141.9950 C   0  0  0  0  0  2  0  0  0  0  0  0
  159.9280  212.6550  142.1270 C   0  0  1  0  0  3  0  0  0  0  0  0
  161.6210  213.2550  144.3070 C   0  0  0  0  0  2  0  0  0  0  0  0
  162.3290  212.7470  143.0470 C   0  0  2  0  0  3  0  0  0  0  0  0
  163.2550  213.6740  141.0510 O   0  0  0  0  0  1  0  0  0  0  0  0
  163.1650  213.8540  142.4310 C   0  0  0  0  0  2  0  0  0  0  0  0
  161.2550  207.9990  149.8370 N   0  0  0  0  0  2  0  0  0  0  0  0
  160.6740  206.0580  148.6290 C   0  0  0  0  0  2  0  0  0  0  0  0
  161.5430  206.7970  147.6480 C   0  0  1  0  0  0  0  0  0  0  0  0
  162.8260  207.3410  148.2120 C   0  0  0  0  0  2  0  0  0  0  0  0
  161.8240  206.8270  149.1940 C   0  0  1  0  0  0  0  0  0  0  0  0
  162.0680  205.6560  146.8070 C   0  0  0  0  0  2  0  0  0  0  0  0
  160.9620  205.1220  145.9120 C   0  0  0  0  0  2  0  0  0  0  0  0
  161.1240  203.6260  145.7170 C   0  0  0  0  0  2  0  0  0  0  0  0
  161.8690  203.0870  146.7700 O   0  0  0  0  0  0  0  0  0  0  0  0
  160.9190  201.8250  147.3900 P   0  0  0  0  0  0  0  0  0  0  0  0
  159.9380  201.3760  146.3280 O   0  0  0  0  0  0  0  0  0  0  0  0
  161.9070  200.5200  147.8240 O   0  0  0  0  0  1  0  0  0  0  0  0
  160.0600  202.3580  148.7460 O   0  0  0  0  0  1  0  0  0  0  0  0
  1 21  1  1  0  0  0
  1  2  1  0  0  0  0
  2  5  2  0  0  0  0
  2  4  1  0  0  0  0
  4  6  2  0  0  0  0
  5  7  1  0  0  0  0
  6  3  1  0  0  0  0
  6 11  1  0  0  0  0
  7  3  2  0  0  0  0
  8 13  1  6  0  0  0
  8 12  1  0  0  0  0
  9 12  1  0  0  0  0
 10  9  2  0  0  0  0
 11 10  1  0  0  0  0
 11  8  1  0  0  0  0
 13 14  1  0  0  0  0
 15 17  1  0  0  0  0
 16 15  1  0  0  0  0
 17 20  1  0  0  0  0
 18 15  1  0  0  0  0
 18 19  1  0  0  0  0
 19 20  1  0  0  0  0
 20 14  1  1  0  0  0
 23 22  1  0  0  0  0
 23 21  1  1  0  0  0
 24 28  1  6  0  0  0
 24 22  1  0  0  0  0
 25 26  2  0  0  0  0
 26 27  1  0  0  0  0
 26 24  1  0  0  0  0
 27 23  1  0  0  0  0
 29 28  1  0  0  0  0
 30 31  1  6  0  0  0
 30 29  1  0  0  0  0
 32 33  1  0  0  0  0
 33 30  1  1  0  0  0
 35 36  1  0  0  0  0
 35 38  1  0  0  0  0
 36 34  1  1  0  0  0
 36 32  1  0  0  0  0
 37 33  1  0  0  0  0
 38 40  1  6  0  0  0
 38 37  1  0  0  0  0
 39 40  1  0  0  0  0
 41  1  1  0  0  0  0
 42 45  1  0  0  0  0
 43 46  1  1  0  0  0
 43 44  1  0  0  0  0
 43 42  1  0  0  0  0
 43 45  1  0  0  0  0
 44 45  1  0  0  0  0
 45 41  1  1  0  0  0
 47 46  1  0  0  0  0
 48 47  1  0  0  0  0
 48 49  1  0  0  0  0
 49 50  1  0  0  0  0
 50 52  1  0  0  0  0
 50 53  1  0  0  0  0
 51 50  2  0  0  0  0
M  END
>  <MODEL>
1

>  <REMARK>
 VINA RESULT:      -6.4      0.000      0.000
  Name = 
  19 active torsions:
  status: ('A' for Active; 'I' for Inactive)
    1  A    between atoms: C_1  and  C_19
    2  A    between atoms: C_2  and  C_40
    3  A    between atoms: C_2  and  C_45
    4  A    between atoms: C_7  and  C_11
    5  A    between atoms: C_8  and  N_16
    6  A    between atoms: C_11  and  N_48
    7  A    between atoms: O_15  and  P_21
    8  A    between atoms: O_15  and  C_22
    9  A    between atoms: N_16  and  C_53
   10  A    between atoms: C_17  and  C_52
   11  A    between atoms: C_19  and  N_25
   12  A    between atoms: C_19  and  C_52
   13  A    between atoms: C_22  and  C_45
   14  A    between atoms: N_25  and  C_47
   15  A    between atoms: N_29  and  C_30
   16  A    between atoms: C_32  and  C_49
   17  A    between atoms: C_35  and  C_44
   18  A    between atoms: C_46  and  C_53
   19  A    between atoms: N_48  and  C_49
                            x       y       z     vdW  Elec       q    Type
                         _______ _______ _______ _____ _____    ______ ____

>  <TORSDO>
F 19

$$$$
=
 OpenBabel11042421283D

 53 59  0  0  1  0  0  0  0  0999 V2000
  161.2190  208.1790  151.9090 C   0  0  2  0  0  3  0  0  0  0  0  0
  161.1030  206.6900  152.1160 C   0  0  0  0  0  0  0  0  0  0  0  0
  160.9910  203.9390  152.4940 C   0  0  0  0  0  3  0  0  0  0  0  0
  161.0210  205.8380  151.0060 C   0  0  0  0  0  3  0  0  0  0  0  0
  161.1530  206.1520  153.3690 N   0  0  0  0  0  0  0  0  0  0  0  0
  160.9550  204.4530  151.1920 C   0  0  0  0  0  0  0  0  0  0  0  0
  161.0940  204.8110  153.5790 C   0  0  0  0  0  3  0  0  0  0  0  0
  161.4590  203.7980  148.7750 C   0  0  1  0  0  3  0  0  0  0  0  0
  160.5510  201.7080  148.7370 C   0  0  0  0  0  3  0  0  0  0  0  0
  160.2770  202.2560  150.1150 C   0  0  0  0  0  3  0  0  0  0  0  0
  160.8410  203.5720  150.0620 N   0  0  0  0  0  0  0  0  0  0  0  0
  161.3900  202.6010  148.0310 O   0  0  0  0  0  0  0  0  0  0  0  0
  160.7450  204.8500  148.0670 N   0  0  0  0  0  2  0  0  0  0  0  0
  161.6530  205.9850  147.9590 C   0  0  0  0  0  2  0  0  0  0  0  0
  161.2630  204.8500  144.8990 N   0  0  0  0  0  0  0  0  0  0  0  0
  160.9850  205.0860  143.4940 C   0  0  0  0  0  1  0  0  0  0  0  0
  161.2010  206.0990  145.5460 N   0  0  0  0  0  2  0  0  0  0  0  0
  162.5910  204.3970  144.9840 N   0  0  0  0  0  2  0  0  0  0  0  0
  163.0990  204.9020  146.2420 C   0  0  0  0  0  2  0  0  0  0  0  0
  162.2440  206.0900  146.5550 C   0  0  2  0  0  3  0  0  0  0  0  0
  160.2150  208.9730  152.7440 C   0  0  0  0  0  2  0  0  0  0  0  0
  159.8820  210.4460  154.7480 C   0  0  0  0  0  2  0  0  0  0  0  0
  160.9140  209.8260  153.7920 C   0  0  1  0  0  3  0  0  0  0  0  0
  160.1910  209.9470  156.1590 C   0  0  1  0  0  3  0  0  0  0  0  0
  161.8890  208.3750  156.8590 O   0  0  0  0  0  0  0  0  0  0  0  0
  161.3410  209.0430  155.9430 C   0  0  0  0  0  0  0  0  0  0  0  0
  161.7720  208.9830  154.6020 N   0  0  0  0  0  2  0  0  0  0  0  0
  160.5950  211.1230  157.0310 C   0  0  0  0  0  2  0  0  0  0  0  0
  160.5770  212.3470  156.2440 N   0  0  0  0  0  2  0  0  0  0  0  0
  159.7780  213.3200  156.9690 C   0  0  1  0  0  3  0  0  0  0  0  0
  160.5570  214.4450  157.2530 O   0  0  0  0  0  1  0  0  0  0  0  0
  158.9580  214.2480  154.7760 C   0  0  0  0  0  2  0  0  0  0  0  0
  158.5450  213.7080  156.1510 C   0  0  1  0  0  3  0  0  0  0  0  0
  158.0820  212.9600  152.8100 C   0  0  0  0  0  1  0  0  0  0  0  0
  156.4450  214.1270  154.3140 C   0  0  0  0  0  2  0  0  0  0  0  0
  157.8530  214.1570  153.7110 C   0  0  1  0  0  3  0  0  0  0  0  0
  157.5530  212.5560  156.0200 C   0  0  0  0  0  2  0  0  0  0  0  0
  156.2470  213.0330  155.3780 C   0  0  2  0  0  3  0  0  0  0  0  0
  155.8290  210.6840  155.4580 O   0  0  0  0  0  1  0  0  0  0  0  0
  155.4930  211.8570  154.7840 C   0  0  0  0  0  2  0  0  0  0  0  0
  161.0360  208.5100  150.5020 N   0  0  0  0  0  2  0  0  0  0  0  0
  162.2360  209.2920  148.6280 C   0  0  0  0  0  2  0  0  0  0  0  0
  161.6510  210.5610  149.1840 C   0  0  1  0  0  0  0  0  0  0  0  0
  161.7910  210.7330  150.6710 C   0  0  0  0  0  2  0  0  0  0  0  0
  162.1260  209.3870  150.1160 C   0  0  1  0  0  0  0  0  0  0  0  0
  162.6470  211.5840  148.6890 C   0  0  0  0  0  2  0  0  0  0  0  0
  161.9220  212.8520  148.2740 C   0  0  0  0  0  2  0  0  0  0  0  0
  160.9190  212.5470  147.1770 C   0  0  0  0  0  2  0  0  0  0  0  0
  160.0670  213.6400  146.9950 O   0  0  0  0  0  0  0  0  0  0  0  0
  159.1140  213.2440  145.6470 P   0  0  0  0  0  0  0  0  0  0  0  0
  159.0280  214.4460  144.7310 O   0  0  0  0  0  0  0  0  0  0  0  0
  159.8130  211.9500  144.8080 O   0  0  0  0  0  1  0  0  0  0  0  0
  157.5540  212.8160  146.1450 O   0  0  0  0  0  1  0  0  0  0  0  0
  1  2  1  0  0  0  0
  1 21  1  1  0  0  0
  2  5  1  0  0  0  0
  3  7  1  0  0  0  0
  4  6  1  0  0  0  0
  4  2  2  0  0  0  0
  5  7  2  0  0  0  0
  6  3  2  0  0  0  0
  8 13  1  6  0  0  0
  8 11  1  0  0  0  0
  9 10  2  0  0  0  0
 11 10  1  0  0  0  0
 11  6  1  0  0  0  0
 12  9  1  0  0  0  0
 12  8  1  0  0  0  0
 14 13  1  0  0  0  0
 15 18  1  0  0  0  0
 15 17  1  0  0  0  0
 16 15  1  0  0  0  0
 17 20  1  0  0  0  0
 18 19  1  0  0  0  0
 19 20  1  0  0  0  0
 20 14  1  1  0  0  0
 22 24  1  0  0  0  0
 23 21  1  6  0  0  0
 23 27  1  0  0  0  0
 23 22  1  0  0  0  0
 24 28  1  1  0  0  0
 26 24  1  0  0  0  0
 26 25  2  0  0  0  0
 27 26  1  0  0  0  0
 29 30  1  0  0  0  0
 29 28  1  0  0  0  0
 30 31  1  6  0  0  0
 32 33  1  0  0  0  0
 33 30  1  6  0  0  0
 35 38  1  0  0  0  0
 36 34  1  1  0  0  0
 36 35  1  0  0  0  0
 36 32  1  0  0  0  0
 37 33  1  0  0  0  0
 38 40  1  6  0  0  0
 38 37  1  0  0  0  0
 40 39  1  0  0  0  0
 41  1  1  0  0  0  0
 42 43  1  0  0  0  0
 42 45  1  0  0  0  0
 43 46  1  1  0  0  0
 43 45  1  0  0  0  0
 43 44  1  0  0  0  0
 45 41  1  1  0  0  0
 45 44  1  0  0  0  0
 47 46  1  0  0  0  0
 48 47  1  0  0  0  0
 49 48  1  0  0  0  0
 50 53  1  0  0  0  0
 50 49  1  0  0  0  0
 51 50  2  0  0  0  0
 52 50  1  0  0  0  0
M  END
>  <MODEL>
2

>  <REMARK>
 VINA RESULT:      -6.2      3.192      9.683
  Name = 
  19 active torsions:
  status: ('A' for Active; 'I' for Inactive)
    1  A    between atoms: C_1  and  C_19
    2  A    between atoms: C_2  and  C_40
    3  A    between atoms: C_2  and  C_45
    4  A    between atoms: C_7  and  C_11
    5  A    between atoms: C_8  and  N_16
    6  A    between atoms: C_11  and  N_48
    7  A    between atoms: O_15  and  P_21
    8  A    between atoms: O_15  and  C_22
    9  A    between atoms: N_16  and  C_53
   10  A    between atoms: C_17  and  C_52
   11  A    between atoms: C_19  and  N_25
   12  A    between atoms: C_19  and  C_52
   13  A    between atoms: C_22  and  C_45
   14  A    between atoms: N_25  and  C_47
   15  A    between atoms: N_29  and  C_30
   16  A    between atoms: C_32  and  C_49
   17  A    between atoms: C_35  and  C_44
   18  A    between atoms: C_46  and  C_53
   19  A    between atoms: N_48  and  C_49
                            x       y       z     vdW  Elec       q    Type
                         _______ _______ _______ _____ _____    ______ ____

>  <TORSDO>
F 19

$$$$
=
 OpenBabel11042421283D

 53 59  0  0  1  0  0  0  0  0999 V2000
  162.0600  211.2290  149.6090 C   0  0  2  0  0  3  0  0  0  0  0  0
  162.0810  209.7350  149.8080 C   0  0  0  0  0  0  0  0  0  0  0  0
  162.2180  206.9800  150.1550 C   0  0  0  0  0  3  0  0  0  0  0  0
  161.8890  208.8850  148.7100 C   0  0  0  0  0  3  0  0  0  0  0  0
  162.3580  209.1960  151.0310 N   0  0  0  0  0  0  0  0  0  0  0  0
  161.9480  207.4970  148.8820 C   0  0  0  0  0  0  0  0  0  0  0  0
  162.4250  207.8530  151.2250 C   0  0  0  0  0  3  0  0  0  0  0  0
  160.9910  205.3720  147.8360 C   0  0  1  0  0  3  0  0  0  0  0  0
  161.4480  205.7760  145.6400 C   0  0  0  0  0  3  0  0  0  0  0  0
  162.0150  206.9450  146.4050 C   0  0  0  0  0  3  0  0  0  0  0  0
  161.7240  206.6160  147.7690 N   0  0  0  0  0  0  0  0  0  0  0  0
  160.7140  204.9460  146.5200 O   0  0  0  0  0  0  0  0  0  0  0  0
  161.7940  204.3660  148.5130 N   0  0  0  0  0  2  0  0  0  0  0  0
  160.9910  203.1510  148.5790 C   0  0  0  0  0  2  0  0  0  0  0  0
  161.4800  204.0240  151.7100 N   0  0  0  0  0  0  0  0  0  0  0  0
  161.0070  204.6500  152.9310 C   0  0  0  0  0  1  0  0  0  0  0  0
  160.4500  204.1510  150.7570 N   0  0  0  0  0  2  0  0  0  0  0  0
  161.6350  202.6540  151.9830 N   0  0  0  0  0  2  0  0  0  0  0  0
  161.3200  201.9680  150.7480 C   0  0  0  0  0  2  0  0  0  0  0  0
  160.4510  202.9210  149.9880 C   0  0  2  0  0  3  0  0  0  0  0  0
  160.6990  211.8500  149.9190 C   0  0  0  0  0  2  0  0  0  0  0  0
  159.7560  213.5130  151.5450 C   0  0  0  0  0  2  0  0  0  0  0  0
  160.5780  212.2240  151.3890 C   0  0  1  0  0  3  0  0  0  0  0  0
  158.5270  213.1850  152.3920 C   0  0  1  0  0  3  0  0  0  0  0  0
  157.8380  211.0430  153.2750 O   0  0  0  0  0  0  0  0  0  0  0  0
  158.6770  211.7360  152.6410 C   0  0  0  0  0  0  0  0  0  0  0  0
  159.8520  211.1840  152.0900 N   0  0  0  0  0  2  0  0  0  0  0  0
  158.5940  213.9600  153.6960 C   0  0  0  0  0  2  0  0  0  0  0  0
  159.6080  213.3770  154.5620 N   0  0  0  0  0  2  0  0  0  0  0  0
  159.0080  213.1890  155.8720 C   0  0  1  0  0  3  0  0  0  0  0  0
  157.6170  213.1440  155.7450 O   0  0  0  0  0  1  0  0  0  0  0  0
  158.8540  210.6750  155.9030 C   0  0  0  0  0  2  0  0  0  0  0  0
  159.5340  211.9050  156.5160 C   0  0  1  0  0  3  0  0  0  0  0  0
  160.3950  209.0410  154.7860 C   0  0  0  0  0  1  0  0  0  0  0  0
  160.6120  209.4060  157.2600 C   0  0  0  0  0  2  0  0  0  0  0  0
  159.6540  209.3730  156.0660 C   0  0  1  0  0  3  0  0  0  0  0  0
  161.0540  211.7990  156.4320 C   0  0  0  0  0  2  0  0  0  0  0  0
  161.5630  210.6160  157.2610 C   0  0  2  0  0  3  0  0  0  0  0  0
  163.8540  211.2310  156.9840 O   0  0  0  0  0  1  0  0  0  0  0  0
  162.9420  210.1950  156.7850 C   0  0  0  0  0  2  0  0  0  0  0  0
  162.4360  211.5630  148.2420 N   0  0  0  0  0  2  0  0  0  0  0  0
  162.6570  213.7110  147.2920 C   0  0  0  0  0  2  0  0  0  0  0  0
  161.7500  213.0200  146.3110 C   0  0  1  0  0  0  0  0  0  0  0  0
  160.6120  212.2510  146.9220 C   0  0  0  0  0  2  0  0  0  0  0  0
  161.6730  212.7360  147.8550 C   0  0  1  0  0  0  0  0  0  0  0  0
  161.0080  214.1970  145.7200 C   0  0  0  0  0  2  0  0  0  0  0  0
  160.7950  213.9790  144.2320 C   0  0  0  0  0  2  0  0  0  0  0  0
  161.7550  212.9220  143.7160 C   0  0  0  0  0  2  0  0  0  0  0  0
  161.0470  211.9330  143.0280 O   0  0  0  0  0  0  0  0  0  0  0  0
  161.4370  212.1590  141.3920 P   0  0  0  0  0  0  0  0  0  0  0  0
  160.1860  212.5500  140.6340 O   0  0  0  0  0  0  0  0  0  0  0  0
  162.5890  213.3900  141.2400 O   0  0  0  0  0  1  0  0  0  0  0  0
  162.0540  210.7250  140.7390 O   0  0  0  0  0  1  0  0  0  0  0  0
  1  2  1  0  0  0  0
  1 21  1  6  0  0  0
  2  5  1  0  0  0  0
  3  7  1  0  0  0  0
  4  6  1  0  0  0  0
  4  2  2  0  0  0  0
  5  7  2  0  0  0  0
  6  3  2  0  0  0  0
  8 13  1  6  0  0  0
  9 10  2  0  0  0  0
  9 12  1  0  0  0  0
 10 11  1  0  0  0  0
 11  8  1  0  0  0  0
 11  6  1  0  0  0  0
 12  8  1  0  0  0  0
 13 14  1  0  0  0  0
 15 18  1  0  0  0  0
 15 16  1  0  0  0  0
 17 15  1  0  0  0  0
 19 18  1  0  0  0  0
 20 14  1  6  0  0  0
 20 19  1  0  0  0  0
 20 17  1  0  0  0  0
 22 24  1  0  0  0  0
 23 21  1  6  0  0  0
 23 22  1  0  0  0  0
 23 27  1  0  0  0  0
 24 26  1  0  0  0  0
 24 28  1  1  0  0  0
 26 25  2  0  0  0  0
 27 26  1  0  0  0  0
 28 29  1  0  0  0  0
 29 30  1  0  0  0  0
 30 31  1  6  0  0  0
 32 36  1  0  0  0  0
 32 33  1  0  0  0  0
 33 30  1  6  0  0  0
 35 38  1  0  0  0  0
 36 34  1  6  0  0  0
 36 35  1  0  0  0  0
 37 33  1  0  0  0  0
 37 38  1  0  0  0  0
 38 40  1  6  0  0  0
 40 39  1  0  0  0  0
 41  1  1  0  0  0  0
 42 45  1  0  0  0  0
 43 46  1  1  0  0  0
 43 44  1  0  0  0  0
 43 42  1  0  0  0  0
 43 45  1  0  0  0  0
 44 45  1  0  0  0  0
 45 41  1  1  0  0  0
 47 46  1  0  0  0  0
 48 47  1  0  0  0  0
 49 48  1  0  0  0  0
 50 49  1  0  0  0  0
 51 50  2  0  0  0  0
 52 50  1  0  0  0  0
 53 50  1  0  0  0  0
M  END
>  <MODEL>
3

>  <REMARK>
 VINA RESULT:      -5.5      2.734      9.738
  Name = 
  19 active torsions:
  status: ('A' for Active; 'I' for Inactive)
    1  A    between atoms: C_1  and  C_19
    2  A    between atoms: C_2  and  C_40
    3  A    between atoms: C_2  and  C_45
    4  A    between atoms: C_7  and  C_11
    5  A    between atoms: C_8  and  N_16
    6  A    between atoms: C_11  and  N_48
    7  A    between atoms: O_15  and  P_21
    8  A    between atoms: O_15  and  C_22
    9  A    between atoms: N_16  and  C_53
   10  A    between atoms: C_17  and  C_52
   11  A    between atoms: C_19  and  N_25
   12  A    between atoms: C_19  and  C_52
   13  A    between atoms: C_22  and  C_45
   14  A    between atoms: N_25  and  C_47
   15  A    between atoms: N_29  and  C_30
   16  A    between atoms: C_32  and  C_49
   17  A    between atoms: C_35  and  C_44
   18  A    between atoms: C_46  and  C_53
   19  A    between atoms: N_48  and  C_49
                            x       y       z     vdW  Elec       q    Type
                         _______ _______ _______ _____ _____    ______ ____

>  <TORSDO>
F 19

$$$$
=
 OpenBabel11042421283D

 53 59  0  0  1  0  0  0  0  0999 V2000
  160.7820  212.1330  149.8790 C   0  0  2  0  0  3  0  0  0  0  0  0
  159.8240  212.7740  150.8520 C   0  0  0  0  0  0  0  0  0  0  0  0
  158.1320  214.0210  152.6700 C   0  0  0  0  0  3  0  0  0  0  0  0
  159.7830  212.3300  152.1810 C   0  0  0  0  0  3  0  0  0  0  0  0
  159.0480  213.8310  150.4750 N   0  0  0  0  0  0  0  0  0  0  0  0
  158.9250  212.9490  153.0980 C   0  0  0  0  0  0  0  0  0  0  0  0
  158.2100  214.4530  151.3450 C   0  0  0  0  0  3  0  0  0  0  0  0
  159.9640  212.4720  155.3820 C   0  0  1  0  0  3  0  0  0  0  0  0
  158.0920  211.9000  156.5520 C   0  0  0  0  0  3  0  0  0  0  0  0
  157.6370  212.1630  155.1380 C   0  0  0  0  0  3  0  0  0  0  0  0
  158.8540  212.4840  154.4550 N   0  0  0  0  0  0  0  0  0  0  0  0
  159.4570  212.2480  156.6800 O   0  0  0  0  0  0  0  0  0  0  0  0
  160.8850  211.4030  155.0310 N   0  0  0  0  0  2  0  0  0  0  0  0
  161.6080  211.0440  156.2450 C   0  0  0  0  0  2  0  0  0  0  0  0
  160.4940  208.2030  155.0250 N   0  0  0  0  0  0  0  0  0  0  0  0
  160.7230  206.9720  154.2900 C   0  0  0  0  0  1  0  0  0  0  0  0
  161.7140  208.9060  155.0390 N   0  0  0  0  0  2  0  0  0  0  0  0
  160.2010  207.8410  156.3510 N   0  0  0  0  0  2  0  0  0  0  0  0
  160.7380  208.9020  157.1760 C   0  0  0  0  0  2  0  0  0  0  0  0
  161.8090  209.5340  156.3430 C   0  0  2  0  0  3  0  0  0  0  0  0
  161.5750  210.9830  150.4990 C   0  0  0  0  0  2  0  0  0  0  0  0
  162.2710  209.3950  148.6850 C   0  0  0  0  0  2  0  0  0  0  0  0
  161.2640  209.6590  149.8160 C   0  0  1  0  0  3  0  0  0  0  0  0
  163.0080  208.0960  149.0080 C   0  0  1  0  0  3  0  0  0  0  0  0
  162.7980  206.6960  150.9670 O   0  0  0  0  0  0  0  0  0  0  0  0
  162.4300  207.7060  150.3110 C   0  0  0  0  0  0  0  0  0  0  0  0
  161.4230  208.5790  150.7700 N   0  0  0  0  0  2  0  0  0  0  0  0
  162.6830  207.0570  147.9480 C   0  0  0  0  0  2  0  0  0  0  0  0
  161.3930  206.4490  148.2360 N   0  0  0  0  0  2  0  0  0  0  0  0
  161.2520  205.2940  147.3650 C   0  0  1  0  0  3  0  0  0  0  0  0
  162.5020  204.9420  146.8510 O   0  0  0  0  0  1  0  0  0  0  0  0
  160.8490  202.8080  147.3780 C   0  0  0  0  0  2  0  0  0  0  0  0
  160.6340  204.1250  148.1330 C   0  0  1  0  0  3  0  0  0  0  0  0
  162.1540  201.0610  148.6170 C   0  0  0  0  0  1  0  0  0  0  0  0
  159.9280  201.7770  149.5300 C   0  0  0  0  0  2  0  0  0  0  0  0
  160.7660  201.5570  148.2670 C   0  0  1  0  0  3  0  0  0  0  0  0
  161.1540  204.0360  149.5650 C   0  0  0  0  0  2  0  0  0  0  0  0
  160.3700  202.9920  150.3650 C   0  0  2  0  0  3  0  0  0  0  0  0
  161.9290  203.5940  152.0700 O   0  0  0  0  0  1  0  0  0  0  0  0
  161.1780  202.5330  151.5660 C   0  0  0  0  0  2  0  0  0  0  0  0
  161.7110  213.1250  149.3560 N   0  0  0  0  0  2  0  0  0  0  0  0
  160.5710  212.5810  147.3630 C   0  0  0  0  0  2  0  0  0  0  0  0
  161.2460  213.8760  147.0020 C   0  0  1  0  0  0  0  0  0  0  0  0
  162.6940  213.9750  147.3930 C   0  0  0  0  0  2  0  0  0  0  0  0
  161.9240  212.8230  147.9520 C   0  0  1  0  0  0  0  0  0  0  0  0
  161.3710  213.7320  145.5020 C   0  0  0  0  0  2  0  0  0  0  0  0
  160.2070  214.4290  144.8180 C   0  0  0  0  0  2  0  0  0  0  0  0
  160.1250  214.0040  143.3630 C   0  0  0  0  0  2  0  0  0  0  0  0
  161.4110  213.8010  142.8550 O   0  0  0  0  0  0  0  0  0  0  0  0
  161.2660  212.4960  141.7800 P   0  0  0  0  0  0  0  0  0  0  0  0
  162.6370  211.9030  141.5340 O   0  0  0  0  0  1  0  0  0  0  0  0
  160.2570  211.3110  142.4470 O   0  0  0  0  0  1  0  0  0  0  0  0
  160.6200  213.0240  140.3090 O   0  0  0  0  0  0  0  0  0  0  0  0
  1 21  1  1  0  0  0
  1  2  1  0  0  0  0
  2  4  1  0  0  0  0
  3  6  1  0  0  0  0
  4  6  2  0  0  0  0
  5  2  2  0  0  0  0
  5  7  1  0  0  0  0
  6 11  1  0  0  0  0
  7  3  2  0  0  0  0
  8 13  1  6  0  0  0
  8 12  1  0  0  0  0
  9 12  1  0  0  0  0
 10  9  2  0  0  0  0
 11 10  1  0  0  0  0
 11  8  1  0  0  0  0
 13 14  1  0  0  0  0
 15 17  1  0  0  0  0
 15 18  1  0  0  0  0
 16 15  1  0  0  0  0
 17 20  1  0  0  0  0
 18 19  1  0  0  0  0
 20 14  1  6  0  0  0
 20 19  1  0  0  0  0
 22 24  1  0  0  0  0
 22 23  1  0  0  0  0
 23 21  1  1  0  0  0
 23 27  1  0  0  0  0
 24 28  1  6  0  0  0
 24 26  1  0  0  0  0
 26 27  1  0  0  0  0
 26 25  2  0  0  0  0
 28 29  1  0  0  0  0
 30 31  1  1  0  0  0
 30 29  1  0  0  0  0
 32 33  1  0  0  0  0
 32 36  1  0  0  0  0
 33 30  1  6  0  0  0
 33 37  1  0  0  0  0
 35 38  1  0  0  0  0
 36 34  1  1  0  0  0
 36 35  1  0  0  0  0
 37 38  1  0  0  0  0
 38 40  1  1  0  0  0
 40 39  1  0  0  0  0
 41  1  1  0  0  0  0
 42 45  1  0  0  0  0
 43 46  1  6  0  0  0
 43 42  1  0  0  0  0
 43 44  1  0  0  0  0
 43 45  1  0  0  0  0
 44 45  1  0  0  0  0
 45 41  1  1  0  0  0
 47 46  1  0  0  0  0
 48 47  1  0  0  0  0
 49 48  1  0  0  0  0
 50 52  1  0  0  0  0
 50 49  1  0  0  0  0
 51 50  1  0  0  0  0
 53 50  2  0  0  0  0
M  END
>  <MODEL>
4

>  <REMARK>
 VINA RESULT:      -5.5      2.753      8.290
  Name = 
  19 active torsions:
  status: ('A' for Active; 'I' for Inactive)
    1  A    between atoms: C_1  and  C_19
    2  A    between atoms: C_2  and  C_40
    3  A    between atoms: C_2  and  C_45
    4  A    between atoms: C_7  and  C_11
    5  A    between atoms: C_8  and  N_16
    6  A    between atoms: C_11  and  N_48
    7  A    between atoms: O_15  and  P_21
    8  A    between atoms: O_15  and  C_22
    9  A    between atoms: N_16  and  C_53
   10  A    between atoms: C_17  and  C_52
   11  A    between atoms: C_19  and  N_25
   12  A    between atoms: C_19  and  C_52
   13  A    between atoms: C_22  and  C_45
   14  A    between atoms: N_25  and  C_47
   15  A    between atoms: N_29  and  C_30
   16  A    between atoms: C_32  and  C_49
   17  A    between atoms: C_35  and  C_44
   18  A    between atoms: C_46  and  C_53
   19  A    between atoms: N_48  and  C_49
                            x       y       z     vdW  Elec       q    Type
                         _______ _______ _______ _____ _____    ______ ____

>  <TORSDO>
F 19

$$$$
=
 OpenBabel11042421283D

 53 59  0  0  1  0  0  0  0  0999 V2000
  161.6310  211.6850  150.3990 C   0  0  2  0  0  3  0  0  0  0  0  0
  161.8570  212.1860  148.9950 C   0  0  0  0  0  0  0  0  0  0  0  0
  162.2790  213.2040  146.4430 C   0  0  0  0  0  3  0  0  0  0  0  0
  160.7620  212.5870  148.2170 C   0  0  0  0  0  3  0  0  0  0  0  0
  163.1190  212.3250  148.4960 N   0  0  0  0  0  0  0  0  0  0  0  0
  160.9690  213.0910  146.9270 C   0  0  0  0  0  0  0  0  0  0  0  0
  163.3500  212.8150  147.2500 C   0  0  0  0  0  3  0  0  0  0  0  0
  159.6330  213.0350  144.7510 C   0  0  1  0  0  3  0  0  0  0  0  0
  157.7770  214.1890  145.4010 C   0  0  0  0  0  3  0  0  0  0  0  0
  158.7040  214.1850  146.5910 C   0  0  0  0  0  3  0  0  0  0  0  0
  159.8530  213.4780  146.1100 N   0  0  0  0  0  0  0  0  0  0  0  0
  158.3100  213.3600  144.3860 O   0  0  0  0  0  0  0  0  0  0  0  0
  160.5620  213.7100  143.8590 N   0  0  0  0  0  2  0  0  0  0  0  0
  161.3020  212.6750  143.1480 C   0  0  0  0  0  2  0  0  0  0  0  0
  160.7260  210.8330  140.4870 N   0  0  0  0  0  0  0  0  0  0  0  0
  159.8760  210.4690  139.3680 C   0  0  0  0  0  1  0  0  0  0  0  0
  160.0610  211.8550  141.1920 N   0  0  0  0  0  2  0  0  0  0  0  0
  161.8990  211.3890  139.9480 N   0  0  0  0  0  2  0  0  0  0  0  0
  162.3270  212.3990  140.8930 C   0  0  0  0  0  2  0  0  0  0  0  0
  161.0870  212.7780  141.6400 C   0  0  2  0  0  3  0  0  0  0  0  0
  162.1890  210.2800  150.6240 C   0  0  0  0  0  2  0  0  0  0  0  0
  162.6030  208.8110  148.6310 C   0  0  0  0  0  2  0  0  0  0  0  0
  161.5660  209.2730  149.6670 C   0  0  1  0  0  3  0  0  0  0  0  0
  162.7740  207.3000  148.7810 C   0  0  1  0  0  3  0  0  0  0  0  0
  161.7470  205.8250  150.3970 O   0  0  0  0  0  0  0  0  0  0  0  0
  161.8740  206.9790  149.9090 C   0  0  0  0  0  0  0  0  0  0  0  0
  161.1680  208.0920  150.4080 N   0  0  0  0  0  2  0  0  0  0  0  0
  162.3040  206.6120  147.5120 C   0  0  0  0  0  2  0  0  0  0  0  0
  161.2040  205.7110  147.8200 N   0  0  0  0  0  2  0  0  0  0  0  0
  161.1730  204.6910  146.7860 C   0  0  1  0  0  3  0  0  0  0  0  0
  162.0960  205.0110  145.7870 O   0  0  0  0  0  1  0  0  0  0  0  0
  160.8420  203.1800  148.7740 C   0  0  0  0  0  2  0  0  0  0  0  0
  161.4810  203.3190  147.3880 C   0  0  1  0  0  3  0  0  0  0  0  0
  159.1820  201.3150  149.0100 C   0  0  0  0  0  1  0  0  0  0  0  0
  161.5800  200.7430  148.5350 C   0  0  0  0  0  2  0  0  0  0  0  0
  160.6260  201.7260  149.2200 C   0  0  1  0  0  3  0  0  0  0  0  0
  161.0620  202.1770  146.4660 C   0  0  0  0  0  2  0  0  0  0  0  0
  161.5680  200.8330  146.9990 C   0  0  2  0  0  3  0  0  0  0  0  0
  161.5920  198.7650  145.8060 O   0  0  0  0  0  1  0  0  0  0  0  0
  160.7500  199.6950  146.4160 C   0  0  0  0  0  2  0  0  0  0  0  0
  160.2100  211.6890  150.7160 N   0  0  0  0  0  2  0  0  0  0  0  0
  158.5880  212.6010  152.1670 C   0  0  0  0  0  2  0  0  0  0  0  0
  159.1880  211.5070  153.0070 C   0  0  1  0  0  0  0  0  0  0  0  0
  160.6900  211.4520  153.0080 C   0  0  0  0  0  2  0  0  0  0  0  0
  160.0520  212.3500  151.9990 C   0  0  1  0  0  0  0  0  0  0  0  0
  158.9250  212.0300  154.4000 C   0  0  0  0  0  2  0  0  0  0  0  0
  157.9100  211.1450  155.1010 C   0  0  0  0  0  2  0  0  0  0  0  0
  158.6020  210.2680  156.1290 C   0  0  0  0  0  2  0  0  0  0  0  0
  159.9580  210.6010  156.2000 O   0  0  0  0  0  0  0  0  0  0  0  0
  160.7830  209.1180  156.2160 P   0  0  0  0  0  0  0  0  0  0  0  0
  160.0830  208.1730  157.1700 O   0  0  0  0  0  1  0  0  0  0  0  0
  160.7840  208.4430  154.6630 O   0  0  0  0  0  0  0  0  0  0  0  0
  162.3770  209.3460  156.7340 O   0  0  0  0  0  1  0  0  0  0  0  0
  1 21  1  6  0  0  0
  1 41  1  0  0  0  0
  2  1  1  0  0  0  0
  3  6  2  0  0  0  0
  3  7  1  0  0  0  0
  4  2  2  0  0  0  0
  5  2  1  0  0  0  0
  6  4  1  0  0  0  0
  7  5  2  0  0  0  0
  8 13  1  6  0  0  0
  8 11  1  0  0  0  0
  9 10  2  0  0  0  0
 11 10  1  0  0  0  0
 11  6  1  0  0  0  0
 12  8  1  0  0  0  0
 12  9  1  0  0  0  0
 14 13  1  0  0  0  0
 15 17  1  0  0  0  0
 16 15  1  0  0  0  0
 17 20  1  0  0  0  0
 18 15  1  0  0  0  0
 18 19  1  0  0  0  0
 19 20  1  0  0  0  0
 20 14  1  1  0  0  0
 22 24  1  0  0  0  0
 22 23  1  0  0  0  0
 23 27  1  0  0  0  0
 23 21  1  1  0  0  0
 24 28  1  6  0  0  0
 24 26  1  0  0  0  0
 26 25  2  0  0  0  0
 26 27  1  0  0  0  0
 28 29  1  0  0  0  0
 30 31  1  6  0  0  0
 30 29  1  0  0  0  0
 32 36  1  0  0  0  0
 33 30  1  6  0  0  0
 33 32  1  0  0  0  0
 35 36  1  0  0  0  0
 36 34  1  6  0  0  0
 37 38  1  0  0  0  0
 37 33  1  0  0  0  0
 38 40  1  6  0  0  0
 38 35  1  0  0  0  0
 39 40  1  0  0  0  0
 42 43  1  0  0  0  0
 43 44  1  0  0  0  0
 43 46  1  1  0  0  0
 45 41  1  6  0  0  0
 45 42  1  0  0  0  0
 45 43  1  0  0  0  0
 45 44  1  0  0  0  0
 46 47  1  0  0  0  0
 47 48  1  0  0  0  0
 48 49  1  0  0  0  0
 49 50  1  0  0  0  0
 50 53  1  0  0  0  0
 50 51  1  0  0  0  0
 52 50  2  0  0  0  0
M  END
>  <MODEL>
5

>  <REMARK>
 VINA RESULT:      -5.2      3.083     10.336
  Name = 
  19 active torsions:
  status: ('A' for Active; 'I' for Inactive)
    1  A    between atoms: C_1  and  C_19
    2  A    between atoms: C_2  and  C_40
    3  A    between atoms: C_2  and  C_45
    4  A    between atoms: C_7  and  C_11
    5  A    between atoms: C_8  and  N_16
    6  A    between atoms: C_11  and  N_48
    7  A    between atoms: O_15  and  P_21
    8  A    between atoms: O_15  and  C_22
    9  A    between atoms: N_16  and  C_53
   10  A    between atoms: C_17  and  C_52
   11  A    between atoms: C_19  and  N_25
   12  A    between atoms: C_19  and  C_52
   13  A    between atoms: C_22  and  C_45
   14  A    between atoms: N_25  and  C_47
   15  A    between atoms: N_29  and  C_30
   16  A    between atoms: C_32  and  C_49
   17  A    between atoms: C_35  and  C_44
   18  A    between atoms: C_46  and  C_53
   19  A    between atoms: N_48  and  C_49
                            x       y       z     vdW  Elec       q    Type
                         _______ _______ _______ _____ _____    ______ ____

>  <TORSDO>
F 19

$$$$
=
 OpenBabel11042421283D

 53 59  0  0  1  0  0  0  0  0999 V2000
  161.3140  210.3440  149.9130 C   0  0  2  0  0  3  0  0  0  0  0  0
  161.7530  211.2960  148.8290 C   0  0  0  0  0  0  0  0  0  0  0  0
  162.5440  213.1290  146.8950 C   0  0  0  0  0  3  0  0  0  0  0  0
  160.8040  211.8270  147.9440 C   0  0  0  0  0  3  0  0  0  0  0  0
  163.0510  211.7080  148.7440 N   0  0  0  0  0  0  0  0  0  0  0  0
  161.1990  212.7420  146.9620 C   0  0  0  0  0  0  0  0  0  0  0  0
  163.4620  212.5990  147.8030 C   0  0  0  0  0  3  0  0  0  0  0  0
  160.0000  212.7420  144.7070 C   0  0  1  0  0  3  0  0  0  0  0  0
  158.4130  214.3300  145.1070 C   0  0  0  0  0  3  0  0  0  0  0  0
  159.2530  214.2540  146.3580 C   0  0  0  0  0  3  0  0  0  0  0  0
  160.2400  213.2700  146.0310 N   0  0  0  0  0  0  0  0  0  0  0  0
  158.8010  213.3020  144.2160 O   0  0  0  0  0  0  0  0  0  0  0  0
  161.1000  213.1030  143.8280 N   0  0  0  0  0  2  0  0  0  0  0  0
  160.5130  213.5970  142.5880 C   0  0  0  0  0  2  0  0  0  0  0  0
  162.2800  211.6310  140.6340 N   0  0  0  0  0  0  0  0  0  0  0  0
  162.7060  210.3000  140.2400 C   0  0  0  0  0  1  0  0  0  0  0  0
  161.4020  211.4750  141.7250 N   0  0  0  0  0  2  0  0  0  0  0  0
  161.5340  212.1560  139.5660 N   0  0  0  0  0  2  0  0  0  0  0  0
  160.5230  212.9990  140.1680 C   0  0  0  0  0  2  0  0  0  0  0  0
  160.3650  212.4760  141.5620 C   0  0  2  0  0  3  0  0  0  0  0  0
  161.5010  210.9170  151.3170 C   0  0  0  0  0  2  0  0  0  0  0  0
  160.3910  211.5900  153.4650 C   0  0  0  0  0  2  0  0  0  0  0  0
  160.1660  211.1060  152.0240 C   0  0  1  0  0  3  0  0  0  0  0  0
  159.7110  212.9500  153.6140 C   0  0  1  0  0  3  0  0  0  0  0  0
  158.5690  214.2520  151.9280 O   0  0  0  0  0  0  0  0  0  0  0  0
  159.1750  213.1990  152.2590 C   0  0  0  0  0  0  0  0  0  0  0  0
  159.4120  212.1470  151.3520 N   0  0  0  0  0  2  0  0  0  0  0  0
  158.5810  212.8400  154.6230 C   0  0  0  0  0  2  0  0  0  0  0  0
  159.0970  212.3280  155.8830 N   0  0  0  0  0  2  0  0  0  0  0  0
  158.3480  211.1250  156.2050 C   0  0  1  0  0  3  0  0  0  0  0  0
  157.5590  210.7600  155.1110 O   0  0  0  0  0  1  0  0  0  0  0  0
  159.1610  208.8170  155.6120 C   0  0  0  0  0  2  0  0  0  0  0  0
  159.3020  209.9930  156.5860 C   0  0  1  0  0  3  0  0  0  0  0  0
  161.2420  208.2140  154.3480 C   0  0  0  0  0  1  0  0  0  0  0  0
  161.2270  207.9460  156.8440 C   0  0  0  0  0  2  0  0  0  0  0  0
  160.3910  207.8960  155.5610 C   0  0  1  0  0  3  0  0  0  0  0  0
  160.7500  210.4660  156.6790 C   0  0  0  0  0  2  0  0  0  0  0  0
  161.6460  209.3670  157.2590 C   0  0  2  0  0  3  0  0  0  0  0  0
  163.1850  210.7120  156.0240 O   0  0  0  0  0  1  0  0  0  0  0  0
  163.0950  209.6150  156.8810 C   0  0  0  0  0  2  0  0  0  0  0  0
  162.0460  209.0890  149.8090 N   0  0  0  0  0  2  0  0  0  0  0  0
  162.7660  208.0380  147.8240 C   0  0  0  0  0  2  0  0  0  0  0  0
  162.0740  206.9140  148.5470 C   0  0  1  0  0  0  0  0  0  0  0  0
  160.7320  207.2580  149.1290 C   0  0  0  0  0  2  0  0  0  0  0  0
  161.5580  208.3970  148.6290 C   0  0  1  0  0  0  0  0  0  0  0  0
  161.6610  206.0330  147.3910 C   0  0  0  0  0  2  0  0  0  0  0  0
  162.3280  204.6740  147.5130 C   0  0  0  0  0  2  0  0  0  0  0  0
  161.3020  203.6190  147.8830 C   0  0  0  0  0  2  0  0  0  0  0  0
  161.3850  203.3340  149.2490 O   0  0  0  0  0  0  0  0  0  0  0  0
  160.7740  201.7600  149.4160 P   0  0  0  0  0  0  0  0  0  0  0  0
  159.3270  201.7410  148.9720 O   0  0  0  0  0  1  0  0  0  0  0  0
  161.6670  200.6910  148.4540 O   0  0  0  0  0  0  0  0  0  0  0  0
  160.8630  201.2710  151.0330 O   0  0  0  0  0  1  0  0  0  0  0  0
  1 21  1  1  0  0  0
  2  1  1  0  0  0  0
  3  6  2  0  0  0  0
  3  7  1  0  0  0  0
  4  2  2  0  0  0  0
  5  2  1  0  0  0  0
  6  4  1  0  0  0  0
  7  5  2  0  0  0  0
  8 13  1  6  0  0  0
  8 11  1  0  0  0  0
  9 10  2  0  0  0  0
 11 10  1  0  0  0  0
 11  6  1  0  0  0  0
 12  8  1  0  0  0  0
 12  9  1  0  0  0  0
 14 13  1  0  0  0  0
 15 17  1  0  0  0  0
 16 15  1  0  0  0  0
 18 19  1  0  0  0  0
 18 15  1  0  0  0  0
 19 20  1  0  0  0  0
 20 17  1  0  0  0  0
 20 14  1  1  0  0  0
 22 24  1  0  0  0  0
 23 21  1  6  0  0  0
 23 22  1  0  0  0  0
 24 28  1  1  0  0  0
 25 26  2  0  0  0  0
 26 24  1  0  0  0  0
 27 23  1  0  0  0  0
 27 26  1  0  0  0  0
 28 29  1  0  0  0  0
 29 30  1  0  0  0  0
 30 31  1  6  0  0  0
 32 33  1  0  0  0  0
 33 30  1  6  0  0  0
 33 37  1  0  0  0  0
 35 38  1  0  0  0  0
 36 34  1  6  0  0  0
 36 32  1  0  0  0  0
 36 35  1  0  0  0  0
 37 38  1  0  0  0  0
 38 40  1  6  0  0  0
 39 40  1  0  0  0  0
 41  1  1  0  0  0  0
 42 43  1  0  0  0  0
 42 45  1  0  0  0  0
 43 46  1  6  0  0  0
 43 45  1  0  0  0  0
 43 44  1  0  0  0  0
 45 44  1  0  0  0  0
 45 41  1  1  0  0  0
 46 47  1  0  0  0  0
 47 48  1  0  0  0  0
 48 49  1  0  0  0  0
 49 50  1  0  0  0  0
 50 53  1  0  0  0  0
 51 50  1  0  0  0  0
 52 50  2  0  0  0  0
M  END
>  <MODEL>
6

>  <REMARK>
 VINA RESULT:      -5.1      2.370      9.466
  Name = 
  19 active torsions:
  status: ('A' for Active; 'I' for Inactive)
    1  A    between atoms: C_1  and  C_19
    2  A    between atoms: C_2  and  C_40
    3  A    between atoms: C_2  and  C_45
    4  A    between atoms: C_7  and  C_11
    5  A    between atoms: C_8  and  N_16
    6  A    between atoms: C_11  and  N_48
    7  A    between atoms: O_15  and  P_21
    8  A    between atoms: O_15  and  C_22
    9  A    between atoms: N_16  and  C_53
   10  A    between atoms: C_17  and  C_52
   11  A    between atoms: C_19  and  N_25
   12  A    between atoms: C_19  and  C_52
   13  A    between atoms: C_22  and  C_45
   14  A    between atoms: N_25  and  C_47
   15  A    between atoms: N_29  and  C_30
   16  A    between atoms: C_32  and  C_49
   17  A    between atoms: C_35  and  C_44
   18  A    between atoms: C_46  and  C_53
   19  A    between atoms: N_48  and  C_49
                            x       y       z     vdW  Elec       q    Type
                         _______ _______ _______ _____ _____    ______ ____

>  <TORSDO>
F 19

$$$$
=
 OpenBabel11042421283D

 53 59  0  0  1  0  0  0  0  0999 V2000
  162.3550  210.5070  150.7170 C   0  0  2  0  0  3  0  0  0  0  0  0
  162.1030  211.3910  149.5220 C   0  0  0  0  0  0  0  0  0  0  0  0
  161.6660  213.1000  147.3730 C   0  0  0  0  0  3  0  0  0  0  0  0
  160.8380  211.9660  149.3360 C   0  0  0  0  0  3  0  0  0  0  0  0
  163.1120  211.7010  148.6560 N   0  0  0  0  0  0  0  0  0  0  0  0
  160.6110  212.8190  148.2510 C   0  0  0  0  0  0  0  0  0  0  0  0
  162.9200  212.5290  147.5960 C   0  0  0  0  0  3  0  0  0  0  0  0
  158.5640  213.2990  146.8000 C   0  0  1  0  0  3  0  0  0  0  0  0
  157.1920  214.2420  148.3570 C   0  0  0  0  0  3  0  0  0  0  0  0
  158.4890  213.9480  149.0680 C   0  0  0  0  0  3  0  0  0  0  0  0
  159.3100  213.3900  148.0350 N   0  0  0  0  0  0  0  0  0  0  0  0
  157.2340  213.6960  147.0530 O   0  0  0  0  0  0  0  0  0  0  0  0
  159.1520  214.1810  145.8050 N   0  0  0  0  0  2  0  0  0  0  0  0
  159.2760  213.4140  144.5720 C   0  0  0  0  0  2  0  0  0  0  0  0
  160.7740  213.0410  141.6700 N   0  0  0  0  0  0  0  0  0  0  0  0
  161.3560  213.6140  140.4700 C   0  0  0  0  0  1  0  0  0  0  0  0
  160.3060  214.1140  142.4530 N   0  0  0  0  0  2  0  0  0  0  0  0
  161.8200  212.4260  142.3800 N   0  0  0  0  0  2  0  0  0  0  0  0
  161.4850  212.5750  143.7810 C   0  0  0  0  0  2  0  0  0  0  0  0
  160.5690  213.7560  143.8350 C   0  0  2  0  0  3  0  0  0  0  0  0
  162.5710  209.0430  150.3370 C   0  0  0  0  0  2  0  0  0  0  0  0
  163.0520  207.7090  148.2670 C   0  0  0  0  0  2  0  0  0  0  0  0
  162.1410  208.7710  148.9030 C   0  0  1  0  0  3  0  0  0  0  0  0
  162.1780  206.5200  147.8690 C   0  0  1  0  0  3  0  0  0  0  0  0
  159.8090  206.2070  148.2350 O   0  0  0  0  0  0  0  0  0  0  0  0
  160.8350  206.9320  148.3290 C   0  0  0  0  0  0  0  0  0  0  0  0
  160.8000  208.2190  148.9020 N   0  0  0  0  0  2  0  0  0  0  0  0
  162.1990  206.3630  146.3580 C   0  0  0  0  0  2  0  0  0  0  0  0
  161.2520  205.3340  145.9580 N   0  0  0  0  0  2  0  0  0  0  0  0
  161.8470  204.0470  146.2740 C   0  0  1  0  0  3  0  0  0  0  0  0
  163.1530  204.2370  146.7320 O   0  0  0  0  0  1  0  0  0  0  0  0
  160.8140  201.8480  146.9380 C   0  0  0  0  0  2  0  0  0  0  0  0
  161.0060  203.3190  147.3240 C   0  0  1  0  0  3  0  0  0  0  0  0
  161.7100  200.1800  148.5840 C   0  0  0  0  0  1  0  0  0  0  0  0
  159.8220  201.6770  149.2890 C   0  0  0  0  0  2  0  0  0  0  0  0
  160.4750  200.9300  148.1230 C   0  0  1  0  0  3  0  0  0  0  0  0
  161.5920  203.4540  148.7260 C   0  0  0  0  0  2  0  0  0  0  0  0
  160.6260  202.8950  149.7760 C   0  0  2  0  0  3  0  0  0  0  0  0
  160.7960  203.2020  152.1380 O   0  0  0  0  0  1  0  0  0  0  0  0
  161.3760  202.5510  151.0500 C   0  0  0  0  0  2  0  0  0  0  0  0
  161.2450  210.5980  151.6560 N   0  0  0  0  0  2  0  0  0  0  0  0
  162.2490  210.3360  153.7750 C   0  0  0  0  0  2  0  0  0  0  0  0
  160.8050  210.0290  154.0650 C   0  0  1  0  0  0  0  0  0  0  0  0
  160.1400  209.0960  153.0930 C   0  0  0  0  0  2  0  0  0  0  0  0
  161.4830  209.6240  152.7060 C   0  0  1  0  0  0  0  0  0  0  0  0
  160.9350  209.1300  155.2730 C   0  0  0  0  0  2  0  0  0  0  0  0
  160.4040  209.8410  156.5060 C   0  0  0  0  0  2  0  0  0  0  0  0
  159.5170  211.0030  156.0980 C   0  0  0  0  0  2  0  0  0  0  0  0
  158.1730  210.6530  156.2600 O   0  0  0  0  0  0  0  0  0  0  0  0
  157.3040  211.7760  155.3300 P   0  0  0  0  0  0  0  0  0  0  0  0
  157.7070  211.6340  153.8780 O   0  0  0  0  0  0  0  0  0  0  0  0
  155.6430  211.4840  155.4790 O   0  0  0  0  0  1  0  0  0  0  0  0
  157.6480  213.3490  155.8490 O   0  0  0  0  0  1  0  0  0  0  0  0
  1 21  1  6  0  0  0
  1 41  1  0  0  0  0
  2  1  1  0  0  0  0
  3  7  2  0  0  0  0
  3  6  1  0  0  0  0
  4  2  1  0  0  0  0
  5  2  2  0  0  0  0
  6  4  2  0  0  0  0
  7  5  1  0  0  0  0
  8 13  1  6  0  0  0
  8 12  1  0  0  0  0
  8 11  1  0  0  0  0
  9 10  2  0  0  0  0
 11  6  1  0  0  0  0
 11 10  1  0  0  0  0
 12  9  1  0  0  0  0
 14 13  1  0  0  0  0
 15 18  1  0  0  0  0
 15 17  1  0  0  0  0
 16 15  1  0  0  0  0
 17 20  1  0  0  0  0
 18 19  1  0  0  0  0
 19 20  1  0  0  0  0
 20 14  1  6  0  0  0
 22 23  1  0  0  0  0
 23 21  1  1  0  0  0
 24 28  1  6  0  0  0
 24 22  1  0  0  0  0
 24 26  1  0  0  0  0
 25 26  2  0  0  0  0
 26 27  1  0  0  0  0
 27 23  1  0  0  0  0
 29 30  1  0  0  0  0
 29 28  1  0  0  0  0
 30 31  1  1  0  0  0
 32 33  1  0  0  0  0
 32 36  1  0  0  0  0
 33 30  1  6  0  0  0
 33 37  1  0  0  0  0
 35 38  1  0  0  0  0
 36 34  1  1  0  0  0
 36 35  1  0  0  0  0
 37 38  1  0  0  0  0
 38 40  1  1  0  0  0
 40 39  1  0  0  0  0
 42 43  1  0  0  0  0
 43 46  1  1  0  0  0
 44 43  1  0  0  0  0
 45 41  1  6  0  0  0
 45 44  1  0  0  0  0
 45 42  1  0  0  0  0
 45 43  1  0  0  0  0
 46 47  1  0  0  0  0
 48 49  1  0  0  0  0
 48 47  1  0  0  0  0
 50 52  1  0  0  0  0
 50 53  1  0  0  0  0
 50 49  1  0  0  0  0
 51 50  2  0  0  0  0
M  END
>  <MODEL>
7

>  <REMARK>
 VINA RESULT:      -5.0      3.233      9.905
  Name = 
  19 active torsions:
  status: ('A' for Active; 'I' for Inactive)
    1  A    between atoms: C_1  and  C_19
    2  A    between atoms: C_2  and  C_40
    3  A    between atoms: C_2  and  C_45
    4  A    between atoms: C_7  and  C_11
    5  A    between atoms: C_8  and  N_16
    6  A    between atoms: C_11  and  N_48
    7  A    between atoms: O_15  and  P_21
    8  A    between atoms: O_15  and  C_22
    9  A    between atoms: N_16  and  C_53
   10  A    between atoms: C_17  and  C_52
   11  A    between atoms: C_19  and  N_25
   12  A    between atoms: C_19  and  C_52
   13  A    between atoms: C_22  and  C_45
   14  A    between atoms: N_25  and  C_47
   15  A    between atoms: N_29  and  C_30
   16  A    between atoms: C_32  and  C_49
   17  A    between atoms: C_35  and  C_44
   18  A    between atoms: C_46  and  C_53
   19  A    between atoms: N_48  and  C_49
                            x       y       z     vdW  Elec       q    Type
                         _______ _______ _______ _____ _____    ______ ____

>  <TORSDO>
F 19

$$$$
=
 OpenBabel11042421283D

 53 59  0  0  1  0  0  0  0  0999 V2000
  161.5520  211.9560  149.7410 C   0  0  2  0  0  3  0  0  0  0  0  0
  160.3600  212.5480  150.4510 C   0  0  0  0  0  0  0  0  0  0  0  0
  158.2230  213.7190  151.7880 C   0  0  0  0  0  3  0  0  0  0  0  0
  160.1320  212.2420  151.7990 C   0  0  0  0  0  3  0  0  0  0  0  0
  159.5420  213.4390  149.8200 N   0  0  0  0  0  0  0  0  0  0  0  0
  159.0510  212.8210  152.4740 C   0  0  0  0  0  0  0  0  0  0  0  0
  158.4880  214.0200  150.4510 C   0  0  0  0  0  3  0  0  0  0  0  0
  159.7510  211.8960  154.7500 C   0  0  1  0  0  3  0  0  0  0  0  0
  157.9130  212.4490  155.9800 C   0  0  0  0  0  3  0  0  0  0  0  0
  157.6200  212.8930  154.5690 C   0  0  0  0  0  3  0  0  0  0  0  0
  158.7900  212.4910  153.8480 N   0  0  0  0  0  0  0  0  0  0  0  0
  159.2540  212.0040  156.0650 O   0  0  0  0  0  0  0  0  0  0  0  0
  159.9340  210.4930  154.4150 N   0  0  0  0  0  2  0  0  0  0  0  0
  161.3550  210.2000  154.5550 C   0  0  0  0  0  2  0  0  0  0  0  0
  160.7160  207.0540  153.8490 N   0  0  0  0  0  0  0  0  0  0  0  0
  161.1800  205.7170  153.5280 C   0  0  0  0  0  1  0  0  0  0  0  0
  161.8610  207.8630  153.9910 N   0  0  0  0  0  2  0  0  0  0  0  0
  160.0930  206.9830  155.1060 N   0  0  0  0  0  2  0  0  0  0  0  0
  160.3500  208.2550  155.7460 C   0  0  0  0  0  2  0  0  0  0  0  0
  161.5800  208.7830  155.0770 C   0  0  2  0  0  3  0  0  0  0  0  0
  162.1440  212.8950  148.6920 C   0  0  0  0  0  2  0  0  0  0  0  0
  160.6820  212.5780  146.6770 C   0  0  0  0  0  2  0  0  0  0  0  0
  162.0610  212.2960  147.2960 C   0  0  1  0  0  3  0  0  0  0  0  0
  160.8990  213.3940  145.4030 C   0  0  1  0  0  3  0  0  0  0  0  0
  162.9730  214.2460  144.4990 O   0  0  0  0  0  0  0  0  0  0  0  0
  162.3660  213.5770  145.3760 C   0  0  0  0  0  0  0  0  0  0  0  0
  163.0370  212.9390  146.4390 N   0  0  0  0  0  2  0  0  0  0  0  0
  160.4410  212.5850  144.2030 C   0  0  0  0  0  2  0  0  0  0  0  0
  160.1170  213.4790  143.1020 N   0  0  0  0  0  2  0  0  0  0  0  0
  160.9020  213.0600  141.9530 C   0  0  1  0  0  3  0  0  0  0  0  0
  161.2950  211.7290  142.1180 O   0  0  0  0  0  1  0  0  0  0  0  0
  160.7870  212.5300  139.4940 C   0  0  0  0  0  2  0  0  0  0  0  0
  160.0920  213.2300  140.6680 C   0  0  1  0  0  3  0  0  0  0  0  0
  159.4590  210.7110  138.3890 C   0  0  0  0  0  1  0  0  0  0  0  0
  158.6030  213.0690  138.2760 C   0  0  0  0  0  2  0  0  0  0  0  0
  159.8460  212.1750  138.3310 C   0  0  1  0  0  3  0  0  0  0  0  0
  158.6520  212.7500  140.8260 C   0  0  0  0  0  2  0  0  0  0  0  0
  157.8160  213.1210  139.5970 C   0  0  2  0  0  3  0  0  0  0  0  0
  156.1770  212.1160  138.1820 O   0  0  0  0  0  1  0  0  0  0  0  0
  156.5880  212.2340  139.5090 C   0  0  0  0  0  2  0  0  0  0  0  0
  161.1860  210.6990  149.1030 N   0  0  0  0  0  2  0  0  0  0  0  0
  161.1880  209.1160  150.8520 C   0  0  0  0  0  2  0  0  0  0  0  0
  161.2970  208.2430  149.6310 C   0  0  1  0  0  0  0  0  0  0  0  0
  162.3090  208.6890  148.6140 C   0  0  0  0  0  2  0  0  0  0  0  0
  161.9890  209.6530  149.7100 C   0  0  1  0  0  0  0  0  0  0  0  0
  161.9900  207.0280  150.2030 C   0  0  0  0  0  2  0  0  0  0  0  0
  161.3370  205.7630  149.6710 C   0  0  0  0  0  2  0  0  0  0  0  0
  162.0740  205.2730  148.4380 C   0  0  0  0  0  2  0  0  0  0  0  0
  161.2320  204.4600  147.6740 O   0  0  0  0  0  0  0  0  0  0  0  0
  161.6410  204.7850  146.0590 P   0  0  0  0  0  0  0  0  0  0  0  0
  161.3200  206.2310  145.7480 O   0  0  0  0  0  1  0  0  0  0  0  0
  163.2960  204.5160  145.8200 O   0  0  0  0  0  1  0  0  0  0  0  0
  160.7520  203.7860  145.0230 O   0  0  0  0  0  0  0  0  0  0  0  0
  1 21  1  6  0  0  0
  1  2  1  0  0  0  0
  2  4  1  0  0  0  0
  3  6  1  0  0  0  0
  4  6  2  0  0  0  0
  5  2  2  0  0  0  0
  5  7  1  0  0  0  0
  6 11  1  0  0  0  0
  7  3  2  0  0  0  0
  8 13  1  6  0  0  0
  8 12  1  0  0  0  0
  9 12  1  0  0  0  0
 10  9  2  0  0  0  0
 11 10  1  0  0  0  0
 11  8  1  0  0  0  0
 13 14  1  0  0  0  0
 15 17  1  0  0  0  0
 15 18  1  0  0  0  0
 16 15  1  0  0  0  0
 17 20  1  0  0  0  0
 18 19  1  0  0  0  0
 20 14  1  6  0  0  0
 20 19  1  0  0  0  0
 22 23  1  0  0  0  0
 23 21  1  1  0  0  0
 24 28  1  6  0  0  0
 24 22  1  0  0  0  0
 25 26  2  0  0  0  0
 26 24  1  0  0  0  0
 26 27  1  0  0  0  0
 27 23  1  0  0  0  0
 29 28  1  0  0  0  0
 30 31  1  1  0  0  0
 30 29  1  0  0  0  0
 32 33  1  0  0  0  0
 33 37  1  0  0  0  0
 33 30  1  1  0  0  0
 35 36  1  0  0  0  0
 35 38  1  0  0  0  0
 36 34  1  1  0  0  0
 36 32  1  0  0  0  0
 38 40  1  6  0  0  0
 38 37  1  0  0  0  0
 39 40  1  0  0  0  0
 41  1  1  0  0  0  0
 43 45  1  0  0  0  0
 43 46  1  1  0  0  0
 43 42  1  0  0  0  0
 44 43  1  0  0  0  0
 44 45  1  0  0  0  0
 45 41  1  6  0  0  0
 45 42  1  0  0  0  0
 47 46  1  0  0  0  0
 48 47  1  0  0  0  0
 49 48  1  0  0  0  0
 50 49  1  0  0  0  0
 51 50  1  0  0  0  0
 52 50  1  0  0  0  0
 53 50  2  0  0  0  0
M  END
>  <MODEL>
8

>  <REMARK>
 VINA RESULT:      -5.0      2.365      4.758
  Name = 
  19 active torsions:
  status: ('A' for Active; 'I' for Inactive)
    1  A    between atoms: C_1  and  C_19
    2  A    between atoms: C_2  and  C_40
    3  A    between atoms: C_2  and  C_45
    4  A    between atoms: C_7  and  C_11
    5  A    between atoms: C_8  and  N_16
    6  A    between atoms: C_11  and  N_48
    7  A    between atoms: O_15  and  P_21
    8  A    between atoms: O_15  and  C_22
    9  A    between atoms: N_16  and  C_53
   10  A    between atoms: C_17  and  C_52
   11  A    between atoms: C_19  and  N_25
   12  A    between atoms: C_19  and  C_52
   13  A    between atoms: C_22  and  C_45
   14  A    between atoms: N_25  and  C_47
   15  A    between atoms: N_29  and  C_30
   16  A    between atoms: C_32  and  C_49
   17  A    between atoms: C_35  and  C_44
   18  A    between atoms: C_46  and  C_53
   19  A    between atoms: N_48  and  C_49
                            x       y       z     vdW  Elec       q    Type
                         _______ _______ _______ _____ _____    ______ ____

>  <TORSDO>
F 19

$$$$
=
 OpenBabel11042421283D

 53 59  0  0  1  0  0  0  0  0999 V2000
  161.3610  207.8680  148.3040 C   0  0  2  0  0  3  0  0  0  0  0  0
  161.6340  209.3350  148.5290 C   0  0  0  0  0  0  0  0  0  0  0  0
  162.0580  212.0390  149.0080 C   0  0  0  0  0  3  0  0  0  0  0  0
  160.9920  210.2910  147.7310 C   0  0  0  0  0  3  0  0  0  0  0  0
  162.4400  209.7470  149.5490 N   0  0  0  0  0  0  0  0  0  0  0  0
  161.2100  211.6540  147.9610 C   0  0  0  0  0  0  0  0  0  0  0  0
  162.6660  211.0640  149.7990 C   0  0  0  0  0  3  0  0  0  0  0  0
  160.8000  212.7860  145.7090 C   0  0  1  0  0  3  0  0  0  0  0  0
  159.1040  214.1970  146.2820 C   0  0  0  0  0  3  0  0  0  0  0  0
  159.4990  213.4830  147.5500 C   0  0  0  0  0  3  0  0  0  0  0  0
  160.5800  212.6430  147.1310 N   0  0  0  0  0  0  0  0  0  0  0  0
  159.8010  213.6350  145.1870 O   0  0  0  0  0  0  0  0  0  0  0  0
  162.1090  213.3760  145.4730 N   0  0  0  0  0  2  0  0  0  0  0  0
  162.0560  214.0260  144.1690 C   0  0  0  0  0  2  0  0  0  0  0  0
  162.7460  213.9520  140.9560 N   0  0  0  0  0  0  0  0  0  0  0  0
  163.7070  214.0470  139.8720 C   0  0  0  0  0  1  0  0  0  0  0  0
  163.4580  214.1510  142.1550 N   0  0  0  0  0  2  0  0  0  0  0  0
  162.2660  212.6320  140.9660 N   0  0  0  0  0  2  0  0  0  0  0  0
  162.0010  212.3190  142.3540 C   0  0  0  0  0  2  0  0  0  0  0  0
  162.8710  213.2550  143.1330 C   0  0  2  0  0  3  0  0  0  0  0  0
  160.7980  207.1740  149.5430 C   0  0  0  0  0  2  0  0  0  0  0  0
  160.8400  208.2650  151.8020 C   0  0  0  0  0  2  0  0  0  0  0  0
  161.6460  207.4550  150.7750 C   0  0  1  0  0  3  0  0  0  0  0  0
  160.7510  207.4380  153.0840 C   0  0  1  0  0  3  0  0  0  0  0  0
  161.5810  205.2050  153.4930 O   0  0  0  0  0  0  0  0  0  0  0  0
  161.4610  206.1930  152.7220 C   0  0  0  0  0  0  0  0  0  0  0  0
  161.9900  206.2010  151.4150 N   0  0  0  0  0  2  0  0  0  0  0  0
  161.4820  208.1620  154.2020 C   0  0  0  0  0  2  0  0  0  0  0  0
  160.5740  208.3890  155.3160 N   0  0  0  0  0  2  0  0  0  0  0  0
  161.0250  209.5830  156.0100 C   0  0  1  0  0  3  0  0  0  0  0  0
  162.3330  209.8820  155.6210 O   0  0  0  0  0  1  0  0  0  0  0  0
  160.5050  211.4590  154.4110 C   0  0  0  0  0  2  0  0  0  0  0  0
  160.0900  210.7550  155.7090 C   0  0  1  0  0  3  0  0  0  0  0  0
  158.7710  211.4770  152.5990 C   0  0  0  0  0  1  0  0  0  0  0  0
  158.2940  212.7030  154.7370 C   0  0  0  0  0  2  0  0  0  0  0  0
  159.3750  212.2620  153.7470 C   0  0  1  0  0  3  0  0  0  0  0  0
  158.6260  210.3290  155.6660 C   0  0  0  0  0  2  0  0  0  0  0  0
  157.7050  211.5500  155.5700 C   0  0  2  0  0  3  0  0  0  0  0  0
  155.4690  210.8730  156.0620 O   0  0  0  0  0  1  0  0  0  0  0  0
  156.3510  211.1460  155.0170 C   0  0  0  0  0  2  0  0  0  0  0  0
  162.5790  207.1860  147.8880 N   0  0  0  0  0  2  0  0  0  0  0  0
  161.1580  206.0510  146.3850 C   0  0  0  0  0  2  0  0  0  0  0  0
  162.5230  205.6250  145.9170 C   0  0  1  0  0  0  0  0  0  0  0  0
  163.4660  205.1930  147.0050 C   0  0  0  0  0  2  0  0  0  0  0  0
  162.2010  205.8580  147.4380 C   0  0  1  0  0  0  0  0  0  0  0  0
  162.2090  204.2940  145.2730 C   0  0  0  0  0  2  0  0  0  0  0  0
  160.8770  203.7750  145.7850 C   0  0  0  0  0  2  0  0  0  0  0  0
  161.0930  202.5500  146.6560 C   0  0  0  0  0  2  0  0  0  0  0  0
  161.1920  202.9330  147.9970 O   0  0  0  0  0  0  0  0  0  0  0  0
  160.7790  201.5490  148.8880 P   0  0  0  0  0  0  0  0  0  0  0  0
  159.2840  201.3300  148.7960 O   0  0  0  0  0  1  0  0  0  0  0  0
  161.5820  200.1980  148.2590 O   0  0  0  0  0  0  0  0  0  0  0  0
  161.2090  201.7560  150.5120 O   0  0  0  0  0  1  0  0  0  0  0  0
  1  2  1  0  0  0  0
  1 21  1  1  0  0  0
  2  5  1  0  0  0  0
  3  7  1  0  0  0  0
  4  6  1  0  0  0  0
  4  2  2  0  0  0  0
  5  7  2  0  0  0  0
  6  3  2  0  0  0  0
  8 13  1  1  0  0  0
  8 11  1  0  0  0  0
  9 10  2  0  0  0  0
 11 10  1  0  0  0  0
 11  6  1  0  0  0  0
 12  8  1  0  0  0  0
 12  9  1  0  0  0  0
 14 13  1  0  0  0  0
 15 18  1  0  0  0  0
 15 17  1  0  0  0  0
 16 15  1  0  0  0  0
 17 20  1  0  0  0  0
 18 19  1  0  0  0  0
 19 20  1  0  0  0  0
 20 14  1  1  0  0  0
 22 24  1  0  0  0  0
 23 21  1  6  0  0  0
 23 27  1  0  0  0  0
 23 22  1  0  0  0  0
 24 28  1  1  0  0  0
 26 24  1  0  0  0  0
 26 25  2  0  0  0  0
 27 26  1  0  0  0  0
 28 29  1  0  0  0  0
 29 30  1  0  0  0  0
 30 31  1  6  0  0  0
 32 33  1  0  0  0  0
 33 30  1  6  0  0  0
 35 38  1  0  0  0  0
 36 34  1  6  0  0  0
 36 32  1  0  0  0  0
 36 35  1  0  0  0  0
 37 33  1  0  0  0  0
 38 40  1  6  0  0  0
 38 37  1  0  0  0  0
 40 39  1  0  0  0  0
 41  1  1  0  0  0  0
 42 45  1  0  0  0  0
 43 46  1  1  0  0  0
 43 42  1  0  0  0  0
 43 44  1  0  0  0  0
 43 45  1  0  0  0  0
 44 45  1  0  0  0  0
 45 41  1  1  0  0  0
 46 47  1  0  0  0  0
 47 48  1  0  0  0  0
 48 49  1  0  0  0  0
 49 50  1  0  0  0  0
 50 53  1  0  0  0  0
 51 50  1  0  0  0  0
 52 50  2  0  0  0  0
M  END
>  <MODEL>
9

>  <REMARK>
 VINA RESULT:      -4.8      2.257      8.960
  Name = 
  19 active torsions:
  status: ('A' for Active; 'I' for Inactive)
    1  A    between atoms: C_1  and  C_19
    2  A    between atoms: C_2  and  C_40
    3  A    between atoms: C_2  and  C_45
    4  A    between atoms: C_7  and  C_11
    5  A    between atoms: C_8  and  N_16
    6  A    between atoms: C_11  and  N_48
    7  A    between atoms: O_15  and  P_21
    8  A    between atoms: O_15  and  C_22
    9  A    between atoms: N_16  and  C_53
   10  A    between atoms: C_17  and  C_52
   11  A    between atoms: C_19  and  N_25
   12  A    between atoms: C_19  and  C_52
   13  A    between atoms: C_22  and  C_45
   14  A    between atoms: N_25  and  C_47
   15  A    between atoms: N_29  and  C_30
   16  A    between atoms: C_32  and  C_49
   17  A    between atoms: C_35  and  C_44
   18  A    between atoms: C_46  and  C_53
   19  A    between atoms: N_48  and  C_49
                            x       y       z     vdW  Elec       q    Type
                         _______ _______ _______ _____ _____    ______ ____

>  <TORSDO>
F 19

$$$$
