=
 OpenBabel11042421583D

 46 51  0  0  1  0  0  0  0  0999 V2000
  161.6450  209.0950  150.7630 C   0  0  0  0  0  0  0  0  0  0  0  0
  161.9430  209.7320  149.5490 C   0  0  0  0  0  0  0  0  0  0  0  0
  160.3250  207.4540  154.2600 O   0  0  0  0  0  0  0  0  0  0  0  0
  161.5580  209.8600  152.0190 C   0  0  0  0  0  3  0  0  0  0  0  0
  161.6820  207.6130  148.4060 C   0  0  0  0  0  0  0  0  0  0  0  0
  161.4150  207.0160  149.6030 N   0  0  0  0  0  0  0  0  0  0  0  0
  161.1770  209.2980  153.1250 N   0  0  0  0  0  0  0  0  0  0  0  0
  160.8410  207.9070  153.2040 C   0  0  0  0  0  0  0  0  0  0  0  0
  161.1360  206.9720  152.0640 C   0  0  1  0  0  3  0  0  0  0  0  0
  161.3900  207.7120  150.7720 C   0  0  0  0  0  0  0  0  0  0  0  0
  161.9620  208.9800  148.3680 C   0  0  0  0  0  3  0  0  0  0  0  0
  161.7150  206.8210  147.1260 C   0  0  2  0  0  0  0  0  0  0  0  0
  160.8340  205.5910  147.3030 C   0  0  2  0  0  3  0  0  0  0  0  0
  162.3420  205.4460  147.2590 C   0  0  1  0  0  3  0  0  0  0  0  0
  160.3600  206.7460  146.4480 C   0  0  0  0  0  2  0  0  0  0  0  0
  162.7500  204.9580  145.9520 N   0  0  0  0  0  2  0  0  0  0  0  0
  161.9850  203.7500  145.7060 C   0  0  0  0  0  2  0  0  0  0  0  0
  162.1300  202.8090  146.8840 C   0  0  0  0  0  2  0  0  0  0  0  0
  160.8240  202.0680  147.1170 C   0  0  1  0  0  3  0  0  0  0  0  0
  160.8030  200.7990  146.3310 C   0  0  0  0  0  0  0  0  0  0  0  0
  160.1040  200.7160  145.1320 O   0  0  0  0  0  0  0  0  0  0  0  0
  161.4100  199.7880  146.7690 O   0  0  0  0  0  1  0  0  0  0  0  0
  160.5670  201.7450  148.8620 S   0  0  0  0  0  0  0  0  0  0  0  0
  161.4670  200.6280  149.3100 O   0  0  0  0  0  0  0  0  0  0  0  0
  159.1370  201.3500  149.1010 O   0  0  0  0  0  0  0  0  0  0  0  0
  160.9330  203.2120  149.8080 C   0  0  0  0  0  2  0  0  0  0  0  0
  160.1980  203.2330  152.0750 O   0  0  0  0  0  1  0  0  0  0  0  0
  162.2100  202.2030  151.6950 O   0  0  0  0  0  0  0  0  0  0  0  0
  161.0800  202.8760  151.2510 C   0  0  0  0  0  0  0  0  0  0  0  0
  162.3120  206.1140  152.4220 C   0  0  0  0  0  3  0  0  0  0  0  0
  163.2950  205.8890  151.5520 C   0  0  0  0  0  2  0  0  0  0  0  0
  162.1970  211.1420  149.5200 N   0  0  0  0  0  2  0  0  0  0  0  0
  163.4350  212.6560  148.0350 C   0  0  0  0  0  1  0  0  0  0  0  0
  162.1140  211.9520  148.3090 C   0  0  2  0  0  3  0  0  0  0  0  0
  161.0050  212.9040  148.3900 N   0  0  0  0  0  2  0  0  0  0  0  0
  159.9700  212.5750  147.4130 C   0  0  0  0  0  2  0  0  0  0  0  0
  160.5040  212.8520  144.0250 C   0  0  0  0  0  0  0  0  0  0  0  0
  158.4910  213.7110  145.3730 S   0  0  1  0  0  0  0  0  0  0  0  0
  160.9880  212.9560  145.2210 N   0  0  0  0  0  0  0  0  0  0  0  0
  160.0750  213.5080  146.2180 C   0  0  2  0  0  3  0  0  0  0  0  0
  159.1600  213.2660  143.8320 N   0  0  0  0  0  2  0  0  0  0  0  0
  157.6790  212.4790  145.7570 O   0  0  0  0  0  0  0  0  0  0  0  0
  161.3360  212.3590  142.8940 C   0  0  0  0  0  2  0  0  0  0  0  0
  160.4270  212.0780  140.6130 C   0  0  0  0  0  2  0  0  0  0  0  0
  160.5050  211.4630  141.9950 C   0  0  0  0  0  3  0  0  0  0  0  0
  161.3840  210.9380  140.8790 C   0  0  0  0  0  2  0  0  0  0  0  0
  1 10  1  0  0  0  0
  1  4  1  0  0  0  0
  2  1  2  0  0  0  0
  4  7  2  0  0  0  0
  5  6  1  0  0  0  0
  6 10  2  0  0  0  0
  7  8  1  0  0  0  0
  8  3  2  0  0  0  0
  9 30  1  1  0  0  0
  9  8  1  0  0  0  0
 10  9  1  0  0  0  0
 11  5  2  0  0  0  0
 11  2  1  0  0  0  0
 12 14  1  0  0  0  0
 12 13  1  0  0  0  0
 12  5  1  1  0  0  0
 13 15  1  6  0  0  0
 14 16  1  6  0  0  0
 14 13  1  0  0  0  0
 15 12  1  0  0  0  0
 17 16  1  0  0  0  0
 17 18  1  0  0  0  0
 19 18  1  1  0  0  0
 19 23  1  0  0  0  0
 20 22  1  0  0  0  0
 20 19  1  0  0  0  0
 21 20  2  0  0  0  0
 23 25  2  0  0  0  0
 23 24  2  0  0  0  0
 23 26  1  0  0  0  0
 26 29  1  0  0  0  0
 29 28  2  0  0  0  0
 29 27  1  0  0  0  0
 31 30  2  0  0  0  0
 32  2  1  0  0  0  0
 34 33  1  1  0  0  0
 34 35  1  0  0  0  0
 34 32  1  0  0  0  0
 36 35  1  0  0  0  0
 37 39  2  0  0  0  0
 38 42  2  1  0  0  0
 38 40  1  0  0  0  0
 39 40  1  0  0  0  0
 40 36  1  1  0  0  0
 41 37  1  0  0  0  0
 41 38  1  0  0  0  0
 43 37  1  0  0  0  0
 44 46  1  0  0  0  0
 44 45  1  0  0  0  0
 45 43  1  0  0  0  0
 46 45  1  0  0  0  0
M  END
>  <MODEL>
1

>  <REMARK>
 VINA RESULT:      -6.9      0.000      0.000
  Name = 
  17 active torsions:
  status: ('A' for Active; 'I' for Inactive)
    1  A    between atoms: C_2  and  C_40
    2  A    between atoms: C_3  and  C_23
    3  A    between atoms: C_4  and  C_42
    4  A    between atoms: C_6  and  S_14
    5  A    between atoms: C_6  and  C_33
    6  A    between atoms: C_7  and  N_9
    7  A    between atoms: N_9  and  C_15
    8  A    between atoms: S_14  and  C_42
    9  A    between atoms: C_15  and  N_35
   10  A    between atoms: C_16  and  C_21
   11  A    between atoms: N_19  and  C_20
   12  A    between atoms: N_19  and  C_32
   13  A    between atoms: C_20  and  C_43
   14  A    between atoms: C_22  and  C_23
   15  A    between atoms: C_27  and  C_37
   16  A    between atoms: N_35  and  C_37
   17  A    between atoms: C_42  and  C_43
                            x       y       z     vdW  Elec       q    Type
                         _______ _______ _______ _____ _____    ______ ____

>  <TORSDO>
F 17

$$$$
=
 OpenBabel11042421583D

 46 51  0  0  1  0  0  0  0  0999 V2000
  161.5950  206.4630  148.2200 C   0  0  0  0  0  0  0  0  0  0  0  0
  161.4740  207.5450  149.1050 C   0  0  0  0  0  0  0  0  0  0  0  0
  162.4140  203.4750  145.5620 O   0  0  0  0  0  0  0  0  0  0  0  0
  161.5990  206.6730  146.7620 C   0  0  0  0  0  3  0  0  0  0  0  0
  161.7100  206.0140  150.9650 C   0  0  0  0  0  0  0  0  0  0  0  0
  161.8050  204.9780  150.0830 N   0  0  0  0  0  0  0  0  0  0  0  0
  161.8180  205.6930  145.9420 N   0  0  0  0  0  0  0  0  0  0  0  0
  162.0470  204.3510  146.3900 C   0  0  0  0  0  0  0  0  0  0  0  0
  161.8130  203.9630  147.8240 C   0  0  1  0  0  3  0  0  0  0  0  0
  161.7520  205.1640  148.7370 C   0  0  0  0  0  0  0  0  0  0  0  0
  161.5310  207.3120  150.4850 C   0  0  0  0  0  3  0  0  0  0  0  0
  161.7610  205.7830  152.4520 C   0  0  2  0  0  0  0  0  0  0  0  0
  160.3350  205.6050  152.9570 C   0  0  2  0  0  3  0  0  0  0  0  0
  161.1020  206.8740  153.2760 C   0  0  1  0  0  3  0  0  0  0  0  0
  161.2560  204.4090  152.8510 C   0  0  0  0  0  2  0  0  0  0  0  0
  161.5860  206.8220  154.6470 N   0  0  0  0  0  2  0  0  0  0  0  0
  160.9400  207.9120  155.3530 C   0  0  0  0  0  2  0  0  0  0  0  0
  160.7230  209.0730  154.4060 C   0  0  0  0  0  2  0  0  0  0  0  0
  160.3090  210.3090  155.1890 C   0  0  1  0  0  3  0  0  0  0  0  0
  161.4820  210.8710  155.9220 C   0  0  0  0  0  0  0  0  0  0  0  0
  162.7530  210.8370  155.3610 O   0  0  0  0  0  0  0  0  0  0  0  0
  161.3190  211.3640  157.0670 O   0  0  0  0  0  1  0  0  0  0  0  0
  159.5750  211.5400  154.1130 S   0  0  0  0  0  0  0  0  0  0  0  0
  158.3740  210.9600  153.4210 O   0  0  0  0  0  0  0  0  0  0  0  0
  160.5760  211.9740  153.0790 O   0  0  0  0  0  0  0  0  0  0  0  0
  159.0740  212.9590  155.0700 C   0  0  0  0  0  2  0  0  0  0  0  0
  157.0580  212.2930  156.1500 O   0  0  0  0  0  1  0  0  0  0  0  0
  156.8050  213.7150  154.3710 O   0  0  0  0  0  0  0  0  0  0  0  0
  157.5960  212.9760  155.2400 C   0  0  0  0  0  0  0  0  0  0  0  0
  160.5490  203.1630  147.9180 C   0  0  0  0  0  3  0  0  0  0  0  0
  160.5620  201.8900  148.3100 C   0  0  0  0  0  2  0  0  0  0  0  0
  161.3220  208.8770  148.5970 N   0  0  0  0  0  2  0  0  0  0  0  0
  162.0240  210.3780  150.4090 C   0  0  0  0  0  1  0  0  0  0  0  0
  162.2080  209.9810  148.9510 C   0  0  2  0  0  3  0  0  0  0  0  0
  162.0070  211.1220  148.0550 N   0  0  0  0  0  2  0  0  0  0  0  0
  161.6170  212.3090  148.8120 C   0  0  0  0  0  2  0  0  0  0  0  0
  162.2780  213.6650  145.7190 C   0  0  0  0  0  0  0  0  0  0  0  0
  160.5000  214.4180  147.4170 S   0  0  1  0  0  0  0  0  0  0  0  0
  162.7460  213.2130  146.8380 N   0  0  0  0  0  0  0  0  0  0  0  0
  161.9700  213.5610  148.0250 C   0  0  2  0  0  3  0  0  0  0  0  0
  161.0770  214.4200  145.7770 N   0  0  0  0  0  2  0  0  0  0  0  0
  159.4070  213.3550  147.3880 O   0  0  0  0  0  0  0  0  0  0  0  0
  162.9920  213.4380  144.4340 C   0  0  0  0  0  2  0  0  0  0  0  0
  162.7980  213.7390  141.9890 C   0  0  0  0  0  2  0  0  0  0  0  0
  162.0200  213.5570  143.2760 C   0  0  0  0  0  3  0  0  0  0  0  0
  162.2260  212.3840  142.3390 C   0  0  0  0  0  2  0  0  0  0  0  0
  1 10  2  0  0  0  0
  1  2  1  0  0  0  0
  2 11  2  0  0  0  0
  3  8  2  0  0  0  0
  4  1  1  0  0  0  0
  6  5  2  0  0  0  0
  7  8  1  0  0  0  0
  7  4  2  0  0  0  0
  8  9  1  0  0  0  0
  9 30  1  6  0  0  0
  9 10  1  0  0  0  0
 10  6  1  0  0  0  0
 11  5  1  0  0  0  0
 12  5  1  6  0  0  0
 12 15  1  0  0  0  0
 12 13  1  0  0  0  0
 12 14  1  0  0  0  0
 13 15  1  1  0  0  0
 13 14  1  0  0  0  0
 14 16  1  1  0  0  0
 16 17  1  0  0  0  0
 18 17  1  0  0  0  0
 19 18  1  6  0  0  0
 19 20  1  0  0  0  0
 20 22  1  0  0  0  0
 21 20  2  0  0  0  0
 23 26  1  0  0  0  0
 23 19  1  0  0  0  0
 24 23  2  0  0  0  0
 25 23  2  0  0  0  0
 26 29  1  0  0  0  0
 28 29  2  0  0  0  0
 29 27  1  0  0  0  0
 30 31  2  0  0  0  0
 32 34  1  0  0  0  0
 32  2  1  0  0  0  0
 34 33  1  1  0  0  0
 35 36  1  0  0  0  0
 35 34  1  0  0  0  0
 37 41  1  0  0  0  0
 37 39  2  0  0  0  0
 38 42  2  6  0  0  0
 38 40  1  0  0  0  0
 39 40  1  0  0  0  0
 40 36  1  6  0  0  0
 41 38  1  0  0  0  0
 43 37  1  0  0  0  0
 44 46  1  0  0  0  0
 44 45  1  0  0  0  0
 45 43  1  0  0  0  0
 46 45  1  0  0  0  0
M  END
>  <MODEL>
2

>  <REMARK>
 VINA RESULT:      -6.7      3.136      7.592
  Name = 
  17 active torsions:
  status: ('A' for Active; 'I' for Inactive)
    1  A    between atoms: C_2  and  C_40
    2  A    between atoms: C_3  and  C_23
    3  A    between atoms: C_4  and  C_42
    4  A    between atoms: C_6  and  S_14
    5  A    between atoms: C_6  and  C_33
    6  A    between atoms: C_7  and  N_9
    7  A    between atoms: N_9  and  C_15
    8  A    between atoms: S_14  and  C_42
    9  A    between atoms: C_15  and  N_35
   10  A    between atoms: C_16  and  C_21
   11  A    between atoms: N_19  and  C_20
   12  A    between atoms: N_19  and  C_32
   13  A    between atoms: C_20  and  C_43
   14  A    between atoms: C_22  and  C_23
   15  A    between atoms: C_27  and  C_37
   16  A    between atoms: N_35  and  C_37
   17  A    between atoms: C_42  and  C_43
                            x       y       z     vdW  Elec       q    Type
                         _______ _______ _______ _____ _____    ______ ____

>  <TORSDO>
F 17

$$$$
=
 OpenBabel11042421583D

 46 51  0  0  1  0  0  0  0  0999 V2000
  158.5870  212.9370  151.9610 C   0  0  0  0  0  0  0  0  0  0  0  0
  159.7690  212.5040  151.3410 C   0  0  0  0  0  0  0  0  0  0  0  0
  154.9090  214.0120  153.3680 O   0  0  0  0  0  0  0  0  0  0  0  0
  157.8540  214.1110  151.4570 C   0  0  0  0  0  3  0  0  0  0  0  0
  159.8660  210.6440  152.8890 C   0  0  0  0  0  0  0  0  0  0  0  0
  158.7270  211.0990  153.4850 N   0  0  0  0  0  0  0  0  0  0  0  0
  156.7060  214.4530  151.9570 N   0  0  0  0  0  0  0  0  0  0  0  0
  156.0920  213.7350  153.0340 C   0  0  0  0  0  0  0  0  0  0  0  0
  156.8520  212.6860  153.8000 C   0  0  1  0  0  3  0  0  0  0  0  0
  158.0790  212.2160  153.0570 C   0  0  0  0  0  0  0  0  0  0  0  0
  160.4080  211.3510  151.8140 C   0  0  0  0  0  3  0  0  0  0  0  0
  160.5720  209.4120  153.3870 C   0  0  2  0  0  0  0  0  0  0  0  0
  161.9730  209.8110  153.8310 C   0  0  2  0  0  3  0  0  0  0  0  0
  161.7790  209.0070  152.5600 C   0  0  1  0  0  3  0  0  0  0  0  0
  160.9150  209.4870  154.8630 C   0  0  0  0  0  2  0  0  0  0  0  0
  162.1040  207.6110  152.8080 N   0  0  0  0  0  2  0  0  0  0  0  0
  162.4680  207.0390  151.5260 C   0  0  0  0  0  2  0  0  0  0  0  0
  161.2550  206.3780  150.9030 C   0  0  0  0  0  2  0  0  0  0  0  0
  161.6820  205.5320  149.7140 C   0  0  1  0  0  3  0  0  0  0  0  0
  161.0850  204.1680  149.8120 C   0  0  0  0  0  0  0  0  0  0  0  0
  160.9150  203.3830  148.6770 O   0  0  0  0  0  0  0  0  0  0  0  0
  160.7150  203.7320  150.9330 O   0  0  0  0  0  1  0  0  0  0  0  0
  161.2320  206.3190  148.1670 S   0  0  0  0  0  0  0  0  0  0  0  0
  161.5160  207.7930  148.2450 O   0  0  0  0  0  0  0  0  0  0  0  0
  159.7680  206.1140  147.8990 O   0  0  0  0  0  0  0  0  0  0  0  0
  162.1750  205.6080  146.8310 C   0  0  0  0  0  2  0  0  0  0  0  0
  160.6420  206.5160  145.2490 O   0  0  0  0  0  1  0  0  0  0  0  0
  161.3310  204.3680  144.8400 O   0  0  0  0  0  0  0  0  0  0  0  0
  161.3500  205.5340  145.5940 C   0  0  0  0  0  0  0  0  0  0  0  0
  157.2250  213.2330  155.1450 C   0  0  0  0  0  3  0  0  0  0  0  0
  158.4900  213.5140  155.4510 C   0  0  0  0  0  2  0  0  0  0  0  0
  160.2970  213.2210  150.2180 N   0  0  0  0  0  2  0  0  0  0  0  0
  162.0060  211.9620  148.9830 C   0  0  0  0  0  1  0  0  0  0  0  0
  160.6220  212.5940  148.9410 C   0  0  2  0  0  3  0  0  0  0  0  0
  160.5040  213.5540  147.8410 N   0  0  0  0  0  2  0  0  0  0  0  0
  160.8830  212.9340  146.5740 C   0  0  0  0  0  2  0  0  0  0  0  0
  160.0080  213.0930  143.2490 C   0  0  0  0  0  0  0  0  0  0  0  0
  158.6520  213.9170  145.2710 S   0  0  1  0  0  0  0  0  0  0  0  0
  160.9220  213.2690  144.1510 N   0  0  0  0  0  0  0  0  0  0  0  0
  160.4500  213.8200  145.4170 C   0  0  2  0  0  3  0  0  0  0  0  0
  158.6770  213.4380  143.6000 N   0  0  0  0  0  2  0  0  0  0  0  0
  158.1320  212.6670  145.9730 O   0  0  0  0  0  0  0  0  0  0  0  0
  160.3490  212.5910  141.8910 C   0  0  0  0  0  2  0  0  0  0  0  0
  161.9280  211.0390  140.7940 C   0  0  0  0  0  2  0  0  0  0  0  0
  161.7830  212.0950  141.8690 C   0  0  0  0  0  3  0  0  0  0  0  0
  162.4040  212.4500  140.5340 C   0  0  0  0  0  2  0  0  0  0  0  0
  1 10  1  0  0  0  0
  2 11  1  0  0  0  0
  2  1  2  0  0  0  0
  4  7  2  0  0  0  0
  4  1  1  0  0  0  0
  5  6  1  0  0  0  0
  7  8  1  0  0  0  0
  8  3  2  0  0  0  0
  8  9  1  0  0  0  0
  9 30  1  1  0  0  0
 10  6  2  0  0  0  0
 10  9  1  0  0  0  0
 11  5  2  0  0  0  0
 12  5  1  6  0  0  0
 12 13  1  0  0  0  0
 12 15  1  0  0  0  0
 13 15  1  1  0  0  0
 14 16  1  1  0  0  0
 14 12  1  0  0  0  0
 14 13  1  0  0  0  0
 17 16  1  0  0  0  0
 18 17  1  0  0  0  0
 19 20  1  0  0  0  0
 19 18  1  1  0  0  0
 20 22  1  0  0  0  0
 21 20  2  0  0  0  0
 23 24  2  0  0  0  0
 23 19  1  0  0  0  0
 25 23  2  0  0  0  0
 26 23  1  0  0  0  0
 27 29  1  0  0  0  0
 28 29  2  0  0  0  0
 29 26  1  0  0  0  0
 30 31  2  0  0  0  0
 32  2  1  0  0  0  0
 34 33  1  1  0  0  0
 34 32  1  0  0  0  0
 35 34  1  0  0  0  0
 36 35  1  0  0  0  0
 37 41  1  0  0  0  0
 37 39  2  0  0  0  0
 38 40  1  0  0  0  0
 38 42  2  1  0  0  0
 39 40  1  0  0  0  0
 40 36  1  1  0  0  0
 41 38  1  0  0  0  0
 43 37  1  0  0  0  0
 44 45  1  0  0  0  0
 45 43  1  0  0  0  0
 46 44  1  0  0  0  0
 46 45  1  0  0  0  0
M  END
>  <MODEL>
3

>  <REMARK>
 VINA RESULT:      -5.6      3.407      5.445
  Name = 
  17 active torsions:
  status: ('A' for Active; 'I' for Inactive)
    1  A    between atoms: C_2  and  C_40
    2  A    between atoms: C_3  and  C_23
    3  A    between atoms: C_4  and  C_42
    4  A    between atoms: C_6  and  S_14
    5  A    between atoms: C_6  and  C_33
    6  A    between atoms: C_7  and  N_9
    7  A    between atoms: N_9  and  C_15
    8  A    between atoms: S_14  and  C_42
    9  A    between atoms: C_15  and  N_35
   10  A    between atoms: C_16  and  C_21
   11  A    between atoms: N_19  and  C_20
   12  A    between atoms: N_19  and  C_32
   13  A    between atoms: C_20  and  C_43
   14  A    between atoms: C_22  and  C_23
   15  A    between atoms: C_27  and  C_37
   16  A    between atoms: N_35  and  C_37
   17  A    between atoms: C_42  and  C_43
                            x       y       z     vdW  Elec       q    Type
                         _______ _______ _______ _____ _____    ______ ____

>  <TORSDO>
F 17

$$$$
=
 OpenBabel11042421583D

 46 51  0  0  1  0  0  0  0  0999 V2000
  161.6710  205.6500  149.6860 C   0  0  0  0  0  0  0  0  0  0  0  0
  162.0580  206.5760  148.7060 C   0  0  0  0  0  0  0  0  0  0  0  0
  160.1620  203.2630  152.6340 O   0  0  0  0  0  0  0  0  0  0  0  0
  161.8560  205.9400  151.1180 C   0  0  0  0  0  3  0  0  0  0  0  0
  161.1890  205.0930  147.0010 C   0  0  0  0  0  0  0  0  0  0  0  0
  160.8410  204.2020  147.9720 N   0  0  0  0  0  0  0  0  0  0  0  0
  161.4030  205.1370  152.0310 N   0  0  0  0  0  0  0  0  0  0  0  0
  160.7200  203.9180  151.7140 C   0  0  0  0  0  0  0  0  0  0  0  0
  160.6970  203.3860  150.3070 C   0  0  1  0  0  3  0  0  0  0  0  0
  161.0640  204.4440  149.2920 C   0  0  0  0  0  0  0  0  0  0  0  0
  161.8150  206.2890  147.3570 C   0  0  0  0  0  3  0  0  0  0  0  0
  160.9430  204.7990  145.5450 C   0  0  2  0  0  0  0  0  0  0  0  0
  162.2210  204.2190  144.9520 C   0  0  2  0  0  3  0  0  0  0  0  0
  161.7860  205.6260  144.5900 C   0  0  1  0  0  3  0  0  0  0  0  0
  161.0340  203.3200  145.2200 C   0  0  0  0  0  2  0  0  0  0  0  0
  161.1810  205.6270  143.2680 N   0  0  0  0  0  2  0  0  0  0  0  0
  162.0680  206.3910  142.4110 C   0  0  0  0  0  2  0  0  0  0  0  0
  161.2890  206.9360  141.2320 C   0  0  0  0  0  2  0  0  0  0  0  0
  162.2480  207.4870  140.1890 C   0  0  1  0  0  3  0  0  0  0  0  0
  162.5010  206.4640  139.1310 C   0  0  0  0  0  0  0  0  0  0  0  0
  162.3600  206.7830  137.7850 O   0  0  0  0  0  0  0  0  0  0  0  0
  162.8290  205.2960  139.4630 O   0  0  0  0  0  1  0  0  0  0  0  0
  161.6210  209.0070  139.4740 S   0  0  0  0  0  0  0  0  0  0  0  0
  160.2260  208.7880  138.9580 O   0  0  0  0  0  0  0  0  0  0  0  0
  162.5040  209.4350  138.3350 O   0  0  0  0  0  0  0  0  0  0  0  0
  161.5980  210.2920  140.7090 C   0  0  0  0  0  2  0  0  0  0  0  0
  160.5290  212.1260  139.6270 O   0  0  0  0  0  0  0  0  0  0  0  0
  162.7940  212.3270  139.9110 O   0  0  0  0  0  1  0  0  0  0  0  0
  161.6010  211.6330  140.0650 C   0  0  0  0  0  0  0  0  0  0  0  0
  161.6260  202.2140  150.2080 C   0  0  0  0  0  3  0  0  0  0  0  0
  161.2060  201.0340  149.7570 C   0  0  0  0  0  2  0  0  0  0  0  0
  162.6700  207.8140  149.0880 N   0  0  0  0  0  2  0  0  0  0  0  0
  162.0110  210.1190  148.5540 C   0  0  0  0  0  1  0  0  0  0  0  0
  161.9190  208.9760  149.5540 C   0  0  2  0  0  3  0  0  0  0  0  0
  162.3680  209.3900  150.8860 N   0  0  0  0  0  2  0  0  0  0  0  0
  161.4750  210.4060  151.4360 C   0  0  0  0  0  2  0  0  0  0  0  0
  160.8000  209.4360  154.6680 C   0  0  0  0  0  0  0  0  0  0  0  0
  159.3920  210.9710  153.1640 S   0  0  1  0  0  0  0  0  0  0  0  0
  161.1790  209.0920  153.4790 N   0  0  0  0  0  0  0  0  0  0  0  0
  160.4790  209.7570  152.3840 C   0  0  2  0  0  3  0  0  0  0  0  0
  159.7760  210.4140  154.7650 N   0  0  0  0  0  2  0  0  0  0  0  0
  160.1480  212.2920  153.0760 O   0  0  0  0  0  0  0  0  0  0  0  0
  161.3840  208.8010  155.8800 C   0  0  0  0  0  2  0  0  0  0  0  0
  159.5400  207.1820  156.1760 C   0  0  0  0  0  2  0  0  0  0  0  0
  160.2750  208.3450  156.8090 C   0  0  0  0  0  3  0  0  0  0  0  0
  160.5630  206.9280  157.2600 C   0  0  0  0  0  2  0  0  0  0  0  0
  1  4  1  0  0  0  0
  2 32  1  0  0  0  0
  2  1  2  0  0  0  0
  4  7  2  0  0  0  0
  5 11  2  0  0  0  0
  5  6  1  0  0  0  0
  6 10  2  0  0  0  0
  8  7  1  0  0  0  0
  8  3  2  0  0  0  0
  9 30  1  1  0  0  0
  9  8  1  0  0  0  0
 10  1  1  0  0  0  0
 10  9  1  0  0  0  0
 11  2  1  0  0  0  0
 12  5  1  1  0  0  0
 13 15  1  6  0  0  0
 13 12  1  0  0  0  0
 14 16  1  6  0  0  0
 14 13  1  0  0  0  0
 14 12  1  0  0  0  0
 15 12  1  0  0  0  0
 17 16  1  0  0  0  0
 18 17  1  0  0  0  0
 19 18  1  1  0  0  0
 20 22  1  0  0  0  0
 20 19  1  0  0  0  0
 21 20  2  0  0  0  0
 23 19  1  0  0  0  0
 23 26  1  0  0  0  0
 24 23  2  0  0  0  0
 25 23  2  0  0  0  0
 27 29  2  0  0  0  0
 28 29  1  0  0  0  0
 29 26  1  0  0  0  0
 31 30  2  0  0  0  0
 32 34  1  0  0  0  0
 34 33  1  6  0  0  0
 34 35  1  0  0  0  0
 35 36  1  0  0  0  0
 37 41  1  0  0  0  0
 37 43  1  0  0  0  0
 38 42  2  1  0  0  0
 38 41  1  0  0  0  0
 39 37  2  0  0  0  0
 40 36  1  6  0  0  0
 40 38  1  0  0  0  0
 40 39  1  0  0  0  0
 43 45  1  0  0  0  0
 44 45  1  0  0  0  0
 44 46  1  0  0  0  0
 45 46  1  0  0  0  0
M  END
>  <MODEL>
4

>  <REMARK>
 VINA RESULT:      -5.6      4.116      8.777
  Name = 
  17 active torsions:
  status: ('A' for Active; 'I' for Inactive)
    1  A    between atoms: C_2  and  C_40
    2  A    between atoms: C_3  and  C_23
    3  A    between atoms: C_4  and  C_42
    4  A    between atoms: C_6  and  S_14
    5  A    between atoms: C_6  and  C_33
    6  A    between atoms: C_7  and  N_9
    7  A    between atoms: N_9  and  C_15
    8  A    between atoms: S_14  and  C_42
    9  A    between atoms: C_15  and  N_35
   10  A    between atoms: C_16  and  C_21
   11  A    between atoms: N_19  and  C_20
   12  A    between atoms: N_19  and  C_32
   13  A    between atoms: C_20  and  C_43
   14  A    between atoms: C_22  and  C_23
   15  A    between atoms: C_27  and  C_37
   16  A    between atoms: N_35  and  C_37
   17  A    between atoms: C_42  and  C_43
                            x       y       z     vdW  Elec       q    Type
                         _______ _______ _______ _____ _____    ______ ____

>  <TORSDO>
F 17

$$$$
=
 OpenBabel11042421583D

 46 51  0  0  1  0  0  0  0  0999 V2000
  161.4710  208.8990  151.4240 C   0  0  0  0  0  0  0  0  0  0  0  0
  161.7420  209.6840  150.2940 C   0  0  0  0  0  0  0  0  0  0  0  0
  160.2190  206.7950  154.6910 O   0  0  0  0  0  0  0  0  0  0  0  0
  161.3120  209.5130  152.7540 C   0  0  0  0  0  3  0  0  0  0  0  0
  161.6490  207.6920  148.9220 C   0  0  0  0  0  0  0  0  0  0  0  0
  161.4070  206.9490  150.0390 N   0  0  0  0  0  0  0  0  0  0  0  0
  160.9550  208.8070  153.7830 N   0  0  0  0  0  0  0  0  0  0  0  0
  160.7180  207.3960  153.7030 C   0  0  0  0  0  0  0  0  0  0  0  0
  161.0950  206.6150  152.4740 C   0  0  1  0  0  3  0  0  0  0  0  0
  161.3150  207.5090  151.2760 C   0  0  0  0  0  0  0  0  0  0  0  0
  161.8320  209.0710  149.0380 C   0  0  0  0  0  3  0  0  0  0  0  0
  161.7570  207.0500  147.5640 C   0  0  2  0  0  0  0  0  0  0  0  0
  160.7520  205.9070  147.4950 C   0  0  2  0  0  3  0  0  0  0  0  0
  162.2360  205.6100  147.5910 C   0  0  1  0  0  3  0  0  0  0  0  0
  160.4890  207.1940  146.7440 C   0  0  0  0  0  2  0  0  0  0  0  0
  162.7460  205.2320  146.2820 N   0  0  0  0  0  2  0  0  0  0  0  0
  162.1030  203.9790  145.9360 C   0  0  0  0  0  2  0  0  0  0  0  0
  162.1640  203.0330  147.1180 C   0  0  0  0  0  2  0  0  0  0  0  0
  160.8360  202.3090  147.2700 C   0  0  1  0  0  3  0  0  0  0  0  0
  160.7860  201.1290  146.3560 C   0  0  0  0  0  0  0  0  0  0  0  0
  160.0780  201.1860  145.1600 O   0  0  0  0  0  0  0  0  0  0  0  0
  161.3750  200.0670  146.6820 O   0  0  0  0  0  1  0  0  0  0  0  0
  160.5600  201.8140  148.9700 S   0  0  0  0  0  0  0  0  0  0  0  0
  161.4990  200.6990  149.3340 O   0  0  0  0  0  0  0  0  0  0  0  0
  159.1440  201.3380  149.1390 O   0  0  0  0  0  0  0  0  0  0  0  0
  160.8420  203.2000  150.0570 C   0  0  0  0  0  2  0  0  0  0  0  0
  160.3150  202.9770  152.3700 O   0  0  0  0  0  1  0  0  0  0  0  0
  162.3020  202.0430  151.7120 O   0  0  0  0  0  0  0  0  0  0  0  0
  161.1250  202.7270  151.4390 C   0  0  0  0  0  0  0  0  0  0  0  0
  162.3240  205.8060  152.7630 C   0  0  0  0  0  3  0  0  0  0  0  0
  163.3280  205.7360  151.8900 C   0  0  0  0  0  2  0  0  0  0  0  0
  161.8960  211.1030  150.4240 N   0  0  0  0  0  2  0  0  0  0  0  0
  161.3170  212.9060  148.8610 C   0  0  0  0  0  1  0  0  0  0  0  0
  160.8660  212.0650  150.0460 C   0  0  2  0  0  3  0  0  0  0  0  0
  160.4860  212.9030  151.1850 N   0  0  0  0  0  2  0  0  0  0  0  0
  159.4610  212.2450  151.9900 C   0  0  0  0  0  2  0  0  0  0  0  0
  157.0290  212.8130  154.3580 C   0  0  0  0  0  0  0  0  0  0  0  0
  159.5060  213.4900  154.4580 S   0  0  1  0  0  0  0  0  0  0  0  0
  157.3670  212.8370  153.1080 N   0  0  0  0  0  0  0  0  0  0  0  0
  158.7330  213.2740  152.8390 C   0  0  2  0  0  3  0  0  0  0  0  0
  158.0170  213.1940  155.3030 N   0  0  0  0  0  2  0  0  0  0  0  0
  160.2900  212.2040  154.6950 O   0  0  0  0  0  0  0  0  0  0  0  0
  155.6510  212.4420  154.7800 C   0  0  0  0  0  2  0  0  0  0  0  0
  156.3340  210.1890  155.5320 C   0  0  0  0  0  2  0  0  0  0  0  0
  155.4350  210.9530  154.5830 C   0  0  0  0  0  3  0  0  0  0  0  0
  154.8690  210.3670  155.8600 C   0  0  0  0  0  2  0  0  0  0  0  0
  1  4  1  0  0  0  0
  2 32  1  0  0  0  0
  2  1  2  0  0  0  0
  4  7  2  0  0  0  0
  5 11  2  0  0  0  0
  5  6  1  0  0  0  0
  6 10  2  0  0  0  0
  8  7  1  0  0  0  0
  8  3  2  0  0  0  0
  9 30  1  1  0  0  0
  9  8  1  0  0  0  0
 10  1  1  0  0  0  0
 10  9  1  0  0  0  0
 11  2  1  0  0  0  0
 12 14  1  0  0  0  0
 12  5  1  1  0  0  0
 13 15  1  6  0  0  0
 13 12  1  0  0  0  0
 13 14  1  0  0  0  0
 14 16  1  6  0  0  0
 15 12  1  0  0  0  0
 17 16  1  0  0  0  0
 17 18  1  0  0  0  0
 19 18  1  1  0  0  0
 19 23  1  0  0  0  0
 20 22  1  0  0  0  0
 20 19  1  0  0  0  0
 21 20  2  0  0  0  0
 23 25  2  0  0  0  0
 23 24  2  0  0  0  0
 23 26  1  0  0  0  0
 26 29  1  0  0  0  0
 29 28  2  0  0  0  0
 29 27  1  0  0  0  0
 31 30  2  0  0  0  0
 34 33  1  6  0  0  0
 34 32  1  0  0  0  0
 34 35  1  0  0  0  0
 35 36  1  0  0  0  0
 37 43  1  0  0  0  0
 37 41  1  0  0  0  0
 38 42  2  1  0  0  0
 38 41  1  0  0  0  0
 39 37  2  0  0  0  0
 40 36  1  6  0  0  0
 40 39  1  0  0  0  0
 40 38  1  0  0  0  0
 44 46  1  0  0  0  0
 45 43  1  0  0  0  0
 45 44  1  0  0  0  0
 45 46  1  0  0  0  0
M  END
>  <MODEL>
5

>  <REMARK>
 VINA RESULT:      -5.3      3.315      5.632
  Name = 
  17 active torsions:
  status: ('A' for Active; 'I' for Inactive)
    1  A    between atoms: C_2  and  C_40
    2  A    between atoms: C_3  and  C_23
    3  A    between atoms: C_4  and  C_42
    4  A    between atoms: C_6  and  S_14
    5  A    between atoms: C_6  and  C_33
    6  A    between atoms: C_7  and  N_9
    7  A    between atoms: N_9  and  C_15
    8  A    between atoms: S_14  and  C_42
    9  A    between atoms: C_15  and  N_35
   10  A    between atoms: C_16  and  C_21
   11  A    between atoms: N_19  and  C_20
   12  A    between atoms: N_19  and  C_32
   13  A    between atoms: C_20  and  C_43
   14  A    between atoms: C_22  and  C_23
   15  A    between atoms: C_27  and  C_37
   16  A    between atoms: N_35  and  C_37
   17  A    between atoms: C_42  and  C_43
                            x       y       z     vdW  Elec       q    Type
                         _______ _______ _______ _____ _____    ______ ____

>  <TORSDO>
F 17

$$$$
=
 OpenBabel11042421583D

 46 51  0  0  1  0  0  0  0  0999 V2000
  161.6610  205.6060  149.6850 C   0  0  0  0  0  0  0  0  0  0  0  0
  162.0580  206.5120  148.6890 C   0  0  0  0  0  0  0  0  0  0  0  0
  160.1220  203.2820  152.6670 O   0  0  0  0  0  0  0  0  0  0  0  0
  161.8330  205.9250  151.1120 C   0  0  0  0  0  3  0  0  0  0  0  0
  161.2040  204.9940  147.0070 C   0  0  0  0  0  0  0  0  0  0  0  0
  160.8460  204.1240  147.9940 N   0  0  0  0  0  0  0  0  0  0  0  0
  161.3710  205.1420  152.0370 N   0  0  0  0  0  0  0  0  0  0  0  0
  160.6890  203.9180  151.7390 C   0  0  0  0  0  0  0  0  0  0  0  0
  160.6790  203.3570  150.3430 C   0  0  1  0  0  3  0  0  0  0  0  0
  161.0560  204.3930  149.3100 C   0  0  0  0  0  0  0  0  0  0  0  0
  161.8270  206.1970  147.3440 C   0  0  0  0  0  3  0  0  0  0  0  0
  160.9710  204.6710  145.5550 C   0  0  2  0  0  0  0  0  0  0  0  0
  162.2630  204.1050  144.9790 C   0  0  2  0  0  3  0  0  0  0  0  0
  161.8030  205.4970  144.5910 C   0  0  1  0  0  3  0  0  0  0  0  0
  161.0920  203.1880  145.2570 C   0  0  0  0  0  2  0  0  0  0  0  0
  161.2050  205.4640  143.2660 N   0  0  0  0  0  2  0  0  0  0  0  0
  162.0830  206.2270  142.3990 C   0  0  0  0  0  2  0  0  0  0  0  0
  161.2630  206.9200  141.3300 C   0  0  0  0  0  2  0  0  0  0  0  0
  162.1850  207.5190  140.2800 C   0  0  1  0  0  3  0  0  0  0  0  0
  162.3310  206.5820  139.1270 C   0  0  0  0  0  0  0  0  0  0  0  0
  161.9700  206.9720  137.8430 O   0  0  0  0  0  0  0  0  0  0  0  0
  162.7700  205.4190  139.3260 O   0  0  0  0  0  1  0  0  0  0  0  0
  161.5880  209.1190  139.7330 S   0  0  0  0  0  0  0  0  0  0  0  0
  161.5800  210.0800  140.8880 O   0  0  0  0  0  0  0  0  0  0  0  0
  160.1910  208.9840  139.1970 O   0  0  0  0  0  0  0  0  0  0  0  0
  162.6480  209.7520  138.4460 C   0  0  0  0  0  2  0  0  0  0  0  0
  161.5680  211.8390  138.0510 O   0  0  0  0  0  0  0  0  0  0  0  0
  163.7350  211.9690  138.7870 O   0  0  0  0  0  1  0  0  0  0  0  0
  162.6090  211.2400  138.4270 C   0  0  0  0  0  0  0  0  0  0  0  0
  161.6070  202.1820  150.2770 C   0  0  0  0  0  3  0  0  0  0  0  0
  161.2060  201.0090  149.7910 C   0  0  0  0  0  2  0  0  0  0  0  0
  162.6680  207.7570  149.0520 N   0  0  0  0  0  2  0  0  0  0  0  0
  162.0640  210.0940  148.6050 C   0  0  0  0  0  1  0  0  0  0  0  0
  161.9200  208.9080  149.5470 C   0  0  2  0  0  3  0  0  0  0  0  0
  162.3300  209.2520  150.9100 N   0  0  0  0  0  2  0  0  0  0  0  0
  161.1790  209.2510  151.8090 C   0  0  0  0  0  2  0  0  0  0  0  0
  159.5020  211.4390  153.8690 C   0  0  0  0  0  0  0  0  0  0  0  0
  161.4140  209.8410  154.5000 S   0  0  1  0  0  0  0  0  0  0  0  0
  160.0890  211.2370  152.7320 N   0  0  0  0  0  0  0  0  0  0  0  0
  161.2890  210.4080  152.7890 C   0  0  2  0  0  3  0  0  0  0  0  0
  160.0780  210.8280  155.0130 N   0  0  0  0  0  2  0  0  0  0  0  0
  160.8160  208.4390  154.4950 O   0  0  0  0  0  0  0  0  0  0  0  0
  158.3010  212.3100  153.9740 C   0  0  0  0  0  2  0  0  0  0  0  0
  156.6320  212.9350  155.6870 C   0  0  0  0  0  2  0  0  0  0  0  0
  157.3710  211.7780  155.0490 C   0  0  0  0  0  3  0  0  0  0  0  0
  155.9400  212.0780  154.6520 C   0  0  0  0  0  2  0  0  0  0  0  0
  1  4  1  0  0  0  0
  2 32  1  0  0  0  0
  2  1  2  0  0  0  0
  4  7  2  0  0  0  0
  5 11  2  0  0  0  0
  5  6  1  0  0  0  0
  6 10  2  0  0  0  0
  8  7  1  0  0  0  0
  8  3  2  0  0  0  0
  9 30  1  1  0  0  0
  9  8  1  0  0  0  0
 10  1  1  0  0  0  0
 10  9  1  0  0  0  0
 11  2  1  0  0  0  0
 12  5  1  1  0  0  0
 13 15  1  6  0  0  0
 13 12  1  0  0  0  0
 14 16  1  6  0  0  0
 14 13  1  0  0  0  0
 14 12  1  0  0  0  0
 15 12  1  0  0  0  0
 17 16  1  0  0  0  0
 18 17  1  0  0  0  0
 19 18  1  1  0  0  0
 20 22  1  0  0  0  0
 20 19  1  0  0  0  0
 21 20  2  0  0  0  0
 23 19  1  0  0  0  0
 23 24  2  0  0  0  0
 25 23  2  0  0  0  0
 26 23  1  0  0  0  0
 27 29  2  0  0  0  0
 29 26  1  0  0  0  0
 29 28  1  0  0  0  0
 31 30  2  0  0  0  0
 32 34  1  0  0  0  0
 34 33  1  6  0  0  0
 34 35  1  0  0  0  0
 35 36  1  0  0  0  0
 37 43  1  0  0  0  0
 37 41  1  0  0  0  0
 38 42  2  6  0  0  0
 38 41  1  0  0  0  0
 39 40  1  0  0  0  0
 39 37  2  0  0  0  0
 40 36  1  6  0  0  0
 40 38  1  0  0  0  0
 43 45  1  0  0  0  0
 45 44  1  0  0  0  0
 46 45  1  0  0  0  0
 46 44  1  0  0  0  0
M  END
>  <MODEL>
6

>  <REMARK>
 VINA RESULT:      -5.1      4.434      8.715
  Name = 
  17 active torsions:
  status: ('A' for Active; 'I' for Inactive)
    1  A    between atoms: C_2  and  C_40
    2  A    between atoms: C_3  and  C_23
    3  A    between atoms: C_4  and  C_42
    4  A    between atoms: C_6  and  S_14
    5  A    between atoms: C_6  and  C_33
    6  A    between atoms: C_7  and  N_9
    7  A    between atoms: N_9  and  C_15
    8  A    between atoms: S_14  and  C_42
    9  A    between atoms: C_15  and  N_35
   10  A    between atoms: C_16  and  C_21
   11  A    between atoms: N_19  and  C_20
   12  A    between atoms: N_19  and  C_32
   13  A    between atoms: C_20  and  C_43
   14  A    between atoms: C_22  and  C_23
   15  A    between atoms: C_27  and  C_37
   16  A    between atoms: N_35  and  C_37
   17  A    between atoms: C_42  and  C_43
                            x       y       z     vdW  Elec       q    Type
                         _______ _______ _______ _____ _____    ______ ____

>  <TORSDO>
F 17

$$$$
=
 OpenBabel11042421583D

 46 51  0  0  1  0  0  0  0  0999 V2000
  159.8670  211.5580  153.7070 C   0  0  0  0  0  0  0  0  0  0  0  0
  160.4000  211.4930  152.4110 C   0  0  0  0  0  0  0  0  0  0  0  0
  157.8760  211.8270  157.2600 O   0  0  0  0  0  0  0  0  0  0  0  0
  159.4610  212.8450  154.2960 C   0  0  0  0  0  3  0  0  0  0  0  0
  160.5080  209.0820  152.6050 C   0  0  0  0  0  0  0  0  0  0  0  0
  160.0080  209.1750  153.8700 N   0  0  0  0  0  0  0  0  0  0  0  0
  158.8700  212.9000  155.4500 N   0  0  0  0  0  0  0  0  0  0  0  0
  158.5940  211.7300  156.2300 C   0  0  0  0  0  0  0  0  0  0  0  0
  159.1840  210.3960  155.8610 C   0  0  1  0  0  3  0  0  0  0  0  0
  159.6860  210.3690  154.4370 C   0  0  0  0  0  0  0  0  0  0  0  0
  160.7220  210.2450  151.8630 C   0  0  0  0  0  3  0  0  0  0  0  0
  160.8680  207.7510  152.0010 C   0  0  2  0  0  0  0  0  0  0  0  0
  162.1570  207.2650  152.6520 C   0  0  2  0  0  3  0  0  0  0  0  0
  162.1670  207.7520  151.2160 C   0  0  1  0  0  3  0  0  0  0  0  0
  160.8360  206.6200  153.0120 C   0  0  0  0  0  2  0  0  0  0  0  0
  162.2010  206.6140  150.3120 N   0  0  0  0  0  2  0  0  0  0  0  0
  161.5410  207.0380  149.0910 C   0  0  0  0  0  2  0  0  0  0  0  0
  160.7340  205.8870  148.5250 C   0  0  0  0  0  2  0  0  0  0  0  0
  161.5710  204.6180  148.5300 C   0  0  1  0  0  3  0  0  0  0  0  0
  160.8100  203.5010  149.1650 C   0  0  0  0  0  0  0  0  0  0  0  0
  160.6190  203.4640  150.5410 O   0  0  0  0  0  1  0  0  0  0  0  0
  160.3530  202.5750  148.4470 O   0  0  0  0  0  0  0  0  0  0  0  0
  162.0880  204.1790  146.8700 S   0  0  0  0  0  0  0  0  0  0  0  0
  161.1290  203.1790  146.2870 O   0  0  0  0  0  0  0  0  0  0  0  0
  163.4640  203.5760  146.9080 O   0  0  0  0  0  0  0  0  0  0  0  0
  162.1170  205.6350  145.8410 C   0  0  0  0  0  2  0  0  0  0  0  0
  159.7900  205.9350  145.4280 O   0  0  0  0  0  1  0  0  0  0  0  0
  161.0550  205.3670  143.6030 O   0  0  0  0  0  0  0  0  0  0  0  0
  160.9240  205.6680  144.9520 C   0  0  0  0  0  0  0  0  0  0  0  0
  160.2910  210.0670  156.8180 C   0  0  0  0  0  3  0  0  0  0  0  0
  161.2210  210.9650  157.1360 C   0  0  0  0  0  2  0  0  0  0  0  0
  160.5840  212.6930  151.6480 N   0  0  0  0  0  2  0  0  0  0  0  0
  158.1980  212.8670  151.0900 C   0  0  0  0  0  1  0  0  0  0  0  0
  159.5020  213.6170  151.3240 C   0  0  2  0  0  3  0  0  0  0  0  0
  159.8530  214.4530  150.1740 N   0  0  0  0  0  2  0  0  0  0  0  0
  160.7800  213.7510  149.2910 C   0  0  0  0  0  2  0  0  0  0  0  0
  161.0980  213.6120  145.8670 C   0  0  0  0  0  0  0  0  0  0  0  0
  160.3420  211.7350  147.4510 S   0  0  1  0  0  0  0  0  0  0  0  0
  160.6770  214.2670  146.9020 N   0  0  0  0  0  0  0  0  0  0  0  0
  160.1000  213.4500  147.9650 C   0  0  2  0  0  3  0  0  0  0  0  0
  160.9650  212.2000  145.8970 N   0  0  0  0  0  2  0  0  0  0  0  0
  161.5910  211.2730  148.1920 O   0  0  0  0  0  0  0  0  0  0  0  0
  161.6580  214.3160  144.6820 C   0  0  0  0  0  2  0  0  0  0  0  0
  163.3200  214.1990  142.8560 C   0  0  0  0  0  2  0  0  0  0  0  0
  162.8420  213.5410  144.1340 C   0  0  0  0  0  3  0  0  0  0  0  0
  164.0640  214.4360  144.1500 C   0  0  0  0  0  2  0  0  0  0  0  0
  1  4  1  0  0  0  0
  1 10  1  0  0  0  0
  2  1  2  0  0  0  0
  4  7  2  0  0  0  0
  5  6  1  0  0  0  0
  6 10  2  0  0  0  0
  7  8  1  0  0  0  0
  8  3  2  0  0  0  0
  9  8  1  0  0  0  0
  9 30  1  1  0  0  0
 10  9  1  0  0  0  0
 11  2  1  0  0  0  0
 11  5  2  0  0  0  0
 12  5  1  1  0  0  0
 12 13  1  0  0  0  0
 12 15  1  0  0  0  0
 13 15  1  6  0  0  0
 14 16  1  6  0  0  0
 14 12  1  0  0  0  0
 14 13  1  0  0  0  0
 17 16  1  0  0  0  0
 18 17  1  0  0  0  0
 19 18  1  6  0  0  0
 19 20  1  0  0  0  0
 20 21  1  0  0  0  0
 22 20  2  0  0  0  0
 23 25  2  0  0  0  0
 23 19  1  0  0  0  0
 24 23  2  0  0  0  0
 26 23  1  0  0  0  0
 28 29  2  0  0  0  0
 29 27  1  0  0  0  0
 29 26  1  0  0  0  0
 30 31  2  0  0  0  0
 32  2  1  0  0  0  0
 34 33  1  6  0  0  0
 34 32  1  0  0  0  0
 35 34  1  0  0  0  0
 36 35  1  0  0  0  0
 37 41  1  0  0  0  0
 37 39  2  0  0  0  0
 38 40  1  0  0  0  0
 38 42  2  1  0  0  0
 39 40  1  0  0  0  0
 40 36  1  1  0  0  0
 41 38  1  0  0  0  0
 43 37  1  0  0  0  0
 44 45  1  0  0  0  0
 44 46  1  0  0  0  0
 45 46  1  0  0  0  0
 45 43  1  0  0  0  0
M  END
>  <MODEL>
7

>  <REMARK>
 VINA RESULT:      -5.1      3.063      4.809
  Name = 
  17 active torsions:
  status: ('A' for Active; 'I' for Inactive)
    1  A    between atoms: C_2  and  C_40
    2  A    between atoms: C_3  and  C_23
    3  A    between atoms: C_4  and  C_42
    4  A    between atoms: C_6  and  S_14
    5  A    between atoms: C_6  and  C_33
    6  A    between atoms: C_7  and  N_9
    7  A    between atoms: N_9  and  C_15
    8  A    between atoms: S_14  and  C_42
    9  A    between atoms: C_15  and  N_35
   10  A    between atoms: C_16  and  C_21
   11  A    between atoms: N_19  and  C_20
   12  A    between atoms: N_19  and  C_32
   13  A    between atoms: C_20  and  C_43
   14  A    between atoms: C_22  and  C_23
   15  A    between atoms: C_27  and  C_37
   16  A    between atoms: N_35  and  C_37
   17  A    between atoms: C_42  and  C_43
                            x       y       z     vdW  Elec       q    Type
                         _______ _______ _______ _____ _____    ______ ____

>  <TORSDO>
F 17

$$$$
=
 OpenBabel11042421583D

 46 51  0  0  1  0  0  0  0  0999 V2000
  161.1920  207.8790  152.7970 C   0  0  0  0  0  0  0  0  0  0  0  0
  160.6830  206.9900  153.7550 C   0  0  0  0  0  0  0  0  0  0  0  0
  163.0770  210.5040  150.3010 O   0  0  0  0  0  0  0  0  0  0  0  0
  161.2520  209.3270  153.0610 C   0  0  0  0  0  3  0  0  0  0  0  0
  161.2130  205.1430  152.2820 C   0  0  0  0  0  0  0  0  0  0  0  0
  161.6830  206.0300  151.3600 N   0  0  0  0  0  0  0  0  0  0  0  0
  161.8190  210.1410  152.2260 N   0  0  0  0  0  0  0  0  0  0  0  0
  162.4000  209.6970  150.9930 C   0  0  0  0  0  0  0  0  0  0  0  0
  162.1760  208.2970  150.4910 C   0  0  1  0  0  3  0  0  0  0  0  0
  161.6860  207.3730  151.5810 C   0  0  0  0  0  0  0  0  0  0  0  0
  160.6940  205.6150  153.4890 C   0  0  0  0  0  3  0  0  0  0  0  0
  161.2090  203.6620  152.0120 C   0  0  2  0  0  0  0  0  0  0  0  0
  162.0150  203.4050  150.7450 C   0  0  2  0  0  3  0  0  0  0  0  0
  160.5060  203.2630  150.7280 C   0  0  1  0  0  3  0  0  0  0  0  0
  162.5930  203.0460  152.0970 C   0  0  0  0  0  2  0  0  0  0  0  0
  160.1450  201.8550  150.7760 N   0  0  0  0  0  2  0  0  0  0  0  0
  160.4760  201.3010  149.4760 C   0  0  0  0  0  2  0  0  0  0  0  0
  160.1540  202.3130  148.3960 C   0  0  0  0  0  2  0  0  0  0  0  0
  161.2220  202.2720  147.3140 C   0  0  1  0  0  3  0  0  0  0  0  0
  160.8270  201.3160  146.2370 C   0  0  0  0  0  0  0  0  0  0  0  0
  161.2120  199.9810  146.2950 O   0  0  0  0  0  1  0  0  0  0  0  0
  160.1530  201.7280  145.2590 O   0  0  0  0  0  0  0  0  0  0  0  0
  161.5240  203.9050  146.6420 S   0  0  0  0  0  0  0  0  0  0  0  0
  163.0020  204.1750  146.6070 O   0  0  0  0  0  0  0  0  0  0  0  0
  160.8570  204.9410  147.5020 O   0  0  0  0  0  0  0  0  0  0  0  0
  160.8670  204.0100  144.9880 C   0  0  0  0  0  2  0  0  0  0  0  0
  161.5800  205.7720  143.5500 O   0  0  0  0  0  0  0  0  0  0  0  0
  160.0800  206.3670  145.1770 O   0  0  0  0  0  1  0  0  0  0  0  0
  160.8570  205.4230  144.5200 C   0  0  0  0  0  0  0  0  0  0  0  0
  161.2040  208.3320  149.3510 C   0  0  0  0  0  3  0  0  0  0  0  0
  161.5180  207.8310  148.1570 C   0  0  0  0  0  2  0  0  0  0  0  0
  160.1840  207.4870  155.0030 N   0  0  0  0  0  2  0  0  0  0  0  0
  161.9290  208.0460  156.6380 C   0  0  0  0  0  1  0  0  0  0  0  0
  160.8120  208.5730  155.7490 C   0  0  2  0  0  3  0  0  0  0  0  0
  159.8180  209.3210  156.5230 N   0  0  0  0  0  2  0  0  0  0  0  0
  158.9560  210.1000  155.6380 C   0  0  0  0  0  2  0  0  0  0  0  0
  158.6430  213.2020  154.1810 C   0  0  0  0  0  0  0  0  0  0  0  0
  158.2750  212.5810  156.6480 S   0  0  1  0  0  0  0  0  0  0  0  0
  159.3390  212.1170  154.3070 N   0  0  0  0  0  0  0  0  0  0  0  0
  159.3840  211.5580  155.6550 C   0  0  2  0  0  3  0  0  0  0  0  0
  158.0060  213.7020  155.3470 N   0  0  0  0  0  2  0  0  0  0  0  0
  156.9640  211.8040  156.7010 O   0  0  0  0  0  0  0  0  0  0  0  0
  158.5520  213.9150  152.8790 C   0  0  0  0  0  2  0  0  0  0  0  0
  158.1840  213.4490  150.4800 C   0  0  0  0  0  2  0  0  0  0  0  0
  158.8600  212.9580  151.7440 C   0  0  0  0  0  3  0  0  0  0  0  0
  159.6620  213.6890  150.6880 C   0  0  0  0  0  2  0  0  0  0  0  0
  1  4  1  0  0  0  0
  1  2  1  0  0  0  0
  2 32  1  0  0  0  0
  3  8  2  0  0  0  0
  5 11  1  0  0  0  0
  6 10  1  0  0  0  0
  6  5  2  0  0  0  0
  7  4  2  0  0  0  0
  8  7  1  0  0  0  0
  9 30  1  6  0  0  0
  9  8  1  0  0  0  0
  9 10  1  0  0  0  0
 10  1  2  0  0  0  0
 11  2  2  0  0  0  0
 12 15  1  0  0  0  0
 12  5  1  1  0  0  0
 13 12  1  0  0  0  0
 13 15  1  1  0  0  0
 14 13  1  0  0  0  0
 14 16  1  1  0  0  0
 14 12  1  0  0  0  0
 17 16  1  0  0  0  0
 18 17  1  0  0  0  0
 19 18  1  1  0  0  0
 20 21  1  0  0  0  0
 20 19  1  0  0  0  0
 22 20  2  0  0  0  0
 23 19  1  0  0  0  0
 23 25  2  0  0  0  0
 24 23  2  0  0  0  0
 26 23  1  0  0  0  0
 27 29  2  0  0  0  0
 29 26  1  0  0  0  0
 29 28  1  0  0  0  0
 31 30  2  0  0  0  0
 32 34  1  0  0  0  0
 34 35  1  0  0  0  0
 34 33  1  1  0  0  0
 36 35  1  0  0  0  0
 37 39  2  0  0  0  0
 37 41  1  0  0  0  0
 38 42  2  6  0  0  0
 39 40  1  0  0  0  0
 40 36  1  6  0  0  0
 40 38  1  0  0  0  0
 41 38  1  0  0  0  0
 43 37  1  0  0  0  0
 44 46  1  0  0  0  0
 44 45  1  0  0  0  0
 45 43  1  0  0  0  0
 46 45  1  0  0  0  0
M  END
>  <MODEL>
8

>  <REMARK>
 VINA RESULT:      -4.9      4.239      6.785
  Name = 
  17 active torsions:
  status: ('A' for Active; 'I' for Inactive)
    1  A    between atoms: C_2  and  C_40
    2  A    between atoms: C_3  and  C_23
    3  A    between atoms: C_4  and  C_42
    4  A    between atoms: C_6  and  S_14
    5  A    between atoms: C_6  and  C_33
    6  A    between atoms: C_7  and  N_9
    7  A    between atoms: N_9  and  C_15
    8  A    between atoms: S_14  and  C_42
    9  A    between atoms: C_15  and  N_35
   10  A    between atoms: C_16  and  C_21
   11  A    between atoms: N_19  and  C_20
   12  A    between atoms: N_19  and  C_32
   13  A    between atoms: C_20  and  C_43
   14  A    between atoms: C_22  and  C_23
   15  A    between atoms: C_27  and  C_37
   16  A    between atoms: N_35  and  C_37
   17  A    between atoms: C_42  and  C_43
                            x       y       z     vdW  Elec       q    Type
                         _______ _______ _______ _____ _____    ______ ____

>  <TORSDO>
F 17

$$$$
=
 OpenBabel11042421583D

 46 51  0  0  1  0  0  0  0  0999 V2000
  160.8610  203.8560  146.6130 C   0  0  0  0  0  0  0  0  0  0  0  0
  160.7250  205.1650  146.1260 C   0  0  0  0  0  0  0  0  0  0  0  0
  161.7150  200.0550  147.8320 O   0  0  0  0  0  0  0  0  0  0  0  0
  160.8270  202.7010  145.7000 C   0  0  0  0  0  3  0  0  0  0  0  0
  161.0490  206.0050  148.3740 C   0  0  0  0  0  0  0  0  0  0  0  0
  161.1570  204.7220  148.8230 N   0  0  0  0  0  0  0  0  0  0  0  0
  161.0590  201.4980  146.1280 N   0  0  0  0  0  0  0  0  0  0  0  0
  161.3390  201.2120  147.5040 C   0  0  0  0  0  0  0  0  0  0  0  0
  161.1480  202.2580  148.5680 C   0  0  1  0  0  3  0  0  0  0  0  0
  161.0690  203.6510  147.9890 C   0  0  0  0  0  0  0  0  0  0  0  0
  160.8190  206.2410  147.0170 C   0  0  0  0  0  3  0  0  0  0  0  0
  161.1390  207.1750  149.3170 C   0  0  2  0  0  0  0  0  0  0  0  0
  162.4790  207.1030  150.0390 C   0  0  2  0  0  3  0  0  0  0  0  0
  161.1960  206.7900  150.7840 C   0  0  1  0  0  3  0  0  0  0  0  0
  162.2560  208.1360  148.9560 C   0  0  0  0  0  2  0  0  0  0  0  0
  160.8180  207.9260  151.6100 N   0  0  0  0  0  2  0  0  0  0  0  0
  161.2570  207.6190  152.9580 C   0  0  0  0  0  2  0  0  0  0  0  0
  161.3110  208.8930  153.7770 C   0  0  0  0  0  2  0  0  0  0  0  0
  160.2900  208.8270  154.9020 C   0  0  1  0  0  3  0  0  0  0  0  0
  160.7820  207.9350  155.9930 C   0  0  0  0  0  0  0  0  0  0  0  0
  159.9520  206.9690  156.5500 O   0  0  0  0  0  1  0  0  0  0  0  0
  161.9560  208.0730  156.4240 O   0  0  0  0  0  0  0  0  0  0  0  0
  159.9160  210.4640  155.5310 S   0  0  0  0  0  0  0  0  0  0  0  0
  161.0730  211.3860  155.2670 O   0  0  0  0  0  0  0  0  0  0  0  0
  159.6690  210.3960  157.0120 O   0  0  0  0  0  0  0  0  0  0  0  0
  158.4590  211.1030  154.7260 C   0  0  0  0  0  2  0  0  0  0  0  0
  159.0630  211.3080  152.4300 O   0  0  0  0  0  0  0  0  0  0  0  0
  158.9700  213.2710  153.6090 O   0  0  0  0  0  1  0  0  0  0  0  0
  158.8340  211.8920  153.5210 C   0  0  0  0  0  0  0  0  0  0  0  0
  159.9110  201.9410  149.3540 C   0  0  0  0  0  3  0  0  0  0  0  0
  159.9790  201.3380  150.5380 C   0  0  0  0  0  2  0  0  0  0  0  0
  160.5210  205.3940  144.7260 N   0  0  0  0  0  2  0  0  0  0  0  0
  162.9600  205.4690  144.4460 C   0  0  0  0  0  1  0  0  0  0  0  0
  161.6060  205.4520  143.7510 C   0  0  2  0  0  3  0  0  0  0  0  0
  161.4470  206.6010  142.8580 N   0  0  0  0  0  2  0  0  0  0  0  0
  162.0150  206.3140  141.5430 C   0  0  0  0  0  2  0  0  0  0  0  0
  162.1100  209.2360  139.7280 C   0  0  0  0  0  0  0  0  0  0  0  0
  161.9600  206.8330  138.8290 S   0  0  1  0  0  0  0  0  0  0  0  0
  161.6150  208.5880  140.7340 N   0  0  0  0  0  0  0  0  0  0  0  0
  161.3380  207.1750  140.4900 C   0  0  2  0  0  3  0  0  0  0  0  0
  162.3350  208.5040  138.5330 N   0  0  0  0  0  2  0  0  0  0  0  0
  163.3350  206.2110  139.0430 O   0  0  0  0  0  0  0  0  0  0  0  0
  162.3910  210.6940  139.8110 C   0  0  0  0  0  2  0  0  0  0  0  0
  162.2740  212.0850  141.8510 C   0  0  0  0  0  2  0  0  0  0  0  0
  161.4560  211.3440  140.8140 C   0  0  0  0  0  3  0  0  0  0  0  0
  161.6100  212.8480  140.7270 C   0  0  0  0  0  2  0  0  0  0  0  0
  1 10  1  0  0  0  0
  2  1  2  0  0  0  0
  2 11  1  0  0  0  0
  4  7  2  0  0  0  0
  4  1  1  0  0  0  0
  5  6  1  0  0  0  0
  7  8  1  0  0  0  0
  8  3  2  0  0  0  0
  8  9  1  0  0  0  0
  9 30  1  6  0  0  0
 10  9  1  0  0  0  0
 10  6  2  0  0  0  0
 11  5  2  0  0  0  0
 12  5  1  6  0  0  0
 12 13  1  0  0  0  0
 12 14  1  0  0  0  0
 13 15  1  1  0  0  0
 13 14  1  0  0  0  0
 14 16  1  1  0  0  0
 15 12  1  0  0  0  0
 16 17  1  0  0  0  0
 17 18  1  0  0  0  0
 19 18  1  6  0  0  0
 19 23  1  0  0  0  0
 19 20  1  0  0  0  0
 20 22  2  0  0  0  0
 20 21  1  0  0  0  0
 23 25  2  0  0  0  0
 24 23  2  0  0  0  0
 26 23  1  0  0  0  0
 27 29  2  0  0  0  0
 29 28  1  0  0  0  0
 29 26  1  0  0  0  0
 30 31  2  0  0  0  0
 32  2  1  0  0  0  0
 34 33  1  1  0  0  0
 34 32  1  0  0  0  0
 35 34  1  0  0  0  0
 36 35  1  0  0  0  0
 37 43  1  0  0  0  0
 37 39  2  0  0  0  0
 38 42  2  1  0  0  0
 38 40  1  0  0  0  0
 40 39  1  0  0  0  0
 40 36  1  1  0  0  0
 41 38  1  0  0  0  0
 41 37  1  0  0  0  0
 43 45  1  0  0  0  0
 45 44  1  0  0  0  0
 46 45  1  0  0  0  0
 46 44  1  0  0  0  0
M  END
>  <MODEL>
9

>  <REMARK>
 VINA RESULT:      -4.9      3.834      8.099
  Name = 
  17 active torsions:
  status: ('A' for Active; 'I' for Inactive)
    1  A    between atoms: C_2  and  C_40
    2  A    between atoms: C_3  and  C_23
    3  A    between atoms: C_4  and  C_42
    4  A    between atoms: C_6  and  S_14
    5  A    between atoms: C_6  and  C_33
    6  A    between atoms: C_7  and  N_9
    7  A    between atoms: N_9  and  C_15
    8  A    between atoms: S_14  and  C_42
    9  A    between atoms: C_15  and  N_35
   10  A    between atoms: C_16  and  C_21
   11  A    between atoms: N_19  and  C_20
   12  A    between atoms: N_19  and  C_32
   13  A    between atoms: C_20  and  C_43
   14  A    between atoms: C_22  and  C_23
   15  A    between atoms: C_27  and  C_37
   16  A    between atoms: N_35  and  C_37
   17  A    between atoms: C_42  and  C_43
                            x       y       z     vdW  Elec       q    Type
                         _______ _______ _______ _____ _____    ______ ____

>  <TORSDO>
F 17

$$$$
