=
 OpenBabel11052410053D

 33 36  0  0  1  0  0  0  0  0999 V2000
  161.3720  209.2570  148.3210 C   0  0  0  0  0  1  0  0  0  0  0  0
  161.2510  207.9850  149.0910 C   0  0  0  0  0  0  0  0  0  0  0  0
  162.8870  210.2390  150.8600 S   0  0  0  0  0  0  0  0  0  0  0  0
  161.8760  209.0330  151.3240 C   0  0  0  0  0  0  0  0  0  0  0  0
  161.2390  206.7910  151.2980 C   0  0  0  0  0  0  0  0  0  0  0  0
  161.4710  207.1320  152.6110 C   0  0  0  0  0  0  0  0  0  0  0  0
  160.7500  204.5620  151.8940 C   0  0  0  0  0  0  0  0  0  0  0  0
  160.3430  203.1880  151.5040 C   0  0  0  0  0  1  0  0  0  0  0  0
  161.4500  207.9380  150.4250 C   0  0  0  0  0  0  0  0  0  0  0  0
  160.8780  205.5300  150.9420 N   0  0  0  0  0  0  0  0  0  0  0  0
  161.3720  206.1620  153.6110 C   0  0  0  0  0  3  0  0  0  0  0  0
  161.8400  208.5790  152.7690 C   0  0  2  0  0  3  0  0  0  0  0  0
  161.0030  204.8600  153.2450 C   0  0  0  0  0  3  0  0  0  0  0  0
  160.1150  210.4010  152.7270 C   0  0  0  0  0  3  0  0  0  0  0  0
  159.0810  211.1220  153.1570 C   0  0  0  0  0  3  0  0  0  0  0  0
  160.7630  209.3430  153.5630 C   0  0  2  0  0  3  0  0  0  0  0  0
  161.3490  209.9680  154.7890 C   0  0  0  0  0  3  0  0  0  0  0  0
  157.0610  211.3650  154.6630 C   0  0  0  0  0  1  0  0  0  0  0  0
  159.2160  210.8320  155.6280 C   0  0  0  0  0  3  0  0  0  0  0  0
  158.5030  211.0380  154.5110 C   0  0  0  0  0  0  0  0  0  0  0  0
  160.6310  210.5820  155.6820 N   0  0  0  0  0  0  0  0  0  0  0  0
  160.8770  206.7620  148.3200 C   0  0  0  0  0  2  0  0  0  0  0  0
  162.1320  206.0310  147.8750 C   0  0  0  0  0  2  0  0  0  0  0  0
  161.5250  204.4920  145.8410 C   0  0  0  0  0  0  0  0  0  0  0  0
  161.2370  203.0480  145.6280 C   0  0  0  0  0  2  0  0  0  0  0  0
  161.3470  202.5280  146.9870 N   0  0  0  0  0  0  0  0  0  0  0  0
  161.5320  205.4070  144.9270 N   0  0  0  0  0  0  0  0  0  0  0  0
  161.6730  203.5750  147.8990 C   0  0  0  0  0  3  0  0  0  0  0  0
  161.7750  204.7240  147.2540 C   0  0  0  0  0  0  0  0  0  0  0  0
  161.6580  205.9980  142.5860 C   0  0  0  0  0  1  0  0  0  0  0  0
  161.2730  205.1000  143.6110 O   0  0  0  0  0  0  0  0  0  0  0  0
  161.1670  201.1400  147.3900 C   0  0  0  0  0  2  0  0  0  0  0  0
  161.0010  201.0460  148.7730 O   0  0  0  0  0  1  0  0  0  0  0  0
  1  2  1  0  0  0  0
  2  9  2  0  0  0  0
  3  4  2  0  0  0  0
  5  6  1  0  0  0  0
  6 12  1  0  0  0  0
  6 11  2  0  0  0  0
  7 13  2  0  0  0  0
  8  7  1  0  0  0  0
  9  5  1  0  0  0  0
  9  4  1  0  0  0  0
 10  5  2  0  0  0  0
 10  7  1  0  0  0  0
 12  4  1  6  0  0  0
 12 16  1  0  0  0  0
 13 11  1  0  0  0  0
 14 15  2  0  0  0  0
 15 20  1  0  0  0  0
 16 14  1  6  0  0  0
 16 17  1  0  0  0  0
 17 21  2  0  0  0  0
 19 21  1  0  0  0  0
 20 18  1  0  0  0  0
 20 19  2  0  0  0  0
 22  2  1  0  0  0  0
 23 22  1  0  0  0  0
 24 29  1  0  0  0  0
 25 24  1  0  0  0  0
 25 26  1  0  0  0  0
 26 32  1  0  0  0  0
 26 28  1  0  0  0  0
 27 24  2  0  0  0  0
 29 23  1  0  0  0  0
 29 28  2  0  0  0  0
 30 31  1  0  0  0  0
 31 27  1  0  0  0  0
 32 33  1  0  0  0  0
M  END
>  <MODEL>
1

>  <REMARK>
 VINA RESULT:      -7.2      0.000      0.000
  Name = 
  6 active torsions:
  status: ('A' for Active; 'I' for Inactive)
    1  A    between atoms: C_2  and  C_22
    2  A    between atoms: C_10  and  N_18
    3  A    between atoms: C_11  and  C_32
    4  A    between atoms: N_19  and  O_25
    5  A    between atoms: C_22  and  C_28
    6  A    between atoms: C_28  and  C_30
                            x       y       z     vdW  Elec       q    Type
                         _______ _______ _______ _____ _____    ______ ____

>  <TORSDO>
F 6

$$$$
=
 OpenBabel11052410053D

 33 36  0  0  1  0  0  0  0  0999 V2000
  161.9000  208.2750  148.4110 C   0  0  0  0  0  1  0  0  0  0  0  0
  161.7150  208.0630  149.8760 C   0  0  0  0  0  0  0  0  0  0  0  0
  162.5670  211.1930  149.2740 S   0  0  0  0  0  0  0  0  0  0  0  0
  161.6050  210.5440  150.4330 C   0  0  0  0  0  0  0  0  0  0  0  0
  161.2420  209.0110  152.1510 C   0  0  0  0  0  0  0  0  0  0  0  0
  161.0770  210.2670  152.6870 C   0  0  0  0  0  0  0  0  0  0  0  0
  160.8550  207.9950  154.2440 C   0  0  0  0  0  0  0  0  0  0  0  0
  160.7170  206.7690  155.0710 C   0  0  0  0  0  1  0  0  0  0  0  0
  161.5540  209.0950  150.7310 C   0  0  0  0  0  0  0  0  0  0  0  0
  161.1280  207.8900  152.9120 N   0  0  0  0  0  0  0  0  0  0  0  0
  160.8200  210.4150  154.0520 C   0  0  0  0  0  3  0  0  0  0  0  0
  161.2330  211.3510  151.6600 C   0  0  2  0  0  3  0  0  0  0  0  0
  160.7040  209.2600  154.8390 C   0  0  0  0  0  3  0  0  0  0  0  0
  160.0020  213.0620  150.2980 C   0  0  0  0  0  3  0  0  0  0  0  0
  158.9550  213.7510  149.8490 C   0  0  0  0  0  3  0  0  0  0  0  0
  159.9080  212.1060  151.4450 C   0  0  2  0  0  3  0  0  0  0  0  0
  159.5110  212.8500  152.6810 C   0  0  0  0  0  3  0  0  0  0  0  0
  156.4510  213.9840  149.5660 C   0  0  0  0  0  1  0  0  0  0  0  0
  157.3790  213.6460  151.7760 C   0  0  0  0  0  3  0  0  0  0  0  0
  157.6120  213.7310  150.4590 C   0  0  0  0  0  0  0  0  0  0  0  0
  158.3820  213.4840  152.7940 N   0  0  0  0  0  0  0  0  0  0  0  0
  161.6950  206.6490  150.3560 C   0  0  0  0  0  2  0  0  0  0  0  0
  160.4240  205.9640  149.8850 C   0  0  0  0  0  2  0  0  0  0  0  0
  161.2300  204.4810  147.8790 C   0  0  0  0  0  0  0  0  0  0  0  0
  161.4690  203.0330  147.6340 C   0  0  0  0  0  2  0  0  0  0  0  0
  161.0960  202.4570  148.9220 N   0  0  0  0  0  0  0  0  0  0  0  0
  161.3980  205.4340  147.0190 N   0  0  0  0  0  0  0  0  0  0  0  0
  160.6830  203.4800  149.8270 C   0  0  0  0  0  3  0  0  0  0  0  0
  160.7500  204.6610  149.2380 C   0  0  0  0  0  0  0  0  0  0  0  0
  160.9920  205.3760  144.6360 C   0  0  0  0  0  1  0  0  0  0  0  0
  161.8480  205.1710  145.7450 O   0  0  0  0  0  0  0  0  0  0  0  0
  161.1370  201.0440  149.2720 C   0  0  0  0  0  2  0  0  0  0  0  0
  161.4570  200.2700  148.1550 O   0  0  0  0  0  1  0  0  0  0  0  0
  1  2  1  0  0  0  0
  2 22  1  0  0  0  0
  2  9  2  0  0  0  0
  3  4  2  0  0  0  0
  4  9  1  0  0  0  0
  5  6  2  0  0  0  0
  5 10  1  0  0  0  0
  6 11  1  0  0  0  0
  7 13  1  0  0  0  0
  7  8  1  0  0  0  0
  9  5  1  0  0  0  0
 10  7  2  0  0  0  0
 11 13  2  0  0  0  0
 12  4  1  6  0  0  0
 12  6  1  0  0  0  0
 15 14  2  0  0  0  0
 15 20  1  0  0  0  0
 16 14  1  6  0  0  0
 16 12  1  0  0  0  0
 16 17  1  0  0  0  0
 17 21  2  0  0  0  0
 18 20  1  0  0  0  0
 19 21  1  0  0  0  0
 20 19  2  0  0  0  0
 23 22  1  0  0  0  0
 24 29  1  0  0  0  0
 25 24  1  0  0  0  0
 25 26  1  0  0  0  0
 26 32  1  0  0  0  0
 26 28  1  0  0  0  0
 27 24  2  0  0  0  0
 29 28  2  0  0  0  0
 29 23  1  0  0  0  0
 30 31  1  0  0  0  0
 31 27  1  0  0  0  0
 33 32  1  0  0  0  0
M  END
>  <MODEL>
2

>  <REMARK>
 VINA RESULT:      -7.2      2.329      3.240
  Name = 
  6 active torsions:
  status: ('A' for Active; 'I' for Inactive)
    1  A    between atoms: C_2  and  C_22
    2  A    between atoms: C_10  and  N_18
    3  A    between atoms: C_11  and  C_32
    4  A    between atoms: N_19  and  O_25
    5  A    between atoms: C_22  and  C_28
    6  A    between atoms: C_28  and  C_30
                            x       y       z     vdW  Elec       q    Type
                         _______ _______ _______ _____ _____    ______ ____

>  <TORSDO>
F 6

$$$$
=
 OpenBabel11052410053D

 33 36  0  0  1  0  0  0  0  0999 V2000
  161.6040  209.3620  148.6170 C   0  0  0  0  0  1  0  0  0  0  0  0
  161.4860  208.1540  149.4850 C   0  0  0  0  0  0  0  0  0  0  0  0
  162.8440  210.6420  151.1720 S   0  0  0  0  0  0  0  0  0  0  0  0
  161.8640  209.4210  151.6590 C   0  0  0  0  0  0  0  0  0  0  0  0
  161.3510  207.1500  151.7800 C   0  0  0  0  0  0  0  0  0  0  0  0
  161.4530  207.6120  153.0730 C   0  0  0  0  0  0  0  0  0  0  0  0
  160.9330  204.9530  152.5300 C   0  0  0  0  0  0  0  0  0  0  0  0
  160.6340  203.5290  152.2320 C   0  0  0  0  0  1  0  0  0  0  0  0
  161.5740  208.2300  150.8290 C   0  0  0  0  0  0  0  0  0  0  0  0
  161.0900  205.8440  151.5090 N   0  0  0  0  0  0  0  0  0  0  0  0
  161.3220  206.7250  154.1430 C   0  0  0  0  0  3  0  0  0  0  0  0
  161.7300  209.0870  153.1310 C   0  0  2  0  0  3  0  0  0  0  0  0
  161.0550  205.3770  153.8650 C   0  0  0  0  0  3  0  0  0  0  0  0
  159.7690  210.6040  152.7380 C   0  0  0  0  0  3  0  0  0  0  0  0
  158.6420  211.2510  153.0260 C   0  0  0  0  0  3  0  0  0  0  0  0
  160.5510  209.8490  153.7660 C   0  0  2  0  0  3  0  0  0  0  0  0
  161.0330  210.7960  154.8190 C   0  0  0  0  0  3  0  0  0  0  0  0
  156.5950  211.5330  154.4880 C   0  0  0  0  0  1  0  0  0  0  0  0
  158.7950  211.5180  155.4980 C   0  0  0  0  0  3  0  0  0  0  0  0
  158.0700  211.3810  154.3790 C   0  0  0  0  0  0  0  0  0  0  0  0
  160.2300  211.4820  155.5750 N   0  0  0  0  0  0  0  0  0  0  0  0
  161.2440  206.8500  148.7970 C   0  0  0  0  0  2  0  0  0  0  0  0
  162.4160  206.5250  147.8860 C   0  0  0  0  0  2  0  0  0  0  0  0
  161.6450  204.2180  146.9050 C   0  0  0  0  0  0  0  0  0  0  0  0
  161.2170  203.6980  145.5790 C   0  0  0  0  0  2  0  0  0  0  0  0
  161.3340  204.8920  144.7490 N   0  0  0  0  0  0  0  0  0  0  0  0
  161.7350  203.5300  147.9980 N   0  0  0  0  0  0  0  0  0  0  0  0
  161.7840  206.0000  145.5260 C   0  0  0  0  0  3  0  0  0  0  0  0
  161.9750  205.6280  146.7800 C   0  0  0  0  0  0  0  0  0  0  0  0
  160.3260  201.7440  148.8170 C   0  0  0  0  0  1  0  0  0  0  0  0
  161.4100  202.1930  148.0250 O   0  0  0  0  0  0  0  0  0  0  0  0
  161.0320  204.9790  143.3270 C   0  0  0  0  0  2  0  0  0  0  0  0
  161.6780  206.0760  142.7530 O   0  0  0  0  0  1  0  0  0  0  0  0
  1  2  1  0  0  0  0
  2  9  2  0  0  0  0
  3  4  2  0  0  0  0
  5  6  1  0  0  0  0
  6 12  1  0  0  0  0
  6 11  2  0  0  0  0
  7 13  2  0  0  0  0
  8  7  1  0  0  0  0
  9  4  1  0  0  0  0
  9  5  1  0  0  0  0
 10  5  2  0  0  0  0
 10  7  1  0  0  0  0
 12  4  1  6  0  0  0
 12 16  1  0  0  0  0
 13 11  1  0  0  0  0
 14 15  2  0  0  0  0
 15 20  1  0  0  0  0
 16 14  1  6  0  0  0
 16 17  1  0  0  0  0
 17 21  2  0  0  0  0
 19 21  1  0  0  0  0
 20 18  1  0  0  0  0
 20 19  2  0  0  0  0
 22  2  1  0  0  0  0
 23 22  1  0  0  0  0
 24 27  2  0  0  0  0
 25 24  1  0  0  0  0
 26 28  1  0  0  0  0
 26 25  1  0  0  0  0
 27 31  1  0  0  0  0
 28 29  2  0  0  0  0
 29 24  1  0  0  0  0
 29 23  1  0  0  0  0
 31 30  1  0  0  0  0
 32 26  1  0  0  0  0
 33 32  1  0  0  0  0
M  END
>  <MODEL>
3

>  <REMARK>
 VINA RESULT:      -7.0      0.882      2.627
  Name = 
  6 active torsions:
  status: ('A' for Active; 'I' for Inactive)
    1  A    between atoms: C_2  and  C_22
    2  A    between atoms: C_10  and  N_18
    3  A    between atoms: C_11  and  C_32
    4  A    between atoms: N_19  and  O_25
    5  A    between atoms: C_22  and  C_28
    6  A    between atoms: C_28  and  C_30
                            x       y       z     vdW  Elec       q    Type
                         _______ _______ _______ _____ _____    ______ ____

>  <TORSDO>
F 6

$$$$
=
 OpenBabel11052410053D

 33 36  0  0  1  0  0  0  0  0999 V2000
  161.0800  208.0980  150.4560 C   0  0  0  0  0  1  0  0  0  0  0  0
  161.0190  207.9200  151.9360 C   0  0  0  0  0  0  0  0  0  0  0  0
  161.9340  211.0020  151.1930 S   0  0  0  0  0  0  0  0  0  0  0  0
  161.0550  210.4130  152.4470 C   0  0  0  0  0  0  0  0  0  0  0  0
  160.7890  208.9270  154.2230 C   0  0  0  0  0  0  0  0  0  0  0  0
  160.7220  210.1980  154.7450 C   0  0  0  0  0  0  0  0  0  0  0  0
  160.5520  207.9650  156.3640 C   0  0  0  0  0  0  0  0  0  0  0  0
  160.4410  206.7600  157.2260 C   0  0  0  0  0  1  0  0  0  0  0  0
  160.9760  208.9730  152.7800 C   0  0  0  0  0  0  0  0  0  0  0  0
  160.7000  207.8250  155.0150 N   0  0  0  0  0  0  0  0  0  0  0  0
  160.5930  210.3800  156.1240 C   0  0  0  0  0  3  0  0  0  0  0  0
  160.8260  211.2560  153.6850 C   0  0  2  0  0  3  0  0  0  0  0  0
  160.5040  209.2460  156.9420 C   0  0  0  0  0  3  0  0  0  0  0  0
  158.3610  211.3090  154.1500 C   0  0  0  0  0  3  0  0  0  0  0  0
  157.1450  211.8400  154.2670 C   0  0  0  0  0  3  0  0  0  0  0  0
  159.5170  212.0610  153.5720 C   0  0  2  0  0  3  0  0  0  0  0  0
  159.2240  212.4040  152.1460 C   0  0  0  0  0  3  0  0  0  0  0  0
  155.6630  213.8790  154.4900 C   0  0  0  0  0  1  0  0  0  0  0  0
  157.2320  213.7350  152.6520 C   0  0  0  0  0  3  0  0  0  0  0  0
  156.7620  213.1770  153.7770 C   0  0  0  0  0  0  0  0  0  0  0  0
  158.2330  213.1660  151.7910 N   0  0  0  0  0  0  0  0  0  0  0  0
  160.9870  206.5170  152.4460 C   0  0  0  0  0  2  0  0  0  0  0  0
  162.1250  205.7200  151.8310 C   0  0  0  0  0  2  0  0  0  0  0  0
  161.3340  204.8580  149.4840 C   0  0  0  0  0  0  0  0  0  0  0  0
  160.8340  203.5770  148.9170 C   0  0  0  0  0  2  0  0  0  0  0  0
  160.8340  202.7190  150.0970 N   0  0  0  0  0  0  0  0  0  0  0  0
  161.5000  205.9640  148.8320 N   0  0  0  0  0  0  0  0  0  0  0  0
  161.2960  203.4390  151.2390 C   0  0  0  0  0  3  0  0  0  0  0  0
  161.5860  204.6840  150.9050 C   0  0  0  0  0  0  0  0  0  0  0  0
  162.2570  205.8240  146.5400 C   0  0  0  0  0  1  0  0  0  0  0  0
  161.2260  206.0430  147.4860 O   0  0  0  0  0  0  0  0  0  0  0  0
  160.4360  201.3190  150.1380 C   0  0  0  0  0  2  0  0  0  0  0  0
  161.1910  200.5670  149.2350 O   0  0  0  0  0  1  0  0  0  0  0  0
  1  2  1  0  0  0  0
  2 22  1  0  0  0  0
  2  9  2  0  0  0  0
  3  4  2  0  0  0  0
  4  9  1  0  0  0  0
  5  6  2  0  0  0  0
  5 10  1  0  0  0  0
  6 11  1  0  0  0  0
  7 13  1  0  0  0  0
  7  8  1  0  0  0  0
  9  5  1  0  0  0  0
 10  7  2  0  0  0  0
 11 13  2  0  0  0  0
 12  4  1  6  0  0  0
 12  6  1  0  0  0  0
 14 15  2  0  0  0  0
 16 17  1  6  0  0  0
 16 12  1  0  0  0  0
 16 14  1  0  0  0  0
 19 20  2  0  0  0  0
 20 15  1  0  0  0  0
 20 18  1  0  0  0  0
 21 17  2  0  0  0  0
 21 19  1  0  0  0  0
 23 22  1  0  0  0  0
 24 29  1  0  0  0  0
 25 24  1  0  0  0  0
 25 26  1  0  0  0  0
 26 32  1  0  0  0  0
 26 28  1  0  0  0  0
 27 24  2  0  0  0  0
 29 28  2  0  0  0  0
 29 23  1  0  0  0  0
 30 31  1  0  0  0  0
 31 27  1  0  0  0  0
 33 32  1  0  0  0  0
M  END
>  <MODEL>
4

>  <REMARK>
 VINA RESULT:      -6.6      2.124      3.780
  Name = 
  6 active torsions:
  status: ('A' for Active; 'I' for Inactive)
    1  A    between atoms: C_2  and  C_22
    2  A    between atoms: C_10  and  N_18
    3  A    between atoms: C_11  and  C_32
    4  A    between atoms: N_19  and  O_25
    5  A    between atoms: C_22  and  C_28
    6  A    between atoms: C_28  and  C_30
                            x       y       z     vdW  Elec       q    Type
                         _______ _______ _______ _____ _____    ______ ____

>  <TORSDO>
F 6

$$$$
=
 OpenBabel11052410053D

 33 36  0  0  1  0  0  0  0  0999 V2000
  162.0030  208.6100  148.2910 C   0  0  0  0  0  1  0  0  0  0  0  0
  161.7970  208.3680  149.7490 C   0  0  0  0  0  0  0  0  0  0  0  0
  162.5370  211.5380  149.2120 S   0  0  0  0  0  0  0  0  0  0  0  0
  161.5790  210.8330  150.3420 C   0  0  0  0  0  0  0  0  0  0  0  0
  161.2430  209.2590  152.0280 C   0  0  0  0  0  0  0  0  0  0  0  0
  161.0180  210.4990  152.5800 C   0  0  0  0  0  0  0  0  0  0  0  0
  160.8550  208.1950  154.0970 C   0  0  0  0  0  0  0  0  0  0  0  0
  160.7480  206.9510  154.9010 C   0  0  0  0  0  1  0  0  0  0  0  0
  161.5790  209.3780  150.6160 C   0  0  0  0  0  0  0  0  0  0  0  0
  161.1580  208.1220  152.7690 N   0  0  0  0  0  0  0  0  0  0  0  0
  160.7280  210.6140  153.9410 C   0  0  0  0  0  3  0  0  0  0  0  0
  161.1510  211.6050  151.5730 C   0  0  2  0  0  3  0  0  0  0  0  0
  160.6430  209.4440  154.7080 C   0  0  0  0  0  3  0  0  0  0  0  0
  159.8870  213.3020  150.2240 C   0  0  0  0  0  3  0  0  0  0  0  0
  158.8230  213.9600  149.7660 C   0  0  0  0  0  3  0  0  0  0  0  0
  159.8020  212.3120  151.3430 C   0  0  2  0  0  3  0  0  0  0  0  0
  159.3440  213.0050  152.5870 C   0  0  0  0  0  3  0  0  0  0  0  0
  156.3200  214.0990  149.4240 C   0  0  0  0  0  1  0  0  0  0  0  0
  157.2050  213.7390  151.6480 C   0  0  0  0  0  3  0  0  0  0  0  0
  157.4680  213.8680  150.3390 C   0  0  0  0  0  0  0  0  0  0  0  0
  158.1870  213.5890  152.6870 N   0  0  0  0  0  0  0  0  0  0  0  0
  161.8230  206.9460  150.2060 C   0  0  0  0  0  2  0  0  0  0  0  0
  160.6070  206.2120  149.6700 C   0  0  0  0  0  2  0  0  0  0  0  0
  161.1640  203.7800  148.8610 C   0  0  0  0  0  0  0  0  0  0  0  0
  161.5550  203.1310  147.5810 C   0  0  0  0  0  2  0  0  0  0  0  0
  161.6110  204.2780  146.6810 N   0  0  0  0  0  0  0  0  0  0  0  0
  160.9970  203.1810  149.9970 N   0  0  0  0  0  0  0  0  0  0  0  0
  161.2770  205.4780  147.3770 C   0  0  0  0  0  3  0  0  0  0  0  0
  161.0190  205.2100  148.6460 C   0  0  0  0  0  0  0  0  0  0  0  0
  160.1080  200.9450  149.7620 C   0  0  0  0  0  1  0  0  0  0  0  0
  161.1650  201.8200  150.1140 O   0  0  0  0  0  0  0  0  0  0  0  0
  161.9440  204.2390  145.2650 C   0  0  0  0  0  2  0  0  0  0  0  0
  160.9660  204.8900  144.5100 O   0  0  0  0  0  1  0  0  0  0  0  0
  1  2  1  0  0  0  0
  2 22  1  0  0  0  0
  2  9  2  0  0  0  0
  3  4  2  0  0  0  0
  4  9  1  0  0  0  0
  5  6  2  0  0  0  0
  5 10  1  0  0  0  0
  6 11  1  0  0  0  0
  7 13  1  0  0  0  0
  7  8  1  0  0  0  0
  9  5  1  0  0  0  0
 10  7  2  0  0  0  0
 11 13  2  0  0  0  0
 12  4  1  6  0  0  0
 12  6  1  0  0  0  0
 15 14  2  0  0  0  0
 15 20  1  0  0  0  0
 16 14  1  6  0  0  0
 16 12  1  0  0  0  0
 16 17  1  0  0  0  0
 17 21  2  0  0  0  0
 18 20  1  0  0  0  0
 19 21  1  0  0  0  0
 20 19  2  0  0  0  0
 23 22  1  0  0  0  0
 24 27  2  0  0  0  0
 25 24  1  0  0  0  0
 26 28  1  0  0  0  0
 26 25  1  0  0  0  0
 27 31  1  0  0  0  0
 28 29  2  0  0  0  0
 29 24  1  0  0  0  0
 29 23  1  0  0  0  0
 30 31  1  0  0  0  0
 32 26  1  0  0  0  0
 33 32  1  0  0  0  0
M  END
>  <MODEL>
5

>  <REMARK>
 VINA RESULT:      -6.5      2.400      4.141
  Name = 
  6 active torsions:
  status: ('A' for Active; 'I' for Inactive)
    1  A    between atoms: C_2  and  C_22
    2  A    between atoms: C_10  and  N_18
    3  A    between atoms: C_11  and  C_32
    4  A    between atoms: N_19  and  O_25
    5  A    between atoms: C_22  and  C_28
    6  A    between atoms: C_28  and  C_30
                            x       y       z     vdW  Elec       q    Type
                         _______ _______ _______ _____ _____    ______ ____

>  <TORSDO>
F 6

$$$$
=
 OpenBabel11052410053D

 33 36  0  0  1  0  0  0  0  0999 V2000
  161.6260  208.6710  147.8850 C   0  0  0  0  0  1  0  0  0  0  0  0
  161.5600  208.0470  149.2390 C   0  0  0  0  0  0  0  0  0  0  0  0
  162.5760  211.1770  149.4730 S   0  0  0  0  0  0  0  0  0  0  0  0
  161.6790  210.2580  150.4930 C   0  0  0  0  0  0  0  0  0  0  0  0
  161.3650  208.3050  151.7260 C   0  0  0  0  0  0  0  0  0  0  0  0
  161.3400  209.3550  152.6160 C   0  0  0  0  0  0  0  0  0  0  0  0
  161.0980  206.7380  153.4690 C   0  0  0  0  0  0  0  0  0  0  0  0
  160.9470  205.3300  153.9180 C   0  0  0  0  0  1  0  0  0  0  0  0
  161.5520  208.7890  150.3660 C   0  0  0  0  0  0  0  0  0  0  0  0
  161.2400  207.0170  152.1410 N   0  0  0  0  0  0  0  0  0  0  0  0
  161.2190  209.1070  153.9850 C   0  0  0  0  0  3  0  0  0  0  0  0
  161.4790  210.6850  151.9330 C   0  0  2  0  0  3  0  0  0  0  0  0
  161.0930  207.7780  154.4150 C   0  0  0  0  0  3  0  0  0  0  0  0
  160.2240  212.7330  151.2050 C   0  0  0  0  0  3  0  0  0  0  0  0
  159.1850  213.5560  151.0820 C   0  0  0  0  0  3  0  0  0  0  0  0
  160.1980  211.5260  152.0880 C   0  0  2  0  0  3  0  0  0  0  0  0
  160.0090  211.9540  153.5090 C   0  0  0  0  0  3  0  0  0  0  0  0
  156.6890  213.9580  151.2050 C   0  0  0  0  0  1  0  0  0  0  0  0
  157.8490  213.0400  153.1210 C   0  0  0  0  0  3  0  0  0  0  0  0
  157.9270  213.4410  151.8440 C   0  0  0  0  0  0  0  0  0  0  0  0
  158.9520  212.5860  153.9240 N   0  0  0  0  0  0  0  0  0  0  0  0
  161.4820  206.5570  149.2910 C   0  0  0  0  0  2  0  0  0  0  0  0
  161.9590  205.9700  147.9740 C   0  0  0  0  0  2  0  0  0  0  0  0
  161.0810  203.7020  148.9530 C   0  0  0  0  0  0  0  0  0  0  0  0
  160.7190  202.3620  148.4160 C   0  0  0  0  0  2  0  0  0  0  0  0
  161.0020  202.5350  146.9950 N   0  0  0  0  0  0  0  0  0  0  0  0
  161.0250  204.0630  150.1940 N   0  0  0  0  0  0  0  0  0  0  0  0
  161.4790  203.8540  146.7360 C   0  0  0  0  0  3  0  0  0  0  0  0
  161.5360  204.5450  147.8600 C   0  0  0  0  0  0  0  0  0  0  0  0
  161.5270  202.4250  151.9000 C   0  0  0  0  0  1  0  0  0  0  0  0
  160.5900  203.1940  151.1690 O   0  0  0  0  0  0  0  0  0  0  0  0
  160.8240  201.5270  145.9590 C   0  0  0  0  0  2  0  0  0  0  0  0
  160.0690  202.0380  144.9010 O   0  0  0  0  0  1  0  0  0  0  0  0
  1  2  1  0  0  0  0
  2 22  1  0  0  0  0
  2  9  2  0  0  0  0
  3  4  2  0  0  0  0
  5 10  2  0  0  0  0
  5  6  1  0  0  0  0
  6 11  2  0  0  0  0
  7  8  1  0  0  0  0
  7 13  2  0  0  0  0
  9  4  1  0  0  0  0
  9  5  1  0  0  0  0
 10  7  1  0  0  0  0
 11 13  1  0  0  0  0
 12  4  1  6  0  0  0
 12 16  1  0  0  0  0
 12  6  1  0  0  0  0
 15 14  2  0  0  0  0
 15 20  1  0  0  0  0
 16 14  1  6  0  0  0
 16 17  1  0  0  0  0
 17 21  2  0  0  0  0
 18 20  1  0  0  0  0
 19 21  1  0  0  0  0
 20 19  2  0  0  0  0
 23 22  1  0  0  0  0
 24 27  2  0  0  0  0
 25 24  1  0  0  0  0
 26 25  1  0  0  0  0
 27 31  1  0  0  0  0
 28 26  1  0  0  0  0
 28 29  2  0  0  0  0
 29 23  1  0  0  0  0
 29 24  1  0  0  0  0
 31 30  1  0  0  0  0
 32 26  1  0  0  0  0
 33 32  1  0  0  0  0
M  END
>  <MODEL>
6

>  <REMARK>
 VINA RESULT:      -6.0      1.903      3.392
  Name = 
  6 active torsions:
  status: ('A' for Active; 'I' for Inactive)
    1  A    between atoms: C_2  and  C_22
    2  A    between atoms: C_10  and  N_18
    3  A    between atoms: C_11  and  C_32
    4  A    between atoms: N_19  and  O_25
    5  A    between atoms: C_22  and  C_28
    6  A    between atoms: C_28  and  C_30
                            x       y       z     vdW  Elec       q    Type
                         _______ _______ _______ _____ _____    ______ ____

>  <TORSDO>
F 6

$$$$
=
 OpenBabel11052410053D

 33 36  0  0  1  0  0  0  0  0999 V2000
  163.5560  212.2040  147.4120 C   0  0  0  0  0  1  0  0  0  0  0  0
  162.0830  212.4010  147.5510 C   0  0  0  0  0  0  0  0  0  0  0  0
  163.2480  214.2200  145.0570 S   0  0  0  0  0  0  0  0  0  0  0  0
  161.8000  213.4770  145.2620 C   0  0  0  0  0  0  0  0  0  0  0  0
  159.8890  213.0620  146.5300 C   0  0  0  0  0  0  0  0  0  0  0  0
  159.4720  213.5890  145.3290 C   0  0  0  0  0  0  0  0  0  0  0  0
  157.6710  212.9480  147.3240 C   0  0  0  0  0  0  0  0  0  0  0  0
  156.7060  212.5820  148.3930 C   0  0  0  0  0  1  0  0  0  0  0  0
  161.3390  212.9370  146.5610 C   0  0  0  0  0  0  0  0  0  0  0  0
  159.0050  212.7400  147.5120 N   0  0  0  0  0  0  0  0  0  0  0  0
  158.1150  213.8380  145.1100 C   0  0  0  0  0  3  0  0  0  0  0  0
  160.6170  213.8520  144.3940 C   0  0  2  0  0  3  0  0  0  0  0  0
  157.2030  213.5090  146.1220 C   0  0  0  0  0  3  0  0  0  0  0  0
  161.8920  212.6710  142.5830 C   0  0  0  0  0  3  0  0  0  0  0  0
  162.0900  211.8280  141.5710 C   0  0  0  0  0  3  0  0  0  0  0  0
  160.5350  212.9480  143.1490 C   0  0  2  0  0  3  0  0  0  0  0  0
  159.6740  213.5690  142.0940 C   0  0  0  0  0  3  0  0  0  0  0  0
  161.3450  209.8210  140.2210 C   0  0  0  0  0  1  0  0  0  0  0  0
  159.8210  211.6720  140.5530 C   0  0  0  0  0  3  0  0  0  0  0  0
  161.0170  211.1360  140.8330 C   0  0  0  0  0  0  0  0  0  0  0  0
  159.3610  212.9630  140.9880 N   0  0  0  0  0  0  0  0  0  0  0  0
  161.4610  211.9560  148.8340 C   0  0  0  0  0  2  0  0  0  0  0  0
  162.4600  211.1360  149.6320 C   0  0  0  0  0  2  0  0  0  0  0  0
  161.5950  208.9880  150.8630 C   0  0  0  0  0  0  0  0  0  0  0  0
  161.2230  207.6000  150.4790 C   0  0  0  0  0  2  0  0  0  0  0  0
  161.4820  207.6180  149.0440 N   0  0  0  0  0  0  0  0  0  0  0  0
  161.5600  209.4800  152.0590 N   0  0  0  0  0  0  0  0  0  0  0  0
  161.9560  208.9000  148.6360 C   0  0  0  0  0  3  0  0  0  0  0  0
  162.0330  209.7080  149.6790 C   0  0  0  0  0  0  0  0  0  0  0  0
  160.8310  209.3470  154.3600 C   0  0  0  0  0  1  0  0  0  0  0  0
  161.1400  208.7220  153.1280 O   0  0  0  0  0  0  0  0  0  0  0  0
  161.2860  206.5060  148.1240 C   0  0  0  0  0  2  0  0  0  0  0  0
  162.2320  206.5420  147.0980 O   0  0  0  0  0  1  0  0  0  0  0  0
  1  2  1  0  0  0  0
  2 22  1  0  0  0  0
  3  4  2  0  0  0  0
  4  9  1  0  0  0  0
  5  9  1  0  0  0  0
  5 10  1  0  0  0  0
  6  5  2  0  0  0  0
  7 10  2  0  0  0  0
  7  8  1  0  0  0  0
  9  2  2  0  0  0  0
 11  6  1  0  0  0  0
 11 13  2  0  0  0  0
 12  4  1  1  0  0  0
 12  6  1  0  0  0  0
 13  7  1  0  0  0  0
 14 16  1  0  0  0  0
 15 14  2  0  0  0  0
 16 17  1  6  0  0  0
 16 12  1  0  0  0  0
 18 20  1  0  0  0  0
 19 20  2  0  0  0  0
 19 21  1  0  0  0  0
 20 15  1  0  0  0  0
 21 17  2  0  0  0  0
 22 23  1  0  0  0  0
 23 29  1  0  0  0  0
 24 27  2  0  0  0  0
 25 24  1  0  0  0  0
 26 25  1  0  0  0  0
 27 31  1  0  0  0  0
 28 26  1  0  0  0  0
 28 29  2  0  0  0  0
 29 24  1  0  0  0  0
 31 30  1  0  0  0  0
 32 26  1  0  0  0  0
 33 32  1  0  0  0  0
M  END
>  <MODEL>
7

>  <REMARK>
 VINA RESULT:      -5.6      5.218      9.623
  Name = 
  6 active torsions:
  status: ('A' for Active; 'I' for Inactive)
    1  A    between atoms: C_2  and  C_22
    2  A    between atoms: C_10  and  N_18
    3  A    between atoms: C_11  and  C_32
    4  A    between atoms: N_19  and  O_25
    5  A    between atoms: C_22  and  C_28
    6  A    between atoms: C_28  and  C_30
                            x       y       z     vdW  Elec       q    Type
                         _______ _______ _______ _____ _____    ______ ____

>  <TORSDO>
F 6

$$$$
=
 OpenBabel11052410053D

 33 36  0  0  1  0  0  0  0  0999 V2000
  161.1390  205.4380  154.4360 C   0  0  0  0  0  1  0  0  0  0  0  0
  161.2830  206.3710  153.2810 C   0  0  0  0  0  0  0  0  0  0  0  0
  159.3540  207.7120  155.5970 S   0  0  0  0  0  0  0  0  0  0  0  0
  160.4020  208.4000  154.5400 C   0  0  0  0  0  0  0  0  0  0  0  0
  161.1930  208.7060  152.3680 C   0  0  0  0  0  0  0  0  0  0  0  0
  160.8290  209.9450  152.8460 C   0  0  0  0  0  0  0  0  0  0  0  0
  161.7820  209.6160  150.2740 C   0  0  0  0  0  0  0  0  0  0  0  0
  162.3140  209.4350  148.8990 C   0  0  0  0  0  1  0  0  0  0  0  0
  160.9770  207.6810  153.3800 C   0  0  0  0  0  0  0  0  0  0  0  0
  161.6680  208.5410  151.1050 N   0  0  0  0  0  0  0  0  0  0  0  0
  160.9100  211.0640  152.0160 C   0  0  0  0  0  3  0  0  0  0  0  0
  160.3490  209.8890  154.2680 C   0  0  2  0  0  3  0  0  0  0  0  0
  161.3970  210.8950  150.7120 C   0  0  0  0  0  3  0  0  0  0  0  0
  162.3080  209.7450  155.8310 C   0  0  0  0  0  3  0  0  0  0  0  0
  163.3040  210.1900  156.5940 C   0  0  0  0  0  3  0  0  0  0  0  0
  161.3000  210.6570  155.2060 C   0  0  2  0  0  3  0  0  0  0  0  0
  160.5350  211.3630  156.2800 C   0  0  0  0  0  3  0  0  0  0  0  0
  164.8850  212.0520  157.2580 C   0  0  0  0  0  1  0  0  0  0  0  0
  162.4970  212.4520  157.2600 C   0  0  0  0  0  3  0  0  0  0  0  0
  163.4950  211.5990  156.9880 C   0  0  0  0  0  0  0  0  0  0  0  0
  161.0940  212.1640  157.1370 N   0  0  0  0  0  0  0  0  0  0  0  0
  161.8030  205.7910  152.0060 C   0  0  0  0  0  2  0  0  0  0  0  0
  160.7250  205.8480  150.9380 C   0  0  0  0  0  2  0  0  0  0  0  0
  160.9480  204.6940  148.5940 C   0  0  0  0  0  0  0  0  0  0  0  0
  161.0560  203.3010  148.0820 C   0  0  0  0  0  2  0  0  0  0  0  0
  160.9840  202.5320  149.3200 N   0  0  0  0  0  0  0  0  0  0  0  0
  160.9420  205.7690  147.8740 N   0  0  0  0  0  0  0  0  0  0  0  0
  160.8520  203.4020  150.4430 C   0  0  0  0  0  3  0  0  0  0  0  0
  160.8240  204.6610  150.0420 C   0  0  0  0  0  0  0  0  0  0  0  0
  162.3300  205.7950  145.8950 C   0  0  0  0  0  1  0  0  0  0  0  0
  161.0550  205.7080  146.5040 O   0  0  0  0  0  0  0  0  0  0  0  0
  161.0470  201.0820  149.4320 C   0  0  0  0  0  2  0  0  0  0  0  0
  161.3930  200.5080  148.2060 O   0  0  0  0  0  1  0  0  0  0  0  0
  2  9  2  0  0  0  0
  2  1  1  0  0  0  0
  4  3  2  0  0  0  0
  5  6  1  0  0  0  0
  5  9  1  0  0  0  0
  7 13  2  0  0  0  0
  7 10  1  0  0  0  0
  8  7  1  0  0  0  0
  9  4  1  0  0  0  0
 10  5  2  0  0  0  0
 11  6  2  0  0  0  0
 12  6  1  6  0  0  0
 12  4  1  0  0  0  0
 12 16  1  0  0  0  0
 13 11  1  0  0  0  0
 14 15  2  0  0  0  0
 15 20  1  0  0  0  0
 16 14  1  1  0  0  0
 16 17  1  0  0  0  0
 17 21  2  0  0  0  0
 20 18  1  0  0  0  0
 20 19  2  0  0  0  0
 21 19  1  0  0  0  0
 22  2  1  0  0  0  0
 23 22  1  0  0  0  0
 24 29  1  0  0  0  0
 25 24  1  0  0  0  0
 25 26  1  0  0  0  0
 26 32  1  0  0  0  0
 26 28  1  0  0  0  0
 27 24  2  0  0  0  0
 29 28  2  0  0  0  0
 29 23  1  0  0  0  0
 30 31  1  0  0  0  0
 31 27  1  0  0  0  0
 33 32  1  0  0  0  0
M  END
>  <MODEL>
8

>  <REMARK>
 VINA RESULT:      -5.5      2.293      4.212
  Name = 
  6 active torsions:
  status: ('A' for Active; 'I' for Inactive)
    1  A    between atoms: C_2  and  C_22
    2  A    between atoms: C_10  and  N_18
    3  A    between atoms: C_11  and  C_32
    4  A    between atoms: N_19  and  O_25
    5  A    between atoms: C_22  and  C_28
    6  A    between atoms: C_28  and  C_30
                            x       y       z     vdW  Elec       q    Type
                         _______ _______ _______ _____ _____    ______ ____

>  <TORSDO>
F 6

$$$$
=
 OpenBabel11052410053D

 33 36  0  0  1  0  0  0  0  0999 V2000
  163.7950  212.2070  147.3840 C   0  0  0  0  0  1  0  0  0  0  0  0
  162.3310  212.4110  147.5890 C   0  0  0  0  0  0  0  0  0  0  0  0
  163.4540  214.4530  145.2530 S   0  0  0  0  0  0  0  0  0  0  0  0
  161.9990  213.7160  145.4290 C   0  0  0  0  0  0  0  0  0  0  0  0
  160.1200  213.2060  146.7100 C   0  0  0  0  0  0  0  0  0  0  0  0
  159.6770  213.8570  145.5820 C   0  0  0  0  0  0  0  0  0  0  0  0
  157.9250  213.0480  147.5590 C   0  0  0  0  0  0  0  0  0  0  0  0
  156.9860  212.5910  148.6170 C   0  0  0  0  0  1  0  0  0  0  0  0
  161.5680  213.0560  146.6820 C   0  0  0  0  0  0  0  0  0  0  0  0
  159.2600  212.8000  147.6830 N   0  0  0  0  0  0  0  0  0  0  0  0
  158.3190  214.1480  145.4320 C   0  0  0  0  0  3  0  0  0  0  0  0
  160.7970  214.1950  144.6410 C   0  0  2  0  0  3  0  0  0  0  0  0
  157.4320  213.7330  146.4350 C   0  0  0  0  0  3  0  0  0  0  0  0
  161.9390  212.7390  142.9450 C   0  0  0  0  0  3  0  0  0  0  0  0
  162.0400  211.9220  141.8990 C   0  0  0  0  0  3  0  0  0  0  0  0
  160.6610  213.4220  143.3150 C   0  0  2  0  0  3  0  0  0  0  0  0
  160.2470  214.3360  142.2050 C   0  0  0  0  0  3  0  0  0  0  0  0
  160.9570  210.3310  140.2560 C   0  0  0  0  0  1  0  0  0  0  0  0
  160.0630  212.5640  140.5260 C   0  0  0  0  0  3  0  0  0  0  0  0
  160.9560  211.6520  140.9360 C   0  0  0  0  0  0  0  0  0  0  0  0
  159.9640  213.9140  141.0090 N   0  0  0  0  0  0  0  0  0  0  0  0
  161.7400  211.8500  148.8400 C   0  0  0  0  0  2  0  0  0  0  0  0
  161.9710  210.3500  148.8900 C   0  0  0  0  0  2  0  0  0  0  0  0
  161.5510  208.4540  150.6510 C   0  0  0  0  0  0  0  0  0  0  0  0
  161.4240  208.3630  152.1310 C   0  0  0  0  0  2  0  0  0  0  0  0
  161.5780  209.7610  152.5200 N   0  0  0  0  0  0  0  0  0  0  0  0
  161.4650  207.4650  149.8210 N   0  0  0  0  0  0  0  0  0  0  0  0
  161.7810  210.5820  151.3700 C   0  0  0  0  0  3  0  0  0  0  0  0
  161.7630  209.8410  150.2760 C   0  0  0  0  0  0  0  0  0  0  0  0
  161.0420  205.1360  149.3310 C   0  0  0  0  0  1  0  0  0  0  0  0
  161.2530  206.1800  150.2640 O   0  0  0  0  0  0  0  0  0  0  0  0
  161.5470  210.2800  153.8800 C   0  0  0  0  0  2  0  0  0  0  0  0
  160.8330  211.4790  153.9340 O   0  0  0  0  0  1  0  0  0  0  0  0
  1  2  1  0  0  0  0
  2 22  1  0  0  0  0
  3  4  2  0  0  0  0
  4  9  1  0  0  0  0
  5 10  1  0  0  0  0
  6  5  2  0  0  0  0
  7 10  2  0  0  0  0
  7  8  1  0  0  0  0
  9  5  1  0  0  0  0
  9  2  2  0  0  0  0
 11  6  1  0  0  0  0
 11 13  2  0  0  0  0
 12  4  1  1  0  0  0
 12  6  1  0  0  0  0
 13  7  1  0  0  0  0
 14 16  1  0  0  0  0
 15 14  2  0  0  0  0
 16 17  1  6  0  0  0
 16 12  1  0  0  0  0
 18 20  1  0  0  0  0
 19 20  2  0  0  0  0
 19 21  1  0  0  0  0
 20 15  1  0  0  0  0
 21 17  2  0  0  0  0
 22 23  1  0  0  0  0
 23 29  1  0  0  0  0
 24 25  1  0  0  0  0
 25 26  1  0  0  0  0
 26 32  1  0  0  0  0
 27 31  1  0  0  0  0
 27 24  2  0  0  0  0
 28 26  1  0  0  0  0
 29 24  1  0  0  0  0
 29 28  2  0  0  0  0
 30 31  1  0  0  0  0
 32 33  1  0  0  0  0
M  END
>  <MODEL>
9

>  <REMARK>
 VINA RESULT:      -5.2      5.496      9.734
  Name = 
  6 active torsions:
  status: ('A' for Active; 'I' for Inactive)
    1  A    between atoms: C_2  and  C_22
    2  A    between atoms: C_10  and  N_18
    3  A    between atoms: C_11  and  C_32
    4  A    between atoms: N_19  and  O_25
    5  A    between atoms: C_22  and  C_28
    6  A    between atoms: C_28  and  C_30
                            x       y       z     vdW  Elec       q    Type
                         _______ _______ _______ _____ _____    ______ ____

>  <TORSDO>
F 6

$$$$
