=
 OpenBabel11042421023D

 28 33  0  0  1  0  0  0  0  0999 V2000
  162.0390  207.9080  148.8460 C   0  0  0  0  0  0  0  0  0  0  0  0
  161.4670  206.1440  151.9050 C   0  0  0  0  0  0  0  0  0  0  0  0
  161.6000  204.9520  151.0130 C   0  0  2  0  0  0  0  0  0  0  0  0
  162.0090  205.4810  149.6990 C   0  0  1  0  0  3  0  0  0  0  0  0
  161.5860  209.3080  149.1940 C   0  0  1  0  0  3  0  0  0  0  0  0
  160.9610  206.2480  153.1980 C   0  0  0  0  0  3  0  0  0  0  0  0
  161.0000  210.4890  155.9220 C   0  0  0  0  0  0  0  0  0  0  0  0
  161.5570  207.7840  156.0640 N   0  0  0  0  0  2  0  0  0  0  0  0
  160.8460  207.5260  153.7810 C   0  0  0  0  0  0  0  0  0  0  0  0
  160.5960  205.1080  149.9010 N   0  0  1  0  0  0  0  0  0  0  0  0
  161.2380  208.6940  153.0410 C   0  0  0  0  0  0  0  0  0  0  0  0
  161.7800  208.5240  151.7480 C   0  0  0  0  0  0  0  0  0  0  0  0
  162.1730  206.9300  149.8850 N   0  0  0  0  0  0  0  0  0  0  0  0
  162.3740  209.8950  150.7430 S   0  0  0  0  0  0  0  0  0  0  0  0
  160.2790  210.5320  154.6190 C   0  0  0  0  0  2  0  0  0  0  0  0
  160.3990  207.5630  155.2030 C   0  0  0  0  0  2  0  0  0  0  0  0
  160.4430  204.0840  150.9430 C   0  0  0  0  0  2  0  0  0  0  0  0
  161.1280  210.0410  153.5420 N   0  0  0  0  0  2  0  0  0  0  0  0
  160.5080  209.6280  156.9470 N   0  0  0  0  0  2  0  0  0  0  0  0
  162.0560  211.1520  156.0980 O   0  0  0  0  0  0  0  0  0  0  0  0
  162.2080  207.5730  147.6430 O   0  0  0  0  0  0  0  0  0  0  0  0
  161.1390  208.4070  157.2600 N   0  0  0  0  0  2  0  0  0  0  0  0
  161.8820  207.2430  151.2290 C   0  0  0  0  0  0  0  0  0  0  0  0
  161.8960  210.2340  148.1140 N   0  0  0  0  0  2  0  0  0  0  0  0
  162.0840  211.5480  148.7090 C   0  0  1  0  0  3  0  0  0  0  0  0
  163.3250  212.2040  148.1320 C   0  0  0  0  0  1  0  0  0  0  0  0
  160.8530  212.4230  148.4880 C   0  0  0  0  0  2  0  0  0  0  0  0
  160.3720  212.3120  147.1190 N   0  0  0  0  0  1  0  0  0  0  0  0
  1  5  1  0  0  0  0
  1 13  1  0  0  0  0
  2  6  1  0  0  0  0
  3 17  1  1  0  0  0
  3  2  1  0  0  0  0
  4 13  1  1  0  0  0
  4 10  1  0  0  0  0
  4  3  1  0  0  0  0
  5 24  1  6  0  0  0
  5 14  1  0  0  0  0
  6  9  2  0  0  0  0
  7 20  2  0  0  0  0
  7 19  1  0  0  0  0
  8 22  1  0  0  0  0
  9 16  1  0  0  0  0
 10 17  1  6  0  0  0
 10  3  1  0  0  0  0
 11 18  1  0  0  0  0
 11  9  1  0  0  0  0
 12 11  2  0  0  0  0
 13 23  1  0  0  0  0
 14 12  1  0  0  0  0
 15  7  1  0  0  0  0
 16  8  1  0  0  0  0
 18 15  1  0  0  0  0
 19 22  1  0  0  0  0
 21  1  2  0  0  0  0
 23 12  1  0  0  0  0
 23  2  2  0  0  0  0
 24 25  1  0  0  0  0
 25 26  1  6  0  0  0
 27 25  1  0  0  0  0
 28 27  1  0  0  0  0
M  END
>  <MODEL>
1

>  <REMARK>
 VINA RESULT:      -7.0      0.000      0.000
  Name = 
  3 active torsions:
  status: ('A' for Active; 'I' for Inactive)
    1  A    between atoms: C_1  and  C_7
    2  A    between atoms: N_6  and  C_7
    3  A    between atoms: N_6  and  C_8
                            x       y       z     vdW  Elec       q    Type
                         _______ _______ _______ _____ _____    ______ ____

>  <TORSDO>
F 3

$$$$
=
 OpenBabel11042421023D

 28 33  0  0  1  0  0  0  0  0999 V2000
  161.6680  209.3320  151.2700 C   0  0  0  0  0  0  0  0  0  0  0  0
  160.9920  205.8400  150.8950 C   0  0  0  0  0  0  0  0  0  0  0  0
  160.6990  205.9400  152.3570 C   0  0  2  0  0  0  0  0  0  0  0  0
  160.7680  207.3770  152.6800 C   0  0  1  0  0  3  0  0  0  0  0  0
  162.4390  209.6460  150.0080 C   0  0  1  0  0  3  0  0  0  0  0  0
  161.2100  204.7200  150.0960 C   0  0  0  0  0  3  0  0  0  0  0  0
  161.8740  204.8900  145.1020 C   0  0  0  0  0  0  0  0  0  0  0  0
  160.5010  203.5430  147.0890 N   0  0  0  0  0  2  0  0  0  0  0  0
  161.5800  204.9100  148.7500 C   0  0  0  0  0  0  0  0  0  0  0  0
  161.9210  206.5210  153.0220 N   0  0  1  0  0  0  0  0  0  0  0  0
  161.7340  206.2390  148.2240 C   0  0  0  0  0  0  0  0  0  0  0  0
  161.4620  207.3350  149.0710 C   0  0  0  0  0  0  0  0  0  0  0  0
  161.0180  208.0620  151.4030 N   0  0  0  0  0  0  0  0  0  0  0  0
  161.5500  209.0470  148.5190 S   0  0  0  0  0  0  0  0  0  0  0  0
  162.8390  205.6580  145.9370 C   0  0  0  0  0  2  0  0  0  0  0  0
  161.6950  203.6770  147.9190 C   0  0  0  0  0  2  0  0  0  0  0  0
  161.5230  205.1210  153.2230 C   0  0  0  0  0  2  0  0  0  0  0  0
  162.1380  206.5290  146.8710 N   0  0  0  0  0  2  0  0  0  0  0  0
  161.8440  203.4700  145.2270 N   0  0  0  0  0  2  0  0  0  0  0  0
  161.0590  205.4830  144.3470 O   0  0  0  0  0  0  0  0  0  0  0  0
  161.6720  210.1400  152.2370 O   0  0  0  0  0  0  0  0  0  0  0  0
  160.8180  202.8050  145.9280 N   0  0  0  0  0  2  0  0  0  0  0  0
  161.0900  207.0910  150.3830 C   0  0  0  0  0  0  0  0  0  0  0  0
  162.6700  211.0790  149.8880 N   0  0  0  0  0  2  0  0  0  0  0  0
  162.0120  211.5250  148.6700 C   0  0  1  0  0  3  0  0  0  0  0  0
  160.8890  212.4880  149.0110 C   0  0  0  0  0  1  0  0  0  0  0  0
  163.0150  212.1730  147.7190 C   0  0  0  0  0  2  0  0  0  0  0  0
  162.3360  212.9390  146.6850 N   0  0  0  0  0  1  0  0  0  0  0  0
  1 13  1  0  0  0  0
  1 21  2  0  0  0  0
  2  3  1  0  0  0  0
  3  4  1  0  0  0  0
  3 10  1  0  0  0  0
  3 17  1  1  0  0  0
  4 13  1  6  0  0  0
  4 10  1  0  0  0  0
  5 24  1  6  0  0  0
  5  1  1  0  0  0  0
  6  2  2  0  0  0  0
  7 19  1  0  0  0  0
  7 15  1  0  0  0  0
  8 16  1  0  0  0  0
  9  6  1  0  0  0  0
 10 17  1  1  0  0  0
 11  9  2  0  0  0  0
 11 12  1  0  0  0  0
 12 23  2  0  0  0  0
 14 12  1  0  0  0  0
 14  5  1  0  0  0  0
 15 18  1  0  0  0  0
 16  9  1  0  0  0  0
 18 11  1  0  0  0  0
 19 22  1  0  0  0  0
 20  7  2  0  0  0  0
 22  8  1  0  0  0  0
 23  2  1  0  0  0  0
 23 13  1  0  0  0  0
 25 26  1  1  0  0  0
 25 24  1  0  0  0  0
 27 25  1  0  0  0  0
 28 27  1  0  0  0  0
M  END
>  <MODEL>
2

>  <REMARK>
 VINA RESULT:      -6.7      2.584      6.504
  Name = 
  3 active torsions:
  status: ('A' for Active; 'I' for Inactive)
    1  A    between atoms: C_1  and  C_7
    2  A    between atoms: N_6  and  C_7
    3  A    between atoms: N_6  and  C_8
                            x       y       z     vdW  Elec       q    Type
                         _______ _______ _______ _____ _____    ______ ____

>  <TORSDO>
F 3

$$$$
=
 OpenBabel11042421023D

 28 33  0  0  1  0  0  0  0  0999 V2000
  161.9730  209.3970  152.9320 C   0  0  0  0  0  0  0  0  0  0  0  0
  162.0090  208.3940  149.4990 C   0  0  0  0  0  0  0  0  0  0  0  0
  162.3770  209.8270  149.2880 C   0  0  2  0  0  0  0  0  0  0  0  0
  162.5750  210.3900  150.6360 C   0  0  1  0  0  3  0  0  0  0  0  0
  161.2150  208.2660  153.5880 C   0  0  1  0  0  3  0  0  0  0  0  0
  161.5650  207.4360  148.5910 C   0  0  0  0  0  3  0  0  0  0  0  0
  160.7290  202.6030  149.7530 C   0  0  0  0  0  0  0  0  0  0  0  0
  161.9280  204.2310  147.8670 N   0  0  0  0  0  2  0  0  0  0  0  0
  161.1770  206.1710  149.0750 C   0  0  0  0  0  0  0  0  0  0  0  0
  161.3060  210.6660  149.9350 N   0  0  1  0  0  0  0  0  0  0  0  0
  161.2350  205.8890  150.4830 C   0  0  0  0  0  0  0  0  0  0  0  0
  161.7310  206.8860  151.3520 C   0  0  0  0  0  0  0  0  0  0  0  0
  162.3950  209.2680  151.5680 N   0  0  0  0  0  0  0  0  0  0  0  0
  161.9210  206.6370  153.1250 S   0  0  0  0  0  0  0  0  0  0  0  0
  159.9490  203.6230  150.5090 C   0  0  0  0  0  2  0  0  0  0  0  0
  160.8120  205.1560  148.0460 C   0  0  0  0  0  2  0  0  0  0  0  0
  161.4610  210.6010  148.4750 C   0  0  0  0  0  2  0  0  0  0  0  0
  160.8310  204.6360  151.0720 N   0  0  0  0  0  2  0  0  0  0  0  0
  160.5150  202.4850  148.3490 N   0  0  0  0  0  2  0  0  0  0  0  0
  161.6020  201.9010  150.3280 O   0  0  0  0  0  0  0  0  0  0  0  0
  162.1510  210.4840  153.5440 O   0  0  0  0  0  0  0  0  0  0  0  0
  161.4380  202.9880  147.4100 N   0  0  0  0  0  2  0  0  0  0  0  0
  162.1110  208.1070  150.8200 C   0  0  0  0  0  0  0  0  0  0  0  0
  161.2340  208.4040  155.0370 N   0  0  0  0  0  2  0  0  0  0  0  0
  159.8540  208.3550  155.4970 C   0  0  1  0  0  3  0  0  0  0  0  0
  159.6670  207.1880  156.4490 C   0  0  0  0  0  1  0  0  0  0  0  0
  159.4590  209.6700  156.1640 C   0  0  0  0  0  2  0  0  0  0  0  0
  159.0310  210.6490  155.1770 N   0  0  0  0  0  1  0  0  0  0  0  0
  1 21  2  0  0  0  0
  1  5  1  0  0  0  0
  2 23  1  0  0  0  0
  3 17  1  6  0  0  0
  3  2  1  0  0  0  0
  3 10  1  0  0  0  0
  3  4  1  0  0  0  0
  4 13  1  1  0  0  0
  5 24  1  1  0  0  0
  6  9  1  0  0  0  0
  6  2  2  0  0  0  0
  7 20  2  0  0  0  0
  7 15  1  0  0  0  0
  8 16  1  0  0  0  0
  9 11  2  0  0  0  0
 10 17  1  6  0  0  0
 10  4  1  0  0  0  0
 11 18  1  0  0  0  0
 11 12  1  0  0  0  0
 12 14  1  0  0  0  0
 13  1  1  0  0  0  0
 14  5  1  0  0  0  0
 15 18  1  0  0  0  0
 16  9  1  0  0  0  0
 19  7  1  0  0  0  0
 22  8  1  0  0  0  0
 22 19  1  0  0  0  0
 23 12  2  0  0  0  0
 23 13  1  0  0  0  0
 24 25  1  0  0  0  0
 25 27  1  0  0  0  0
 25 26  1  1  0  0  0
 28 27  1  0  0  0  0
M  END
>  <MODEL>
3

>  <REMARK>
 VINA RESULT:      -6.1      2.222      7.032
  Name = 
  3 active torsions:
  status: ('A' for Active; 'I' for Inactive)
    1  A    between atoms: C_1  and  C_7
    2  A    between atoms: N_6  and  C_7
    3  A    between atoms: N_6  and  C_8
                            x       y       z     vdW  Elec       q    Type
                         _______ _______ _______ _____ _____    ______ ____

>  <TORSDO>
F 3

$$$$
=
 OpenBabel11042421023D

 28 33  0  0  1  0  0  0  0  0999 V2000
  161.5070  205.8500  152.2400 C   0  0  0  0  0  0  0  0  0  0  0  0
  160.8770  203.1880  149.9370 C   0  0  0  0  0  0  0  0  0  0  0  0
  160.6960  202.4040  151.1960 C   0  0  2  0  0  0  0  0  0  0  0  0
  160.7610  203.3890  152.2910 C   0  0  1  0  0  3  0  0  0  0  0  0
  162.1720  206.8840  151.3610 C   0  0  1  0  0  3  0  0  0  0  0  0
  161.0550  202.7550  148.6250 C   0  0  0  0  0  3  0  0  0  0  0  0
  161.3250  205.8290  144.6390 C   0  0  0  0  0  0  0  0  0  0  0  0
  160.1380  203.4980  145.5370 N   0  0  0  0  0  2  0  0  0  0  0  0
  161.3140  203.7120  147.6240 C   0  0  0  0  0  0  0  0  0  0  0  0
  161.9530  202.5660  152.0110 N   0  0  1  0  0  0  0  0  0  0  0  0
  161.4010  205.1060  147.9640 C   0  0  0  0  0  0  0  0  0  0  0  0
  161.1730  205.4890  149.3040 C   0  0  0  0  0  0  0  0  0  0  0  0
  160.8960  204.7000  151.6420 N   0  0  0  0  0  0  0  0  0  0  0  0
  161.1830  207.2060  149.8500 S   0  0  0  0  0  0  0  0  0  0  0  0
  162.3360  206.0290  145.7140 C   0  0  0  0  0  2  0  0  0  0  0  0
  161.3910  203.1990  146.2260 C   0  0  0  0  0  2  0  0  0  0  0  0
  161.6010  201.2870  151.3790 C   0  0  0  0  0  2  0  0  0  0  0  0
  161.6920  206.1510  147.0150 N   0  0  0  0  0  2  0  0  0  0  0  0
  161.3340  204.6010  143.9140 N   0  0  0  0  0  2  0  0  0  0  0  0
  160.4420  206.6980  144.4140 O   0  0  0  0  0  0  0  0  0  0  0  0
  161.5700  205.9450  153.4950 O   0  0  0  0  0  0  0  0  0  0  0  0
  160.3790  203.5910  144.1480 N   0  0  0  0  0  2  0  0  0  0  0  0
  160.9090  204.5070  150.2450 C   0  0  0  0  0  0  0  0  0  0  0  0
  162.3640  208.1320  152.0850 N   0  0  0  0  0  2  0  0  0  0  0  0
  161.5070  209.1320  151.4660 C   0  0  1  0  0  3  0  0  0  0  0  0
  160.4430  209.5820  152.4490 C   0  0  0  0  0  1  0  0  0  0  0  0
  162.3310  210.3190  150.9730 C   0  0  0  0  0  2  0  0  0  0  0  0
  161.9560  210.6880  149.6160 N   0  0  0  0  0  1  0  0  0  0  0  0
  1 21  2  0  0  0  0
  2 23  1  0  0  0  0
  2  3  1  0  0  0  0
  3 17  1  1  0  0  0
  3 10  1  0  0  0  0
  3  4  1  0  0  0  0
  4 13  1  6  0  0  0
  5 24  1  1  0  0  0
  5  1  1  0  0  0  0
  6  2  2  0  0  0  0
  7 15  1  0  0  0  0
  8 16  1  0  0  0  0
  9 11  2  0  0  0  0
  9  6  1  0  0  0  0
 10 17  1  1  0  0  0
 10  4  1  0  0  0  0
 11 12  1  0  0  0  0
 12 14  1  0  0  0  0
 12 23  2  0  0  0  0
 13  1  1  0  0  0  0
 14  5  1  0  0  0  0
 15 18  1  0  0  0  0
 16  9  1  0  0  0  0
 18 11  1  0  0  0  0
 19 22  1  0  0  0  0
 19  7  1  0  0  0  0
 20  7  2  0  0  0  0
 22  8  1  0  0  0  0
 23 13  1  0  0  0  0
 25 24  1  0  0  0  0
 25 26  1  1  0  0  0
 27 25  1  0  0  0  0
 28 27  1  0  0  0  0
M  END
>  <MODEL>
4

>  <REMARK>
 VINA RESULT:      -6.1      3.183      7.254
  Name = 
  3 active torsions:
  status: ('A' for Active; 'I' for Inactive)
    1  A    between atoms: C_1  and  C_7
    2  A    between atoms: N_6  and  C_7
    3  A    between atoms: N_6  and  C_8
                            x       y       z     vdW  Elec       q    Type
                         _______ _______ _______ _____ _____    ______ ____

>  <TORSDO>
F 3

$$$$
=
 OpenBabel11042421023D

 28 33  0  0  1  0  0  0  0  0999 V2000
  160.0760  211.4960  154.7380 C   0  0  0  0  0  0  0  0  0  0  0  0
  160.8410  208.0140  155.0290 C   0  0  0  0  0  0  0  0  0  0  0  0
  160.7520  208.3180  156.4900 C   0  0  2  0  0  0  0  0  0  0  0  0
  160.2740  209.7100  156.5790 C   0  0  1  0  0  3  0  0  0  0  0  0
  160.4560  211.7880  153.3040 C   0  0  1  0  0  3  0  0  0  0  0  0
  161.3780  206.9100  154.3710 C   0  0  0  0  0  3  0  0  0  0  0  0
  161.1690  206.2080  149.3840 C   0  0  0  0  0  0  0  0  0  0  0  0
  160.7770  204.9210  151.8000 N   0  0  0  0  0  2  0  0  0  0  0  0
  161.4340  206.9210  152.9630 C   0  0  0  0  0  0  0  0  0  0  0  0
  161.7120  209.4440  156.7740 N   0  0  1  0  0  0  0  0  0  0  0  0
  160.9530  208.0610  152.2310 C   0  0  0  0  0  0  0  0  0  0  0  0
  160.3840  209.1340  152.9510 C   0  0  0  0  0  0  0  0  0  0  0  0
  160.0300  210.1380  155.1940 N   0  0  0  0  0  0  0  0  0  0  0  0
  159.6810  210.5880  152.1530 S   0  0  0  0  0  0  0  0  0  0  0  0
  161.8470  207.4450  149.8630 C   0  0  0  0  0  2  0  0  0  0  0  0
  161.9200  205.6700  152.3140 C   0  0  0  0  0  2  0  0  0  0  0  0
  161.9560  208.0780  157.2590 C   0  0  0  0  0  2  0  0  0  0  0  0
  160.9980  208.1740  150.7950 N   0  0  0  0  0  2  0  0  0  0  0  0
  161.7410  204.9450  149.7150 N   0  0  0  0  0  2  0  0  0  0  0  0
  160.0820  206.2720  148.7520 O   0  0  0  0  0  0  0  0  0  0  0  0
  159.8920  212.4380  155.5540 O   0  0  0  0  0  0  0  0  0  0  0  0
  161.1930  204.1180  150.7150 N   0  0  0  0  0  2  0  0  0  0  0  0
  160.3420  209.0650  154.3340 C   0  0  0  0  0  0  0  0  0  0  0  0
  160.0610  213.1380  152.9310 N   0  0  0  0  0  2  0  0  0  0  0  0
  158.8450  213.0330  152.1380 C   0  0  1  0  0  3  0  0  0  0  0  0
  157.6440  213.4300  152.9760 C   0  0  0  0  0  1  0  0  0  0  0  0
  158.9420  213.8950  150.8820 C   0  0  0  0  0  2  0  0  0  0  0  0
  160.1390  213.5750  150.1190 N   0  0  0  0  0  1  0  0  0  0  0  0
  1 13  1  0  0  0  0
  1 21  2  0  0  0  0
  2  3  1  0  0  0  0
  3  4  1  0  0  0  0
  3 10  1  0  0  0  0
  3 17  1  1  0  0  0
  4 13  1  6  0  0  0
  4 10  1  0  0  0  0
  5 24  1  6  0  0  0
  5  1  1  0  0  0  0
  6  2  1  0  0  0  0
  7 19  1  0  0  0  0
  7 15  1  0  0  0  0
  8 16  1  0  0  0  0
  9  6  2  0  0  0  0
 10 17  1  1  0  0  0
 11 12  2  0  0  0  0
 11  9  1  0  0  0  0
 12 23  1  0  0  0  0
 14 12  1  0  0  0  0
 14  5  1  0  0  0  0
 15 18  1  0  0  0  0
 16  9  1  0  0  0  0
 18 11  1  0  0  0  0
 19 22  1  0  0  0  0
 20  7  2  0  0  0  0
 22  8  1  0  0  0  0
 23  2  2  0  0  0  0
 23 13  1  0  0  0  0
 25 24  1  0  0  0  0
 25 26  1  1  0  0  0
 27 25  1  0  0  0  0
 28 27  1  0  0  0  0
M  END
>  <MODEL>
5

>  <REMARK>
 VINA RESULT:      -5.6      2.272      5.972
  Name = 
  3 active torsions:
  status: ('A' for Active; 'I' for Inactive)
    1  A    between atoms: C_1  and  C_7
    2  A    between atoms: N_6  and  C_7
    3  A    between atoms: N_6  and  C_8
                            x       y       z     vdW  Elec       q    Type
                         _______ _______ _______ _____ _____    ______ ____

>  <TORSDO>
F 3

$$$$
=
 OpenBabel11042421023D

 28 33  0  0  1  0  0  0  0  0999 V2000
  161.6190  205.1750  148.7050 C   0  0  0  0  0  0  0  0  0  0  0  0
  161.2860  204.7580  152.2410 C   0  0  0  0  0  0  0  0  0  0  0  0
  161.3810  203.3100  151.8820 C   0  0  2  0  0  0  0  0  0  0  0  0
  161.6920  203.2770  150.4410 C   0  0  1  0  0  3  0  0  0  0  0  0
  161.1650  206.6030  148.5070 C   0  0  1  0  0  3  0  0  0  0  0  0
  160.8670  205.3650  153.4220 C   0  0  0  0  0  3  0  0  0  0  0  0
  161.0090  210.3340  154.2570 C   0  0  0  0  0  0  0  0  0  0  0  0
  161.6250  207.8970  155.4090 N   0  0  0  0  0  2  0  0  0  0  0  0
  160.7670  206.7700  153.4640 C   0  0  0  0  0  0  0  0  0  0  0  0
  160.3020  203.0260  150.8690 N   0  0  1  0  0  0  0  0  0  0  0  0
  161.0870  207.5510  152.3000 C   0  0  0  0  0  0  0  0  0  0  0  0
  161.5440  206.8820  151.1430 C   0  0  0  0  0  0  0  0  0  0  0  0
  161.8410  204.6810  150.0320 N   0  0  0  0  0  0  0  0  0  0  0  0
  162.0430  207.7440  149.6430 S   0  0  0  0  0  0  0  0  0  0  0  0
  160.2020  209.8690  153.0940 C   0  0  0  0  0  2  0  0  0  0  0  0
  160.4150  207.3660  154.7840 C   0  0  0  0  0  2  0  0  0  0  0  0
  160.2380  202.4950  152.2380 C   0  0  0  0  0  2  0  0  0  0  0  0
  160.9860  208.9870  152.2400 N   0  0  0  0  0  2  0  0  0  0  0  0
  160.6030  209.9480  155.5680 N   0  0  0  0  0  2  0  0  0  0  0  0
  162.0620  211.0030  154.0850 O   0  0  0  0  0  0  0  0  0  0  0  0
  161.7130  204.3930  147.7210 O   0  0  0  0  0  0  0  0  0  0  0  0
  161.2760  208.9430  156.2910 N   0  0  0  0  0  2  0  0  0  0  0  0
  161.6350  205.4990  151.1620 C   0  0  0  0  0  0  0  0  0  0  0  0
  161.3840  207.0280  147.1320 N   0  0  0  0  0  2  0  0  0  0  0  0
  161.0480  205.9050  146.2700 C   0  0  1  0  0  3  0  0  0  0  0  0
  159.6990  206.1400  145.6160 C   0  0  0  0  0  1  0  0  0  0  0  0
  162.1320  205.6880  145.2180 C   0  0  0  0  0  2  0  0  0  0  0  0
  161.5480  205.4220  143.9120 N   0  0  0  0  0  1  0  0  0  0  0  0
  1 13  1  0  0  0  0
  2  6  1  0  0  0  0
  3 17  1  1  0  0  0
  3  2  1  0  0  0  0
  4 13  1  6  0  0  0
  4 10  1  0  0  0  0
  4  3  1  0  0  0  0
  5 24  1  6  0  0  0
  5  1  1  0  0  0  0
  5 14  1  0  0  0  0
  6  9  2  0  0  0  0
  7 19  1  0  0  0  0
  8 22  1  0  0  0  0
  9 16  1  0  0  0  0
 10  3  1  0  0  0  0
 10 17  1  1  0  0  0
 11  9  1  0  0  0  0
 12 23  1  0  0  0  0
 12 11  2  0  0  0  0
 13 23  1  0  0  0  0
 14 12  1  0  0  0  0
 15  7  1  0  0  0  0
 16  8  1  0  0  0  0
 18 11  1  0  0  0  0
 18 15  1  0  0  0  0
 19 22  1  0  0  0  0
 20  7  2  0  0  0  0
 21  1  2  0  0  0  0
 23  2  2  0  0  0  0
 25 26  1  6  0  0  0
 25 24  1  0  0  0  0
 27 25  1  0  0  0  0
 28 27  1  0  0  0  0
M  END
>  <MODEL>
6

>  <REMARK>
 VINA RESULT:      -5.1      2.588      3.313
  Name = 
  3 active torsions:
  status: ('A' for Active; 'I' for Inactive)
    1  A    between atoms: C_1  and  C_7
    2  A    between atoms: N_6  and  C_7
    3  A    between atoms: N_6  and  C_8
                            x       y       z     vdW  Elec       q    Type
                         _______ _______ _______ _____ _____    ______ ____

>  <TORSDO>
F 3

$$$$
=
 OpenBabel11042421023D

 28 33  0  0  1  0  0  0  0  0999 V2000
  161.2770  202.5290  146.6650 C   0  0  0  0  0  0  0  0  0  0  0  0
  160.8320  202.7490  150.2070 C   0  0  0  0  0  0  0  0  0  0  0  0
  160.6220  201.2750  150.0740 C   0  0  2  0  0  0  0  0  0  0  0  0
  160.9310  200.9540  148.6690 C   0  0  1  0  0  3  0  0  0  0  0  0
  161.1370  203.9710  146.2340 C   0  0  1  0  0  3  0  0  0  0  0  0
  160.5410  203.6080  151.2640 C   0  0  0  0  0  3  0  0  0  0  0  0
  161.7270  208.5070  151.3420 C   0  0  0  0  0  0  0  0  0  0  0  0
  161.8020  206.2050  152.8740 N   0  0  0  0  0  2  0  0  0  0  0  0
  160.7420  204.9920  151.0880 C   0  0  0  0  0  0  0  0  0  0  0  0
  159.5160  201.0680  149.0720 N   0  0  1  0  0  0  0  0  0  0  0  0
  161.2300  205.4960  149.8340 C   0  0  0  0  0  0  0  0  0  0  0  0
  161.5450  204.5740  148.8120 C   0  0  0  0  0  0  0  0  0  0  0  0
  161.3780  202.2140  148.0590 N   0  0  0  0  0  0  0  0  0  0  0  0
  162.2280  205.0680  147.2200 S   0  0  0  0  0  0  0  0  0  0  0  0
  160.8500  208.0430  150.2310 C   0  0  0  0  0  2  0  0  0  0  0  0
  160.5130  205.8470  152.2880 C   0  0  0  0  0  2  0  0  0  0  0  0
  159.3290  200.7820  150.5020 C   0  0  0  0  0  2  0  0  0  0  0  0
  161.4360  206.8950  149.5530 N   0  0  0  0  0  2  0  0  0  0  0  0
  161.2370  208.4240  152.6780 N   0  0  0  0  0  2  0  0  0  0  0  0
  162.9000  208.9070  151.1150 O   0  0  0  0  0  0  0  0  0  0  0  0
  161.2110  201.6010  145.8150 O   0  0  0  0  0  0  0  0  0  0  0  0
  161.6760  207.4260  153.5720 N   0  0  0  0  0  2  0  0  0  0  0  0
  161.3400  203.2240  149.0430 C   0  0  0  0  0  0  0  0  0  0  0  0
  161.4540  204.1210  144.8210 N   0  0  0  0  0  2  0  0  0  0  0  0
  160.7170  205.2750  144.3300 C   0  0  1  0  0  3  0  0  0  0  0  0
  160.0800  206.0160  145.4910 C   0  0  0  0  0  1  0  0  0  0  0  0
  161.6310  206.2000  143.5310 C   0  0  0  0  0  2  0  0  0  0  0  0
  161.5810  205.8860  142.1110 N   0  0  0  0  0  1  0  0  0  0  0  0
  1 13  1  0  0  0  0
  2  6  1  0  0  0  0
  3  2  1  0  0  0  0
  3 17  1  1  0  0  0
  4 13  1  6  0  0  0
  4 10  1  0  0  0  0
  4  3  1  0  0  0  0
  5 24  1  6  0  0  0
  5  1  1  0  0  0  0
  5 14  1  0  0  0  0
  7 19  1  0  0  0  0
  8 22  1  0  0  0  0
  9  6  2  0  0  0  0
  9 16  1  0  0  0  0
 10  3  1  0  0  0  0
 10 17  1  1  0  0  0
 11  9  1  0  0  0  0
 12 23  1  0  0  0  0
 12 11  2  0  0  0  0
 13 23  1  0  0  0  0
 14 12  1  0  0  0  0
 15  7  1  0  0  0  0
 16  8  1  0  0  0  0
 18 11  1  0  0  0  0
 18 15  1  0  0  0  0
 19 22  1  0  0  0  0
 20  7  2  0  0  0  0
 21  1  2  0  0  0  0
 23  2  2  0  0  0  0
 25 24  1  0  0  0  0
 25 26  1  1  0  0  0
 27 25  1  0  0  0  0
 28 27  1  0  0  0  0
M  END
>  <MODEL>
7

>  <REMARK>
 VINA RESULT:      -4.7      3.718      5.382
  Name = 
  3 active torsions:
  status: ('A' for Active; 'I' for Inactive)
    1  A    between atoms: C_1  and  C_7
    2  A    between atoms: N_6  and  C_7
    3  A    between atoms: N_6  and  C_8
                            x       y       z     vdW  Elec       q    Type
                         _______ _______ _______ _____ _____    ______ ____

>  <TORSDO>
F 3

$$$$
=
 OpenBabel11042421023D

 28 33  0  0  1  0  0  0  0  0999 V2000
  161.3540  204.2640  149.2800 C   0  0  0  0  0  0  0  0  0  0  0  0
  161.2060  207.7300  150.1490 C   0  0  0  0  0  0  0  0  0  0  0  0
  161.3610  207.9050  148.6720 C   0  0  2  0  0  0  0  0  0  0  0  0
  161.2770  206.5490  148.1000 C   0  0  1  0  0  3  0  0  0  0  0  0
  161.6370  203.6110  150.6140 C   0  0  1  0  0  3  0  0  0  0  0  0
  161.3580  208.6490  151.1840 C   0  0  0  0  0  3  0  0  0  0  0  0
  160.4270  207.6340  156.0330 C   0  0  0  0  0  0  0  0  0  0  0  0
  159.9780  209.5190  154.0600 N   0  0  0  0  0  2  0  0  0  0  0  0
  161.2610  208.1950  152.5140 C   0  0  0  0  0  0  0  0  0  0  0  0
  162.6080  207.1660  148.2610 N   0  0  1  0  0  0  0  0  0  0  0  0
  161.0180  206.8040  152.7850 C   0  0  0  0  0  0  0  0  0  0  0  0
  160.8330  205.9260  151.6940 C   0  0  0  0  0  0  0  0  0  0  0  0
  161.0040  205.6530  149.2330 N   0  0  0  0  0  0  0  0  0  0  0  0
  160.4530  204.1770  151.8950 S   0  0  0  0  0  0  0  0  0  0  0  0
  161.4540  206.7950  155.3540 C   0  0  0  0  0  2  0  0  0  0  0  0
  161.3280  209.2410  153.5740 C   0  0  0  0  0  2  0  0  0  0  0  0
  162.5370  208.6340  148.2430 C   0  0  0  0  0  2  0  0  0  0  0  0
  160.9330  206.2440  154.1110 N   0  0  0  0  0  2  0  0  0  0  0  0
  160.6800  209.0280  156.1920 N   0  0  0  0  0  2  0  0  0  0  0  0
  159.3310  207.1370  156.4050 O   0  0  0  0  0  0  0  0  0  0  0  0
  161.5140  203.6210  148.2080 O   0  0  0  0  0  0  0  0  0  0  0  0
  160.0470  209.9960  155.3870 N   0  0  0  0  0  2  0  0  0  0  0  0
  160.9270  206.4300  150.4070 C   0  0  0  0  0  0  0  0  0  0  0  0
  161.5710  202.1620  150.5030 N   0  0  0  0  0  2  0  0  0  0  0  0
  160.6110  201.8480  149.4550 C   0  0  1  0  0  3  0  0  0  0  0  0
  161.2060  200.8360  148.4940 C   0  0  0  0  0  1  0  0  0  0  0  0
  159.3070  201.3280  150.0550 C   0  0  0  0  0  2  0  0  0  0  0  0
  158.3590  200.9700  149.0110 N   0  0  0  0  0  1  0  0  0  0  0  0
  1  5  1  0  0  0  0
  2 23  2  0  0  0  0
  2  6  1  0  0  0  0
  3 17  1  6  0  0  0
  3  2  1  0  0  0  0
  4 10  1  0  0  0  0
  4  3  1  0  0  0  0
  4 13  1  1  0  0  0
  5 24  1  6  0  0  0
  5 14  1  0  0  0  0
  6  9  2  0  0  0  0
  7 19  1  0  0  0  0
  7 20  2  0  0  0  0
  8 22  1  0  0  0  0
  9 11  1  0  0  0  0
  9 16  1  0  0  0  0
 10 17  1  6  0  0  0
 10  3  1  0  0  0  0
 11 18  1  0  0  0  0
 12 14  1  0  0  0  0
 12 11  2  0  0  0  0
 13  1  1  0  0  0  0
 13 23  1  0  0  0  0
 15  7  1  0  0  0  0
 16  8  1  0  0  0  0
 18 15  1  0  0  0  0
 21  1  2  0  0  0  0
 22 19  1  0  0  0  0
 23 12  1  0  0  0  0
 25 26  1  6  0  0  0
 25 27  1  0  0  0  0
 25 24  1  0  0  0  0
 28 27  1  0  0  0  0
M  END
>  <MODEL>
8

>  <REMARK>
 VINA RESULT:      -4.4      2.649      5.516
  Name = 
  3 active torsions:
  status: ('A' for Active; 'I' for Inactive)
    1  A    between atoms: C_1  and  C_7
    2  A    between atoms: N_6  and  C_7
    3  A    between atoms: N_6  and  C_8
                            x       y       z     vdW  Elec       q    Type
                         _______ _______ _______ _____ _____    ______ ____

>  <TORSDO>
F 3

$$$$
=
 OpenBabel11042421023D

 28 33  0  0  1  0  0  0  0  0999 V2000
  159.2440  213.2980  153.2050 C   0  0  0  0  0  0  0  0  0  0  0  0
  159.7300  210.2330  154.9830 C   0  0  0  0  0  0  0  0  0  0  0  0
  159.1860  211.0350  156.1210 C   0  0  2  0  0  0  0  0  0  0  0  0
  158.7630  212.3200  155.5360 C   0  0  1  0  0  3  0  0  0  0  0  0
  160.0780  213.0840  151.9630 C   0  0  1  0  0  3  0  0  0  0  0  0
  160.4040  209.0140  154.9820 C   0  0  0  0  0  3  0  0  0  0  0  0
  161.7890  206.5450  150.8120 C   0  0  0  0  0  0  0  0  0  0  0  0
  160.5850  206.1890  153.2760 N   0  0  0  0  0  2  0  0  0  0  0  0
  160.9130  208.5210  153.7650 C   0  0  0  0  0  0  0  0  0  0  0  0
  160.0480  212.2630  156.2570 N   0  0  1  0  0  0  0  0  0  0  0  0
  160.7400  209.2750  152.5530 C   0  0  0  0  0  0  0  0  0  0  0  0
  160.0140  210.4850  152.6080 C   0  0  0  0  0  0  0  0  0  0  0  0
  158.9970  212.1980  154.0900 N   0  0  0  0  0  0  0  0  0  0  0  0
  159.6670  211.4890  151.1540 S   0  0  0  0  0  0  0  0  0  0  0  0
  162.3260  207.9230  150.9890 C   0  0  0  0  0  2  0  0  0  0  0  0
  161.5300  207.1650  153.8100 C   0  0  0  0  0  2  0  0  0  0  0  0
  160.0670  211.1900  157.2610 C   0  0  0  0  0  2  0  0  0  0  0  0
  161.2520  208.8660  151.2690 N   0  0  0  0  0  2  0  0  0  0  0  0
  162.1710  205.5380  151.7460 N   0  0  0  0  0  2  0  0  0  0  0  0
  160.9670  206.2860  149.8940 O   0  0  0  0  0  0  0  0  0  0  0  0
  158.8450  214.4530  153.5140 O   0  0  0  0  0  0  0  0  0  0  0  0
  161.2950  205.0860  152.7540 N   0  0  0  0  0  2  0  0  0  0  0  0
  159.5250  210.9160  153.8310 C   0  0  0  0  0  0  0  0  0  0  0  0
  159.8800  214.1700  151.0140 N   0  0  0  0  0  2  0  0  0  0  0  0
  159.0980  213.6440  149.9070 C   0  0  1  0  0  3  0  0  0  0  0  0
  157.6540  214.0950  150.0320 C   0  0  0  0  0  1  0  0  0  0  0  0
  159.6900  214.0830  148.5700 C   0  0  0  0  0  2  0  0  0  0  0  0
  161.1390  214.1840  148.6490 N   0  0  0  0  0  1  0  0  0  0  0  0
  1 21  2  0  0  0  0
  1 13  1  0  0  0  0
  2  3  1  0  0  0  0
  3 10  1  0  0  0  0
  3 17  1  1  0  0  0
  4 13  1  6  0  0  0
  4  3  1  0  0  0  0
  4 10  1  0  0  0  0
  5 24  1  6  0  0  0
  5  1  1  0  0  0  0
  6  2  1  0  0  0  0
  7 15  1  0  0  0  0
  7 19  1  0  0  0  0
  8 16  1  0  0  0  0
  9 16  1  0  0  0  0
  9  6  2  0  0  0  0
 10 17  1  1  0  0  0
 11 12  2  0  0  0  0
 11  9  1  0  0  0  0
 12 23  1  0  0  0  0
 14  5  1  0  0  0  0
 14 12  1  0  0  0  0
 15 18  1  0  0  0  0
 18 11  1  0  0  0  0
 19 22  1  0  0  0  0
 20  7  2  0  0  0  0
 22  8  1  0  0  0  0
 23 13  1  0  0  0  0
 23  2  2  0  0  0  0
 25 26  1  1  0  0  0
 25 24  1  0  0  0  0
 27 28  1  0  0  0  0
 27 25  1  0  0  0  0
M  END
>  <MODEL>
9

>  <REMARK>
 VINA RESULT:      -4.2      2.640      5.912
  Name = 
  3 active torsions:
  status: ('A' for Active; 'I' for Inactive)
    1  A    between atoms: C_1  and  C_7
    2  A    between atoms: N_6  and  C_7
    3  A    between atoms: N_6  and  C_8
                            x       y       z     vdW  Elec       q    Type
                         _______ _______ _______ _____ _____    ______ ____

>  <TORSDO>
F 3

$$$$
