=
 OpenBabel11042421513D

 47 55  0  0  1  0  0  0  0  0999 V2000
  162.3470  212.4400  147.5450 C   0  0  2  0  0  3  0  0  0  0  0  0
  161.0130  212.2510  151.3860 C   0  0  2  0  0  3  0  0  0  0  0  0
  163.5420  212.8160  148.4100 C   0  0  0  0  0  2  0  0  0  0  0  0
  158.2440  213.2340  149.8540 C   0  0  0  0  0  0  0  0  0  0  0  0
  158.5050  212.9820  151.3460 C   0  0  2  0  0  3  0  0  0  0  0  0
  158.6600  214.2710  152.1080 C   0  0  0  0  0  3  0  0  0  0  0  0
  157.8060  213.2010  154.0690 C   0  0  0  0  0  2  0  0  0  0  0  0
  160.9780  212.5040  149.9620 N   0  0  0  0  0  0  0  0  0  0  0  0
  159.2250  213.6930  148.9640 C   0  0  0  0  0  0  0  0  0  0  0  0
  160.1180  213.6110  146.8490 C   0  0  0  0  0  0  0  0  0  0  0  0
  159.5330  211.5260  153.2450 C   0  0  0  0  0  3  0  0  0  0  0  0
  161.9820  211.0840  151.2640 C   0  0  0  0  0  2  0  0  0  0  0  0
  160.9810  210.1200  149.2110 C   0  0  0  0  0  2  0  0  0  0  0  0
  157.6900  213.4900  147.1040 N   0  0  0  0  0  0  0  0  0  0  0  0
  158.3560  214.3360  153.3570 N   0  0  0  0  0  0  0  0  0  0  0  0
  160.5530  213.4320  149.0390 C   0  0  0  0  0  0  0  0  0  0  0  0
  163.2110  210.2480  148.1530 N   0  0  0  0  0  2  0  0  0  0  0  0
  161.1220  213.3370  147.7910 C   0  0  0  0  0  0  0  0  0  0  0  0
  158.9350  213.7730  147.5600 C   0  0  0  0  0  0  0  0  0  0  0  0
  162.8180  211.5160  148.7400 C   0  0  2  0  0  0  0  0  0  0  0  0
  161.9750  209.4500  148.2430 C   0  0  1  0  0  3  0  0  0  0  0  0
  156.7200  213.1480  148.0020 C   0  0  0  0  0  3  0  0  0  0  0  0
  158.8130  212.0930  154.2270 C   0  0  0  0  0  3  0  0  0  0  0  0
  161.7470  211.2930  149.8000 C   0  0  1  0  0  0  0  0  0  0  0  0
  156.9980  213.0220  149.3410 N   0  0  0  0  0  2  0  0  0  0  0  0
  159.5630  211.8950  151.7770 C   0  0  2  0  0  3  0  0  0  0  0  0
  159.0860  212.2150  145.0780 C   0  0  0  0  0  1  0  0  0  0  0  0
  160.1440  213.1110  145.5110 N   0  0  0  0  0  0  0  0  0  0  0  0
  160.9220  213.8000  144.4920 C   0  0  0  0  0  2  0  0  0  0  0  0
  161.3200  212.8720  143.4370 N   0  0  0  0  0  0  0  0  0  0  0  0
  161.9390  213.6320  142.3950 C   0  0  1  0  0  3  0  0  0  0  0  0
  162.7540  212.9640  143.3430 N   0  0  0  0  0  2  0  0  0  0  0  0
  163.0090  213.3090  140.3280 C   0  0  0  0  0  1  0  0  0  0  0  0
  162.1400  211.5680  141.4680 O   0  0  0  0  0  1  0  0  0  0  0  0
  161.9000  212.8650  141.1580 N   0  0  0  0  0  0  0  0  0  0  0  0
  162.2490  207.9910  148.6150 C   0  0  0  0  0  2  0  0  0  0  0  0
  161.1390  207.3930  149.3700 N   0  0  0  0  0  0  0  0  0  0  0  0
  161.6380  206.6590  150.5560 C   0  0  2  0  0  3  0  0  0  0  0  0
  161.1650  205.2070  150.5500 C   0  0  0  0  0  1  0  0  0  0  0  0
  161.2220  207.2750  151.8680 C   0  0  0  0  0  0  0  0  0  0  0  0
  160.5060  208.2630  151.8840 O   0  0  0  0  0  0  0  0  0  0  0  0
  160.7260  207.0940  154.2370 N   0  0  0  0  0  1  0  0  0  0  0  0
  161.5420  206.5710  153.1530 C   0  0  0  0  0  2  0  0  0  0  0  0
  160.3540  206.4790  148.5070 C   0  0  0  0  0  2  0  0  0  0  0  0
  160.9110  206.2650  147.0860 C   0  0  0  0  0  2  0  0  0  0  0  0
  162.8800  204.9520  146.3260 C   0  0  0  0  0  1  0  0  0  0  0  0
  161.4720  204.8630  146.8860 C   0  0  0  0  0  2  0  0  0  0  0  0
  1 18  1  0  0  0  0
  1  3  1  1  0  0  0
  1 20  1  0  0  0  0
  2 12  1  6  0  0  0
  2 26  1  0  0  0  0
  4  5  1  0  0  0  0
  5 26  1  0  0  0  0
  5  6  1  6  0  0  0
  6 15  2  0  0  0  0
  7 23  1  0  0  0  0
  8  2  1  0  0  0  0
  9 16  1  0  0  0  0
  9  4  2  0  0  0  0
 10 19  2  0  0  0  0
 10 18  1  0  0  0  0
 11 23  2  0  0  0  0
 14 19  1  0  0  0  0
 14 22  2  0  0  0  0
 15  7  1  0  0  0  0
 16  8  1  0  0  0  0
 17 21  1  0  0  0  0
 17 20  1  0  0  0  0
 18 16  2  0  0  0  0
 19  9  1  0  0  0  0
 20  3  1  1  0  0  0
 20 24  1  0  0  0  0
 21 36  1  1  0  0  0
 21 13  1  0  0  0  0
 22 25  1  0  0  0  0
 24 13  1  6  0  0  0
 24  8  1  0  0  0  0
 24 12  1  0  0  0  0
 25  4  1  0  0  0  0
 26 11  1  1  0  0  0
 27 28  1  0  0  0  0
 28 10  1  0  0  0  0
 29 28  1  0  0  0  0
 30 29  1  0  0  0  0
 31 35  1  6  0  0  0
 31 32  1  0  0  0  0
 31 30  1  0  0  0  0
 32 30  1  0  0  0  0
 33 35  1  0  0  0  0
 35 34  1  0  0  0  0
 36 37  1  0  0  0  0
 37 38  1  0  0  0  0
 38 39  1  1  0  0  0
 38 40  1  0  0  0  0
 40 41  2  0  0  0  0
 40 43  1  0  0  0  0
 43 42  1  0  0  0  0
 44 37  1  0  0  0  0
 45 44  1  0  0  0  0
 46 47  1  0  0  0  0
 47 45  1  0  0  0  0
M  END
>  <MODEL>
1

>  <REMARK>
 VINA RESULT:      -3.8      0.000      0.000
  Name = 
  12 active torsions:
  status: ('A' for Active; 'I' for Inactive)
    1  A    between atoms: C_1  and  C_5
    2  A    between atoms: C_1  and  N_15
    3  A    between atoms: C_2  and  N_15
    4  A    between atoms: C_2  and  C_23
    5  A    between atoms: C_5  and  C_42
    6  A    between atoms: C_7  and  C_23
    7  A    between atoms: N_12  and  C_45
    8  A    between atoms: N_15  and  C_41
    9  A    between atoms: C_19  and  N_38
   10  A    between atoms: C_24  and  N_36
   11  A    between atoms: N_36  and  C_45
   12  A    between atoms: C_39  and  C_41
                            x       y       z     vdW  Elec       q    Type
                         _______ _______ _______ _____ _____    ______ ____

>  <TORSDO>
F 12

$$$$
=
 OpenBabel11042421513D

 47 55  0  0  1  0  0  0  0  0999 V2000
  162.5860  210.8110  150.5280 C   0  0  2  0  0  3  0  0  0  0  0  0
  160.1460  210.9270  153.7850 C   0  0  2  0  0  3  0  0  0  0  0  0
  163.5100  210.6980  151.7330 C   0  0  0  0  0  2  0  0  0  0  0  0
  158.4610  212.8990  151.7220 C   0  0  0  0  0  0  0  0  0  0  0  0
  158.1520  212.5000  153.1730 C   0  0  2  0  0  3  0  0  0  0  0  0
  158.4730  213.6130  154.1340 C   0  0  0  0  0  3  0  0  0  0  0  0
  156.7580  212.8240  155.6020 C   0  0  0  0  0  2  0  0  0  0  0  0
  160.6370  211.2430  152.4610 N   0  0  1  0  0  0  0  0  0  0  0  0
  159.7620  213.0210  151.2140 C   0  0  0  0  0  0  0  0  0  0  0  0
  161.1860  212.7280  149.4360 C   0  0  0  0  0  0  0  0  0  0  0  0
  158.0140  210.6870  155.0370 C   0  0  0  0  0  3  0  0  0  0  0  0
  160.6730  209.4990  153.7560 C   0  0  0  0  0  2  0  0  0  0  0  0
  160.0990  209.0510  151.3860 C   0  0  0  0  0  2  0  0  0  0  0  0
  158.8970  213.4640  148.9980 N   0  0  0  0  0  0  0  0  0  0  0  0
  157.8370  213.7220  155.2480 N   0  0  0  0  0  0  0  0  0  0  0  0
  160.8420  212.3040  151.6080 C   0  0  2  0  0  3  0  0  0  0  0  0
  162.4620  208.4290  151.0090 N   0  0  0  0  0  2  0  0  0  0  0  0
  161.7050  212.0720  150.5640 C   0  0  0  0  0  0  0  0  0  0  0  0
  159.9610  213.2650  149.8130 C   0  0  0  0  0  0  0  0  0  0  0  0
  162.3390  209.7260  151.6510 C   0  0  2  0  0  0  0  0  0  0  0  0
  161.0700  208.1180  150.6370 C   0  0  1  0  0  3  0  0  0  0  0  0
  157.6410  213.4460  149.5330 C   0  0  0  0  0  3  0  0  0  0  0  0
  157.2510  211.4250  155.8590 C   0  0  0  0  0  3  0  0  0  0  0  0
  160.9820  209.8470  152.3330 C   0  0  1  0  0  0  0  0  0  0  0  0
  157.4360  213.1670  150.8620 N   0  0  0  0  0  0  0  0  0  0  0  0
  158.6140  211.0900  153.7070 C   0  0  2  0  0  3  0  0  0  0  0  0
  160.7730  211.1480  147.5690 C   0  0  0  0  0  1  0  0  0  0  0  0
  161.4610  212.3150  148.0960 N   0  0  0  0  0  0  0  0  0  0  0  0
  162.0470  213.2530  147.1500 C   0  0  0  0  0  2  0  0  0  0  0  0
  161.6820  212.8960  145.7820 N   0  0  0  0  0  0  0  0  0  0  0  0
  160.9400  213.9880  145.2280 C   0  0  1  0  0  3  0  0  0  0  0  0
  162.3220  213.8670  144.9320 N   0  0  0  0  0  2  0  0  0  0  0  0
  161.0870  213.1050  143.0550 C   0  0  0  0  0  1  0  0  0  0  0  0
  159.5080  212.3850  144.4950 O   0  0  0  0  0  1  0  0  0  0  0  0
  160.1570  213.5060  144.1000 N   0  0  0  0  0  0  0  0  0  0  0  0
  160.7280  206.6410  150.8430 C   0  0  0  0  0  2  0  0  0  0  0  0
  161.5960  205.7540  150.0570 N   0  0  0  0  0  0  0  0  0  0  0  0
  160.9790  205.4290  148.7490 C   0  0  2  0  0  3  0  0  0  0  0  0
  161.2360  203.9740  148.3620 C   0  0  0  0  0  1  0  0  0  0  0  0
  161.4630  206.3010  147.6180 C   0  0  0  0  0  0  0  0  0  0  0  0
  162.5050  206.9250  147.7250 O   0  0  0  0  0  0  0  0  0  0  0  0
  161.6330  205.7430  145.2630 N   0  0  0  0  0  1  0  0  0  0  0  0
  160.7540  206.2630  146.2970 C   0  0  0  0  0  2  0  0  0  0  0  0
  161.8800  204.5060  150.8030 C   0  0  0  0  0  2  0  0  0  0  0  0
  161.0930  204.3240  152.1150 C   0  0  0  0  0  2  0  0  0  0  0  0
  161.0910  202.0290  151.1610 C   0  0  0  0  0  1  0  0  0  0  0  0
  160.6980  202.8730  152.3600 C   0  0  0  0  0  2  0  0  0  0  0  0
  1 18  1  0  0  0  0
  1 20  1  0  0  0  0
  1  3  1  1  0  0  0
  2 12  1  6  0  0  0
  4  5  1  0  0  0  0
  5 26  1  0  0  0  0
  5  6  1  1  0  0  0
  6 15  2  0  0  0  0
  7 23  1  0  0  0  0
  8  2  1  0  0  0  0
  9 16  1  0  0  0  0
  9  4  1  0  0  0  0
 10 19  1  0  0  0  0
 10 18  2  0  0  0  0
 11 23  2  0  0  0  0
 13 24  1  0  0  0  0
 14 22  2  0  0  0  0
 14 19  1  0  0  0  0
 15  7  1  0  0  0  0
 16  8  1  0  0  0  0
 17 20  1  0  0  0  0
 18 16  1  0  0  0  0
 19  9  2  0  0  0  0
 20  3  1  0  0  0  0
 20 24  1  0  0  0  0
 21 36  1  0  0  0  0
 21 17  1  0  0  0  0
 21 13  1  0  0  0  0
 22 25  1  0  0  0  0
 24  8  1  0  0  0  0
 24 12  1  0  0  0  0
 25  4  2  0  0  0  0
 26  2  1  0  0  0  0
 26 11  1  0  0  0  0
 27 28  1  0  0  0  0
 28 10  1  0  0  0  0
 29 28  1  0  0  0  0
 30 29  1  0  0  0  0
 31 30  1  0  0  0  0
 32 31  1  0  0  0  0
 32 30  1  0  0  0  0
 33 35  1  0  0  0  0
 35 34  1  0  0  0  0
 35 31  1  0  0  0  0
 37 44  1  0  0  0  0
 37 36  1  0  0  0  0
 38 37  1  0  0  0  0
 39 38  1  0  0  0  0
 40 41  2  0  0  0  0
 40 38  1  0  0  0  0
 42 43  1  0  0  0  0
 43 40  1  0  0  0  0
 44 45  1  0  0  0  0
 45 47  1  0  0  0  0
 46 47  1  0  0  0  0
M  END
>  <MODEL>
2

>  <REMARK>
 VINA RESULT:      -3.2      2.002      3.517
  Name = 
  12 active torsions:
  status: ('A' for Active; 'I' for Inactive)
    1  A    between atoms: C_1  and  C_5
    2  A    between atoms: C_1  and  N_15
    3  A    between atoms: C_2  and  N_15
    4  A    between atoms: C_2  and  C_23
    5  A    between atoms: C_5  and  C_42
    6  A    between atoms: C_7  and  C_23
    7  A    between atoms: N_12  and  C_45
    8  A    between atoms: N_15  and  C_41
    9  A    between atoms: C_19  and  N_38
   10  A    between atoms: C_24  and  N_36
   11  A    between atoms: N_36  and  C_45
   12  A    between atoms: C_39  and  C_41
                            x       y       z     vdW  Elec       q    Type
                         _______ _______ _______ _____ _____    ______ ____

>  <TORSDO>
F 12

$$$$
=
 OpenBabel11042421513D

 47 55  0  0  1  0  0  0  0  0999 V2000
  162.3380  210.0200  148.4180 C   0  0  2  0  0  3  0  0  0  0  0  0
  162.2860  208.5960  152.2310 C   0  0  2  0  0  3  0  0  0  0  0  0
  163.7340  209.4660  148.6650 C   0  0  0  0  0  2  0  0  0  0  0  0
  160.1890  211.1440  152.5310 C   0  0  0  0  0  0  0  0  0  0  0  0
  160.6880  210.1510  153.5920 C   0  0  2  0  0  3  0  0  0  0  0  0
  161.7270  210.7720  154.4870 C   0  0  0  0  0  3  0  0  0  0  0  0
  161.0370  209.3310  156.2660 C   0  0  0  0  0  2  0  0  0  0  0  0
  161.9860  209.4710  151.1190 N   0  0  0  0  0  0  0  0  0  0  0  0
  160.9570  211.5510  151.4310 C   0  0  0  0  0  0  0  0  0  0  0  0
  161.0090  212.1270  149.2080 C   0  0  0  0  0  0  0  0  0  0  0  0
  161.2590  207.7150  154.3150 C   0  0  0  0  0  3  0  0  0  0  0  0
  162.3850  207.3500  151.3630 C   0  0  0  0  0  2  0  0  0  0  0  0
  160.4820  207.9090  149.8750 C   0  0  0  0  0  2  0  0  0  0  0  0
  159.0990  212.8330  150.5590 N   0  0  0  0  0  0  0  0  0  0  0  0
  161.8810  210.3600  155.6970 N   0  0  0  0  0  0  0  0  0  0  0  0
  161.8860  210.8030  150.7880 C   0  0  0  0  0  0  0  0  0  0  0  0
  162.0100  207.6550  147.9490 N   0  0  0  0  0  2  0  0  0  0  0  0
  161.9260  211.0890  149.4450 C   0  0  0  0  0  0  0  0  0  0  0  0
  160.3660  212.3760  150.4140 C   0  0  0  0  0  0  0  0  0  0  0  0
  162.5530  208.5480  148.9560 C   0  0  2  0  0  0  0  0  0  0  0  0
  160.6270  207.4440  148.4140 C   0  0  1  0  0  3  0  0  0  0  0  0
  158.4050  212.5120  151.6890 C   0  0  0  0  0  3  0  0  0  0  0  0
  161.2790  207.9880  155.6300 C   0  0  0  0  0  3  0  0  0  0  0  0
  161.8920  208.2850  150.3020 C   0  0  1  0  0  0  0  0  0  0  0  0
  158.9410  211.6850  152.6460 N   0  0  0  0  0  2  0  0  0  0  0  0
  161.0600  208.6800  153.1650 C   0  0  2  0  0  3  0  0  0  0  0  0
  158.9580  212.6540  147.9180 C   0  0  0  0  0  1  0  0  0  0  0  0
  160.3740  212.3360  147.9450 N   0  0  0  0  0  0  0  0  0  0  0  0
  161.1750  212.6610  146.7730 C   0  0  0  0  0  2  0  0  0  0  0  0
  160.3490  212.6450  145.5690 N   0  0  0  0  0  0  0  0  0  0  0  0
  160.5370  213.8920  144.8930 C   0  0  1  0  0  3  0  0  0  0  0  0
  161.2600  212.7530  144.4590 N   0  0  0  0  0  2  0  0  0  0  0  0
  159.2760  212.9530  143.1470 C   0  0  0  0  0  1  0  0  0  0  0  0
  158.2880  214.1850  144.7570 O   0  0  0  0  0  1  0  0  0  0  0  0
  159.4100  214.1230  144.0010 N   0  0  0  0  0  0  0  0  0  0  0  0
  160.1610  205.9990  148.2180 C   0  0  0  0  0  2  0  0  0  0  0  0
  161.2850  205.0550  148.1620 N   0  0  0  0  0  0  0  0  0  0  0  0
  161.2940  204.3150  146.8790 C   0  0  2  0  0  3  0  0  0  0  0  0
  161.5690  202.8280  147.0980 C   0  0  0  0  0  1  0  0  0  0  0  0
  162.3090  204.8310  145.8890 C   0  0  0  0  0  0  0  0  0  0  0  0
  163.4980  204.6250  146.0630 O   0  0  0  0  0  0  0  0  0  0  0  0
  160.4800  205.9320  144.7350 N   0  0  0  0  0  1  0  0  0  0  0  0
  161.8430  205.4440  144.6020 C   0  0  0  0  0  2  0  0  0  0  0  0
  161.2220  204.1000  149.2940 C   0  0  0  0  0  2  0  0  0  0  0  0
  160.4540  204.5920  150.5350 C   0  0  0  0  0  2  0  0  0  0  0  0
  161.3900  202.4980  151.4910 C   0  0  0  0  0  1  0  0  0  0  0  0
  160.9120  203.9010  151.8140 C   0  0  0  0  0  2  0  0  0  0  0  0
  1  3  1  1  0  0  0
  1 20  1  0  0  0  0
  1 18  1  0  0  0  0
  2 12  1  6  0  0  0
  2 26  1  0  0  0  0
  4 25  1  0  0  0  0
  4  5  1  0  0  0  0
  5  6  1  6  0  0  0
  6 15  2  0  0  0  0
  8  2  1  0  0  0  0
  9  4  2  0  0  0  0
 10 18  1  0  0  0  0
 10 19  2  0  0  0  0
 11 23  2  0  0  0  0
 14 22  2  0  0  0  0
 15  7  1  0  0  0  0
 16  8  1  0  0  0  0
 16  9  1  0  0  0  0
 17 21  1  0  0  0  0
 17 20  1  0  0  0  0
 18 16  2  0  0  0  0
 19 14  1  0  0  0  0
 19  9  1  0  0  0  0
 20  3  1  1  0  0  0
 20 24  1  0  0  0  0
 21 36  1  1  0  0  0
 21 13  1  0  0  0  0
 22 25  1  0  0  0  0
 23  7  1  0  0  0  0
 24 13  1  6  0  0  0
 24  8  1  0  0  0  0
 24 12  1  0  0  0  0
 26  5  1  0  0  0  0
 26 11  1  1  0  0  0
 27 28  1  0  0  0  0
 28 10  1  0  0  0  0
 29 28  1  0  0  0  0
 30 29  1  0  0  0  0
 31 35  1  6  0  0  0
 31 30  1  0  0  0  0
 32 31  1  0  0  0  0
 32 30  1  0  0  0  0
 33 35  1  0  0  0  0
 35 34  1  0  0  0  0
 37 36  1  0  0  0  0
 37 44  1  0  0  0  0
 38 39  1  1  0  0  0
 38 37  1  0  0  0  0
 40 41  2  0  0  0  0
 40 38  1  0  0  0  0
 43 42  1  0  0  0  0
 43 40  1  0  0  0  0
 44 45  1  0  0  0  0
 45 47  1  0  0  0  0
 46 47  1  0  0  0  0
M  END
>  <MODEL>
3

>  <REMARK>
 VINA RESULT:      -3.2      2.358      4.354
  Name = 
  12 active torsions:
  status: ('A' for Active; 'I' for Inactive)
    1  A    between atoms: C_1  and  C_5
    2  A    between atoms: C_1  and  N_15
    3  A    between atoms: C_2  and  N_15
    4  A    between atoms: C_2  and  C_23
    5  A    between atoms: C_5  and  C_42
    6  A    between atoms: C_7  and  C_23
    7  A    between atoms: N_12  and  C_45
    8  A    between atoms: N_15  and  C_41
    9  A    between atoms: C_19  and  N_38
   10  A    between atoms: C_24  and  N_36
   11  A    between atoms: N_36  and  C_45
   12  A    between atoms: C_39  and  C_41
                            x       y       z     vdW  Elec       q    Type
                         _______ _______ _______ _____ _____    ______ ____

>  <TORSDO>
F 12

$$$$
