=
 OpenBabel11052410533D

 30 32  0  0  1  0  0  0  0  0999 V2000
  161.5520  207.1350  151.6420 C   0  0  0  0  0  2  0  0  0  0  0  0
  160.6780  205.1190  150.6100 C   0  0  0  0  0  0  0  0  0  0  0  0
  160.3540  203.8630  150.7480 C   0  0  0  0  0  3  0  0  0  0  0  0
  160.9980  206.3790  150.4790 C   0  0  0  0  0  0  0  0  0  0  0  0
  161.2220  202.9400  151.5300 C   0  0  0  0  0  3  0  0  0  0  0  0
  162.4370  203.5500  151.7750 F   0  0  0  0  0  0  0  0  0  0  0  0
  161.4320  201.7710  150.8190 F   0  0  0  0  0  0  0  0  0  0  0  0
  160.9960  207.0010  149.1230 C   0  0  0  0  0  2  0  0  0  0  0  0
  162.3660  206.9040  148.4660 C   0  0  0  0  0  2  0  0  0  0  0  0
  162.2370  206.6060  147.1060 O   0  0  0  0  0  0  0  0  0  0  0  0
  161.0890  205.8140  147.0140 C   0  0  0  0  0  3  0  0  0  0  0  0
  161.0190  205.7180  144.5020 C   0  0  0  0  0  2  0  0  0  0  0  0
  161.4770  204.3340  146.9890 C   0  0  0  0  0  2  0  0  0  0  0  0
  160.2870  206.1810  145.7620 C   0  0  0  0  0  2  0  0  0  0  0  0
  161.2370  204.2730  144.5520 N   0  0  0  0  0  2  0  0  0  0  0  0
  162.1440  203.9810  145.6600 C   0  0  0  0  0  2  0  0  0  0  0  0
  161.2480  208.6150  151.5100 C   0  0  0  0  0  2  0  0  0  0  0  0
  162.4040  209.2920  151.1240 O   0  0  0  0  0  0  0  0  0  0  0  0
  161.9500  210.5070  150.6050 C   0  0  0  0  0  2  0  0  0  0  0  0
  162.0550  210.5060  149.0890 C   0  0  0  0  0  2  0  0  0  0  0  0
  162.5790  211.8390  148.5940 C   0  0  0  0  0  2  0  0  0  0  0  0
  161.5230  212.7450  148.4960 O   0  0  0  0  0  0  0  0  0  0  0  0
  160.0990  212.8070  145.1570 C   0  0  0  0  0  3  0  0  0  0  0  0
  157.1090  212.9240  148.2630 N   0  0  0  0  0  1  0  0  0  0  0  0
  158.7940  212.5190  144.8990 C   0  0  0  0  0  3  0  0  0  0  0  0
  157.7140  212.5900  145.9420 C   0  0  0  0  0  3  0  0  0  0  0  0
  160.5800  213.2900  146.5150 C   0  0  1  0  0  3  0  0  0  0  0  0
  158.0580  212.8290  147.2070 C   0  0  0  0  0  0  0  0  0  0  0  0
  159.4410  212.9920  147.4170 N   0  0  0  0  0  0  0  0  0  0  0  0
  160.7590  212.2830  147.4250 C   0  0  2  0  0  3  0  0  0  0  0  0
  2  3  2  0  0  0  0
  3  5  1  0  0  0  0
  4  2  2  0  0  0  0
  4  1  1  0  0  0  0
  5  6  1  0  0  0  0
  7  5  1  0  0  0  0
  8  4  1  0  0  0  0
  9  8  1  0  0  0  0
 10  9  1  0  0  0  0
 11 10  1  0  0  0  0
 12 15  1  0  0  0  0
 12 14  1  0  0  0  0
 13 11  1  0  0  0  0
 14 11  1  0  0  0  0
 15 16  1  0  0  0  0
 16 13  1  0  0  0  0
 17  1  1  0  0  0  0
 18 17  1  0  0  0  0
 19 18  1  0  0  0  0
 20 19  1  0  0  0  0
 21 20  1  0  0  0  0
 22 21  1  0  0  0  0
 25 23  2  0  0  0  0
 25 26  1  0  0  0  0
 26 28  2  0  0  0  0
 27 23  1  6  0  0  0
 27 29  1  0  0  0  0
 27 30  1  0  0  0  0
 28 29  1  0  0  0  0
 28 24  1  0  0  0  0
 29 30  1  0  0  0  0
 30 22  1  1  0  0  0
M  END
>  <MODEL>
1

>  <REMARK>
 VINA RESULT:      -7.2      0.000      0.000
  Name = 
  13 active torsions:
  status: ('A' for Active; 'I' for Inactive)
    1  A    between atoms: O_3  and  C_23
    2  A    between atoms: O_3  and  C_26
    3  A    between atoms: O_6  and  C_10
    4  A    between atoms: O_6  and  C_15
    5  A    between atoms: C_8  and  O_9
    6  A    between atoms: O_9  and  C_18
    7  A    between atoms: C_10  and  C_21
    8  A    between atoms: C_12  and  C_15
    9  A    between atoms: C_12  and  C_30
   10  A    between atoms: C_18  and  C_22
   11  A    between atoms: C_21  and  C_23
   12  A    between atoms: C_22  and  C_30
   13  A    between atoms: C_24  and  C_29
                            x       y       z     vdW  Elec       q    Type
                         _______ _______ _______ _____ _____    ______ ____

>  <TORSDO>
F 13

$$$$
=
 OpenBabel11052410533D

 30 32  0  0  1  0  0  0  0  0999 V2000
  161.6720  208.2320  153.2020 C   0  0  0  0  0  2  0  0  0  0  0  0
  161.2290  205.8460  153.1560 C   0  0  0  0  0  0  0  0  0  0  0  0
  161.3320  204.7190  152.5050 C   0  0  0  0  0  3  0  0  0  0  0  0
  161.1340  206.9750  153.8050 C   0  0  0  0  0  0  0  0  0  0  0  0
  161.0900  204.6690  151.0370 C   0  0  0  0  0  3  0  0  0  0  0  0
  160.3740  205.7850  150.6520 F   0  0  0  0  0  0  0  0  0  0  0  0
  160.3730  203.5300  150.7140 F   0  0  0  0  0  0  0  0  0  0  0  0
  160.3170  207.0410  155.0510 C   0  0  0  0  0  2  0  0  0  0  0  0
  160.6050  208.3120  155.8380 C   0  0  0  0  0  2  0  0  0  0  0  0
  159.4980  209.1650  155.8100 O   0  0  0  0  0  0  0  0  0  0  0  0
  159.9110  210.3220  156.4760 C   0  0  0  0  0  3  0  0  0  0  0  0
  160.5070  211.6330  154.4130 C   0  0  0  0  0  2  0  0  0  0  0  0
  158.7270  211.2750  156.6540 C   0  0  0  0  0  2  0  0  0  0  0  0
  161.0420  211.0070  155.7020 C   0  0  0  0  0  2  0  0  0  0  0  0
  159.4550  212.5990  154.7260 N   0  0  0  0  0  2  0  0  0  0  0  0
  158.3250  211.8790  155.3090 C   0  0  0  0  0  2  0  0  0  0  0  0
  160.7400  208.7440  152.1190 C   0  0  0  0  0  2  0  0  0  0  0  0
  161.4610  209.5390  151.2280 O   0  0  0  0  0  0  0  0  0  0  0  0
  162.2260  208.6360  150.4840 C   0  0  0  0  0  2  0  0  0  0  0  0
  162.0880  208.9270  148.9990 C   0  0  0  0  0  2  0  0  0  0  0  0
  161.3470  207.8010  148.3060 C   0  0  0  0  0  2  0  0  0  0  0  0
  162.2680  206.8990  147.7710 O   0  0  0  0  0  0  0  0  0  0  0  0
  161.6260  203.3360  147.5020 C   0  0  0  0  0  3  0  0  0  0  0  0
  161.3340  205.3880  143.7200 N   0  0  0  0  0  1  0  0  0  0  0  0
  161.0010  202.7710  146.4320 C   0  0  0  0  0  3  0  0  0  0  0  0
  160.9150  203.4330  145.0860 C   0  0  0  0  0  3  0  0  0  0  0  0
  162.3520  204.6680  147.4180 C   0  0  1  0  0  3  0  0  0  0  0  0
  161.3630  204.6820  144.9540 C   0  0  0  0  0  0  0  0  0  0  0  0
  161.8810  205.2460  146.1360 N   0  0  0  0  0  0  0  0  0  0  0  0
  161.5220  205.7540  147.4970 C   0  0  2  0  0  3  0  0  0  0  0  0
  1  4  1  0  0  0  0
  2  4  2  0  0  0  0
  3  2  2  0  0  0  0
  4  8  1  0  0  0  0
  5  3  1  0  0  0  0
  6  5  1  0  0  0  0
  7  5  1  0  0  0  0
  8  9  1  0  0  0  0
 10  9  1  0  0  0  0
 10 11  1  0  0  0  0
 11 13  1  0  0  0  0
 12 15  1  0  0  0  0
 12 14  1  0  0  0  0
 14 11  1  0  0  0  0
 15 16  1  0  0  0  0
 16 13  1  0  0  0  0
 17  1  1  0  0  0  0
 18 17  1  0  0  0  0
 19 18  1  0  0  0  0
 20 19  1  0  0  0  0
 21 20  1  0  0  0  0
 22 21  1  0  0  0  0
 24 28  1  0  0  0  0
 25 23  2  0  0  0  0
 26 25  1  0  0  0  0
 27 30  1  0  0  0  0
 27 23  1  1  0  0  0
 28 26  2  0  0  0  0
 28 29  1  0  0  0  0
 29 27  1  0  0  0  0
 29 30  1  0  0  0  0
 30 22  1  6  0  0  0
M  END
>  <MODEL>
2

>  <REMARK>
 VINA RESULT:      -7.1      3.486      7.778
  Name = 
  13 active torsions:
  status: ('A' for Active; 'I' for Inactive)
    1  A    between atoms: O_3  and  C_23
    2  A    between atoms: O_3  and  C_26
    3  A    between atoms: O_6  and  C_10
    4  A    between atoms: O_6  and  C_15
    5  A    between atoms: C_8  and  O_9
    6  A    between atoms: O_9  and  C_18
    7  A    between atoms: C_10  and  C_21
    8  A    between atoms: C_12  and  C_15
    9  A    between atoms: C_12  and  C_30
   10  A    between atoms: C_18  and  C_22
   11  A    between atoms: C_21  and  C_23
   12  A    between atoms: C_22  and  C_30
   13  A    between atoms: C_24  and  C_29
                            x       y       z     vdW  Elec       q    Type
                         _______ _______ _______ _____ _____    ______ ____

>  <TORSDO>
F 13

$$$$
=
 OpenBabel11052410533D

 30 32  0  0  1  0  0  0  0  0999 V2000
  161.5310  205.4530  152.8250 C   0  0  0  0  0  2  0  0  0  0  0  0
  160.9490  207.7960  152.5750 C   0  0  0  0  0  0  0  0  0  0  0  0
  160.9420  208.8530  151.8100 C   0  0  0  0  0  3  0  0  0  0  0  0
  160.9530  206.7330  153.3330 C   0  0  0  0  0  0  0  0  0  0  0  0
  162.1220  209.1810  150.9630 C   0  0  0  0  0  3  0  0  0  0  0  0
  162.8750  208.0410  150.7630 F   0  0  0  0  0  0  0  0  0  0  0  0
  162.9010  210.1400  151.5860 F   0  0  0  0  0  0  0  0  0  0  0  0
  160.5630  206.8520  154.7690 C   0  0  0  0  0  2  0  0  0  0  0  0
  161.1590  208.1020  155.4030 C   0  0  0  0  0  2  0  0  0  0  0  0
  160.1450  208.9590  155.8400 O   0  0  0  0  0  0  0  0  0  0  0  0
  160.8080  210.0870  156.3330 C   0  0  0  0  0  3  0  0  0  0  0  0
  160.5200  211.5000  154.2730 C   0  0  0  0  0  2  0  0  0  0  0  0
  159.8100  211.0180  157.0250 C   0  0  0  0  0  2  0  0  0  0  0  0
  161.5300  210.8190  155.1980 C   0  0  0  0  0  2  0  0  0  0  0  0
  159.6990  212.4400  155.0340 N   0  0  0  0  0  2  0  0  0  0  0  0
  158.8990  211.6820  155.9940 C   0  0  0  0  0  2  0  0  0  0  0  0
  161.4330  205.3870  151.3120 C   0  0  0  0  0  2  0  0  0  0  0  0
  160.4560  204.4580  150.9520 O   0  0  0  0  0  0  0  0  0  0  0  0
  160.7190  203.3390  151.7470 C   0  0  0  0  0  2  0  0  0  0  0  0
  161.0880  202.1500  150.8750 C   0  0  0  0  0  2  0  0  0  0  0  0
  160.5440  202.3330  149.4720 C   0  0  0  0  0  2  0  0  0  0  0  0
  161.5830  202.6960  148.6150 O   0  0  0  0  0  0  0  0  0  0  0  0
  161.2670  203.9720  145.2310 C   0  0  0  0  0  3  0  0  0  0  0  0
  160.9590  207.0580  148.2280 N   0  0  0  0  0  1  0  0  0  0  0  0
  160.7400  205.1940  144.9420 C   0  0  0  0  0  3  0  0  0  0  0  0
  160.6540  206.3100  145.9450 C   0  0  0  0  0  3  0  0  0  0  0  0
  161.8780  203.6400  146.5820 C   0  0  1  0  0  3  0  0  0  0  0  0
  160.9970  206.0660  147.2100 C   0  0  0  0  0  0  0  0  0  0  0  0
  161.4130  204.7430  147.4580 N   0  0  0  0  0  0  0  0  0  0  0  0
  160.9520  203.3220  147.5400 C   0  0  2  0  0  3  0  0  0  0  0  0
  1  4  1  0  0  0  0
  2  4  2  0  0  0  0
  3  2  2  0  0  0  0
  4  8  1  0  0  0  0
  5  7  1  0  0  0  0
  5  3  1  0  0  0  0
  6  5  1  0  0  0  0
  8  9  1  0  0  0  0
  9 10  1  0  0  0  0
 10 11  1  0  0  0  0
 11 13  1  0  0  0  0
 12 15  1  0  0  0  0
 12 14  1  0  0  0  0
 14 11  1  0  0  0  0
 15 16  1  0  0  0  0
 16 13  1  0  0  0  0
 17  1  1  0  0  0  0
 18 17  1  0  0  0  0
 18 19  1  0  0  0  0
 20 19  1  0  0  0  0
 21 20  1  0  0  0  0
 22 21  1  0  0  0  0
 25 23  2  0  0  0  0
 25 26  1  0  0  0  0
 26 28  2  0  0  0  0
 27 23  1  6  0  0  0
 27 29  1  0  0  0  0
 27 30  1  0  0  0  0
 28 29  1  0  0  0  0
 28 24  1  0  0  0  0
 29 30  1  0  0  0  0
 30 22  1  1  0  0  0
M  END
>  <MODEL>
3

>  <REMARK>
 VINA RESULT:      -7.1      4.296      8.369
  Name = 
  13 active torsions:
  status: ('A' for Active; 'I' for Inactive)
    1  A    between atoms: O_3  and  C_23
    2  A    between atoms: O_3  and  C_26
    3  A    between atoms: O_6  and  C_10
    4  A    between atoms: O_6  and  C_15
    5  A    between atoms: C_8  and  O_9
    6  A    between atoms: O_9  and  C_18
    7  A    between atoms: C_10  and  C_21
    8  A    between atoms: C_12  and  C_15
    9  A    between atoms: C_12  and  C_30
   10  A    between atoms: C_18  and  C_22
   11  A    between atoms: C_21  and  C_23
   12  A    between atoms: C_22  and  C_30
   13  A    between atoms: C_24  and  C_29
                            x       y       z     vdW  Elec       q    Type
                         _______ _______ _______ _____ _____    ______ ____

>  <TORSDO>
F 13

$$$$
=
 OpenBabel11052410533D

 30 32  0  0  1  0  0  0  0  0999 V2000
  162.1060  206.7080  151.1850 C   0  0  0  0  0  2  0  0  0  0  0  0
  160.7600  204.9380  150.2130 C   0  0  0  0  0  0  0  0  0  0  0  0
  160.3700  203.6940  150.2680 C   0  0  0  0  0  3  0  0  0  0  0  0
  161.1490  206.1840  150.1650 C   0  0  0  0  0  0  0  0  0  0  0  0
  161.3400  202.6120  150.5940 C   0  0  0  0  0  3  0  0  0  0  0  0
  160.7010  201.3890  150.5300 F   0  0  0  0  0  0  0  0  0  0  0  0
  161.8470  202.7980  151.8680 F   0  0  0  0  0  0  0  0  0  0  0  0
  160.7920  207.0210  148.9830 C   0  0  0  0  0  2  0  0  0  0  0  0
  161.8210  206.8770  147.8700 C   0  0  0  0  0  2  0  0  0  0  0  0
  161.2070  206.4550  146.6870 O   0  0  0  0  0  0  0  0  0  0  0  0
  162.1930  205.7450  145.9970 C   0  0  0  0  0  3  0  0  0  0  0  0
  161.4450  203.4550  146.7190 C   0  0  0  0  0  2  0  0  0  0  0  0
  161.6960  205.3880  144.5950 C   0  0  0  0  0  2  0  0  0  0  0  0
  162.5790  204.4800  146.7690 C   0  0  0  0  0  2  0  0  0  0  0  0
  161.1350  203.1200  145.3300 N   0  0  0  0  0  2  0  0  0  0  0  0
  160.6100  204.3150  144.6730 C   0  0  0  0  0  2  0  0  0  0  0  0
  161.3930  206.9780  152.4970 C   0  0  0  0  0  2  0  0  0  0  0  0
  160.8350  208.2560  152.4650 O   0  0  0  0  0  0  0  0  0  0  0  0
  161.8910  209.0980  152.1090 C   0  0  0  0  0  2  0  0  0  0  0  0
  161.3570  210.3900  151.5110 C   0  0  0  0  0  2  0  0  0  0  0  0
  161.9340  210.6110  150.1280 C   0  0  0  0  0  2  0  0  0  0  0  0
  161.6640  211.9170  149.7150 O   0  0  0  0  0  0  0  0  0  0  0  0
  162.5440  213.0950  146.3960 C   0  0  0  0  0  3  0  0  0  0  0  0
  158.2890  212.6650  146.9560 N   0  0  0  0  0  1  0  0  0  0  0  0
  161.6880  213.0460  145.3380 C   0  0  0  0  0  3  0  0  0  0  0  0
  160.1970  212.9400  145.4910 C   0  0  0  0  0  3  0  0  0  0  0  0
  162.0650  213.1110  147.8380 C   0  0  1  0  0  3  0  0  0  0  0  0
  159.6860  212.7660  146.7090 C   0  0  0  0  0  0  0  0  0  0  0  0
  160.6430  212.7000  147.7410 N   0  0  0  0  0  0  0  0  0  0  0  0
  161.7430  211.8710  148.3240 C   0  0  2  0  0  3  0  0  0  0  0  0
  1 17  1  0  0  0  0
  2  3  2  0  0  0  0
  3  5  1  0  0  0  0
  4  2  2  0  0  0  0
  4  1  1  0  0  0  0
  5  7  1  0  0  0  0
  6  5  1  0  0  0  0
  8  4  1  0  0  0  0
  9  8  1  0  0  0  0
 10  9  1  0  0  0  0
 11 10  1  0  0  0  0
 11 14  1  0  0  0  0
 12 14  1  0  0  0  0
 13 16  1  0  0  0  0
 13 11  1  0  0  0  0
 15 12  1  0  0  0  0
 16 15  1  0  0  0  0
 18 17  1  0  0  0  0
 19 18  1  0  0  0  0
 20 19  1  0  0  0  0
 21 20  1  0  0  0  0
 22 21  1  0  0  0  0
 25 26  1  0  0  0  0
 25 23  2  0  0  0  0
 26 28  2  0  0  0  0
 27 23  1  6  0  0  0
 27 30  1  0  0  0  0
 28 24  1  0  0  0  0
 28 29  1  0  0  0  0
 29 27  1  0  0  0  0
 29 30  1  0  0  0  0
 30 22  1  1  0  0  0
M  END
>  <MODEL>
4

>  <REMARK>
 VINA RESULT:      -7.0      1.234      1.936
  Name = 
  13 active torsions:
  status: ('A' for Active; 'I' for Inactive)
    1  A    between atoms: O_3  and  C_23
    2  A    between atoms: O_3  and  C_26
    3  A    between atoms: O_6  and  C_10
    4  A    between atoms: O_6  and  C_15
    5  A    between atoms: C_8  and  O_9
    6  A    between atoms: O_9  and  C_18
    7  A    between atoms: C_10  and  C_21
    8  A    between atoms: C_12  and  C_15
    9  A    between atoms: C_12  and  C_30
   10  A    between atoms: C_18  and  C_22
   11  A    between atoms: C_21  and  C_23
   12  A    between atoms: C_22  and  C_30
   13  A    between atoms: C_24  and  C_29
                            x       y       z     vdW  Elec       q    Type
                         _______ _______ _______ _____ _____    ______ ____

>  <TORSDO>
F 13

$$$$
=
 OpenBabel11052410533D

 30 32  0  0  1  0  0  0  0  0999 V2000
  161.2250  207.3980  151.7250 C   0  0  0  0  0  2  0  0  0  0  0  0
  160.7280  205.3790  150.4720 C   0  0  0  0  0  0  0  0  0  0  0  0
  160.4970  204.0950  150.5000 C   0  0  0  0  0  3  0  0  0  0  0  0
  160.9540  206.6650  150.4510 C   0  0  0  0  0  0  0  0  0  0  0  0
  161.2900  203.2030  151.3890 C   0  0  0  0  0  3  0  0  0  0  0  0
  161.2820  201.9200  150.8770 F   0  0  0  0  0  0  0  0  0  0  0  0
  160.7430  203.1910  152.6600 F   0  0  0  0  0  0  0  0  0  0  0  0
  161.1370  207.3580  149.1430 C   0  0  0  0  0  2  0  0  0  0  0  0
  162.4090  206.8970  148.4440 C   0  0  0  0  0  2  0  0  0  0  0  0
  162.1870  206.7510  147.0710 O   0  0  0  0  0  0  0  0  0  0  0  0
  161.0950  205.8840  146.9680 C   0  0  0  0  0  3  0  0  0  0  0  0
  161.0710  205.7660  144.4560 C   0  0  0  0  0  2  0  0  0  0  0  0
  161.5790  204.4320  146.9620 C   0  0  0  0  0  2  0  0  0  0  0  0
  160.2900  206.1890  145.7020 C   0  0  0  0  0  2  0  0  0  0  0  0
  161.3820  204.3390  144.5220 N   0  0  0  0  0  2  0  0  0  0  0  0
  162.2890  204.1150  145.6460 C   0  0  0  0  0  2  0  0  0  0  0  0
  162.1470  206.5910  152.6190 C   0  0  0  0  0  2  0  0  0  0  0  0
  161.4690  206.2390  153.7850 O   0  0  0  0  0  0  0  0  0  0  0  0
  160.8180  207.4090  154.1860 C   0  0  0  0  0  2  0  0  0  0  0  0
  161.1900  207.7550  155.6190 C   0  0  0  0  0  2  0  0  0  0  0  0
  161.5160  209.2300  155.7390 C   0  0  0  0  0  2  0  0  0  0  0  0
  161.4040  209.8340  154.4860 O   0  0  0  0  0  0  0  0  0  0  0  0
  158.7960  212.1450  155.5050 C   0  0  0  0  0  3  0  0  0  0  0  0
  159.9950  212.6660  151.3950 N   0  0  0  0  0  1  0  0  0  0  0  0
  158.4970  213.2800  154.8150 C   0  0  0  0  0  3  0  0  0  0  0  0
  158.8570  213.4830  153.3700 C   0  0  0  0  0  3  0  0  0  0  0  0
  159.4720  210.9470  154.8600 C   0  0  1  0  0  3  0  0  0  0  0  0
  159.6100  212.5680  152.7610 C   0  0  0  0  0  0  0  0  0  0  0  0
  159.9870  211.4830  153.5760 N   0  0  0  0  0  0  0  0  0  0  0  0
  160.8310  211.0780  154.7430 C   0  0  2  0  0  3  0  0  0  0  0  0
  1 17  1  0  0  0  0
  2  3  2  0  0  0  0
  3  5  1  0  0  0  0
  4  2  2  0  0  0  0
  4  1  1  0  0  0  0
  5  7  1  0  0  0  0
  6  5  1  0  0  0  0
  8  4  1  0  0  0  0
  9  8  1  0  0  0  0
 10  9  1  0  0  0  0
 11 10  1  0  0  0  0
 12 15  1  0  0  0  0
 12 14  1  0  0  0  0
 13 11  1  0  0  0  0
 14 11  1  0  0  0  0
 15 16  1  0  0  0  0
 16 13  1  0  0  0  0
 17 18  1  0  0  0  0
 18 19  1  0  0  0  0
 19 20  1  0  0  0  0
 20 21  1  0  0  0  0
 22 21  1  0  0  0  0
 24 28  1  0  0  0  0
 25 23  2  0  0  0  0
 26 25  1  0  0  0  0
 27 23  1  1  0  0  0
 28 26  2  0  0  0  0
 28 29  1  0  0  0  0
 29 30  1  0  0  0  0
 29 27  1  0  0  0  0
 30 22  1  6  0  0  0
 30 27  1  0  0  0  0
M  END
>  <MODEL>
5

>  <REMARK>
 VINA RESULT:      -6.9      3.522      4.837
  Name = 
  13 active torsions:
  status: ('A' for Active; 'I' for Inactive)
    1  A    between atoms: O_3  and  C_23
    2  A    between atoms: O_3  and  C_26
    3  A    between atoms: O_6  and  C_10
    4  A    between atoms: O_6  and  C_15
    5  A    between atoms: C_8  and  O_9
    6  A    between atoms: O_9  and  C_18
    7  A    between atoms: C_10  and  C_21
    8  A    between atoms: C_12  and  C_15
    9  A    between atoms: C_12  and  C_30
   10  A    between atoms: C_18  and  C_22
   11  A    between atoms: C_21  and  C_23
   12  A    between atoms: C_22  and  C_30
   13  A    between atoms: C_24  and  C_29
                            x       y       z     vdW  Elec       q    Type
                         _______ _______ _______ _____ _____    ______ ____

>  <TORSDO>
F 13

$$$$
=
 OpenBabel11052410533D

 30 32  0  0  1  0  0  0  0  0999 V2000
  161.2620  208.2630  151.9210 C   0  0  0  0  0  2  0  0  0  0  0  0
  161.4220  205.9010  152.4530 C   0  0  0  0  0  0  0  0  0  0  0  0
  161.6000  204.6830  152.0180 C   0  0  0  0  0  3  0  0  0  0  0  0
  161.2500  207.1220  152.8840 C   0  0  0  0  0  0  0  0  0  0  0  0
  160.9560  204.2300  150.7540 C   0  0  0  0  0  3  0  0  0  0  0  0
  160.4900  205.3280  150.0580 F   0  0  0  0  0  0  0  0  0  0  0  0
  159.8980  203.3850  151.0390 F   0  0  0  0  0  0  0  0  0  0  0  0
  160.8470  207.3510  154.3020 C   0  0  0  0  0  2  0  0  0  0  0  0
  161.0820  208.7960  154.7190 C   0  0  0  0  0  2  0  0  0  0  0  0
  159.8820  209.3910  155.1200 O   0  0  0  0  0  0  0  0  0  0  0  0
  160.1310  210.7660  155.1020 C   0  0  0  0  0  3  0  0  0  0  0  0
  159.0210  211.2210  152.8920 C   0  0  0  0  0  2  0  0  0  0  0  0
  158.9710  211.5160  155.7590 C   0  0  0  0  0  2  0  0  0  0  0  0
  160.3400  211.2510  153.6640 C   0  0  0  0  0  2  0  0  0  0  0  0
  158.0280  212.0570  153.5650 N   0  0  0  0  0  2  0  0  0  0  0  0
  157.7310  211.4650  154.8670 C   0  0  0  0  0  2  0  0  0  0  0  0
  162.3120  208.0460  150.8480 C   0  0  0  0  0  2  0  0  0  0  0  0
  161.8880  208.6390  149.6590 O   0  0  0  0  0  0  0  0  0  0  0  0
  162.4480  207.8530  148.6480 C   0  0  0  0  0  2  0  0  0  0  0  0
  161.3560  207.2820  147.7590 C   0  0  0  0  0  2  0  0  0  0  0  0
  161.9260  206.2210  146.8380 C   0  0  0  0  0  2  0  0  0  0  0  0
  162.4250  205.1640  147.5990 O   0  0  0  0  0  0  0  0  0  0  0  0
  160.7690  203.0440  145.1610 C   0  0  0  0  0  3  0  0  0  0  0  0
  161.1020  201.1990  149.0460 N   0  0  0  0  0  1  0  0  0  0  0  0
  160.6120  201.7010  145.3280 C   0  0  0  0  0  3  0  0  0  0  0  0
  160.6770  201.0250  146.6680 C   0  0  0  0  0  3  0  0  0  0  0  0
  160.9640  203.9980  146.3280 C   0  0  1  0  0  3  0  0  0  0  0  0
  161.0220  201.7460  147.7350 C   0  0  0  0  0  0  0  0  0  0  0  0
  161.2930  203.1010  147.4640 N   0  0  0  0  0  0  0  0  0  0  0  0
  162.2510  204.0370  146.7970 C   0  0  2  0  0  3  0  0  0  0  0  0
  1  4  1  0  0  0  0
  2  4  2  0  0  0  0
  3  2  2  0  0  0  0
  4  8  1  0  0  0  0
  5  7  1  0  0  0  0
  5  3  1  0  0  0  0
  6  5  1  0  0  0  0
  8  9  1  0  0  0  0
  9 10  1  0  0  0  0
 11 10  1  0  0  0  0
 11 13  1  0  0  0  0
 12 15  1  0  0  0  0
 12 14  1  0  0  0  0
 14 11  1  0  0  0  0
 15 16  1  0  0  0  0
 16 13  1  0  0  0  0
 17  1  1  0  0  0  0
 18 17  1  0  0  0  0
 19 18  1  0  0  0  0
 20 19  1  0  0  0  0
 21 22  1  0  0  0  0
 21 20  1  0  0  0  0
 23 25  2  0  0  0  0
 25 26  1  0  0  0  0
 26 28  2  0  0  0  0
 27 23  1  6  0  0  0
 27 30  1  0  0  0  0
 27 29  1  0  0  0  0
 28 24  1  0  0  0  0
 29 28  1  0  0  0  0
 30 29  1  0  0  0  0
 30 22  1  1  0  0  0
M  END
>  <MODEL>
6

>  <REMARK>
 VINA RESULT:      -6.9      3.626      8.040
  Name = 
  13 active torsions:
  status: ('A' for Active; 'I' for Inactive)
    1  A    between atoms: O_3  and  C_23
    2  A    between atoms: O_3  and  C_26
    3  A    between atoms: O_6  and  C_10
    4  A    between atoms: O_6  and  C_15
    5  A    between atoms: C_8  and  O_9
    6  A    between atoms: O_9  and  C_18
    7  A    between atoms: C_10  and  C_21
    8  A    between atoms: C_12  and  C_15
    9  A    between atoms: C_12  and  C_30
   10  A    between atoms: C_18  and  C_22
   11  A    between atoms: C_21  and  C_23
   12  A    between atoms: C_22  and  C_30
   13  A    between atoms: C_24  and  C_29
                            x       y       z     vdW  Elec       q    Type
                         _______ _______ _______ _____ _____    ______ ____

>  <TORSDO>
F 13

$$$$
=
 OpenBabel11052410533D

 30 32  0  0  1  0  0  0  0  0999 V2000
  161.5480  208.1420  149.2500 C   0  0  0  0  0  2  0  0  0  0  0  0
  162.3230  207.1580  151.3290 C   0  0  0  0  0  0  0  0  0  0  0  0
  162.5140  206.0740  152.0310 C   0  0  0  0  0  3  0  0  0  0  0  0
  162.1350  208.2390  150.6200 C   0  0  0  0  0  0  0  0  0  0  0  0
  161.4960  204.9880  152.0380 C   0  0  0  0  0  3  0  0  0  0  0  0
  160.4690  205.3170  151.1740 F   0  0  0  0  0  0  0  0  0  0  0  0
  160.9860  204.8250  153.3140 F   0  0  0  0  0  0  0  0  0  0  0  0
  162.3200  209.5760  151.2560 C   0  0  0  0  0  2  0  0  0  0  0  0
  161.3210  209.7980  152.3830 C   0  0  0  0  0  2  0  0  0  0  0  0
  161.9750  210.2520  153.5330 O   0  0  0  0  0  0  0  0  0  0  0  0
  160.9810  210.3240  154.5130 C   0  0  0  0  0  3  0  0  0  0  0  0
  161.4980  208.1120  155.5940 C   0  0  0  0  0  2  0  0  0  0  0  0
  161.5370  210.9900  155.7730 C   0  0  0  0  0  2  0  0  0  0  0  0
  160.4480  208.9240  154.8340 C   0  0  0  0  0  2  0  0  0  0  0  0
  161.8690  208.8040  156.8270 N   0  0  0  0  0  2  0  0  0  0  0  0
  162.5270  210.0600  156.4730 C   0  0  0  0  0  2  0  0  0  0  0  0
  162.5290  207.4880  148.2950 C   0  0  0  0  0  2  0  0  0  0  0  0
  162.0810  206.2050  147.9790 O   0  0  0  0  0  0  0  0  0  0  0  0
  161.9550  206.2040  146.5870 C   0  0  0  0  0  2  0  0  0  0  0  0
  162.2520  204.8210  146.0320 C   0  0  0  0  0  2  0  0  0  0  0  0
  161.4500  204.5730  144.7700 C   0  0  0  0  0  2  0  0  0  0  0  0
  160.4960  203.5850  145.0130 O   0  0  0  0  0  0  0  0  0  0  0  0
  161.2070  200.1670  146.0100 C   0  0  0  0  0  3  0  0  0  0  0  0
  160.4850  202.7820  149.3630 N   0  0  0  0  0  1  0  0  0  0  0  0
  161.5780  199.8230  147.2740 C   0  0  0  0  0  3  0  0  0  0  0  0
  161.3060  200.6850  148.4750 C   0  0  0  0  0  3  0  0  0  0  0  0
  160.4240  201.4330  145.7010 C   0  0  1  0  0  3  0  0  0  0  0  0
  160.7860  201.8980  148.2910 C   0  0  0  0  0  0  0  0  0  0  0  0
  160.5460  202.2340  146.9440 N   0  0  0  0  0  0  0  0  0  0  0  0
  161.2020  202.5590  145.6390 C   0  0  2  0  0  3  0  0  0  0  0  0
  1  4  1  0  0  0  0
  2  3  2  0  0  0  0
  3  5  1  0  0  0  0
  4  8  1  0  0  0  0
  4  2  2  0  0  0  0
  5  7  1  0  0  0  0
  6  5  1  0  0  0  0
  8  9  1  0  0  0  0
  9 10  1  0  0  0  0
 10 11  1  0  0  0  0
 11 14  1  0  0  0  0
 11 13  1  0  0  0  0
 12 15  1  0  0  0  0
 13 16  1  0  0  0  0
 14 12  1  0  0  0  0
 16 15  1  0  0  0  0
 17  1  1  0  0  0  0
 18 17  1  0  0  0  0
 19 18  1  0  0  0  0
 20 19  1  0  0  0  0
 21 22  1  0  0  0  0
 21 20  1  0  0  0  0
 23 25  2  0  0  0  0
 25 26  1  0  0  0  0
 27 23  1  1  0  0  0
 27 29  1  0  0  0  0
 28 26  2  0  0  0  0
 28 24  1  0  0  0  0
 29 28  1  0  0  0  0
 30 22  1  6  0  0  0
 30 27  1  0  0  0  0
 30 29  1  0  0  0  0
M  END
>  <MODEL>
7

>  <REMARK>
 VINA RESULT:      -6.9      4.340      8.689
  Name = 
  13 active torsions:
  status: ('A' for Active; 'I' for Inactive)
    1  A    between atoms: O_3  and  C_23
    2  A    between atoms: O_3  and  C_26
    3  A    between atoms: O_6  and  C_10
    4  A    between atoms: O_6  and  C_15
    5  A    between atoms: C_8  and  O_9
    6  A    between atoms: O_9  and  C_18
    7  A    between atoms: C_10  and  C_21
    8  A    between atoms: C_12  and  C_15
    9  A    between atoms: C_12  and  C_30
   10  A    between atoms: C_18  and  C_22
   11  A    between atoms: C_21  and  C_23
   12  A    between atoms: C_22  and  C_30
   13  A    between atoms: C_24  and  C_29
                            x       y       z     vdW  Elec       q    Type
                         _______ _______ _______ _____ _____    ______ ____

>  <TORSDO>
F 13

$$$$
=
 OpenBabel11052410533D

 30 32  0  0  1  0  0  0  0  0999 V2000
  161.3610  204.5050  151.6680 C   0  0  0  0  0  2  0  0  0  0  0  0
  160.4160  203.2830  149.7950 C   0  0  0  0  0  0  0  0  0  0  0  0
  160.0880  202.1260  149.2890 C   0  0  0  0  0  3  0  0  0  0  0  0
  160.7410  204.4390  150.3100 C   0  0  0  0  0  0  0  0  0  0  0  0
  160.9860  200.9490  149.4460 C   0  0  0  0  0  3  0  0  0  0  0  0
  161.7570  201.1100  150.5810 F   0  0  0  0  0  0  0  0  0  0  0  0
  161.8140  200.8350  148.3430 F   0  0  0  0  0  0  0  0  0  0  0  0
  160.6750  205.6650  149.4640 C   0  0  0  0  0  2  0  0  0  0  0  0
  161.6650  205.5970  148.3090 C   0  0  0  0  0  2  0  0  0  0  0  0
  161.1210  206.1820  147.1620 O   0  0  0  0  0  0  0  0  0  0  0  0
  161.9910  205.8320  146.1260 C   0  0  0  0  0  3  0  0  0  0  0  0
  161.5750  203.3540  146.2380 C   0  0  0  0  0  2  0  0  0  0  0  0
  161.2410  205.8260  144.7930 C   0  0  0  0  0  2  0  0  0  0  0  0
  162.6180  204.4610  146.3970 C   0  0  0  0  0  2  0  0  0  0  0  0
  161.0090  203.3900  144.8910 N   0  0  0  0  0  2  0  0  0  0  0  0
  160.2750  204.6430  144.7310 C   0  0  0  0  0  2  0  0  0  0  0  0
  161.9960  205.8630  151.8980 C   0  0  0  0  0  2  0  0  0  0  0  0
  161.9370  206.1760  153.2560 O   0  0  0  0  0  0  0  0  0  0  0  0
  160.9270  207.1380  153.3570 C   0  0  0  0  0  2  0  0  0  0  0  0
  161.0520  208.1530  152.2320 C   0  0  0  0  0  2  0  0  0  0  0  0
  161.5260  209.4870  152.7740 C   0  0  0  0  0  2  0  0  0  0  0  0
  160.6380  209.9310  153.7540 O   0  0  0  0  0  0  0  0  0  0  0  0
  159.3510  212.9240  152.1500 C   0  0  0  0  0  3  0  0  0  0  0  0
  156.9640  211.6560  155.5110 N   0  0  0  0  0  1  0  0  0  0  0  0
  158.0800  213.3770  152.3310 C   0  0  0  0  0  3  0  0  0  0  0  0
  157.2310  212.9940  153.5100 C   0  0  0  0  0  3  0  0  0  0  0  0
  160.0570  212.0340  153.1600 C   0  0  1  0  0  3  0  0  0  0  0  0
  157.6880  212.0770  154.3620 C   0  0  0  0  0  0  0  0  0  0  0  0
  158.9590  211.5610  154.0390 N   0  0  0  0  0  0  0  0  0  0  0  0
  159.7120  210.7120  153.0640 C   0  0  2  0  0  3  0  0  0  0  0  0
  1 17  1  0  0  0  0
  2  4  2  0  0  0  0
  3  5  1  0  0  0  0
  3  2  2  0  0  0  0
  4  1  1  0  0  0  0
  5  6  1  0  0  0  0
  7  5  1  0  0  0  0
  8  4  1  0  0  0  0
  9  8  1  0  0  0  0
 10  9  1  0  0  0  0
 11 14  1  0  0  0  0
 11 10  1  0  0  0  0
 12 14  1  0  0  0  0
 13 11  1  0  0  0  0
 15 12  1  0  0  0  0
 16 13  1  0  0  0  0
 16 15  1  0  0  0  0
 17 18  1  0  0  0  0
 18 19  1  0  0  0  0
 20 21  1  0  0  0  0
 20 19  1  0  0  0  0
 21 22  1  0  0  0  0
 23 25  2  0  0  0  0
 25 26  1  0  0  0  0
 26 28  2  0  0  0  0
 27 23  1  6  0  0  0
 27 29  1  0  0  0  0
 28 24  1  0  0  0  0
 29 28  1  0  0  0  0
 30 27  1  0  0  0  0
 30 22  1  1  0  0  0
 30 29  1  0  0  0  0
M  END
>  <MODEL>
8

>  <REMARK>
 VINA RESULT:      -6.8      3.792      4.465
  Name = 
  13 active torsions:
  status: ('A' for Active; 'I' for Inactive)
    1  A    between atoms: O_3  and  C_23
    2  A    between atoms: O_3  and  C_26
    3  A    between atoms: O_6  and  C_10
    4  A    between atoms: O_6  and  C_15
    5  A    between atoms: C_8  and  O_9
    6  A    between atoms: O_9  and  C_18
    7  A    between atoms: C_10  and  C_21
    8  A    between atoms: C_12  and  C_15
    9  A    between atoms: C_12  and  C_30
   10  A    between atoms: C_18  and  C_22
   11  A    between atoms: C_21  and  C_23
   12  A    between atoms: C_22  and  C_30
   13  A    between atoms: C_24  and  C_29
                            x       y       z     vdW  Elec       q    Type
                         _______ _______ _______ _____ _____    ______ ____

>  <TORSDO>
F 13

$$$$
=
 OpenBabel11052410533D

 30 32  0  0  1  0  0  0  0  0999 V2000
  161.0930  205.1110  152.8000 C   0  0  0  0  0  2  0  0  0  0  0  0
  161.9930  206.4930  151.0190 C   0  0  0  0  0  0  0  0  0  0  0  0
  162.4540  207.6590  150.6560 C   0  0  0  0  0  3  0  0  0  0  0  0
  161.5360  205.3270  151.3900 C   0  0  0  0  0  0  0  0  0  0  0  0
  161.8070  208.9110  151.1360 C   0  0  0  0  0  3  0  0  0  0  0  0
  162.3910  209.3030  152.3250 F   0  0  0  0  0  0  0  0  0  0  0  0
  160.4550  208.6980  151.3390 F   0  0  0  0  0  0  0  0  0  0  0  0
  161.2750  204.2790  150.3610 C   0  0  0  0  0  2  0  0  0  0  0  0
  160.6370  204.8740  149.1130 C   0  0  0  0  0  2  0  0  0  0  0  0
  161.1880  204.3020  147.9620 O   0  0  0  0  0  0  0  0  0  0  0  0
  162.0180  205.2900  147.4250 C   0  0  0  0  0  3  0  0  0  0  0  0
  162.1260  204.3290  145.1030 C   0  0  0  0  0  2  0  0  0  0  0  0
  161.1720  206.4230  146.8400 C   0  0  0  0  0  2  0  0  0  0  0  0
  162.9320  204.6910  146.3510 C   0  0  0  0  0  2  0  0  0  0  0  0
  161.4500  205.5150  144.5820 N   0  0  0  0  0  2  0  0  0  0  0  0
  160.4650  205.9560  145.5680 C   0  0  0  0  0  2  0  0  0  0  0  0
  161.5850  206.2350  153.6920 C   0  0  0  0  0  2  0  0  0  0  0  0
  160.5190  206.7290  154.4430 O   0  0  0  0  0  0  0  0  0  0  0  0
  161.1080  207.5820  155.3810 C   0  0  0  0  0  2  0  0  0  0  0  0
  160.0690  208.0650  156.3800 C   0  0  0  0  0  2  0  0  0  0  0  0
  160.4820  209.3990  156.9700 C   0  0  0  0  0  2  0  0  0  0  0  0
  159.4730  210.3360  156.7490 O   0  0  0  0  0  0  0  0  0  0  0  0
  160.4480  211.5080  153.4540 C   0  0  0  0  0  3  0  0  0  0  0  0
  156.4660  212.7340  154.5650 N   0  0  0  0  0  1  0  0  0  0  0  0
  159.5540  211.9480  152.5260 C   0  0  0  0  0  3  0  0  0  0  0  0
  158.1730  212.4250  152.8760 C   0  0  0  0  0  3  0  0  0  0  0  0
  160.1540  211.5160  154.9440 C   0  0  1  0  0  3  0  0  0  0  0  0
  157.7510  212.3040  154.1340 C   0  0  0  0  0  0  0  0  0  0  0  0
  158.6870  211.7230  155.0120 N   0  0  0  0  0  0  0  0  0  0  0  0
  159.3970  210.4530  155.3620 C   0  0  2  0  0  3  0  0  0  0  0  0
  1 17  1  0  0  0  0
  2  4  2  0  0  0  0
  3  2  2  0  0  0  0
  3  5  1  0  0  0  0
  4  1  1  0  0  0  0
  5  7  1  0  0  0  0
  5  6  1  0  0  0  0
  8  4  1  0  0  0  0
  9  8  1  0  0  0  0
 10  9  1  0  0  0  0
 11 10  1  0  0  0  0
 12 14  1  0  0  0  0
 13 11  1  0  0  0  0
 14 11  1  0  0  0  0
 15 12  1  0  0  0  0
 15 16  1  0  0  0  0
 16 13  1  0  0  0  0
 17 18  1  0  0  0  0
 18 19  1  0  0  0  0
 19 20  1  0  0  0  0
 20 21  1  0  0  0  0
 22 21  1  0  0  0  0
 25 26  1  0  0  0  0
 25 23  2  0  0  0  0
 26 28  2  0  0  0  0
 27 23  1  6  0  0  0
 27 29  1  0  0  0  0
 27 30  1  0  0  0  0
 28 24  1  0  0  0  0
 28 29  1  0  0  0  0
 29 30  1  0  0  0  0
 30 22  1  1  0  0  0
M  END
>  <MODEL>
9

>  <REMARK>
 VINA RESULT:      -6.7      4.328      5.641
  Name = 
  13 active torsions:
  status: ('A' for Active; 'I' for Inactive)
    1  A    between atoms: O_3  and  C_23
    2  A    between atoms: O_3  and  C_26
    3  A    between atoms: O_6  and  C_10
    4  A    between atoms: O_6  and  C_15
    5  A    between atoms: C_8  and  O_9
    6  A    between atoms: O_9  and  C_18
    7  A    between atoms: C_10  and  C_21
    8  A    between atoms: C_12  and  C_15
    9  A    between atoms: C_12  and  C_30
   10  A    between atoms: C_18  and  C_22
   11  A    between atoms: C_21  and  C_23
   12  A    between atoms: C_22  and  C_30
   13  A    between atoms: C_24  and  C_29
                            x       y       z     vdW  Elec       q    Type
                         _______ _______ _______ _____ _____    ______ ____

>  <TORSDO>
F 13

$$$$
