=
 OpenBabel11052411273D

 43 46  0  0  1  0  0  0  0  0999 V2000
  161.1210  209.6230  153.0870 C   0  0  2  0  0  3  0  0  0  0  0  0
  161.7440  210.7110  152.2280 C   0  0  0  0  0  2  0  0  0  0  0  0
  160.7950  208.4900  152.2180 N   0  0  0  0  0  0  0  0  0  0  0  0
  162.3040  209.9440  151.0620 C   0  0  1  0  0  3  0  0  0  0  0  0
  161.3350  208.7990  150.8910 C   0  0  0  0  0  2  0  0  0  0  0  0
  159.1320  211.9400  155.4450 C   0  0  2  0  0  0  0  0  0  0  0  0
  160.4740  209.9000  156.2290 C   0  0  0  0  0  1  0  0  0  0  0  0
  160.2120  210.8910  155.0940 C   0  0  1  0  0  3  0  0  0  0  0  0
  156.7860  212.3660  155.7340 C   0  0  0  0  0  2  0  0  0  0  0  0
  158.8990  210.8620  152.8440 C   0  0  0  0  0  2  0  0  0  0  0  0
  157.7480  211.4300  155.0410 C   0  0  2  0  0  0  0  0  0  0  0  0
  157.5250  210.1550  155.5450 F   0  0  0  0  0  0  0  0  0  0  0  0
  159.5030  213.2440  154.7300 C   0  0  0  0  0  1  0  0  0  0  0  0
  157.6030  211.3750  153.5200 C   0  0  0  0  0  2  0  0  0  0  0  0
  157.4820  212.7130  157.0510 C   0  0  2  0  0  3  0  0  0  0  0  0
  159.8590  210.1130  153.8010 C   0  0  1  0  0  3  0  0  0  0  0  0
  157.4120  214.0940  157.2590 O   0  0  0  0  0  1  0  0  0  0  0  0
  158.9520  212.2820  156.9190 C   0  0  0  0  0  2  0  0  0  0  0  0
  162.3500  210.7650  149.8500 C   0  0  0  0  0  0  0  0  0  0  0  0
  162.4360  211.4310  148.8520 C   0  0  0  0  0  0  0  0  0  0  0  0
  162.5910  212.2230  147.6270 C   0  0  0  0  0  2  0  0  0  0  0  0
  160.3970  213.0450  148.0000 O   0  0  0  0  0  0  0  0  0  0  0  0
  161.2550  212.6910  147.1500 C   0  0  0  0  0  0  0  0  0  0  0  0
  160.9230  212.7430  145.7120 C   0  0  0  0  0  0  0  0  0  0  0  0
  161.4210  213.4530  143.3580 C   0  0  0  0  0  0  0  0  0  0  0  0
  160.0790  212.9760  143.0050 C   0  0  0  0  0  0  0  0  0  0  0  0
  159.2980  212.4610  143.9470 C   0  0  0  0  0  3  0  0  0  0  0  0
  162.1460  214.0120  142.4840 O   0  0  0  0  0  0  0  0  0  0  0  0
  159.5720  213.0720  141.6080 C   0  0  0  0  0  1  0  0  0  0  0  0
  159.7360  212.3810  145.3080 N   0  0  0  0  0  0  0  0  0  0  0  0
  161.9680  213.2340  144.7390 C   0  0  0  0  0  2  0  0  0  0  0  0
  160.5570  206.7770  153.8140 O   0  0  0  0  0  1  0  0  0  0  0  0
  161.3630  207.2490  152.7760 C   0  0  1  0  0  3  0  0  0  0  0  0
  162.7650  205.7280  151.6260 O   0  0  0  0  0  0  0  0  0  0  0  0
  161.6310  206.1630  151.7560 C   0  0  0  0  0  0  0  0  0  0  0  0
  160.5340  205.6240  150.8830 C   0  0  0  0  0  2  0  0  0  0  0  0
  161.0680  203.4700  149.6930 C   0  0  0  0  0  0  0  0  0  0  0  0
  160.5200  202.6650  150.8250 C   0  0  0  0  0  1  0  0  0  0  0  0
  161.0710  204.9050  149.7330 N   0  0  0  0  0  0  0  0  0  0  0  0
  161.5370  202.8640  148.6920 O   0  0  0  0  0  0  0  0  0  0  0  0
  161.6030  205.6720  148.6120 C   0  0  0  0  0  2  0  0  0  0  0  0
  160.4730  206.4110  147.9080 C   0  0  0  0  0  2  0  0  0  0  0  0
  160.7640  206.4720  146.4220 C   0  0  0  0  0  1  0  0  0  0  0  0
  1  2  1  6  0  0  0
  1 16  1  0  0  0  0
  3 33  1  0  0  0  0
  3  1  1  0  0  0  0
  4 19  1  6  0  0  0
  4  2  1  0  0  0  0
  5  4  1  0  0  0  0
  5  3  1  0  0  0  0
  6 13  1  6  0  0  0
  6 18  1  0  0  0  0
  8  6  1  0  0  0  0
  8  7  1  1  0  0  0
  9 15  1  0  0  0  0
 10 14  1  0  0  0  0
 11  6  1  0  0  0  0
 11 12  1  1  0  0  0
 11  9  1  0  0  0  0
 14 11  1  0  0  0  0
 15 17  1  6  0  0  0
 16 10  1  6  0  0  0
 16  8  1  0  0  0  0
 18 15  1  0  0  0  0
 20 19  3  0  0  0  0
 21 20  1  0  0  0  0
 23 21  1  0  0  0  0
 23 22  2  0  0  0  0
 24 23  1  0  0  0  0
 25 31  1  0  0  0  0
 26 25  1  0  0  0  0
 26 27  2  0  0  0  0
 27 30  1  0  0  0  0
 28 25  2  0  0  0  0
 29 26  1  0  0  0  0
 30 24  2  0  0  0  0
 31 24  1  0  0  0  0
 33 32  1  1  0  0  0
 34 35  2  0  0  0  0
 35 33  1  0  0  0  0
 36 35  1  0  0  0  0
 37 39  1  0  0  0  0
 37 38  1  0  0  0  0
 39 36  1  0  0  0  0
 40 37  2  0  0  0  0
 41 39  1  0  0  0  0
 42 41  1  0  0  0  0
 43 42  1  0  0  0  0
M  END
>  <MODEL>
1

>  <REMARK>
 VINA RESULT:      -6.6      0.000      0.000
  Name = 
  11 active torsions:
  status: ('A' for Active; 'I' for Inactive)
    1  A    between atoms: C_1  and  C_38
    2  A    between atoms: C_4  and  C_33
    3  A    between atoms: C_5  and  C_35
    4  A    between atoms: C_5  and  C_38
    5  A    between atoms: C_9  and  C_30
    6  A    between atoms: N_20  and  C_37
    7  A    between atoms: C_22  and  C_37
    8  A    between atoms: C_22  and  C_40
    9  A    between atoms: C_24  and  N_27
   10  A    between atoms: C_24  and  C_29
   11  A    between atoms: N_27  and  C_40
                            x       y       z     vdW  Elec       q    Type
                         _______ _______ _______ _____ _____    ______ ____

>  <TORSDO>
F 11

$$$$
=
 OpenBabel11052411273D

 43 46  0  0  1  0  0  0  0  0999 V2000
  162.4990  209.1710  151.5600 C   0  0  2  0  0  3  0  0  0  0  0  0
  162.5570  210.6260  151.1250 C   0  0  0  0  0  2  0  0  0  0  0  0
  161.7010  208.4350  150.5770 N   0  0  0  0  0  0  0  0  0  0  0  0
  162.3290  210.5460  149.6400 C   0  0  1  0  0  3  0  0  0  0  0  0
  161.4000  209.3660  149.4860 C   0  0  0  0  0  2  0  0  0  0  0  0
  160.6370  210.4170  154.7010 C   0  0  2  0  0  0  0  0  0  0  0  0
  163.1560  210.7020  154.3150 C   0  0  0  0  0  1  0  0  0  0  0  0
  161.8010  210.3810  153.6840 C   0  0  1  0  0  3  0  0  0  0  0  0
  159.5360  209.2880  156.5130 C   0  0  0  0  0  2  0  0  0  0  0  0
  160.5510  208.2260  152.9190 C   0  0  0  0  0  2  0  0  0  0  0  0
  160.4380  209.0360  155.3280 C   0  0  2  0  0  0  0  0  0  0  0  0
  161.6400  208.5390  155.8160 F   0  0  0  0  0  0  0  0  0  0  0  0
  159.3870  210.9020  153.9580 C   0  0  0  0  0  1  0  0  0  0  0  0
  159.8890  208.0400  154.3060 C   0  0  0  0  0  2  0  0  0  0  0  0
  159.9580  210.6690  157.0190 C   0  0  2  0  0  3  0  0  0  0  0  0
  161.8830  209.0170  152.9530 C   0  0  1  0  0  3  0  0  0  0  0  0
  158.8160  211.4400  157.2550 O   0  0  0  0  0  1  0  0  0  0  0  0
  160.8060  211.3220  155.9150 C   0  0  0  0  0  2  0  0  0  0  0  0
  161.7040  211.7650  149.1250 C   0  0  0  0  0  0  0  0  0  0  0  0
  161.2000  212.7890  148.7430 C   0  0  0  0  0  0  0  0  0  0  0  0
  160.6080  214.0630  148.3220 C   0  0  0  0  0  2  0  0  0  0  0  0
  158.6250  214.1510  147.0220 O   0  0  0  0  0  0  0  0  0  0  0  0
  159.8530  213.8770  147.0460 C   0  0  0  0  0  0  0  0  0  0  0  0
  160.5150  213.3790  145.8230 C   0  0  0  0  0  0  0  0  0  0  0  0
  162.4840  213.2590  144.2740 C   0  0  0  0  0  0  0  0  0  0  0  0
  161.6130  212.5440  143.3350 C   0  0  0  0  0  0  0  0  0  0  0  0
  160.3470  212.3130  143.6620 C   0  0  0  0  0  3  0  0  0  0  0  0
  163.6710  213.5490  143.9430 O   0  0  0  0  0  0  0  0  0  0  0  0
  162.1210  212.0820  142.0140 C   0  0  0  0  0  1  0  0  0  0  0  0
  159.8110  212.7690  144.9090 N   0  0  0  0  0  0  0  0  0  0  0  0
  161.9970  213.6060  145.6510 C   0  0  0  0  0  2  0  0  0  0  0  0
  163.0120  206.5810  151.1980 O   0  0  0  0  0  1  0  0  0  0  0  0
  162.4470  207.2510  150.1110 C   0  0  1  0  0  3  0  0  0  0  0  0
  161.8580  206.2680  148.0390 O   0  0  0  0  0  0  0  0  0  0  0  0
  161.6470  206.3040  149.2420 C   0  0  0  0  0  0  0  0  0  0  0  0
  160.5810  205.4210  149.8250 C   0  0  0  0  0  2  0  0  0  0  0  0
  161.2650  203.6190  151.4460 C   0  0  0  0  0  0  0  0  0  0  0  0
  160.9420  204.4930  152.6130 C   0  0  0  0  0  1  0  0  0  0  0  0
  161.0870  204.0800  150.0980 N   0  0  0  0  0  0  0  0  0  0  0  0
  161.7040  202.4580  151.6640 O   0  0  0  0  0  0  0  0  0  0  0  0
  161.4000  203.2060  148.9730 C   0  0  0  0  0  2  0  0  0  0  0  0
  160.4070  202.0520  148.9220 C   0  0  0  0  0  2  0  0  0  0  0  0
  161.1080  200.8120  148.4040 C   0  0  0  0  0  1  0  0  0  0  0  0
  1  2  1  6  0  0  0
  1 16  1  0  0  0  0
  3  1  1  0  0  0  0
  4 19  1  1  0  0  0
  4  2  1  0  0  0  0
  5  4  1  0  0  0  0
  5  3  1  0  0  0  0
  6 13  1  6  0  0  0
  6 11  1  0  0  0  0
  6 18  1  0  0  0  0
  8  7  1  1  0  0  0
  8  6  1  0  0  0  0
  9 15  1  0  0  0  0
 10 14  1  0  0  0  0
 11 12  1  1  0  0  0
 11  9  1  0  0  0  0
 14 11  1  0  0  0  0
 15 17  1  6  0  0  0
 16 10  1  6  0  0  0
 16  8  1  0  0  0  0
 18 15  1  0  0  0  0
 20 19  3  0  0  0  0
 21 20  1  0  0  0  0
 22 23  2  0  0  0  0
 23 21  1  0  0  0  0
 24 23  1  0  0  0  0
 25 31  1  0  0  0  0
 26 27  2  0  0  0  0
 26 25  1  0  0  0  0
 27 30  1  0  0  0  0
 28 25  2  0  0  0  0
 29 26  1  0  0  0  0
 30 24  2  0  0  0  0
 31 24  1  0  0  0  0
 33  3  1  0  0  0  0
 33 32  1  1  0  0  0
 34 35  2  0  0  0  0
 35 36  1  0  0  0  0
 35 33  1  0  0  0  0
 36 39  1  0  0  0  0
 37 40  2  0  0  0  0
 37 38  1  0  0  0  0
 39 37  1  0  0  0  0
 41 39  1  0  0  0  0
 42 41  1  0  0  0  0
 43 42  1  0  0  0  0
M  END
>  <MODEL>
2

>  <REMARK>
 VINA RESULT:      -6.1      1.911      2.712
  Name = 
  11 active torsions:
  status: ('A' for Active; 'I' for Inactive)
    1  A    between atoms: C_1  and  C_38
    2  A    between atoms: C_4  and  C_33
    3  A    between atoms: C_5  and  C_35
    4  A    between atoms: C_5  and  C_38
    5  A    between atoms: C_9  and  C_30
    6  A    between atoms: N_20  and  C_37
    7  A    between atoms: C_22  and  C_37
    8  A    between atoms: C_22  and  C_40
    9  A    between atoms: C_24  and  N_27
   10  A    between atoms: C_24  and  C_29
   11  A    between atoms: N_27  and  C_40
                            x       y       z     vdW  Elec       q    Type
                         _______ _______ _______ _____ _____    ______ ____

>  <TORSDO>
F 11

$$$$
=
 OpenBabel11052411273D

 43 46  0  0  1  0  0  0  0  0999 V2000
  161.3490  207.4210  149.4250 C   0  0  2  0  0  3  0  0  0  0  0  0
  161.1970  208.7470  148.6970 C   0  0  0  0  0  2  0  0  0  0  0  0
  162.3250  207.6030  150.5010 N   0  0  0  0  0  0  0  0  0  0  0  0
  161.6030  209.7530  149.7380 C   0  0  1  0  0  3  0  0  0  0  0  0
  162.6570  209.0300  150.5410 C   0  0  0  0  0  2  0  0  0  0  0  0
  160.8210  204.4030  147.0790 C   0  0  2  0  0  0  0  0  0  0  0  0
  160.9760  204.2300  149.6330 C   0  0  0  0  0  1  0  0  0  0  0  0
  160.7750  205.1520  148.4310 C   0  0  1  0  0  3  0  0  0  0  0  0
  162.2120  203.3370  145.4370 C   0  0  0  0  0  2  0  0  0  0  0  0
  162.2400  206.8460  147.0990 C   0  0  0  0  0  2  0  0  0  0  0  0
  162.2540  204.3630  146.5450 C   0  0  2  0  0  0  0  0  0  0  0  0
  163.1290  203.8940  147.5160 F   0  0  0  0  0  0  0  0  0  0  0  0
  159.8630  205.1190  146.1200 C   0  0  0  0  0  1  0  0  0  0  0  0
  162.7200  205.7530  146.1130 C   0  0  0  0  0  2  0  0  0  0  0  0
  161.1960  202.3020  145.9220 C   0  0  2  0  0  3  0  0  0  0  0  0
  161.8110  206.3040  148.4850 C   0  0  1  0  0  3  0  0  0  0  0  0
  160.3170  201.9970  144.8780 O   0  0  0  0  0  1  0  0  0  0  0  0
  160.4190  202.9340  147.0880 C   0  0  0  0  0  2  0  0  0  0  0  0
  162.1590  210.9630  149.1290 C   0  0  0  0  0  0  0  0  0  0  0  0
  162.5720  211.9690  148.6140 C   0  0  0  0  0  0  0  0  0  0  0  0
  163.0220  213.2130  147.9810 C   0  0  0  0  0  2  0  0  0  0  0  0
  161.0440  214.4530  147.5520 O   0  0  0  0  0  0  0  0  0  0  0  0
  161.9580  213.7350  147.0700 C   0  0  0  0  0  0  0  0  0  0  0  0
  161.9580  213.4240  145.6260 C   0  0  0  0  0  0  0  0  0  0  0  0
  160.9310  212.3600  143.6000 C   0  0  0  0  0  0  0  0  0  0  0  0
  162.1690  212.6900  142.8850 C   0  0  0  0  0  0  0  0  0  0  0  0
  163.1510  213.3090  143.5290 C   0  0  0  0  0  3  0  0  0  0  0  0
  160.0170  211.7050  143.0170 O   0  0  0  0  0  0  0  0  0  0  0  0
  162.3480  212.3320  141.4510 C   0  0  0  0  0  1  0  0  0  0  0  0
  163.0310  213.6420  144.9170 N   0  0  0  0  0  0  0  0  0  0  0  0
  160.7120  212.8380  145.0060 C   0  0  0  0  0  2  0  0  0  0  0  0
  162.7120  206.3770  152.4730 O   0  0  0  0  0  1  0  0  0  0  0  0
  161.7600  207.1250  151.7770 C   0  0  1  0  0  3  0  0  0  0  0  0
  160.0890  208.6940  152.3670 O   0  0  0  0  0  0  0  0  0  0  0  0
  161.1740  208.2110  152.6530 C   0  0  0  0  0  0  0  0  0  0  0  0
  161.9100  208.7260  153.8580 C   0  0  0  0  0  2  0  0  0  0  0  0
  160.2230  208.9530  155.7140 C   0  0  0  0  0  0  0  0  0  0  0  0
  160.2160  207.4760  155.9390 C   0  0  0  0  0  1  0  0  0  0  0  0
  161.0470  209.5480  154.7000 N   0  0  0  0  0  0  0  0  0  0  0  0
  159.4830  209.6770  156.4330 O   0  0  0  0  0  0  0  0  0  0  0  0
  161.0460  210.9930  154.5040 C   0  0  0  0  0  2  0  0  0  0  0  0
  159.7650  211.4180  153.7980 C   0  0  0  0  0  2  0  0  0  0  0  0
  160.1190  212.1660  152.5280 C   0  0  0  0  0  1  0  0  0  0  0  0
  1  2  1  6  0  0  0
  1  3  1  0  0  0  0
  2  4  1  0  0  0  0
  3  5  1  0  0  0  0
  3 33  1  0  0  0  0
  4 19  1  6  0  0  0
  4  5  1  0  0  0  0
  6 13  1  6  0  0  0
  6 18  1  0  0  0  0
  6  8  1  0  0  0  0
  8 16  1  0  0  0  0
  8  7  1  1  0  0  0
  9 15  1  0  0  0  0
  9 11  1  0  0  0  0
 11  6  1  0  0  0  0
 11 12  1  1  0  0  0
 14 11  1  0  0  0  0
 14 10  1  0  0  0  0
 15 17  1  6  0  0  0
 15 18  1  0  0  0  0
 16 10  1  6  0  0  0
 16  1  1  0  0  0  0
 20 19  3  0  0  0  0
 21 20  1  0  0  0  0
 23 22  2  0  0  0  0
 23 21  1  0  0  0  0
 24 23  1  0  0  0  0
 25 31  1  0  0  0  0
 26 27  2  0  0  0  0
 26 25  1  0  0  0  0
 27 30  1  0  0  0  0
 28 25  2  0  0  0  0
 29 26  1  0  0  0  0
 30 24  2  0  0  0  0
 31 24  1  0  0  0  0
 33 32  1  1  0  0  0
 33 35  1  0  0  0  0
 34 35  2  0  0  0  0
 35 36  1  0  0  0  0
 36 39  1  0  0  0  0
 37 38  1  0  0  0  0
 37 40  2  0  0  0  0
 39 37  1  0  0  0  0
 41 39  1  0  0  0  0
 42 41  1  0  0  0  0
 43 42  1  0  0  0  0
M  END
>  <MODEL>
3

>  <REMARK>
 VINA RESULT:      -4.9      2.782      7.629
  Name = 
  11 active torsions:
  status: ('A' for Active; 'I' for Inactive)
    1  A    between atoms: C_1  and  C_38
    2  A    between atoms: C_4  and  C_33
    3  A    between atoms: C_5  and  C_35
    4  A    between atoms: C_5  and  C_38
    5  A    between atoms: C_9  and  C_30
    6  A    between atoms: N_20  and  C_37
    7  A    between atoms: C_22  and  C_37
    8  A    between atoms: C_22  and  C_40
    9  A    between atoms: C_24  and  N_27
   10  A    between atoms: C_24  and  C_29
   11  A    between atoms: N_27  and  C_40
                            x       y       z     vdW  Elec       q    Type
                         _______ _______ _______ _____ _____    ______ ____

>  <TORSDO>
F 11

$$$$
=
 OpenBabel11052411273D

 43 46  0  0  1  0  0  0  0  0999 V2000
  162.0840  210.4030  150.7810 C   0  0  2  0  0  3  0  0  0  0  0  0
  162.3350  209.2050  149.8810 C   0  0  0  0  0  2  0  0  0  0  0  0
  161.0090  210.0530  151.7130 N   0  0  0  0  0  0  0  0  0  0  0  0
  161.8480  208.0490  150.7110 C   0  0  1  0  0  3  0  0  0  0  0  0
  160.7050  208.6350  151.5030 C   0  0  0  0  0  2  0  0  0  0  0  0
  161.2850  212.3530  147.5490 C   0  0  2  0  0  0  0  0  0  0  0  0
  163.6570  211.9550  148.4400 C   0  0  0  0  0  1  0  0  0  0  0  0
  162.1850  211.5460  148.5130 C   0  0  1  0  0  3  0  0  0  0  0  0
  160.1980  214.4520  147.1250 C   0  0  0  0  0  2  0  0  0  0  0  0
  160.1910  211.9940  150.1300 C   0  0  0  0  0  2  0  0  0  0  0  0
  160.7560  213.6080  148.2460 C   0  0  2  0  0  0  0  0  0  0  0  0
  161.7940  214.3230  148.8300 F   0  0  0  0  0  0  0  0  0  0  0  0
  160.1560  211.4270  147.0850 C   0  0  0  0  0  1  0  0  0  0  0  0
  159.7490  213.2490  149.3380 C   0  0  0  0  0  2  0  0  0  0  0  0
  161.1250  214.1670  145.9420 C   0  0  2  0  0  3  0  0  0  0  0  0
  161.6940  211.6480  149.9790 C   0  0  1  0  0  3  0  0  0  0  0  0
  160.3540  213.9240  144.8010 O   0  0  0  0  0  1  0  0  0  0  0  0
  161.9420  212.9120  146.2930 C   0  0  0  0  0  2  0  0  0  0  0  0
  161.3810  206.9430  149.8720 C   0  0  0  0  0  0  0  0  0  0  0  0
  161.0260  206.0510  149.1470 C   0  0  0  0  0  0  0  0  0  0  0  0
  160.6330  204.9780  148.2280 C   0  0  0  0  0  2  0  0  0  0  0  0
  161.5120  203.5800  149.9330 O   0  0  0  0  0  0  0  0  0  0  0  0
  161.1330  203.6640  148.7360 C   0  0  0  0  0  0  0  0  0  0  0  0
  161.1940  202.4730  147.8650 C   0  0  0  0  0  0  0  0  0  0  0  0
  160.6470  201.2690  145.7340 C   0  0  0  0  0  0  0  0  0  0  0  0
  161.1790  200.0550  146.3650 C   0  0  0  0  0  0  0  0  0  0  0  0
  161.6410  200.1130  147.6080 C   0  0  0  0  0  3  0  0  0  0  0  0
  160.1370  201.2100  144.5770 O   0  0  0  0  0  0  0  0  0  0  0  0
  161.1970  198.7550  145.6390 C   0  0  0  0  0  1  0  0  0  0  0  0
  161.6120  201.3360  148.3520 N   0  0  0  0  0  0  0  0  0  0  0  0
  160.7520  202.5960  146.4270 C   0  0  0  0  0  2  0  0  0  0  0  0
  162.8100  210.5610  153.1400 O   0  0  0  0  0  1  0  0  0  0  0  0
  161.4330  210.3340  153.0970 C   0  0  1  0  0  3  0  0  0  0  0  0
  160.3090  212.4170  153.1160 O   0  0  0  0  0  0  0  0  0  0  0  0
  160.6740  211.4550  153.7740 C   0  0  0  0  0  0  0  0  0  0  0  0
  160.3790  211.4200  155.2470 C   0  0  0  0  0  2  0  0  0  0  0  0
  157.8750  211.1590  155.3230 C   0  0  0  0  0  0  0  0  0  0  0  0
  157.6780  212.5460  154.8050 C   0  0  0  0  0  1  0  0  0  0  0  0
  159.1900  210.6240  155.5350 N   0  0  0  0  0  0  0  0  0  0  0  0
  156.8590  210.4590  155.5770 O   0  0  0  0  0  0  0  0  0  0  0  0
  159.3600  209.2630  156.0320 C   0  0  0  0  0  2  0  0  0  0  0  0
  160.8330  208.8770  155.9910 C   0  0  0  0  0  2  0  0  0  0  0  0
  160.9820  207.5470  155.2810 C   0  0  0  0  0  1  0  0  0  0  0  0
  1  2  1  6  0  0  0
  1  3  1  0  0  0  0
  2  4  1  0  0  0  0
  3 33  1  0  0  0  0
  4 19  1  6  0  0  0
  4  5  1  0  0  0  0
  5  3  1  0  0  0  0
  6 13  1  6  0  0  0
  6 11  1  0  0  0  0
  6  8  1  0  0  0  0
  8  7  1  1  0  0  0
  8 16  1  0  0  0  0
  9 11  1  0  0  0  0
 11 12  1  1  0  0  0
 11 14  1  0  0  0  0
 14 10  1  0  0  0  0
 15 17  1  6  0  0  0
 15 18  1  0  0  0  0
 15  9  1  0  0  0  0
 16 10  1  6  0  0  0
 16  1  1  0  0  0  0
 18  6  1  0  0  0  0
 20 19  3  0  0  0  0
 21 23  1  0  0  0  0
 21 20  1  0  0  0  0
 23 22  2  0  0  0  0
 24 30  2  0  0  0  0
 24 23  1  0  0  0  0
 25 26  1  0  0  0  0
 25 31  1  0  0  0  0
 26 27  2  0  0  0  0
 27 30  1  0  0  0  0
 28 25  2  0  0  0  0
 29 26  1  0  0  0  0
 31 24  1  0  0  0  0
 33 32  1  6  0  0  0
 33 35  1  0  0  0  0
 34 35  2  0  0  0  0
 35 36  1  0  0  0  0
 36 39  1  0  0  0  0
 37 39  1  0  0  0  0
 37 40  2  0  0  0  0
 38 37  1  0  0  0  0
 39 41  1  0  0  0  0
 42 41  1  0  0  0  0
 43 42  1  0  0  0  0
M  END
>  <MODEL>
4

>  <REMARK>
 VINA RESULT:      -4.7      2.972      8.819
  Name = 
  11 active torsions:
  status: ('A' for Active; 'I' for Inactive)
    1  A    between atoms: C_1  and  C_38
    2  A    between atoms: C_4  and  C_33
    3  A    between atoms: C_5  and  C_35
    4  A    between atoms: C_5  and  C_38
    5  A    between atoms: C_9  and  C_30
    6  A    between atoms: N_20  and  C_37
    7  A    between atoms: C_22  and  C_37
    8  A    between atoms: C_22  and  C_40
    9  A    between atoms: C_24  and  N_27
   10  A    between atoms: C_24  and  C_29
   11  A    between atoms: N_27  and  C_40
                            x       y       z     vdW  Elec       q    Type
                         _______ _______ _______ _____ _____    ______ ____

>  <TORSDO>
F 11

$$$$
=
 OpenBabel11052411273D

 43 46  0  0  1  0  0  0  0  0999 V2000
  159.9910  210.8580  151.9850 C   0  0  2  0  0  3  0  0  0  0  0  0
  159.9510  209.3510  152.1770 C   0  0  0  0  0  2  0  0  0  0  0  0
  161.2710  211.2020  151.3610 N   0  0  0  0  0  0  0  0  0  0  0  0
  160.9010  208.8490  151.1240 C   0  0  1  0  0  3  0  0  0  0  0  0
  161.9410  209.9400  151.0350 C   0  0  0  0  0  2  0  0  0  0  0  0
  158.0050  212.6380  154.7730 C   0  0  2  0  0  0  0  0  0  0  0  0
  158.7850  213.7760  152.6120 C   0  0  0  0  0  1  0  0  0  0  0  0
  158.5430  212.4520  153.3350 C   0  0  1  0  0  3  0  0  0  0  0  0
  158.5340  213.2410  157.0370 C   0  0  0  0  0  2  0  0  0  0  0  0
  160.0190  210.6700  154.5340 C   0  0  0  0  0  2  0  0  0  0  0  0
  159.1660  212.7280  155.7650 C   0  0  2  0  0  0  0  0  0  0  0  0
  160.0960  213.6720  155.3500 F   0  0  0  0  0  0  0  0  0  0  0  0
  157.0730  211.4590  155.0750 C   0  0  0  0  0  1  0  0  0  0  0  0
  159.8790  211.3820  155.9020 C   0  0  0  0  0  2  0  0  0  0  0  0
  157.4320  214.1860  156.5530 C   0  0  2  0  0  3  0  0  0  0  0  0
  159.8410  211.6060  153.3120 C   0  0  1  0  0  3  0  0  0  0  0  0
  156.2550  213.9190  157.2590 O   0  0  0  0  0  1  0  0  0  0  0  0
  157.2140  213.9090  155.0570 C   0  0  0  0  0  2  0  0  0  0  0  0
  161.5170  207.5800  151.5160 C   0  0  0  0  0  0  0  0  0  0  0  0
  161.9800  206.5210  151.8510 C   0  0  0  0  0  0  0  0  0  0  0  0
  162.4920  205.2090  152.2610 C   0  0  0  0  0  2  0  0  0  0  0  0
  160.8580  203.5690  152.7810 O   0  0  0  0  0  0  0  0  0  0  0  0
  161.5210  204.1400  151.8770 C   0  0  0  0  0  0  0  0  0  0  0  0
  161.3270  203.7430  150.4680 C   0  0  0  0  0  0  0  0  0  0  0  0
  160.9580  202.0050  148.6970 C   0  0  0  0  0  0  0  0  0  0  0  0
  161.1880  203.0640  147.7090 C   0  0  0  0  0  0  0  0  0  0  0  0
  161.4590  204.2970  148.1200 C   0  0  0  0  0  3  0  0  0  0  0  0
  160.7720  200.8120  148.3170 O   0  0  0  0  0  0  0  0  0  0  0  0
  161.1340  202.7780  146.2480 C   0  0  0  0  0  1  0  0  0  0  0  0
  161.5510  204.6070  149.5150 N   0  0  0  0  0  0  0  0  0  0  0  0
  160.8890  202.3310  150.1610 C   0  0  0  0  0  2  0  0  0  0  0  0
  161.2360  213.3830  150.4770 O   0  0  0  0  0  1  0  0  0  0  0  0
  161.0390  212.0350  150.1670 C   0  0  1  0  0  3  0  0  0  0  0  0
  162.1780  210.4660  148.8090 O   0  0  0  0  0  0  0  0  0  0  0  0
  161.8450  211.6330  148.9500 C   0  0  0  0  0  0  0  0  0  0  0  0
  162.2640  212.6440  147.9220 C   0  0  0  0  0  2  0  0  0  0  0  0
  161.7020  213.0380  145.4980 C   0  0  0  0  0  0  0  0  0  0  0  0
  163.1410  213.2550  145.1610 C   0  0  0  0  0  1  0  0  0  0  0  0
  161.2880  212.7430  146.8410 N   0  0  0  0  0  0  0  0  0  0  0  0
  160.8460  213.1200  144.5760 O   0  0  0  0  0  0  0  0  0  0  0  0
  159.8790  212.5250  147.1460 C   0  0  0  0  0  2  0  0  0  0  0  0
  159.1890  213.8600  147.3930 C   0  0  0  0  0  2  0  0  0  0  0  0
  158.1070  213.6780  148.4390 C   0  0  0  0  0  1  0  0  0  0  0  0
  1  2  1  1  0  0  0
  1 16  1  0  0  0  0
  3  1  1  0  0  0  0
  4 19  1  1  0  0  0
  4  2  1  0  0  0  0
  5  4  1  0  0  0  0
  5  3  1  0  0  0  0
  6 18  1  0  0  0  0
  6 13  1  1  0  0  0
  6 11  1  0  0  0  0
  8  7  1  1  0  0  0
  8  6  1  0  0  0  0
 10 14  1  0  0  0  0
 11 12  1  6  0  0  0
 11 14  1  0  0  0  0
 11  9  1  0  0  0  0
 15  9  1  0  0  0  0
 15 17  1  1  0  0  0
 16  8  1  0  0  0  0
 16 10  1  1  0  0  0
 18 15  1  0  0  0  0
 19 20  3  0  0  0  0
 20 21  1  0  0  0  0
 23 21  1  0  0  0  0
 23 22  2  0  0  0  0
 24 23  1  0  0  0  0
 25 31  1  0  0  0  0
 26 27  2  0  0  0  0
 26 25  1  0  0  0  0
 27 30  1  0  0  0  0
 28 25  2  0  0  0  0
 29 26  1  0  0  0  0
 30 24  2  0  0  0  0
 31 24  1  0  0  0  0
 33 32  1  1  0  0  0
 33  3  1  0  0  0  0
 34 35  2  0  0  0  0
 35 33  1  0  0  0  0
 36 35  1  0  0  0  0
 37 39  1  0  0  0  0
 38 37  1  0  0  0  0
 39 41  1  0  0  0  0
 39 36  1  0  0  0  0
 40 37  2  0  0  0  0
 41 42  1  0  0  0  0
 42 43  1  0  0  0  0
M  END
>  <MODEL>
5

>  <REMARK>
 VINA RESULT:      -4.6      1.948      7.382
  Name = 
  11 active torsions:
  status: ('A' for Active; 'I' for Inactive)
    1  A    between atoms: C_1  and  C_38
    2  A    between atoms: C_4  and  C_33
    3  A    between atoms: C_5  and  C_35
    4  A    between atoms: C_5  and  C_38
    5  A    between atoms: C_9  and  C_30
    6  A    between atoms: N_20  and  C_37
    7  A    between atoms: C_22  and  C_37
    8  A    between atoms: C_22  and  C_40
    9  A    between atoms: C_24  and  N_27
   10  A    between atoms: C_24  and  C_29
   11  A    between atoms: N_27  and  C_40
                            x       y       z     vdW  Elec       q    Type
                         _______ _______ _______ _____ _____    ______ ____

>  <TORSDO>
F 11

$$$$
=
 OpenBabel11052411273D

 43 46  0  0  1  0  0  0  0  0999 V2000
  159.4740  211.5330  152.1820 C   0  0  2  0  0  3  0  0  0  0  0  0
  159.6340  210.0270  152.3000 C   0  0  0  0  0  2  0  0  0  0  0  0
  160.7170  212.0800  151.6350 N   0  0  0  0  0  0  0  0  0  0  0  0
  160.6860  209.7160  151.2710 C   0  0  1  0  0  3  0  0  0  0  0  0
  161.5680  210.9410  151.2810 C   0  0  0  0  0  2  0  0  0  0  0  0
  157.1630  213.0510  154.8740 C   0  0  2  0  0  0  0  0  0  0  0  0
  158.1020  214.3620  152.8790 C   0  0  0  0  0  1  0  0  0  0  0  0
  157.8430  212.9830  153.4870 C   0  0  1  0  0  3  0  0  0  0  0  0
  157.4500  213.5120  157.2130 C   0  0  0  0  0  2  0  0  0  0  0  0
  159.2650  211.1700  154.7040 C   0  0  0  0  0  2  0  0  0  0  0  0
  158.2200  213.1090  155.9780 C   0  0  2  0  0  0  0  0  0  0  0  0
  159.1490  214.1090  155.7200 F   0  0  0  0  0  0  0  0  0  0  0  0
  156.2530  211.8260  155.0050 C   0  0  0  0  0  1  0  0  0  0  0  0
  158.9680  211.7810  156.0960 C   0  0  0  0  0  2  0  0  0  0  0  0
  156.3640  214.4530  156.6880 C   0  0  2  0  0  3  0  0  0  0  0  0
  159.1690  212.1820  153.5350 C   0  0  1  0  0  3  0  0  0  0  0  0
  155.1370  214.1000  157.2570 O   0  0  0  0  0  1  0  0  0  0  0  0
  156.3010  214.2740  155.1630 C   0  0  0  0  0  2  0  0  0  0  0  0
  161.4550  208.5230  151.6310 C   0  0  0  0  0  0  0  0  0  0  0  0
  162.0460  207.5210  151.9370 C   0  0  0  0  0  0  0  0  0  0  0  0
  162.7170  206.2720  152.3120 C   0  0  0  0  0  2  0  0  0  0  0  0
  161.0490  205.0490  153.4750 O   0  0  0  0  0  0  0  0  0  0  0  0
  161.7170  205.1670  152.4150 C   0  0  0  0  0  0  0  0  0  0  0  0
  161.5000  204.2150  151.3060 C   0  0  0  0  0  0  0  0  0  0  0  0
  161.1200  203.7060  148.8800 C   0  0  0  0  0  0  0  0  0  0  0  0
  160.8640  202.3190  149.2830 C   0  0  0  0  0  0  0  0  0  0  0  0
  160.9270  201.9880  150.5670 C   0  0  0  0  0  3  0  0  0  0  0  0
  160.9910  204.0480  147.6680 O   0  0  0  0  0  0  0  0  0  0  0  0
  160.5220  201.2760  148.2760 C   0  0  0  0  0  1  0  0  0  0  0  0
  161.2210  202.9680  151.5690 N   0  0  0  0  0  0  0  0  0  0  0  0
  161.5880  204.7170  149.8850 C   0  0  0  0  0  2  0  0  0  0  0  0
  160.4430  214.2820  150.8490 O   0  0  0  0  0  1  0  0  0  0  0  0
  160.4200  212.9380  150.4730 C   0  0  1  0  0  3  0  0  0  0  0  0
  161.9070  211.6370  149.1690 O   0  0  0  0  0  0  0  0  0  0  0  0
  161.3030  212.6940  149.2670 C   0  0  0  0  0  0  0  0  0  0  0  0
  161.4690  213.7360  148.1980 C   0  0  0  0  0  2  0  0  0  0  0  0
  160.1290  212.7380  146.3130 C   0  0  0  0  0  0  0  0  0  0  0  0
  158.8600  212.8920  147.0850 C   0  0  0  0  0  1  0  0  0  0  0  0
  161.3890  213.1500  146.8640 N   0  0  0  0  0  0  0  0  0  0  0  0
  160.0780  212.2340  145.1590 O   0  0  0  0  0  0  0  0  0  0  0  0
  162.6160  213.0000  146.0890 C   0  0  0  0  0  2  0  0  0  0  0  0
  162.6660  214.0530  144.9890 C   0  0  0  0  0  2  0  0  0  0  0  0
  163.0980  213.4010  143.6910 C   0  0  0  0  0  1  0  0  0  0  0  0
  1  2  1  1  0  0  0
  1 16  1  0  0  0  0
  3  1  1  0  0  0  0
  4  5  1  0  0  0  0
  4 19  1  1  0  0  0
  4  2  1  0  0  0  0
  5  3  1  0  0  0  0
  6 13  1  1  0  0  0
  6 18  1  0  0  0  0
  6 11  1  0  0  0  0
  8  7  1  1  0  0  0
  8 16  1  0  0  0  0
  8  6  1  0  0  0  0
 10 14  1  0  0  0  0
 11 12  1  6  0  0  0
 11 14  1  0  0  0  0
 11  9  1  0  0  0  0
 15  9  1  0  0  0  0
 15 17  1  1  0  0  0
 16 10  1  1  0  0  0
 18 15  1  0  0  0  0
 19 20  3  0  0  0  0
 20 21  1  0  0  0  0
 21 23  1  0  0  0  0
 23 22  2  0  0  0  0
 24 30  2  0  0  0  0
 24 23  1  0  0  0  0
 25 26  1  0  0  0  0
 25 31  1  0  0  0  0
 26 27  2  0  0  0  0
 27 30  1  0  0  0  0
 28 25  2  0  0  0  0
 29 26  1  0  0  0  0
 31 24  1  0  0  0  0
 33 32  1  1  0  0  0
 33  3  1  0  0  0  0
 34 35  2  0  0  0  0
 35 33  1  0  0  0  0
 36 35  1  0  0  0  0
 37 39  1  0  0  0  0
 37 38  1  0  0  0  0
 39 36  1  0  0  0  0
 40 37  2  0  0  0  0
 41 39  1  0  0  0  0
 42 41  1  0  0  0  0
 43 42  1  0  0  0  0
M  END
>  <MODEL>
6

>  <REMARK>
 VINA RESULT:      -4.6      2.102      7.438
  Name = 
  11 active torsions:
  status: ('A' for Active; 'I' for Inactive)
    1  A    between atoms: C_1  and  C_38
    2  A    between atoms: C_4  and  C_33
    3  A    between atoms: C_5  and  C_35
    4  A    between atoms: C_5  and  C_38
    5  A    between atoms: C_9  and  C_30
    6  A    between atoms: N_20  and  C_37
    7  A    between atoms: C_22  and  C_37
    8  A    between atoms: C_22  and  C_40
    9  A    between atoms: C_24  and  N_27
   10  A    between atoms: C_24  and  C_29
   11  A    between atoms: N_27  and  C_40
                            x       y       z     vdW  Elec       q    Type
                         _______ _______ _______ _____ _____    ______ ____

>  <TORSDO>
F 11

$$$$
=
 OpenBabel11052411273D

 43 46  0  0  1  0  0  0  0  0999 V2000
  160.9360  210.5570  150.4260 C   0  0  2  0  0  3  0  0  0  0  0  0
  160.9400  209.1090  149.9650 C   0  0  0  0  0  2  0  0  0  0  0  0
  161.9450  211.2830  149.6510 N   0  0  0  0  0  0  0  0  0  0  0  0
  161.4850  209.2000  148.5660 C   0  0  1  0  0  3  0  0  0  0  0  0
  162.4530  210.3560  148.6350 C   0  0  0  0  0  2  0  0  0  0  0  0
  160.6390  209.5370  154.1350 C   0  0  2  0  0  0  0  0  0  0  0  0
  158.9670  211.0570  152.9240 C   0  0  0  0  0  1  0  0  0  0  0  0
  160.1110  210.0530  152.7770 C   0  0  1  0  0  3  0  0  0  0  0  0
  161.9490  210.0370  156.0860 C   0  0  0  0  0  2  0  0  0  0  0  0
  162.6640  210.1790  152.2720 C   0  0  0  0  0  2  0  0  0  0  0  0
  161.7690  210.4350  154.6400 C   0  0  2  0  0  0  0  0  0  0  0  0
  161.3840  211.7700  154.6200 F   0  0  0  0  0  0  0  0  0  0  0  0
  161.0960  208.0880  153.9340 C   0  0  0  0  0  1  0  0  0  0  0  0
  163.0210  210.2860  153.7750 C   0  0  0  0  0  2  0  0  0  0  0  0
  160.5360  209.6870  156.5570 C   0  0  2  0  0  3  0  0  0  0  0  0
  161.2410  210.6800  151.9220 C   0  0  1  0  0  3  0  0  0  0  0  0
  160.5720  208.4790  157.2600 O   0  0  0  0  0  1  0  0  0  0  0  0
  159.6600  209.5320  155.3030 C   0  0  0  0  0  2  0  0  0  0  0  0
  162.1770  207.9700  148.1770 C   0  0  0  0  0  0  0  0  0  0  0  0
  162.7030  206.9370  147.8560 C   0  0  0  0  0  0  0  0  0  0  0  0
  163.2940  205.6570  147.4520 C   0  0  0  0  0  2  0  0  0  0  0  0
  161.8870  204.8130  145.7370 O   0  0  0  0  0  0  0  0  0  0  0  0
  162.2270  204.7400  146.9460 C   0  0  0  0  0  0  0  0  0  0  0  0
  161.5680  203.7600  147.8330 C   0  0  0  0  0  0  0  0  0  0  0  0
  160.7460  203.0290  150.0880 C   0  0  0  0  0  0  0  0  0  0  0  0
  160.4900  201.7140  149.4900 C   0  0  0  0  0  0  0  0  0  0  0  0
  160.7720  201.5100  148.2090 C   0  0  0  0  0  3  0  0  0  0  0  0
  160.5510  203.2130  151.3250 O   0  0  0  0  0  0  0  0  0  0  0  0
  159.9320  200.5970  150.3010 C   0  0  0  0  0  1  0  0  0  0  0  0
  161.3410  202.5490  147.4030 N   0  0  0  0  0  0  0  0  0  0  0  0
  161.1880  204.1810  149.2320 C   0  0  0  0  0  2  0  0  0  0  0  0
  161.0170  213.4080  150.0550 O   0  0  0  0  0  1  0  0  0  0  0  0
  161.3460  212.4910  149.0540 C   0  0  1  0  0  3  0  0  0  0  0  0
  163.3820  212.9180  147.9250 O   0  0  0  0  0  0  0  0  0  0  0  0
  162.1830  213.1420  147.9730 C   0  0  0  0  0  0  0  0  0  0  0  0
  161.5710  214.0760  146.9690 C   0  0  0  0  0  2  0  0  0  0  0  0
  161.6560  213.0440  144.6730 C   0  0  0  0  0  0  0  0  0  0  0  0
  163.0770  213.4670  144.4950 C   0  0  0  0  0  1  0  0  0  0  0  0
  160.9350  213.3460  145.8770 N   0  0  0  0  0  0  0  0  0  0  0  0
  161.0920  212.4120  143.7390 O   0  0  0  0  0  0  0  0  0  0  0  0
  159.5510  212.9140  146.0340 C   0  0  0  0  0  2  0  0  0  0  0  0
  158.7940  213.9090  146.9050 C   0  0  0  0  0  2  0  0  0  0  0  0
  157.8010  213.1610  147.7720 C   0  0  0  0  0  1  0  0  0  0  0  0
  1  2  1  6  0  0  0
  1 16  1  0  0  0  0
  3  1  1  0  0  0  0
  4 19  1  1  0  0  0
  4  5  1  0  0  0  0
  4  2  1  0  0  0  0
  5  3  1  0  0  0  0
  6 13  1  6  0  0  0
  6 11  1  0  0  0  0
  6 18  1  0  0  0  0
  8  7  1  1  0  0  0
  8  6  1  0  0  0  0
  9 15  1  0  0  0  0
 10 14  1  0  0  0  0
 11 12  1  6  0  0  0
 11  9  1  0  0  0  0
 14 11  1  0  0  0  0
 15 17  1  6  0  0  0
 16 10  1  6  0  0  0
 16  8  1  0  0  0  0
 18 15  1  0  0  0  0
 20 19  3  0  0  0  0
 21 20  1  0  0  0  0
 22 23  2  0  0  0  0
 23 21  1  0  0  0  0
 23 24  1  0  0  0  0
 24 31  1  0  0  0  0
 25 28  2  0  0  0  0
 26 25  1  0  0  0  0
 26 29  1  0  0  0  0
 27 26  2  0  0  0  0
 30 24  2  0  0  0  0
 30 27  1  0  0  0  0
 31 25  1  0  0  0  0
 33  3  1  0  0  0  0
 33 32  1  1  0  0  0
 34 35  2  0  0  0  0
 35 33  1  0  0  0  0
 36 35  1  0  0  0  0
 37 39  1  0  0  0  0
 38 37  1  0  0  0  0
 39 41  1  0  0  0  0
 39 36  1  0  0  0  0
 40 37  2  0  0  0  0
 41 42  1  0  0  0  0
 42 43  1  0  0  0  0
M  END
>  <MODEL>
7

>  <REMARK>
 VINA RESULT:      -4.3      2.504      7.888
  Name = 
  11 active torsions:
  status: ('A' for Active; 'I' for Inactive)
    1  A    between atoms: C_1  and  C_38
    2  A    between atoms: C_4  and  C_33
    3  A    between atoms: C_5  and  C_35
    4  A    between atoms: C_5  and  C_38
    5  A    between atoms: C_9  and  C_30
    6  A    between atoms: N_20  and  C_37
    7  A    between atoms: C_22  and  C_37
    8  A    between atoms: C_22  and  C_40
    9  A    between atoms: C_24  and  N_27
   10  A    between atoms: C_24  and  C_29
   11  A    between atoms: N_27  and  C_40
                            x       y       z     vdW  Elec       q    Type
                         _______ _______ _______ _____ _____    ______ ____

>  <TORSDO>
F 11

$$$$
=
 OpenBabel11052411273D

 43 46  0  0  1  0  0  0  0  0999 V2000
  161.3860  207.4770  149.4870 C   0  0  2  0  0  3  0  0  0  0  0  0
  161.2090  208.8020  148.7640 C   0  0  0  0  0  2  0  0  0  0  0  0
  162.3800  207.6670  150.5460 N   0  0  0  0  0  0  0  0  0  0  0  0
  161.6250  209.8110  149.7980 C   0  0  1  0  0  3  0  0  0  0  0  0
  162.7000  209.0970  150.5810 C   0  0  0  0  0  2  0  0  0  0  0  0
  160.8390  204.4860  147.1120 C   0  0  2  0  0  0  0  0  0  0  0  0
  160.9860  204.2870  149.6640 C   0  0  0  0  0  1  0  0  0  0  0  0
  160.7960  205.2230  148.4700 C   0  0  1  0  0  3  0  0  0  0  0  0
  162.2250  203.4240  145.4630 C   0  0  0  0  0  2  0  0  0  0  0  0
  162.2790  206.9170  147.1580 C   0  0  0  0  0  2  0  0  0  0  0  0
  162.2720  204.4390  146.5800 C   0  0  2  0  0  0  0  0  0  0  0  0
  163.1420  203.9530  147.5490 F   0  0  0  0  0  0  0  0  0  0  0  0
  159.8900  205.2190  146.1570 C   0  0  0  0  0  1  0  0  0  0  0  0
  162.7520  205.8290  146.1630 C   0  0  0  0  0  2  0  0  0  0  0  0
  161.1990  202.3930  145.9350 C   0  0  2  0  0  3  0  0  0  0  0  0
  161.8410  206.3650  148.5380 C   0  0  1  0  0  3  0  0  0  0  0  0
  160.3200  202.1060  144.8870 O   0  0  0  0  0  1  0  0  0  0  0  0
  160.4240  203.0200  147.1060 C   0  0  0  0  0  2  0  0  0  0  0  0
  162.1580  211.0270  149.1800 C   0  0  0  0  0  0  0  0  0  0  0  0
  162.5590  212.0250  148.6410 C   0  0  0  0  0  0  0  0  0  0  0  0
  162.9990  213.2460  147.9580 C   0  0  0  0  0  2  0  0  0  0  0  0
  162.7890  213.3210  145.5960 O   0  0  0  0  0  0  0  0  0  0  0  0
  162.2080  213.4410  146.7050 C   0  0  0  0  0  0  0  0  0  0  0  0
  160.7700  213.7740  146.7440 C   0  0  0  0  0  0  0  0  0  0  0  0
  158.6540  214.2690  147.9970 C   0  0  0  0  0  0  0  0  0  0  0  0
  157.9560  214.1910  146.7090 C   0  0  0  0  0  0  0  0  0  0  0  0
  158.6440  213.9230  145.6060 C   0  0  0  0  0  3  0  0  0  0  0  0
  157.9980  214.4510  149.0640 O   0  0  0  0  0  0  0  0  0  0  0  0
  156.4830  214.3940  146.6190 C   0  0  0  0  0  1  0  0  0  0  0  0
  160.0560  213.6890  145.6550 N   0  0  0  0  0  0  0  0  0  0  0  0
  160.1520  214.1900  148.0570 C   0  0  0  0  0  2  0  0  0  0  0  0
  162.6890  206.2100  152.3680 O   0  0  0  0  0  1  0  0  0  0  0  0
  161.8440  207.1830  151.8310 C   0  0  1  0  0  3  0  0  0  0  0  0
  162.4520  208.6830  153.5590 O   0  0  0  0  0  0  0  0  0  0  0  0
  161.5520  208.2710  152.8430 C   0  0  0  0  0  0  0  0  0  0  0  0
  160.1710  208.8400  153.0010 C   0  0  0  0  0  2  0  0  0  0  0  0
  160.0220  209.4650  155.4370 C   0  0  0  0  0  0  0  0  0  0  0  0
  159.9540  208.0280  155.8390 C   0  0  0  0  0  1  0  0  0  0  0  0
  160.1260  209.8470  154.0570 N   0  0  0  0  0  0  0  0  0  0  0  0
  159.9840  210.3470  156.3360 O   0  0  0  0  0  0  0  0  0  0  0  0
  160.2010  211.2560  153.6860 C   0  0  0  0  0  2  0  0  0  0  0  0
  159.4250  211.4940  152.3970 C   0  0  0  0  0  2  0  0  0  0  0  0
  159.7310  212.8850  151.8790 C   0  0  0  0  0  1  0  0  0  0  0  0
  1  2  1  6  0  0  0
  1  3  1  0  0  0  0
  2  4  1  0  0  0  0
  3  5  1  0  0  0  0
  3 33  1  0  0  0  0
  4 19  1  6  0  0  0
  4  5  1  0  0  0  0
  6 13  1  6  0  0  0
  6  8  1  0  0  0  0
  8 16  1  0  0  0  0
  8  7  1  1  0  0  0
  9 15  1  0  0  0  0
  9 11  1  0  0  0  0
 11  6  1  0  0  0  0
 11 12  1  1  0  0  0
 14 11  1  0  0  0  0
 14 10  1  0  0  0  0
 15 17  1  6  0  0  0
 15 18  1  0  0  0  0
 16 10  1  6  0  0  0
 16  1  1  0  0  0  0
 18  6  1  0  0  0  0
 20 19  3  0  0  0  0
 21 20  1  0  0  0  0
 22 23  2  0  0  0  0
 23 24  1  0  0  0  0
 23 21  1  0  0  0  0
 24 31  1  0  0  0  0
 25 31  1  0  0  0  0
 25 28  2  0  0  0  0
 26 25  1  0  0  0  0
 27 30  1  0  0  0  0
 27 26  2  0  0  0  0
 29 26  1  0  0  0  0
 30 24  2  0  0  0  0
 33 32  1  1  0  0  0
 33 35  1  0  0  0  0
 35 36  1  0  0  0  0
 35 34  2  0  0  0  0
 36 39  1  0  0  0  0
 37 38  1  0  0  0  0
 37 40  2  0  0  0  0
 39 37  1  0  0  0  0
 41 39  1  0  0  0  0
 42 41  1  0  0  0  0
 43 42  1  0  0  0  0
M  END
>  <MODEL>
8

>  <REMARK>
 VINA RESULT:      -4.2      2.940      7.763
  Name = 
  11 active torsions:
  status: ('A' for Active; 'I' for Inactive)
    1  A    between atoms: C_1  and  C_38
    2  A    between atoms: C_4  and  C_33
    3  A    between atoms: C_5  and  C_35
    4  A    between atoms: C_5  and  C_38
    5  A    between atoms: C_9  and  C_30
    6  A    between atoms: N_20  and  C_37
    7  A    between atoms: C_22  and  C_37
    8  A    between atoms: C_22  and  C_40
    9  A    between atoms: C_24  and  N_27
   10  A    between atoms: C_24  and  C_29
   11  A    between atoms: N_27  and  C_40
                            x       y       z     vdW  Elec       q    Type
                         _______ _______ _______ _____ _____    ______ ____

>  <TORSDO>
F 11

$$$$
=
 OpenBabel11052411273D

 43 46  0  0  1  0  0  0  0  0999 V2000
  161.3640  207.7160  149.3440 C   0  0  2  0  0  3  0  0  0  0  0  0
  161.2250  209.0000  148.5440 C   0  0  0  0  0  2  0  0  0  0  0  0
  162.3250  207.9560  150.4240 N   0  0  0  0  0  0  0  0  0  0  0  0
  161.6170  210.0620  149.5340 C   0  0  1  0  0  3  0  0  0  0  0  0
  162.6580  209.3830  150.3910 C   0  0  0  0  0  2  0  0  0  0  0  0
  160.8630  204.6170  147.1020 C   0  0  2  0  0  0  0  0  0  0  0  0
  160.8980  204.5460  149.6650 C   0  0  0  0  0  1  0  0  0  0  0  0
  160.7760  205.4230  148.4180 C   0  0  1  0  0  3  0  0  0  0  0  0
  162.2990  203.4480  145.5710 C   0  0  0  0  0  2  0  0  0  0  0  0
  162.3450  207.0220  147.0880 C   0  0  0  0  0  2  0  0  0  0  0  0
  162.3170  204.5180  146.6370 C   0  0  2  0  0  0  0  0  0  0  0  0
  163.1350  204.0690  147.6660 F   0  0  0  0  0  0  0  0  0  0  0  0
  159.9700  205.3150  146.0710 C   0  0  0  0  0  1  0  0  0  0  0  0
  162.8400  205.8770  146.1710 C   0  0  0  0  0  2  0  0  0  0  0  0
  161.2340  202.4590  146.0500 C   0  0  2  0  0  3  0  0  0  0  0  0
  161.8390  206.5500  148.4740 C   0  0  1  0  0  3  0  0  0  0  0  0
  160.3950  202.1330  144.9800 O   0  0  0  0  0  1  0  0  0  0  0  0
  160.4220  203.1590  147.1520 C   0  0  0  0  0  2  0  0  0  0  0  0
  162.1840  211.2370  148.8680 C   0  0  0  0  0  0  0  0  0  0  0  0
  162.6090  212.2040  148.2940 C   0  0  0  0  0  0  0  0  0  0  0  0
  163.0770  213.3910  147.5710 C   0  0  0  0  0  2  0  0  0  0  0  0
  163.2200  213.3270  145.2030 O   0  0  0  0  0  0  0  0  0  0  0  0
  162.4680  213.4310  146.2070 C   0  0  0  0  0  0  0  0  0  0  0  0
  161.0120  213.5910  146.0160 C   0  0  0  0  0  0  0  0  0  0  0  0
  158.9820  213.7170  144.5490 C   0  0  0  0  0  0  0  0  0  0  0  0
  158.2330  214.1350  145.7400 C   0  0  0  0  0  0  0  0  0  0  0  0
  158.8650  214.2550  146.9010 C   0  0  0  0  0  3  0  0  0  0  0  0
  158.4060  213.6700  143.4230 O   0  0  0  0  0  0  0  0  0  0  0  0
  156.7780  214.4400  145.6660 C   0  0  0  0  0  1  0  0  0  0  0  0
  160.2710  214.0030  147.0080 N   0  0  0  0  0  0  0  0  0  0  0  0
  160.4160  213.2910  144.6620 C   0  0  0  0  0  2  0  0  0  0  0  0
  162.4830  206.5020  152.2680 O   0  0  0  0  0  1  0  0  0  0  0  0
  161.7410  207.5490  151.7150 C   0  0  1  0  0  3  0  0  0  0  0  0
  162.5400  209.3010  153.0920 O   0  0  0  0  0  0  0  0  0  0  0  0
  161.5630  208.6750  152.7100 C   0  0  0  0  0  0  0  0  0  0  0  0
  160.2080  209.0270  153.2560 C   0  0  0  0  0  2  0  0  0  0  0  0
  160.1580  211.3760  154.1630 C   0  0  0  0  0  0  0  0  0  0  0  0
  159.8980  211.9350  152.8030 C   0  0  0  0  0  1  0  0  0  0  0  0
  160.3080  209.9640  154.3710 N   0  0  0  0  0  0  0  0  0  0  0  0
  160.2470  212.1720  155.1370 O   0  0  0  0  0  0  0  0  0  0  0  0
  160.5520  209.4380  155.7090 C   0  0  0  0  0  2  0  0  0  0  0  0
  159.6480  208.2400  155.9680 C   0  0  0  0  0  2  0  0  0  0  0  0
  160.3820  207.2360  156.8330 C   0  0  0  0  0  1  0  0  0  0  0  0
  1  2  1  6  0  0  0
  1  3  1  0  0  0  0
  2  4  1  0  0  0  0
  3 33  1  0  0  0  0
  4 19  1  6  0  0  0
  4  5  1  0  0  0  0
  5  3  1  0  0  0  0
  6 13  1  6  0  0  0
  6 18  1  0  0  0  0
  6  8  1  0  0  0  0
  8 16  1  0  0  0  0
  8  7  1  1  0  0  0
  9 15  1  0  0  0  0
  9 11  1  0  0  0  0
 11  6  1  0  0  0  0
 11 12  1  1  0  0  0
 14 11  1  0  0  0  0
 14 10  1  0  0  0  0
 15 17  1  6  0  0  0
 15 18  1  0  0  0  0
 16 10  1  6  0  0  0
 16  1  1  0  0  0  0
 20 19  3  0  0  0  0
 21 20  1  0  0  0  0
 22 23  2  0  0  0  0
 23 21  1  0  0  0  0
 24 23  1  0  0  0  0
 24 30  2  0  0  0  0
 25 31  1  0  0  0  0
 25 26  1  0  0  0  0
 26 27  2  0  0  0  0
 27 30  1  0  0  0  0
 28 25  2  0  0  0  0
 29 26  1  0  0  0  0
 31 24  1  0  0  0  0
 33 32  1  1  0  0  0
 33 35  1  0  0  0  0
 35 34  2  0  0  0  0
 35 36  1  0  0  0  0
 36 39  1  0  0  0  0
 37 39  1  0  0  0  0
 37 40  2  0  0  0  0
 38 37  1  0  0  0  0
 39 41  1  0  0  0  0
 41 42  1  0  0  0  0
 42 43  1  0  0  0  0
M  END
>  <MODEL>
9

>  <REMARK>
 VINA RESULT:      -4.1      2.813      7.815
  Name = 
  11 active torsions:
  status: ('A' for Active; 'I' for Inactive)
    1  A    between atoms: C_1  and  C_38
    2  A    between atoms: C_4  and  C_33
    3  A    between atoms: C_5  and  C_35
    4  A    between atoms: C_5  and  C_38
    5  A    between atoms: C_9  and  C_30
    6  A    between atoms: N_20  and  C_37
    7  A    between atoms: C_22  and  C_37
    8  A    between atoms: C_22  and  C_40
    9  A    between atoms: C_24  and  N_27
   10  A    between atoms: C_24  and  C_29
   11  A    between atoms: N_27  and  C_40
                            x       y       z     vdW  Elec       q    Type
                         _______ _______ _______ _____ _____    ______ ____

>  <TORSDO>
F 11

$$$$
