=
 OpenBabel11042420153D

 25 28  0  0  1  0  0  0  0  0999 V2000
  161.0510  208.9330  151.3080 C   0  0  0  0  0  3  0  0  0  0  0  0
  161.2000  206.3000  153.0000 C   0  0  0  0  0  0  0  0  0  0  0  0
  161.1660  209.4240  152.6170 C   0  0  0  0  0  0  0  0  0  0  0  0
  161.2290  204.9450  153.2990 C   0  0  0  0  0  3  0  0  0  0  0  0
  160.8790  203.3240  149.4930 C   0  0  0  0  0  0  0  0  0  0  0  0
  161.2860  207.2820  153.9680 C   0  0  0  0  0  3  0  0  0  0  0  0
  161.1200  204.2850  152.0920 C   0  0  0  0  0  0  0  0  0  0  0  0
  161.2700  208.6580  153.7800 C   0  0  0  0  0  3  0  0  0  0  0  0
  161.0070  207.6330  150.8240 C   0  0  0  0  0  3  0  0  0  0  0  0
  160.9020  204.7170  149.7130 C   0  0  0  0  0  0  0  0  0  0  0  0
  160.9810  202.4300  150.5760 C   0  0  0  0  0  3  0  0  0  0  0  0
  161.0680  206.4600  151.5560 C   0  0  0  0  0  0  0  0  0  0  0  0
  161.0220  205.1750  151.0400 C   0  0  0  0  0  0  0  0  0  0  0  0
  161.1040  202.9070  151.8890 C   0  0  0  0  0  3  0  0  0  0  0  0
  160.7570  202.8140  148.2050 O   0  0  0  0  0  1  0  0  0  0  0  0
  160.4760  211.4610  153.8610 C   0  0  0  0  0  1  0  0  0  0  0  0
  161.1830  210.8090  152.8140 O   0  0  0  0  0  0  0  0  0  0  0  0
  160.7670  205.6610  148.5600 C   0  0  0  0  0  2  0  0  0  0  0  0
  162.1480  205.9860  147.9840 C   0  0  0  0  0  2  0  0  0  0  0  0
  160.9600  205.3230  146.0020 C   0  0  2  0  0  3  0  0  0  0  0  0
  161.2870  204.2310  145.0120 C   0  0  0  0  0  2  0  0  0  0  0  0
  162.6300  203.7180  145.4560 C   0  0  0  0  0  2  0  0  0  0  0  0
  160.1900  206.4300  145.3100 C   0  0  0  0  0  1  0  0  0  0  0  0
  162.2230  205.8420  146.5250 N   0  0  0  0  0  0  0  0  0  0  0  0
  163.2720  204.8860  146.1720 C   0  0  0  0  0  2  0  0  0  0  0  0
  1  3  1  0  0  0  0
  2  4  1  0  0  0  0
  2  6  2  0  0  0  0
  3 17  1  0  0  0  0
  3  8  2  0  0  0  0
  5 10  2  0  0  0  0
  5 11  1  0  0  0  0
  7  4  2  0  0  0  0
  8  6  1  0  0  0  0
  9  1  2  0  0  0  0
  9 12  1  0  0  0  0
 10 13  1  0  0  0  0
 11 14  2  0  0  0  0
 12  2  1  0  0  0  0
 13 12  2  0  0  0  0
 13  7  1  0  0  0  0
 14  7  1  0  0  0  0
 15  5  1  0  0  0  0
 17 16  1  0  0  0  0
 18 10  1  0  0  0  0
 19 18  1  0  0  0  0
 20 23  1  6  0  0  0
 20 24  1  0  0  0  0
 21 22  1  0  0  0  0
 21 20  1  0  0  0  0
 22 25  1  0  0  0  0
 24 19  1  0  0  0  0
 25 24  1  0  0  0  0
M  END
>  <MODEL>
1

>  <REMARK>
 VINA RESULT:      -9.6      0.000      0.000
  Name = 
  4 active torsions:
  status: ('A' for Active; 'I' for Inactive)
    1  A    between atoms: C_6  and  C_16
    2  A    between atoms: C_6  and  C_25
    3  A    between atoms: C_7  and  O_15
    4  A    between atoms: N_22  and  C_25
                            x       y       z     vdW  Elec       q    Type
                         _______ _______ _______ _____ _____    ______ ____

>  <TORSDO>
F 4

$$$$
=
 OpenBabel11042420153D

 25 28  0  0  1  0  0  0  0  0999 V2000
  161.7250  208.5030  148.3850 C   0  0  0  0  0  3  0  0  0  0  0  0
  161.7280  207.5360  151.3660 C   0  0  0  0  0  0  0  0  0  0  0  0
  162.0310  209.6810  149.0830 C   0  0  0  0  0  0  0  0  0  0  0  0
  161.6240  206.6870  152.4590 C   0  0  0  0  0  3  0  0  0  0  0  0
  160.6950  203.1160  150.5550 C   0  0  0  0  0  0  0  0  0  0  0  0
  162.0300  208.8780  151.4870 C   0  0  0  0  0  3  0  0  0  0  0  0
  161.3140  205.4430  151.9480 C   0  0  0  0  0  0  0  0  0  0  0  0
  162.1600  209.8120  150.4660 C   0  0  0  0  0  3  0  0  0  0  0  0
  161.4760  207.2150  148.8390 C   0  0  0  0  0  3  0  0  0  0  0  0
  160.9070  204.3120  149.8380 C   0  0  0  0  0  0  0  0  0  0  0  0
  160.7990  203.0990  151.9590 C   0  0  0  0  0  3  0  0  0  0  0  0
  161.4700  206.7720  150.1510 C   0  0  0  0  0  0  0  0  0  0  0  0
  161.2170  205.4750  150.5700 C   0  0  0  0  0  0  0  0  0  0  0  0
  161.1110  204.2680  152.6680 C   0  0  0  0  0  3  0  0  0  0  0  0
  160.3810  201.9380  149.8860 O   0  0  0  0  0  1  0  0  0  0  0  0
  161.9500  212.1540  148.8620 C   0  0  0  0  0  1  0  0  0  0  0  0
  162.2350  210.8580  148.3530 O   0  0  0  0  0  0  0  0  0  0  0  0
  160.7700  204.3290  148.3490 C   0  0  0  0  0  2  0  0  0  0  0  0
  161.8700  203.4760  147.7100 C   0  0  0  0  0  2  0  0  0  0  0  0
  161.4470  204.9400  145.8510 C   0  0  2  0  0  3  0  0  0  0  0  0
  160.5490  204.7320  144.6560 C   0  0  0  0  0  2  0  0  0  0  0  0
  160.0640  203.3140  144.7990 C   0  0  0  0  0  2  0  0  0  0  0  0
  162.5940  205.8570  145.4770 C   0  0  0  0  0  1  0  0  0  0  0  0
  161.9620  203.6320  146.2530 N   0  0  0  0  0  0  0  0  0  0  0  0
  161.1470  202.6150  145.5920 C   0  0  0  0  0  2  0  0  0  0  0  0
  1  9  2  0  0  0  0
  1  3  1  0  0  0  0
  2  6  2  0  0  0  0
  2  4  1  0  0  0  0
  3  8  2  0  0  0  0
  5 11  1  0  0  0  0
  7  4  2  0  0  0  0
  7 14  1  0  0  0  0
  8  6  1  0  0  0  0
  9 12  1  0  0  0  0
 10  5  2  0  0  0  0
 10 13  1  0  0  0  0
 11 14  2  0  0  0  0
 12 13  2  0  0  0  0
 12  2  1  0  0  0  0
 13  7  1  0  0  0  0
 15  5  1  0  0  0  0
 17 16  1  0  0  0  0
 17  3  1  0  0  0  0
 18 10  1  0  0  0  0
 19 18  1  0  0  0  0
 20 23  1  6  0  0  0
 20 24  1  0  0  0  0
 21 22  1  0  0  0  0
 21 20  1  0  0  0  0
 22 25  1  0  0  0  0
 24 19  1  0  0  0  0
 25 24  1  0  0  0  0
M  END
>  <MODEL>
2

>  <REMARK>
 VINA RESULT:      -9.4      1.859      2.515
  Name = 
  4 active torsions:
  status: ('A' for Active; 'I' for Inactive)
    1  A    between atoms: C_6  and  C_16
    2  A    between atoms: C_6  and  C_25
    3  A    between atoms: C_7  and  O_15
    4  A    between atoms: N_22  and  C_25
                            x       y       z     vdW  Elec       q    Type
                         _______ _______ _______ _____ _____    ______ ____

>  <TORSDO>
F 4

$$$$
=
 OpenBabel11042420153D

 25 28  0  0  1  0  0  0  0  0999 V2000
  160.9490  206.2620  146.5290 C   0  0  0  0  0  3  0  0  0  0  0  0
  161.1610  203.3030  147.5400 C   0  0  0  0  0  0  0  0  0  0  0  0
  161.0240  205.5390  145.3290 C   0  0  0  0  0  0  0  0  0  0  0  0
  161.2270  202.2290  148.4160 C   0  0  0  0  0  3  0  0  0  0  0  0
  161.0320  204.2110  152.0580 C   0  0  0  0  0  0  0  0  0  0  0  0
  161.1930  203.1520  146.1670 C   0  0  0  0  0  3  0  0  0  0  0  0
  161.1690  202.7670  149.6860 C   0  0  0  0  0  0  0  0  0  0  0  0
  161.1310  204.1520  145.2050 C   0  0  0  0  0  3  0  0  0  0  0  0
  160.9620  205.8360  147.8490 C   0  0  0  0  0  3  0  0  0  0  0  0
  160.9950  204.9010  150.8280 C   0  0  0  0  0  0  0  0  0  0  0  0
  161.1330  202.8080  152.0850 C   0  0  0  0  0  3  0  0  0  0  0  0
  161.0580  204.5350  148.3140 C   0  0  0  0  0  0  0  0  0  0  0  0
  161.0690  204.1440  149.6430 C   0  0  0  0  0  0  0  0  0  0  0  0
  161.2020  202.0720  150.8930 C   0  0  0  0  0  3  0  0  0  0  0  0
  160.9690  204.9070  153.2610 O   0  0  0  0  0  1  0  0  0  0  0  0
  161.5660  205.7580  142.9140 C   0  0  0  0  0  1  0  0  0  0  0  0
  160.9890  206.2430  144.1200 O   0  0  0  0  0  0  0  0  0  0  0  0
  160.9140  206.3950  150.8090 C   0  0  0  0  0  2  0  0  0  0  0  0
  162.2830  207.0000  151.1290 C   0  0  0  0  0  2  0  0  0  0  0  0
  160.8910  208.2770  152.6170 C   0  0  2  0  0  3  0  0  0  0  0  0
  160.4370  209.7120  152.5040 C   0  0  0  0  0  2  0  0  0  0  0  0
  161.1730  210.2410  151.3040 C   0  0  0  0  0  2  0  0  0  0  0  0
  160.9670  207.8750  154.0760 C   0  0  0  0  0  1  0  0  0  0  0  0
  162.2130  208.1800  152.0010 N   0  0  0  0  0  0  0  0  0  0  0  0
  162.4240  209.3930  151.2130 C   0  0  0  0  0  2  0  0  0  0  0  0
  1  9  1  0  0  0  0
  2 12  1  0  0  0  0
  2  4  2  0  0  0  0
  3  1  2  0  0  0  0
  4  7  1  0  0  0  0
  5 11  1  0  0  0  0
  5 15  1  0  0  0  0
  6  2  1  0  0  0  0
  7 14  1  0  0  0  0
  8  3  1  0  0  0  0
  8  6  2  0  0  0  0
  9 12  2  0  0  0  0
 10  5  2  0  0  0  0
 12 13  1  0  0  0  0
 13  7  2  0  0  0  0
 13 10  1  0  0  0  0
 14 11  2  0  0  0  0
 16 17  1  0  0  0  0
 17  3  1  0  0  0  0
 18 10  1  0  0  0  0
 18 19  1  0  0  0  0
 19 24  1  0  0  0  0
 20 23  1  1  0  0  0
 21 20  1  0  0  0  0
 22 21  1  0  0  0  0
 24 20  1  0  0  0  0
 25 22  1  0  0  0  0
 25 24  1  0  0  0  0
M  END
>  <MODEL>
3

>  <REMARK>
 VINA RESULT:      -9.3      2.275      6.531
  Name = 
  4 active torsions:
  status: ('A' for Active; 'I' for Inactive)
    1  A    between atoms: C_6  and  C_16
    2  A    between atoms: C_6  and  C_25
    3  A    between atoms: C_7  and  O_15
    4  A    between atoms: N_22  and  C_25
                            x       y       z     vdW  Elec       q    Type
                         _______ _______ _______ _____ _____    ______ ____

>  <TORSDO>
F 4

$$$$
=
 OpenBabel11042420153D

 25 28  0  0  1  0  0  0  0  0999 V2000
  160.8310  203.4950  149.3110 C   0  0  0  0  0  3  0  0  0  0  0  0
  161.3640  205.2680  151.8400 C   0  0  0  0  0  0  0  0  0  0  0  0
  160.7740  202.5570  150.3530 C   0  0  0  0  0  0  0  0  0  0  0  0
  161.6210  206.3940  152.6090 C   0  0  0  0  0  3  0  0  0  0  0  0
  161.8380  209.2970  149.6490 C   0  0  0  0  0  0  0  0  0  0  0  0
  161.2060  204.0090  152.3860 C   0  0  0  0  0  3  0  0  0  0  0  0
  161.7150  207.4480  151.7230 C   0  0  0  0  0  0  0  0  0  0  0  0
  160.9450  202.8220  151.7130 C   0  0  0  0  0  3  0  0  0  0  0  0
  161.0610  204.8630  149.3310 C   0  0  0  0  0  3  0  0  0  0  0  0
  161.5810  207.9420  149.3500 C   0  0  0  0  0  0  0  0  0  0  0  0
  162.0250  209.7090  150.9810 C   0  0  0  0  0  3  0  0  0  0  0  0
  161.3010  205.6610  150.4370 C   0  0  0  0  0  0  0  0  0  0  0  0
  161.5280  207.0280  150.4200 C   0  0  0  0  0  0  0  0  0  0  0  0
  161.9650  208.7830  152.0330 C   0  0  0  0  0  3  0  0  0  0  0  0
  161.9080  210.2420  148.6320 O   0  0  0  0  0  1  0  0  0  0  0  0
  161.0330  200.5780  148.8730 C   0  0  0  0  0  1  0  0  0  0  0  0
  160.5220  201.2170  150.0360 O   0  0  0  0  0  0  0  0  0  0  0  0
  161.4080  207.5060  147.9290 C   0  0  0  0  0  2  0  0  0  0  0  0
  162.5870  206.6260  147.5020 C   0  0  0  0  0  2  0  0  0  0  0  0
  161.0510  205.3720  146.1440 C   0  0  2  0  0  3  0  0  0  0  0  0
  161.1920  203.9800  145.5770 C   0  0  0  0  0  2  0  0  0  0  0  0
  162.5990  203.5780  145.9300 C   0  0  0  0  0  2  0  0  0  0  0  0
  160.1560  206.2030  145.2470 C   0  0  0  0  0  1  0  0  0  0  0  0
  162.3850  205.9650  146.2080 N   0  0  0  0  0  0  0  0  0  0  0  0
  163.3560  204.8840  146.0450 C   0  0  0  0  0  2  0  0  0  0  0  0
  1  9  2  0  0  0  0
  1  3  1  0  0  0  0
  2  6  2  0  0  0  0
  2  4  1  0  0  0  0
  3  8  2  0  0  0  0
  5 11  1  0  0  0  0
  7 14  1  0  0  0  0
  7  4  2  0  0  0  0
  8  6  1  0  0  0  0
  9 12  1  0  0  0  0
 10  5  2  0  0  0  0
 10 13  1  0  0  0  0
 11 14  2  0  0  0  0
 12  2  1  0  0  0  0
 13 12  2  0  0  0  0
 13  7  1  0  0  0  0
 15  5  1  0  0  0  0
 16 17  1  0  0  0  0
 17  3  1  0  0  0  0
 18 10  1  0  0  0  0
 19 18  1  0  0  0  0
 20 23  1  6  0  0  0
 20 24  1  0  0  0  0
 21 22  1  0  0  0  0
 21 20  1  0  0  0  0
 22 25  1  0  0  0  0
 24 19  1  0  0  0  0
 25 24  1  0  0  0  0
M  END
>  <MODEL>
4

>  <REMARK>
 VINA RESULT:      -9.0      1.479      4.951
  Name = 
  4 active torsions:
  status: ('A' for Active; 'I' for Inactive)
    1  A    between atoms: C_6  and  C_16
    2  A    between atoms: C_6  and  C_25
    3  A    between atoms: C_7  and  O_15
    4  A    between atoms: N_22  and  C_25
                            x       y       z     vdW  Elec       q    Type
                         _______ _______ _______ _____ _____    ______ ____

>  <TORSDO>
F 4

$$$$
=
 OpenBabel11042420153D

 25 28  0  0  1  0  0  0  0  0999 V2000
  160.9290  202.6350  148.4780 C   0  0  0  0  0  3  0  0  0  0  0  0
  161.2760  203.7070  151.4030 C   0  0  0  0  0  0  0  0  0  0  0  0
  160.9640  201.4520  149.2300 C   0  0  0  0  0  0  0  0  0  0  0  0
  161.4170  204.6050  152.4520 C   0  0  0  0  0  3  0  0  0  0  0  0
  161.3480  208.2020  150.3810 C   0  0  0  0  0  0  0  0  0  0  0  0
  161.2430  202.3390  151.5880 C   0  0  0  0  0  3  0  0  0  0  0  0
  161.4070  205.8620  151.8820 C   0  0  0  0  0  0  0  0  0  0  0  0
  161.1040  201.3560  150.6160 C   0  0  0  0  0  3  0  0  0  0  0  0
  161.0200  203.9640  148.8690 C   0  0  0  0  0  3  0  0  0  0  0  0
  161.2290  206.9590  149.7240 C   0  0  0  0  0  0  0  0  0  0  0  0
  161.4900  208.2580  151.7800 C   0  0  0  0  0  3  0  0  0  0  0  0
  161.1770  204.4540  150.1540 C   0  0  0  0  0  0  0  0  0  0  0  0
  161.2650  205.7910  150.5100 C   0  0  0  0  0  0  0  0  0  0  0  0
  161.5200  207.0830  152.5440 C   0  0  0  0  0  3  0  0  0  0  0  0
  161.3250  209.3890  149.6560 O   0  0  0  0  0  1  0  0  0  0  0  0
  161.4430  199.9700  147.2930 C   0  0  0  0  0  1  0  0  0  0  0  0
  160.8490  200.2280  148.5590 O   0  0  0  0  0  0  0  0  0  0  0  0
  161.1040  206.9070  148.2340 C   0  0  0  0  0  2  0  0  0  0  0  0
  162.4660  206.6030  147.6040 C   0  0  0  0  0  2  0  0  0  0  0  0
  161.0570  205.5200  145.9850 C   0  0  2  0  0  3  0  0  0  0  0  0
  161.2600  204.2080  145.2670 C   0  0  0  0  0  2  0  0  0  0  0  0
  162.6390  203.7690  145.6790 C   0  0  0  0  0  2  0  0  0  0  0  0
  160.2260  206.4520  145.1260 C   0  0  0  0  0  1  0  0  0  0  0  0
  162.3760  206.1030  146.2260 N   0  0  0  0  0  0  0  0  0  0  0  0
  163.3690  205.0520  146.0120 C   0  0  0  0  0  2  0  0  0  0  0  0
  1  9  2  0  0  0  0
  1  3  1  0  0  0  0
  2  6  2  0  0  0  0
  2  4  1  0  0  0  0
  3  8  2  0  0  0  0
  5 11  1  0  0  0  0
  7  4  2  0  0  0  0
  7 14  1  0  0  0  0
  8  6  1  0  0  0  0
  9 12  1  0  0  0  0
 10  5  2  0  0  0  0
 10 13  1  0  0  0  0
 11 14  2  0  0  0  0
 12 13  2  0  0  0  0
 12  2  1  0  0  0  0
 13  7  1  0  0  0  0
 15  5  1  0  0  0  0
 16 17  1  0  0  0  0
 17  3  1  0  0  0  0
 18 10  1  0  0  0  0
 19 18  1  0  0  0  0
 20 23  1  6  0  0  0
 20 24  1  0  0  0  0
 21 22  1  0  0  0  0
 21 20  1  0  0  0  0
 22 25  1  0  0  0  0
 24 19  1  0  0  0  0
 25 24  1  0  0  0  0
M  END
>  <MODEL>
5

>  <REMARK>
 VINA RESULT:      -8.8      1.460      5.259
  Name = 
  4 active torsions:
  status: ('A' for Active; 'I' for Inactive)
    1  A    between atoms: C_6  and  C_16
    2  A    between atoms: C_6  and  C_25
    3  A    between atoms: C_7  and  O_15
    4  A    between atoms: N_22  and  C_25
                            x       y       z     vdW  Elec       q    Type
                         _______ _______ _______ _____ _____    ______ ____

>  <TORSDO>
F 4

$$$$
=
 OpenBabel11042420153D

 25 28  0  0  1  0  0  0  0  0999 V2000
  161.9290  206.3370  147.0340 C   0  0  0  0  0  3  0  0  0  0  0  0
  161.2030  203.6350  148.4450 C   0  0  0  0  0  0  0  0  0  0  0  0
  161.8290  205.4510  145.9510 C   0  0  0  0  0  0  0  0  0  0  0  0
  160.9090  202.7340  149.4580 C   0  0  0  0  0  3  0  0  0  0  0  0
  161.1790  205.2160  152.7750 C   0  0  0  0  0  0  0  0  0  0  0  0
  161.2410  203.2750  147.1110 C   0  0  0  0  0  3  0  0  0  0  0  0
  160.9670  203.4520  150.6360 C   0  0  0  0  0  0  0  0  0  0  0  0
  161.5200  204.0910  146.0230 C   0  0  0  0  0  3  0  0  0  0  0  0
  161.7630  206.1320  148.3960 C   0  0  0  0  0  3  0  0  0  0  0  0
  161.3990  205.6920  151.4660 C   0  0  0  0  0  0  0  0  0  0  0  0
  160.8520  203.8650  152.9970 C   0  0  0  0  0  3  0  0  0  0  0  0
  161.4460  204.9460  149.0360 C   0  0  0  0  0  0  0  0  0  0  0  0
  161.2870  204.7760  150.4020 C   0  0  0  0  0  0  0  0  0  0  0  0
  160.7430  202.9690  151.9230 C   0  0  0  0  0  3  0  0  0  0  0  0
  161.2820  206.0740  153.8650 O   0  0  0  0  0  1  0  0  0  0  0  0
  161.2610  205.5840  143.5360 C   0  0  0  0  0  1  0  0  0  0  0  0
  162.0540  205.9420  144.6600 O   0  0  0  0  0  0  0  0  0  0  0  0
  161.7710  207.1230  151.2400 C   0  0  0  0  0  2  0  0  0  0  0  0
  160.7860  208.0430  151.9680 C   0  0  0  0  0  2  0  0  0  0  0  0
  160.6360  209.7110  153.6920 C   0  0  2  0  0  3  0  0  0  0  0  0
  160.5100  211.2100  153.5630 C   0  0  0  0  0  2  0  0  0  0  0  0
  160.6450  211.4680  152.0870 C   0  0  0  0  0  2  0  0  0  0  0  0
  161.3390  209.3650  154.9880 C   0  0  0  0  0  1  0  0  0  0  0  0
  161.4180  209.2320  152.5540 N   0  0  0  0  0  0  0  0  0  0  0  0
  161.4660  210.3080  151.5650 C   0  0  0  0  0  2  0  0  0  0  0  0
  1  9  1  0  0  0  0
  2 12  1  0  0  0  0
  2  4  2  0  0  0  0
  3  8  1  0  0  0  0
  3  1  2  0  0  0  0
  4  7  1  0  0  0  0
  5 11  1  0  0  0  0
  5 15  1  0  0  0  0
  6  2  1  0  0  0  0
  7 14  1  0  0  0  0
  8  6  2  0  0  0  0
  9 12  2  0  0  0  0
 10  5  2  0  0  0  0
 12 13  1  0  0  0  0
 13  7  2  0  0  0  0
 13 10  1  0  0  0  0
 14 11  2  0  0  0  0
 16 17  1  0  0  0  0
 17  3  1  0  0  0  0
 18 10  1  0  0  0  0
 18 19  1  0  0  0  0
 19 24  1  0  0  0  0
 20 23  1  1  0  0  0
 21 20  1  0  0  0  0
 22 21  1  0  0  0  0
 24 20  1  0  0  0  0
 25 22  1  0  0  0  0
 25 24  1  0  0  0  0
M  END
>  <MODEL>
6

>  <REMARK>
 VINA RESULT:      -8.4      2.241      6.802
  Name = 
  4 active torsions:
  status: ('A' for Active; 'I' for Inactive)
    1  A    between atoms: C_6  and  C_16
    2  A    between atoms: C_6  and  C_25
    3  A    between atoms: C_7  and  O_15
    4  A    between atoms: N_22  and  C_25
                            x       y       z     vdW  Elec       q    Type
                         _______ _______ _______ _____ _____    ______ ____

>  <TORSDO>
F 4

$$$$
=
 OpenBabel11042420153D

 25 28  0  0  1  0  0  0  0  0999 V2000
  160.7010  203.6050  150.4000 C   0  0  0  0  0  3  0  0  0  0  0  0
  161.6050  205.8290  148.3860 C   0  0  0  0  0  0  0  0  0  0  0  0
  160.8640  202.8830  149.2080 C   0  0  0  0  0  0  0  0  0  0  0  0
  161.9560  207.0820  147.9010 C   0  0  0  0  0  3  0  0  0  0  0  0
  161.5100  209.3720  151.3350 C   0  0  0  0  0  0  0  0  0  0  0  0
  161.5950  204.6970  147.5950 C   0  0  0  0  0  3  0  0  0  0  0  0
  161.8470  207.9490  148.9700 C   0  0  0  0  0  0  0  0  0  0  0  0
  161.2650  203.4020  147.9760 C   0  0  0  0  0  3  0  0  0  0  0  0
  160.8770  204.9530  150.6780 C   0  0  0  0  0  3  0  0  0  0  0  0
  161.2620  207.9830  151.3250 C   0  0  0  0  0  0  0  0  0  0  0  0
  161.9270  210.0290  150.1630 C   0  0  0  0  0  3  0  0  0  0  0  0
  161.2720  205.9490  149.8010 C   0  0  0  0  0  0  0  0  0  0  0  0
  161.4390  207.2890  150.1130 C   0  0  0  0  0  0  0  0  0  0  0  0
  162.1000  209.3190  148.9660 C   0  0  0  0  0  3  0  0  0  0  0  0
  161.3460  210.1100  152.5030 O   0  0  0  0  0  1  0  0  0  0  0  0
  161.2200  200.5900  148.3200 C   0  0  0  0  0  1  0  0  0  0  0  0
  160.6100  201.5070  149.2190 O   0  0  0  0  0  0  0  0  0  0  0  0
  160.7940  207.2960  152.5690 C   0  0  0  0  0  2  0  0  0  0  0  0
  161.6410  207.7400  153.7650 C   0  0  0  0  0  2  0  0  0  0  0  0
  161.7220  208.6600  155.9850 C   0  0  2  0  0  3  0  0  0  0  0  0
  161.1120  208.1320  157.2610 C   0  0  0  0  0  2  0  0  0  0  0  0
  160.2970  206.9470  156.8190 C   0  0  0  0  0  2  0  0  0  0  0  0
  161.8310  210.1700  156.0540 C   0  0  0  0  0  1  0  0  0  0  0  0
  160.8470  208.2710  154.8800 N   0  0  0  0  0  0  0  0  0  0  0  0
  159.9380  207.2400  155.3790 C   0  0  0  0  0  2  0  0  0  0  0  0
  1  9  1  0  0  0  0
  2 12  1  0  0  0  0
  3 17  1  0  0  0  0
  3  1  2  0  0  0  0
  4  2  2  0  0  0  0
  4  7  1  0  0  0  0
  5 15  1  0  0  0  0
  6  8  2  0  0  0  0
  6  2  1  0  0  0  0
  7 13  1  0  0  0  0
  8  3  1  0  0  0  0
 10  5  1  0  0  0  0
 10 18  1  0  0  0  0
 11  5  2  0  0  0  0
 12 13  1  0  0  0  0
 12  9  2  0  0  0  0
 13 10  2  0  0  0  0
 14  7  2  0  0  0  0
 14 11  1  0  0  0  0
 16 17  1  0  0  0  0
 18 19  1  0  0  0  0
 19 24  1  0  0  0  0
 20 23  1  1  0  0  0
 20 21  1  0  0  0  0
 22 21  1  0  0  0  0
 24 25  1  0  0  0  0
 24 20  1  0  0  0  0
 25 22  1  0  0  0  0
M  END
>  <MODEL>
7

>  <REMARK>
 VINA RESULT:      -8.3      2.482      7.902
  Name = 
  4 active torsions:
  status: ('A' for Active; 'I' for Inactive)
    1  A    between atoms: C_6  and  C_16
    2  A    between atoms: C_6  and  C_25
    3  A    between atoms: C_7  and  O_15
    4  A    between atoms: N_22  and  C_25
                            x       y       z     vdW  Elec       q    Type
                         _______ _______ _______ _____ _____    ______ ____

>  <TORSDO>
F 4

$$$$
=
 OpenBabel11042420153D

 25 28  0  0  1  0  0  0  0  0999 V2000
  162.0590  209.4670  148.6670 C   0  0  0  0  0  3  0  0  0  0  0  0
  161.4170  209.4420  151.7340 C   0  0  0  0  0  0  0  0  0  0  0  0
  161.9830  210.8350  148.9690 C   0  0  0  0  0  0  0  0  0  0  0  0
  161.1580  208.9500  153.0060 C   0  0  0  0  0  3  0  0  0  0  0  0
  161.3320  204.8660  152.2840 C   0  0  0  0  0  0  0  0  0  0  0  0
  161.4650  210.7930  151.4500 C   0  0  0  0  0  3  0  0  0  0  0  0
  161.1910  207.5740  152.8970 C   0  0  0  0  0  0  0  0  0  0  0  0
  161.7170  211.3910  150.2210 C   0  0  0  0  0  3  0  0  0  0  0  0
  161.9000  208.3480  149.4720 C   0  0  0  0  0  3  0  0  0  0  0  0
  161.5410  205.8150  151.2620 C   0  0  0  0  0  0  0  0  0  0  0  0
  161.0600  205.2840  153.6000 C   0  0  0  0  0  3  0  0  0  0  0  0
  161.6130  208.3180  150.8260 C   0  0  0  0  0  0  0  0  0  0  0  0
  161.4610  207.1790  151.6000 C   0  0  0  0  0  0  0  0  0  0  0  0
  160.9870  206.6480  153.9170 C   0  0  0  0  0  3  0  0  0  0  0  0
  161.3940  203.5040  152.0070 O   0  0  0  0  0  1  0  0  0  0  0  0
  163.3130  212.6290  147.8800 C   0  0  0  0  0  1  0  0  0  0  0  0
  162.1890  211.7600  147.9390 O   0  0  0  0  0  0  0  0  0  0  0  0
  161.8040  205.3630  149.8600 C   0  0  0  0  0  2  0  0  0  0  0  0
  160.4860  205.2360  149.0920 C   0  0  0  0  0  2  0  0  0  0  0  0
  161.8200  204.0320  147.4960 C   0  0  2  0  0  3  0  0  0  0  0  0
  162.6200  204.5590  146.3290 C   0  0  0  0  0  2  0  0  0  0  0  0
  162.2870  206.0250  146.2820 C   0  0  0  0  0  2  0  0  0  0  0  0
  161.3620  202.6170  147.2080 C   0  0  0  0  0  1  0  0  0  0  0  0
  160.6630  204.9080  147.6720 N   0  0  0  0  0  0  0  0  0  0  0  0
  160.9120  206.1280  146.9070 C   0  0  0  0  0  2  0  0  0  0  0  0
  1  3  2  0  0  0  0
  1  9  1  0  0  0  0
  2  4  2  0  0  0  0
  3  8  1  0  0  0  0
  5 11  1  0  0  0  0
  6  2  1  0  0  0  0
  7  4  1  0  0  0  0
  7 14  1  0  0  0  0
  8  6  2  0  0  0  0
  9 12  2  0  0  0  0
 10 13  1  0  0  0  0
 10  5  2  0  0  0  0
 11 14  2  0  0  0  0
 12 13  1  0  0  0  0
 12  2  1  0  0  0  0
 13  7  2  0  0  0  0
 15  5  1  0  0  0  0
 16 17  1  0  0  0  0
 17  3  1  0  0  0  0
 18 10  1  0  0  0  0
 19 18  1  0  0  0  0
 20 23  1  6  0  0  0
 20 24  1  0  0  0  0
 21 20  1  0  0  0  0
 22 21  1  0  0  0  0
 22 25  1  0  0  0  0
 24 19  1  0  0  0  0
 25 24  1  0  0  0  0
M  END
>  <MODEL>
8

>  <REMARK>
 VINA RESULT:      -8.2      2.282      3.487
  Name = 
  4 active torsions:
  status: ('A' for Active; 'I' for Inactive)
    1  A    between atoms: C_6  and  C_16
    2  A    between atoms: C_6  and  C_25
    3  A    between atoms: C_7  and  O_15
    4  A    between atoms: N_22  and  C_25
                            x       y       z     vdW  Elec       q    Type
                         _______ _______ _______ _____ _____    ______ ____

>  <TORSDO>
F 4

$$$$
=
 OpenBabel11042420153D

 25 28  0  0  1  0  0  0  0  0999 V2000
  161.9890  205.6320  146.9570 C   0  0  0  0  0  3  0  0  0  0  0  0
  161.1080  205.0580  149.9100 C   0  0  0  0  0  0  0  0  0  0  0  0
  161.6260  204.2780  146.9050 C   0  0  0  0  0  0  0  0  0  0  0  0
  160.8380  205.2780  151.2530 C   0  0  0  0  0  3  0  0  0  0  0  0
  161.8820  209.2820  151.5890 C   0  0  0  0  0  0  0  0  0  0  0  0
  160.9170  203.8350  149.2980 C   0  0  0  0  0  3  0  0  0  0  0  0
  161.1490  206.6010  151.4940 C   0  0  0  0  0  0  0  0  0  0  0  0
  161.1510  203.5080  147.9680 C   0  0  0  0  0  3  0  0  0  0  0  0
  161.9830  206.5350  148.0110 C   0  0  0  0  0  3  0  0  0  0  0  0
  161.9830  208.5830  150.3680 C   0  0  0  0  0  0  0  0  0  0  0  0
  161.4120  208.6320  152.7450 C   0  0  0  0  0  3  0  0  0  0  0  0
  161.6010  206.2980  149.3200 C   0  0  0  0  0  0  0  0  0  0  0  0
  161.6070  207.2260  150.3500 C   0  0  0  0  0  0  0  0  0  0  0  0
  161.0400  207.2800  152.7050 C   0  0  0  0  0  3  0  0  0  0  0  0
  162.2450  210.6220  151.6670 O   0  0  0  0  0  1  0  0  0  0  0  0
  160.8310  202.5890  145.2640 C   0  0  0  0  0  1  0  0  0  0  0  0
  161.7370  203.6010  145.6840 O   0  0  0  0  0  0  0  0  0  0  0  0
  162.5080  209.2740  149.1490 C   0  0  0  0  0  2  0  0  0  0  0  0
  161.5140  210.3400  148.6800 C   0  0  0  0  0  2  0  0  0  0  0  0
  160.9570  212.6720  148.5150 C   0  0  2  0  0  3  0  0  0  0  0  0
  161.5450  213.7340  147.6180 C   0  0  0  0  0  2  0  0  0  0  0  0
  162.6880  213.0430  146.9250 C   0  0  0  0  0  2  0  0  0  0  0  0
  160.4440  213.3050  149.7930 C   0  0  0  0  0  1  0  0  0  0  0  0
  162.0150  211.7120  148.8210 N   0  0  0  0  0  0  0  0  0  0  0  0
  163.1070  211.9420  147.8760 C   0  0  0  0  0  2  0  0  0  0  0  0
  1  9  1  0  0  0  0
  2  4  2  0  0  0  0
  3  1  2  0  0  0  0
  3  8  1  0  0  0  0
  4  7  1  0  0  0  0
  5 15  1  0  0  0  0
  5 11  1  0  0  0  0
  6  2  1  0  0  0  0
  7 14  1  0  0  0  0
  8  6  2  0  0  0  0
  9 12  2  0  0  0  0
 10  5  2  0  0  0  0
 12  2  1  0  0  0  0
 12 13  1  0  0  0  0
 13 10  1  0  0  0  0
 13  7  2  0  0  0  0
 14 11  2  0  0  0  0
 16 17  1  0  0  0  0
 17  3  1  0  0  0  0
 18 10  1  0  0  0  0
 19 24  1  0  0  0  0
 19 18  1  0  0  0  0
 20 24  1  0  0  0  0
 20 23  1  1  0  0  0
 21 20  1  0  0  0  0
 22 21  1  0  0  0  0
 22 25  1  0  0  0  0
 25 24  1  0  0  0  0
M  END
>  <MODEL>
9

>  <REMARK>
 VINA RESULT:      -7.9      3.004      6.694
  Name = 
  4 active torsions:
  status: ('A' for Active; 'I' for Inactive)
    1  A    between atoms: C_6  and  C_16
    2  A    between atoms: C_6  and  C_25
    3  A    between atoms: C_7  and  O_15
    4  A    between atoms: N_22  and  C_25
                            x       y       z     vdW  Elec       q    Type
                         _______ _______ _______ _____ _____    ______ ____

>  <TORSDO>
F 4

$$$$
