=
 OpenBabel11052411173D

 27 29  0  0  1  0  0  0  0  0999 V2000
  161.5230  206.8550  149.9090 C   0  0  2  0  0  3  0  0  0  0  0  0
  162.3250  208.5980  148.4830 O   0  0  0  0  0  0  0  0  0  0  0  0
  161.9880  207.3880  148.5900 C   0  0  0  0  0  0  0  0  0  0  0  0
  161.6620  205.4620  145.5830 C   0  0  0  0  0  0  0  0  0  0  0  0
  163.0220  205.6460  147.1980 O   0  0  0  0  0  0  0  0  0  0  0  0
  162.0520  206.5000  147.4240 C   0  0  0  0  0  0  0  0  0  0  0  0
  161.1190  206.4370  146.4050 C   0  0  0  0  0  3  0  0  0  0  0  0
  162.8200  204.9980  146.0900 N   0  0  0  0  0  0  0  0  0  0  0  0
  161.0800  204.9880  144.3230 C   0  0  0  0  0  0  0  0  0  0  0  0
  160.1950  203.9160  144.3270 O   0  0  0  0  0  1  0  0  0  0  0  0
  161.3760  205.5480  143.2340 O   0  0  0  0  0  0  0  0  0  0  0  0
  160.3890  205.8580  149.6980 C   0  0  0  0  0  2  0  0  0  0  0  0
  161.1890  201.1390  149.5030 N   0  0  0  0  0  0  0  0  0  0  0  0
  161.1800  202.1330  151.6930 N   0  0  0  0  0  0  0  0  0  0  0  0
  161.0880  202.1740  150.3450 C   0  0  0  0  0  0  0  0  0  0  0  0
  160.8430  203.3830  149.6500 C   0  0  2  0  0  3  0  0  0  0  0  0
  160.7870  204.4870  151.7310 N   0  0  0  0  0  0  0  0  0  0  0  0
  160.6930  204.5600  150.3710 C   0  0  0  0  0  0  0  0  0  0  0  0
  161.0090  201.6860  148.2710 C   0  0  0  0  0  3  0  0  0  0  0  0
  161.0290  203.3030  152.3840 C   0  0  0  0  0  3  0  0  0  0  0  0
  160.7900  203.0720  148.3130 C   0  0  0  0  0  3  0  0  0  0  0  0
  161.1010  207.9080  150.7280 O   0  0  0  0  0  0  0  0  0  0  0  0
  161.9300  207.8480  151.8530 C   0  0  0  0  0  2  0  0  0  0  0  0
  161.1280  208.1010  153.0830 C   0  0  0  0  0  0  0  0  0  0  0  0
  160.5090  209.1920  153.2100 O   0  0  0  0  0  0  0  0  0  0  0  0
  161.0660  207.1030  154.1060 N   0  0  0  0  0  2  0  0  0  0  0  0
  160.3140  207.3030  155.3340 C   0  0  0  0  0  1  0  0  0  0  0  0
  1 12  1  6  0  0  0
  1 22  1  0  0  0  0
  2  3  2  0  0  0  0
  3  1  1  0  0  0  0
  4  8  2  0  0  0  0
  4  7  1  0  0  0  0
  5  6  1  0  0  0  0
  6  3  1  0  0  0  0
  7  6  2  0  0  0  0
  8  5  1  0  0  0  0
  9 10  1  0  0  0  0
  9  4  1  0  0  0  0
 11  9  2  0  0  0  0
 12 18  1  0  0  0  0
 13 15  2  0  0  0  0
 14 20  2  0  0  0  0
 15 14  1  0  0  0  0
 16 21  1  1  0  0  0
 16 15  1  0  0  0  0
 16 18  1  0  0  0  0
 17 20  1  0  0  0  0
 18 17  2  0  0  0  0
 19 21  2  0  0  0  0
 19 13  1  0  0  0  0
 22 23  1  0  0  0  0
 23 24  1  0  0  0  0
 24 25  2  0  0  0  0
 24 26  1  0  0  0  0
 26 27  1  0  0  0  0
M  END
>  <MODEL>
1

>  <REMARK>
 VINA RESULT:      -7.8      0.000      0.000
  Name = 
  8 active torsions:
  status: ('A' for Active; 'I' for Inactive)
    1  A    between atoms: C_5  and  C_13
    2  A    between atoms: C_5  and  C_19
    3  A    between atoms: C_6  and  C_23
    4  A    between atoms: C_7  and  C_8
    5  A    between atoms: C_9  and  C_14
    6  A    between atoms: C_9  and  C_19
    7  A    between atoms: C_19  and  O_20
    8  A    between atoms: O_20  and  C_23
                            x       y       z     vdW  Elec       q    Type
                         _______ _______ _______ _____ _____    ______ ____

>  <TORSDO>
F 8

$$$$
=
 OpenBabel11052411173D

 27 29  0  0  1  0  0  0  0  0999 V2000
  160.9310  207.0300  149.9940 C   0  0  2  0  0  3  0  0  0  0  0  0
  161.8800  208.7430  148.6230 O   0  0  0  0  0  0  0  0  0  0  0  0
  161.5410  207.5330  148.7230 C   0  0  0  0  0  0  0  0  0  0  0  0
  161.5500  205.4900  145.7770 C   0  0  0  0  0  0  0  0  0  0  0  0
  162.7900  205.8340  147.4600 O   0  0  0  0  0  0  0  0  0  0  0  0
  161.7450  206.6150  147.5970 C   0  0  0  0  0  0  0  0  0  0  0  0
  160.8830  206.4440  146.5280 C   0  0  0  0  0  3  0  0  0  0  0  0
  162.7070  205.1360  146.3670 N   0  0  0  0  0  0  0  0  0  0  0  0
  161.0830  204.9290  144.5040 C   0  0  0  0  0  0  0  0  0  0  0  0
  160.3280  203.7620  144.4940 O   0  0  0  0  0  1  0  0  0  0  0  0
  161.3630  205.5000  143.4170 O   0  0  0  0  0  0  0  0  0  0  0  0
  161.9750  207.0170  151.1050 C   0  0  0  0  0  2  0  0  0  0  0  0
  160.4050  208.3970  155.4150 N   0  0  0  0  0  0  0  0  0  0  0  0
  161.1050  210.1470  153.9210 N   0  0  0  0  0  0  0  0  0  0  0  0
  160.9000  208.8550  154.2580 C   0  0  0  0  0  0  0  0  0  0  0  0
  161.1870  207.7950  153.3660 C   0  0  2  0  0  3  0  0  0  0  0  0
  161.8870  209.4040  151.7920 N   0  0  0  0  0  0  0  0  0  0  0  0
  161.6940  208.0880  152.1070 C   0  0  0  0  0  0  0  0  0  0  0  0
  160.3770  207.0470  155.2610 C   0  0  0  0  0  3  0  0  0  0  0  0
  161.6040  210.4160  152.6760 C   0  0  0  0  0  3  0  0  0  0  0  0
  160.8500  206.6280  154.0070 C   0  0  0  0  0  3  0  0  0  0  0  0
  160.4110  205.7450  149.7980 O   0  0  0  0  0  0  0  0  0  0  0  0
  161.1320  204.9240  150.6710 C   0  0  0  0  0  2  0  0  0  0  0  0
  161.0530  203.5090  150.2120 C   0  0  0  0  0  0  0  0  0  0  0  0
  161.1010  202.5760  151.0580 O   0  0  0  0  0  0  0  0  0  0  0  0
  160.9230  203.2230  148.8160 N   0  0  0  0  0  2  0  0  0  0  0  0
  160.8620  201.8610  148.3110 C   0  0  0  0  0  1  0  0  0  0  0  0
  1 12  1  1  0  0  0
  2  3  2  0  0  0  0
  3  1  1  0  0  0  0
  4  8  2  0  0  0  0
  4  7  1  0  0  0  0
  5  6  1  0  0  0  0
  6  3  1  0  0  0  0
  7  6  2  0  0  0  0
  8  5  1  0  0  0  0
  9  4  1  0  0  0  0
 10  9  1  0  0  0  0
 11  9  2  0  0  0  0
 12 18  1  0  0  0  0
 14 15  1  0  0  0  0
 15 13  2  0  0  0  0
 16 21  1  6  0  0  0
 16 15  1  0  0  0  0
 17 18  2  0  0  0  0
 17 20  1  0  0  0  0
 18 16  1  0  0  0  0
 19 13  1  0  0  0  0
 20 14  2  0  0  0  0
 21 19  2  0  0  0  0
 22  1  1  0  0  0  0
 22 23  1  0  0  0  0
 24 23  1  0  0  0  0
 24 25  2  0  0  0  0
 26 24  1  0  0  0  0
 27 26  1  0  0  0  0
M  END
>  <MODEL>
2

>  <REMARK>
 VINA RESULT:      -7.7      1.696      5.059
  Name = 
  8 active torsions:
  status: ('A' for Active; 'I' for Inactive)
    1  A    between atoms: C_5  and  C_13
    2  A    between atoms: C_5  and  C_19
    3  A    between atoms: C_6  and  C_23
    4  A    between atoms: C_7  and  C_8
    5  A    between atoms: C_9  and  C_14
    6  A    between atoms: C_9  and  C_19
    7  A    between atoms: C_19  and  O_20
    8  A    between atoms: O_20  and  C_23
                            x       y       z     vdW  Elec       q    Type
                         _______ _______ _______ _____ _____    ______ ____

>  <TORSDO>
F 8

$$$$
=
 OpenBabel11052411173D

 27 29  0  0  1  0  0  0  0  0999 V2000
  160.8740  206.9120  150.0690 C   0  0  2  0  0  3  0  0  0  0  0  0
  161.7420  208.7120  148.7570 O   0  0  0  0  0  0  0  0  0  0  0  0
  161.4570  207.4850  148.8160 C   0  0  0  0  0  0  0  0  0  0  0  0
  161.5370  205.5290  145.8120 C   0  0  0  0  0  0  0  0  0  0  0  0
  162.7960  205.9230  147.4700 O   0  0  0  0  0  0  0  0  0  0  0  0
  161.6980  206.6170  147.6580 C   0  0  0  0  0  0  0  0  0  0  0  0
  160.8210  206.4080  146.6090 C   0  0  0  0  0  3  0  0  0  0  0  0
  162.7350  205.2510  146.3590 N   0  0  0  0  0  0  0  0  0  0  0  0
  161.0780  204.9690  144.5360 C   0  0  0  0  0  0  0  0  0  0  0  0
  161.3890  205.6100  143.3430 O   0  0  0  0  0  0  0  0  0  0  0  0
  160.4020  203.9060  144.5150 O   0  0  0  0  0  1  0  0  0  0  0  0
  161.9390  206.8460  151.1580 C   0  0  0  0  0  2  0  0  0  0  0  0
  160.6200  210.4930  153.9700 N   0  0  0  0  0  0  0  0  0  0  0  0
  160.4800  208.2950  154.9340 N   0  0  0  0  0  0  0  0  0  0  0  0
  160.7390  209.1610  153.9290 C   0  0  0  0  0  0  0  0  0  0  0  0
  161.2070  208.7230  152.6670 C   0  0  2  0  0  3  0  0  0  0  0  0
  161.1390  206.5150  153.4870 N   0  0  0  0  0  0  0  0  0  0  0  0
  161.4050  207.3660  152.4520 C   0  0  0  0  0  0  0  0  0  0  0  0
  161.0110  210.9060  152.7340 C   0  0  0  0  0  3  0  0  0  0  0  0
  160.6820  206.9620  154.7020 C   0  0  0  0  0  3  0  0  0  0  0  0
  161.3840  209.8450  151.8940 C   0  0  0  0  0  3  0  0  0  0  0  0
  160.3560  205.6360  149.8150 O   0  0  0  0  0  0  0  0  0  0  0  0
  161.1740  204.7610  150.5370 C   0  0  0  0  0  2  0  0  0  0  0  0
  161.0260  203.3780  150.0040 C   0  0  0  0  0  0  0  0  0  0  0  0
  160.9110  202.4110  150.8050 O   0  0  0  0  0  0  0  0  0  0  0  0
  161.0150  203.1600  148.5900 N   0  0  0  0  0  2  0  0  0  0  0  0
  160.8920  201.8310  148.0160 C   0  0  0  0  0  1  0  0  0  0  0  0
  1 12  1  1  0  0  0
  2  3  2  0  0  0  0
  3  1  1  0  0  0  0
  4  8  2  0  0  0  0
  4  7  1  0  0  0  0
  5  6  1  0  0  0  0
  6  3  1  0  0  0  0
  7  6  2  0  0  0  0
  8  5  1  0  0  0  0
  9  4  1  0  0  0  0
 10  9  2  0  0  0  0
 11  9  1  0  0  0  0
 12 18  1  0  0  0  0
 15 13  2  0  0  0  0
 15 14  1  0  0  0  0
 16 21  1  1  0  0  0
 16 15  1  0  0  0  0
 17 20  1  0  0  0  0
 18 16  1  0  0  0  0
 18 17  2  0  0  0  0
 19 13  1  0  0  0  0
 20 14  2  0  0  0  0
 21 19  2  0  0  0  0
 22  1  1  0  0  0  0
 22 23  1  0  0  0  0
 24 23  1  0  0  0  0
 24 25  2  0  0  0  0
 26 24  1  0  0  0  0
 27 26  1  0  0  0  0
M  END
>  <MODEL>
3

>  <REMARK>
 VINA RESULT:      -7.3      1.665      5.125
  Name = 
  8 active torsions:
  status: ('A' for Active; 'I' for Inactive)
    1  A    between atoms: C_5  and  C_13
    2  A    between atoms: C_5  and  C_19
    3  A    between atoms: C_6  and  C_23
    4  A    between atoms: C_7  and  C_8
    5  A    between atoms: C_9  and  C_14
    6  A    between atoms: C_9  and  C_19
    7  A    between atoms: C_19  and  O_20
    8  A    between atoms: O_20  and  C_23
                            x       y       z     vdW  Elec       q    Type
                         _______ _______ _______ _____ _____    ______ ____

>  <TORSDO>
F 8

$$$$
=
 OpenBabel11052411173D

 27 29  0  0  1  0  0  0  0  0999 V2000
  162.3290  207.4540  150.3560 C   0  0  2  0  0  3  0  0  0  0  0  0
  162.0640  209.5930  149.3210 O   0  0  0  0  0  0  0  0  0  0  0  0
  162.0190  208.9180  150.3850 C   0  0  0  0  0  0  0  0  0  0  0  0
  160.6110  210.3740  153.3440 C   0  0  0  0  0  0  0  0  0  0  0  0
  162.5290  210.0780  152.4920 O   0  0  0  0  0  0  0  0  0  0  0  0
  161.6610  209.5650  151.6520 C   0  0  0  0  0  0  0  0  0  0  0  0
  160.3770  209.7220  152.1440 C   0  0  0  0  0  3  0  0  0  0  0  0
  161.9290  210.5780  153.5300 N   0  0  0  0  0  0  0  0  0  0  0  0
  159.5820  210.7900  154.3020 C   0  0  0  0  0  0  0  0  0  0  0  0
  159.6270  210.3310  155.6140 O   0  0  0  0  0  1  0  0  0  0  0  0
  158.6540  211.5630  153.9450 O   0  0  0  0  0  0  0  0  0  0  0  0
  161.1050  206.6700  149.8970 C   0  0  0  0  0  2  0  0  0  0  0  0
  161.3350  202.6320  147.3310 N   0  0  0  0  0  0  0  0  0  0  0  0
  162.0060  204.6510  146.2100 N   0  0  0  0  0  0  0  0  0  0  0  0
  161.5390  203.9530  147.2690 C   0  0  0  0  0  0  0  0  0  0  0  0
  161.2160  204.5830  148.4950 C   0  0  2  0  0  3  0  0  0  0  0  0
  161.8620  206.6340  147.5310 N   0  0  0  0  0  0  0  0  0  0  0  0
  161.3840  205.9550  148.6160 C   0  0  0  0  0  0  0  0  0  0  0  0
  160.8820  202.4180  148.5960 C   0  0  0  0  0  3  0  0  0  0  0  0
  162.1640  206.0020  146.3490 C   0  0  0  0  0  3  0  0  0  0  0  0
  160.7950  203.5960  149.3530 C   0  0  0  0  0  3  0  0  0  0  0  0
  162.7340  207.0270  151.6260 O   0  0  0  0  0  0  0  0  0  0  0  0
  162.1380  205.7730  151.7950 C   0  0  0  0  0  2  0  0  0  0  0  0
  161.4120  205.7320  153.0960 C   0  0  0  0  0  0  0  0  0  0  0  0
  160.9190  204.6440  153.5000 O   0  0  0  0  0  0  0  0  0  0  0  0
  161.2840  206.9250  153.8740 N   0  0  0  0  0  2  0  0  0  0  0  0
  160.5700  206.9470  155.1400 C   0  0  0  0  0  1  0  0  0  0  0  0
  1 12  1  1  0  0  0
  1  3  1  0  0  0  0
  1 22  1  0  0  0  0
  2  3  2  0  0  0  0
  3  6  1  0  0  0  0
  4  8  2  0  0  0  0
  4  9  1  0  0  0  0
  5  8  1  0  0  0  0
  6  7  2  0  0  0  0
  6  5  1  0  0  0  0
  7  4  1  0  0  0  0
  9 10  1  0  0  0  0
 11  9  2  0  0  0  0
 13 19  1  0  0  0  0
 14 20  2  0  0  0  0
 14 15  1  0  0  0  0
 15 13  2  0  0  0  0
 15 16  1  0  0  0  0
 16 18  1  0  0  0  0
 16 21  1  1  0  0  0
 17 18  2  0  0  0  0
 18 12  1  0  0  0  0
 19 21  2  0  0  0  0
 20 17  1  0  0  0  0
 22 23  1  0  0  0  0
 23 24  1  0  0  0  0
 24 25  2  0  0  0  0
 24 26  1  0  0  0  0
 26 27  1  0  0  0  0
M  END
>  <MODEL>
4

>  <REMARK>
 VINA RESULT:      -7.1      2.846      5.888
  Name = 
  8 active torsions:
  status: ('A' for Active; 'I' for Inactive)
    1  A    between atoms: C_5  and  C_13
    2  A    between atoms: C_5  and  C_19
    3  A    between atoms: C_6  and  C_23
    4  A    between atoms: C_7  and  C_8
    5  A    between atoms: C_9  and  C_14
    6  A    between atoms: C_9  and  C_19
    7  A    between atoms: C_19  and  O_20
    8  A    between atoms: O_20  and  C_23
                            x       y       z     vdW  Elec       q    Type
                         _______ _______ _______ _____ _____    ______ ____

>  <TORSDO>
F 8

$$$$
=
 OpenBabel11052411173D

 27 29  0  0  1  0  0  0  0  0999 V2000
  162.1590  206.6170  148.7890 C   0  0  2  0  0  3  0  0  0  0  0  0
  162.1420  206.5720  146.3990 O   0  0  0  0  0  0  0  0  0  0  0  0
  161.9890  205.9280  147.4720 C   0  0  0  0  0  0  0  0  0  0  0  0
  161.1340  202.5090  146.8130 C   0  0  0  0  0  0  0  0  0  0  0  0
  161.5470  203.7350  148.4910 O   0  0  0  0  0  0  0  0  0  0  0  0
  161.6470  204.5020  147.4310 C   0  0  0  0  0  0  0  0  0  0  0  0
  161.3880  203.7660  146.2890 C   0  0  0  0  0  3  0  0  0  0  0  0
  161.2370  202.5180  148.1560 N   0  0  0  0  0  0  0  0  0  0  0  0
  160.8030  201.3110  146.0340 C   0  0  0  0  0  0  0  0  0  0  0  0
  160.0340  201.4220  144.8820 O   0  0  0  0  0  0  0  0  0  0  0  0
  161.2140  200.1780  146.4020 O   0  0  0  0  0  1  0  0  0  0  0  0
  160.8160  206.7130  149.5050 C   0  0  0  0  0  2  0  0  0  0  0  0
  161.0930  207.4690  154.2260 N   0  0  0  0  0  0  0  0  0  0  0  0
  161.2120  205.1790  153.5010 N   0  0  0  0  0  0  0  0  0  0  0  0
  161.0840  206.5090  153.2950 C   0  0  0  0  0  0  0  0  0  0  0  0
  160.9360  207.0520  151.9960 C   0  0  2  0  0  3  0  0  0  0  0  0
  161.0590  204.8590  151.1410 N   0  0  0  0  0  0  0  0  0  0  0  0
  160.9230  206.1970  150.9020 C   0  0  0  0  0  0  0  0  0  0  0  0
  160.9510  208.6250  153.5240 C   0  0  0  0  0  3  0  0  0  0  0  0
  161.1970  204.3540  152.4110 C   0  0  0  0  0  3  0  0  0  0  0  0
  160.8520  208.4160  152.1390 C   0  0  0  0  0  3  0  0  0  0  0  0
  162.7000  207.8930  148.5940 O   0  0  0  0  0  0  0  0  0  0  0  0
  161.5950  208.7380  148.4440 C   0  0  0  0  0  2  0  0  0  0  0  0
  161.9540  210.1180  148.8780 C   0  0  0  0  0  0  0  0  0  0  0  0
  162.3870  210.3090  150.0470 O   0  0  0  0  0  0  0  0  0  0  0  0
  161.8060  211.2090  147.9660 N   0  0  0  0  0  2  0  0  0  0  0  0
  162.1230  212.5770  148.3430 C   0  0  0  0  0  1  0  0  0  0  0  0
  1 12  1  6  0  0  0
  2  3  2  0  0  0  0
  3  1  1  0  0  0  0
  4  8  2  0  0  0  0
  6  3  1  0  0  0  0
  6  5  1  0  0  0  0
  7  4  1  0  0  0  0
  7  6  2  0  0  0  0
  8  5  1  0  0  0  0
  9 11  1  0  0  0  0
  9  4  1  0  0  0  0
 10  9  2  0  0  0  0
 12 18  1  0  0  0  0
 15 14  1  0  0  0  0
 15 13  2  0  0  0  0
 16 21  1  6  0  0  0
 16 15  1  0  0  0  0
 17 20  1  0  0  0  0
 18 17  2  0  0  0  0
 18 16  1  0  0  0  0
 19 13  1  0  0  0  0
 20 14  2  0  0  0  0
 21 19  2  0  0  0  0
 22  1  1  0  0  0  0
 23 22  1  0  0  0  0
 23 24  1  0  0  0  0
 24 25  2  0  0  0  0
 26 27  1  0  0  0  0
 26 24  1  0  0  0  0
M  END
>  <MODEL>
5

>  <REMARK>
 VINA RESULT:      -6.9      2.395      4.537
  Name = 
  8 active torsions:
  status: ('A' for Active; 'I' for Inactive)
    1  A    between atoms: C_5  and  C_13
    2  A    between atoms: C_5  and  C_19
    3  A    between atoms: C_6  and  C_23
    4  A    between atoms: C_7  and  C_8
    5  A    between atoms: C_9  and  C_14
    6  A    between atoms: C_9  and  C_19
    7  A    between atoms: C_19  and  O_20
    8  A    between atoms: O_20  and  C_23
                            x       y       z     vdW  Elec       q    Type
                         _______ _______ _______ _____ _____    ______ ____

>  <TORSDO>
F 8

$$$$
=
 OpenBabel11052411173D

 27 29  0  0  1  0  0  0  0  0999 V2000
  161.5100  205.4970  150.2330 C   0  0  2  0  0  3  0  0  0  0  0  0
  160.2290  204.2770  151.8410 O   0  0  0  0  0  0  0  0  0  0  0  0
  160.8250  204.2640  150.7300 C   0  0  0  0  0  0  0  0  0  0  0  0
  160.9480  201.6170  148.3140 C   0  0  0  0  0  0  0  0  0  0  0  0
  160.7290  201.8280  150.4110 O   0  0  0  0  0  0  0  0  0  0  0  0
  160.8450  203.0390  149.9210 C   0  0  0  0  0  0  0  0  0  0  0  0
  160.9920  202.9820  148.5460 C   0  0  0  0  0  3  0  0  0  0  0  0
  160.7870  200.9380  149.4650 N   0  0  0  0  0  0  0  0  0  0  0  0
  161.0660  200.9720  147.0020 C   0  0  0  0  0  0  0  0  0  0  0  0
  160.6100  201.6250  145.8630 O   0  0  0  0  0  0  0  0  0  0  0  0
  161.5810  199.8270  146.8990 O   0  0  0  0  0  1  0  0  0  0  0  0
  162.5090  205.9940  151.2720 C   0  0  0  0  0  2  0  0  0  0  0  0
  160.4980  208.7830  154.6060 N   0  0  0  0  0  0  0  0  0  0  0  0
  161.3310  209.8950  152.6430 N   0  0  0  0  0  0  0  0  0  0  0  0
  161.1030  208.8080  153.4130 C   0  0  0  0  0  0  0  0  0  0  0  0
  161.4890  207.5080  153.0050 C   0  0  2  0  0  3  0  0  0  0  0  0
  162.3310  208.4590  151.0190 N   0  0  0  0  0  0  0  0  0  0  0  0
  162.1190  207.3440  151.7790 C   0  0  0  0  0  0  0  0  0  0  0  0
  160.4970  207.4700  154.9590 C   0  0  0  0  0  3  0  0  0  0  0  0
  161.9520  209.7110  151.4380 C   0  0  0  0  0  3  0  0  0  0  0  0
  161.0990  206.6440  153.9980 C   0  0  0  0  0  3  0  0  0  0  0  0
  160.5640  206.4890  149.9520 O   0  0  0  0  0  0  0  0  0  0  0  0
  160.1090  206.2030  148.6610 C   0  0  0  0  0  2  0  0  0  0  0  0
  161.2020  206.4440  147.6770 C   0  0  0  0  0  0  0  0  0  0  0  0
  162.0360  207.3670  147.8860 O   0  0  0  0  0  0  0  0  0  0  0  0
  161.2970  205.6250  146.5080 N   0  0  0  0  0  2  0  0  0  0  0  0
  162.3310  205.8280  145.5070 C   0  0  0  0  0  1  0  0  0  0  0  0
  1  3  1  0  0  0  0
  1 12  1  1  0  0  0
  3  2  2  0  0  0  0
  4  7  1  0  0  0  0
  4  8  2  0  0  0  0
  6  5  1  0  0  0  0
  6  3  1  0  0  0  0
  7  6  2  0  0  0  0
  8  5  1  0  0  0  0
  9  4  1  0  0  0  0
 10  9  2  0  0  0  0
 11  9  1  0  0  0  0
 12 18  1  0  0  0  0
 13 19  1  0  0  0  0
 14 15  1  0  0  0  0
 15 13  2  0  0  0  0
 16 15  1  0  0  0  0
 16 21  1  6  0  0  0
 17 20  1  0  0  0  0
 17 18  2  0  0  0  0
 18 16  1  0  0  0  0
 20 14  2  0  0  0  0
 21 19  2  0  0  0  0
 22  1  1  0  0  0  0
 23 22  1  0  0  0  0
 24 25  2  0  0  0  0
 24 23  1  0  0  0  0
 26 24  1  0  0  0  0
 27 26  1  0  0  0  0
M  END
>  <MODEL>
6

>  <REMARK>
 VINA RESULT:      -6.8      2.205      5.870
  Name = 
  8 active torsions:
  status: ('A' for Active; 'I' for Inactive)
    1  A    between atoms: C_5  and  C_13
    2  A    between atoms: C_5  and  C_19
    3  A    between atoms: C_6  and  C_23
    4  A    between atoms: C_7  and  C_8
    5  A    between atoms: C_9  and  C_14
    6  A    between atoms: C_9  and  C_19
    7  A    between atoms: C_19  and  O_20
    8  A    between atoms: O_20  and  C_23
                            x       y       z     vdW  Elec       q    Type
                         _______ _______ _______ _____ _____    ______ ____

>  <TORSDO>
F 8

$$$$
=
 OpenBabel11052411173D

 27 29  0  0  1  0  0  0  0  0999 V2000
  160.9270  207.3710  150.2390 C   0  0  2  0  0  3  0  0  0  0  0  0
  162.2950  208.7970  148.8930 O   0  0  0  0  0  0  0  0  0  0  0  0
  161.6040  207.7440  148.9580 C   0  0  0  0  0  0  0  0  0  0  0  0
  161.7330  205.3820  146.2630 C   0  0  0  0  0  0  0  0  0  0  0  0
  160.4930  206.9760  146.9040 O   0  0  0  0  0  0  0  0  0  0  0  0
  161.4660  206.8810  147.7790 C   0  0  0  0  0  0  0  0  0  0  0  0
  162.3230  205.8550  147.4240 C   0  0  0  0  0  3  0  0  0  0  0  0
  160.6210  206.0820  145.9690 N   0  0  0  0  0  0  0  0  0  0  0  0
  162.2270  204.2660  145.4490 C   0  0  0  0  0  0  0  0  0  0  0  0
  161.3450  203.2970  144.9880 O   0  0  0  0  0  0  0  0  0  0  0  0
  163.4510  204.1810  145.1630 O   0  0  0  0  0  1  0  0  0  0  0  0
  161.9390  207.3540  151.3790 C   0  0  0  0  0  2  0  0  0  0  0  0
  160.2220  208.4430  155.7160 N   0  0  0  0  0  0  0  0  0  0  0  0
  160.8370  210.2970  154.3130 N   0  0  0  0  0  0  0  0  0  0  0  0
  160.7060  208.9800  154.5900 C   0  0  0  0  0  0  0  0  0  0  0  0
  161.0710  207.9800  153.6570 C   0  0  2  0  0  3  0  0  0  0  0  0
  161.6950  209.6970  152.1680 N   0  0  0  0  0  0  0  0  0  0  0  0
  161.5780  208.3600  152.4220 C   0  0  0  0  0  0  0  0  0  0  0  0
  160.2790  207.1010  155.5030 C   0  0  0  0  0  3  0  0  0  0  0  0
  161.3380  210.6500  153.0910 C   0  0  0  0  0  3  0  0  0  0  0  0
  160.7960  206.7680  154.2410 C   0  0  0  0  0  3  0  0  0  0  0  0
  160.3170  206.1170  150.1090 O   0  0  0  0  0  0  0  0  0  0  0  0
  161.1270  205.2420  150.8400 C   0  0  0  0  0  2  0  0  0  0  0  0
  160.9760  203.8570  150.3110 C   0  0  0  0  0  0  0  0  0  0  0  0
  160.6670  203.6830  149.1010 O   0  0  0  0  0  0  0  0  0  0  0  0
  161.1850  202.7390  151.1780 N   0  0  0  0  0  2  0  0  0  0  0  0
  161.0330  201.3680  150.7200 C   0  0  0  0  0  1  0  0  0  0  0  0
  1 12  1  1  0  0  0
  2  3  2  0  0  0  0
  3  1  1  0  0  0  0
  4  7  1  0  0  0  0
  5  6  1  0  0  0  0
  6  3  1  0  0  0  0
  7  6  2  0  0  0  0
  8  4  2  0  0  0  0
  8  5  1  0  0  0  0
  9  4  1  0  0  0  0
 10  9  2  0  0  0  0
 11  9  1  0  0  0  0
 12 18  1  0  0  0  0
 14 15  1  0  0  0  0
 15 13  2  0  0  0  0
 16 21  1  6  0  0  0
 16 15  1  0  0  0  0
 17 18  2  0  0  0  0
 17 20  1  0  0  0  0
 18 16  1  0  0  0  0
 19 13  1  0  0  0  0
 20 14  2  0  0  0  0
 21 19  2  0  0  0  0
 22  1  1  0  0  0  0
 22 23  1  0  0  0  0
 24 23  1  0  0  0  0
 24 26  1  0  0  0  0
 25 24  2  0  0  0  0
 27 26  1  0  0  0  0
M  END
>  <MODEL>
7

>  <REMARK>
 VINA RESULT:      -6.8      1.807      5.142
  Name = 
  8 active torsions:
  status: ('A' for Active; 'I' for Inactive)
    1  A    between atoms: C_5  and  C_13
    2  A    between atoms: C_5  and  C_19
    3  A    between atoms: C_6  and  C_23
    4  A    between atoms: C_7  and  C_8
    5  A    between atoms: C_9  and  C_14
    6  A    between atoms: C_9  and  C_19
    7  A    between atoms: C_19  and  O_20
    8  A    between atoms: O_20  and  C_23
                            x       y       z     vdW  Elec       q    Type
                         _______ _______ _______ _____ _____    ______ ____

>  <TORSDO>
F 8

$$$$
=
 OpenBabel11052411173D

 27 29  0  0  1  0  0  0  0  0999 V2000
  161.0180  206.2000  150.4870 C   0  0  2  0  0  3  0  0  0  0  0  0
  163.0730  205.8950  151.6690 O   0  0  0  0  0  0  0  0  0  0  0  0
  161.8790  206.2970  151.7070 C   0  0  0  0  0  0  0  0  0  0  0  0
  160.6410  208.1830  154.4940 C   0  0  0  0  0  0  0  0  0  0  0  0
  160.8840  206.1500  153.9500 O   0  0  0  0  0  0  0  0  0  0  0  0
  161.3320  206.8640  152.9450 C   0  0  0  0  0  0  0  0  0  0  0  0
  161.2060  208.2120  153.2290 C   0  0  0  0  0  3  0  0  0  0  0  0
  160.4560  206.9160  154.9090 N   0  0  0  0  0  0  0  0  0  0  0  0
  160.2770  209.3590  155.2910 C   0  0  0  0  0  0  0  0  0  0  0  0
  160.2170  210.6130  154.6940 O   0  0  0  0  0  0  0  0  0  0  0  0
  160.0150  209.2400  156.5180 O   0  0  0  0  0  1  0  0  0  0  0  0
  161.7840  205.5170  149.3600 C   0  0  0  0  0  2  0  0  0  0  0  0
  160.7890  201.7590  146.5620 N   0  0  0  0  0  0  0  0  0  0  0  0
  160.3830  201.4770  148.9160 N   0  0  0  0  0  0  0  0  0  0  0  0
  160.7910  202.1760  147.8330 C   0  0  0  0  0  0  0  0  0  0  0  0
  161.2730  203.5030  147.9390 C   0  0  2  0  0  3  0  0  0  0  0  0
  160.9050  203.3760  150.2640 N   0  0  0  0  0  0  0  0  0  0  0  0
  161.3280  204.1050  149.1890 C   0  0  0  0  0  0  0  0  0  0  0  0
  161.2690  202.8180  145.8570 C   0  0  0  0  0  3  0  0  0  0  0  0
  160.4450  202.0880  150.1370 C   0  0  0  0  0  3  0  0  0  0  0  0
  161.5800  203.9200  146.6670 C   0  0  0  0  0  3  0  0  0  0  0  0
  160.6030  207.4770  150.0920 O   0  0  0  0  0  0  0  0  0  0  0  0
  161.5560  207.8960  149.1580 C   0  0  0  0  0  2  0  0  0  0  0  0
  161.9610  209.3000  149.4480 C   0  0  0  0  0  0  0  0  0  0  0  0
  162.3280  209.6150  150.6120 O   0  0  0  0  0  0  0  0  0  0  0  0
  161.9320  210.2770  148.4030 N   0  0  0  0  0  2  0  0  0  0  0  0
  162.2990  211.6640  148.6340 C   0  0  0  0  0  1  0  0  0  0  0  0
  1 12  1  6  0  0  0
  1  3  1  0  0  0  0
  2  3  2  0  0  0  0
  3  6  1  0  0  0  0
  4  8  2  0  0  0  0
  4  9  1  0  0  0  0
  5  8  1  0  0  0  0
  6  7  2  0  0  0  0
  6  5  1  0  0  0  0
  7  4  1  0  0  0  0
  9 11  1  0  0  0  0
 10  9  2  0  0  0  0
 13 15  2  0  0  0  0
 14 20  2  0  0  0  0
 15 16  1  0  0  0  0
 15 14  1  0  0  0  0
 16 21  1  6  0  0  0
 16 18  1  0  0  0  0
 18 12  1  0  0  0  0
 18 17  2  0  0  0  0
 19 13  1  0  0  0  0
 19 21  2  0  0  0  0
 20 17  1  0  0  0  0
 22  1  1  0  0  0  0
 23 24  1  0  0  0  0
 23 22  1  0  0  0  0
 24 25  2  0  0  0  0
 26 27  1  0  0  0  0
 26 24  1  0  0  0  0
M  END
>  <MODEL>
8

>  <REMARK>
 VINA RESULT:      -6.7      2.652      6.142
  Name = 
  8 active torsions:
  status: ('A' for Active; 'I' for Inactive)
    1  A    between atoms: C_5  and  C_13
    2  A    between atoms: C_5  and  C_19
    3  A    between atoms: C_6  and  C_23
    4  A    between atoms: C_7  and  C_8
    5  A    between atoms: C_9  and  C_14
    6  A    between atoms: C_9  and  C_19
    7  A    between atoms: C_19  and  O_20
    8  A    between atoms: O_20  and  C_23
                            x       y       z     vdW  Elec       q    Type
                         _______ _______ _______ _____ _____    ______ ____

>  <TORSDO>
F 8

$$$$
=
 OpenBabel11052411173D

 27 29  0  0  1  0  0  0  0  0999 V2000
  161.6370  208.1820  151.1860 C   0  0  2  0  0  3  0  0  0  0  0  0
  162.2290  209.7210  149.4540 O   0  0  0  0  0  0  0  0  0  0  0  0
  161.8450  208.5580  149.7520 C   0  0  0  0  0  0  0  0  0  0  0  0
  161.7930  206.2270  147.0280 C   0  0  0  0  0  0  0  0  0  0  0  0
  160.4600  206.9540  148.5060 O   0  0  0  0  0  0  0  0  0  0  0  0
  161.6030  207.5690  148.6950 C   0  0  0  0  0  0  0  0  0  0  0  0
  162.5300  207.1440  147.7600 C   0  0  0  0  0  3  0  0  0  0  0  0
  160.5370  206.1310  147.5030 N   0  0  0  0  0  0  0  0  0  0  0  0
  162.2920  205.4470  145.8900 C   0  0  0  0  0  0  0  0  0  0  0  0
  163.4570  204.7010  146.0160 O   0  0  0  0  0  1  0  0  0  0  0  0
  161.6680  205.4480  144.7960 O   0  0  0  0  0  0  0  0  0  0  0  0
  162.2160  209.2590  152.0970 C   0  0  0  0  0  2  0  0  0  0  0  0
  159.3890  209.9330  155.9040 N   0  0  0  0  0  0  0  0  0  0  0  0
  159.0160  211.3860  154.0240 N   0  0  0  0  0  0  0  0  0  0  0  0
  159.6570  210.3890  154.6740 C   0  0  0  0  0  0  0  0  0  0  0  0
  160.7250  209.6750  154.0810 C   0  0  2  0  0  3  0  0  0  0  0  0
  160.4580  211.0130  152.1590 N   0  0  0  0  0  0  0  0  0  0  0  0
  161.1270  210.0050  152.7940 C   0  0  0  0  0  0  0  0  0  0  0  0
  160.2860  208.9290  156.0950 C   0  0  0  0  0  3  0  0  0  0  0  0
  159.4270  211.6950  152.7570 C   0  0  0  0  0  3  0  0  0  0  0  0
  161.1320  208.7320  154.9930 C   0  0  0  0  0  3  0  0  0  0  0  0
  162.2390  206.9460  151.4480 O   0  0  0  0  0  0  0  0  0  0  0  0
  161.3710  206.2990  152.3330 C   0  0  0  0  0  2  0  0  0  0  0  0
  161.1630  204.8900  151.8940 C   0  0  0  0  0  0  0  0  0  0  0  0
  161.1000  203.9720  152.7570 O   0  0  0  0  0  0  0  0  0  0  0  0
  161.0360  204.5920  150.5010 N   0  0  0  0  0  2  0  0  0  0  0  0
  160.8510  203.2340  150.0170 C   0  0  0  0  0  1  0  0  0  0  0  0
  1 22  1  0  0  0  0
  1 12  1  1  0  0  0
  2  3  2  0  0  0  0
  3  1  1  0  0  0  0
  4  8  2  0  0  0  0
  4  7  1  0  0  0  0
  5  6  1  0  0  0  0
  6  3  1  0  0  0  0
  7  6  2  0  0  0  0
  8  5  1  0  0  0  0
  9 10  1  0  0  0  0
  9  4  1  0  0  0  0
 11  9  2  0  0  0  0
 12 18  1  0  0  0  0
 13 19  1  0  0  0  0
 14 15  1  0  0  0  0
 15 13  2  0  0  0  0
 16 15  1  0  0  0  0
 16 21  1  6  0  0  0
 17 20  1  0  0  0  0
 17 18  2  0  0  0  0
 18 16  1  0  0  0  0
 20 14  2  0  0  0  0
 21 19  2  0  0  0  0
 22 23  1  0  0  0  0
 24 23  1  0  0  0  0
 24 25  2  0  0  0  0
 26 24  1  0  0  0  0
 27 26  1  0  0  0  0
M  END
>  <MODEL>
9

>  <REMARK>
 VINA RESULT:      -6.6      2.389      5.759
  Name = 
  8 active torsions:
  status: ('A' for Active; 'I' for Inactive)
    1  A    between atoms: C_5  and  C_13
    2  A    between atoms: C_5  and  C_19
    3  A    between atoms: C_6  and  C_23
    4  A    between atoms: C_7  and  C_8
    5  A    between atoms: C_9  and  C_14
    6  A    between atoms: C_9  and  C_19
    7  A    between atoms: C_19  and  O_20
    8  A    between atoms: O_20  and  C_23
                            x       y       z     vdW  Elec       q    Type
                         _______ _______ _______ _____ _____    ______ ____

>  <TORSDO>
F 8

$$$$
