=
 OpenBabel11052410353D

 40 44  0  0  1  0  0  0  0  0999 V2000
  160.8630  206.5940  154.4320 C   0  0  0  0  0  3  0  0  0  0  0  0
  161.1140  207.1790  153.2390 C   0  0  0  0  0  0  0  0  0  0  0  0
  161.2180  209.2810  151.7310 C   0  0  0  0  0  1  0  0  0  0  0  0
  160.1820  208.7880  155.3660 C   0  0  0  0  0  0  0  0  0  0  0  0
  160.4030  207.3410  155.6670 C   0  0  0  0  0  2  0  0  0  0  0  0
  159.7490  209.7250  156.1990 C   0  0  0  0  0  3  0  0  0  0  0  0
  159.7320  211.0020  155.4600 C   0  0  0  0  0  3  0  0  0  0  0  0
  160.9220  208.6460  153.0500 C   0  0  0  0  0  0  0  0  0  0  0  0
  160.4750  209.3690  154.0800 C   0  0  0  0  0  0  0  0  0  0  0  0
  160.1550  210.7850  154.2150 C   0  0  0  0  0  0  0  0  0  0  0  0
  161.8990  204.0410  151.1740 C   0  0  0  0  0  2  0  0  0  0  0  0
  160.9580  204.3140  150.0800 N   0  0  0  0  0  0  0  0  0  0  0  0
  161.1530  205.7170  149.6930 C   0  0  0  0  0  2  0  0  0  0  0  0
  160.7150  206.6380  150.8280 C   0  0  0  0  0  2  0  0  0  0  0  0
  161.5460  206.3360  152.0750 C   0  0  2  0  0  3  0  0  0  0  0  0
  161.5130  204.8450  152.4110 C   0  0  0  0  0  2  0  0  0  0  0  0
  161.2900  203.4460  148.9350 C   0  0  1  0  0  3  0  0  0  0  0  0
  161.0940  200.9780  148.9560 C   0  0  0  0  0  2  0  0  0  0  0  0
  160.3390  202.2490  148.8640 C   0  0  1  0  0  3  0  0  0  0  0  0
  160.4190  201.5190  150.0660 O   0  0  0  0  0  0  0  0  0  0  0  0
  161.1590  204.2090  147.6130 C   0  0  0  0  0  2  0  0  0  0  0  0
  161.4330  204.0770  145.1970 N   0  0  0  0  0  1  0  0  0  0  0  0
  161.5440  203.3290  146.4370 C   0  0  0  0  0  2  0  0  0  0  0  0
  160.3130  211.8490  153.1800 C   0  0  0  0  0  2  0  0  0  0  0  0
  158.9560  212.2770  152.6360 C   0  0  0  0  0  2  0  0  0  0  0  0
  159.0360  213.6400  151.9640 C   0  0  0  0  0  2  0  0  0  0  0  0
  160.2870  213.5210  149.7980 C   0  0  0  0  0  3  0  0  0  0  0  0
  160.3110  213.4140  148.4040 C   0  0  0  0  0  3  0  0  0  0  0  0
  157.8960  213.2650  148.3720 C   0  0  0  0  0  3  0  0  0  0  0  0
  159.1170  213.2840  147.6820 C   0  0  0  0  0  0  0  0  0  0  0  0
  159.0670  213.4990  150.4800 C   0  0  0  0  0  0  0  0  0  0  0  0
  157.8710  213.3740  149.7650 C   0  0  0  0  0  3  0  0  0  0  0  0
  159.1470  213.1800  146.2140 C   0  0  0  0  0  0  0  0  0  0  0  0
  158.2090  212.5940  145.6040 O   0  0  0  0  0  0  0  0  0  0  0  0
  160.2160  213.7330  145.5010 O   0  0  0  0  0  0  0  0  0  0  0  0
  161.1000  212.9440  144.7150 C   0  0  0  0  0  2  0  0  0  0  0  0
  162.5490  213.3090  145.0050 C   0  0  2  0  0  3  0  0  0  0  0  0
  162.5970  214.4040  145.8650 O   0  0  0  0  0  1  0  0  0  0  0  0
  163.3070  213.6200  143.7210 C   0  0  0  0  0  2  0  0  0  0  0  0
  162.6710  213.0410  142.6210 O   0  0  0  0  0  1  0  0  0  0  0  0
  1  5  1  0  0  0  0
  2  1  2  0  0  0  0
  3  8  1  0  0  0  0
  4  5  1  0  0  0  0
  4  6  2  0  0  0  0
  7  6  1  0  0  0  0
  8  2  1  0  0  0  0
  8  9  2  0  0  0  0
  9 10  1  0  0  0  0
  9  4  1  0  0  0  0
 10  7  2  0  0  0  0
 11 16  1  0  0  0  0
 12 11  1  0  0  0  0
 13 12  1  0  0  0  0
 13 14  1  0  0  0  0
 14 15  1  0  0  0  0
 15 16  1  0  0  0  0
 15  2  1  1  0  0  0
 17 21  1  6  0  0  0
 17 12  1  0  0  0  0
 18 20  1  0  0  0  0
 19 17  1  1  0  0  0
 19 18  1  0  0  0  0
 19 20  1  0  0  0  0
 22 23  1  0  0  0  0
 23 21  1  0  0  0  0
 24 10  1  0  0  0  0
 25 24  1  0  0  0  0
 26 25  1  0  0  0  0
 27 31  1  0  0  0  0
 28 27  2  0  0  0  0
 29 32  1  0  0  0  0
 30 29  2  0  0  0  0
 30 28  1  0  0  0  0
 31 26  1  0  0  0  0
 32 31  2  0  0  0  0
 33 30  1  0  0  0  0
 34 33  2  0  0  0  0
 35 33  1  0  0  0  0
 36 37  1  0  0  0  0
 36 35  1  0  0  0  0
 37 38  1  1  0  0  0
 39 37  1  0  0  0  0
 40 39  1  0  0  0  0
M  END
>  <MODEL>
1

>  <REMARK>
 VINA RESULT:      -7.7      0.000      0.000
  Name = 
  14 active torsions:
  status: ('A' for Active; 'I' for Inactive)
    1  A    between atoms: C_1  and  C_24
    2  A    between atoms: C_1  and  C_35
    3  A    between atoms: O_2  and  C_12
    4  A    between atoms: O_2  and  C_25
    5  A    between atoms: N_7  and  C_32
    6  A    between atoms: C_9  and  C_39
    7  A    between atoms: C_12  and  C_17
    8  A    between atoms: C_13  and  C_15
    9  A    between atoms: C_17  and  C_19
   10  A    between atoms: C_21  and  C_32
   11  A    between atoms: C_23  and  C_24
   12  A    between atoms: C_23  and  C_40
   13  A    between atoms: C_25  and  C_34
   14  A    between atoms: C_32  and  C_39
                            x       y       z     vdW  Elec       q    Type
                         _______ _______ _______ _____ _____    ______ ____

>  <TORSDO>
F 14

$$$$
=
 OpenBabel11052410353D

 40 44  0  0  1  0  0  0  0  0999 V2000
  161.2880  211.0260  150.8510 C   0  0  0  0  0  3  0  0  0  0  0  0
  160.9710  210.4740  152.0430 C   0  0  0  0  0  0  0  0  0  0  0  0
  160.9180  208.4450  153.6510 C   0  0  0  0  0  1  0  0  0  0  0  0
  162.1670  208.8410  150.0720 C   0  0  0  0  0  0  0  0  0  0  0  0
  161.9720  210.2810  149.7220 C   0  0  0  0  0  3  0  0  0  0  0  0
  162.7000  207.8950  149.3110 C   0  0  0  0  0  3  0  0  0  0  0  0
  162.7160  206.6480  150.1000 C   0  0  0  0  0  3  0  0  0  0  0  0
  161.2610  209.0380  152.3230 C   0  0  0  0  0  0  0  0  0  0  0  0
  161.8220  208.3000  151.3620 C   0  0  1  0  0  3  0  0  0  0  0  0
  162.1950  206.8920  151.3010 C   0  0  0  0  0  0  0  0  0  0  0  0
  159.0110  213.3880  153.5910 C   0  0  0  0  0  2  0  0  0  0  0  0
  157.8730  212.5940  154.0740 N   0  0  0  0  0  0  0  0  0  0  0  0
  158.4340  211.4220  154.7590 C   0  0  0  0  0  2  0  0  0  0  0  0
  159.1460  210.5200  153.7560 C   0  0  0  0  0  2  0  0  0  0  0  0
  160.2740  211.3020  153.0830 C   0  0  2  0  0  3  0  0  0  0  0  0
  159.7630  212.6230  152.5070 C   0  0  0  0  0  2  0  0  0  0  0  0
  157.1050  213.3990  155.0410 C   0  0  1  0  0  3  0  0  0  0  0  0
  154.9100  214.4520  154.5880 C   0  0  0  0  0  2  0  0  0  0  0  0
  155.6020  213.1720  154.8670 C   0  0  1  0  0  3  0  0  0  0  0  0
  155.2230  213.5410  153.5620 O   0  0  0  0  0  0  0  0  0  0  0  0
  157.4590  213.0100  156.4800 C   0  0  0  0  0  2  0  0  0  0  0  0
  159.3740  214.4530  156.9080 N   0  0  0  0  0  1  0  0  0  0  0  0
  157.9850  214.2070  157.2530 C   0  0  0  0  0  2  0  0  0  0  0  0
  162.0810  205.8800  152.3930 C   0  0  0  0  0  2  0  0  0  0  0  0
  160.7680  205.1170  152.2850 C   0  0  0  0  0  2  0  0  0  0  0  0
  161.0100  203.6230  152.1200 C   0  0  0  0  0  2  0  0  0  0  0  0
  161.2950  201.9310  150.2960 C   0  0  0  0  0  3  0  0  0  0  0  0
  161.2870  201.5790  148.9430 C   0  0  0  0  0  3  0  0  0  0  0  0
  160.6480  203.8370  148.3560 C   0  0  0  0  0  3  0  0  0  0  0  0
  160.9630  202.5290  147.9640 C   0  0  0  0  0  0  0  0  0  0  0  0
  160.9770  203.2370  150.6800 C   0  0  0  0  0  0  0  0  0  0  0  0
  160.6570  204.1910  149.7080 C   0  0  0  0  0  3  0  0  0  0  0  0
  160.9650  202.1550  146.5400 C   0  0  0  0  0  0  0  0  0  0  0  0
  160.6000  200.9970  146.1920 O   0  0  0  0  0  0  0  0  0  0  0  0
  161.3720  203.0860  145.5790 O   0  0  0  0  0  0  0  0  0  0  0  0
  162.5410  203.8810  145.7320 C   0  0  0  0  0  2  0  0  0  0  0  0
  162.2920  205.3030  145.2480 C   0  0  2  0  0  3  0  0  0  0  0  0
  162.3890  206.1900  146.3180 O   0  0  0  0  0  1  0  0  0  0  0  0
  160.9260  205.4280  144.5870 C   0  0  0  0  0  2  0  0  0  0  0  0
  160.1010  206.2850  145.3180 O   0  0  0  0  0  1  0  0  0  0  0  0
  1  2  1  0  0  0  0
  2  8  2  0  0  0  0
  5  4  1  0  0  0  0
  5  1  2  0  0  0  0
  6  4  2  0  0  0  0
  6  7  1  0  0  0  0
  7 10  2  0  0  0  0
  8  3  1  0  0  0  0
  9  4  1  6  0  0  0
  9  8  1  0  0  0  0
 10  9  1  0  0  0  0
 10 24  1  0  0  0  0
 11 12  1  0  0  0  0
 12 13  1  0  0  0  0
 12 17  1  0  0  0  0
 14 13  1  0  0  0  0
 15  2  1  6  0  0  0
 15 14  1  0  0  0  0
 16 15  1  0  0  0  0
 16 11  1  0  0  0  0
 17 21  1  1  0  0  0
 18 19  1  0  0  0  0
 19 17  1  6  0  0  0
 20 18  1  0  0  0  0
 20 19  1  0  0  0  0
 21 23  1  0  0  0  0
 22 23  1  0  0  0  0
 25 24  1  0  0  0  0
 26 25  1  0  0  0  0
 27 31  1  0  0  0  0
 28 27  2  0  0  0  0
 29 32  1  0  0  0  0
 30 29  2  0  0  0  0
 30 28  1  0  0  0  0
 31 26  1  0  0  0  0
 32 31  2  0  0  0  0
 33 30  1  0  0  0  0
 34 33  2  0  0  0  0
 35 36  1  0  0  0  0
 35 33  1  0  0  0  0
 37 36  1  0  0  0  0
 37 38  1  1  0  0  0
 39 37  1  0  0  0  0
 39 40  1  0  0  0  0
M  END
>  <MODEL>
2

>  <REMARK>
 VINA RESULT:      -7.4      4.371      9.640
  Name = 
  14 active torsions:
  status: ('A' for Active; 'I' for Inactive)
    1  A    between atoms: C_1  and  C_24
    2  A    between atoms: C_1  and  C_35
    3  A    between atoms: O_2  and  C_12
    4  A    between atoms: O_2  and  C_25
    5  A    between atoms: N_7  and  C_32
    6  A    between atoms: C_9  and  C_39
    7  A    between atoms: C_12  and  C_17
    8  A    between atoms: C_13  and  C_15
    9  A    between atoms: C_17  and  C_19
   10  A    between atoms: C_21  and  C_32
   11  A    between atoms: C_23  and  C_24
   12  A    between atoms: C_23  and  C_40
   13  A    between atoms: C_25  and  C_34
   14  A    between atoms: C_32  and  C_39
                            x       y       z     vdW  Elec       q    Type
                         _______ _______ _______ _____ _____    ______ ____

>  <TORSDO>
F 14

$$$$
=
 OpenBabel11052410353D

 40 44  0  0  1  0  0  0  0  0999 V2000
  161.1130  206.1760  152.3580 C   0  0  0  0  0  3  0  0  0  0  0  0
  161.0650  207.3560  151.7000 C   0  0  0  0  0  0  0  0  0  0  0  0
  160.8880  209.9390  151.7030 C   0  0  0  0  0  1  0  0  0  0  0  0
  160.8590  207.3690  154.5180 C   0  0  0  0  0  0  0  0  0  0  0  0
  161.0590  206.0390  153.8660 C   0  0  0  0  0  2  0  0  0  0  0  0
  160.7320  207.6180  155.8140 C   0  0  0  0  0  3  0  0  0  0  0  0
  160.5960  209.0780  155.9740 C   0  0  0  0  0  3  0  0  0  0  0  0
  160.9250  208.6420  152.4420 C   0  0  0  0  0  0  0  0  0  0  0  0
  160.8250  208.6030  153.7730 C   0  0  0  0  0  0  0  0  0  0  0  0
  160.6470  209.6500  154.7720 C   0  0  0  0  0  0  0  0  0  0  0  0
  162.5180  207.4310  148.1490 C   0  0  0  0  0  2  0  0  0  0  0  0
  161.9320  206.1630  147.6950 N   0  0  0  0  0  0  0  0  0  0  0  0
  160.5170  206.1850  148.0890 C   0  0  0  0  0  2  0  0  0  0  0  0
  160.3970  206.1520  149.6090 C   0  0  0  0  0  2  0  0  0  0  0  0
  161.1060  207.3710  150.2000 C   0  0  2  0  0  3  0  0  0  0  0  0
  162.5360  207.4860  149.6720 C   0  0  0  0  0  2  0  0  0  0  0  0
  162.0240  206.0930  146.2250 C   0  0  1  0  0  3  0  0  0  0  0  0
  163.9200  204.5380  146.5720 C   0  0  0  0  0  2  0  0  0  0  0  0
  162.6920  204.7890  145.7820 C   0  0  1  0  0  3  0  0  0  0  0  0
  162.7080  203.8840  146.8610 O   0  0  0  0  0  0  0  0  0  0  0  0
  160.6320  206.1290  145.5870 C   0  0  0  0  0  2  0  0  0  0  0  0
  159.9110  204.0870  144.4720 N   0  0  0  0  0  1  0  0  0  0  0  0
  160.6100  205.3470  144.2850 C   0  0  0  0  0  2  0  0  0  0  0  0
  160.5840  211.1230  154.5350 C   0  0  0  0  0  2  0  0  0  0  0  0
  159.1380  211.5960  154.4660 C   0  0  0  0  0  2  0  0  0  0  0  0
  159.0580  213.0820  154.1480 C   0  0  0  0  0  2  0  0  0  0  0  0
  159.8180  213.2580  151.7680 C   0  0  0  0  0  3  0  0  0  0  0  0
  159.5540  213.4880  150.4140 C   0  0  0  0  0  3  0  0  0  0  0  0
  157.2100  213.8060  150.9230 C   0  0  0  0  0  3  0  0  0  0  0  0
  158.2490  213.7620  149.9830 C   0  0  0  0  0  0  0  0  0  0  0  0
  158.7770  213.3000  152.7000 C   0  0  0  0  0  0  0  0  0  0  0  0
  157.4730  213.5780  152.2770 C   0  0  0  0  0  3  0  0  0  0  0  0
  157.9780  214.0120  148.5570 C   0  0  0  0  0  0  0  0  0  0  0  0
  156.7880  214.0280  148.1350 O   0  0  0  0  0  0  0  0  0  0  0  0
  159.0420  214.2320  147.6770 O   0  0  0  0  0  0  0  0  0  0  0  0
  159.5060  213.2350  146.7730 C   0  0  0  0  0  2  0  0  0  0  0  0
  161.0260  213.1600  146.7890 C   0  0  2  0  0  3  0  0  0  0  0  0
  161.4990  212.9020  145.5040 O   0  0  0  0  0  1  0  0  0  0  0  0
  161.5140  212.0860  147.7510 C   0  0  0  0  0  2  0  0  0  0  0  0
  162.8220  212.3500  148.1640 O   0  0  0  0  0  1  0  0  0  0  0  0
  1  5  1  0  0  0  0
  2  1  2  0  0  0  0
  2  8  1  0  0  0  0
  3  8  1  0  0  0  0
  4  6  2  0  0  0  0
  5  4  1  0  0  0  0
  6  7  1  0  0  0  0
  8  9  2  0  0  0  0
  9  4  1  0  0  0  0
  9 10  1  0  0  0  0
 10  7  2  0  0  0  0
 11 16  1  0  0  0  0
 12 13  1  0  0  0  0
 12 11  1  0  0  0  0
 13 14  1  0  0  0  0
 14 15  1  0  0  0  0
 15  2  1  1  0  0  0
 16 15  1  0  0  0  0
 17 21  1  6  0  0  0
 17 12  1  0  0  0  0
 18 20  1  0  0  0  0
 19 17  1  1  0  0  0
 19 18  1  0  0  0  0
 19 20  1  0  0  0  0
 23 22  1  0  0  0  0
 23 21  1  0  0  0  0
 24 10  1  0  0  0  0
 25 24  1  0  0  0  0
 26 25  1  0  0  0  0
 27 31  1  0  0  0  0
 28 27  2  0  0  0  0
 29 32  1  0  0  0  0
 30 28  1  0  0  0  0
 30 29  2  0  0  0  0
 31 26  1  0  0  0  0
 32 31  2  0  0  0  0
 33 30  1  0  0  0  0
 34 33  2  0  0  0  0
 35 33  1  0  0  0  0
 36 37  1  0  0  0  0
 36 35  1  0  0  0  0
 37 38  1  6  0  0  0
 37 39  1  0  0  0  0
 39 40  1  0  0  0  0
M  END
>  <MODEL>
3

>  <REMARK>
 VINA RESULT:      -7.4      2.065      2.867
  Name = 
  14 active torsions:
  status: ('A' for Active; 'I' for Inactive)
    1  A    between atoms: C_1  and  C_24
    2  A    between atoms: C_1  and  C_35
    3  A    between atoms: O_2  and  C_12
    4  A    between atoms: O_2  and  C_25
    5  A    between atoms: N_7  and  C_32
    6  A    between atoms: C_9  and  C_39
    7  A    between atoms: C_12  and  C_17
    8  A    between atoms: C_13  and  C_15
    9  A    between atoms: C_17  and  C_19
   10  A    between atoms: C_21  and  C_32
   11  A    between atoms: C_23  and  C_24
   12  A    between atoms: C_23  and  C_40
   13  A    between atoms: C_25  and  C_34
   14  A    between atoms: C_32  and  C_39
                            x       y       z     vdW  Elec       q    Type
                         _______ _______ _______ _____ _____    ______ ____

>  <TORSDO>
F 14

$$$$
=
 OpenBabel11052410353D

 40 44  0  0  1  0  0  0  0  0999 V2000
  160.9630  206.4570  153.8540 C   0  0  0  0  0  3  0  0  0  0  0  0
  161.1770  207.1910  152.7390 C   0  0  0  0  0  0  0  0  0  0  0  0
  161.2480  209.4710  151.5130 C   0  0  0  0  0  1  0  0  0  0  0  0
  160.3380  208.5150  155.0890 C   0  0  0  0  0  0  0  0  0  0  0  0
  160.5550  207.0400  155.1920 C   0  0  0  0  0  2  0  0  0  0  0  0
  159.9450  209.3380  156.0520 C   0  0  0  0  0  3  0  0  0  0  0  0
  159.9140  210.7000  155.4860 C   0  0  0  0  0  3  0  0  0  0  0  0
  160.9930  208.6710  152.7490 C   0  0  0  0  0  0  0  0  0  0  0  0
  160.5910  209.2570  153.8790 C   0  0  0  0  0  0  0  0  0  0  0  0
  160.2900  210.6450  154.2090 C   0  0  0  0  0  0  0  0  0  0  0  0
  161.4600  204.4220  150.0960 C   0  0  0  0  0  2  0  0  0  0  0  0
  160.7980  205.1530  149.0080 N   0  0  0  0  0  0  0  0  0  0  0  0
  161.3950  206.4940  148.9730 C   0  0  0  0  0  2  0  0  0  0  0  0
  161.0320  207.2620  150.2400 C   0  0  0  0  0  2  0  0  0  0  0  0
  161.5580  206.5040  151.4600 C   0  0  2  0  0  3  0  0  0  0  0  0
  161.1020  205.0450  151.4410 C   0  0  0  0  0  2  0  0  0  0  0  0
  161.0750  204.4660  147.7330 C   0  0  1  0  0  3  0  0  0  0  0  0
  162.0080  204.9030  145.4820 C   0  0  0  0  0  2  0  0  0  0  0  0
  162.1290  205.2240  146.9230 C   0  0  1  0  0  3  0  0  0  0  0  0
  161.4870  206.0940  146.0210 O   0  0  0  0  0  0  0  0  0  0  0  0
  161.6190  203.0550  147.9790 C   0  0  0  0  0  2  0  0  0  0  0  0
  160.8430  201.6940  146.1140 N   0  0  0  0  0  1  0  0  0  0  0  0
  160.6270  202.0020  147.5170 C   0  0  0  0  0  2  0  0  0  0  0  0
  160.4210  211.8330  153.3150 C   0  0  0  0  0  2  0  0  0  0  0  0
  159.0670  212.2270  152.7400 C   0  0  0  0  0  2  0  0  0  0  0  0
  159.1210  213.6060  152.0970 C   0  0  0  0  0  2  0  0  0  0  0  0
  157.5140  213.2530  150.2090 C   0  0  0  0  0  3  0  0  0  0  0  0
  157.2370  213.1520  148.8420 C   0  0  0  0  0  3  0  0  0  0  0  0
  159.5620  213.5900  148.3360 C   0  0  0  0  0  3  0  0  0  0  0  0
  158.2580  213.3210  147.8970 C   0  0  0  0  0  0  0  0  0  0  0  0
  158.8150  213.5240  150.6400 C   0  0  0  0  0  0  0  0  0  0  0  0
  159.8400  213.6890  149.7020 C   0  0  0  0  0  3  0  0  0  0  0  0
  157.9620  213.2060  146.4590 C   0  0  0  0  0  0  0  0  0  0  0  0
  156.7920  212.9260  146.0770 O   0  0  0  0  0  0  0  0  0  0  0  0
  158.9810  213.4080  145.5230 O   0  0  0  0  0  0  0  0  0  0  0  0
  159.7800  212.3440  145.0210 C   0  0  0  0  0  2  0  0  0  0  0  0
  161.1930  212.8260  144.7240 C   0  0  2  0  0  3  0  0  0  0  0  0
  161.3440  214.1420  145.1560 O   0  0  0  0  0  1  0  0  0  0  0  0
  161.5090  212.7240  143.2380 C   0  0  0  0  0  2  0  0  0  0  0  0
  160.7860  211.6840  142.6500 O   0  0  0  0  0  1  0  0  0  0  0  0
  1  5  1  0  0  0  0
  2  8  1  0  0  0  0
  2  1  2  0  0  0  0
  3  8  1  0  0  0  0
  4  5  1  0  0  0  0
  4  6  2  0  0  0  0
  7  6  1  0  0  0  0
  8  9  2  0  0  0  0
  9 10  1  0  0  0  0
  9  4  1  0  0  0  0
 10  7  2  0  0  0  0
 11 16  1  0  0  0  0
 12 11  1  0  0  0  0
 13 12  1  0  0  0  0
 13 14  1  0  0  0  0
 14 15  1  0  0  0  0
 15  2  1  1  0  0  0
 16 15  1  0  0  0  0
 17 21  1  1  0  0  0
 17 12  1  0  0  0  0
 18 20  1  0  0  0  0
 18 19  1  0  0  0  0
 19 17  1  1  0  0  0
 20 19  1  0  0  0  0
 22 23  1  0  0  0  0
 23 21  1  0  0  0  0
 24 10  1  0  0  0  0
 25 24  1  0  0  0  0
 26 25  1  0  0  0  0
 27 31  1  0  0  0  0
 28 27  2  0  0  0  0
 29 32  1  0  0  0  0
 30 29  2  0  0  0  0
 30 28  1  0  0  0  0
 31 26  1  0  0  0  0
 32 31  2  0  0  0  0
 33 30  1  0  0  0  0
 34 33  2  0  0  0  0
 35 33  1  0  0  0  0
 36 35  1  0  0  0  0
 37 36  1  0  0  0  0
 37 38  1  6  0  0  0
 39 37  1  0  0  0  0
 40 39  1  0  0  0  0
M  END
>  <MODEL>
4

>  <REMARK>
 VINA RESULT:      -7.3      1.447      1.957
  Name = 
  14 active torsions:
  status: ('A' for Active; 'I' for Inactive)
    1  A    between atoms: C_1  and  C_24
    2  A    between atoms: C_1  and  C_35
    3  A    between atoms: O_2  and  C_12
    4  A    between atoms: O_2  and  C_25
    5  A    between atoms: N_7  and  C_32
    6  A    between atoms: C_9  and  C_39
    7  A    between atoms: C_12  and  C_17
    8  A    between atoms: C_13  and  C_15
    9  A    between atoms: C_17  and  C_19
   10  A    between atoms: C_21  and  C_32
   11  A    between atoms: C_23  and  C_24
   12  A    between atoms: C_23  and  C_40
   13  A    between atoms: C_25  and  C_34
   14  A    between atoms: C_32  and  C_39
                            x       y       z     vdW  Elec       q    Type
                         _______ _______ _______ _____ _____    ______ ____

>  <TORSDO>
F 14

$$$$
=
 OpenBabel11052410353D

 40 44  0  0  1  0  0  0  0  0999 V2000
  159.4120  213.8080  150.7980 C   0  0  0  0  0  3  0  0  0  0  0  0
  160.1890  213.1830  149.8850 C   0  0  0  0  0  0  0  0  0  0  0  0
  161.7840  211.2560  149.2150 C   0  0  0  0  0  1  0  0  0  0  0  0
  160.0410  212.1120  152.4950 C   0  0  0  0  0  0  0  0  0  0  0  0
  159.2050  213.3200  152.2180 C   0  0  0  0  0  2  0  0  0  0  0  0
  160.1340  211.4450  153.6380 C   0  0  0  0  0  3  0  0  0  0  0  0
  161.0470  210.3080  153.4140 C   0  0  0  0  0  3  0  0  0  0  0  0
  160.9410  211.9440  150.2380 C   0  0  0  0  0  0  0  0  0  0  0  0
  160.8470  211.4740  151.4850 C   0  0  0  0  0  0  0  0  0  0  0  0
  161.4650  210.3330  152.1490 C   0  0  0  0  0  0  0  0  0  0  0  0
  161.8900  214.4400  146.6830 C   0  0  0  0  0  2  0  0  0  0  0  0
  161.2110  213.5250  145.7550 N   0  0  0  0  0  0  0  0  0  0  0  0
  159.7810  213.5660  146.0900 C   0  0  0  0  0  2  0  0  0  0  0  0
  159.5510  212.9670  147.4740 C   0  0  0  0  0  2  0  0  0  0  0  0
  160.3380  213.7690  148.5110 C   0  0  2  0  0  3  0  0  0  0  0  0
  161.8060  213.9020  148.1070 C   0  0  0  0  0  2  0  0  0  0  0  0
  161.4000  214.0140  144.3770 C   0  0  1  0  0  3  0  0  0  0  0  0
  163.4600  214.0160  143.0050 C   0  0  0  0  0  2  0  0  0  0  0  0
  162.4270  213.1600  143.6320 C   0  0  1  0  0  3  0  0  0  0  0  0
  163.6950  213.3410  144.2160 O   0  0  0  0  0  0  0  0  0  0  0  0
  160.0890  213.9400  143.5860 C   0  0  0  0  0  2  0  0  0  0  0  0
  158.9940  213.0070  141.6210 N   0  0  0  0  0  1  0  0  0  0  0  0
  160.2430  213.0580  142.3600 C   0  0  0  0  0  2  0  0  0  0  0  0
  162.3700  209.3150  151.5390 C   0  0  0  0  0  2  0  0  0  0  0  0
  162.1580  207.9510  152.1830 C   0  0  0  0  0  2  0  0  0  0  0  0
  160.7870  207.3870  151.8390 C   0  0  0  0  0  2  0  0  0  0  0  0
  161.0240  206.4910  149.5120 C   0  0  0  0  0  3  0  0  0  0  0  0
  161.1090  205.4200  148.6180 C   0  0  0  0  0  3  0  0  0  0  0  0
  160.9550  203.8630  150.4630 C   0  0  0  0  0  3  0  0  0  0  0  0
  161.0770  204.1000  149.0860 C   0  0  0  0  0  0  0  0  0  0  0  0
  160.9050  206.2480  150.8840 C   0  0  0  0  0  0  0  0  0  0  0  0
  160.8680  204.9320  151.3580 C   0  0  0  0  0  3  0  0  0  0  0  0
  161.1590  202.9760  148.1390 C   0  0  0  0  0  0  0  0  0  0  0  0
  160.5960  201.8790  148.4110 O   0  0  0  0  0  0  0  0  0  0  0  0
  161.8620  203.1300  146.9390 O   0  0  0  0  0  0  0  0  0  0  0  0
  161.2270  203.5110  145.7250 C   0  0  0  0  0  2  0  0  0  0  0  0
  162.1120  204.4610  144.9300 C   0  0  2  0  0  3  0  0  0  0  0  0
  163.2930  204.7010  145.6290 O   0  0  0  0  0  1  0  0  0  0  0  0
  161.3960  205.7750  144.6490 C   0  0  0  0  0  2  0  0  0  0  0  0
  160.0490  205.6900  145.0080 O   0  0  0  0  0  1  0  0  0  0  0  0
  1  5  1  0  0  0  0
  2  8  1  0  0  0  0
  2  1  2  0  0  0  0
  3  8  1  0  0  0  0
  4  6  2  0  0  0  0
  5  4  1  0  0  0  0
  7  6  1  0  0  0  0
  8  9  2  0  0  0  0
  9 10  1  0  0  0  0
  9  4  1  0  0  0  0
 10  7  2  0  0  0  0
 11 16  1  0  0  0  0
 12 13  1  0  0  0  0
 12 11  1  0  0  0  0
 13 14  1  0  0  0  0
 14 15  1  0  0  0  0
 15  2  1  1  0  0  0
 16 15  1  0  0  0  0
 17 21  1  6  0  0  0
 17 12  1  0  0  0  0
 18 19  1  0  0  0  0
 18 20  1  0  0  0  0
 19 20  1  0  0  0  0
 19 17  1  1  0  0  0
 22 23  1  0  0  0  0
 23 21  1  0  0  0  0
 24 10  1  0  0  0  0
 24 25  1  0  0  0  0
 26 25  1  0  0  0  0
 27 31  1  0  0  0  0
 28 30  1  0  0  0  0
 28 27  2  0  0  0  0
 29 32  1  0  0  0  0
 30 29  2  0  0  0  0
 31 32  2  0  0  0  0
 31 26  1  0  0  0  0
 33 34  2  0  0  0  0
 33 30  1  0  0  0  0
 35 33  1  0  0  0  0
 36 35  1  0  0  0  0
 37 38  1  1  0  0  0
 37 36  1  0  0  0  0
 39 37  1  0  0  0  0
 39 40  1  0  0  0  0
M  END
>  <MODEL>
5

>  <REMARK>
 VINA RESULT:      -6.9      2.981      8.752
  Name = 
  14 active torsions:
  status: ('A' for Active; 'I' for Inactive)
    1  A    between atoms: C_1  and  C_24
    2  A    between atoms: C_1  and  C_35
    3  A    between atoms: O_2  and  C_12
    4  A    between atoms: O_2  and  C_25
    5  A    between atoms: N_7  and  C_32
    6  A    between atoms: C_9  and  C_39
    7  A    between atoms: C_12  and  C_17
    8  A    between atoms: C_13  and  C_15
    9  A    between atoms: C_17  and  C_19
   10  A    between atoms: C_21  and  C_32
   11  A    between atoms: C_23  and  C_24
   12  A    between atoms: C_23  and  C_40
   13  A    between atoms: C_25  and  C_34
   14  A    between atoms: C_32  and  C_39
                            x       y       z     vdW  Elec       q    Type
                         _______ _______ _______ _____ _____    ______ ____

>  <TORSDO>
F 14

$$$$
=
 OpenBabel11052410353D

 40 44  0  0  1  0  0  0  0  0999 V2000
  160.5140  210.6100  153.4060 C   0  0  0  0  0  3  0  0  0  0  0  0
  160.6260  210.0310  152.1890 C   0  0  0  0  0  0  0  0  0  0  0  0
  161.0310  207.9470  150.7060 C   0  0  0  0  0  1  0  0  0  0  0  0
  161.0020  208.4310  154.4870 C   0  0  0  0  0  0  0  0  0  0  0  0
  160.6460  209.8640  154.7190 C   0  0  0  0  0  2  0  0  0  0  0  0
  161.2270  207.5010  155.4050 C   0  0  0  0  0  3  0  0  0  0  0  0
  161.5010  206.2360  154.6970 C   0  0  0  0  0  3  0  0  0  0  0  0
  160.9240  208.5750  152.0570 C   0  0  0  0  0  0  0  0  0  0  0  0
  161.1000  207.8570  153.1690 C   0  0  0  0  0  0  0  0  0  0  0  0
  161.4300  206.4530  153.3850 C   0  0  0  0  0  0  0  0  0  0  0  0
  160.0320  213.1240  149.9970 C   0  0  0  0  0  2  0  0  0  0  0  0
  161.3510  213.1350  149.3500 N   0  0  0  0  0  0  0  0  0  0  0  0
  161.6190  211.7590  148.9110 C   0  0  0  0  0  2  0  0  0  0  0  0
  161.7810  210.8450  150.1220 C   0  0  0  0  0  2  0  0  0  0  0  0
  160.4970  210.8720  150.9530 C   0  0  2  0  0  3  0  0  0  0  0  0
  160.0840  212.3060  151.2820 C   0  0  0  0  0  2  0  0  0  0  0  0
  161.2990  214.0180  148.1710 C   0  0  1  0  0  3  0  0  0  0  0  0
  163.6200  213.2850  147.7190 C   0  0  0  0  0  2  0  0  0  0  0  0
  162.7050  214.4490  147.7500 C   0  0  1  0  0  3  0  0  0  0  0  0
  163.0480  213.8060  146.5450 O   0  0  0  0  0  0  0  0  0  0  0  0
  160.6680  213.2960  146.9750 C   0  0  0  0  0  2  0  0  0  0  0  0
  159.9070  214.2230  144.8550 N   0  0  0  0  0  1  0  0  0  0  0  0
  159.6460  214.1820  146.2830 C   0  0  0  0  0  2  0  0  0  0  0  0
  161.6080  205.3980  152.3440 C   0  0  0  0  0  2  0  0  0  0  0  0
  160.4680  204.3900  152.3980 C   0  0  0  0  0  2  0  0  0  0  0  0
  160.9530  202.9880  152.0570 C   0  0  0  0  0  2  0  0  0  0  0  0
  161.1740  203.8790  149.7270 C   0  0  0  0  0  3  0  0  0  0  0  0
  161.1900  203.6900  148.3420 C   0  0  0  0  0  3  0  0  0  0  0  0
  160.8480  201.3160  148.6610 C   0  0  0  0  0  3  0  0  0  0  0  0
  161.0280  202.4070  147.8000 C   0  0  0  0  0  0  0  0  0  0  0  0
  160.9970  202.7870  150.5800 C   0  0  0  0  0  0  0  0  0  0  0  0
  160.8300  201.5050  150.0460 C   0  0  0  0  0  3  0  0  0  0  0  0
  161.0370  202.2140  146.3400 C   0  0  0  0  0  0  0  0  0  0  0  0
  160.5440  201.1640  145.8400 O   0  0  0  0  0  0  0  0  0  0  0  0
  161.5900  203.1970  145.5140 O   0  0  0  0  0  0  0  0  0  0  0  0
  160.7960  204.1740  144.8500 C   0  0  0  0  0  2  0  0  0  0  0  0
  160.8830  205.5140  145.5660 C   0  0  2  0  0  3  0  0  0  0  0  0
  160.3980  206.5240  144.7380 O   0  0  0  0  0  1  0  0  0  0  0  0
  162.3140  205.8240  145.9850 C   0  0  0  0  0  2  0  0  0  0  0  0
  162.3310  206.6460  147.1130 O   0  0  0  0  0  1  0  0  0  0  0  0
  1  5  1  0  0  0  0
  2  1  2  0  0  0  0
  3  8  1  0  0  0  0
  4  5  1  0  0  0  0
  4  6  2  0  0  0  0
  7  6  1  0  0  0  0
  8  2  1  0  0  0  0
  8  9  2  0  0  0  0
  9 10  1  0  0  0  0
  9  4  1  0  0  0  0
 10  7  2  0  0  0  0
 11 16  1  0  0  0  0
 12 11  1  0  0  0  0
 13 12  1  0  0  0  0
 13 14  1  0  0  0  0
 14 15  1  0  0  0  0
 15 16  1  0  0  0  0
 15  2  1  1  0  0  0
 17 21  1  6  0  0  0
 17 12  1  0  0  0  0
 18 19  1  0  0  0  0
 19 17  1  1  0  0  0
 20 18  1  0  0  0  0
 20 19  1  0  0  0  0
 22 23  1  0  0  0  0
 23 21  1  0  0  0  0
 24 25  1  0  0  0  0
 24 10  1  0  0  0  0
 26 25  1  0  0  0  0
 27 31  1  0  0  0  0
 28 27  2  0  0  0  0
 29 32  1  0  0  0  0
 30 28  1  0  0  0  0
 30 29  2  0  0  0  0
 31 26  1  0  0  0  0
 32 31  2  0  0  0  0
 33 30  1  0  0  0  0
 34 33  2  0  0  0  0
 35 33  1  0  0  0  0
 36 35  1  0  0  0  0
 36 37  1  0  0  0  0
 37 38  1  6  0  0  0
 37 39  1  0  0  0  0
 39 40  1  0  0  0  0
M  END
>  <MODEL>
6

>  <REMARK>
 VINA RESULT:      -6.4      3.103      8.627
  Name = 
  14 active torsions:
  status: ('A' for Active; 'I' for Inactive)
    1  A    between atoms: C_1  and  C_24
    2  A    between atoms: C_1  and  C_35
    3  A    between atoms: O_2  and  C_12
    4  A    between atoms: O_2  and  C_25
    5  A    between atoms: N_7  and  C_32
    6  A    between atoms: C_9  and  C_39
    7  A    between atoms: C_12  and  C_17
    8  A    between atoms: C_13  and  C_15
    9  A    between atoms: C_17  and  C_19
   10  A    between atoms: C_21  and  C_32
   11  A    between atoms: C_23  and  C_24
   12  A    between atoms: C_23  and  C_40
   13  A    between atoms: C_25  and  C_34
   14  A    between atoms: C_32  and  C_39
                            x       y       z     vdW  Elec       q    Type
                         _______ _______ _______ _____ _____    ______ ____

>  <TORSDO>
F 14

$$$$
=
 OpenBabel11052410353D

 40 44  0  0  1  0  0  0  0  0999 V2000
  161.3450  206.6380  152.4460 C   0  0  0  0  0  3  0  0  0  0  0  0
  161.0380  206.7920  151.1390 C   0  0  0  0  0  0  0  0  0  0  0  0
  160.4580  205.7950  148.8200 C   0  0  0  0  0  1  0  0  0  0  0  0
  161.2770  204.1730  152.1710 C   0  0  0  0  0  0  0  0  0  0  0  0
  161.4610  205.2950  153.1410 C   0  0  0  0  0  2  0  0  0  0  0  0
  161.3470  202.8730  152.4240 C   0  0  0  0  0  3  0  0  0  0  0  0
  161.0560  202.1600  151.1660 C   0  0  0  0  0  3  0  0  0  0  0  0
  160.8120  205.6090  150.2600 C   0  0  0  0  0  0  0  0  0  0  0  0
  160.9400  204.3880  150.7860 C   0  0  0  0  0  0  0  0  0  0  0  0
  160.8230  203.0550  150.2080 C   0  0  0  0  0  0  0  0  0  0  0  0
  161.2810  210.6150  150.9130 C   0  0  0  0  0  2  0  0  0  0  0  0
  162.2690  210.6630  149.8280 N   0  0  0  0  0  0  0  0  0  0  0  0
  161.8070  209.7280  148.7930 C   0  0  0  0  0  2  0  0  0  0  0  0
  161.8660  208.2970  149.3170 C   0  0  0  0  0  2  0  0  0  0  0  0
  160.9700  208.1710  150.5500 C   0  0  2  0  0  3  0  0  0  0  0  0
  161.3030  209.2460  151.5840 C   0  0  0  0  0  2  0  0  0  0  0  0
  162.3010  212.0270  149.2690 C   0  0  1  0  0  3  0  0  0  0  0  0
  163.4520  213.3660  147.5340 C   0  0  0  0  0  2  0  0  0  0  0  0
  162.9130  212.0280  147.8660 C   0  0  1  0  0  3  0  0  0  0  0  0
  164.2880  212.3170  147.9590 O   0  0  0  0  0  0  0  0  0  0  0  0
  160.8850  212.6010  149.1460 C   0  0  0  0  0  2  0  0  0  0  0  0
  159.6300  213.9080  150.7730 N   0  0  0  0  0  1  0  0  0  0  0  0
  160.7720  213.9280  149.8760 C   0  0  0  0  0  2  0  0  0  0  0  0
  160.4520  202.7110  148.8030 C   0  0  0  0  0  2  0  0  0  0  0  0
  160.6090  201.2160  148.5560 C   0  0  0  0  0  2  0  0  0  0  0  0
  161.2840  200.9460  147.2180 C   0  0  0  0  0  2  0  0  0  0  0  0
  162.1990  203.1750  146.5370 C   0  0  0  0  0  3  0  0  0  0  0  0
  162.1540  204.3240  145.7420 C   0  0  0  0  0  3  0  0  0  0  0  0
  160.2190  203.4480  144.5830 C   0  0  0  0  0  3  0  0  0  0  0  0
  161.1640  204.4680  144.7590 C   0  0  0  0  0  0  0  0  0  0  0  0
  161.2550  202.1610  146.3540 C   0  0  0  0  0  0  0  0  0  0  0  0
  160.2620  202.3000  145.3790 C   0  0  0  0  0  3  0  0  0  0  0  0
  161.1160  205.6840  143.9300 C   0  0  0  0  0  0  0  0  0  0  0  0
  160.7650  206.7830  144.4430 O   0  0  0  0  0  0  0  0  0  0  0  0
  161.4600  205.6150  142.5760 O   0  0  0  0  0  0  0  0  0  0  0  0
  162.1450  206.6670  141.9070 C   0  0  0  0  0  2  0  0  0  0  0  0
  161.9620  206.5540  140.4000 C   0  0  2  0  0  3  0  0  0  0  0  0
  163.0920  205.9710  139.8300 O   0  0  0  0  0  1  0  0  0  0  0  0
  161.7040  207.9170  139.7720 C   0  0  0  0  0  2  0  0  0  0  0  0
  161.7720  207.8400  138.3800 O   0  0  0  0  0  1  0  0  0  0  0  0
  1  5  1  0  0  0  0
  2  1  2  0  0  0  0
  3  8  1  0  0  0  0
  4  6  2  0  0  0  0
  4  5  1  0  0  0  0
  7  6  1  0  0  0  0
  8  9  2  0  0  0  0
  8  2  1  0  0  0  0
  9  4  1  0  0  0  0
 10  9  1  0  0  0  0
 10  7  2  0  0  0  0
 11 16  1  0  0  0  0
 12 11  1  0  0  0  0
 13 14  1  0  0  0  0
 13 12  1  0  0  0  0
 14 15  1  0  0  0  0
 15  2  1  1  0  0  0
 15 16  1  0  0  0  0
 17 21  1  6  0  0  0
 17 12  1  0  0  0  0
 18 19  1  0  0  0  0
 18 20  1  0  0  0  0
 19 20  1  0  0  0  0
 19 17  1  1  0  0  0
 21 23  1  0  0  0  0
 23 22  1  0  0  0  0
 24 10  1  0  0  0  0
 25 24  1  0  0  0  0
 26 25  1  0  0  0  0
 28 27  2  0  0  0  0
 29 30  2  0  0  0  0
 29 32  1  0  0  0  0
 30 28  1  0  0  0  0
 31 27  1  0  0  0  0
 31 26  1  0  0  0  0
 32 31  2  0  0  0  0
 33 34  2  0  0  0  0
 33 30  1  0  0  0  0
 35 33  1  0  0  0  0
 36 35  1  0  0  0  0
 37 38  1  6  0  0  0
 37 36  1  0  0  0  0
 39 37  1  0  0  0  0
 40 39  1  0  0  0  0
M  END
>  <MODEL>
7

>  <REMARK>
 VINA RESULT:      -6.3      3.779      8.602
  Name = 
  14 active torsions:
  status: ('A' for Active; 'I' for Inactive)
    1  A    between atoms: C_1  and  C_24
    2  A    between atoms: C_1  and  C_35
    3  A    between atoms: O_2  and  C_12
    4  A    between atoms: O_2  and  C_25
    5  A    between atoms: N_7  and  C_32
    6  A    between atoms: C_9  and  C_39
    7  A    between atoms: C_12  and  C_17
    8  A    between atoms: C_13  and  C_15
    9  A    between atoms: C_17  and  C_19
   10  A    between atoms: C_21  and  C_32
   11  A    between atoms: C_23  and  C_24
   12  A    between atoms: C_23  and  C_40
   13  A    between atoms: C_25  and  C_34
   14  A    between atoms: C_32  and  C_39
                            x       y       z     vdW  Elec       q    Type
                         _______ _______ _______ _____ _____    ______ ____

>  <TORSDO>
F 14

$$$$
=
 OpenBabel11052410353D

 40 44  0  0  1  0  0  0  0  0999 V2000
  158.5710  214.4430  154.3380 C   0  0  0  0  0  3  0  0  0  0  0  0
  158.8230  213.5720  153.3370 C   0  0  0  0  0  0  0  0  0  0  0  0
  159.3150  211.1700  152.5010 C   0  0  0  0  0  1  0  0  0  0  0  0
  158.7670  212.6030  155.9900 C   0  0  0  0  0  0  0  0  0  0  0  0
  158.4670  214.0550  155.8000 C   0  0  0  0  0  2  0  0  0  0  0  0
  158.8020  211.9340  157.1340 C   0  0  0  0  0  3  0  0  0  0  0  0
  159.1010  210.5250  156.8150 C   0  0  0  0  0  3  0  0  0  0  0  0
  159.0510  212.1250  153.6190 C   0  0  0  0  0  0  0  0  0  0  0  0
  159.0210  211.7100  154.8880 C   0  0  0  0  0  0  0  0  0  0  0  0
  159.2320  210.4010  155.4950 C   0  0  0  0  0  0  0  0  0  0  0  0
  160.3490  214.3360  149.8990 C   0  0  0  0  0  2  0  0  0  0  0  0
  159.3830  213.5660  149.1050 N   0  0  0  0  0  0  0  0  0  0  0  0
  158.0460  213.9260  149.5970 C   0  0  0  0  0  2  0  0  0  0  0  0
  157.8640  213.4310  151.0280 C   0  0  0  0  0  2  0  0  0  0  0  0
  158.9240  214.0720  151.9250 C   0  0  2  0  0  3  0  0  0  0  0  0
  160.3270  213.8700  151.3510 C   0  0  0  0  0  2  0  0  0  0  0  0
  159.5020  213.9620  147.6900 C   0  0  1  0  0  3  0  0  0  0  0  0
  161.6050  213.0800  146.7270 C   0  0  0  0  0  2  0  0  0  0  0  0
  160.1490  212.8490  146.8640 C   0  0  1  0  0  3  0  0  0  0  0  0
  161.0870  212.1630  147.6600 O   0  0  0  0  0  0  0  0  0  0  0  0
  158.1220  214.2360  147.0810 C   0  0  0  0  0  2  0  0  0  0  0  0
  156.3700  213.3460  145.6430 N   0  0  0  0  0  1  0  0  0  0  0  0
  157.6130  213.0230  146.3220 C   0  0  0  0  0  2  0  0  0  0  0  0
  159.4970  209.1120  154.7900 C   0  0  0  0  0  2  0  0  0  0  0  0
  160.9890  208.8100  154.7620 C   0  0  0  0  0  2  0  0  0  0  0  0
  161.2540  207.3760  154.3260 C   0  0  0  0  0  2  0  0  0  0  0  0
  161.0740  206.0960  152.1810 C   0  0  0  0  0  3  0  0  0  0  0  0
  161.2210  206.0090  150.7930 C   0  0  0  0  0  3  0  0  0  0  0  0
  161.9920  208.3020  150.7290 C   0  0  0  0  0  3  0  0  0  0  0  0
  161.6790  207.1110  150.0580 C   0  0  0  0  0  0  0  0  0  0  0  0
  161.3840  207.2870  152.8430 C   0  0  0  0  0  0  0  0  0  0  0  0
  161.8460  208.3890  152.1160 C   0  0  0  0  0  3  0  0  0  0  0  0
  161.8410  207.0120  148.5980 C   0  0  0  0  0  0  0  0  0  0  0  0
  162.5070  207.8860  147.9760 O   0  0  0  0  0  0  0  0  0  0  0  0
  161.2550  205.9460  147.9070 O   0  0  0  0  0  0  0  0  0  0  0  0
  161.9050  205.2850  146.8280 C   0  0  0  0  0  2  0  0  0  0  0  0
  161.2830  205.6880  145.4980 C   0  0  2  0  0  3  0  0  0  0  0  0
  160.0110  206.2130  145.7110 O   0  0  0  0  0  1  0  0  0  0  0  0
  161.2070  204.5030  144.5440 C   0  0  0  0  0  2  0  0  0  0  0  0
  160.7500  203.3630  145.2100 O   0  0  0  0  0  1  0  0  0  0  0  0
  1  5  1  0  0  0  0
  2  8  1  0  0  0  0
  2  1  2  0  0  0  0
  3  8  1  0  0  0  0
  4  6  2  0  0  0  0
  5  4  1  0  0  0  0
  7  6  1  0  0  0  0
  8  9  2  0  0  0  0
  9 10  1  0  0  0  0
  9  4  1  0  0  0  0
 10  7  2  0  0  0  0
 11 16  1  0  0  0  0
 12 13  1  0  0  0  0
 12 11  1  0  0  0  0
 13 14  1  0  0  0  0
 14 15  1  0  0  0  0
 15  2  1  1  0  0  0
 16 15  1  0  0  0  0
 17 21  1  6  0  0  0
 17 12  1  0  0  0  0
 18 19  1  0  0  0  0
 18 20  1  0  0  0  0
 19 20  1  0  0  0  0
 19 17  1  1  0  0  0
 22 23  1  0  0  0  0
 23 21  1  0  0  0  0
 24 10  1  0  0  0  0
 25 24  1  0  0  0  0
 26 25  1  0  0  0  0
 27 31  1  0  0  0  0
 28 27  2  0  0  0  0
 29 32  1  0  0  0  0
 30 29  2  0  0  0  0
 30 28  1  0  0  0  0
 31 26  1  0  0  0  0
 32 31  2  0  0  0  0
 33 30  1  0  0  0  0
 34 33  2  0  0  0  0
 35 33  1  0  0  0  0
 36 35  1  0  0  0  0
 37 38  1  1  0  0  0
 37 36  1  0  0  0  0
 39 40  1  0  0  0  0
 39 37  1  0  0  0  0
M  END
>  <MODEL>
8

>  <REMARK>
 VINA RESULT:      -6.2      3.254      7.889
  Name = 
  14 active torsions:
  status: ('A' for Active; 'I' for Inactive)
    1  A    between atoms: C_1  and  C_24
    2  A    between atoms: C_1  and  C_35
    3  A    between atoms: O_2  and  C_12
    4  A    between atoms: O_2  and  C_25
    5  A    between atoms: N_7  and  C_32
    6  A    between atoms: C_9  and  C_39
    7  A    between atoms: C_12  and  C_17
    8  A    between atoms: C_13  and  C_15
    9  A    between atoms: C_17  and  C_19
   10  A    between atoms: C_21  and  C_32
   11  A    between atoms: C_23  and  C_24
   12  A    between atoms: C_23  and  C_40
   13  A    between atoms: C_25  and  C_34
   14  A    between atoms: C_32  and  C_39
                            x       y       z     vdW  Elec       q    Type
                         _______ _______ _______ _____ _____    ______ ____

>  <TORSDO>
F 14

$$$$
=
 OpenBabel11052410353D

 40 44  0  0  1  0  0  0  0  0999 V2000
  158.9160  212.5420  153.3110 C   0  0  0  0  0  3  0  0  0  0  0  0
  159.5470  211.7480  152.4170 C   0  0  0  0  0  0  0  0  0  0  0  0
  160.9390  209.6370  151.8570 C   0  0  0  0  0  1  0  0  0  0  0  0
  159.6310  211.0390  155.1510 C   0  0  0  0  0  0  0  0  0  0  0  0
  158.8420  212.2590  154.7980 C   0  0  0  0  0  2  0  0  0  0  0  0
  159.8120  210.5220  156.3580 C   0  0  0  0  0  3  0  0  0  0  0  0
  160.6250  209.3000  156.2000 C   0  0  0  0  0  3  0  0  0  0  0  0
  160.2580  210.5130  152.8580 C   0  0  0  0  0  0  0  0  0  0  0  0
  160.2780  210.2170  154.1600 C   0  0  0  0  0  0  0  0  0  0  0  0
  160.8980  209.1300  154.9070 C   0  0  0  0  0  0  0  0  0  0  0  0
  158.9440  213.8210  149.2450 C   0  0  0  0  0  2  0  0  0  0  0  0
  160.3560  213.9890  148.8760 N   0  0  0  0  0  0  0  0  0  0  0  0
  160.9820  212.6640  148.9800 C   0  0  0  0  0  2  0  0  0  0  0  0
  161.0060  212.2090  150.4360 C   0  0  0  0  0  2  0  0  0  0  0  0
  159.5740  212.1370  150.9680 C   0  0  2  0  0  3  0  0  0  0  0  0
  158.8260  213.4460  150.7180 C   0  0  0  0  0  2  0  0  0  0  0  0
  160.4340  214.4530  147.4790 C   0  0  1  0  0  3  0  0  0  0  0  0
  161.7230  214.1930  145.3820 C   0  0  0  0  0  2  0  0  0  0  0  0
  161.3280  213.5320  146.6470 C   0  0  1  0  0  3  0  0  0  0  0  0
  162.5920  214.1300  146.4870 O   0  0  0  0  0  0  0  0  0  0  0  0
  159.0480  214.4530  146.8250 C   0  0  0  0  0  2  0  0  0  0  0  0
  157.4690  212.6710  146.3110 N   0  0  0  0  0  1  0  0  0  0  0  0
  158.8110  213.1660  146.0550 C   0  0  0  0  0  2  0  0  0  0  0  0
  161.6670  207.9770  154.3520 C   0  0  0  0  0  2  0  0  0  0  0  0
  160.7330  206.9850  153.6720 C   0  0  0  0  0  2  0  0  0  0  0  0
  161.2520  205.5600  153.8020 C   0  0  0  0  0  2  0  0  0  0  0  0
  160.8590  205.5510  151.3290 C   0  0  0  0  0  3  0  0  0  0  0  0
  160.7730  204.8760  150.1070 C   0  0  0  0  0  3  0  0  0  0  0  0
  161.3350  202.7980  151.2120 C   0  0  0  0  0  3  0  0  0  0  0  0
  161.0110  203.4960  150.0400 C   0  0  0  0  0  0  0  0  0  0  0  0
  161.1860  204.8490  152.4920 C   0  0  0  0  0  0  0  0  0  0  0  0
  161.4200  203.4710  152.4340 C   0  0  0  0  0  3  0  0  0  0  0  0
  160.9110  202.7890  148.7520 C   0  0  0  0  0  0  0  0  0  0  0  0
  160.1060  201.8250  148.6240 O   0  0  0  0  0  0  0  0  0  0  0  0
  161.7080  203.1920  147.6760 O   0  0  0  0  0  0  0  0  0  0  0  0
  161.1830  203.3970  146.3700 C   0  0  0  0  0  2  0  0  0  0  0  0
  161.9530  204.4920  145.6470 C   0  0  2  0  0  3  0  0  0  0  0  0
  162.8200  205.1250  146.5350 O   0  0  0  0  0  1  0  0  0  0  0  0
  161.0080  205.5110  145.0240 C   0  0  0  0  0  2  0  0  0  0  0  0
  160.2020  206.0980  146.0020 O   0  0  0  0  0  1  0  0  0  0  0  0
  1  5  1  0  0  0  0
  2  8  1  0  0  0  0
  2  1  2  0  0  0  0
  3  8  1  0  0  0  0
  4  6  2  0  0  0  0
  5  4  1  0  0  0  0
  7  6  1  0  0  0  0
  8  9  2  0  0  0  0
  9 10  1  0  0  0  0
  9  4  1  0  0  0  0
 10  7  2  0  0  0  0
 11 16  1  0  0  0  0
 12 13  1  0  0  0  0
 12 11  1  0  0  0  0
 13 14  1  0  0  0  0
 14 15  1  0  0  0  0
 15  2  1  1  0  0  0
 16 15  1  0  0  0  0
 17 21  1  6  0  0  0
 17 12  1  0  0  0  0
 18 20  1  0  0  0  0
 18 19  1  0  0  0  0
 19 17  1  1  0  0  0
 20 19  1  0  0  0  0
 23 22  1  0  0  0  0
 23 21  1  0  0  0  0
 24 10  1  0  0  0  0
 25 26  1  0  0  0  0
 25 24  1  0  0  0  0
 27 31  1  0  0  0  0
 28 27  2  0  0  0  0
 29 32  1  0  0  0  0
 30 28  1  0  0  0  0
 30 29  2  0  0  0  0
 31 26  1  0  0  0  0
 32 31  2  0  0  0  0
 33 30  1  0  0  0  0
 34 33  2  0  0  0  0
 35 33  1  0  0  0  0
 36 35  1  0  0  0  0
 37 36  1  0  0  0  0
 37 38  1  1  0  0  0
 39 37  1  0  0  0  0
 39 40  1  0  0  0  0
M  END
>  <MODEL>
9

>  <REMARK>
 VINA RESULT:      -6.2      2.813      8.526
  Name = 
  14 active torsions:
  status: ('A' for Active; 'I' for Inactive)
    1  A    between atoms: C_1  and  C_24
    2  A    between atoms: C_1  and  C_35
    3  A    between atoms: O_2  and  C_12
    4  A    between atoms: O_2  and  C_25
    5  A    between atoms: N_7  and  C_32
    6  A    between atoms: C_9  and  C_39
    7  A    between atoms: C_12  and  C_17
    8  A    between atoms: C_13  and  C_15
    9  A    between atoms: C_17  and  C_19
   10  A    between atoms: C_21  and  C_32
   11  A    between atoms: C_23  and  C_24
   12  A    between atoms: C_23  and  C_40
   13  A    between atoms: C_25  and  C_34
   14  A    between atoms: C_32  and  C_39
                            x       y       z     vdW  Elec       q    Type
                         _______ _______ _______ _____ _____    ______ ____

>  <TORSDO>
F 14

$$$$
