=
 OpenBabel11042422423D

 66 74  0  0  1  0  0  0  0  0999 V2000
  163.1810  209.0430  147.7050 C   0  0  0  0  0  3  0  0  0  0  0  0
  163.0610  210.3400  148.0320 C   0  0  0  0  0  0  0  0  0  0  0  0
  164.2980  211.1690  147.8450 C   0  0  0  0  0  2  0  0  0  0  0  0
  161.8380  212.4530  148.8720 C   0  0  1  0  0  3  0  0  0  0  0  0
  161.7850  210.9350  148.6330 C   0  0  2  0  0  3  0  0  0  0  0  0
  164.0240  212.6610  147.9530 C   0  0  0  0  0  2  0  0  0  0  0  0
  163.2000  212.9370  149.1230 N   0  0  0  0  0  2  0  0  0  0  0  0
  161.3320  210.1910  149.9060 C   0  0  1  0  0  3  0  0  0  0  0  0
  160.5980  209.0500  149.5780 O   0  0  0  0  0  1  0  0  0  0  0  0
  163.0530  211.0280  151.4330 C   0  0  0  0  0  1  0  0  0  0  0  0
  162.4070  209.8450  150.8670 N   0  0  0  0  0  0  0  0  0  0  0  0
  161.8620  209.0790  152.0020 C   0  0  1  0  0  3  0  0  0  0  0  0
  162.0920  207.5700  151.8650 C   0  0  0  0  0  2  0  0  0  0  0  0
  160.8770  206.9130  151.6970 O   0  0  0  0  0  1  0  0  0  0  0  0
  162.4210  209.5860  153.3330 C   0  0  0  0  0  2  0  0  0  0  0  0
  159.9960  210.1330  153.9890 C   0  0  0  0  0  0  0  0  0  0  0  0
  160.0000  210.1210  156.4170 O   0  0  0  0  0  0  0  0  0  0  0  0
  159.3630  210.2710  152.8250 C   0  0  0  0  0  2  0  0  0  0  0  0
  159.2240  209.8730  155.2560 C   0  0  0  0  0  2  0  0  0  0  0  0
  162.4340  211.5070  156.6370 O   0  0  0  0  0  1  0  0  0  0  0  0
  161.4440  210.4470  154.1560 C   0  0  1  0  0  3  0  0  0  0  0  0
  161.6270  210.2020  155.9150 P   0  0  2  0  0  0  0  0  0  0  0  0
  162.3440  208.9160  156.2410 O   0  0  0  0  0  0  0  0  0  0  0  0
  161.1370  213.2460  147.7540 C   0  0  0  0  0  2  0  0  0  0  0  0
  159.3870  212.8740  150.2520 C   0  0  0  0  0  3  0  0  0  0  0  0
  159.0790  212.7980  146.3520 C   0  0  0  0  0  0  0  0  0  0  0  0
  155.7570  213.5650  150.4250 C   0  0  0  0  0  3  0  0  0  0  0  0
  159.7350  212.8390  147.6490 N   0  0  0  0  0  0  0  0  0  0  0  0
  155.0480  214.3010  154.5110 C   0  0  0  0  0  3  0  0  0  0  0  0
  156.3240  213.9080  154.0920 C   0  0  0  0  0  3  0  0  0  0  0  0
  157.0490  213.2150  150.0390 C   0  0  0  0  0  0  0  0  0  0  0  0
  158.0860  213.1190  150.9480 C   0  0  0  0  0  0  0  0  0  0  0  0
  154.2490  214.1990  152.2240 C   0  0  0  0  0  3  0  0  0  0  0  0
  156.5780  213.6620  152.7370 C   0  0  0  0  0  0  0  0  0  0  0  0
  156.9550  213.1440  147.4560 N   0  0  0  0  0  0  0  0  0  0  0  0
  157.7480  212.9860  146.2670 C   0  0  0  0  0  3  0  0  0  0  0  0
  157.8760  213.3350  152.3100 C   0  0  0  0  0  3  0  0  0  0  0  0
  155.5190  213.7970  151.7900 C   0  0  0  0  0  0  0  0  0  0  0  0
  154.0170  214.4530  153.5820 C   0  0  0  0  0  3  0  0  0  0  0  0
  158.9140  212.8520  148.8240 C   0  0  0  0  0  0  0  0  0  0  0  0
  157.6040  213.0130  148.7220 C   0  0  0  0  0  0  0  0  0  0  0  0
  159.8090  212.5900  145.1780 O   0  0  0  0  0  0  0  0  0  0  0  0
  158.5180  214.0030  143.7610 C   0  0  0  0  0  3  0  0  0  0  0  0
  158.8460  213.9440  141.2660 C   0  0  1  0  0  3  0  0  0  0  0  0
  159.9180  212.2340  142.7120 C   0  0  0  0  0  2  0  0  0  0  0  0
  157.9880  214.4530  142.4270 C   0  0  0  0  0  2  0  0  0  0  0  0
  159.0910  212.4520  141.4450 C   0  0  0  0  0  2  0  0  0  0  0  0
  158.1270  214.1940  139.9630 C   0  0  0  0  0  1  0  0  0  0  0  0
  159.3570  212.9640  143.9070 C   0  0  0  0  0  0  0  0  0  0  0  0
  162.1330  207.9920  147.9320 C   0  0  0  0  0  2  0  0  0  0  0  0
  162.4720  206.6540  147.2670 C   0  0  2  0  0  3  0  0  0  0  0  0
  162.0680  206.6010  145.7920 C   0  0  0  0  0  2  0  0  0  0  0  0
  162.4470  205.3120  145.2220 N   0  0  0  0  0  1  0  0  0  0  0  0
  161.9190  205.5930  148.0150 O   0  0  0  0  0  0  0  0  0  0  0  0
  160.8420  206.0490  148.8230 C   0  0  1  0  0  3  0  0  0  0  0  0
  159.8210  206.5600  148.0230 O   0  0  0  0  0  1  0  0  0  0  0  0
  160.2820  205.0290  149.8290 C   0  0  0  0  0  2  0  0  0  0  0  0
  160.4810  201.0030  150.5390 C   0  0  0  0  0  2  0  0  0  0  0  0
  162.3290  203.6470  149.6070 O   0  0  0  0  0  1  0  0  0  0  0  0
  160.9300  203.6650  149.6530 C   0  0  1  0  0  0  0  0  0  0  0  0
  160.1750  202.5070  150.3770 C   0  0  0  0  0  0  0  0  0  0  0  0
  161.2880  201.9680  151.2960 C   0  0  0  0  0  2  0  0  0  0  0  0
  160.2180  202.6750  148.8040 C   0  0  2  0  0  3  0  0  0  0  0  0
  162.0590  201.1210  148.3900 O   0  0  0  0  0  1  0  0  0  0  0  0
  161.1790  201.9010  147.9150 C   0  0  0  0  0  0  0  0  0  0  0  0
  161.1840  202.1690  146.5490 O   0  0  0  0  0  0  0  0  0  0  0  0
  1 50  1  0  0  0  0
  1  2  2  0  0  0  0
  2  5  1  0  0  0  0
  3  6  1  0  0  0  0
  3  2  1  0  0  0  0
  4 24  1  6  0  0  0
  4  7  1  0  0  0  0
  5  4  1  0  0  0  0
  5  8  1  1  0  0  0
  6  7  1  0  0  0  0
  8  9  1  6  0  0  0
  8 11  1  0  0  0  0
 11 10  1  0  0  0  0
 11 12  1  0  0  0  0
 12 13  1  6  0  0  0
 12 15  1  0  0  0  0
 14 13  1  0  0  0  0
 16 21  1  0  0  0  0
 16 19  1  0  0  0  0
 18 16  2  0  0  0  0
 19 17  1  0  0  0  0
 21 15  1  6  0  0  0
 21 22  1  0  0  0  0
 22 23  2  1  0  0  0
 22 17  1  0  0  0  0
 22 20  1  0  0  0  0
 25 32  1  0  0  0  0
 26 28  1  0  0  0  0
 27 38  1  0  0  0  0
 28 24  1  0  0  0  0
 28 40  1  0  0  0  0
 30 29  1  0  0  0  0
 31 27  2  0  0  0  0
 31 32  1  0  0  0  0
 32 37  2  0  0  0  0
 33 39  1  0  0  0  0
 34 30  2  0  0  0  0
 35 41  2  0  0  0  0
 36 26  2  0  0  0  0
 36 35  1  0  0  0  0
 37 34  1  0  0  0  0
 38 33  2  0  0  0  0
 38 34  1  0  0  0  0
 39 29  2  0  0  0  0
 40 25  2  0  0  0  0
 41 40  1  0  0  0  0
 41 31  1  0  0  0  0
 42 26  1  0  0  0  0
 43 49  2  0  0  0  0
 44 48  1  6  0  0  0
 44 47  1  0  0  0  0
 44 46  1  0  0  0  0
 45 49  1  0  0  0  0
 46 43  1  0  0  0  0
 47 45  1  0  0  0  0
 49 42  1  0  0  0  0
 51 52  1  6  0  0  0
 51 50  1  0  0  0  0
 51 54  1  0  0  0  0
 53 52  1  0  0  0  0
 54 55  1  0  0  0  0
 55 56  1  6  0  0  0
 55 57  1  0  0  0  0
 58 62  1  0  0  0  0
 60 59  1  1  0  0  0
 60 57  1  0  0  0  0
 60 61  1  0  0  0  0
 61 58  1  0  0  0  0
 61 62  1  0  0  0  0
 63 65  1  6  0  0  0
 63 60  1  0  0  0  0
 63 61  1  0  0  0  0
 65 64  1  0  0  0  0
 66 65  2  0  0  0  0
M  END
>  <MODEL>
1

>  <REMARK>
 VINA RESULT:       2.2      0.000      0.000
  Name = 
  18 active torsions:
  status: ('A' for Active; 'I' for Inactive)
    1  A    between atoms: C_1  and  C_36
    2  A    between atoms: C_1  and  N_62
    3  A    between atoms: O_2  and  C_25
    4  A    between atoms: O_2  and  C_39
    5  A    between atoms: C_6  and  O_12
    6  A    between atoms: C_11  and  C_23
    7  A    between atoms: C_11  and  C_25
    8  A    between atoms: O_12  and  C_53
    9  A    between atoms: C_13  and  C_19
   10  A    between atoms: C_14  and  C_39
   11  A    between atoms: C_14  and  C_49
   12  A    between atoms: C_19  and  C_41
   13  A    between atoms: C_19  and  N_62
   14  A    between atoms: N_20  and  C_33
   15  A    between atoms: C_21  and  C_25
   16  A    between atoms: C_32  and  C_33
   17  A    between atoms: C_41  and  C_58
   18  A    between atoms: C_60  and  C_64
                            x       y       z     vdW  Elec       q    Type
                         _______ _______ _______ _____ _____    ______ ____

>  <TORSDO>
F 18

$$$$
=
 OpenBabel11042422423D

 66 74  0  0  1  0  0  0  0  0999 V2000
  161.2330  206.6930  148.8710 C   0  0  0  0  0  3  0  0  0  0  0  0
  161.0700  207.4760  149.9500 C   0  0  0  0  0  0  0  0  0  0  0  0
  159.9240  207.1060  150.8450 C   0  0  0  0  0  2  0  0  0  0  0  0
  161.6170  209.4290  151.5480 C   0  0  1  0  0  3  0  0  0  0  0  0
  161.9280  208.7130  150.2230 C   0  0  2  0  0  3  0  0  0  0  0  0
  159.9640  207.8360  152.1790 C   0  0  0  0  0  2  0  0  0  0  0  0
  160.2220  209.2550  151.9680 N   0  0  0  0  0  2  0  0  0  0  0  0
  161.9210  209.7060  149.0430 C   0  0  1  0  0  3  0  0  0  0  0  0
  161.1960  209.1930  147.9670 O   0  0  0  0  0  1  0  0  0  0  0  0
  161.4520  211.3510  150.7950 C   0  0  0  0  0  1  0  0  0  0  0  0
  161.4590  211.0790  149.3590 N   0  0  0  0  0  0  0  0  0  0  0  0
  162.3480  212.0820  148.7440 C   0  0  1  0  0  3  0  0  0  0  0  0
  163.2980  211.4750  147.7060 C   0  0  0  0  0  2  0  0  0  0  0  0
  164.3050  212.3830  147.3910 O   0  0  0  0  0  1  0  0  0  0  0  0
  161.5460  213.2300  148.1290 C   0  0  0  0  0  2  0  0  0  0  0  0
  159.0310  213.6320  148.4840 C   0  0  0  0  0  0  0  0  0  0  0  0
  158.1460  213.9860  146.2510 O   0  0  0  0  0  0  0  0  0  0  0  0
  158.8680  213.5520  149.8040 C   0  0  0  0  0  2  0  0  0  0  0  0
  158.0000  214.3150  147.6240 C   0  0  0  0  0  2  0  0  0  0  0  0
  159.6380  211.9070  145.0930 O   0  0  0  0  0  0  0  0  0  0  0  0
  160.0920  212.8750  147.7600 C   0  0  1  0  0  3  0  0  0  0  0  0
  159.6910  213.2910  146.0710 P   0  0  2  0  0  0  0  0  0  0  0  0
  160.6550  214.2920  145.4860 O   0  0  0  0  0  1  0  0  0  0  0  0
  162.6100  209.0540  152.6630 C   0  0  0  0  0  2  0  0  0  0  0  0
  161.2210  211.1500  154.4290 C   0  0  0  0  0  3  0  0  0  0  0  0
  161.6340  207.2680  154.1650 C   0  0  0  0  0  0  0  0  0  0  0  0
  158.1050  210.5890  156.3410 C   0  0  0  0  0  3  0  0  0  0  0  0
  161.8860  208.6700  153.8760 N   0  0  0  0  0  0  0  0  0  0  0  0
  156.4850  214.4480  156.8160 C   0  0  0  0  0  3  0  0  0  0  0  0
  157.7360  214.2940  156.2070 C   0  0  0  0  0  3  0  0  0  0  0  0
  159.3340  210.4710  155.6940 C   0  0  0  0  0  0  0  0  0  0  0  0
  160.0120  211.5700  155.2020 C   0  0  0  0  0  0  0  0  0  0  0  0
  156.3190  212.0460  157.1120 C   0  0  0  0  0  3  0  0  0  0  0  0
  158.2880  213.0180  156.0380 C   0  0  0  0  0  0  0  0  0  0  0  0
  159.6990  207.9220  155.4620 N   0  0  0  0  0  0  0  0  0  0  0  0
  160.5580  206.9170  154.8950 C   0  0  0  0  0  3  0  0  0  0  0  0
  159.5110  212.8620  155.3640 C   0  0  0  0  0  3  0  0  0  0  0  0
  157.5730  211.8780  156.5110 C   0  0  0  0  0  0  0  0  0  0  0  0
  155.7760  213.3300  157.2600 C   0  0  0  0  0  3  0  0  0  0  0  0
  161.1080  209.6570  154.5660 C   0  0  0  0  0  0  0  0  0  0  0  0
  160.0680  209.2930  155.2990 C   0  0  0  0  0  0  0  0  0  0  0  0
  162.4780  206.2650  153.6790 O   0  0  0  0  0  0  0  0  0  0  0  0
  160.9420  204.4740  153.3520 C   0  0  0  0  0  3  0  0  0  0  0  0
  160.9120  203.2050  151.1790 C   0  0  1  0  0  3  0  0  0  0  0  0
  162.7330  204.8210  151.6610 C   0  0  0  0  0  2  0  0  0  0  0  0
  160.4100  203.2710  152.6240 C   0  0  0  0  0  2  0  0  0  0  0  0
  162.4210  203.4090  151.1670 C   0  0  0  0  0  2  0  0  0  0  0  0
  160.5710  201.8590  150.5890 C   0  0  0  0  0  1  0  0  0  0  0  0
  162.0270  205.1570  152.9510 C   0  0  0  0  0  0  0  0  0  0  0  0
  162.2170  206.9410  147.7630 C   0  0  0  0  0  2  0  0  0  0  0  0
  162.4520  205.7090  146.8840 C   0  0  2  0  0  3  0  0  0  0  0  0
  163.7080  204.9270  147.2760 C   0  0  0  0  0  2  0  0  0  0  0  0
  164.3400  204.3750  146.0820 N   0  0  0  0  0  1  0  0  0  0  0  0
  162.4540  206.0830  145.5240 O   0  0  0  0  0  0  0  0  0  0  0  0
  161.4110  205.4250  144.8160 C   0  0  1  0  0  3  0  0  0  0  0  0
  161.0940  206.1310  143.6560 O   0  0  0  0  0  1  0  0  0  0  0  0
  161.6550  203.9400  144.4940 C   0  0  0  0  0  2  0  0  0  0  0  0
  158.8830  200.9740  145.0150 C   0  0  0  0  0  2  0  0  0  0  0  0
  160.2920  203.6140  146.5400 O   0  0  0  0  0  1  0  0  0  0  0  0
  160.8050  203.0360  145.3730 C   0  0  1  0  0  0  0  0  0  0  0  0
  159.9300  202.0190  144.5760 C   0  0  0  0  0  0  0  0  0  0  0  0
  158.5220  202.3970  145.0760 C   0  0  0  0  0  2  0  0  0  0  0  0
  161.1840  201.6020  145.4440 C   0  0  2  0  0  3  0  0  0  0  0  0
  160.5600  201.7370  147.8040 O   0  0  0  0  0  1  0  0  0  0  0  0
  161.0670  201.0580  146.8600 C   0  0  0  0  0  0  0  0  0  0  0  0
  161.6650  199.8370  147.1560 O   0  0  0  0  0  0  0  0  0  0  0  0
  1  2  2  0  0  0  0
  2  5  1  0  0  0  0
  2  3  1  0  0  0  0
  3  6  1  0  0  0  0
  4  7  1  0  0  0  0
  4 24  1  1  0  0  0
  5  8  1  6  0  0  0
  5  4  1  0  0  0  0
  7  6  1  0  0  0  0
  8  9  1  6  0  0  0
  8 11  1  0  0  0  0
 11 10  1  0  0  0  0
 12 13  1  6  0  0  0
 12 11  1  0  0  0  0
 14 13  1  0  0  0  0
 15 12  1  0  0  0  0
 16 18  2  0  0  0  0
 17 19  1  0  0  0  0
 19 16  1  0  0  0  0
 21 15  1  1  0  0  0
 21 16  1  0  0  0  0
 22 20  2  6  0  0  0
 22 17  1  0  0  0  0
 22 21  1  0  0  0  0
 23 22  1  0  0  0  0
 24 28  1  0  0  0  0
 25 40  2  0  0  0  0
 25 32  1  0  0  0  0
 26 36  2  0  0  0  0
 27 38  1  0  0  0  0
 28 26  1  0  0  0  0
 28 40  1  0  0  0  0
 29 39  1  0  0  0  0
 30 29  2  0  0  0  0
 31 27  2  0  0  0  0
 32 37  2  0  0  0  0
 32 31  1  0  0  0  0
 33 39  2  0  0  0  0
 34 30  1  0  0  0  0
 34 38  2  0  0  0  0
 36 35  1  0  0  0  0
 37 34  1  0  0  0  0
 38 33  1  0  0  0  0
 40 41  1  0  0  0  0
 41 35  2  0  0  0  0
 41 31  1  0  0  0  0
 42 26  1  0  0  0  0
 44 48  1  1  0  0  0
 44 46  1  0  0  0  0
 45 49  1  0  0  0  0
 46 43  1  0  0  0  0
 47 44  1  0  0  0  0
 47 45  1  0  0  0  0
 49 43  2  0  0  0  0
 49 42  1  0  0  0  0
 50  1  1  0  0  0  0
 51 52  1  1  0  0  0
 51 50  1  0  0  0  0
 53 52  1  0  0  0  0
 54 51  1  0  0  0  0
 55 56  1  6  0  0  0
 55 54  1  0  0  0  0
 57 55  1  0  0  0  0
 57 60  1  0  0  0  0
 58 62  1  0  0  0  0
 60 63  1  0  0  0  0
 60 59  1  1  0  0  0
 61 58  1  0  0  0  0
 61 62  1  0  0  0  0
 61 60  1  0  0  0  0
 61 63  1  0  0  0  0
 63 65  1  1  0  0  0
 65 66  2  0  0  0  0
 65 64  1  0  0  0  0
M  END
>  <MODEL>
2

>  <REMARK>
 VINA RESULT:       3.0      3.200      7.417
  Name = 
  18 active torsions:
  status: ('A' for Active; 'I' for Inactive)
    1  A    between atoms: C_1  and  C_36
    2  A    between atoms: C_1  and  N_62
    3  A    between atoms: O_2  and  C_25
    4  A    between atoms: O_2  and  C_39
    5  A    between atoms: C_6  and  O_12
    6  A    between atoms: C_11  and  C_23
    7  A    between atoms: C_11  and  C_25
    8  A    between atoms: O_12  and  C_53
    9  A    between atoms: C_13  and  C_19
   10  A    between atoms: C_14  and  C_39
   11  A    between atoms: C_14  and  C_49
   12  A    between atoms: C_19  and  C_41
   13  A    between atoms: C_19  and  N_62
   14  A    between atoms: N_20  and  C_33
   15  A    between atoms: C_21  and  C_25
   16  A    between atoms: C_32  and  C_33
   17  A    between atoms: C_41  and  C_58
   18  A    between atoms: C_60  and  C_64
                            x       y       z     vdW  Elec       q    Type
                         _______ _______ _______ _____ _____    ______ ____

>  <TORSDO>
F 18

$$$$
=
 OpenBabel11042422423D

 66 74  0  0  1  0  0  0  0  0999 V2000
  163.0990  209.0150  147.7440 C   0  0  0  0  0  3  0  0  0  0  0  0
  163.0840  210.3500  147.8920 C   0  0  0  0  0  0  0  0  0  0  0  0
  164.3530  211.0540  147.5110 C   0  0  0  0  0  2  0  0  0  0  0  0
  162.0610  212.6410  148.5020 C   0  0  1  0  0  3  0  0  0  0  0  0
  161.8950  211.1120  148.4830 C   0  0  2  0  0  3  0  0  0  0  0  0
  164.1830  212.5630  147.4260 C   0  0  0  0  0  2  0  0  0  0  0  0
  163.4650  213.0550  148.5950 N   0  0  0  0  0  2  0  0  0  0  0  0
  161.4910  210.5830  149.8740 C   0  0  1  0  0  3  0  0  0  0  0  0
  160.5390  209.5690  149.7610 O   0  0  0  0  0  1  0  0  0  0  0  0
  163.6740  211.1310  150.8350 C   0  0  0  0  0  1  0  0  0  0  0  0
  162.6060  210.1380  150.7430 N   0  0  0  0  0  0  0  0  0  0  0  0
  162.1300  209.9020  152.1190 C   0  0  1  0  0  3  0  0  0  0  0  0
  161.4040  211.1140  152.7120 C   0  0  0  0  0  2  0  0  0  0  0  0
  160.1280  210.7490  153.1310 O   0  0  0  0  0  1  0  0  0  0  0  0
  161.2420  208.6580  152.1920 C   0  0  0  0  0  2  0  0  0  0  0  0
  161.0040  207.3450  154.3900 C   0  0  0  0  0  0  0  0  0  0  0  0
  161.0450  205.0120  153.7170 O   0  0  0  0  0  0  0  0  0  0  0  0
  160.9090  208.2860  155.3280 C   0  0  0  0  0  2  0  0  0  0  0  0
  160.5380  205.9390  154.6650 C   0  0  0  0  0  2  0  0  0  0  0  0
  163.1360  205.3540  151.8730 O   0  0  0  0  0  1  0  0  0  0  0  0
  161.7650  207.5480  153.1240 C   0  0  1  0  0  3  0  0  0  0  0  0
  161.6280  205.9220  152.3990 P   0  0  2  0  0  0  0  0  0  0  0  0
  160.6430  205.8880  151.2580 O   0  0  0  0  0  0  0  0  0  0  0  0
  161.3310  213.3220  147.3300 C   0  0  0  0  0  2  0  0  0  0  0  0
  159.5920  212.9870  149.8410 C   0  0  0  0  0  3  0  0  0  0  0  0
  159.3040  212.6990  145.9490 C   0  0  0  0  0  0  0  0  0  0  0  0
  155.9320  213.4970  149.9740 C   0  0  0  0  0  3  0  0  0  0  0  0
  159.9520  212.8390  147.2440 N   0  0  0  0  0  0  0  0  0  0  0  0
  155.1680  214.3990  154.0170 C   0  0  0  0  0  3  0  0  0  0  0  0
  156.4650  214.0520  153.6200 C   0  0  0  0  0  3  0  0  0  0  0  0
  157.2410  213.1950  149.6080 C   0  0  0  0  0  0  0  0  0  0  0  0
  158.2780  213.1990  150.5220 C   0  0  0  0  0  0  0  0  0  0  0  0
  154.3850  214.1410  151.7360 C   0  0  0  0  0  3  0  0  0  0  0  0
  156.7370  213.7520  152.2790 C   0  0  0  0  0  0  0  0  0  0  0  0
  157.1610  212.9900  147.0320 N   0  0  0  0  0  0  0  0  0  0  0  0
  157.9660  212.8130  145.8530 C   0  0  0  0  0  3  0  0  0  0  0  0
  158.0520  213.4710  151.8710 C   0  0  0  0  0  3  0  0  0  0  0  0
  155.6760  213.7850  151.3250 C   0  0  0  0  0  0  0  0  0  0  0  0
  154.1350  214.4510  153.0800 C   0  0  0  0  0  3  0  0  0  0  0  0
  159.1270  212.8690  148.4160 C   0  0  0  0  0  0  0  0  0  0  0  0
  157.8110  212.9560  148.3040 C   0  0  0  0  0  0  0  0  0  0  0  0
  160.0490  212.4700  144.7890 O   0  0  0  0  0  0  0  0  0  0  0  0
  159.8580  211.9410  142.4740 C   0  0  0  0  0  3  0  0  0  0  0  0
  158.2370  213.1920  141.0120 C   0  0  1  0  0  3  0  0  0  0  0  0
  158.6990  213.9710  143.3240 C   0  0  0  0  0  2  0  0  0  0  0  0
  159.4020  212.2010  141.0650 C   0  0  0  0  0  2  0  0  0  0  0  0
  158.5780  214.4070  141.8640 C   0  0  0  0  0  2  0  0  0  0  0  0
  158.0010  213.6160  139.5830 C   0  0  0  0  0  1  0  0  0  0  0  0
  159.5870  212.7640  143.5000 C   0  0  0  0  0  0  0  0  0  0  0  0
  162.0050  208.0840  148.1830 C   0  0  0  0  0  2  0  0  0  0  0  0
  162.1910  206.6550  147.6630 C   0  0  2  0  0  3  0  0  0  0  0  0
  162.3490  206.5890  146.1420 C   0  0  0  0  0  2  0  0  0  0  0  0
  161.0530  206.3380  145.5210 N   0  0  0  0  0  1  0  0  0  0  0  0
  161.1440  205.8330  148.1310 O   0  0  0  0  0  0  0  0  0  0  0  0
  161.4710  204.4580  147.9770 C   0  0  1  0  0  3  0  0  0  0  0  0
  161.5580  203.8400  149.2240 O   0  0  0  0  0  1  0  0  0  0  0  0
  160.5560  203.6540  147.0380 C   0  0  0  0  0  2  0  0  0  0  0  0
  161.7880  199.8380  147.8580 C   0  0  0  0  0  2  0  0  0  0  0  0
  159.0490  201.7050  147.3200 O   0  0  0  0  0  1  0  0  0  0  0  0
  160.3140  202.2500  147.5690 C   0  0  1  0  0  0  0  0  0  0  0  0
  161.5690  201.3250  147.5070 C   0  0  0  0  0  0  0  0  0  0  0  0
  161.0320  200.1680  146.6420 C   0  0  0  0  0  2  0  0  0  0  0  0
  160.9610  201.8860  148.8550 C   0  0  2  0  0  3  0  0  0  0  0  0
  158.7780  201.0300  149.5470 O   0  0  0  0  0  0  0  0  0  0  0  0
  160.0300  201.0760  149.7450 C   0  0  0  0  0  0  0  0  0  0  0  0
  160.5520  200.4850  150.8920 O   0  0  0  0  0  1  0  0  0  0  0  0
  1  2  2  0  0  0  0
  1 50  1  0  0  0  0
  2  5  1  0  0  0  0
  3  2  1  0  0  0  0
  4 24  1  6  0  0  0
  4  7  1  0  0  0  0
  5  4  1  0  0  0  0
  5  8  1  1  0  0  0
  6  3  1  0  0  0  0
  6  7  1  0  0  0  0
  8  9  1  6  0  0  0
  8 11  1  0  0  0  0
 11 10  1  0  0  0  0
 11 12  1  0  0  0  0
 12 15  1  6  0  0  0
 12 13  1  0  0  0  0
 13 14  1  0  0  0  0
 16 19  1  0  0  0  0
 16 18  2  0  0  0  0
 17 19  1  0  0  0  0
 20 22  1  0  0  0  0
 21 15  1  6  0  0  0
 21 16  1  0  0  0  0
 22 23  2  6  0  0  0
 22 21  1  0  0  0  0
 22 17  1  0  0  0  0
 25 32  1  0  0  0  0
 26 28  1  0  0  0  0
 27 38  1  0  0  0  0
 28 24  1  0  0  0  0
 28 40  1  0  0  0  0
 30 29  1  0  0  0  0
 31 27  2  0  0  0  0
 31 32  1  0  0  0  0
 32 37  2  0  0  0  0
 33 39  1  0  0  0  0
 34 30  2  0  0  0  0
 35 41  2  0  0  0  0
 36 26  2  0  0  0  0
 36 35  1  0  0  0  0
 37 34  1  0  0  0  0
 38 33  2  0  0  0  0
 38 34  1  0  0  0  0
 39 29  2  0  0  0  0
 40 25  2  0  0  0  0
 41 40  1  0  0  0  0
 41 31  1  0  0  0  0
 42 26  1  0  0  0  0
 43 49  2  0  0  0  0
 44 48  1  6  0  0  0
 44 46  1  0  0  0  0
 44 47  1  0  0  0  0
 45 49  1  0  0  0  0
 46 43  1  0  0  0  0
 47 45  1  0  0  0  0
 49 42  1  0  0  0  0
 51 52  1  6  0  0  0
 51 54  1  0  0  0  0
 51 50  1  0  0  0  0
 53 52  1  0  0  0  0
 55 54  1  0  0  0  0
 55 56  1  1  0  0  0
 57 60  1  0  0  0  0
 57 55  1  0  0  0  0
 60 59  1  6  0  0  0
 60 63  1  0  0  0  0
 61 60  1  0  0  0  0
 61 58  1  0  0  0  0
 61 63  1  0  0  0  0
 62 61  1  0  0  0  0
 62 58  1  0  0  0  0
 63 65  1  1  0  0  0
 64 65  2  0  0  0  0
 65 66  1  0  0  0  0
M  END
>  <MODEL>
3

>  <REMARK>
 VINA RESULT:       3.3      1.526      2.538
  Name = 
  18 active torsions:
  status: ('A' for Active; 'I' for Inactive)
    1  A    between atoms: C_1  and  C_36
    2  A    between atoms: C_1  and  N_62
    3  A    between atoms: O_2  and  C_25
    4  A    between atoms: O_2  and  C_39
    5  A    between atoms: C_6  and  O_12
    6  A    between atoms: C_11  and  C_23
    7  A    between atoms: C_11  and  C_25
    8  A    between atoms: O_12  and  C_53
    9  A    between atoms: C_13  and  C_19
   10  A    between atoms: C_14  and  C_39
   11  A    between atoms: C_14  and  C_49
   12  A    between atoms: C_19  and  C_41
   13  A    between atoms: C_19  and  N_62
   14  A    between atoms: N_20  and  C_33
   15  A    between atoms: C_21  and  C_25
   16  A    between atoms: C_32  and  C_33
   17  A    between atoms: C_41  and  C_58
   18  A    between atoms: C_60  and  C_64
                            x       y       z     vdW  Elec       q    Type
                         _______ _______ _______ _____ _____    ______ ____

>  <TORSDO>
F 18

$$$$
=
 OpenBabel11042422423D

 66 74  0  0  1  0  0  0  0  0999 V2000
  162.2130  206.9110  153.1520 C   0  0  0  0  0  3  0  0  0  0  0  0
  161.5340  208.0200  152.8120 C   0  0  0  0  0  0  0  0  0  0  0  0
  160.6750  208.6040  153.8950 C   0  0  0  0  0  2  0  0  0  0  0  0
  160.7630  209.9220  151.2470 C   0  0  1  0  0  3  0  0  0  0  0  0
  161.5570  208.6150  151.4030 C   0  0  2  0  0  3  0  0  0  0  0  0
  160.1660  209.9960  153.5510 C   0  0  0  0  0  2  0  0  0  0  0  0
  159.6440  210.0180  152.1900 N   0  0  0  0  0  2  0  0  0  0  0  0
  161.1500  207.5900  150.3250 C   0  0  1  0  0  3  0  0  0  0  0  0
  159.8380  207.1580  150.5220 O   0  0  0  0  0  1  0  0  0  0  0  0
  162.5940  208.7410  148.7180 C   0  0  0  0  0  1  0  0  0  0  0  0
  161.3370  208.0240  148.9200 N   0  0  0  0  0  0  0  0  0  0  0  0
  161.3650  206.8600  148.0150 C   0  0  1  0  0  3  0  0  0  0  0  0
  160.0080  206.1550  147.9120 C   0  0  0  0  0  2  0  0  0  0  0  0
  159.8790  205.2150  148.9310 O   0  0  0  0  0  1  0  0  0  0  0  0
  161.8710  207.2500  146.6250 C   0  0  0  0  0  2  0  0  0  0  0  0
  162.4560  204.7540  146.4270 C   0  0  0  0  0  0  0  0  0  0  0  0
  161.0370  203.9330  144.6360 O   0  0  0  0  0  0  0  0  0  0  0  0
  163.3790  204.5560  147.3670 C   0  0  0  0  0  2  0  0  0  0  0  0
  161.6870  203.5940  145.8500 C   0  0  0  0  0  2  0  0  0  0  0  0
  161.4580  206.1660  142.9830 O   0  0  0  0  0  0  0  0  0  0  0  0
  162.2850  206.0630  145.7340 C   0  0  1  0  0  3  0  0  0  0  0  0
  161.0320  205.6340  144.5370 P   0  0  2  0  0  0  0  0  0  0  0  0
  159.6770  206.1810  144.9080 O   0  0  0  0  0  1  0  0  0  0  0  0
  161.6700  211.1660  151.2950 C   0  0  0  0  0  2  0  0  0  0  0  0
  161.8270  212.2030  148.4070 C   0  0  0  0  0  3  0  0  0  0  0  0
  159.9320  212.9480  151.7480 C   0  0  0  0  0  0  0  0  0  0  0  0
  159.0590  213.8480  146.5860 C   0  0  0  0  0  3  0  0  0  0  0  0
  160.9240  212.3510  150.8680 N   0  0  0  0  0  0  0  0  0  0  0  0
  159.9630  213.1810  142.5260 C   0  0  0  0  0  3  0  0  0  0  0  0
  160.8660  212.7670  143.5120 C   0  0  0  0  0  3  0  0  0  0  0  0
  159.9620  213.3850  147.5410 C   0  0  0  0  0  0  0  0  0  0  0  0
  161.1190  212.7140  147.1930 C   0  0  0  0  0  0  0  0  0  0  0  0
  158.4710  214.0400  144.2350 C   0  0  0  0  0  3  0  0  0  0  0  0
  160.5800  212.9780  144.8670 C   0  0  0  0  0  0  0  0  0  0  0  0
  158.7930  213.8280  149.8040 N   0  0  0  0  0  0  0  0  0  0  0  0
  158.8900  213.6210  151.2240 C   0  0  0  0  0  3  0  0  0  0  0  0
  161.4550  212.4980  145.8560 C   0  0  0  0  0  3  0  0  0  0  0  0
  159.3690  213.6370  145.2320 C   0  0  0  0  0  0  0  0  0  0  0  0
  158.7680  213.8080  142.8850 C   0  0  0  0  0  3  0  0  0  0  0  0
  160.8890  212.6900  149.4760 C   0  0  0  0  0  0  0  0  0  0  0  0
  159.8690  213.3740  148.9810 C   0  0  0  0  0  0  0  0  0  0  0  0
  160.0240  212.8170  153.1360 O   0  0  0  0  0  0  0  0  0  0  0  0
  159.1810  213.7500  155.1600 C   0  0  0  0  0  3  0  0  0  0  0  0
  156.7010  213.9850  155.5150 C   0  0  1  0  0  3  0  0  0  0  0  0
  157.5720  212.6950  153.5820 C   0  0  0  0  0  2  0  0  0  0  0  0
  158.0920  214.0620  156.1490 C   0  0  0  0  0  2  0  0  0  0  0  0
  156.5780  212.6790  154.7420 C   0  0  0  0  0  2  0  0  0  0  0  0
  155.6510  214.0410  156.5990 C   0  0  0  0  0  1  0  0  0  0  0  0
  158.9650  213.0850  154.0120 C   0  0  0  0  0  0  0  0  0  0  0  0
  163.0260  206.0720  152.2080 C   0  0  0  0  0  2  0  0  0  0  0  0
  162.7020  204.5780  152.3050 C   0  0  2  0  0  3  0  0  0  0  0  0
  163.9400  203.6880  152.1700 C   0  0  0  0  0  2  0  0  0  0  0  0
  163.5330  202.2980  151.9970 N   0  0  0  0  0  1  0  0  0  0  0  0
  161.6950  204.2430  151.3750 O   0  0  0  0  0  0  0  0  0  0  0  0
  160.7510  203.3490  151.9500 C   0  0  1  0  0  3  0  0  0  0  0  0
  159.4590  203.8530  151.8060 O   0  0  0  0  0  1  0  0  0  0  0  0
  160.8210  201.8940  151.4560 C   0  0  0  0  0  2  0  0  0  0  0  0
  161.2570  200.0750  147.8150 C   0  0  0  0  0  2  0  0  0  0  0  0
  160.5370  203.0180  149.2640 O   0  0  0  0  0  1  0  0  0  0  0  0
  160.5620  201.8040  149.9610 C   0  0  1  0  0  0  0  0  0  0  0  0
  161.1940  200.5480  149.2830 C   0  0  0  0  0  0  0  0  0  0  0  0
  162.0910  201.2140  148.2220 C   0  0  0  0  0  2  0  0  0  0  0  0
  159.6380  200.7410  149.4910 C   0  0  2  0  0  3  0  0  0  0  0  0
  159.1490  201.6420  147.2720 O   0  0  0  0  0  0  0  0  0  0  0  0
  158.7120  201.2430  148.3940 C   0  0  0  0  0  0  0  0  0  0  0  0
  157.3600  201.4050  148.6850 O   0  0  0  0  0  1  0  0  0  0  0  0
  2  1  2  0  0  0  0
  2  3  1  0  0  0  0
  4 24  1  1  0  0  0
  4  5  1  0  0  0  0
  4  7  1  0  0  0  0
  5  8  1  6  0  0  0
  5  2  1  0  0  0  0
  6  3  1  0  0  0  0
  7  6  1  0  0  0  0
  8  9  1  6  0  0  0
 10 11  1  0  0  0  0
 11  8  1  0  0  0  0
 12 15  1  6  0  0  0
 12 11  1  0  0  0  0
 13 12  1  0  0  0  0
 13 14  1  0  0  0  0
 16 18  2  0  0  0  0
 17 19  1  0  0  0  0
 19 16  1  0  0  0  0
 21 16  1  0  0  0  0
 21 15  1  1  0  0  0
 22 20  2  6  0  0  0
 22 17  1  0  0  0  0
 22 23  1  0  0  0  0
 22 21  1  0  0  0  0
 25 40  2  0  0  0  0
 26 42  1  0  0  0  0
 27 31  1  0  0  0  0
 28 24  1  0  0  0  0
 28 26  1  0  0  0  0
 29 39  1  0  0  0  0
 29 30  2  0  0  0  0
 30 34  1  0  0  0  0
 31 41  1  0  0  0  0
 32 31  2  0  0  0  0
 32 25  1  0  0  0  0
 33 38  1  0  0  0  0
 34 38  1  0  0  0  0
 34 37  2  0  0  0  0
 35 36  1  0  0  0  0
 36 26  2  0  0  0  0
 37 32  1  0  0  0  0
 38 27  2  0  0  0  0
 39 33  2  0  0  0  0
 40 28  1  0  0  0  0
 41 40  1  0  0  0  0
 41 35  2  0  0  0  0
 42 49  1  0  0  0  0
 43 46  1  0  0  0  0
 44 46  1  0  0  0  0
 44 48  1  1  0  0  0
 45 49  1  0  0  0  0
 45 47  1  0  0  0  0
 47 44  1  0  0  0  0
 49 43  2  0  0  0  0
 50 51  1  0  0  0  0
 50  1  1  0  0  0  0
 51 52  1  6  0  0  0
 53 52  1  0  0  0  0
 54 55  1  0  0  0  0
 54 51  1  0  0  0  0
 55 56  1  6  0  0  0
 57 55  1  0  0  0  0
 58 62  1  0  0  0  0
 58 61  1  0  0  0  0
 60 59  1  6  0  0  0
 60 57  1  0  0  0  0
 61 63  1  0  0  0  0
 61 60  1  0  0  0  0
 62 61  1  0  0  0  0
 63 65  1  6  0  0  0
 63 60  1  0  0  0  0
 64 65  2  0  0  0  0
 65 66  1  0  0  0  0
M  END
>  <MODEL>
4

>  <REMARK>
 VINA RESULT:       3.6      2.733      7.715
  Name = 
  18 active torsions:
  status: ('A' for Active; 'I' for Inactive)
    1  A    between atoms: C_1  and  C_36
    2  A    between atoms: C_1  and  N_62
    3  A    between atoms: O_2  and  C_25
    4  A    between atoms: O_2  and  C_39
    5  A    between atoms: C_6  and  O_12
    6  A    between atoms: C_11  and  C_23
    7  A    between atoms: C_11  and  C_25
    8  A    between atoms: O_12  and  C_53
    9  A    between atoms: C_13  and  C_19
   10  A    between atoms: C_14  and  C_39
   11  A    between atoms: C_14  and  C_49
   12  A    between atoms: C_19  and  C_41
   13  A    between atoms: C_19  and  N_62
   14  A    between atoms: N_20  and  C_33
   15  A    between atoms: C_21  and  C_25
   16  A    between atoms: C_32  and  C_33
   17  A    between atoms: C_41  and  C_58
   18  A    between atoms: C_60  and  C_64
                            x       y       z     vdW  Elec       q    Type
                         _______ _______ _______ _____ _____    ______ ____

>  <TORSDO>
F 18

$$$$
=
 OpenBabel11042422423D

 66 74  0  0  1  0  0  0  0  0999 V2000
  160.3260  209.0680  149.9570 C   0  0  0  0  0  3  0  0  0  0  0  0
  160.4950  209.7900  151.0770 C   0  0  0  0  0  0  0  0  0  0  0  0
  159.2790  209.9190  151.9480 C   0  0  0  0  0  2  0  0  0  0  0  0
  161.8010  211.2220  152.7820 C   0  0  1  0  0  3  0  0  0  0  0  0
  161.8020  210.5070  151.4210 C   0  0  2  0  0  3  0  0  0  0  0  0
  159.6000  210.4920  153.3200 C   0  0  0  0  0  2  0  0  0  0  0  0
  160.4620  211.6600  153.1880 N   0  0  0  0  0  2  0  0  0  0  0  0
  162.2640  211.4580  150.2970 C   0  0  1  0  0  3  0  0  0  0  0  0
  163.0160  210.7710  149.3440 O   0  0  0  0  0  1  0  0  0  0  0  0
  160.4730  213.1060  150.5640 C   0  0  0  0  0  1  0  0  0  0  0  0
  161.1930  212.2380  149.6330 N   0  0  0  0  0  0  0  0  0  0  0  0
  161.7580  213.1150  148.5920 C   0  0  1  0  0  3  0  0  0  0  0  0
  162.6370  212.3570  147.5910 C   0  0  0  0  0  2  0  0  0  0  0  0
  162.7380  213.0750  146.4030 O   0  0  0  0  0  1  0  0  0  0  0  0
  160.6580  213.8860  147.8590 C   0  0  0  0  0  2  0  0  0  0  0  0
  158.1490  213.3440  147.6990 C   0  0  0  0  0  0  0  0  0  0  0  0
  157.6910  213.2640  145.3150 O   0  0  0  0  0  0  0  0  0  0  0  0
  157.7490  213.2580  148.9660 C   0  0  0  0  0  2  0  0  0  0  0  0
  157.1510  213.5660  146.5930 C   0  0  0  0  0  2  0  0  0  0  0  0
  160.0320  211.8410  144.6920 O   0  0  0  0  0  0  0  0  0  0  0  0
  159.5370  213.0070  147.2720 C   0  0  1  0  0  3  0  0  0  0  0  0
  159.3830  213.1820  145.5020 P   0  0  2  0  0  0  0  0  0  0  0  0
  160.0310  214.4460  144.9950 O   0  0  0  0  0  1  0  0  0  0  0  0
  162.4990  210.3940  153.8770 C   0  0  0  0  0  2  0  0  0  0  0  0
  161.5570  207.9680  152.2440 C   0  0  0  0  0  3  0  0  0  0  0  0
  161.2270  209.4500  155.8500 C   0  0  0  0  0  0  0  0  0  0  0  0
  160.7690  204.6380  153.6480 C   0  0  0  0  0  3  0  0  0  0  0  0
  161.5690  209.4120  154.4370 N   0  0  0  0  0  0  0  0  0  0  0  0
  161.3110  202.0040  150.4060 C   0  0  0  0  0  3  0  0  0  0  0  0
  161.4370  203.3830  150.2040 C   0  0  0  0  0  3  0  0  0  0  0  0
  160.9420  206.0010  153.4180 C   0  0  0  0  0  0  0  0  0  0  0  0
  161.2950  206.4970  152.1780 C   0  0  0  0  0  0  0  0  0  0  0  0
  160.8210  202.3790  152.7520 C   0  0  0  0  0  3  0  0  0  0  0  0
  161.2630  204.2730  151.2720 C   0  0  0  0  0  0  0  0  0  0  0  0
  160.7480  207.0810  155.7600 N   0  0  0  0  0  0  0  0  0  0  0  0
  160.8720  208.3170  156.4850 C   0  0  0  0  0  3  0  0  0  0  0  0
  161.4590  205.6510  151.0800 C   0  0  0  0  0  3  0  0  0  0  0  0
  160.9370  203.7620  152.5630 C   0  0  0  0  0  0  0  0  0  0  0  0
  161.0110  201.5030  151.6750 C   0  0  0  0  0  3  0  0  0  0  0  0
  161.3000  208.2090  153.7060 C   0  0  0  0  0  0  0  0  0  0  0  0
  160.9280  207.1100  154.3420 C   0  0  0  0  0  0  0  0  0  0  0  0
  161.2810  210.6430  156.5760 O   0  0  0  0  0  0  0  0  0  0  0  0
  160.5000  212.8710  156.2530 C   0  0  0  0  0  3  0  0  0  0  0  0
  158.0320  213.3570  156.1890 C   0  0  1  0  0  3  0  0  0  0  0  0
  158.8510  211.1170  156.8790 C   0  0  0  0  0  2  0  0  0  0  0  0
  159.4450  213.9420  156.2500 C   0  0  0  0  0  2  0  0  0  0  0  0
  157.9020  212.2600  157.2370 C   0  0  0  0  0  2  0  0  0  0  0  0
  157.0240  214.4470  156.4580 C   0  0  0  0  0  1  0  0  0  0  0  0
  160.2520  211.5930  156.5850 C   0  0  0  0  0  0  0  0  0  0  0  0
  161.3480  208.9110  148.8670 C   0  0  0  0  0  2  0  0  0  0  0  0
  161.3490  207.5110  148.2450 C   0  0  2  0  0  3  0  0  0  0  0  0
  162.7330  206.8570  148.2490 C   0  0  0  0  0  2  0  0  0  0  0  0
  163.6120  207.5640  149.1750 N   0  0  0  0  0  1  0  0  0  0  0  0
  160.7800  207.5580  146.9550 O   0  0  0  0  0  0  0  0  0  0  0  0
  160.6360  206.2500  146.4160 C   0  0  1  0  0  3  0  0  0  0  0  0
  161.0420  206.2300  145.0830 O   0  0  0  0  0  1  0  0  0  0  0  0
  161.3220  205.1230  147.2070 C   0  0  0  0  0  2  0  0  0  0  0  0
  160.6090  201.0930  147.1050 C   0  0  0  0  0  2  0  0  0  0  0  0
  162.1750  203.5730  145.4690 O   0  0  0  0  0  1  0  0  0  0  0  0
  161.2250  203.7950  146.4730 C   0  0  1  0  0  0  0  0  0  0  0  0
  160.7780  202.6030  147.3770 C   0  0  0  0  0  0  0  0  0  0  0  0
  161.9690  201.6420  147.1960 C   0  0  0  0  0  2  0  0  0  0  0  0
  159.8680  203.2360  146.2490 C   0  0  2  0  0  3  0  0  0  0  0  0
  159.0500  203.1890  143.9460 O   0  0  0  0  0  0  0  0  0  0  0  0
  159.7290  202.6310  144.8600 C   0  0  0  0  0  0  0  0  0  0  0  0
  160.2450  201.3590  144.6330 O   0  0  0  0  0  1  0  0  0  0  0  0
  1  2  2  0  0  0  0
  2  5  1  0  0  0  0
  2  3  1  0  0  0  0
  3  6  1  0  0  0  0
  4  7  1  0  0  0  0
  4 24  1  1  0  0  0
  5  8  1  6  0  0  0
  5  4  1  0  0  0  0
  7  6  1  0  0  0  0
  8  9  1  6  0  0  0
 11  8  1  0  0  0  0
 11 10  1  0  0  0  0
 12 13  1  6  0  0  0
 12 11  1  0  0  0  0
 14 13  1  0  0  0  0
 15 12  1  0  0  0  0
 16 18  2  0  0  0  0
 17 22  1  0  0  0  0
 17 19  1  0  0  0  0
 19 16  1  0  0  0  0
 21 16  1  0  0  0  0
 21 15  1  1  0  0  0
 22 20  2  6  0  0  0
 22 21  1  0  0  0  0
 23 22  1  0  0  0  0
 24 28  1  0  0  0  0
 25 40  2  0  0  0  0
 26 36  2  0  0  0  0
 26 42  1  0  0  0  0
 28 26  1  0  0  0  0
 29 39  1  0  0  0  0
 30 29  2  0  0  0  0
 30 34  1  0  0  0  0
 31 27  1  0  0  0  0
 31 41  1  0  0  0  0
 32 25  1  0  0  0  0
 32 31  2  0  0  0  0
 34 38  1  0  0  0  0
 35 36  1  0  0  0  0
 37 34  2  0  0  0  0
 37 32  1  0  0  0  0
 38 33  1  0  0  0  0
 38 27  2  0  0  0  0
 39 33  2  0  0  0  0
 40 41  1  0  0  0  0
 40 28  1  0  0  0  0
 41 35  2  0  0  0  0
 42 49  1  0  0  0  0
 43 49  2  0  0  0  0
 44 46  1  0  0  0  0
 44 48  1  1  0  0  0
 44 47  1  0  0  0  0
 45 47  1  0  0  0  0
 46 43  1  0  0  0  0
 49 45  1  0  0  0  0
 50  1  1  0  0  0  0
 51 52  1  6  0  0  0
 51 50  1  0  0  0  0
 52 53  1  0  0  0  0
 54 51  1  0  0  0  0
 55 56  1  6  0  0  0
 55 54  1  0  0  0  0
 55 57  1  0  0  0  0
 58 62  1  0  0  0  0
 58 61  1  0  0  0  0
 60 59  1  6  0  0  0
 60 57  1  0  0  0  0
 60 61  1  0  0  0  0
 62 61  1  0  0  0  0
 63 65  1  6  0  0  0
 63 60  1  0  0  0  0
 63 61  1  0  0  0  0
 64 65  2  0  0  0  0
 66 65  1  0  0  0  0
M  END
>  <MODEL>
5

>  <REMARK>
 VINA RESULT:       4.6      3.027      8.664
  Name = 
  18 active torsions:
  status: ('A' for Active; 'I' for Inactive)
    1  A    between atoms: C_1  and  C_36
    2  A    between atoms: C_1  and  N_62
    3  A    between atoms: O_2  and  C_25
    4  A    between atoms: O_2  and  C_39
    5  A    between atoms: C_6  and  O_12
    6  A    between atoms: C_11  and  C_23
    7  A    between atoms: C_11  and  C_25
    8  A    between atoms: O_12  and  C_53
    9  A    between atoms: C_13  and  C_19
   10  A    between atoms: C_14  and  C_39
   11  A    between atoms: C_14  and  C_49
   12  A    between atoms: C_19  and  C_41
   13  A    between atoms: C_19  and  N_62
   14  A    between atoms: N_20  and  C_33
   15  A    between atoms: C_21  and  C_25
   16  A    between atoms: C_32  and  C_33
   17  A    between atoms: C_41  and  C_58
   18  A    between atoms: C_60  and  C_64
                            x       y       z     vdW  Elec       q    Type
                         _______ _______ _______ _____ _____    ______ ____

>  <TORSDO>
F 18

$$$$
=
 OpenBabel11042422423D

 66 74  0  0  1  0  0  0  0  0999 V2000
  163.1340  209.1740  147.6170 C   0  0  0  0  0  3  0  0  0  0  0  0
  163.2340  210.4810  147.9110 C   0  0  0  0  0  0  0  0  0  0  0  0
  164.6290  211.0340  147.9180 C   0  0  0  0  0  2  0  0  0  0  0  0
  162.3590  212.8290  148.5290 C   0  0  1  0  0  3  0  0  0  0  0  0
  162.0310  211.3450  148.2960 C   0  0  2  0  0  3  0  0  0  0  0  0
  164.6560  212.5530  147.9700 C   0  0  0  0  0  2  0  0  0  0  0  0
  163.7350  213.0380  148.9910 N   0  0  0  0  0  2  0  0  0  0  0  0
  161.2430  210.7600  149.4850 C   0  0  1  0  0  3  0  0  0  0  0  0
  160.8570  209.4450  149.2250 O   0  0  0  0  0  1  0  0  0  0  0  0
  161.4970  212.0140  151.5720 C   0  0  0  0  0  1  0  0  0  0  0  0
  161.9130  210.8410  150.8050 N   0  0  0  0  0  0  0  0  0  0  0  0
  161.5870  209.6620  151.6270 C   0  0  1  0  0  3  0  0  0  0  0  0
  162.5810  208.5110  151.4350 C   0  0  0  0  0  2  0  0  0  0  0  0
  162.1970  207.4140  152.2000 O   0  0  0  0  0  1  0  0  0  0  0  0
  161.4770  210.0310  153.1080 C   0  0  0  0  0  2  0  0  0  0  0  0
  160.4550  208.3090  154.7210 C   0  0  0  0  0  0  0  0  0  0  0  0
  159.1740  209.6350  156.3020 O   0  0  0  0  0  0  0  0  0  0  0  0
  160.9020  207.1350  154.2770 C   0  0  0  0  0  2  0  0  0  0  0  0
  159.9330  208.4490  156.1280 C   0  0  0  0  0  2  0  0  0  0  0  0
  158.1030  211.3370  154.3400 O   0  0  0  0  0  0  0  0  0  0  0  0
  160.2280  209.4740  153.8190 C   0  0  1  0  0  3  0  0  0  0  0  0
  159.5160  210.6400  154.9680 P   0  0  2  0  0  0  0  0  0  0  0  0
  160.4880  211.7230  155.3590 O   0  0  0  0  0  1  0  0  0  0  0  0
  162.0180  213.7020  147.3070 C   0  0  0  0  0  2  0  0  0  0  0  0
  159.8020  213.0350  149.3280 C   0  0  0  0  0  3  0  0  0  0  0  0
  160.2470  213.7130  145.5010 C   0  0  0  0  0  0  0  0  0  0  0  0
  156.2510  214.0110  148.9870 C   0  0  0  0  0  3  0  0  0  0  0  0
  160.6420  213.4520  146.8760 N   0  0  0  0  0  0  0  0  0  0  0  0
  154.8100  214.0370  152.9450 C   0  0  0  0  0  3  0  0  0  0  0  0
  156.1190  213.6140  152.6900 C   0  0  0  0  0  3  0  0  0  0  0  0
  157.5720  213.6220  148.7760 C   0  0  0  0  0  0  0  0  0  0  0  0
  158.4070  213.2650  149.8160 C   0  0  0  0  0  0  0  0  0  0  0  0
  154.4620  214.4350  150.5780 C   0  0  0  0  0  3  0  0  0  0  0  0
  156.6150  213.6020  151.3800 C   0  0  0  0  0  0  0  0  0  0  0  0
  157.9720  214.0410  146.2560 N   0  0  0  0  0  0  0  0  0  0  0  0
  158.9690  214.0340  145.2190 C   0  0  0  0  0  3  0  0  0  0  0  0
  157.9510  213.2420  151.1350 C   0  0  0  0  0  3  0  0  0  0  0  0
  155.7670  214.0060  150.3060 C   0  0  0  0  0  0  0  0  0  0  0  0
  153.9870  214.4530  151.8960 C   0  0  0  0  0  3  0  0  0  0  0  0
  159.6130  213.3220  147.8650 C   0  0  0  0  0  0  0  0  0  0  0  0
  158.3570  213.6180  147.5650 C   0  0  0  0  0  0  0  0  0  0  0  0
  161.1760  213.6600  144.4580 O   0  0  0  0  0  0  0  0  0  0  0  0
  159.7660  212.8180  142.7330 C   0  0  0  0  0  3  0  0  0  0  0  0
  160.7640  211.7730  140.6720 C   0  0  1  0  0  3  0  0  0  0  0  0
  162.2020  212.3220  142.6200 C   0  0  0  0  0  2  0  0  0  0  0  0
  159.4900  212.0300  141.4820 C   0  0  0  0  0  2  0  0  0  0  0  0
  161.8450  211.2390  141.6010 C   0  0  0  0  0  2  0  0  0  0  0  0
  160.4750  210.7640  139.5870 C   0  0  0  0  0  1  0  0  0  0  0  0
  160.9860  212.9170  143.2870 C   0  0  0  0  0  0  0  0  0  0  0  0
  161.8690  208.3670  147.6810 C   0  0  0  0  0  2  0  0  0  0  0  0
  161.8920  207.1440  146.7590 C   0  0  2  0  0  3  0  0  0  0  0  0
  160.9440  207.2780  145.5650 C   0  0  0  0  0  2  0  0  0  0  0  0
  160.0390  206.1350  145.5210 N   0  0  0  0  0  1  0  0  0  0  0  0
  161.6490  205.9730  147.5090 O   0  0  0  0  0  0  0  0  0  0  0  0
  161.9710  204.8120  146.7550 C   0  0  1  0  0  3  0  0  0  0  0  0
  163.2430  204.9360  146.1960 O   0  0  0  0  0  1  0  0  0  0  0  0
  161.8370  203.4730  147.4990 C   0  0  0  0  0  2  0  0  0  0  0  0
  161.6320  202.9890  151.5590 C   0  0  0  0  0  2  0  0  0  0  0  0
  159.7470  203.5290  148.8330 O   0  0  0  0  0  1  0  0  0  0  0  0
  161.1410  203.6520  148.8390 C   0  0  1  0  0  0  0  0  0  0  0  0
  161.9510  203.0950  150.0520 C   0  0  0  0  0  0  0  0  0  0  0  0
  160.9440  202.0830  150.6310 C   0  0  0  0  0  2  0  0  0  0  0  0
  161.7240  204.6380  149.7840 C   0  0  2  0  0  3  0  0  0  0  0  0
  160.4180  205.3380  151.7290 O   0  0  0  0  0  1  0  0  0  0  0  0
  160.6470  205.4510  150.4860 C   0  0  0  0  0  0  0  0  0  0  0  0
  159.7930  206.2330  149.7140 O   0  0  0  0  0  0  0  0  0  0  0  0
  1 50  1  0  0  0  0
  1  2  2  0  0  0  0
  2  3  1  0  0  0  0
  2  5  1  0  0  0  0
  3  6  1  0  0  0  0
  4 24  1  6  0  0  0
  4  7  1  0  0  0  0
  5  4  1  0  0  0  0
  5  8  1  1  0  0  0
  6  7  1  0  0  0  0
  8  9  1  6  0  0  0
  8 11  1  0  0  0  0
 11 10  1  0  0  0  0
 11 12  1  0  0  0  0
 12 13  1  1  0  0  0
 12 15  1  0  0  0  0
 13 14  1  0  0  0  0
 16 19  1  0  0  0  0
 18 16  2  0  0  0  0
 19 17  1  0  0  0  0
 21 15  1  1  0  0  0
 21 16  1  0  0  0  0
 21 22  1  0  0  0  0
 22 20  2  6  0  0  0
 22 23  1  0  0  0  0
 22 17  1  0  0  0  0
 25 32  1  0  0  0  0
 26 28  1  0  0  0  0
 27 38  1  0  0  0  0
 28 24  1  0  0  0  0
 28 40  1  0  0  0  0
 30 29  1  0  0  0  0
 31 27  2  0  0  0  0
 31 32  1  0  0  0  0
 32 37  2  0  0  0  0
 33 39  1  0  0  0  0
 34 30  2  0  0  0  0
 35 41  2  0  0  0  0
 36 26  2  0  0  0  0
 36 35  1  0  0  0  0
 37 34  1  0  0  0  0
 38 33  2  0  0  0  0
 38 34  1  0  0  0  0
 39 29  2  0  0  0  0
 40 25  2  0  0  0  0
 41 40  1  0  0  0  0
 41 31  1  0  0  0  0
 42 26  1  0  0  0  0
 43 49  2  0  0  0  0
 44 48  1  6  0  0  0
 44 46  1  0  0  0  0
 44 47  1  0  0  0  0
 45 49  1  0  0  0  0
 46 43  1  0  0  0  0
 47 45  1  0  0  0  0
 49 42  1  0  0  0  0
 51 52  1  6  0  0  0
 51 54  1  0  0  0  0
 51 50  1  0  0  0  0
 53 52  1  0  0  0  0
 55 56  1  1  0  0  0
 55 57  1  0  0  0  0
 55 54  1  0  0  0  0
 57 60  1  0  0  0  0
 60 59  1  1  0  0  0
 60 63  1  0  0  0  0
 60 61  1  0  0  0  0
 61 62  1  0  0  0  0
 61 58  1  0  0  0  0
 62 58  1  0  0  0  0
 63 61  1  0  0  0  0
 63 65  1  1  0  0  0
 65 64  1  0  0  0  0
 66 65  2  0  0  0  0
M  END
>  <MODEL>
6

>  <REMARK>
 VINA RESULT:       4.6      1.492      2.234
  Name = 
  18 active torsions:
  status: ('A' for Active; 'I' for Inactive)
    1  A    between atoms: C_1  and  C_36
    2  A    between atoms: C_1  and  N_62
    3  A    between atoms: O_2  and  C_25
    4  A    between atoms: O_2  and  C_39
    5  A    between atoms: C_6  and  O_12
    6  A    between atoms: C_11  and  C_23
    7  A    between atoms: C_11  and  C_25
    8  A    between atoms: O_12  and  C_53
    9  A    between atoms: C_13  and  C_19
   10  A    between atoms: C_14  and  C_39
   11  A    between atoms: C_14  and  C_49
   12  A    between atoms: C_19  and  C_41
   13  A    between atoms: C_19  and  N_62
   14  A    between atoms: N_20  and  C_33
   15  A    between atoms: C_21  and  C_25
   16  A    between atoms: C_32  and  C_33
   17  A    between atoms: C_41  and  C_58
   18  A    between atoms: C_60  and  C_64
                            x       y       z     vdW  Elec       q    Type
                         _______ _______ _______ _____ _____    ______ ____

>  <TORSDO>
F 18

$$$$
