=
 OpenBabel11052411143D

 26 29  0  0  1  0  0  0  0  0999 V2000
  162.5370  207.7980  149.1130 O   0  0  0  0  0  1  0  0  0  0  0  0
  161.2340  206.7570  152.2310 C   0  0  0  0  0  0  0  0  0  0  0  0
  160.7710  204.4680  148.5830 C   0  0  0  0  0  2  0  0  0  0  0  0
  161.2720  205.5260  152.9540 C   0  0  0  0  0  3  0  0  0  0  0  0
  161.5940  205.9210  150.1020 C   0  0  2  0  0  3  0  0  0  0  0  0
  161.5350  206.7630  148.9290 C   0  0  2  0  0  3  0  0  0  0  0  0
  160.7150  204.7830  150.0390 C   0  0  2  0  0  3  0  0  0  0  0  0
  161.2640  204.2420  152.4710 C   0  0  0  0  0  2  0  0  0  0  0  0
  161.7350  205.6290  147.8520 C   0  0  2  0  0  3  0  0  0  0  0  0
  161.2280  206.8820  150.9940 C   0  0  0  0  0  2  0  0  0  0  0  0
  161.2720  203.7440  151.0480 C   0  0  0  0  0  2  0  0  0  0  0  0
  161.1900  206.1250  146.5620 N   0  0  0  0  0  2  0  0  0  0  0  0
  161.5640  205.2870  144.4600 O   0  0  0  0  0  1  0  0  0  0  0  0
  163.1870  204.7220  146.1070 C   0  0  0  0  0  1  0  0  0  0  0  0
  162.2210  205.7980  145.6090 C   0  0  2  0  0  3  0  0  0  0  0  0
  160.9580  207.9920  153.0650 C   0  0  0  0  0  2  0  0  0  0  0  0
  161.5150  210.3900  152.7130 N   0  0  0  0  0  2  0  0  0  0  0  0
  160.2270  210.4090  153.4450 C   0  0  2  0  0  3  0  0  0  0  0  0
  160.4730  209.3470  152.3850 C   0  0  2  0  0  3  0  0  0  0  0  0
  160.0640  212.4170  151.9340 N   0  0  0  0  0  0  0  0  0  0  0  0
  158.2680  212.0990  153.5190 C   0  0  0  0  0  3  0  0  0  0  0  0
  158.2300  213.9290  151.8660 C   0  0  0  0  0  3  0  0  0  0  0  0
  160.0730  214.1680  150.2730 N   0  0  0  0  0  1  0  0  0  0  0  0
  159.4400  213.4720  151.4090 C   0  0  0  0  0  0  0  0  0  0  0  0
  157.6400  213.2130  152.9740 C   0  0  0  0  0  3  0  0  0  0  0  0
  159.4960  211.6670  152.9890 C   0  0  0  0  0  0  0  0  0  0  0  0
  2  4  2  0  0  0  0
  2 16  1  0  0  0  0
  5 10  1  1  0  0  0
  6  1  1  1  0  0  0
  6  5  1  0  0  0  0
  7  3  1  6  0  0  0
  7  5  1  0  0  0  0
  7 11  1  0  0  0  0
  8  4  1  0  0  0  0
  9 12  1  6  0  0  0
  9  3  1  0  0  0  0
  9  6  1  0  0  0  0
 10  2  1  0  0  0  0
 11  8  1  0  0  0  0
 13 15  1  0  0  0  0
 15 14  1  1  0  0  0
 15 12  1  0  0  0  0
 17 18  1  0  0  0  0
 18 26  1  6  0  0  0
 19 17  1  0  0  0  0
 19 16  1  1  0  0  0
 19 18  1  0  0  0  0
 20 26  1  0  0  0  0
 22 25  2  0  0  0  0
 23 24  1  0  0  0  0
 24 22  1  0  0  0  0
 24 20  2  0  0  0  0
 25 21  1  0  0  0  0
 26 21  2  0  0  0  0
M  END
>  <MODEL>
1

>  <REMARK>
 VINA RESULT:      -8.6      0.000      0.000
  Name = 
  5 active torsions:
  status: ('A' for Active; 'I' for Inactive)
    1  A    between atoms: C_2  and  C_26
    2  A    between atoms: C_3  and  C_18
    3  A    between atoms: C_5  and  C_18
    4  A    between atoms: N_7  and  C_13
    5  A    between atoms: N_7  and  C_21
                            x       y       z     vdW  Elec       q    Type
                         _______ _______ _______ _____ _____    ______ ____

>  <TORSDO>
F 5

$$$$
=
 OpenBabel11052411143D

 26 29  0  0  1  0  0  0  0  0999 V2000
  162.6800  208.1100  148.4330 O   0  0  0  0  0  1  0  0  0  0  0  0
  161.6160  207.9060  151.7990 C   0  0  0  0  0  0  0  0  0  0  0  0
  160.6650  204.9040  148.8240 C   0  0  0  0  0  2  0  0  0  0  0  0
  161.6440  206.8690  152.7800 C   0  0  0  0  0  3  0  0  0  0  0  0
  161.7180  206.5870  149.8980 C   0  0  2  0  0  3  0  0  0  0  0  0
  161.6020  207.1470  148.5710 C   0  0  2  0  0  3  0  0  0  0  0  0
  160.7670  205.5410  150.1680 C   0  0  2  0  0  3  0  0  0  0  0  0
  161.5090  205.5150  152.6090 C   0  0  0  0  0  2  0  0  0  0  0  0
  161.6260  205.7870  147.7730 C   0  0  2  0  0  3  0  0  0  0  0  0
  161.5000  207.7510  150.5710 C   0  0  0  0  0  2  0  0  0  0  0  0
  161.3510  204.7120  151.3430 C   0  0  0  0  0  2  0  0  0  0  0  0
  160.9940  206.0260  146.4500 N   0  0  0  0  0  2  0  0  0  0  0  0
  161.4370  205.1140  144.3920 O   0  0  0  0  0  1  0  0  0  0  0  0
  163.0990  204.7700  146.0610 C   0  0  0  0  0  1  0  0  0  0  0  0
  162.0490  205.7350  145.5110 C   0  0  2  0  0  3  0  0  0  0  0  0
  161.4980  209.3140  152.3450 C   0  0  0  0  0  2  0  0  0  0  0  0
  160.2390  211.4580  152.2990 N   0  0  0  0  0  2  0  0  0  0  0  0
  160.1540  211.0050  153.7070 C   0  0  2  0  0  3  0  0  0  0  0  0
  160.0740  209.9840  152.5830 C   0  0  2  0  0  3  0  0  0  0  0  0
  158.1970  212.5820  153.5410 N   0  0  0  0  0  0  0  0  0  0  0  0
  158.1650  210.9960  155.3640 C   0  0  0  0  0  3  0  0  0  0  0  0
  156.2840  212.5370  154.9520 C   0  0  0  0  0  3  0  0  0  0  0  0
  156.3770  214.0950  153.0670 N   0  0  0  0  0  1  0  0  0  0  0  0
  156.9890  213.0310  153.8840 C   0  0  0  0  0  0  0  0  0  0  0  0
  156.9160  211.4890  155.7210 C   0  0  0  0  0  3  0  0  0  0  0  0
  158.8270  211.5290  154.2430 C   0  0  0  0  0  0  0  0  0  0  0  0
  2 16  1  0  0  0  0
  2  4  2  0  0  0  0
  5  7  1  0  0  0  0
  5 10  1  1  0  0  0
  6  1  1  6  0  0  0
  6  5  1  0  0  0  0
  7  3  1  6  0  0  0
  7 11  1  0  0  0  0
  8  4  1  0  0  0  0
  9 12  1  6  0  0  0
  9  6  1  0  0  0  0
  9  3  1  0  0  0  0
 10  2  1  0  0  0  0
 11  8  1  0  0  0  0
 13 15  1  0  0  0  0
 15 14  1  1  0  0  0
 15 12  1  0  0  0  0
 17 19  1  0  0  0  0
 17 18  1  0  0  0  0
 18 26  1  6  0  0  0
 19 16  1  1  0  0  0
 19 18  1  0  0  0  0
 20 24  2  0  0  0  0
 20 26  1  0  0  0  0
 21 25  1  0  0  0  0
 22 25  2  0  0  0  0
 23 24  1  0  0  0  0
 24 22  1  0  0  0  0
 26 21  2  0  0  0  0
M  END
>  <MODEL>
2

>  <REMARK>
 VINA RESULT:      -8.5      1.441      1.852
  Name = 
  5 active torsions:
  status: ('A' for Active; 'I' for Inactive)
    1  A    between atoms: C_2  and  C_26
    2  A    between atoms: C_3  and  C_18
    3  A    between atoms: C_5  and  C_18
    4  A    between atoms: N_7  and  C_13
    5  A    between atoms: N_7  and  C_21
                            x       y       z     vdW  Elec       q    Type
                         _______ _______ _______ _____ _____    ______ ____

>  <TORSDO>
F 5

$$$$
=
 OpenBabel11052411143D

 26 29  0  0  1  0  0  0  0  0999 V2000
  160.5900  207.3600  148.9910 O   0  0  0  0  0  1  0  0  0  0  0  0
  161.0650  205.7580  152.1080 C   0  0  0  0  0  0  0  0  0  0  0  0
  162.3410  209.8200  151.3100 C   0  0  0  0  0  2  0  0  0  0  0  0
  160.8180  206.1420  153.4610 C   0  0  0  0  0  3  0  0  0  0  0  0
  161.2120  207.8700  151.1690 C   0  0  2  0  0  3  0  0  0  0  0  0
  161.5780  208.0690  149.7850 C   0  0  2  0  0  3  0  0  0  0  0  0
  162.0490  208.5870  152.0960 C   0  0  2  0  0  3  0  0  0  0  0  0
  160.9090  207.3840  154.0350 C   0  0  0  0  0  2  0  0  0  0  0  0
  161.6160  209.6450  149.8090 C   0  0  2  0  0  3  0  0  0  0  0  0
  161.3760  206.5180  151.1750 C   0  0  0  0  0  2  0  0  0  0  0  0
  161.2340  208.7170  153.4100 C   0  0  0  0  0  2  0  0  0  0  0  0
  162.4720  210.0950  148.6810 N   0  0  0  0  0  2  0  0  0  0  0  0
  161.0460  211.5490  147.6250 O   0  0  0  0  0  1  0  0  0  0  0  0
  163.2720  212.3280  147.9480 C   0  0  0  0  0  1  0  0  0  0  0  0
  162.1350  211.4890  148.5320 C   0  0  2  0  0  3  0  0  0  0  0  0
  161.1630  204.2660  151.8630 C   0  0  0  0  0  2  0  0  0  0  0  0
  161.1410  202.2130  150.4610 N   0  0  0  0  0  2  0  0  0  0  0  0
  161.7250  203.2560  149.5860 C   0  0  2  0  0  3  0  0  0  0  0  0
  160.5880  203.6160  150.5290 C   0  0  2  0  0  3  0  0  0  0  0  0
  161.5220  203.8540  147.1480 N   0  0  0  0  0  0  0  0  0  0  0  0
  160.8460  201.6220  147.7810 C   0  0  0  0  0  3  0  0  0  0  0  0
  160.8460  202.3580  145.4280 C   0  0  0  0  0  3  0  0  0  0  0  0
  161.5720  204.6260  144.8620 N   0  0  0  0  0  1  0  0  0  0  0  0
  161.3000  203.5780  145.8620 C   0  0  0  0  0  0  0  0  0  0  0  0
  160.6010  201.3560  146.4400 C   0  0  0  0  0  3  0  0  0  0  0  0
  161.3340  202.8850  148.1610 C   0  0  0  0  0  0  0  0  0  0  0  0
  2  4  2  0  0  0  0
  4  8  1  0  0  0  0
  5 10  1  1  0  0  0
  5  7  1  0  0  0  0
  6  1  1  6  0  0  0
  6  9  1  0  0  0  0
  6  5  1  0  0  0  0
  7  3  1  6  0  0  0
  7 11  1  0  0  0  0
  9 12  1  6  0  0  0
  9  3  1  0  0  0  0
 10  2  1  0  0  0  0
 11  8  1  0  0  0  0
 13 15  1  0  0  0  0
 15 14  1  6  0  0  0
 15 12  1  0  0  0  0
 16  2  1  0  0  0  0
 17 19  1  0  0  0  0
 18 26  1  6  0  0  0
 18 17  1  0  0  0  0
 18 19  1  0  0  0  0
 19 16  1  1  0  0  0
 20 26  1  0  0  0  0
 21 26  2  0  0  0  0
 22 24  1  0  0  0  0
 22 25  2  0  0  0  0
 23 24  1  0  0  0  0
 24 20  2  0  0  0  0
 25 21  1  0  0  0  0
M  END
>  <MODEL>
3

>  <REMARK>
 VINA RESULT:      -8.4      3.121      7.548
  Name = 
  5 active torsions:
  status: ('A' for Active; 'I' for Inactive)
    1  A    between atoms: C_2  and  C_26
    2  A    between atoms: C_3  and  C_18
    3  A    between atoms: C_5  and  C_18
    4  A    between atoms: N_7  and  C_13
    5  A    between atoms: N_7  and  C_21
                            x       y       z     vdW  Elec       q    Type
                         _______ _______ _______ _____ _____    ______ ____

>  <TORSDO>
F 5

$$$$
=
 OpenBabel11052411143D

 26 29  0  0  1  0  0  0  0  0999 V2000
  159.0680  211.0430  152.7650 O   0  0  0  0  0  1  0  0  0  0  0  0
  161.2530  208.3650  152.0160 C   0  0  0  0  0  0  0  0  0  0  0  0
  160.2670  209.5610  156.0600 C   0  0  0  0  0  2  0  0  0  0  0  0
  161.3570  207.0190  152.4800 C   0  0  0  0  0  3  0  0  0  0  0  0
  160.1280  209.2700  153.8260 C   0  0  2  0  0  3  0  0  0  0  0  0
  159.8590  210.6860  153.9300 C   0  0  2  0  0  3  0  0  0  0  0  0
  160.8370  208.7340  154.9590 C   0  0  2  0  0  3  0  0  0  0  0  0
  161.0950  206.5140  153.7280 C   0  0  0  0  0  2  0  0  0  0  0  0
  159.2140  210.6670  155.3690 C   0  0  2  0  0  3  0  0  0  0  0  0
  160.8530  209.3400  152.6750 C   0  0  0  0  0  2  0  0  0  0  0  0
  160.5660  207.2060  154.9590 C   0  0  0  0  0  2  0  0  0  0  0  0
  159.3320  212.0340  155.9380 N   0  0  0  0  0  2  0  0  0  0  0  0
  157.1570  211.3050  155.9610 O   0  0  0  0  0  1  0  0  0  0  0  0
  157.5270  213.4390  154.9740 C   0  0  0  0  0  1  0  0  0  0  0  0
  157.9630  212.4670  156.0710 C   0  0  2  0  0  3  0  0  0  0  0  0
  161.8960  208.6400  150.6720 C   0  0  0  0  0  2  0  0  0  0  0  0
  162.2930  208.0420  148.2910 N   0  0  0  0  0  2  0  0  0  0  0  0
  161.1280  207.2210  148.6930 C   0  0  2  0  0  3  0  0  0  0  0  0
  162.2620  207.4500  149.6800 C   0  0  2  0  0  3  0  0  0  0  0  0
  161.1930  206.0700  146.4540 N   0  0  0  0  0  0  0  0  0  0  0  0
  161.3220  204.6550  148.4090 C   0  0  0  0  0  3  0  0  0  0  0  0
  161.5000  203.7350  146.1270 C   0  0  0  0  0  3  0  0  0  0  0  0
  161.3900  205.2360  144.1980 N   0  0  0  0  0  1  0  0  0  0  0  0
  161.3530  205.0140  145.6550 C   0  0  0  0  0  0  0  0  0  0  0  0
  161.4670  203.5630  147.5620 C   0  0  0  0  0  3  0  0  0  0  0  0
  161.1990  205.9450  147.8620 C   0  0  0  0  0  0  0  0  0  0  0  0
  2  4  2  0  0  0  0
  2 10  1  0  0  0  0
  4  8  1  0  0  0  0
  5 10  1  6  0  0  0
  5  6  1  0  0  0  0
  5  7  1  0  0  0  0
  6  1  1  6  0  0  0
  6  9  1  0  0  0  0
  7 11  1  1  0  0  0
  7  3  1  0  0  0  0
  8 11  1  0  0  0  0
  9 12  1  1  0  0  0
  9  3  1  0  0  0  0
 12 15  1  0  0  0  0
 13 15  1  0  0  0  0
 15 14  1  6  0  0  0
 16  2  1  0  0  0  0
 17 18  1  0  0  0  0
 17 19  1  0  0  0  0
 18 26  1  6  0  0  0
 18 19  1  0  0  0  0
 19 16  1  1  0  0  0
 20 26  1  0  0  0  0
 22 25  2  0  0  0  0
 23 24  1  0  0  0  0
 24 22  1  0  0  0  0
 24 20  2  0  0  0  0
 25 21  1  0  0  0  0
 26 21  2  0  0  0  0
M  END
>  <MODEL>
4

>  <REMARK>
 VINA RESULT:      -8.3      3.305      8.445
  Name = 
  5 active torsions:
  status: ('A' for Active; 'I' for Inactive)
    1  A    between atoms: C_2  and  C_26
    2  A    between atoms: C_3  and  C_18
    3  A    between atoms: C_5  and  C_18
    4  A    between atoms: N_7  and  C_13
    5  A    between atoms: N_7  and  C_21
                            x       y       z     vdW  Elec       q    Type
                         _______ _______ _______ _____ _____    ______ ____

>  <TORSDO>
F 5

$$$$
=
 OpenBabel11052411143D

 26 29  0  0  1  0  0  0  0  0999 V2000
  161.0630  207.5210  155.4060 O   0  0  0  0  0  1  0  0  0  0  0  0
  161.3560  206.6420  151.9930 C   0  0  0  0  0  0  0  0  0  0  0  0
  160.3930  210.6450  153.3370 C   0  0  0  0  0  2  0  0  0  0  0  0
  162.0410  207.2200  150.8820 C   0  0  0  0  0  3  0  0  0  0  0  0
  161.1870  208.5320  153.3190 C   0  0  2  0  0  3  0  0  0  0  0  0
  160.4500  208.5320  154.5620 C   0  0  2  0  0  3  0  0  0  0  0  0
  160.7570  209.5490  152.3950 C   0  0  2  0  0  3  0  0  0  0  0  0
  162.2740  208.5440  150.6070 C   0  0  0  0  0  2  0  0  0  0  0  0
  160.6080  210.0650  154.8940 C   0  0  2  0  0  3  0  0  0  0  0  0
  160.8730  207.2580  152.9590 C   0  0  0  0  0  2  0  0  0  0  0  0
  161.9380  209.7730  151.4120 C   0  0  0  0  0  2  0  0  0  0  0  0
  159.5130  210.4440  155.8250 N   0  0  0  0  0  2  0  0  0  0  0  0
  160.1990  212.5910  156.2550 O   0  0  0  0  0  1  0  0  0  0  0  0
  161.6130  210.8630  157.0820 C   0  0  0  0  0  1  0  0  0  0  0  0
  160.1690  211.2800  156.7990 C   0  0  2  0  0  3  0  0  0  0  0  0
  161.0120  205.1730  151.8510 C   0  0  0  0  0  2  0  0  0  0  0  0
  160.4750  203.0840  150.6140 N   0  0  0  0  0  2  0  0  0  0  0  0
  161.5430  203.7280  149.8140 C   0  0  2  0  0  3  0  0  0  0  0  0
  160.4750  204.5870  150.4720 C   0  0  2  0  0  3  0  0  0  0  0  0
  161.5630  204.2750  147.3560 N   0  0  0  0  0  0  0  0  0  0  0  0
  160.8540  202.0470  147.9690 C   0  0  0  0  0  3  0  0  0  0  0  0
  161.0680  202.7380  145.6110 C   0  0  0  0  0  3  0  0  0  0  0  0
  161.8210  205.0030  145.0690 N   0  0  0  0  0  1  0  0  0  0  0  0
  161.4670  203.9710  146.0610 C   0  0  0  0  0  0  0  0  0  0  0  0
  160.7390  201.7530  146.6160 C   0  0  0  0  0  3  0  0  0  0  0  0
  161.2910  203.3240  148.3660 C   0  0  0  0  0  0  0  0  0  0  0  0
  2 10  1  0  0  0  0
  3  9  1  0  0  0  0
  4  2  2  0  0  0  0
  5 10  1  6  0  0  0
  5  6  1  0  0  0  0
  6  9  1  0  0  0  0
  6  1  1  1  0  0  0
  7 11  1  6  0  0  0
  7  5  1  0  0  0  0
  7  3  1  0  0  0  0
  8  4  1  0  0  0  0
  8 11  1  0  0  0  0
  9 12  1  1  0  0  0
 12 15  1  0  0  0  0
 13 15  1  0  0  0  0
 15 14  1  6  0  0  0
 16  2  1  0  0  0  0
 18 26  1  6  0  0  0
 18 19  1  0  0  0  0
 18 17  1  0  0  0  0
 19 17  1  0  0  0  0
 19 16  1  1  0  0  0
 20 26  1  0  0  0  0
 21 26  2  0  0  0  0
 22 24  1  0  0  0  0
 22 25  2  0  0  0  0
 23 24  1  0  0  0  0
 24 20  2  0  0  0  0
 25 21  1  0  0  0  0
M  END
>  <MODEL>
5

>  <REMARK>
 VINA RESULT:      -8.2      3.562      8.805
  Name = 
  5 active torsions:
  status: ('A' for Active; 'I' for Inactive)
    1  A    between atoms: C_2  and  C_26
    2  A    between atoms: C_3  and  C_18
    3  A    between atoms: C_5  and  C_18
    4  A    between atoms: N_7  and  C_13
    5  A    between atoms: N_7  and  C_21
                            x       y       z     vdW  Elec       q    Type
                         _______ _______ _______ _____ _____    ______ ____

>  <TORSDO>
F 5

$$$$
=
 OpenBabel11052411143D

 26 29  0  0  1  0  0  0  0  0999 V2000
  162.5610  206.1910  152.0730 O   0  0  0  0  0  1  0  0  0  0  0  0
  161.9840  208.2000  149.2200 C   0  0  0  0  0  0  0  0  0  0  0  0
  160.5780  209.2450  153.1810 C   0  0  0  0  0  2  0  0  0  0  0  0
  162.1380  209.5930  148.9480 C   0  0  0  0  0  3  0  0  0  0  0  0
  161.7970  208.3140  151.5250 C   0  0  2  0  0  3  0  0  0  0  0  0
  161.5000  207.1500  152.3280 C   0  0  2  0  0  3  0  0  0  0  0  0
  160.8790  209.4050  151.7300 C   0  0  2  0  0  3  0  0  0  0  0  0
  161.9610  210.6610  149.7910 C   0  0  0  0  0  2  0  0  0  0  0  0
  161.3920  207.8830  153.7190 C   0  0  2  0  0  3  0  0  0  0  0  0
  161.6930  207.6940  150.3170 C   0  0  0  0  0  2  0  0  0  0  0  0
  161.6130  210.6880  151.2580 C   0  0  0  0  0  2  0  0  0  0  0  0
  160.5800  207.0260  154.6220 N   0  0  0  0  0  2  0  0  0  0  0  0
  161.8750  208.1320  156.1590 O   0  0  0  0  0  1  0  0  0  0  0  0
  159.9930  206.9670  157.0330 C   0  0  0  0  0  1  0  0  0  0  0  0
  160.5370  207.7740  155.8540 C   0  0  2  0  0  3  0  0  0  0  0  0
  161.9660  207.2990  148.0020 C   0  0  0  0  0  2  0  0  0  0  0  0
  161.2870  205.0960  147.0700 N   0  0  0  0  0  2  0  0  0  0  0  0
  160.8020  205.0740  148.4700 C   0  0  2  0  0  3  0  0  0  0  0  0
  162.1390  205.7230  148.1470 C   0  0  2  0  0  3  0  0  0  0  0  0
  161.0010  202.6250  147.9180 N   0  0  0  0  0  0  0  0  0  0  0  0
  160.7880  203.2000  150.2550 C   0  0  0  0  0  3  0  0  0  0  0  0
  161.1250  200.8710  149.5170 C   0  0  0  0  0  3  0  0  0  0  0  0
  161.3620  200.3710  147.1330 N   0  0  0  0  0  1  0  0  0  0  0  0
  161.1480  201.3360  148.2270 C   0  0  0  0  0  0  0  0  0  0  0  0
  160.9220  201.8510  150.5600 C   0  0  0  0  0  3  0  0  0  0  0  0
  160.8440  203.6170  148.9130 C   0  0  0  0  0  0  0  0  0  0  0  0
  2 10  1  0  0  0  0
  3  9  1  0  0  0  0
  4  2  2  0  0  0  0
  4  8  1  0  0  0  0
  5 10  1  6  0  0  0
  5  7  1  0  0  0  0
  5  6  1  0  0  0  0
  6  1  1  1  0  0  0
  6  9  1  0  0  0  0
  7 11  1  1  0  0  0
  7  3  1  0  0  0  0
  8 11  1  0  0  0  0
  9 12  1  1  0  0  0
 12 15  1  0  0  0  0
 15 13  1  0  0  0  0
 15 14  1  1  0  0  0
 16  2  1  0  0  0  0
 17 19  1  0  0  0  0
 17 18  1  0  0  0  0
 18 26  1  1  0  0  0
 19 16  1  6  0  0  0
 19 18  1  0  0  0  0
 20 24  2  0  0  0  0
 20 26  1  0  0  0  0
 21 25  1  0  0  0  0
 22 25  2  0  0  0  0
 23 24  1  0  0  0  0
 24 22  1  0  0  0  0
 26 21  2  0  0  0  0
M  END
>  <MODEL>
6

>  <REMARK>
 VINA RESULT:      -8.2      3.454      8.546
  Name = 
  5 active torsions:
  status: ('A' for Active; 'I' for Inactive)
    1  A    between atoms: C_2  and  C_26
    2  A    between atoms: C_3  and  C_18
    3  A    between atoms: C_5  and  C_18
    4  A    between atoms: N_7  and  C_13
    5  A    between atoms: N_7  and  C_21
                            x       y       z     vdW  Elec       q    Type
                         _______ _______ _______ _____ _____    ______ ____

>  <TORSDO>
F 5

$$$$
=
 OpenBabel11052411143D

 26 29  0  0  1  0  0  0  0  0999 V2000
  160.0740  201.9080  149.7400 O   0  0  0  0  0  1  0  0  0  0  0  0
  161.0340  205.1780  150.6850 C   0  0  0  0  0  0  0  0  0  0  0  0
  161.6750  203.5720  146.7140 C   0  0  0  0  0  2  0  0  0  0  0  0
  160.8580  206.4660  150.0950 C   0  0  0  0  0  3  0  0  0  0  0  0
  160.8120  203.8870  148.7750 C   0  0  2  0  0  3  0  0  0  0  0  0
  161.0240  202.4580  148.7890 C   0  0  2  0  0  3  0  0  0  0  0  0
  161.6230  204.5820  147.8090 C   0  0  2  0  0  3  0  0  0  0  0  0
  160.8310  206.8100  148.7670 C   0  0  0  0  0  2  0  0  0  0  0  0
  160.8510  202.2110  147.2410 C   0  0  2  0  0  3  0  0  0  0  0  0
  161.1560  204.1020  150.0750 C   0  0  0  0  0  2  0  0  0  0  0  0
  160.9170  205.9370  147.5400 C   0  0  0  0  0  2  0  0  0  0  0  0
  161.5350  200.9360  146.9050 N   0  0  0  0  0  2  0  0  0  0  0  0
  161.2050  199.0540  145.6350 O   0  0  0  0  0  1  0  0  0  0  0  0
  160.0810  201.0180  144.8950 C   0  0  0  0  0  1  0  0  0  0  0  0
  160.5630  200.2270  146.1110 C   0  0  2  0  0  3  0  0  0  0  0  0
  161.3110  205.1790  152.1750 C   0  0  0  0  0  2  0  0  0  0  0  0
  161.5810  206.2710  154.3920 N   0  0  0  0  0  2  0  0  0  0  0  0
  160.6430  207.1490  153.6560 C   0  0  2  0  0  3  0  0  0  0  0  0
  161.8010  206.4990  152.9160 C   0  0  2  0  0  3  0  0  0  0  0  0
  161.5750  208.7050  155.4020 N   0  0  0  0  0  0  0  0  0  0  0  0
  160.4910  209.7290  153.5000 C   0  0  0  0  0  3  0  0  0  0  0  0
  161.5810  211.0780  155.2530 C   0  0  0  0  0  3  0  0  0  0  0  0
  162.6840  209.9680  157.1350 N   0  0  0  0  0  1  0  0  0  0  0  0
  161.9100  209.9040  155.8810 C   0  0  0  0  0  0  0  0  0  0  0  0
  160.8310  210.9700  154.0230 C   0  0  0  0  0  3  0  0  0  0  0  0
  160.8780  208.5600  154.1810 C   0  0  0  0  0  0  0  0  0  0  0  0
  2 16  1  0  0  0  0
  3  9  1  0  0  0  0
  4  2  2  0  0  0  0
  5  6  1  0  0  0  0
  5 10  1  1  0  0  0
  6  1  1  1  0  0  0
  7  3  1  6  0  0  0
  7  5  1  0  0  0  0
  8  4  1  0  0  0  0
  9 12  1  6  0  0  0
  9  6  1  0  0  0  0
 10  2  1  0  0  0  0
 11  7  1  0  0  0  0
 11  8  1  0  0  0  0
 13 15  1  0  0  0  0
 15 14  1  6  0  0  0
 15 12  1  0  0  0  0
 18 26  1  1  0  0  0
 18 17  1  0  0  0  0
 19 16  1  6  0  0  0
 19 18  1  0  0  0  0
 19 17  1  0  0  0  0
 20 24  1  0  0  0  0
 21 25  2  0  0  0  0
 21 26  1  0  0  0  0
 22 24  2  0  0  0  0
 24 23  1  0  0  0  0
 25 22  1  0  0  0  0
 26 20  2  0  0  0  0
M  END
>  <MODEL>
7

>  <REMARK>
 VINA RESULT:      -8.2      3.332      4.540
  Name = 
  5 active torsions:
  status: ('A' for Active; 'I' for Inactive)
    1  A    between atoms: C_2  and  C_26
    2  A    between atoms: C_3  and  C_18
    3  A    between atoms: C_5  and  C_18
    4  A    between atoms: N_7  and  C_13
    5  A    between atoms: N_7  and  C_21
                            x       y       z     vdW  Elec       q    Type
                         _______ _______ _______ _____ _____    ______ ____

>  <TORSDO>
F 5

$$$$
=
 OpenBabel11052411143D

 26 29  0  0  1  0  0  0  0  0999 V2000
  159.1490  211.1240  152.8110 O   0  0  0  0  0  1  0  0  0  0  0  0
  161.0810  208.2590  152.0560 C   0  0  0  0  0  0  0  0  0  0  0  0
  160.6300  209.8260  156.0690 C   0  0  0  0  0  2  0  0  0  0  0  0
  161.1610  206.9490  152.6180 C   0  0  0  0  0  3  0  0  0  0  0  0
  160.2220  209.3740  153.8960 C   0  0  2  0  0  3  0  0  0  0  0  0
  160.0460  210.8080  153.9090 C   0  0  2  0  0  3  0  0  0  0  0  0
  161.0230  208.8810  154.9860 C   0  0  2  0  0  3  0  0  0  0  0  0
  161.0150  206.5610  153.9250 C   0  0  0  0  0  2  0  0  0  0  0  0
  159.5690  210.9420  155.4060 C   0  0  2  0  0  3  0  0  0  0  0  0
  160.8140  209.3060  152.6710 C   0  0  0  0  0  2  0  0  0  0  0  0
  160.6690  207.3780  155.1440 C   0  0  0  0  0  2  0  0  0  0  0  0
  159.8280  212.3380  155.8410 N   0  0  0  0  0  2  0  0  0  0  0  0
  157.6690  211.6860  156.2620 O   0  0  0  0  0  1  0  0  0  0  0  0
  157.9320  213.8390  155.2800 C   0  0  0  0  0  1  0  0  0  0  0  0
  158.5280  212.8150  156.2460 C   0  0  2  0  0  3  0  0  0  0  0  0
  161.5820  208.3880  150.6320 C   0  0  0  0  0  2  0  0  0  0  0  0
  161.7600  207.4040  148.3550 N   0  0  0  0  0  2  0  0  0  0  0  0
  160.8570  206.4870  149.0890 C   0  0  2  0  0  3  0  0  0  0  0  0
  162.0450  207.1070  149.8080 C   0  0  2  0  0  3  0  0  0  0  0  0
  160.7920  203.9780  149.2950 N   0  0  0  0  0  0  0  0  0  0  0  0
  161.4900  204.8770  147.1630 C   0  0  0  0  0  3  0  0  0  0  0  0
  161.2360  202.4510  147.5270 C   0  0  0  0  0  3  0  0  0  0  0  0
  160.4950  201.6180  149.7050 N   0  0  0  0  0  1  0  0  0  0  0  0
  160.8590  202.7350  148.8150 C   0  0  0  0  0  0  0  0  0  0  0  0
  161.5750  203.5750  146.6850 C   0  0  0  0  0  3  0  0  0  0  0  0
  161.0750  205.1030  148.4880 C   0  0  0  0  0  0  0  0  0  0  0  0
  2  4  2  0  0  0  0
  2 10  1  0  0  0  0
  4  8  1  0  0  0  0
  5 10  1  6  0  0  0
  5  6  1  0  0  0  0
  5  7  1  0  0  0  0
  6  1  1  6  0  0  0
  6  9  1  0  0  0  0
  7 11  1  1  0  0  0
  7  3  1  0  0  0  0
  8 11  1  0  0  0  0
  9 12  1  1  0  0  0
  9  3  1  0  0  0  0
 12 15  1  0  0  0  0
 15 14  1  6  0  0  0
 15 13  1  0  0  0  0
 16  2  1  0  0  0  0
 17 18  1  0  0  0  0
 17 19  1  0  0  0  0
 18 26  1  6  0  0  0
 18 19  1  0  0  0  0
 19 16  1  1  0  0  0
 21 26  1  0  0  0  0
 22 24  2  0  0  0  0
 24 20  1  0  0  0  0
 24 23  1  0  0  0  0
 25 21  2  0  0  0  0
 25 22  1  0  0  0  0
 26 20  2  0  0  0  0
M  END
>  <MODEL>
8

>  <REMARK>
 VINA RESULT:      -8.1      3.336      8.745
  Name = 
  5 active torsions:
  status: ('A' for Active; 'I' for Inactive)
    1  A    between atoms: C_2  and  C_26
    2  A    between atoms: C_3  and  C_18
    3  A    between atoms: C_5  and  C_18
    4  A    between atoms: N_7  and  C_13
    5  A    between atoms: N_7  and  C_21
                            x       y       z     vdW  Elec       q    Type
                         _______ _______ _______ _____ _____    ______ ____

>  <TORSDO>
F 5

$$$$
=
 OpenBabel11052411143D

 26 29  0  0  1  0  0  0  0  0999 V2000
  161.9470  205.1600  147.4670 O   0  0  0  0  0  1  0  0  0  0  0  0
  161.0070  203.0770  150.1660 C   0  0  0  0  0  0  0  0  0  0  0  0
  160.4390  201.9820  146.0140 C   0  0  0  0  0  2  0  0  0  0  0  0
  161.2130  201.6960  150.4620 C   0  0  0  0  0  3  0  0  0  0  0  0
  161.2570  202.9790  147.8650 C   0  0  2  0  0  3  0  0  0  0  0  0
  161.0270  204.1290  147.0210 C   0  0  2  0  0  3  0  0  0  0  0  0
  160.4780  201.8270  147.4950 C   0  0  2  0  0  3  0  0  0  0  0  0
  161.2760  200.6290  149.6020 C   0  0  0  0  0  2  0  0  0  0  0  0
  161.2330  203.4080  145.6340 C   0  0  2  0  0  3  0  0  0  0  0  0
  160.8850  203.5740  149.0330 C   0  0  0  0  0  2  0  0  0  0  0  0
  161.2070  200.5960  148.0970 C   0  0  0  0  0  2  0  0  0  0  0  0
  160.5400  204.2140  144.5960 N   0  0  0  0  0  2  0  0  0  0  0  0
  160.4290  206.4660  145.0230 O   0  0  0  0  0  1  0  0  0  0  0  0
  161.7550  205.8280  143.1520 C   0  0  0  0  0  1  0  0  0  0  0  0
  161.2950  205.4420  144.5590 C   0  0  2  0  0  3  0  0  0  0  0  0
  160.6950  203.9590  151.3580 C   0  0  0  0  0  2  0  0  0  0  0  0
  162.2810  205.8540  151.6310 N   0  0  0  0  0  2  0  0  0  0  0  0
  161.2180  206.1100  152.6300 C   0  0  2  0  0  3  0  0  0  0  0  0
  160.8500  205.5400  151.2690 C   0  0  2  0  0  3  0  0  0  0  0  0
  160.8300  208.1490  154.0560 N   0  0  0  0  0  0  0  0  0  0  0  0
  161.3750  208.5340  151.7340 C   0  0  0  0  0  3  0  0  0  0  0  0
  161.0870  210.3970  153.3250 C   0  0  0  0  0  3  0  0  0  0  0  0
  160.5650  209.9260  155.6690 N   0  0  0  0  0  1  0  0  0  0  0  0
  160.8320  209.4610  154.2950 C   0  0  0  0  0  0  0  0  0  0  0  0
  161.3530  209.8990  151.9940 C   0  0  0  0  0  3  0  0  0  0  0  0
  161.1290  207.6250  152.7780 C   0  0  0  0  0  0  0  0  0  0  0  0
  2  4  2  0  0  0  0
  2 16  1  0  0  0  0
  5 10  1  1  0  0  0
  6  1  1  1  0  0  0
  6  5  1  0  0  0  0
  7  3  1  6  0  0  0
  7  5  1  0  0  0  0
  7 11  1  0  0  0  0
  8  4  1  0  0  0  0
  9 12  1  6  0  0  0
  9  3  1  0  0  0  0
  9  6  1  0  0  0  0
 10  2  1  0  0  0  0
 11  8  1  0  0  0  0
 15 14  1  6  0  0  0
 15 12  1  0  0  0  0
 15 13  1  0  0  0  0
 17 18  1  0  0  0  0
 18 26  1  6  0  0  0
 19 16  1  1  0  0  0
 19 17  1  0  0  0  0
 19 18  1  0  0  0  0
 20 24  1  0  0  0  0
 21 25  2  0  0  0  0
 21 26  1  0  0  0  0
 22 24  2  0  0  0  0
 24 23  1  0  0  0  0
 25 22  1  0  0  0  0
 26 20  2  0  0  0  0
M  END
>  <MODEL>
9

>  <REMARK>
 VINA RESULT:      -8.1      2.780      4.202
  Name = 
  5 active torsions:
  status: ('A' for Active; 'I' for Inactive)
    1  A    between atoms: C_2  and  C_26
    2  A    between atoms: C_3  and  C_18
    3  A    between atoms: C_5  and  C_18
    4  A    between atoms: N_7  and  C_13
    5  A    between atoms: N_7  and  C_21
                            x       y       z     vdW  Elec       q    Type
                         _______ _______ _______ _____ _____    ______ ____

>  <TORSDO>
F 5

$$$$
