=
 OpenBabel11052409413D

 49 55  0  0  1  0  0  0  0  0999 V2000
  161.2430  207.1610  149.8980 C   0  0  0  0  0  0  0  0  0  0  0  0
  161.5520  207.6050  148.4950 C   0  0  1  0  0  3  0  0  0  0  0  0
  162.2820  210.5410  152.0550 C   0  0  0  0  0  2  0  0  0  0  0  0
  161.4530  209.4660  152.7510 C   0  0  0  0  0  0  0  0  0  0  0  0
  161.9570  209.0050  148.6720 N   0  0  0  0  0  0  0  0  0  0  0  0
  162.0520  210.6390  150.5320 C   0  0  0  0  0  2  0  0  0  0  0  0
  161.9310  209.2740  149.9340 C   0  0  0  0  0  0  0  0  0  0  0  0
  161.1360  208.3170  152.1300 C   0  0  0  0  0  3  0  0  0  0  0  0
  161.4760  208.1640  150.7150 C   0  0  0  0  0  0  0  0  0  0  0  0
  160.5630  205.9630  150.2920 N   0  0  0  0  0  2  0  0  0  0  0  0
  161.1200  205.0980  152.4890 C   0  0  0  0  0  1  0  0  0  0  0  0
  161.1620  204.8300  150.9910 C   0  0  2  0  0  0  0  0  0  0  0  0
  162.4940  204.6720  150.5860 O   0  0  0  0  0  1  0  0  0  0  0  0
  160.7790  202.9250  149.3720 C   0  0  0  0  0  0  0  0  0  0  0  0
  161.3050  201.6180  149.5920 N   0  0  0  0  0  0  0  0  0  0  0  0
  161.7310  200.6740  148.5670 C   0  0  0  0  0  1  0  0  0  0  0  0
  160.6550  202.4160  151.6040 C   0  0  0  0  0  0  0  0  0  0  0  0
  160.4090  202.4220  152.8380 O   0  0  0  0  0  0  0  0  0  0  0  0
  161.2150  201.2900  150.9440 N   0  0  0  0  0  2  0  0  0  0  0  0
  160.4100  203.3700  148.1760 C   0  0  0  0  0  2  0  0  0  0  0  0
  160.3490  203.5560  150.6670 C   0  0  1  0  0  3  0  0  0  0  0  0
  162.7020  206.8000  147.9100 C   0  0  0  0  0  2  0  0  0  0  0  0
  162.2320  206.0440  146.7630 N   0  0  0  0  0  2  0  0  0  0  0  0
  160.8840  206.5030  146.4700 C   0  0  0  0  0  2  0  0  0  0  0  0
  160.4980  206.1140  145.0550 C   0  0  0  0  0  2  0  0  0  0  0  0
  161.2530  204.8700  144.6180 C   0  0  0  0  0  2  0  0  0  0  0  0
  160.3750  203.7870  144.4810 O   0  0  0  0  0  0  0  0  0  0  0  0
  160.9500  202.7720  145.2490 C   0  0  0  0  0  2  0  0  0  0  0  0
  160.7640  200.2890  145.1910 O   0  0  0  0  0  1  0  0  0  0  0  0
  158.8950  201.5990  144.9760 O   0  0  0  0  0  0  0  0  0  0  0  0
  160.1450  201.5290  145.1250 C   0  0  0  0  0  0  0  0  0  0  0  0
  161.0210  209.6420  154.1720 C   0  0  1  0  0  3  0  0  0  0  0  0
  160.5600  208.4480  156.3240 C   0  0  2  0  0  3  0  0  0  0  0  0
  161.3170  208.4000  155.0090 C   0  0  1  0  0  3  0  0  0  0  0  0
  160.0300  207.0530  156.6130 C   0  0  0  0  0  2  0  0  0  0  0  0
  160.0420  207.5940  155.1970 C   0  0  1  0  0  3  0  0  0  0  0  0
  161.6110  210.9310  154.7570 C   0  0  2  0  0  3  0  0  0  0  0  0
  162.7640  210.6660  155.5040 O   0  0  0  0  0  1  0  0  0  0  0  0
  158.6900  212.6560  156.3500 N   0  0  0  0  0  0  0  0  0  0  0  0
  160.8340  212.0800  156.7710 N   0  0  0  0  0  0  0  0  0  0  0  0
  159.6350  212.6810  157.2300 C   0  0  0  0  0  3  0  0  0  0  0  0
  160.5990  211.6970  155.5600 C   0  0  0  0  0  0  0  0  0  0  0  0
  159.1940  211.9970  155.1550 C   0  0  2  0  0  3  0  0  0  0  0  0
  158.0550  212.5650  153.0610 C   0  0  1  0  0  3  0  0  0  0  0  0
  159.3890  212.2360  152.7880 O   0  0  0  0  0  0  0  0  0  0  0  0
  159.1480  212.9540  153.9740 C   0  0  2  0  0  3  0  0  0  0  0  0
  158.3470  214.0060  151.0560 O   0  0  0  0  0  0  0  0  0  0  0  0
  156.6880  214.4480  152.5720 O   0  0  0  0  0  1  0  0  0  0  0  0
  157.6460  213.7150  152.2180 C   0  0  0  0  0  0  0  0  0  0  0  0
  1 10  1  0  0  0  0
  1  9  2  0  0  0  0
  2 22  1  1  0  0  0
  2  5  1  0  0  0  0
  2  1  1  0  0  0  0
  3  4  1  0  0  0  0
  4 32  1  0  0  0  0
  5  7  2  0  0  0  0
  6  3  1  0  0  0  0
  7  6  1  0  0  0  0
  7  9  1  0  0  0  0
  8  4  2  0  0  0  0
  9  8  1  0  0  0  0
 10 12  1  0  0  0  0
 12 11  1  1  0  0  0
 13 12  1  0  0  0  0
 14 15  1  0  0  0  0
 14 21  1  0  0  0  0
 15 19  1  0  0  0  0
 16 15  1  0  0  0  0
 17 18  2  0  0  0  0
 19 17  1  0  0  0  0
 20 14  2  0  0  0  0
 21 12  1  1  0  0  0
 21 17  1  0  0  0  0
 23 22  1  0  0  0  0
 24 23  1  0  0  0  0
 25 24  1  0  0  0  0
 26 25  1  0  0  0  0
 27 26  1  0  0  0  0
 27 28  1  0  0  0  0
 30 31  2  0  0  0  0
 31 29  1  0  0  0  0
 31 28  1  0  0  0  0
 32 37  1  1  0  0  0
 33 35  1  1  0  0  0
 34 32  1  6  0  0  0
 34 36  1  0  0  0  0
 34 33  1  0  0  0  0
 36 33  1  0  0  0  0
 36 35  1  1  0  0  0
 37 38  1  1  0  0  0
 37 42  1  0  0  0  0
 39 41  2  0  0  0  0
 40 41  1  0  0  0  0
 42 40  2  0  0  0  0
 43 42  1  1  0  0  0
 43 39  1  0  0  0  0
 44 49  1  6  0  0  0
 44 46  1  0  0  0  0
 45 44  1  0  0  0  0
 46 45  1  6  0  0  0
 46 43  1  0  0  0  0
 47 49  2  0  0  0  0
 49 48  1  0  0  0  0
M  END
>  <MODEL>
1

>  <REMARK>
 VINA RESULT:      -6.2      0.000      0.000
  Name = 
  17 active torsions:
  status: ('A' for Active; 'I' for Inactive)
    1  A    between atoms: C_1  and  C_10
    2  A    between atoms: C_1  and  N_39
    3  A    between atoms: C_4  and  N_7
    4  A    between atoms: N_7  and  C_30
    5  A    between atoms: C_8  and  C_27
    6  A    between atoms: C_10  and  C_25
    7  A    between atoms: C_14  and  C_45
    8  A    between atoms: C_15  and  C_45
    9  A    between atoms: C_19  and  C_44
   10  A    between atoms: C_19  and  C_45
   11  A    between atoms: O_21  and  C_25
   12  A    between atoms: O_21  and  C_43
   13  A    between atoms: C_27  and  N_39
   14  A    between atoms: C_29  and  C_32
   15  A    between atoms: C_30  and  C_49
   16  A    between atoms: C_38  and  C_43
   17  A    between atoms: C_42  and  C_48
                            x       y       z     vdW  Elec       q    Type
                         _______ _______ _______ _____ _____    ______ ____

>  <TORSDO>
F 17

$$$$
=
 OpenBabel11052409413D

 49 55  0  0  1  0  0  0  0  0999 V2000
  160.9690  209.4350  152.2250 C   0  0  0  0  0  0  0  0  0  0  0  0
  160.6840  209.7570  153.6650 C   0  0  1  0  0  3  0  0  0  0  0  0
  161.6060  205.3480  152.4270 C   0  0  0  0  0  2  0  0  0  0  0  0
  161.3840  205.9770  151.0560 C   0  0  0  0  0  0  0  0  0  0  0  0
  160.7000  208.4370  154.3090 N   0  0  0  0  0  0  0  0  0  0  0  0
  160.8940  206.0750  153.5870 C   0  0  0  0  0  2  0  0  0  0  0  0
  160.9930  207.5570  153.4120 C   0  0  0  0  0  0  0  0  0  0  0  0
  161.2350  207.3050  150.9130 C   0  0  0  0  0  3  0  0  0  0  0  0
  161.1460  208.1370  152.1130 C   0  0  0  0  0  0  0  0  0  0  0  0
  160.8230  210.3120  151.1010 N   0  0  0  0  0  2  0  0  0  0  0  0
  161.8410  209.9750  148.9250 C   0  0  0  0  0  1  0  0  0  0  0  0
  161.8990  210.7660  150.2240 C   0  0  2  0  0  0  0  0  0  0  0  0
  163.1380  210.5520  150.8420 O   0  0  0  0  0  1  0  0  0  0  0  0
  161.7880  212.5710  148.4560 C   0  0  0  0  0  0  0  0  0  0  0  0
  160.5510  213.0880  147.9700 N   0  0  0  0  0  0  0  0  0  0  0  0
  160.2890  213.5770  146.6230 C   0  0  0  0  0  1  0  0  0  0  0  0
  160.2920  212.7340  150.1870 C   0  0  0  0  0  0  0  0  0  0  0  0
  159.7430  212.7470  151.3190 O   0  0  0  0  0  0  0  0  0  0  0  0
  159.6400  213.2110  149.0180 N   0  0  0  0  0  2  0  0  0  0  0  0
  162.9320  212.6700  147.7890 C   0  0  0  0  0  2  0  0  0  0  0  0
  161.7010  212.2700  149.9270 C   0  0  1  0  0  3  0  0  0  0  0  0
  161.7740  210.6370  154.2540 C   0  0  0  0  0  2  0  0  0  0  0  0
  161.9670  210.3000  155.6540 N   0  0  0  0  0  2  0  0  0  0  0  0
  161.4470  211.4080  156.4370 C   0  0  0  0  0  2  0  0  0  0  0  0
  159.9540  211.2410  156.6470 C   0  0  0  0  0  2  0  0  0  0  0  0
  159.2210  212.5320  156.3220 C   0  0  0  0  0  2  0  0  0  0  0  0
  157.8380  212.3600  156.4680 O   0  0  0  0  0  0  0  0  0  0  0  0
  157.5550  211.1880  155.7630 C   0  0  0  0  0  2  0  0  0  0  0  0
  155.9100  212.4970  154.4290 O   0  0  0  0  0  0  0  0  0  0  0  0
  155.4350  210.3490  155.0730 O   0  0  0  0  0  1  0  0  0  0  0  0
  156.2420  211.3170  155.0790 C   0  0  0  0  0  0  0  0  0  0  0  0
  161.3850  205.1310  149.8230 C   0  0  1  0  0  3  0  0  0  0  0  0
  160.8230  202.8040  149.0890 C   0  0  2  0  0  3  0  0  0  0  0  0
  160.3730  203.9920  149.9190 C   0  0  1  0  0  3  0  0  0  0  0  0
  160.5260  201.5380  149.8780 C   0  0  0  0  0  2  0  0  0  0  0  0
  161.0210  202.7860  150.5830 C   0  0  1  0  0  3  0  0  0  0  0  0
  161.2110  206.0010  148.5730 C   0  0  2  0  0  3  0  0  0  0  0  0
  159.8610  206.1200  148.2230 O   0  0  0  0  0  1  0  0  0  0  0  0
  162.8050  204.9270  145.3560 N   0  0  0  0  0  0  0  0  0  0  0  0
  163.3050  205.2870  147.5300 N   0  0  0  0  0  0  0  0  0  0  0  0
  163.7510  204.9210  146.2350 C   0  0  0  0  0  3  0  0  0  0  0  0
  162.0360  205.5030  147.4210 C   0  0  0  0  0  0  0  0  0  0  0  0
  161.5700  205.3220  146.0140 C   0  0  2  0  0  3  0  0  0  0  0  0
  161.1010  203.0890  145.1190 C   0  0  1  0  0  3  0  0  0  0  0  0
  160.2110  204.0100  144.5550 O   0  0  0  0  0  0  0  0  0  0  0  0
  160.5430  204.2050  145.9080 C   0  0  2  0  0  3  0  0  0  0  0  0
  160.9110  200.9350  146.3440 O   0  0  0  0  0  1  0  0  0  0  0  0
  159.3170  201.5460  144.8190 O   0  0  0  0  0  0  0  0  0  0  0  0
  160.3840  201.8260  145.4220 C   0  0  0  0  0  0  0  0  0  0  0  0
  1  2  1  0  0  0  0
  2 22  1  1  0  0  0
  2  5  1  0  0  0  0
  3  6  1  0  0  0  0
  4  3  1  0  0  0  0
  7  6  1  0  0  0  0
  7  5  2  0  0  0  0
  8  4  2  0  0  0  0
  8  9  1  0  0  0  0
  9  1  2  0  0  0  0
  9  7  1  0  0  0  0
 10  1  1  0  0  0  0
 12 11  1  6  0  0  0
 12 13  1  0  0  0  0
 12 10  1  0  0  0  0
 14 21  1  0  0  0  0
 15 14  1  0  0  0  0
 15 19  1  0  0  0  0
 16 15  1  0  0  0  0
 17 18  2  0  0  0  0
 19 17  1  0  0  0  0
 20 14  2  0  0  0  0
 21 17  1  0  0  0  0
 21 12  1  6  0  0  0
 22 23  1  0  0  0  0
 23 24  1  0  0  0  0
 24 25  1  0  0  0  0
 26 27  1  0  0  0  0
 26 25  1  0  0  0  0
 28 27  1  0  0  0  0
 29 31  2  0  0  0  0
 30 31  1  0  0  0  0
 31 28  1  0  0  0  0
 32 37  1  6  0  0  0
 32  4  1  0  0  0  0
 33 35  1  1  0  0  0
 33 34  1  0  0  0  0
 33 36  1  0  0  0  0
 34 32  1  6  0  0  0
 34 36  1  0  0  0  0
 36 35  1  1  0  0  0
 37 38  1  6  0  0  0
 39 41  2  0  0  0  0
 41 40  1  0  0  0  0
 42 40  2  0  0  0  0
 42 37  1  0  0  0  0
 43 39  1  6  0  0  0
 43 42  1  0  0  0  0
 44 49  1  1  0  0  0
 44 46  1  0  0  0  0
 45 44  1  0  0  0  0
 46 45  1  6  0  0  0
 46 43  1  0  0  0  0
 48 49  2  0  0  0  0
 49 47  1  0  0  0  0
M  END
>  <MODEL>
2

>  <REMARK>
 VINA RESULT:      -5.5      2.385     10.332
  Name = 
  17 active torsions:
  status: ('A' for Active; 'I' for Inactive)
    1  A    between atoms: C_1  and  C_10
    2  A    between atoms: C_1  and  N_39
    3  A    between atoms: C_4  and  N_7
    4  A    between atoms: N_7  and  C_30
    5  A    between atoms: C_8  and  C_27
    6  A    between atoms: C_10  and  C_25
    7  A    between atoms: C_14  and  C_45
    8  A    between atoms: C_15  and  C_45
    9  A    between atoms: C_19  and  C_44
   10  A    between atoms: C_19  and  C_45
   11  A    between atoms: O_21  and  C_25
   12  A    between atoms: O_21  and  C_43
   13  A    between atoms: C_27  and  N_39
   14  A    between atoms: C_29  and  C_32
   15  A    between atoms: C_30  and  C_49
   16  A    between atoms: C_38  and  C_43
   17  A    between atoms: C_42  and  C_48
                            x       y       z     vdW  Elec       q    Type
                         _______ _______ _______ _____ _____    ______ ____

>  <TORSDO>
F 17

$$$$
=
 OpenBabel11052409413D

 49 55  0  0  1  0  0  0  0  0999 V2000
  161.5550  205.6200  150.6990 C   0  0  0  0  0  0  0  0  0  0  0  0
  161.6710  204.1930  151.1580 C   0  0  1  0  0  3  0  0  0  0  0  0
  160.3800  207.4960  154.2000 C   0  0  0  0  0  2  0  0  0  0  0  0
  160.8740  208.3630  153.0470 C   0  0  0  0  0  0  0  0  0  0  0  0
  161.3940  204.2840  152.5970 N   0  0  0  0  0  0  0  0  0  0  0  0
  161.0050  206.0860  154.2530 C   0  0  0  0  0  2  0  0  0  0  0  0
  161.1230  205.5150  152.8770 C   0  0  0  0  0  0  0  0  0  0  0  0
  161.2100  207.8240  151.8620 C   0  0  0  0  0  3  0  0  0  0  0  0
  161.2320  206.3670  151.7320 C   0  0  0  0  0  0  0  0  0  0  0  0
  161.9710  206.1550  149.4370 N   0  0  0  0  0  2  0  0  0  0  0  0
  161.6470  207.7370  147.6260 C   0  0  0  0  0  1  0  0  0  0  0  0
  161.0910  206.5050  148.3250 C   0  0  2  0  0  0  0  0  0  0  0  0
  159.8050  206.7850  148.8050 O   0  0  0  0  0  1  0  0  0  0  0  0
  160.6580  205.7580  145.9470 C   0  0  0  0  0  0  0  0  0  0  0  0
  161.7130  205.5090  145.0200 N   0  0  0  0  0  0  0  0  0  0  0  0
  161.6640  205.7160  143.5790 C   0  0  0  0  0  1  0  0  0  0  0  0
  162.4110  204.7570  147.0340 C   0  0  0  0  0  0  0  0  0  0  0  0
  163.1510  204.1940  147.8820 O   0  0  0  0  0  0  0  0  0  0  0  0
  162.7770  204.8810  145.6670 N   0  0  0  0  0  2  0  0  0  0  0  0
  159.4080  206.0150  145.5770 C   0  0  0  0  0  2  0  0  0  0  0  0
  161.0460  205.3200  147.3320 C   0  0  1  0  0  3  0  0  0  0  0  0
  160.6290  203.3170  150.4830 C   0  0  0  0  0  2  0  0  0  0  0  0
  160.7420  201.9570  150.9810 N   0  0  0  0  0  2  0  0  0  0  0  0
  160.2410  201.0760  149.9390 C   0  0  0  0  0  2  0  0  0  0  0  0
  160.7490  201.5310  148.5840 C   0  0  0  0  0  2  0  0  0  0  0  0
  161.5450  200.4250  147.9120 C   0  0  0  0  0  2  0  0  0  0  0  0
  161.2570  200.3760  146.5420 O   0  0  0  0  0  0  0  0  0  0  0  0
  160.7410  201.6410  146.2480 C   0  0  0  0  0  2  0  0  0  0  0  0
  159.5810  202.7760  144.3590 O   0  0  0  0  0  0  0  0  0  0  0  0
  159.7870  200.4930  144.3920 O   0  0  0  0  0  1  0  0  0  0  0  0
  160.0080  201.5970  144.9560 C   0  0  0  0  0  0  0  0  0  0  0  0
  160.9400  209.8500  153.1890 C   0  0  1  0  0  3  0  0  0  0  0  0
  161.7730  211.1120  155.1850 C   0  0  2  0  0  3  0  0  0  0  0  0
  162.1740  210.2860  153.9760 C   0  0  1  0  0  3  0  0  0  0  0  0
  162.6500  210.6920  156.3540 C   0  0  0  0  0  2  0  0  0  0  0  0
  162.1430  209.6630  155.3630 C   0  0  1  0  0  3  0  0  0  0  0  0
  160.8160  210.5280  151.8200 C   0  0  2  0  0  3  0  0  0  0  0  0
  162.0600  210.6220  151.1870 O   0  0  0  0  0  1  0  0  0  0  0  0
  159.0980  213.7540  152.6460 N   0  0  0  0  0  0  0  0  0  0  0  0
  160.2220  212.7420  150.9670 N   0  0  0  0  0  0  0  0  0  0  0  0
  159.5550  213.8970  151.4460 C   0  0  0  0  0  3  0  0  0  0  0  0
  160.1440  211.8670  151.9150 C   0  0  0  0  0  0  0  0  0  0  0  0
  159.4390  212.4190  153.1100 C   0  0  2  0  0  3  0  0  0  0  0  0
  157.6440  212.0410  154.7360 C   0  0  1  0  0  3  0  0  0  0  0  0
  158.3770  210.8590  154.5720 O   0  0  0  0  0  0  0  0  0  0  0  0
  158.1710  211.6360  153.4170 C   0  0  2  0  0  3  0  0  0  0  0  0
  155.2600  212.5510  154.2500 O   0  0  0  0  0  0  0  0  0  0  0  0
  155.8230  210.7120  155.4920 O   0  0  0  0  0  1  0  0  0  0  0  0
  156.1990  211.7180  154.8400 C   0  0  0  0  0  0  0  0  0  0  0  0
  1  2  1  0  0  0  0
  1  9  2  0  0  0  0
  2 22  1  6  0  0  0
  2  5  1  0  0  0  0
  3  6  1  0  0  0  0
  4 32  1  0  0  0  0
  4  3  1  0  0  0  0
  5  7  2  0  0  0  0
  7  6  1  0  0  0  0
  8  4  2  0  0  0  0
  9  8  1  0  0  0  0
  9  7  1  0  0  0  0
 10  1  1  0  0  0  0
 12 11  1  6  0  0  0
 12 13  1  0  0  0  0
 12 10  1  0  0  0  0
 14 21  1  0  0  0  0
 15 19  1  0  0  0  0
 15 14  1  0  0  0  0
 16 15  1  0  0  0  0
 17 21  1  0  0  0  0
 17 18  2  0  0  0  0
 19 17  1  0  0  0  0
 20 14  2  0  0  0  0
 21 12  1  1  0  0  0
 22 23  1  0  0  0  0
 24 23  1  0  0  0  0
 25 24  1  0  0  0  0
 26 25  1  0  0  0  0
 27 26  1  0  0  0  0
 28 27  1  0  0  0  0
 29 31  2  0  0  0  0
 30 31  1  0  0  0  0
 31 28  1  0  0  0  0
 32 37  1  6  0  0  0
 33 36  1  0  0  0  0
 33 35  1  1  0  0  0
 34 32  1  6  0  0  0
 34 33  1  0  0  0  0
 34 36  1  0  0  0  0
 36 35  1  1  0  0  0
 37 38  1  1  0  0  0
 37 42  1  0  0  0  0
 39 43  1  0  0  0  0
 40 41  1  0  0  0  0
 40 42  2  0  0  0  0
 41 39  2  0  0  0  0
 43 42  1  6  0  0  0
 43 46  1  0  0  0  0
 44 49  1  6  0  0  0
 45 44  1  0  0  0  0
 46 45  1  1  0  0  0
 46 44  1  0  0  0  0
 47 49  2  0  0  0  0
 49 48  1  0  0  0  0
M  END
>  <MODEL>
3

>  <REMARK>
 VINA RESULT:      -5.5      2.175      4.254
  Name = 
  17 active torsions:
  status: ('A' for Active; 'I' for Inactive)
    1  A    between atoms: C_1  and  C_10
    2  A    between atoms: C_1  and  N_39
    3  A    between atoms: C_4  and  N_7
    4  A    between atoms: N_7  and  C_30
    5  A    between atoms: C_8  and  C_27
    6  A    between atoms: C_10  and  C_25
    7  A    between atoms: C_14  and  C_45
    8  A    between atoms: C_15  and  C_45
    9  A    between atoms: C_19  and  C_44
   10  A    between atoms: C_19  and  C_45
   11  A    between atoms: O_21  and  C_25
   12  A    between atoms: O_21  and  C_43
   13  A    between atoms: C_27  and  N_39
   14  A    between atoms: C_29  and  C_32
   15  A    between atoms: C_30  and  C_49
   16  A    between atoms: C_38  and  C_43
   17  A    between atoms: C_42  and  C_48
                            x       y       z     vdW  Elec       q    Type
                         _______ _______ _______ _____ _____    ______ ____

>  <TORSDO>
F 17

$$$$
=
 OpenBabel11052409413D

 49 55  0  0  1  0  0  0  0  0999 V2000
  161.5920  205.5740  150.4720 C   0  0  0  0  0  0  0  0  0  0  0  0
  161.6810  204.1430  150.9270 C   0  0  1  0  0  3  0  0  0  0  0  0
  160.4180  207.4560  153.9690 C   0  0  0  0  0  2  0  0  0  0  0  0
  160.9360  208.3190  152.8230 C   0  0  0  0  0  0  0  0  0  0  0  0
  161.3940  204.2340  152.3640 N   0  0  0  0  0  0  0  0  0  0  0  0
  161.0200  206.0360  154.0230 C   0  0  0  0  0  2  0  0  0  0  0  0
  161.1400  205.4680  152.6450 C   0  0  0  0  0  0  0  0  0  0  0  0
  161.2730  207.7790  151.6400 C   0  0  0  0  0  3  0  0  0  0  0  0
  161.2730  206.3220  151.5050 C   0  0  0  0  0  0  0  0  0  0  0  0
  162.0270  206.1060  149.2150 N   0  0  0  0  0  2  0  0  0  0  0  0
  161.6410  207.7390  147.4630 C   0  0  0  0  0  1  0  0  0  0  0  0
  161.1670  206.4320  148.0800 C   0  0  2  0  0  0  0  0  0  0  0  0
  159.8420  206.5770  148.5140 O   0  0  0  0  0  1  0  0  0  0  0  0
  160.6710  205.6920  145.7120 C   0  0  0  0  0  0  0  0  0  0  0  0
  161.6640  205.6950  144.6880 N   0  0  0  0  0  0  0  0  0  0  0  0
  161.4400  205.9360  143.2690 C   0  0  0  0  0  1  0  0  0  0  0  0
  162.6840  205.0350  146.5940 C   0  0  0  0  0  0  0  0  0  0  0  0
  163.5960  204.6060  147.3460 O   0  0  0  0  0  0  0  0  0  0  0  0
  162.8880  205.2760  145.2100 N   0  0  0  0  0  2  0  0  0  0  0  0
  159.3670  205.7010  145.4630 C   0  0  0  0  0  2  0  0  0  0  0  0
  161.2670  205.2970  147.0350 C   0  0  1  0  0  3  0  0  0  0  0  0
  160.6300  203.2860  150.2400 C   0  0  0  0  0  2  0  0  0  0  0  0
  160.8100  201.8970  150.6230 N   0  0  0  0  0  2  0  0  0  0  0  0
  160.3610  201.0820  149.5080 C   0  0  0  0  0  2  0  0  0  0  0  0
  161.5520  200.4490  148.8130 C   0  0  0  0  0  2  0  0  0  0  0  0
  161.3770  200.4940  147.3040 C   0  0  0  0  0  2  0  0  0  0  0  0
  161.2790  201.8190  146.8610 O   0  0  0  0  0  0  0  0  0  0  0  0
  159.9500  201.9540  146.4530 C   0  0  0  0  0  2  0  0  0  0  0  0
  160.0010  200.4090  144.5000 O   0  0  0  0  0  1  0  0  0  0  0  0
  159.5930  202.6450  144.2010 O   0  0  0  0  0  0  0  0  0  0  0  0
  159.8440  201.6970  144.9930 C   0  0  0  0  0  0  0  0  0  0  0  0
  161.0260  209.8040  152.9720 C   0  0  1  0  0  3  0  0  0  0  0  0
  161.3000  211.2120  155.0250 C   0  0  2  0  0  3  0  0  0  0  0  0
  161.9650  210.2010  154.1080 C   0  0  1  0  0  3  0  0  0  0  0  0
  161.6550  210.8510  156.4590 C   0  0  0  0  0  2  0  0  0  0  0  0
  161.3730  209.7650  155.4390 C   0  0  1  0  0  3  0  0  0  0  0  0
  161.3740  210.4590  151.6310 C   0  0  2  0  0  3  0  0  0  0  0  0
  162.7540  210.6650  151.5120 O   0  0  0  0  0  1  0  0  0  0  0  0
  159.4100  213.4470  150.5090 N   0  0  0  0  0  0  0  0  0  0  0  0
  160.1260  212.4200  152.3900 N   0  0  0  0  0  0  0  0  0  0  0  0
  159.3980  213.4830  151.8000 C   0  0  0  0  0  3  0  0  0  0  0  0
  160.6070  211.7310  151.4090 C   0  0  0  0  0  0  0  0  0  0  0  0
  160.1860  212.2900  150.0910 C   0  0  2  0  0  3  0  0  0  0  0  0
  161.1320  212.4780  147.8370 C   0  0  1  0  0  3  0  0  0  0  0  0
  161.9330  211.6240  148.6060 O   0  0  0  0  0  0  0  0  0  0  0  0
  161.3850  212.7380  149.2690 C   0  0  2  0  0  3  0  0  0  0  0  0
  162.9630  214.1400  147.5800 O   0  0  0  0  0  1  0  0  0  0  0  0
  161.8280  213.3710  145.7460 O   0  0  0  0  0  0  0  0  0  0  0  0
  161.9950  213.3390  146.9910 C   0  0  0  0  0  0  0  0  0  0  0  0
  1  2  1  0  0  0  0
  1  9  2  0  0  0  0
  2 22  1  6  0  0  0
  2  5  1  0  0  0  0
  3  6  1  0  0  0  0
  4 32  1  0  0  0  0
  4  3  1  0  0  0  0
  5  7  2  0  0  0  0
  7  6  1  0  0  0  0
  8  4  2  0  0  0  0
  9  8  1  0  0  0  0
  9  7  1  0  0  0  0
 10  1  1  0  0  0  0
 12 11  1  6  0  0  0
 12 13  1  0  0  0  0
 12 10  1  0  0  0  0
 14 21  1  0  0  0  0
 15 19  1  0  0  0  0
 15 14  1  0  0  0  0
 16 15  1  0  0  0  0
 17 21  1  0  0  0  0
 17 18  2  0  0  0  0
 19 17  1  0  0  0  0
 20 14  2  0  0  0  0
 21 12  1  1  0  0  0
 22 23  1  0  0  0  0
 24 23  1  0  0  0  0
 25 24  1  0  0  0  0
 26 25  1  0  0  0  0
 27 26  1  0  0  0  0
 28 27  1  0  0  0  0
 29 31  1  0  0  0  0
 30 31  2  0  0  0  0
 31 28  1  0  0  0  0
 32 37  1  6  0  0  0
 33 36  1  0  0  0  0
 33 35  1  1  0  0  0
 34 32  1  6  0  0  0
 34 33  1  0  0  0  0
 34 36  1  0  0  0  0
 36 35  1  1  0  0  0
 37 38  1  1  0  0  0
 39 41  2  0  0  0  0
 41 40  1  0  0  0  0
 42 37  1  0  0  0  0
 42 40  2  0  0  0  0
 43 39  1  1  0  0  0
 43 42  1  0  0  0  0
 44 49  1  6  0  0  0
 44 45  1  0  0  0  0
 44 46  1  0  0  0  0
 46 45  1  1  0  0  0
 46 43  1  0  0  0  0
 48 49  2  0  0  0  0
 49 47  1  0  0  0  0
M  END
>  <MODEL>
4

>  <REMARK>
 VINA RESULT:      -4.7      2.505      4.745
  Name = 
  17 active torsions:
  status: ('A' for Active; 'I' for Inactive)
    1  A    between atoms: C_1  and  C_10
    2  A    between atoms: C_1  and  N_39
    3  A    between atoms: C_4  and  N_7
    4  A    between atoms: N_7  and  C_30
    5  A    between atoms: C_8  and  C_27
    6  A    between atoms: C_10  and  C_25
    7  A    between atoms: C_14  and  C_45
    8  A    between atoms: C_15  and  C_45
    9  A    between atoms: C_19  and  C_44
   10  A    between atoms: C_19  and  C_45
   11  A    between atoms: O_21  and  C_25
   12  A    between atoms: O_21  and  C_43
   13  A    between atoms: C_27  and  N_39
   14  A    between atoms: C_29  and  C_32
   15  A    between atoms: C_30  and  C_49
   16  A    between atoms: C_38  and  C_43
   17  A    between atoms: C_42  and  C_48
                            x       y       z     vdW  Elec       q    Type
                         _______ _______ _______ _____ _____    ______ ____

>  <TORSDO>
F 17

$$$$
=
 OpenBabel11052409413D

 49 55  0  0  1  0  0  0  0  0999 V2000
  161.8180  210.0580  150.9430 C   0  0  0  0  0  0  0  0  0  0  0  0
  162.0490  211.1730  149.9600 C   0  0  1  0  0  3  0  0  0  0  0  0
  161.5740  206.7920  148.4070 C   0  0  0  0  0  2  0  0  0  0  0  0
  161.7560  206.5360  149.8990 C   0  0  0  0  0  0  0  0  0  0  0  0
  162.1490  210.4680  148.6760 N   0  0  0  0  0  0  0  0  0  0  0  0
  162.1940  208.1140  147.9040 C   0  0  0  0  0  2  0  0  0  0  0  0
  161.9560  209.2100  148.8930 C   0  0  0  0  0  0  0  0  0  0  0  0
  161.7780  207.5480  150.7840 C   0  0  0  0  0  3  0  0  0  0  0  0
  161.7690  208.9220  150.2820 C   0  0  0  0  0  0  0  0  0  0  0  0
  161.8970  210.1390  152.3710 N   0  0  0  0  0  2  0  0  0  0  0  0
  160.8480  209.1030  154.2980 C   0  0  0  0  0  1  0  0  0  0  0  0
  160.7630  210.2370  153.2860 C   0  0  2  0  0  0  0  0  0  0  0  0
  159.5630  210.1290  152.5700 O   0  0  0  0  0  1  0  0  0  0  0  0
  159.4810  212.2560  154.1080 C   0  0  0  0  0  0  0  0  0  0  0  0
  159.0740  212.4000  155.4670 N   0  0  0  0  0  0  0  0  0  0  0  0
  157.8730  213.0760  155.9430 C   0  0  0  0  0  1  0  0  0  0  0  0
  161.1240  211.4500  155.4900 C   0  0  0  0  0  0  0  0  0  0  0  0
  162.1970  210.9920  155.9590 O   0  0  0  0  0  0  0  0  0  0  0  0
  160.0750  211.9320  156.3170 N   0  0  0  0  0  2  0  0  0  0  0  0
  158.9130  212.9140  153.1040 C   0  0  0  0  0  2  0  0  0  0  0  0
  160.8290  211.5960  154.0190 C   0  0  1  0  0  3  0  0  0  0  0  0
  160.8700  212.1320  149.9370 C   0  0  0  0  0  2  0  0  0  0  0  0
  161.0810  213.1350  148.9080 N   0  0  0  0  0  2  0  0  0  0  0  0
  159.9620  213.0440  147.9850 C   0  0  0  0  0  2  0  0  0  0  0  0
  160.4700  212.8370  146.5700 C   0  0  0  0  0  2  0  0  0  0  0  0
  159.3150  212.5640  145.6210 C   0  0  0  0  0  2  0  0  0  0  0  0
  159.7550  211.8300  144.5120 O   0  0  0  0  0  0  0  0  0  0  0  0
  159.8190  212.7660  143.4770 C   0  0  0  0  0  2  0  0  0  0  0  0
  161.2230  212.7420  141.4210 O   0  0  0  0  0  0  0  0  0  0  0  0
  162.1930  212.5790  143.4920 O   0  0  0  0  0  1  0  0  0  0  0  0
  161.1410  212.6840  142.8050 C   0  0  0  0  0  0  0  0  0  0  0  0
  161.8550  205.1390  150.4230 C   0  0  1  0  0  3  0  0  0  0  0  0
  161.6240  206.2390  152.6600 C   0  0  2  0  0  3  0  0  0  0  0  0
  162.2880  205.1150  151.8860 C   0  0  1  0  0  3  0  0  0  0  0  0
  161.2060  205.6950  154.0170 C   0  0  0  0  0  2  0  0  0  0  0  0
  161.0830  204.8370  152.7720 C   0  0  1  0  0  3  0  0  0  0  0  0
  160.5550  204.3710  150.1550 C   0  0  2  0  0  3  0  0  0  0  0  0
  159.9700  203.9350  151.3490 O   0  0  0  0  0  1  0  0  0  0  0  0
  161.5460  201.8450  147.5700 N   0  0  0  0  0  0  0  0  0  0  0  0
  160.1890  202.0870  149.3600 N   0  0  0  0  0  0  0  0  0  0  0  0
  160.6870  201.2510  148.3300 C   0  0  0  0  0  3  0  0  0  0  0  0
  160.7620  203.2330  149.1970 C   0  0  0  0  0  0  0  0  0  0  0  0
  161.7160  203.2080  148.0490 C   0  0  2  0  0  3  0  0  0  0  0  0
  161.6480  203.6430  145.6380 C   0  0  1  0  0  3  0  0  0  0  0  0
  162.4550  204.6040  146.2590 O   0  0  0  0  0  0  0  0  0  0  0  0
  161.3090  204.1940  146.9650 C   0  0  2  0  0  3  0  0  0  0  0  0
  159.6680  203.6780  144.1350 O   0  0  0  0  0  1  0  0  0  0  0  0
  161.2070  205.3710  144.0650 O   0  0  0  0  0  0  0  0  0  0  0  0
  160.8310  204.2890  144.5810 C   0  0  0  0  0  0  0  0  0  0  0  0
  1 10  1  0  0  0  0
  2 22  1  6  0  0  0
  2  1  1  0  0  0  0
  3  4  1  0  0  0  0
  4 32  1  0  0  0  0
  4  8  2  0  0  0  0
  5  7  2  0  0  0  0
  5  2  1  0  0  0  0
  6  3  1  0  0  0  0
  6  7  1  0  0  0  0
  7  9  1  0  0  0  0
  9  8  1  0  0  0  0
  9  1  2  0  0  0  0
 10 12  1  0  0  0  0
 12 11  1  1  0  0  0
 13 12  1  0  0  0  0
 14 15  1  0  0  0  0
 15 16  1  0  0  0  0
 15 19  1  0  0  0  0
 17 18  2  0  0  0  0
 17 19  1  0  0  0  0
 20 14  2  0  0  0  0
 21 12  1  6  0  0  0
 21 14  1  0  0  0  0
 21 17  1  0  0  0  0
 23 22  1  0  0  0  0
 24 23  1  0  0  0  0
 25 24  1  0  0  0  0
 26 25  1  0  0  0  0
 27 26  1  0  0  0  0
 28 27  1  0  0  0  0
 29 31  2  0  0  0  0
 31 28  1  0  0  0  0
 31 30  1  0  0  0  0
 32 37  1  1  0  0  0
 33 36  1  0  0  0  0
 33 35  1  1  0  0  0
 34 32  1  6  0  0  0
 34 33  1  0  0  0  0
 34 36  1  0  0  0  0
 36 35  1  1  0  0  0
 37 38  1  1  0  0  0
 39 41  2  0  0  0  0
 41 40  1  0  0  0  0
 42 40  2  0  0  0  0
 42 37  1  0  0  0  0
 43 39  1  6  0  0  0
 43 42  1  0  0  0  0
 44 49  1  6  0  0  0
 44 45  1  0  0  0  0
 44 46  1  0  0  0  0
 46 45  1  1  0  0  0
 46 43  1  0  0  0  0
 47 49  1  0  0  0  0
 48 49  2  0  0  0  0
M  END
>  <MODEL>
5

>  <REMARK>
 VINA RESULT:      -4.1      3.141      9.036
  Name = 
  17 active torsions:
  status: ('A' for Active; 'I' for Inactive)
    1  A    between atoms: C_1  and  C_10
    2  A    between atoms: C_1  and  N_39
    3  A    between atoms: C_4  and  N_7
    4  A    between atoms: N_7  and  C_30
    5  A    between atoms: C_8  and  C_27
    6  A    between atoms: C_10  and  C_25
    7  A    between atoms: C_14  and  C_45
    8  A    between atoms: C_15  and  C_45
    9  A    between atoms: C_19  and  C_44
   10  A    between atoms: C_19  and  C_45
   11  A    between atoms: O_21  and  C_25
   12  A    between atoms: O_21  and  C_43
   13  A    between atoms: C_27  and  N_39
   14  A    between atoms: C_29  and  C_32
   15  A    between atoms: C_30  and  C_49
   16  A    between atoms: C_38  and  C_43
   17  A    between atoms: C_42  and  C_48
                            x       y       z     vdW  Elec       q    Type
                         _______ _______ _______ _____ _____    ______ ____

>  <TORSDO>
F 17

$$$$
=
 OpenBabel11052409413D

 49 55  0  0  1  0  0  0  0  0999 V2000
  160.6210  212.4810  150.7560 C   0  0  0  0  0  0  0  0  0  0  0  0
  161.1620  213.6090  149.9210 C   0  0  1  0  0  3  0  0  0  0  0  0
  161.9370  209.1920  148.6110 C   0  0  0  0  0  2  0  0  0  0  0  0
  161.4300  208.9720  150.0320 C   0  0  0  0  0  0  0  0  0  0  0  0
  161.9230  212.9120  148.8760 N   0  0  0  0  0  0  0  0  0  0  0  0
  162.5740  210.5770  148.3670 C   0  0  0  0  0  2  0  0  0  0  0  0
  161.7880  211.6420  149.0610 C   0  0  0  0  0  0  0  0  0  0  0  0
  160.9290  209.9850  150.7600 C   0  0  0  0  0  3  0  0  0  0  0  0
  161.0070  211.3430  150.2220 C   0  0  0  0  0  0  0  0  0  0  0  0
  160.0170  212.5820  152.0510 N   0  0  0  0  0  2  0  0  0  0  0  0
  158.2940  211.2390  153.1060 C   0  0  0  0  0  1  0  0  0  0  0  0
  158.5860  212.5170  152.3340 C   0  0  2  0  0  0  0  0  0  0  0  0
  157.8630  212.5090  151.1340 O   0  0  0  0  0  1  0  0  0  0  0  0
  156.6980  213.9060  153.2870 C   0  0  0  0  0  0  0  0  0  0  0  0
  156.2590  213.7740  154.6370 N   0  0  0  0  0  0  0  0  0  0  0  0
  154.9000  213.9620  155.1270 C   0  0  0  0  0  1  0  0  0  0  0  0
  158.5090  213.5620  154.6500 C   0  0  0  0  0  0  0  0  0  0  0  0
  159.6720  213.4430  155.1160 O   0  0  0  0  0  0  0  0  0  0  0  0
  157.3560  213.5850  155.4780 N   0  0  0  0  0  2  0  0  0  0  0  0
  155.9480  214.4320  152.3250 C   0  0  0  0  0  2  0  0  0  0  0  0
  158.1900  213.7430  153.1890 C   0  0  1  0  0  3  0  0  0  0  0  0
  160.0340  214.4130  149.2940 C   0  0  0  0  0  2  0  0  0  0  0  0
  160.0770  214.2650  147.8500 N   0  0  0  0  0  2  0  0  0  0  0  0
  158.9200  213.4740  147.4650 C   0  0  0  0  0  2  0  0  0  0  0  0
  159.3110  212.4660  146.4000 C   0  0  0  0  0  2  0  0  0  0  0  0
  159.6790  213.1710  145.1060 C   0  0  0  0  0  2  0  0  0  0  0  0
  158.5390  213.3730  144.3160 O   0  0  0  0  0  0  0  0  0  0  0  0
  158.9610  214.2470  143.3110 C   0  0  0  0  0  2  0  0  0  0  0  0
  157.3340  214.4320  141.4350 O   0  0  0  0  0  1  0  0  0  0  0  0
  158.9900  212.8470  141.3840 O   0  0  0  0  0  0  0  0  0  0  0  0
  158.4320  213.7960  141.9980 C   0  0  0  0  0  0  0  0  0  0  0  0
  161.4230  207.6020  150.6320 C   0  0  1  0  0  3  0  0  0  0  0  0
  161.5170  205.1440  150.1620 C   0  0  2  0  0  3  0  0  0  0  0  0
  161.7610  206.5320  149.5970 C   0  0  1  0  0  3  0  0  0  0  0  0
  160.8790  204.2970  149.0720 C   0  0  0  0  0  2  0  0  0  0  0  0
  160.5030  205.7580  149.2310 C   0  0  1  0  0  3  0  0  0  0  0  0
  162.3170  207.5550  151.8760 C   0  0  2  0  0  3  0  0  0  0  0  0
  163.3650  206.6420  151.7110 O   0  0  0  0  0  1  0  0  0  0  0  0
  160.1920  207.4220  154.9600 N   0  0  0  0  0  0  0  0  0  0  0  0
  161.2540  206.0650  153.4990 N   0  0  0  0  0  0  0  0  0  0  0  0
  160.4320  206.1930  154.6460 C   0  0  0  0  0  3  0  0  0  0  0  0
  161.5300  207.2700  153.1230 C   0  0  0  0  0  0  0  0  0  0  0  0
  160.8640  208.2800  153.9970 C   0  0  2  0  0  3  0  0  0  0  0  0
  161.2350  210.4090  155.1550 C   0  0  1  0  0  3  0  0  0  0  0  0
  162.0220  210.3680  153.9970 O   0  0  0  0  0  0  0  0  0  0  0  0
  161.8830  209.1600  154.7060 C   0  0  2  0  0  3  0  0  0  0  0  0
  163.3950  211.0150  156.2240 O   0  0  0  0  0  0  0  0  0  0  0  0
  161.4110  211.5340  157.2420 O   0  0  0  0  0  1  0  0  0  0  0  0
  162.0080  211.0280  156.2590 C   0  0  0  0  0  0  0  0  0  0  0  0
  1 10  1  0  0  0  0
  2 22  1  6  0  0  0
  2  1  1  0  0  0  0
  3  4  1  0  0  0  0
  4 32  1  0  0  0  0
  4  8  2  0  0  0  0
  5  7  2  0  0  0  0
  5  2  1  0  0  0  0
  6  3  1  0  0  0  0
  6  7  1  0  0  0  0
  7  9  1  0  0  0  0
  9  1  2  0  0  0  0
  9  8  1  0  0  0  0
 10 12  1  0  0  0  0
 12 11  1  1  0  0  0
 13 12  1  0  0  0  0
 14 15  1  0  0  0  0
 15 16  1  0  0  0  0
 15 19  1  0  0  0  0
 17 18  2  0  0  0  0
 17 19  1  0  0  0  0
 20 14  2  0  0  0  0
 21 12  1  6  0  0  0
 21 14  1  0  0  0  0
 21 17  1  0  0  0  0
 23 22  1  0  0  0  0
 24 23  1  0  0  0  0
 25 24  1  0  0  0  0
 26 25  1  0  0  0  0
 27 26  1  0  0  0  0
 28 27  1  0  0  0  0
 29 31  1  0  0  0  0
 30 31  2  0  0  0  0
 31 28  1  0  0  0  0
 32 37  1  1  0  0  0
 33 35  1  6  0  0  0
 34 33  1  0  0  0  0
 34 32  1  1  0  0  0
 36 35  1  6  0  0  0
 36 34  1  0  0  0  0
 36 33  1  0  0  0  0
 37 38  1  6  0  0  0
 37 42  1  0  0  0  0
 40 41  1  0  0  0  0
 41 39  2  0  0  0  0
 42 40  2  0  0  0  0
 43 42  1  6  0  0  0
 43 46  1  0  0  0  0
 43 39  1  0  0  0  0
 44 49  1  1  0  0  0
 45 44  1  0  0  0  0
 46 45  1  6  0  0  0
 46 44  1  0  0  0  0
 47 49  2  0  0  0  0
 49 48  1  0  0  0  0
M  END
>  <MODEL>
6

>  <REMARK>
 VINA RESULT:      -3.7      3.782      8.364
  Name = 
  17 active torsions:
  status: ('A' for Active; 'I' for Inactive)
    1  A    between atoms: C_1  and  C_10
    2  A    between atoms: C_1  and  N_39
    3  A    between atoms: C_4  and  N_7
    4  A    between atoms: N_7  and  C_30
    5  A    between atoms: C_8  and  C_27
    6  A    between atoms: C_10  and  C_25
    7  A    between atoms: C_14  and  C_45
    8  A    between atoms: C_15  and  C_45
    9  A    between atoms: C_19  and  C_44
   10  A    between atoms: C_19  and  C_45
   11  A    between atoms: O_21  and  C_25
   12  A    between atoms: O_21  and  C_43
   13  A    between atoms: C_27  and  N_39
   14  A    between atoms: C_29  and  C_32
   15  A    between atoms: C_30  and  C_49
   16  A    between atoms: C_38  and  C_43
   17  A    between atoms: C_42  and  C_48
                            x       y       z     vdW  Elec       q    Type
                         _______ _______ _______ _____ _____    ______ ____

>  <TORSDO>
F 17

$$$$
=
 OpenBabel11052409413D

 49 55  0  0  1  0  0  0  0  0999 V2000
  160.0480  209.8090  154.1730 C   0  0  0  0  0  0  0  0  0  0  0  0
  159.7220  210.0810  155.6150 C   0  0  1  0  0  3  0  0  0  0  0  0
  161.4100  205.9030  154.3810 C   0  0  0  0  0  2  0  0  0  0  0  0
  161.0670  206.4770  153.0100 C   0  0  0  0  0  0  0  0  0  0  0  0
  159.9800  208.7890  156.2620 N   0  0  0  0  0  0  0  0  0  0  0  0
  160.5890  206.4960  155.5460 C   0  0  0  0  0  2  0  0  0  0  0  0
  160.4190  207.9710  155.3650 C   0  0  0  0  0  0  0  0  0  0  0  0
  160.6820  207.7560  152.8650 C   0  0  0  0  0  3  0  0  0  0  0  0
  160.4540  208.5630  154.0630 C   0  0  0  0  0  0  0  0  0  0  0  0
  159.7380  210.6410  153.0480 N   0  0  0  0  0  2  0  0  0  0  0  0
  160.9340  210.7680  150.9410 C   0  0  0  0  0  1  0  0  0  0  0  0
  160.6940  211.4390  152.2850 C   0  0  2  0  0  0  0  0  0  0  0  0
  161.9060  211.5260  152.9830 O   0  0  0  0  0  1  0  0  0  0  0  0
  159.6460  213.0550  150.6460 C   0  0  0  0  0  0  0  0  0  0  0  0
  158.2390  213.2830  150.5920 N   0  0  0  0  0  0  0  0  0  0  0  0
  157.4620  213.6120  149.4040 C   0  0  0  0  0  1  0  0  0  0  0  0
  158.7860  213.0470  152.7710 C   0  0  0  0  0  0  0  0  0  0  0  0
  158.6400  213.0350  154.0210 O   0  0  0  0  0  0  0  0  0  0  0  0
  157.7090  213.3010  151.8810 N   0  0  0  0  0  2  0  0  0  0  0  0
  160.4680  213.3270  149.6380 C   0  0  0  0  0  2  0  0  0  0  0  0
  160.1020  212.8500  152.0640 C   0  0  1  0  0  3  0  0  0  0  0  0
  160.6420  211.1450  156.1920 C   0  0  0  0  0  2  0  0  0  0  0  0
  161.9710  210.5890  156.3770 N   0  0  0  0  0  2  0  0  0  0  0  0
  162.6930  211.4880  157.2610 C   0  0  0  0  0  2  0  0  0  0  0  0
  164.1710  211.1460  157.2570 C   0  0  0  0  0  2  0  0  0  0  0  0
  164.8610  211.7700  156.0560 C   0  0  0  0  0  2  0  0  0  0  0  0
  165.8740  212.6450  156.4730 O   0  0  0  0  0  0  0  0  0  0  0  0
  166.8470  212.5530  155.4750 C   0  0  0  0  0  2  0  0  0  0  0  0
  168.7190  214.0100  156.2350 O   0  0  0  0  0  0  0  0  0  0  0  0
  168.8620  211.7310  156.4440 O   0  0  0  0  0  1  0  0  0  0  0  0
  168.1960  212.7340  156.0710 C   0  0  0  0  0  0  0  0  0  0  0  0
  161.2100  205.6390  151.7790 C   0  0  1  0  0  3  0  0  0  0  0  0
  160.7550  203.4110  150.7300 C   0  0  2  0  0  3  0  0  0  0  0  0
  160.7960  204.1910  152.0320 C   0  0  1  0  0  3  0  0  0  0  0  0
  161.3420  202.0320  150.9880 C   0  0  0  0  0  2  0  0  0  0  0  0
  161.9370  203.2590  151.6530 C   0  0  1  0  0  3  0  0  0  0  0  0
  160.4800  206.2880  150.5990 C   0  0  2  0  0  3  0  0  0  0  0  0
  159.6390  205.3710  149.9580 O   0  0  0  0  0  1  0  0  0  0  0  0
  162.4120  207.8360  147.7860 N   0  0  0  0  0  0  0  0  0  0  0  0
  162.4920  207.5540  150.0260 N   0  0  0  0  0  0  0  0  0  0  0  0
  163.0840  208.0970  148.8580 C   0  0  0  0  0  3  0  0  0  0  0  0
  161.4330  206.9290  149.6310 C   0  0  0  0  0  0  0  0  0  0  0  0
  161.2420  207.0560  148.1560 C   0  0  2  0  0  3  0  0  0  0  0  0
  161.6270  205.8700  146.0460 C   0  0  1  0  0  3  0  0  0  0  0  0
  160.3060  205.6600  146.4610 O   0  0  0  0  0  0  0  0  0  0  0  0
  161.2840  205.6980  147.4720 C   0  0  2  0  0  3  0  0  0  0  0  0
  161.3290  203.6890  144.8920 O   0  0  0  0  0  0  0  0  0  0  0  0
  163.4060  204.3620  145.5810 O   0  0  0  0  0  1  0  0  0  0  0  0
  162.1780  204.6110  145.4870 C   0  0  0  0  0  0  0  0  0  0  0  0
  1  2  1  0  0  0  0
  2 22  1  1  0  0  0
  2  5  1  0  0  0  0
  3  6  1  0  0  0  0
  4  3  1  0  0  0  0
  7  6  1  0  0  0  0
  7  5  2  0  0  0  0
  8  4  2  0  0  0  0
  8  9  1  0  0  0  0
  9  1  2  0  0  0  0
  9  7  1  0  0  0  0
 10  1  1  0  0  0  0
 12 11  1  6  0  0  0
 12 13  1  0  0  0  0
 12 10  1  0  0  0  0
 14 21  1  0  0  0  0
 15 14  1  0  0  0  0
 15 19  1  0  0  0  0
 16 15  1  0  0  0  0
 17 18  2  0  0  0  0
 19 17  1  0  0  0  0
 20 14  2  0  0  0  0
 21 12  1  6  0  0  0
 21 17  1  0  0  0  0
 22 23  1  0  0  0  0
 23 24  1  0  0  0  0
 25 24  1  0  0  0  0
 26 27  1  0  0  0  0
 26 25  1  0  0  0  0
 28 31  1  0  0  0  0
 28 27  1  0  0  0  0
 31 29  2  0  0  0  0
 31 30  1  0  0  0  0
 32 37  1  6  0  0  0
 32  4  1  0  0  0  0
 33 35  1  1  0  0  0
 33 36  1  0  0  0  0
 33 34  1  0  0  0  0
 34 32  1  6  0  0  0
 36 35  1  1  0  0  0
 36 34  1  0  0  0  0
 37 38  1  6  0  0  0
 39 41  2  0  0  0  0
 41 40  1  0  0  0  0
 42 40  2  0  0  0  0
 42 37  1  0  0  0  0
 43 39  1  6  0  0  0
 43 42  1  0  0  0  0
 44 49  1  6  0  0  0
 44 45  1  0  0  0  0
 44 46  1  0  0  0  0
 46 45  1  6  0  0  0
 46 43  1  0  0  0  0
 47 49  2  0  0  0  0
 49 48  1  0  0  0  0
M  END
>  <MODEL>
7

>  <REMARK>
 VINA RESULT:      -3.7      2.897     10.309
  Name = 
  17 active torsions:
  status: ('A' for Active; 'I' for Inactive)
    1  A    between atoms: C_1  and  C_10
    2  A    between atoms: C_1  and  N_39
    3  A    between atoms: C_4  and  N_7
    4  A    between atoms: N_7  and  C_30
    5  A    between atoms: C_8  and  C_27
    6  A    between atoms: C_10  and  C_25
    7  A    between atoms: C_14  and  C_45
    8  A    between atoms: C_15  and  C_45
    9  A    between atoms: C_19  and  C_44
   10  A    between atoms: C_19  and  C_45
   11  A    between atoms: O_21  and  C_25
   12  A    between atoms: O_21  and  C_43
   13  A    between atoms: C_27  and  N_39
   14  A    between atoms: C_29  and  C_32
   15  A    between atoms: C_30  and  C_49
   16  A    between atoms: C_38  and  C_43
   17  A    between atoms: C_42  and  C_48
                            x       y       z     vdW  Elec       q    Type
                         _______ _______ _______ _____ _____    ______ ____

>  <TORSDO>
F 17

$$$$
=
 OpenBabel11052409413D

 49 55  0  0  1  0  0  0  0  0999 V2000
  161.2290  206.7520  149.5300 C   0  0  0  0  0  0  0  0  0  0  0  0
  161.6940  207.0520  148.1320 C   0  0  1  0  0  3  0  0  0  0  0  0
  162.2790  210.2450  151.4920 C   0  0  0  0  0  2  0  0  0  0  0  0
  161.3240  209.2830  152.1900 C   0  0  0  0  0  0  0  0  0  0  0  0
  162.1680  208.4380  148.2310 N   0  0  0  0  0  0  0  0  0  0  0  0
  162.1960  210.2220  149.9500 C   0  0  0  0  0  2  0  0  0  0  0  0
  162.0440  208.8180  149.4580 C   0  0  0  0  0  0  0  0  0  0  0  0
  160.9930  208.1040  151.6380 C   0  0  0  0  0  3  0  0  0  0  0  0
  161.4500  207.8080  150.2810 C   0  0  0  0  0  0  0  0  0  0  0  0
  160.4420  205.6320  149.9540 N   0  0  0  0  0  2  0  0  0  0  0  0
  160.5550  204.7720  152.2200 C   0  0  0  0  0  1  0  0  0  0  0  0
  160.9140  204.5120  150.7630 C   0  0  2  0  0  0  0  0  0  0  0  0
  162.3040  204.3910  150.6430 O   0  0  0  0  0  1  0  0  0  0  0  0
  160.7760  202.7350  148.9680 C   0  0  0  0  0  0  0  0  0  0  0  0
  161.3830  201.4530  149.1150 N   0  0  0  0  0  0  0  0  0  0  0  0
  161.9420  200.6350  148.0470 C   0  0  0  0  0  1  0  0  0  0  0  0
  160.5500  202.0240  151.1360 C   0  0  0  0  0  0  0  0  0  0  0  0
  160.2280  201.9050  152.3470 O   0  0  0  0  0  0  0  0  0  0  0  0
  161.2320  201.0020  150.4250 N   0  0  0  0  0  2  0  0  0  0  0  0
  160.4510  203.2580  147.7910 C   0  0  0  0  0  2  0  0  0  0  0  0
  160.2200  203.2190  150.2790 C   0  0  1  0  0  3  0  0  0  0  0  0
  162.8390  206.1370  147.7290 C   0  0  0  0  0  2  0  0  0  0  0  0
  162.4920  205.4350  146.5060 N   0  0  0  0  0  2  0  0  0  0  0  0
  161.2390  205.9960  146.0300 C   0  0  0  0  0  2  0  0  0  0  0  0
  160.8820  205.4010  144.6800 C   0  0  0  0  0  2  0  0  0  0  0  0
  161.1990  206.3790  143.5630 C   0  0  0  0  0  2  0  0  0  0  0  0
  161.5900  205.6930  142.4060 O   0  0  0  0  0  0  0  0  0  0  0  0
  162.5240  206.5340  141.7980 C   0  0  0  0  0  2  0  0  0  0  0  0
  161.3720  208.1620  140.3070 O   0  0  0  0  0  1  0  0  0  0  0  0
  162.2270  206.2120  139.4570 O   0  0  0  0  0  0  0  0  0  0  0  0
  162.0320  206.9500  140.4600 C   0  0  0  0  0  0  0  0  0  0  0  0
  160.7750  209.6080  153.5430 C   0  0  1  0  0  3  0  0  0  0  0  0
  160.2970  208.5930  155.7820 C   0  0  2  0  0  3  0  0  0  0  0  0
  161.2450  208.6070  154.5960 C   0  0  1  0  0  3  0  0  0  0  0  0
  160.1110  207.1480  156.2190 C   0  0  0  0  0  2  0  0  0  0  0  0
  160.2130  207.5000  154.7480 C   0  0  1  0  0  3  0  0  0  0  0  0
  161.0720  211.0670  153.9090 C   0  0  2  0  0  3  0  0  0  0  0  0
  161.2390  211.2180  155.2900 O   0  0  0  0  0  1  0  0  0  0  0  0
  158.4430  213.6220  153.1360 N   0  0  0  0  0  0  0  0  0  0  0  0
  159.8700  212.2040  152.1080 N   0  0  0  0  0  0  0  0  0  0  0  0
  158.8740  213.2050  151.9920 C   0  0  0  0  0  3  0  0  0  0  0  0
  160.0280  212.0040  153.3740 C   0  0  0  0  0  0  0  0  0  0  0  0
  159.1520  212.9030  154.1830 C   0  0  2  0  0  3  0  0  0  0  0  0
  157.3530  213.0320  155.8420 C   0  0  1  0  0  3  0  0  0  0  0  0
  158.4390  212.3380  156.3890 O   0  0  0  0  0  0  0  0  0  0  0  0
  158.1680  212.1090  155.0270 C   0  0  2  0  0  3  0  0  0  0  0  0
  155.9920  210.9960  156.2680 O   0  0  0  0  0  0  0  0  0  0  0  0
  155.0890  213.0790  156.5670 O   0  0  0  0  0  1  0  0  0  0  0  0
  156.0870  212.3800  156.2580 C   0  0  0  0  0  0  0  0  0  0  0  0
  1 10  1  0  0  0  0
  1  9  2  0  0  0  0
  2 22  1  1  0  0  0
  2  5  1  0  0  0  0
  2  1  1  0  0  0  0
  3  4  1  0  0  0  0
  4 32  1  0  0  0  0
  5  7  2  0  0  0  0
  6  3  1  0  0  0  0
  7  6  1  0  0  0  0
  7  9  1  0  0  0  0
  8  4  2  0  0  0  0
  9  8  1  0  0  0  0
 10 12  1  0  0  0  0
 12 11  1  1  0  0  0
 13 12  1  0  0  0  0
 14 15  1  0  0  0  0
 14 21  1  0  0  0  0
 15 19  1  0  0  0  0
 16 15  1  0  0  0  0
 17 18  2  0  0  0  0
 19 17  1  0  0  0  0
 20 14  2  0  0  0  0
 21 12  1  1  0  0  0
 21 17  1  0  0  0  0
 23 22  1  0  0  0  0
 24 23  1  0  0  0  0
 25 24  1  0  0  0  0
 26 25  1  0  0  0  0
 27 26  1  0  0  0  0
 28 27  1  0  0  0  0
 29 31  1  0  0  0  0
 30 31  2  0  0  0  0
 31 28  1  0  0  0  0
 32 37  1  1  0  0  0
 33 35  1  1  0  0  0
 34 32  1  6  0  0  0
 34 36  1  0  0  0  0
 34 33  1  0  0  0  0
 36 33  1  0  0  0  0
 36 35  1  1  0  0  0
 37 38  1  1  0  0  0
 40 42  2  0  0  0  0
 41 40  1  0  0  0  0
 41 39  2  0  0  0  0
 42 37  1  0  0  0  0
 42 43  1  0  0  0  0
 43 39  1  6  0  0  0
 43 46  1  0  0  0  0
 44 49  1  1  0  0  0
 44 45  1  0  0  0  0
 46 44  1  0  0  0  0
 46 45  1  1  0  0  0
 49 47  2  0  0  0  0
 49 48  1  0  0  0  0
M  END
>  <MODEL>
8

>  <REMARK>
 VINA RESULT:      -3.6      2.234      2.986
  Name = 
  17 active torsions:
  status: ('A' for Active; 'I' for Inactive)
    1  A    between atoms: C_1  and  C_10
    2  A    between atoms: C_1  and  N_39
    3  A    between atoms: C_4  and  N_7
    4  A    between atoms: N_7  and  C_30
    5  A    between atoms: C_8  and  C_27
    6  A    between atoms: C_10  and  C_25
    7  A    between atoms: C_14  and  C_45
    8  A    between atoms: C_15  and  C_45
    9  A    between atoms: C_19  and  C_44
   10  A    between atoms: C_19  and  C_45
   11  A    between atoms: O_21  and  C_25
   12  A    between atoms: O_21  and  C_43
   13  A    between atoms: C_27  and  N_39
   14  A    between atoms: C_29  and  C_32
   15  A    between atoms: C_30  and  C_49
   16  A    between atoms: C_38  and  C_43
   17  A    between atoms: C_42  and  C_48
                            x       y       z     vdW  Elec       q    Type
                         _______ _______ _______ _____ _____    ______ ____

>  <TORSDO>
F 17

$$$$
=
 OpenBabel11052409413D

 49 55  0  0  1  0  0  0  0  0999 V2000
  159.9600  210.2830  152.7790 C   0  0  0  0  0  0  0  0  0  0  0  0
  160.2770  211.7270  152.5120 C   0  0  1  0  0  3  0  0  0  0  0  0
  161.9770  208.4300  149.6720 C   0  0  0  0  0  2  0  0  0  0  0  0
  161.4910  207.5690  150.8330 C   0  0  0  0  0  0  0  0  0  0  0  0
  161.1910  211.6600  151.3640 N   0  0  0  0  0  0  0  0  0  0  0  0
  162.3210  209.8850  150.0550 C   0  0  0  0  0  2  0  0  0  0  0  0
  161.3160  210.4210  151.0230 C   0  0  0  0  0  0  0  0  0  0  0  0
  160.7750  208.0950  151.8410 C   0  0  0  0  0  3  0  0  0  0  0  0
  160.5850  209.5450  151.8880 C   0  0  0  0  0  0  0  0  0  0  0  0
  159.3160  209.7430  153.9390 N   0  0  0  0  0  2  0  0  0  0  0  0
  161.3820  209.9820  155.1890 C   0  0  0  0  0  1  0  0  0  0  0  0
  159.9010  209.6440  155.2740 C   0  0  2  0  0  0  0  0  0  0  0  0
  159.7500  208.3410  155.7650 O   0  0  0  0  0  1  0  0  0  0  0  0
  159.9390  211.9530  156.3070 C   0  0  0  0  0  0  0  0  0  0  0  0
  159.1570  213.0310  155.7970 N   0  0  0  0  0  0  0  0  0  0  0  0
  159.5150  214.4430  155.8160 C   0  0  0  0  0  1  0  0  0  0  0  0
  157.8950  211.1640  155.6320 C   0  0  0  0  0  0  0  0  0  0  0  0
  156.8830  210.4500  155.4100 O   0  0  0  0  0  0  0  0  0  0  0  0
  157.9030  212.5650  155.4020 N   0  0  0  0  0  2  0  0  0  0  0  0
  161.0140  212.1290  157.0660 C   0  0  0  0  0  2  0  0  0  0  0  0
  159.1900  210.6530  156.2060 C   0  0  1  0  0  3  0  0  0  0  0  0
  159.0240  212.5000  152.1330 C   0  0  0  0  0  2  0  0  0  0  0  0
  159.3830  213.8610  151.7740 N   0  0  0  0  0  2  0  0  0  0  0  0
  158.8170  214.1210  150.4610 C   0  0  0  0  0  2  0  0  0  0  0  0
  157.6750  213.1610  150.1870 C   0  0  0  0  0  2  0  0  0  0  0  0
  156.6320  213.8120  149.2950 C   0  0  0  0  0  2  0  0  0  0  0  0
  157.1520  214.0320  148.0120 O   0  0  0  0  0  0  0  0  0  0  0  0
  157.3390  212.7520  147.4870 C   0  0  0  0  0  2  0  0  0  0  0  0
  159.7950  212.4730  147.1850 O   0  0  0  0  0  1  0  0  0  0  0  0
  158.4500  212.9370  145.3880 O   0  0  0  0  0  0  0  0  0  0  0  0
  158.5510  212.7330  146.6270 C   0  0  0  0  0  0  0  0  0  0  0  0
  161.7520  206.0960  150.8460 C   0  0  1  0  0  3  0  0  0  0  0  0
  162.1880  206.7520  153.2230 C   0  0  2  0  0  3  0  0  0  0  0  0
  162.2550  205.6250  152.2080 C   0  0  1  0  0  3  0  0  0  0  0  0
  161.6950  206.1710  154.5390 C   0  0  0  0  0  2  0  0  0  0  0  0
  161.1230  205.6850  153.2220 C   0  0  1  0  0  3  0  0  0  0  0  0
  160.5220  205.3280  150.3480 C   0  0  2  0  0  3  0  0  0  0  0  0
  159.8030  204.7770  151.4150 O   0  0  0  0  0  1  0  0  0  0  0  0
  161.8430  203.1160  147.6270 N   0  0  0  0  0  0  0  0  0  0  0  0
  160.5070  203.0540  149.4480 N   0  0  0  0  0  0  0  0  0  0  0  0
  161.1090  202.3570  148.3710 C   0  0  0  0  0  3  0  0  0  0  0  0
  160.8850  204.2840  149.3320 C   0  0  0  0  0  0  0  0  0  0  0  0
  161.8040  204.4650  148.1690 C   0  0  2  0  0  3  0  0  0  0  0  0
  161.9160  205.2520  145.8510 C   0  0  1  0  0  3  0  0  0  0  0  0
  162.2220  206.3110  146.7150 O   0  0  0  0  0  0  0  0  0  0  0  0
  161.2190  205.4210  147.1420 C   0  0  2  0  0  3  0  0  0  0  0  0
  161.5050  205.6030  143.4250 O   0  0  0  0  0  0  0  0  0  0  0  0
  159.9890  206.3360  144.9760 O   0  0  0  0  0  1  0  0  0  0  0  0
  161.0740  205.7500  144.7360 C   0  0  0  0  0  0  0  0  0  0  0  0
  1 10  1  0  0  0  0
  2 22  1  6  0  0  0
  2  1  1  0  0  0  0
  3  6  1  0  0  0  0
  3  4  1  0  0  0  0
  4 32  1  0  0  0  0
  4  8  2  0  0  0  0
  5  2  1  0  0  0  0
  6  7  1  0  0  0  0
  7  5  2  0  0  0  0
  7  9  1  0  0  0  0
  8  9  1  0  0  0  0
  9  1  2  0  0  0  0
 10 12  1  0  0  0  0
 12 11  1  6  0  0  0
 12 13  1  0  0  0  0
 14 20  2  0  0  0  0
 15 16  1  0  0  0  0
 15 14  1  0  0  0  0
 17 21  1  0  0  0  0
 18 17  2  0  0  0  0
 19 17  1  0  0  0  0
 19 15  1  0  0  0  0
 21 12  1  6  0  0  0
 21 14  1  0  0  0  0
 23 22  1  0  0  0  0
 24 23  1  0  0  0  0
 25 24  1  0  0  0  0
 26 25  1  0  0  0  0
 27 26  1  0  0  0  0
 28 27  1  0  0  0  0
 30 31  2  0  0  0  0
 31 29  1  0  0  0  0
 31 28  1  0  0  0  0
 32 37  1  1  0  0  0
 33 35  1  1  0  0  0
 34 32  1  6  0  0  0
 34 36  1  0  0  0  0
 34 33  1  0  0  0  0
 36 33  1  0  0  0  0
 36 35  1  1  0  0  0
 37 38  1  1  0  0  0
 39 41  2  0  0  0  0
 41 40  1  0  0  0  0
 42 40  2  0  0  0  0
 42 37  1  0  0  0  0
 43 39  1  6  0  0  0
 43 42  1  0  0  0  0
 44 49  1  6  0  0  0
 44 45  1  0  0  0  0
 44 46  1  0  0  0  0
 46 45  1  1  0  0  0
 46 43  1  0  0  0  0
 47 49  2  0  0  0  0
 49 48  1  0  0  0  0
M  END
>  <MODEL>
9

>  <REMARK>
 VINA RESULT:      -3.6      2.575      9.127
  Name = 
  17 active torsions:
  status: ('A' for Active; 'I' for Inactive)
    1  A    between atoms: C_1  and  C_10
    2  A    between atoms: C_1  and  N_39
    3  A    between atoms: C_4  and  N_7
    4  A    between atoms: N_7  and  C_30
    5  A    between atoms: C_8  and  C_27
    6  A    between atoms: C_10  and  C_25
    7  A    between atoms: C_14  and  C_45
    8  A    between atoms: C_15  and  C_45
    9  A    between atoms: C_19  and  C_44
   10  A    between atoms: C_19  and  C_45
   11  A    between atoms: O_21  and  C_25
   12  A    between atoms: O_21  and  C_43
   13  A    between atoms: C_27  and  N_39
   14  A    between atoms: C_29  and  C_32
   15  A    between atoms: C_30  and  C_49
   16  A    between atoms: C_38  and  C_43
   17  A    between atoms: C_42  and  C_48
                            x       y       z     vdW  Elec       q    Type
                         _______ _______ _______ _____ _____    ______ ____

>  <TORSDO>
F 17

$$$$
