=
 OpenBabel11052411143D

 26 28  0  0  1  0  0  0  0  0999 V2000
  161.1060  204.0940  148.7140 C   0  0  0  0  0  0  0  0  0  0  0  0
  161.9810  206.6200  147.9150 C   0  0  0  0  0  3  0  0  0  0  0  0
  161.2200  205.1230  149.6510 C   0  0  0  0  0  3  0  0  0  0  0  0
  161.8760  205.5950  146.9680 C   0  0  0  0  0  0  0  0  0  0  0  0
  161.4300  204.3290  147.3760 C   0  0  0  0  0  3  0  0  0  0  0  0
  161.6540  206.3990  149.2580 C   0  0  0  0  0  0  0  0  0  0  0  0
  160.6570  202.8070  149.1240 N   0  0  0  0  0  0  0  0  0  0  0  0
  160.8940  201.4330  149.6440 C   0  0  1  0  0  0  0  0  0  0  0  0
  161.3340  201.4560  151.0950 C   0  0  0  0  0  1  0  0  0  0  0  0
  159.5910  201.7850  149.3660 C   0  0  0  0  0  2  0  0  0  0  0  0
  161.6370  200.5720  148.6330 C   0  0  0  0  0  2  0  0  0  0  0  0
  161.4250  199.5820  146.4140 N   0  0  0  0  0  1  0  0  0  0  0  0
  161.0510  200.7190  147.2370 C   0  0  0  0  0  2  0  0  0  0  0  0
  162.2010  205.8810  145.6350 O   0  0  0  0  0  0  0  0  0  0  0  0
  161.6750  205.6610  143.2910 O   0  0  0  0  0  0  0  0  0  0  0  0
  160.1150  206.2380  144.8210 O   0  0  0  0  0  0  0  0  0  0  0  0
  161.2900  205.8890  144.5920 N   0  0  0  0  0  0  0  0  0  0  0  0
  161.7970  207.4640  150.1610 O   0  0  0  0  0  0  0  0  0  0  0  0
  161.5070  207.4570  151.5360 C   0  0  0  0  0  0  0  0  0  0  0  0
  161.6310  206.3140  152.3390 C   0  0  0  0  0  3  0  0  0  0  0  0
  160.7430  208.6740  153.4520 N   0  0  0  0  0  0  0  0  0  0  0  0
  161.0490  208.6390  152.1270 C   0  0  0  0  0  3  0  0  0  0  0  0
  160.8650  207.5770  154.2460 C   0  0  0  0  0  0  0  0  0  0  0  0
  161.3140  206.3710  153.6970 C   0  0  0  0  0  3  0  0  0  0  0  0
  160.5220  207.6760  155.6670 C   0  0  0  0  0  3  0  0  0  0  0  0
  159.5300  207.0630  156.1440 O   0  0  0  0  0  0  0  0  0  0  0  0
  1  7  1  0  0  0  0
  1  3  1  0  0  0  0
  2  6  1  0  0  0  0
  4  5  1  0  0  0  0
  4  2  2  0  0  0  0
  5  1  2  0  0  0  0
  6  3  2  0  0  0  0
  6 18  1  0  0  0  0
  7 10  1  0  0  0  0
  7  8  1  0  0  0  0
  8  9  1  1  0  0  0
 10  8  1  0  0  0  0
 11  8  1  0  0  0  0
 12 13  1  0  0  0  0
 13 11  1  0  0  0  0
 14  4  1  0  0  0  0
 15 17  2  0  0  0  0
 17 16  2  0  0  0  0
 17 14  1  0  0  0  0
 18 19  1  0  0  0  0
 19 22  2  0  0  0  0
 19 20  1  0  0  0  0
 20 24  2  0  0  0  0
 21 23  2  0  0  0  0
 22 21  1  0  0  0  0
 23 25  1  0  0  0  0
 24 23  1  0  0  0  0
 25 26  2  0  0  0  0
M  END
>  <MODEL>
1

>  <REMARK>
 VINA RESULT:      -7.7      0.000      0.000
  Name = 
  8 active torsions:
  status: ('A' for Active; 'I' for Inactive)
    1  A    between atoms: C_1  and  N_11
    2  A    between atoms: C_2  and  CA_16
    3  A    between atoms: C_4  and  C_17
    4  A    between atoms: C_4  and  C_18
    5  A    between atoms: O_5  and  C_19
    6  A    between atoms: O_5  and  N_21
    7  A    between atoms: C_6  and  O_22
    8  A    between atoms: O_22  and  C_26
                            x       y       z     vdW  Elec       q    Type
                         _______ _______ _______ _____ _____    ______ ____

>  <TORSDO>
F 8

$$$$
=
 OpenBabel11052411143D

 26 28  0  0  1  0  0  0  0  0999 V2000
  161.4970  205.2950  149.7300 C   0  0  0  0  0  0  0  0  0  0  0  0
  160.9530  203.7710  152.0030 C   0  0  0  0  0  3  0  0  0  0  0  0
  161.5560  205.8820  150.9950 C   0  0  0  0  0  3  0  0  0  0  0  0
  160.8840  203.1730  150.7390 C   0  0  0  0  0  0  0  0  0  0  0  0
  161.1640  203.9440  149.6010 C   0  0  0  0  0  3  0  0  0  0  0  0
  161.2900  205.1220  152.1450 C   0  0  0  0  0  0  0  0  0  0  0  0
  161.7760  206.0740  148.5710 N   0  0  0  0  0  0  0  0  0  0  0  0
  161.7600  206.3010  147.1010 C   0  0  1  0  0  0  0  0  0  0  0  0
  160.3500  206.5130  146.5860 C   0  0  0  0  0  1  0  0  0  0  0  0
  162.3100  207.2920  147.8850 C   0  0  0  0  0  2  0  0  0  0  0  0
  162.7050  205.3510  146.3780 C   0  0  0  0  0  2  0  0  0  0  0  0
  161.4990  203.2760  145.9480 N   0  0  0  0  0  1  0  0  0  0  0  0
  161.9680  204.5120  145.3460 C   0  0  0  0  0  2  0  0  0  0  0  0
  160.5580  201.8120  150.6610 O   0  0  0  0  0  0  0  0  0  0  0  0
  161.1620  200.5760  148.6810 O   0  0  0  0  0  0  0  0  0  0  0  0
  159.0320  201.2040  149.0990 O   0  0  0  0  0  0  0  0  0  0  0  0
  160.2140  201.1560  149.4910 N   0  0  0  0  0  0  0  0  0  0  0  0
  161.3260  205.6660  153.4390 O   0  0  0  0  0  0  0  0  0  0  0  0
  160.9910  206.9770  153.8190 C   0  0  0  0  0  0  0  0  0  0  0  0
  161.1330  208.0810  152.9670 C   0  0  0  0  0  3  0  0  0  0  0  0
  160.1950  208.4490  155.5320 N   0  0  0  0  0  0  0  0  0  0  0  0
  160.5180  207.1950  155.1170 C   0  0  0  0  0  3  0  0  0  0  0  0
  160.3200  209.5290  154.7160 C   0  0  0  0  0  0  0  0  0  0  0  0
  160.7950  209.3600  153.4100 C   0  0  0  0  0  3  0  0  0  0  0  0
  159.9550  210.8560  155.2180 C   0  0  0  0  0  3  0  0  0  0  0  0
  160.3790  211.9050  154.6640 O   0  0  0  0  0  0  0  0  0  0  0  0
  1  3  1  0  0  0  0
  2  6  1  0  0  0  0
  3  6  2  0  0  0  0
  4  2  2  0  0  0  0
  5  1  2  0  0  0  0
  5  4  1  0  0  0  0
  6 18  1  0  0  0  0
  7  1  1  0  0  0  0
  8  9  1  6  0  0  0
  8 10  1  0  0  0  0
  8  7  1  0  0  0  0
 10  7  1  0  0  0  0
 11  8  1  0  0  0  0
 13 12  1  0  0  0  0
 13 11  1  0  0  0  0
 14  4  1  0  0  0  0
 15 17  2  0  0  0  0
 16 17  2  0  0  0  0
 17 14  1  0  0  0  0
 18 19  1  0  0  0  0
 19 22  1  0  0  0  0
 20 24  1  0  0  0  0
 20 19  2  0  0  0  0
 22 21  2  0  0  0  0
 23 25  1  0  0  0  0
 23 21  1  0  0  0  0
 24 23  2  0  0  0  0
 26 25  2  0  0  0  0
M  END
>  <MODEL>
2

>  <REMARK>
 VINA RESULT:      -7.6      3.099      4.563
  Name = 
  8 active torsions:
  status: ('A' for Active; 'I' for Inactive)
    1  A    between atoms: C_1  and  N_11
    2  A    between atoms: C_2  and  CA_16
    3  A    between atoms: C_4  and  C_17
    4  A    between atoms: C_4  and  C_18
    5  A    between atoms: O_5  and  C_19
    6  A    between atoms: O_5  and  N_21
    7  A    between atoms: C_6  and  O_22
    8  A    between atoms: O_22  and  C_26
                            x       y       z     vdW  Elec       q    Type
                         _______ _______ _______ _____ _____    ______ ____

>  <TORSDO>
F 8

$$$$
=
 OpenBabel11052411143D

 26 28  0  0  1  0  0  0  0  0999 V2000
  161.0160  206.9320  153.5700 C   0  0  0  0  0  0  0  0  0  0  0  0
  161.8280  205.9170  151.1010 C   0  0  0  0  0  3  0  0  0  0  0  0
  160.8510  205.5760  153.2840 C   0  0  0  0  0  3  0  0  0  0  0  0
  161.9920  207.2800  151.3740 C   0  0  0  0  0  0  0  0  0  0  0  0
  161.5860  207.7820  152.6190 C   0  0  0  0  0  3  0  0  0  0  0  0
  161.2620  205.0540  152.0470 C   0  0  0  0  0  0  0  0  0  0  0  0
  160.6020  207.4480  154.8300 N   0  0  0  0  0  0  0  0  0  0  0  0
  160.5690  208.5070  155.8740 C   0  0  1  0  0  0  0  0  0  0  0  0
  159.7830  209.7180  155.4130 C   0  0  0  0  0  1  0  0  0  0  0  0
  159.8680  207.3490  156.1310 C   0  0  0  0  0  2  0  0  0  0  0  0
  161.9300  208.6840  156.5350 C   0  0  0  0  0  2  0  0  0  0  0  0
  163.2950  210.7030  156.4690 N   0  0  0  0  0  1  0  0  0  0  0  0
  162.1140  210.0990  157.0610 C   0  0  0  0  0  2  0  0  0  0  0  0
  162.5800  208.0910  150.3940 O   0  0  0  0  0  0  0  0  0  0  0  0
  161.3240  207.5860  148.3980 O   0  0  0  0  0  0  0  0  0  0  0  0
  162.0660  209.6710  148.8510 O   0  0  0  0  0  0  0  0  0  0  0  0
  161.9510  208.4880  149.2260 N   0  0  0  0  0  0  0  0  0  0  0  0
  161.1090  203.7010  151.7050 O   0  0  0  0  0  0  0  0  0  0  0  0
  161.0710  203.1500  150.4140 C   0  0  0  0  0  0  0  0  0  0  0  0
  161.2430  203.9130  149.2500 C   0  0  0  0  0  3  0  0  0  0  0  0
  160.7680  201.2060  149.0480 N   0  0  0  0  0  0  0  0  0  0  0  0
  160.8260  201.7800  150.2800 C   0  0  0  0  0  3  0  0  0  0  0  0
  160.9390  201.9310  147.9100 C   0  0  0  0  0  0  0  0  0  0  0  0
  161.1810  203.3070  147.9950 C   0  0  0  0  0  3  0  0  0  0  0  0
  160.8660  201.2580  146.6110 C   0  0  0  0  0  3  0  0  0  0  0  0
  160.5640  201.8900  145.5630 O   0  0  0  0  0  0  0  0  0  0  0  0
  1  7  1  0  0  0  0
  2  4  2  0  0  0  0
  2  6  1  0  0  0  0
  3  1  1  0  0  0  0
  4  5  1  0  0  0  0
  5  1  2  0  0  0  0
  6  3  2  0  0  0  0
  7  8  1  0  0  0  0
  7 10  1  0  0  0  0
  8  9  1  6  0  0  0
  8 10  1  0  0  0  0
  8 11  1  0  0  0  0
 11 13  1  0  0  0  0
 12 13  1  0  0  0  0
 14  4  1  0  0  0  0
 15 17  2  0  0  0  0
 16 17  2  0  0  0  0
 17 14  1  0  0  0  0
 18  6  1  0  0  0  0
 19 18  1  0  0  0  0
 20 19  2  0  0  0  0
 21 22  2  0  0  0  0
 22 19  1  0  0  0  0
 23 24  2  0  0  0  0
 23 21  1  0  0  0  0
 24 20  1  0  0  0  0
 25 23  1  0  0  0  0
 26 25  2  0  0  0  0
M  END
>  <MODEL>
3

>  <REMARK>
 VINA RESULT:      -7.6      2.509      7.971
  Name = 
  8 active torsions:
  status: ('A' for Active; 'I' for Inactive)
    1  A    between atoms: C_1  and  N_11
    2  A    between atoms: C_2  and  CA_16
    3  A    between atoms: C_4  and  C_17
    4  A    between atoms: C_4  and  C_18
    5  A    between atoms: O_5  and  C_19
    6  A    between atoms: O_5  and  N_21
    7  A    between atoms: C_6  and  O_22
    8  A    between atoms: O_22  and  C_26
                            x       y       z     vdW  Elec       q    Type
                         _______ _______ _______ _____ _____    ______ ____

>  <TORSDO>
F 8

$$$$
=
 OpenBabel11052411143D

 26 28  0  0  1  0  0  0  0  0999 V2000
  161.4880  205.1690  147.7520 C   0  0  0  0  0  0  0  0  0  0  0  0
  160.9520  205.8750  150.3980 C   0  0  0  0  0  3  0  0  0  0  0  0
  161.5850  206.5030  148.1530 C   0  0  0  0  0  3  0  0  0  0  0  0
  160.8460  204.5350  150.0070 C   0  0  0  0  0  0  0  0  0  0  0  0
  161.1220  204.1880  148.6760 C   0  0  0  0  0  3  0  0  0  0  0  0
  161.3230  206.8670  149.4830 C   0  0  0  0  0  0  0  0  0  0  0  0
  161.7640  204.8110  146.4030 N   0  0  0  0  0  0  0  0  0  0  0  0
  161.3740  204.6510  144.9760 C   0  0  1  0  0  0  0  0  0  0  0  0
  161.1590  205.9930  144.3040 C   0  0  0  0  0  1  0  0  0  0  0  0
  162.6630  204.3060  145.3180 C   0  0  0  0  0  2  0  0  0  0  0  0
  160.3540  203.5340  144.7960 C   0  0  0  0  0  2  0  0  0  0  0  0
  160.0540  201.1220  144.9920 N   0  0  0  0  0  1  0  0  0  0  0  0
  160.7870  202.2640  145.5110 C   0  0  0  0  0  2  0  0  0  0  0  0
  160.4860  203.5840  150.9710 O   0  0  0  0  0  0  0  0  0  0  0  0
  160.5170  201.2480  150.3760 O   0  0  0  0  0  0  0  0  0  0  0  0
  161.9500  202.1170  151.8910 O   0  0  0  0  0  0  0  0  0  0  0  0
  161.0390  202.3180  151.0640 N   0  0  0  0  0  0  0  0  0  0  0  0
  161.3960  208.1950  149.9350 O   0  0  0  0  0  0  0  0  0  0  0  0
  161.4480  208.6370  151.2670 C   0  0  0  0  0  0  0  0  0  0  0  0
  160.8530  207.9410  152.3300 C   0  0  0  0  0  3  0  0  0  0  0  0
  162.1670  210.3130  152.8200 N   0  0  0  0  0  0  0  0  0  0  0  0
  162.1030  209.8410  151.5460 C   0  0  0  0  0  3  0  0  0  0  0  0
  161.6010  209.6470  153.8610 C   0  0  0  0  0  0  0  0  0  0  0  0
  160.9290  208.4410  153.6300 C   0  0  0  0  0  3  0  0  0  0  0  0
  161.7020  210.2050  155.2120 C   0  0  0  0  0  3  0  0  0  0  0  0
  162.1250  209.5120  156.1760 O   0  0  0  0  0  0  0  0  0  0  0  0
  1  3  2  0  0  0  0
  1  5  1  0  0  0  0
  3  6  1  0  0  0  0
  4  2  1  0  0  0  0
  4 14  1  0  0  0  0
  5  4  2  0  0  0  0
  6 18  1  0  0  0  0
  6  2  2  0  0  0  0
  7  1  1  0  0  0  0
  8  9  1  6  0  0  0
  8 10  1  0  0  0  0
  8  7  1  0  0  0  0
 10  7  1  0  0  0  0
 11  8  1  0  0  0  0
 11 13  1  0  0  0  0
 12 13  1  0  0  0  0
 14 17  1  0  0  0  0
 15 17  2  0  0  0  0
 17 16  2  0  0  0  0
 18 19  1  0  0  0  0
 19 22  2  0  0  0  0
 19 20  1  0  0  0  0
 20 24  2  0  0  0  0
 21 23  2  0  0  0  0
 22 21  1  0  0  0  0
 23 25  1  0  0  0  0
 24 23  1  0  0  0  0
 25 26  2  0  0  0  0
M  END
>  <MODEL>
4

>  <REMARK>
 VINA RESULT:      -7.4      2.814      4.319
  Name = 
  8 active torsions:
  status: ('A' for Active; 'I' for Inactive)
    1  A    between atoms: C_1  and  N_11
    2  A    between atoms: C_2  and  CA_16
    3  A    between atoms: C_4  and  C_17
    4  A    between atoms: C_4  and  C_18
    5  A    between atoms: O_5  and  C_19
    6  A    between atoms: O_5  and  N_21
    7  A    between atoms: C_6  and  O_22
    8  A    between atoms: O_22  and  C_26
                            x       y       z     vdW  Elec       q    Type
                         _______ _______ _______ _____ _____    ______ ____

>  <TORSDO>
F 8

$$$$
=
 OpenBabel11052411143D

 26 28  0  0  1  0  0  0  0  0999 V2000
  161.0950  205.2430  149.9100 C   0  0  0  0  0  0  0  0  0  0  0  0
  161.0180  203.5770  152.1470 C   0  0  0  0  0  3  0  0  0  0  0  0
  161.1730  205.7900  151.1920 C   0  0  0  0  0  3  0  0  0  0  0  0
  160.9330  203.0170  150.8670 C   0  0  0  0  0  0  0  0  0  0  0  0
  160.9780  203.8610  149.7470 C   0  0  0  0  0  3  0  0  0  0  0  0
  161.1420  204.9600  152.3230 C   0  0  0  0  0  0  0  0  0  0  0  0
  161.1360  206.0950  148.7700 N   0  0  0  0  0  0  0  0  0  0  0  0
  161.8590  206.8030  147.6800 C   0  0  1  0  0  0  0  0  0  0  0  0
  162.4010  205.8310  146.6500 C   0  0  0  0  0  1  0  0  0  0  0  0
  160.4930  206.9720  147.7420 C   0  0  0  0  0  2  0  0  0  0  0  0
  162.7460  207.9140  148.2250 C   0  0  0  0  0  2  0  0  0  0  0  0
  162.3300  209.1760  150.2690 N   0  0  0  0  0  1  0  0  0  0  0  0
  161.9240  209.0100  148.8840 C   0  0  0  0  0  2  0  0  0  0  0  0
  160.8280  201.6240  150.7530 O   0  0  0  0  0  0  0  0  0  0  0  0
  161.2420  200.4460  148.6900 O   0  0  0  0  0  0  0  0  0  0  0  0
  159.1510  200.9520  149.3820 O   0  0  0  0  0  0  0  0  0  0  0  0
  160.3750  200.9640  149.6230 N   0  0  0  0  0  0  0  0  0  0  0  0
  161.2060  205.4600  153.6340 O   0  0  0  0  0  0  0  0  0  0  0  0
  160.9210  206.7680  154.0590 C   0  0  0  0  0  0  0  0  0  0  0  0
  161.1330  207.8980  153.2560 C   0  0  0  0  0  3  0  0  0  0  0  0
  160.1480  208.2060  155.8110 N   0  0  0  0  0  0  0  0  0  0  0  0
  160.4250  206.9560  155.3530 C   0  0  0  0  0  3  0  0  0  0  0  0
  160.3420  209.3110  155.0430 C   0  0  0  0  0  0  0  0  0  0  0  0
  160.8420  209.1730  153.7440 C   0  0  0  0  0  3  0  0  0  0  0  0
  160.0240  210.6330  155.5900 C   0  0  0  0  0  3  0  0  0  0  0  0
  159.0730  211.3190  155.1310 O   0  0  0  0  0  0  0  0  0  0  0  0
  1  3  1  0  0  0  0
  2  6  1  0  0  0  0
  3  6  2  0  0  0  0
  4  2  2  0  0  0  0
  5  1  2  0  0  0  0
  5  4  1  0  0  0  0
  6 18  1  0  0  0  0
  7  1  1  0  0  0  0
  8  9  1  6  0  0  0
  8 10  1  0  0  0  0
  8 11  1  0  0  0  0
  8  7  1  0  0  0  0
 10  7  1  0  0  0  0
 11 13  1  0  0  0  0
 13 12  1  0  0  0  0
 14  4  1  0  0  0  0
 15 17  2  0  0  0  0
 16 17  2  0  0  0  0
 17 14  1  0  0  0  0
 18 19  1  0  0  0  0
 19 22  1  0  0  0  0
 20 24  1  0  0  0  0
 20 19  2  0  0  0  0
 22 21  2  0  0  0  0
 23 25  1  0  0  0  0
 23 21  1  0  0  0  0
 24 23  2  0  0  0  0
 26 25  2  0  0  0  0
M  END
>  <MODEL>
5

>  <REMARK>
 VINA RESULT:      -7.2      3.226      5.243
  Name = 
  8 active torsions:
  status: ('A' for Active; 'I' for Inactive)
    1  A    between atoms: C_1  and  N_11
    2  A    between atoms: C_2  and  CA_16
    3  A    between atoms: C_4  and  C_17
    4  A    between atoms: C_4  and  C_18
    5  A    between atoms: O_5  and  C_19
    6  A    between atoms: O_5  and  N_21
    7  A    between atoms: C_6  and  O_22
    8  A    between atoms: O_22  and  C_26
                            x       y       z     vdW  Elec       q    Type
                         _______ _______ _______ _____ _____    ______ ____

>  <TORSDO>
F 8

$$$$
=
 OpenBabel11052411143D

 26 28  0  0  1  0  0  0  0  0999 V2000
  160.9880  205.1480  150.0550 C   0  0  0  0  0  0  0  0  0  0  0  0
  161.4250  207.5370  148.6830 C   0  0  0  0  0  3  0  0  0  0  0  0
  161.4220  206.2810  150.7450 C   0  0  0  0  0  3  0  0  0  0  0  0
  160.9960  206.4060  147.9780 C   0  0  0  0  0  0  0  0  0  0  0  0
  160.7730  205.2100  148.6760 C   0  0  0  0  0  3  0  0  0  0  0  0
  161.6390  207.4890  150.0650 C   0  0  0  0  0  0  0  0  0  0  0  0
  160.7640  203.9300  150.7570 N   0  0  0  0  0  0  0  0  0  0  0  0
  160.9390  202.4650  150.9430 C   0  0  1  0  0  0  0  0  0  0  0  0
  162.3650  202.1180  151.3210 C   0  0  0  0  0  1  0  0  0  0  0  0
  160.1730  203.1290  151.8760 C   0  0  0  0  0  2  0  0  0  0  0  0
  160.2210  201.6730  149.8580 C   0  0  0  0  0  2  0  0  0  0  0  0
  160.7990  201.7450  147.4900 N   0  0  0  0  0  1  0  0  0  0  0  0
  161.1860  201.2020  148.7810 C   0  0  0  0  0  2  0  0  0  0  0  0
  160.7830  206.5200  146.5980 O   0  0  0  0  0  0  0  0  0  0  0  0
  160.6780  204.7720  144.9400 O   0  0  0  0  0  0  0  0  0  0  0  0
  162.6260  205.7640  145.5140 O   0  0  0  0  0  0  0  0  0  0  0  0
  161.3860  205.7170  145.6450 N   0  0  0  0  0  0  0  0  0  0  0  0
  162.0860  208.6540  150.7100 O   0  0  0  0  0  0  0  0  0  0  0  0
  161.5180  209.2720  151.8370 C   0  0  0  0  0  0  0  0  0  0  0  0
  161.2370  208.5860  153.0270 C   0  0  0  0  0  3  0  0  0  0  0  0
  160.6320  211.2660  152.8230 N   0  0  0  0  0  0  0  0  0  0  0  0
  161.1950  210.6300  151.7600 C   0  0  0  0  0  3  0  0  0  0  0  0
  160.3600  210.6170  153.9860 C   0  0  0  0  0  0  0  0  0  0  0  0
  160.6600  209.2560  154.1060 C   0  0  0  0  0  3  0  0  0  0  0  0
  159.7530  211.3550  155.0970 C   0  0  0  0  0  3  0  0  0  0  0  0
  160.3130  212.3690  155.5920 O   0  0  0  0  0  0  0  0  0  0  0  0
  1  3  1  0  0  0  0
  1  7  1  0  0  0  0
  2  6  1  0  0  0  0
  4  5  1  0  0  0  0
  4  2  2  0  0  0  0
  5  1  2  0  0  0  0
  6 18  1  0  0  0  0
  6  3  2  0  0  0  0
  7  8  1  0  0  0  0
  7 10  1  0  0  0  0
  8  9  1  1  0  0  0
  8 10  1  0  0  0  0
 11  8  1  0  0  0  0
 12 13  1  0  0  0  0
 13 11  1  0  0  0  0
 14  4  1  0  0  0  0
 15 17  2  0  0  0  0
 16 17  2  0  0  0  0
 17 14  1  0  0  0  0
 18 19  1  0  0  0  0
 19 20  1  0  0  0  0
 20 24  2  0  0  0  0
 21 23  2  0  0  0  0
 22 19  2  0  0  0  0
 22 21  1  0  0  0  0
 23 24  1  0  0  0  0
 23 25  1  0  0  0  0
 25 26  2  0  0  0  0
M  END
>  <MODEL>
6

>  <REMARK>
 VINA RESULT:      -6.9      1.965      2.361
  Name = 
  8 active torsions:
  status: ('A' for Active; 'I' for Inactive)
    1  A    between atoms: C_1  and  N_11
    2  A    between atoms: C_2  and  CA_16
    3  A    between atoms: C_4  and  C_17
    4  A    between atoms: C_4  and  C_18
    5  A    between atoms: O_5  and  C_19
    6  A    between atoms: O_5  and  N_21
    7  A    between atoms: C_6  and  O_22
    8  A    between atoms: O_22  and  C_26
                            x       y       z     vdW  Elec       q    Type
                         _______ _______ _______ _____ _____    ______ ____

>  <TORSDO>
F 8

$$$$
=
 OpenBabel11052411143D

 26 28  0  0  1  0  0  0  0  0999 V2000
  161.7720  207.0960  148.3400 C   0  0  0  0  0  0  0  0  0  0  0  0
  161.5070  208.6260  150.6580 C   0  0  0  0  0  3  0  0  0  0  0  0
  162.0840  208.4560  148.3190 C   0  0  0  0  0  3  0  0  0  0  0  0
  161.1840  207.2640  150.6900 C   0  0  0  0  0  0  0  0  0  0  0  0
  161.3250  206.5010  149.5220 C   0  0  0  0  0  3  0  0  0  0  0  0
  161.9600  209.2330  149.4810 C   0  0  0  0  0  0  0  0  0  0  0  0
  161.9090  206.3170  147.1570 N   0  0  0  0  0  0  0  0  0  0  0  0
  161.3990  205.3450  146.1520 C   0  0  1  0  0  0  0  0  0  0  0  0
  160.2810  205.9410  145.3200 C   0  0  0  0  0  1  0  0  0  0  0  0
  162.6710  205.8380  145.9610 C   0  0  0  0  0  2  0  0  0  0  0  0
  161.2500  203.9510  146.7470 C   0  0  0  0  0  2  0  0  0  0  0  0
  160.6740  201.6550  146.1650 N   0  0  0  0  0  1  0  0  0  0  0  0
  161.2780  202.8790  145.6690 C   0  0  0  0  0  2  0  0  0  0  0  0
  160.7510  206.7090  151.9020 O   0  0  0  0  0  0  0  0  0  0  0  0
  161.1500  204.3800  152.3820 O   0  0  0  0  0  0  0  0  0  0  0  0
  162.2020  206.0320  153.5090 O   0  0  0  0  0  0  0  0  0  0  0  0
  161.4230  205.7120  152.5890 N   0  0  0  0  0  0  0  0  0  0  0  0
  162.2510  210.6070  149.5110 O   0  0  0  0  0  0  0  0  0  0  0  0
  162.1370  211.5230  148.4530 C   0  0  0  0  0  0  0  0  0  0  0  0
  163.2250  212.2490  147.9470 C   0  0  0  0  0  3  0  0  0  0  0  0
  160.7160  212.6280  146.8730 N   0  0  0  0  0  0  0  0  0  0  0  0
  160.8740  211.7410  147.8920 C   0  0  0  0  0  3  0  0  0  0  0  0
  161.7610  213.3340  146.3670 C   0  0  0  0  0  0  0  0  0  0  0  0
  163.0420  213.1540  146.9010 C   0  0  0  0  0  3  0  0  0  0  0  0
  161.5300  214.2760  145.2690 C   0  0  0  0  0  3  0  0  0  0  0  0
  160.8110  213.9660  144.2820 O   0  0  0  0  0  0  0  0  0  0  0  0
  1  5  1  0  0  0  0
  2  4  1  0  0  0  0
  3  1  2  0  0  0  0
  3  6  1  0  0  0  0
  4 14  1  0  0  0  0
  5  4  2  0  0  0  0
  6 18  1  0  0  0  0
  6  2  2  0  0  0  0
  7  1  1  0  0  0  0
  8  9  1  6  0  0  0
  8 11  1  0  0  0  0
  8  7  1  0  0  0  0
 10  8  1  0  0  0  0
 10  7  1  0  0  0  0
 13 12  1  0  0  0  0
 13 11  1  0  0  0  0
 14 17  1  0  0  0  0
 15 17  2  0  0  0  0
 17 16  2  0  0  0  0
 19 18  1  0  0  0  0
 20 19  1  0  0  0  0
 21 22  1  0  0  0  0
 22 19  2  0  0  0  0
 23 21  2  0  0  0  0
 23 24  1  0  0  0  0
 24 20  2  0  0  0  0
 25 23  1  0  0  0  0
 26 25  2  0  0  0  0
M  END
>  <MODEL>
7

>  <REMARK>
 VINA RESULT:      -6.9      4.148      6.848
  Name = 
  8 active torsions:
  status: ('A' for Active; 'I' for Inactive)
    1  A    between atoms: C_1  and  N_11
    2  A    between atoms: C_2  and  CA_16
    3  A    between atoms: C_4  and  C_17
    4  A    between atoms: C_4  and  C_18
    5  A    between atoms: O_5  and  C_19
    6  A    between atoms: O_5  and  N_21
    7  A    between atoms: C_6  and  O_22
    8  A    between atoms: O_22  and  C_26
                            x       y       z     vdW  Elec       q    Type
                         _______ _______ _______ _____ _____    ______ ____

>  <TORSDO>
F 8

$$$$
=
 OpenBabel11052411143D

 26 28  0  0  1  0  0  0  0  0999 V2000
  160.9360  208.4600  153.8630 C   0  0  0  0  0  0  0  0  0  0  0  0
  161.7900  206.9480  151.6800 C   0  0  0  0  0  3  0  0  0  0  0  0
  160.8260  207.0690  153.8910 C   0  0  0  0  0  3  0  0  0  0  0  0
  161.8990  208.3430  151.6380 C   0  0  0  0  0  0  0  0  0  0  0  0
  161.4730  209.0960  152.7420 C   0  0  0  0  0  3  0  0  0  0  0  0
  161.2590  206.2990  152.8000 C   0  0  0  0  0  0  0  0  0  0  0  0
  160.5000  209.2290  154.9790 N   0  0  0  0  0  0  0  0  0  0  0  0
  159.7980  210.3920  155.5840 C   0  0  1  0  0  0  0  0  0  0  0  0
  158.2970  210.2940  155.3960 C   0  0  0  0  0  1  0  0  0  0  0  0
  160.3930  209.4990  156.4470 C   0  0  0  0  0  2  0  0  0  0  0  0
  160.5220  211.6990  155.2900 C   0  0  0  0  0  2  0  0  0  0  0  0
  160.0500  212.2670  152.9670 N   0  0  0  0  0  1  0  0  0  0  0  0
  159.7200  212.5810  154.3460 C   0  0  0  0  0  2  0  0  0  0  0  0
  162.4550  208.9350  150.4950 O   0  0  0  0  0  0  0  0  0  0  0  0
  161.3050  207.7770  148.7200 O   0  0  0  0  0  0  0  0  0  0  0  0
  161.9670  209.9290  148.5160 O   0  0  0  0  0  0  0  0  0  0  0  0
  161.8680  208.9190  149.2410 N   0  0  0  0  0  0  0  0  0  0  0  0
  161.1610  204.8980  152.7720 O   0  0  0  0  0  0  0  0  0  0  0  0
  161.0890  204.0730  151.6370 C   0  0  0  0  0  0  0  0  0  0  0  0
  161.2760  202.6840  151.6870 C   0  0  0  0  0  3  0  0  0  0  0  0
  160.7780  203.9080  149.2690 N   0  0  0  0  0  0  0  0  0  0  0  0
  160.8430  204.6670  150.3960 C   0  0  0  0  0  3  0  0  0  0  0  0
  160.9500  202.5600  149.3010 C   0  0  0  0  0  0  0  0  0  0  0  0
  161.2050  201.9230  150.5200 C   0  0  0  0  0  3  0  0  0  0  0  0
  160.8680  201.7950  148.0540 C   0  0  0  0  0  3  0  0  0  0  0  0
  161.2070  200.5820  148.0070 O   0  0  0  0  0  0  0  0  0  0  0  0
  1  3  1  0  0  0  0
  1  7  1  0  0  0  0
  2  6  1  0  0  0  0
  4  2  2  0  0  0  0
  4  5  1  0  0  0  0
  5  1  2  0  0  0  0
  6  3  2  0  0  0  0
  7  8  1  0  0  0  0
  7 10  1  0  0  0  0
  8  9  1  6  0  0  0
  8 10  1  0  0  0  0
 11  8  1  0  0  0  0
 12 13  1  0  0  0  0
 13 11  1  0  0  0  0
 14  4  1  0  0  0  0
 15 17  2  0  0  0  0
 16 17  2  0  0  0  0
 17 14  1  0  0  0  0
 18  6  1  0  0  0  0
 19 20  1  0  0  0  0
 19 18  1  0  0  0  0
 21 23  2  0  0  0  0
 21 22  1  0  0  0  0
 22 19  2  0  0  0  0
 23 24  1  0  0  0  0
 24 20  2  0  0  0  0
 25 23  1  0  0  0  0
 26 25  2  0  0  0  0
M  END
>  <MODEL>
8

>  <REMARK>
 VINA RESULT:      -6.9      2.778      7.996
  Name = 
  8 active torsions:
  status: ('A' for Active; 'I' for Inactive)
    1  A    between atoms: C_1  and  N_11
    2  A    between atoms: C_2  and  CA_16
    3  A    between atoms: C_4  and  C_17
    4  A    between atoms: C_4  and  C_18
    5  A    between atoms: O_5  and  C_19
    6  A    between atoms: O_5  and  N_21
    7  A    between atoms: C_6  and  O_22
    8  A    between atoms: O_22  and  C_26
                            x       y       z     vdW  Elec       q    Type
                         _______ _______ _______ _____ _____    ______ ____

>  <TORSDO>
F 8

$$$$
=
 OpenBabel11052411143D

 26 28  0  0  1  0  0  0  0  0999 V2000
  161.1180  208.2850  152.5080 C   0  0  0  0  0  0  0  0  0  0  0  0
  161.8370  206.1630  150.8460 C   0  0  0  0  0  3  0  0  0  0  0  0
  161.4970  208.5300  151.1870 C   0  0  0  0  0  3  0  0  0  0  0  0
  161.4650  205.9060  152.1700 C   0  0  0  0  0  0  0  0  0  0  0  0
  161.0990  206.9770  152.9980 C   0  0  0  0  0  3  0  0  0  0  0  0
  161.8550  207.4690  150.3410 C   0  0  0  0  0  0  0  0  0  0  0  0
  160.7500  209.3690  153.3540 N   0  0  0  0  0  0  0  0  0  0  0  0
  160.6840  210.0440  154.6780 C   0  0  1  0  0  0  0  0  0  0  0  0
  162.0580  210.4850  155.1460 C   0  0  0  0  0  1  0  0  0  0  0  0
  160.1300  210.7080  153.6060 C   0  0  0  0  0  2  0  0  0  0  0  0
  159.7490  209.3150  155.6330 C   0  0  0  0  0  2  0  0  0  0  0  0
  159.9300  207.0320  156.4710 N   0  0  0  0  0  1  0  0  0  0  0  0
  160.5100  208.3620  156.5410 C   0  0  0  0  0  2  0  0  0  0  0  0
  161.4500  204.5760  152.6130 O   0  0  0  0  0  0  0  0  0  0  0  0
  160.0890  203.5310  150.9190 O   0  0  0  0  0  0  0  0  0  0  0  0
  161.7200  202.4080  152.0080 O   0  0  0  0  0  0  0  0  0  0  0  0
  161.1310  203.4900  151.8160 N   0  0  0  0  0  0  0  0  0  0  0  0
  162.2540  207.6610  149.0080 O   0  0  0  0  0  0  0  0  0  0  0  0
  161.9820  206.8280  147.9110 C   0  0  0  0  0  0  0  0  0  0  0  0
  162.8910  205.8730  147.4300 C   0  0  0  0  0  3  0  0  0  0  0  0
  160.4590  206.1940  146.1750 N   0  0  0  0  0  0  0  0  0  0  0  0
  160.7590  206.9720  147.2510 C   0  0  0  0  0  3  0  0  0  0  0  0
  161.3260  205.2600  145.7020 C   0  0  0  0  0  0  0  0  0  0  0  0
  162.5660  205.0850  146.3270 C   0  0  0  0  0  3  0  0  0  0  0  0
  160.9480  204.4510  144.5400 C   0  0  0  0  0  3  0  0  0  0  0  0
  160.4020  203.3240  144.6770 O   0  0  0  0  0  0  0  0  0  0  0  0
  1  5  1  0  0  0  0
  1  7  1  0  0  0  0
  2  4  1  0  0  0  0
  3  1  2  0  0  0  0
  4 14  1  0  0  0  0
  4  5  2  0  0  0  0
  6  2  2  0  0  0  0
  6  3  1  0  0  0  0
  7 10  1  0  0  0  0
  7  8  1  0  0  0  0
  8  9  1  1  0  0  0
  8 11  1  0  0  0  0
 10  8  1  0  0  0  0
 11 13  1  0  0  0  0
 12 13  1  0  0  0  0
 15 17  2  0  0  0  0
 17 16  2  0  0  0  0
 17 14  1  0  0  0  0
 18  6  1  0  0  0  0
 19 18  1  0  0  0  0
 20 19  1  0  0  0  0
 21 22  1  0  0  0  0
 22 19  2  0  0  0  0
 23 21  2  0  0  0  0
 23 24  1  0  0  0  0
 24 20  2  0  0  0  0
 25 26  2  0  0  0  0
 25 23  1  0  0  0  0
M  END
>  <MODEL>
9

>  <REMARK>
 VINA RESULT:      -6.8      3.109      8.086
  Name = 
  8 active torsions:
  status: ('A' for Active; 'I' for Inactive)
    1  A    between atoms: C_1  and  N_11
    2  A    between atoms: C_2  and  CA_16
    3  A    between atoms: C_4  and  C_17
    4  A    between atoms: C_4  and  C_18
    5  A    between atoms: O_5  and  C_19
    6  A    between atoms: O_5  and  N_21
    7  A    between atoms: C_6  and  O_22
    8  A    between atoms: O_22  and  C_26
                            x       y       z     vdW  Elec       q    Type
                         _______ _______ _______ _____ _____    ______ ____

>  <TORSDO>
F 8

$$$$
