=
 OpenBabel11042420103D

 30 33  0  0  1  0  0  0  0  0999 V2000
  161.7360  206.5370  149.8630 C   0  0  0  0  0  2  0  0  0  0  0  0
  161.1410  208.6550  150.9670 N   0  0  0  0  0  0  0  0  0  0  0  0
  161.5240  207.3600  151.0970 C   0  0  0  0  0  0  0  0  0  0  0  0
  162.0740  205.3970  152.5920 C   0  0  0  0  0  2  0  0  0  0  0  0
  161.5140  207.6310  153.4620 N   0  0  0  0  0  0  0  0  0  0  0  0
  160.9990  204.5340  152.1190 N   0  0  0  0  0  2  0  0  0  0  0  0
  161.1560  208.9390  153.3420 C   0  0  0  0  0  0  0  0  0  0  0  0
  161.2530  204.2210  150.7150 C   0  0  2  0  0  3  0  0  0  0  0  0
  160.9400  209.4650  152.0420 C   0  0  0  0  0  0  0  0  0  0  0  0
  161.7050  206.8300  152.3830 C   0  0  0  0  0  0  0  0  0  0  0  0
  160.7780  205.3540  149.8060 C   0  0  0  0  0  2  0  0  0  0  0  0
  160.4280  210.8330  151.7980 C   0  0  0  0  0  0  0  0  0  0  0  0
  158.9080  212.6190  152.4040 C   0  0  0  0  0  3  0  0  0  0  0  0
  160.3230  212.9020  150.5200 C   0  0  0  0  0  0  0  0  0  0  0  0
  161.8750  211.1760  149.8370 C   0  0  0  0  0  3  0  0  0  0  0  0
  159.3620  213.3630  151.3620 N   0  0  0  0  0  0  0  0  0  0  0  0
  161.7150  213.2530  148.6280 C   0  0  0  0  0  3  0  0  0  0  0  0
  159.4280  211.3450  152.6360 C   0  0  0  0  0  3  0  0  0  0  0  0
  160.7510  213.6780  149.4890 N   0  0  0  0  0  0  0  0  0  0  0  0
  160.8780  211.6160  150.7170 C   0  0  0  0  0  0  0  0  0  0  0  0
  162.2950  211.9940  148.7880 C   0  0  0  0  0  3  0  0  0  0  0  0
  161.0450  209.7360  154.5850 C   0  0  0  0  0  0  0  0  0  0  0  0
  159.9750  209.5720  155.3810 C   0  0  0  0  0  3  0  0  0  0  0  0
  162.0560  210.7270  154.8320 N   0  0  0  0  0  2  0  0  0  0  0  0
  162.9150  210.6240  155.7310 O   0  0  0  0  0  1  0  0  0  0  0  0
  159.6800  210.3500  156.6200 C   0  0  0  0  0  2  0  0  0  0  0  0
  157.7890  211.2040  155.8720 C   0  0  0  0  0  1  0  0  0  0  0  0
  159.0710  211.5600  156.2860 O   0  0  0  0  0  0  0  0  0  0  0  0
  160.5620  202.9180  150.3420 C   0  0  0  0  0  2  0  0  0  0  0  0
  160.7420  202.6300  148.9870 O   0  0  0  0  0  1  0  0  0  0  0  0
  1  3  1  0  0  0  0
  2  3  2  0  0  0  0
  2  9  1  0  0  0  0
  3 10  1  0  0  0  0
  6  4  1  0  0  0  0
  7  5  1  0  0  0  0
  7 22  1  0  0  0  0
  8 29  1  6  0  0  0
  8  6  1  0  0  0  0
  9  7  2  0  0  0  0
 10  4  1  0  0  0  0
 10  5  2  0  0  0  0
 11  1  1  0  0  0  0
 11  8  1  0  0  0  0
 12  9  1  0  0  0  0
 12 18  1  0  0  0  0
 13 18  2  0  0  0  0
 14 20  1  0  0  0  0
 14 16  2  0  0  0  0
 15 20  1  0  0  0  0
 16 13  1  0  0  0  0
 17 21  1  0  0  0  0
 17 19  2  0  0  0  0
 19 14  1  0  0  0  0
 20 12  2  0  0  0  0
 21 15  2  0  0  0  0
 22 24  1  0  0  0  0
 22 23  2  0  0  0  0
 23 26  1  0  0  0  0
 24 25  1  0  0  0  0
 27 28  1  0  0  0  0
 28 26  1  0  0  0  0
 30 29  1  0  0  0  0
M  END
>  <MODEL>
1

>  <REMARK>
 VINA RESULT:      -6.0      0.000      0.000
  Name = 
  6 active torsions:
  status: ('A' for Active; 'I' for Inactive)
    1  A    between atoms: C_1  and  C_23
    2  A    between atoms: C_2  and  N_13
    3  A    between atoms: C_2  and  C_19
    4  A    between atoms: O_9  and  C_27
    5  A    between atoms: C_12  and  C_27
    6  A    between atoms: C_14  and  CA_21
                            x       y       z     vdW  Elec       q    Type
                         _______ _______ _______ _____ _____    ______ ____

>  <TORSDO>
F 6

$$$$
=
 OpenBabel11042420103D

 30 33  0  0  1  0  0  0  0  0999 V2000
  161.5540  206.4150  149.8020 C   0  0  0  0  0  2  0  0  0  0  0  0
  160.9530  208.3110  151.2530 N   0  0  0  0  0  0  0  0  0  0  0  0
  161.3510  207.0170  151.1590 C   0  0  0  0  0  0  0  0  0  0  0  0
  161.9450  204.8380  152.2960 C   0  0  0  0  0  2  0  0  0  0  0  0
  161.3730  206.8870  153.5350 N   0  0  0  0  0  0  0  0  0  0  0  0
  160.8730  204.0530  151.6980 N   0  0  0  0  0  2  0  0  0  0  0  0
  161.0000  208.1910  153.6420 C   0  0  0  0  0  0  0  0  0  0  0  0
  161.1090  203.9830  150.2590 C   0  0  2  0  0  3  0  0  0  0  0  0
  160.7590  208.9250  152.4520 C   0  0  0  0  0  0  0  0  0  0  0  0
  161.5570  206.2810  152.3350 C   0  0  0  0  0  0  0  0  0  0  0  0
  160.6080  205.2460  149.5590 C   0  0  0  0  0  2  0  0  0  0  0  0
  160.2290  210.3080  152.4480 C   0  0  0  0  0  0  0  0  0  0  0  0
  158.7900  211.9830  153.4450 C   0  0  0  0  0  3  0  0  0  0  0  0
  159.9940  212.5260  151.4730 C   0  0  0  0  0  0  0  0  0  0  0  0
  161.4560  210.9220  150.4040 C   0  0  0  0  0  3  0  0  0  0  0  0
  159.1310  212.8630  152.4680 N   0  0  0  0  0  0  0  0  0  0  0  0
  161.1730  213.1390  149.5050 C   0  0  0  0  0  3  0  0  0  0  0  0
  159.3280  210.6950  153.4490 C   0  0  0  0  0  3  0  0  0  0  0  0
  160.3100  213.4360  150.5140 N   0  0  0  0  0  0  0  0  0  0  0  0
  160.5610  211.2320  151.4370 C   0  0  0  0  0  0  0  0  0  0  0  0
  161.7620  211.8750  149.4330 C   0  0  0  0  0  3  0  0  0  0  0  0
  160.8980  208.7670  155.0030 C   0  0  0  0  0  0  0  0  0  0  0  0
  161.8570  209.6010  155.4400 C   0  0  0  0  0  3  0  0  0  0  0  0
  159.8110  208.3250  155.8320 N   0  0  0  0  0  2  0  0  0  0  0  0
  159.8470  207.2810  156.5140 O   0  0  0  0  0  1  0  0  0  0  0  0
  161.9380  210.1990  156.8050 C   0  0  0  0  0  2  0  0  0  0  0  0
  160.4000  211.7460  157.1350 C   0  0  0  0  0  1  0  0  0  0  0  0
  161.7230  211.5760  156.7310 O   0  0  0  0  0  0  0  0  0  0  0  0
  160.4270  202.7520  149.6810 C   0  0  0  0  0  2  0  0  0  0  0  0
  160.8740  202.5000  148.3810 O   0  0  0  0  0  1  0  0  0  0  0  0
  1  3  1  0  0  0  0
  2  9  1  0  0  0  0
  3  2  2  0  0  0  0
  3 10  1  0  0  0  0
  4 10  1  0  0  0  0
  5  7  1  0  0  0  0
  6  4  1  0  0  0  0
  7 22  1  0  0  0  0
  8 29  1  6  0  0  0
  8  6  1  0  0  0  0
  9  7  2  0  0  0  0
 10  5  2  0  0  0  0
 11  1  1  0  0  0  0
 11  8  1  0  0  0  0
 12  9  1  0  0  0  0
 12 18  1  0  0  0  0
 13 18  2  0  0  0  0
 14 16  2  0  0  0  0
 15 20  1  0  0  0  0
 16 13  1  0  0  0  0
 17 19  2  0  0  0  0
 19 14  1  0  0  0  0
 20 14  1  0  0  0  0
 20 12  2  0  0  0  0
 21 17  1  0  0  0  0
 21 15  2  0  0  0  0
 22 23  2  0  0  0  0
 22 24  1  0  0  0  0
 23 26  1  0  0  0  0
 24 25  1  0  0  0  0
 28 26  1  0  0  0  0
 28 27  1  0  0  0  0
 30 29  1  0  0  0  0
M  END
>  <MODEL>
2

>  <REMARK>
 VINA RESULT:      -6.0      1.369      1.569
  Name = 
  6 active torsions:
  status: ('A' for Active; 'I' for Inactive)
    1  A    between atoms: C_1  and  C_23
    2  A    between atoms: C_2  and  N_13
    3  A    between atoms: C_2  and  C_19
    4  A    between atoms: O_9  and  C_27
    5  A    between atoms: C_12  and  C_27
    6  A    between atoms: C_14  and  CA_21
                            x       y       z     vdW  Elec       q    Type
                         _______ _______ _______ _____ _____    ______ ____

>  <TORSDO>
F 6

$$$$
=
 OpenBabel11042420103D

 30 33  0  0  1  0  0  0  0  0999 V2000
  161.3680  207.4820  150.5990 C   0  0  0  0  0  2  0  0  0  0  0  0
  160.5110  209.4210  151.8520 N   0  0  0  0  0  0  0  0  0  0  0  0
  161.0910  208.1940  151.8880 C   0  0  0  0  0  0  0  0  0  0  0  0
  161.9990  206.2600  153.2380 C   0  0  0  0  0  2  0  0  0  0  0  0
  161.1480  208.3300  154.2640 N   0  0  0  0  0  0  0  0  0  0  0  0
  161.0470  205.2700  152.7530 N   0  0  0  0  0  2  0  0  0  0  0  0
  160.5920  209.5720  154.2380 C   0  0  0  0  0  0  0  0  0  0  0  0
  161.2800  205.0770  151.3250 C   0  0  2  0  0  3  0  0  0  0  0  0
  160.2400  210.1290  152.9820 C   0  0  0  0  0  0  0  0  0  0  0  0
  161.4080  207.6280  153.1310 C   0  0  0  0  0  0  0  0  0  0  0  0
  160.5980  206.1710  150.5050 C   0  0  0  0  0  2  0  0  0  0  0  0
  159.5160  211.4130  152.8410 C   0  0  0  0  0  0  0  0  0  0  0  0
  159.4460  213.6720  151.9690 C   0  0  0  0  0  3  0  0  0  0  0  0
  157.6640  212.9130  153.3390 C   0  0  0  0  0  0  0  0  0  0  0  0
  157.6420  210.6740  154.2560 C   0  0  0  0  0  3  0  0  0  0  0  0
  158.2560  213.8790  152.5900 N   0  0  0  0  0  0  0  0  0  0  0  0
  155.8450  212.2160  154.6970 C   0  0  0  0  0  3  0  0  0  0  0  0
  160.0950  212.4420  152.0870 C   0  0  0  0  0  3  0  0  0  0  0  0
  156.4720  213.1590  153.9440 N   0  0  0  0  0  0  0  0  0  0  0  0
  158.2860  211.6520  153.4870 C   0  0  0  0  0  0  0  0  0  0  0  0
  156.4200  210.9550  154.8660 C   0  0  0  0  0  3  0  0  0  0  0  0
  160.4190  210.2730  155.5310 C   0  0  0  0  0  0  0  0  0  0  0  0
  160.9880  211.4770  155.7110 C   0  0  0  0  0  3  0  0  0  0  0  0
  159.7180  209.5770  156.5750 N   0  0  0  0  0  2  0  0  0  0  0  0
  160.2310  208.6680  157.2600 O   0  0  0  0  0  1  0  0  0  0  0  0
  160.9700  212.2720  156.9740 C   0  0  0  0  0  2  0  0  0  0  0  0
  159.7350  213.9380  156.2210 C   0  0  0  0  0  1  0  0  0  0  0  0
  159.7250  212.8820  157.1310 O   0  0  0  0  0  0  0  0  0  0  0  0
  160.7780  203.7050  150.8980 C   0  0  0  0  0  2  0  0  0  0  0  0
  161.3310  202.7020  151.6980 O   0  0  0  0  0  1  0  0  0  0  0  0
  1  3  1  0  0  0  0
  2  3  2  0  0  0  0
  2  9  1  0  0  0  0
  3 10  1  0  0  0  0
  6  4  1  0  0  0  0
  7  5  1  0  0  0  0
  7 22  1  0  0  0  0
  8 29  1  6  0  0  0
  8  6  1  0  0  0  0
  9  7  2  0  0  0  0
 10  4  1  0  0  0  0
 10  5  2  0  0  0  0
 11  1  1  0  0  0  0
 11  8  1  0  0  0  0
 12  9  1  0  0  0  0
 12 20  2  0  0  0  0
 13 18  2  0  0  0  0
 13 16  1  0  0  0  0
 14 20  1  0  0  0  0
 14 19  1  0  0  0  0
 15 21  2  0  0  0  0
 16 14  2  0  0  0  0
 17 21  1  0  0  0  0
 18 12  1  0  0  0  0
 19 17  2  0  0  0  0
 20 15  1  0  0  0  0
 22 23  2  0  0  0  0
 22 24  1  0  0  0  0
 23 26  1  0  0  0  0
 24 25  1  0  0  0  0
 26 28  1  0  0  0  0
 27 28  1  0  0  0  0
 29 30  1  0  0  0  0
M  END
>  <MODEL>
3

>  <REMARK>
 VINA RESULT:      -5.8      1.999      3.328
  Name = 
  6 active torsions:
  status: ('A' for Active; 'I' for Inactive)
    1  A    between atoms: C_1  and  C_23
    2  A    between atoms: C_2  and  N_13
    3  A    between atoms: C_2  and  C_19
    4  A    between atoms: O_9  and  C_27
    5  A    between atoms: C_12  and  C_27
    6  A    between atoms: C_14  and  CA_21
                            x       y       z     vdW  Elec       q    Type
                         _______ _______ _______ _____ _____    ______ ____

>  <TORSDO>
F 6

$$$$
=
 OpenBabel11042420103D

 30 33  0  0  1  0  0  0  0  0999 V2000
  161.5810  210.8290  150.1160 C   0  0  0  0  0  2  0  0  0  0  0  0
  161.4080  210.7110  152.5690 N   0  0  0  0  0  0  0  0  0  0  0  0
  160.9770  211.2750  151.4120 C   0  0  0  0  0  0  0  0  0  0  0  0
  159.5030  212.9570  150.2320 C   0  0  0  0  0  2  0  0  0  0  0  0
  159.4600  212.6110  152.6700 N   0  0  0  0  0  0  0  0  0  0  0  0
  160.5890  213.7340  149.6490 N   0  0  0  0  0  2  0  0  0  0  0  0
  159.8660  212.0330  153.8330 C   0  0  0  0  0  0  0  0  0  0  0  0
  161.2950  212.8830  148.6950 C   0  0  2  0  0  3  0  0  0  0  0  0
  160.8970  211.0600  153.7810 C   0  0  0  0  0  0  0  0  0  0  0  0
  159.9820  212.2620  151.4660 C   0  0  0  0  0  0  0  0  0  0  0  0
  162.2950  211.9730  149.4060 C   0  0  0  0  0  2  0  0  0  0  0  0
  161.5030  210.4590  154.9910 C   0  0  0  0  0  0  0  0  0  0  0  0
  163.2370  210.4970  156.6820 C   0  0  0  0  0  3  0  0  0  0  0  0
  161.6590  208.7250  156.6930 C   0  0  0  0  0  0  0  0  0  0  0  0
  159.8900  208.6000  155.0470 C   0  0  0  0  0  3  0  0  0  0  0  0
  162.7440  209.3510  157.2200 N   0  0  0  0  0  0  0  0  0  0  0  0
  160.1090  206.9270  156.7660 C   0  0  0  0  0  3  0  0  0  0  0  0
  162.6300  211.0660  155.5610 C   0  0  0  0  0  3  0  0  0  0  0  0
  161.1950  207.5800  157.2610 N   0  0  0  0  0  0  0  0  0  0  0  0
  161.0130  209.2650  155.5570 C   0  0  0  0  0  0  0  0  0  0  0  0
  159.4370  207.4270  155.6490 C   0  0  0  0  0  3  0  0  0  0  0  0
  159.1780  212.4420  155.0790 C   0  0  0  0  0  0  0  0  0  0  0  0
  158.0410  211.8230  155.4390 C   0  0  0  0  0  3  0  0  0  0  0  0
  159.7200  213.5610  155.8000 N   0  0  0  0  0  2  0  0  0  0  0  0
  160.4440  213.4420  156.8100 O   0  0  0  0  0  1  0  0  0  0  0  0
  157.1930  212.1690  156.6180 C   0  0  0  0  0  2  0  0  0  0  0  0
  155.7780  210.8870  155.5130 C   0  0  0  0  0  1  0  0  0  0  0  0
  155.8440  212.0470  156.2830 O   0  0  0  0  0  0  0  0  0  0  0  0
  162.0060  213.7440  147.6600 C   0  0  0  0  0  2  0  0  0  0  0  0
  162.4630  212.9640  146.5950 O   0  0  0  0  0  1  0  0  0  0  0  0
  1  3  1  0  0  0  0
  2  9  1  0  0  0  0
  3 10  1  0  0  0  0
  3  2  2  0  0  0  0
  4 10  1  0  0  0  0
  5  7  1  0  0  0  0
  6  4  1  0  0  0  0
  7 22  1  0  0  0  0
  8 29  1  6  0  0  0
  8 11  1  0  0  0  0
  8  6  1  0  0  0  0
  9  7  2  0  0  0  0
  9 12  1  0  0  0  0
 10  5  2  0  0  0  0
 11  1  1  0  0  0  0
 12 20  2  0  0  0  0
 12 18  1  0  0  0  0
 13 16  1  0  0  0  0
 14 16  2  0  0  0  0
 14 19  1  0  0  0  0
 15 20  1  0  0  0  0
 15 21  2  0  0  0  0
 17 19  2  0  0  0  0
 18 13  2  0  0  0  0
 20 14  1  0  0  0  0
 21 17  1  0  0  0  0
 22 23  2  0  0  0  0
 22 24  1  0  0  0  0
 23 26  1  0  0  0  0
 24 25  1  0  0  0  0
 27 28  1  0  0  0  0
 28 26  1  0  0  0  0
 30 29  1  0  0  0  0
M  END
>  <MODEL>
4

>  <REMARK>
 VINA RESULT:      -5.1      3.666      6.489
  Name = 
  6 active torsions:
  status: ('A' for Active; 'I' for Inactive)
    1  A    between atoms: C_1  and  C_23
    2  A    between atoms: C_2  and  N_13
    3  A    between atoms: C_2  and  C_19
    4  A    between atoms: O_9  and  C_27
    5  A    between atoms: C_12  and  C_27
    6  A    between atoms: C_14  and  CA_21
                            x       y       z     vdW  Elec       q    Type
                         _______ _______ _______ _____ _____    ______ ____

>  <TORSDO>
F 6

$$$$
=
 OpenBabel11042420103D

 30 33  0  0  1  0  0  0  0  0999 V2000
  160.8260  207.8150  155.2840 C   0  0  0  0  0  2  0  0  0  0  0  0
  161.0310  207.3420  152.8760 N   0  0  0  0  0  0  0  0  0  0  0  0
  161.1740  208.2350  153.8880 C   0  0  0  0  0  0  0  0  0  0  0  0
  161.7660  210.5690  154.6580 C   0  0  0  0  0  2  0  0  0  0  0  0
  161.9530  209.8420  152.3140 N   0  0  0  0  0  0  0  0  0  0  0  0
  160.4500  210.8960  155.1920 N   0  0  0  0  0  2  0  0  0  0  0  0
  161.8390  208.9460  151.2950 C   0  0  0  0  0  0  0  0  0  0  0  0
  160.1890  210.0120  156.3260 C   0  0  2  0  0  3  0  0  0  0  0  0
  161.3370  207.6510  151.5870 C   0  0  0  0  0  0  0  0  0  0  0  0
  161.6380  209.5260  153.5960 C   0  0  0  0  0  0  0  0  0  0  0  0
  159.6860  208.6490  155.8530 C   0  0  0  0  0  2  0  0  0  0  0  0
  161.0530  206.6400  150.5420 C   0  0  0  0  0  0  0  0  0  0  0  0
  160.3670  206.1340  148.2750 C   0  0  0  0  0  3  0  0  0  0  0  0
  160.7870  204.3450  149.7760 C   0  0  0  0  0  0  0  0  0  0  0  0
  161.4770  204.7490  152.0600 C   0  0  0  0  0  3  0  0  0  0  0  0
  160.4320  204.8050  148.5480 N   0  0  0  0  0  0  0  0  0  0  0  0
  161.1960  202.5070  151.2240 C   0  0  0  0  0  3  0  0  0  0  0  0
  160.6720  207.0700  149.2650 C   0  0  0  0  0  3  0  0  0  0  0  0
  160.8400  203.0070  150.0100 N   0  0  0  0  0  0  0  0  0  0  0  0
  161.1030  205.2570  150.8090 C   0  0  0  0  0  0  0  0  0  0  0  0
  161.5220  203.3710  152.2710 C   0  0  0  0  0  3  0  0  0  0  0  0
  162.2780  209.3780  149.9490 C   0  0  0  0  0  0  0  0  0  0  0  0
  161.9170  210.5900  149.4940 C   0  0  0  0  0  3  0  0  0  0  0  0
  163.0000  208.4270  149.1480 N   0  0  0  0  0  2  0  0  0  0  0  0
  162.8320  208.2960  147.9180 O   0  0  0  0  0  1  0  0  0  0  0  0
  162.2120  211.1380  148.1370 C   0  0  0  0  0  2  0  0  0  0  0  0
  162.0820  213.3390  148.0710 C   0  0  0  0  0  1  0  0  0  0  0  0
  162.9850  212.2940  148.2520 O   0  0  0  0  0  0  0  0  0  0  0  0
  159.1750  210.6560  157.2610 C   0  0  0  0  0  2  0  0  0  0  0  0
  158.4240  211.6240  156.5900 O   0  0  0  0  0  1  0  0  0  0  0  0
  1 11  1  0  0  0  0
  2  3  1  0  0  0  0
  3  1  1  0  0  0  0
  4  6  1  0  0  0  0
  5 10  1  0  0  0  0
  6  8  1  0  0  0  0
  7  9  1  0  0  0  0
  7  5  2  0  0  0  0
  8 29  1  1  0  0  0
  9  2  2  0  0  0  0
 10  3  2  0  0  0  0
 10  4  1  0  0  0  0
 11  8  1  0  0  0  0
 12 20  2  0  0  0  0
 12  9  1  0  0  0  0
 13 16  1  0  0  0  0
 13 18  2  0  0  0  0
 14 19  1  0  0  0  0
 14 20  1  0  0  0  0
 15 21  2  0  0  0  0
 16 14  2  0  0  0  0
 17 21  1  0  0  0  0
 18 12  1  0  0  0  0
 19 17  2  0  0  0  0
 20 15  1  0  0  0  0
 22  7  1  0  0  0  0
 23 22  2  0  0  0  0
 24 22  1  0  0  0  0
 25 24  1  0  0  0  0
 26 28  1  0  0  0  0
 26 23  1  0  0  0  0
 27 28  1  0  0  0  0
 30 29  1  0  0  0  0
M  END
>  <MODEL>
5

>  <REMARK>
 VINA RESULT:      -4.8      2.462      7.323
  Name = 
  6 active torsions:
  status: ('A' for Active; 'I' for Inactive)
    1  A    between atoms: C_1  and  C_23
    2  A    between atoms: C_2  and  N_13
    3  A    between atoms: C_2  and  C_19
    4  A    between atoms: O_9  and  C_27
    5  A    between atoms: C_12  and  C_27
    6  A    between atoms: C_14  and  CA_21
                            x       y       z     vdW  Elec       q    Type
                         _______ _______ _______ _____ _____    ______ ____

>  <TORSDO>
F 6

$$$$
=
 OpenBabel11042420103D

 30 33  0  0  1  0  0  0  0  0999 V2000
  162.0400  208.0650  152.0400 C   0  0  0  0  0  2  0  0  0  0  0  0
  161.7580  206.3050  150.3420 N   0  0  0  0  0  0  0  0  0  0  0  0
  161.9440  207.6220  150.6130 C   0  0  0  0  0  0  0  0  0  0  0  0
  162.1890  209.9970  149.7810 C   0  0  0  0  0  2  0  0  0  0  0  0
  161.9600  208.0640  148.2730 N   0  0  0  0  0  0  0  0  0  0  0  0
  161.0020  210.5180  150.4450 N   0  0  0  0  0  2  0  0  0  0  0  0
  161.8010  206.7430  147.9900 C   0  0  0  0  0  0  0  0  0  0  0  0
  161.2140  210.4350  151.8870 C   0  0  2  0  0  3  0  0  0  0  0  0
  161.6720  205.8300  149.0690 C   0  0  0  0  0  0  0  0  0  0  0  0
  162.0370  208.5290  149.5470 C   0  0  0  0  0  0  0  0  0  0  0  0
  160.9170  209.0290  152.4050 C   0  0  0  0  0  2  0  0  0  0  0  0
  161.3700  204.3930  148.8820 C   0  0  0  0  0  0  0  0  0  0  0  0
  161.0090  202.5260  147.3810 C   0  0  0  0  0  3  0  0  0  0  0  0
  160.7590  202.1890  149.7160 C   0  0  0  0  0  0  0  0  0  0  0  0
  161.0980  203.9910  151.2950 C   0  0  0  0  0  3  0  0  0  0  0  0
  160.7360  201.7220  148.4410 N   0  0  0  0  0  0  0  0  0  0  0  0
  160.4970  201.7810  152.0410 C   0  0  0  0  0  3  0  0  0  0  0  0
  161.3260  203.8710  147.5820 C   0  0  0  0  0  3  0  0  0  0  0  0
  160.4800  201.3520  150.7500 N   0  0  0  0  0  0  0  0  0  0  0  0
  161.0730  203.5450  149.9670 C   0  0  0  0  0  0  0  0  0  0  0  0
  160.8080  203.1090  152.3360 C   0  0  0  0  0  3  0  0  0  0  0  0
  161.8010  206.3410  146.5650 C   0  0  0  0  0  0  0  0  0  0  0  0
  160.6330  206.2380  145.9080 C   0  0  0  0  0  3  0  0  0  0  0  0
  163.0630  205.9870  145.9750 N   0  0  0  0  0  2  0  0  0  0  0  0
  163.5380  204.8330  146.0110 O   0  0  0  0  0  1  0  0  0  0  0  0
  160.4610  205.7740  144.5000 C   0  0  0  0  0  2  0  0  0  0  0  0
  159.5210  203.7880  144.3050 C   0  0  0  0  0  1  0  0  0  0  0  0
  160.7610  204.4140  144.4100 O   0  0  0  0  0  0  0  0  0  0  0  0
  160.3410  211.4570  152.6000 C   0  0  0  0  0  2  0  0  0  0  0  0
  160.0640  212.5430  151.7650 O   0  0  0  0  0  1  0  0  0  0  0  0
  1 11  1  0  0  0  0
  2  3  1  0  0  0  0
  3  1  1  0  0  0  0
  4  6  1  0  0  0  0
  5 10  1  0  0  0  0
  6  8  1  0  0  0  0
  7  5  2  0  0  0  0
  7  9  1  0  0  0  0
  8 11  1  0  0  0  0
  8 29  1  1  0  0  0
  9  2  2  0  0  0  0
 10  4  1  0  0  0  0
 10  3  2  0  0  0  0
 12  9  1  0  0  0  0
 12 20  2  0  0  0  0
 13 18  2  0  0  0  0
 13 16  1  0  0  0  0
 14 20  1  0  0  0  0
 14 19  1  0  0  0  0
 15 21  2  0  0  0  0
 16 14  2  0  0  0  0
 17 21  1  0  0  0  0
 18 12  1  0  0  0  0
 19 17  2  0  0  0  0
 20 15  1  0  0  0  0
 22  7  1  0  0  0  0
 23 22  2  0  0  0  0
 24 25  1  0  0  0  0
 24 22  1  0  0  0  0
 26 23  1  0  0  0  0
 27 28  1  0  0  0  0
 28 26  1  0  0  0  0
 30 29  1  0  0  0  0
M  END
>  <MODEL>
6

>  <REMARK>
 VINA RESULT:      -4.6      3.104      8.992
  Name = 
  6 active torsions:
  status: ('A' for Active; 'I' for Inactive)
    1  A    between atoms: C_1  and  C_23
    2  A    between atoms: C_2  and  N_13
    3  A    between atoms: C_2  and  C_19
    4  A    between atoms: O_9  and  C_27
    5  A    between atoms: C_12  and  C_27
    6  A    between atoms: C_14  and  CA_21
                            x       y       z     vdW  Elec       q    Type
                         _______ _______ _______ _____ _____    ______ ____

>  <TORSDO>
F 6

$$$$
=
 OpenBabel11042420103D

 30 33  0  0  1  0  0  0  0  0999 V2000
  160.7750  214.1470  149.5560 C   0  0  0  0  0  2  0  0  0  0  0  0
  160.4440  212.5260  151.3790 N   0  0  0  0  0  0  0  0  0  0  0  0
  160.9340  212.7760  150.1380 C   0  0  0  0  0  0  0  0  0  0  0  0
  162.0840  211.9400  148.0480 C   0  0  0  0  0  2  0  0  0  0  0  0
  161.7000  210.5250  150.0250 N   0  0  0  0  0  0  0  0  0  0  0  0
  160.9720  212.2030  147.1430 N   0  0  0  0  0  2  0  0  0  0  0  0
  161.2370  210.2710  151.2800 C   0  0  0  0  0  0  0  0  0  0  0  0
  160.7610  213.6470  147.0920 C   0  0  2  0  0  3  0  0  0  0  0  0
  160.5620  211.3080  151.9750 C   0  0  0  0  0  0  0  0  0  0  0  0
  161.5710  211.7410  149.4370 C   0  0  0  0  0  0  0  0  0  0  0  0
  159.9340  214.1230  148.2850 C   0  0  0  0  0  2  0  0  0  0  0  0
  159.9080  211.1090  153.2880 C   0  0  0  0  0  0  0  0  0  0  0  0
  157.8730  210.9940  154.5980 C   0  0  0  0  0  3  0  0  0  0  0  0
  159.9650  210.7850  155.7000 C   0  0  0  0  0  0  0  0  0  0  0  0
  162.0510  210.8850  154.4790 C   0  0  0  0  0  3  0  0  0  0  0  0
  158.6070  210.8170  155.7280 N   0  0  0  0  0  0  0  0  0  0  0  0
  162.0220  210.5620  156.8660 C   0  0  0  0  0  3  0  0  0  0  0  0
  158.5100  211.1460  153.3650 C   0  0  0  0  0  3  0  0  0  0  0  0
  160.6620  210.6050  156.8530 N   0  0  0  0  0  0  0  0  0  0  0  0
  160.6510  210.9360  154.4730 C   0  0  0  0  0  0  0  0  0  0  0  0
  162.7410  210.7000  155.6770 C   0  0  0  0  0  3  0  0  0  0  0  0
  161.4950  208.9280  151.8480 C   0  0  0  0  0  0  0  0  0  0  0  0
  160.6640  208.4350  152.7820 C   0  0  0  0  0  3  0  0  0  0  0  0
  162.6930  208.2500  151.4330 N   0  0  0  0  0  2  0  0  0  0  0  0
  162.7060  207.3360  150.5830 O   0  0  0  0  0  1  0  0  0  0  0  0
  160.8310  207.1390  153.5030 C   0  0  0  0  0  2  0  0  0  0  0  0
  160.1300  207.1250  155.5950 C   0  0  0  0  0  1  0  0  0  0  0  0
  161.2550  207.3760  154.8110 O   0  0  0  0  0  0  0  0  0  0  0  0
  160.0730  214.0250  145.7880 C   0  0  0  0  0  2  0  0  0  0  0  0
  159.7890  212.8870  145.0280 O   0  0  0  0  0  1  0  0  0  0  0  0
  1  3  1  0  0  0  0
  2  9  1  0  0  0  0
  3  2  2  0  0  0  0
  4 10  1  0  0  0  0
  5  7  1  0  0  0  0
  6  4  1  0  0  0  0
  7 22  1  0  0  0  0
  7  9  2  0  0  0  0
  8 29  1  6  0  0  0
  8  6  1  0  0  0  0
  8 11  1  0  0  0  0
  9 12  1  0  0  0  0
 10  5  2  0  0  0  0
 10  3  1  0  0  0  0
 11  1  1  0  0  0  0
 12 18  1  0  0  0  0
 12 20  2  0  0  0  0
 13 16  1  0  0  0  0
 14 16  2  0  0  0  0
 14 19  1  0  0  0  0
 15 21  2  0  0  0  0
 18 13  2  0  0  0  0
 19 17  2  0  0  0  0
 20 15  1  0  0  0  0
 20 14  1  0  0  0  0
 21 17  1  0  0  0  0
 22 23  2  0  0  0  0
 23 26  1  0  0  0  0
 24 22  1  0  0  0  0
 25 24  1  0  0  0  0
 26 28  1  0  0  0  0
 28 27  1  0  0  0  0
 30 29  1  0  0  0  0
M  END
>  <MODEL>
7

>  <REMARK>
 VINA RESULT:      -4.4      2.910      6.319
  Name = 
  6 active torsions:
  status: ('A' for Active; 'I' for Inactive)
    1  A    between atoms: C_1  and  C_23
    2  A    between atoms: C_2  and  N_13
    3  A    between atoms: C_2  and  C_19
    4  A    between atoms: O_9  and  C_27
    5  A    between atoms: C_12  and  C_27
    6  A    between atoms: C_14  and  CA_21
                            x       y       z     vdW  Elec       q    Type
                         _______ _______ _______ _____ _____    ______ ____

>  <TORSDO>
F 6

$$$$
=
 OpenBabel11042420103D

 30 33  0  0  1  0  0  0  0  0999 V2000
  159.9320  213.8530  149.8670 C   0  0  0  0  0  2  0  0  0  0  0  0
  159.3590  212.6770  151.9520 N   0  0  0  0  0  0  0  0  0  0  0  0
  160.1420  212.7380  150.8450 C   0  0  0  0  0  0  0  0  0  0  0  0
  161.9770  211.7350  149.4240 C   0  0  0  0  0  2  0  0  0  0  0  0
  161.2740  210.7770  151.5800 N   0  0  0  0  0  0  0  0  0  0  0  0
  161.1510  211.5020  148.2460 N   0  0  0  0  0  2  0  0  0  0  0  0
  160.5130  210.7220  152.7070 C   0  0  0  0  0  0  0  0  0  0  0  0
  160.7250  212.7980  147.7260 C   0  0  2  0  0  3  0  0  0  0  0  0
  159.5000  211.6990  152.8880 C   0  0  0  0  0  0  0  0  0  0  0  0
  161.1200  211.7520  150.6480 C   0  0  0  0  0  0  0  0  0  0  0  0
  159.5170  213.3280  148.4980 C   0  0  0  0  0  2  0  0  0  0  0  0
  158.5330  211.6640  154.0090 C   0  0  0  0  0  0  0  0  0  0  0  0
  156.5500  210.6980  155.0100 C   0  0  0  0  0  3  0  0  0  0  0  0
  157.6230  212.5120  156.1020 C   0  0  0  0  0  0  0  0  0  0  0  0
  159.6090  213.5420  155.1810 C   0  0  0  0  0  3  0  0  0  0  0  0
  156.6350  211.5820  156.0390 N   0  0  0  0  0  0  0  0  0  0  0  0
  158.6490  214.3200  157.2490 C   0  0  0  0  0  3  0  0  0  0  0  0
  157.4920  210.7270  153.9800 C   0  0  0  0  0  3  0  0  0  0  0  0
  157.6730  213.3780  157.1480 N   0  0  0  0  0  0  0  0  0  0  0  0
  158.5970  212.5780  155.0800 C   0  0  0  0  0  0  0  0  0  0  0  0
  159.6360  214.4180  156.2670 C   0  0  0  0  0  3  0  0  0  0  0  0
  160.8150  209.6540  153.6880 C   0  0  0  0  0  0  0  0  0  0  0  0
  160.6040  208.3700  153.3520 C   0  0  0  0  0  3  0  0  0  0  0  0
  161.2370  210.0580  155.0010 N   0  0  0  0  0  2  0  0  0  0  0  0
  161.9780  211.0400  155.2130 O   0  0  0  0  0  1  0  0  0  0  0  0
  160.7860  207.1910  154.2500 C   0  0  0  0  0  2  0  0  0  0  0  0
  161.3550  205.8250  152.6140 C   0  0  0  0  0  1  0  0  0  0  0  0
  161.8390  206.4020  153.7870 O   0  0  0  0  0  0  0  0  0  0  0  0
  160.3960  212.6800  146.2450 C   0  0  0  0  0  2  0  0  0  0  0  0
  159.1540  213.2550  145.9640 O   0  0  0  0  0  1  0  0  0  0  0  0
  1  3  1  0  0  0  0
  2  9  1  0  0  0  0
  3  2  2  0  0  0  0
  4 10  1  0  0  0  0
  5  7  1  0  0  0  0
  6  4  1  0  0  0  0
  7  9  2  0  0  0  0
  7 22  1  0  0  0  0
  8 29  1  6  0  0  0
  8  6  1  0  0  0  0
  8 11  1  0  0  0  0
  9 12  1  0  0  0  0
 10  3  1  0  0  0  0
 10  5  2  0  0  0  0
 11  1  1  0  0  0  0
 12 20  2  0  0  0  0
 13 16  1  0  0  0  0
 14 19  1  0  0  0  0
 15 21  2  0  0  0  0
 16 14  2  0  0  0  0
 18 12  1  0  0  0  0
 18 13  2  0  0  0  0
 19 17  2  0  0  0  0
 20 15  1  0  0  0  0
 20 14  1  0  0  0  0
 21 17  1  0  0  0  0
 22 24  1  0  0  0  0
 23 22  2  0  0  0  0
 23 26  1  0  0  0  0
 24 25  1  0  0  0  0
 27 28  1  0  0  0  0
 28 26  1  0  0  0  0
 30 29  1  0  0  0  0
M  END
>  <MODEL>
8

>  <REMARK>
 VINA RESULT:      -4.3      3.074      6.241
  Name = 
  6 active torsions:
  status: ('A' for Active; 'I' for Inactive)
    1  A    between atoms: C_1  and  C_23
    2  A    between atoms: C_2  and  N_13
    3  A    between atoms: C_2  and  C_19
    4  A    between atoms: O_9  and  C_27
    5  A    between atoms: C_12  and  C_27
    6  A    between atoms: C_14  and  CA_21
                            x       y       z     vdW  Elec       q    Type
                         _______ _______ _______ _____ _____    ______ ____

>  <TORSDO>
F 6

$$$$
=
 OpenBabel11042420103D

 30 33  0  0  1  0  0  0  0  0999 V2000
  159.8180  204.0820  150.2330 C   0  0  0  0  0  2  0  0  0  0  0  0
  160.4560  206.0840  151.5150 N   0  0  0  0  0  0  0  0  0  0  0  0
  160.4500  205.4370  150.3220 C   0  0  0  0  0  0  0  0  0  0  0  0
  161.1140  205.3720  147.8840 C   0  0  0  0  0  2  0  0  0  0  0  0
  161.5830  207.2920  149.3510 N   0  0  0  0  0  0  0  0  0  0  0  0
  161.9550  204.1870  147.9830 N   0  0  0  0  0  2  0  0  0  0  0  0
  161.5700  207.9610  150.5360 C   0  0  0  0  0  0  0  0  0  0  0  0
  161.1030  203.0530  148.3330 C   0  0  2  0  0  3  0  0  0  0  0  0
  161.0030  207.3210  151.6680 C   0  0  0  0  0  0  0  0  0  0  0  0
  161.0420  206.0550  149.2110 C   0  0  0  0  0  0  0  0  0  0  0  0
  160.8300  203.0150  149.8350 C   0  0  0  0  0  2  0  0  0  0  0  0
  161.0470  207.8990  153.0310 C   0  0  0  0  0  0  0  0  0  0  0  0
  161.7270  207.7060  155.3480 C   0  0  0  0  0  3  0  0  0  0  0  0
  160.4550  209.5930  154.6770 C   0  0  0  0  0  0  0  0  0  0  0  0
  159.7290  209.8760  152.3860 C   0  0  0  0  0  3  0  0  0  0  0  0
  161.1100  208.8820  155.6310 N   0  0  0  0  0  0  0  0  0  0  0  0
  159.1890  211.5090  154.0720 C   0  0  0  0  0  3  0  0  0  0  0  0
  161.7020  207.1950  154.0490 C   0  0  0  0  0  3  0  0  0  0  0  0
  159.8500  210.7670  155.0000 N   0  0  0  0  0  0  0  0  0  0  0  0
  160.4030  209.1130  153.3480 C   0  0  0  0  0  0  0  0  0  0  0  0
  159.1180  211.0770  152.7470 C   0  0  0  0  0  3  0  0  0  0  0  0
  162.1270  209.3330  150.5560 C   0  0  0  0  0  0  0  0  0  0  0  0
  161.7970  210.1940  149.5790 C   0  0  0  0  0  3  0  0  0  0  0  0
  163.0810  209.6480  151.5840 N   0  0  0  0  0  2  0  0  0  0  0  0
  162.9370  210.5890  152.3910 O   0  0  0  0  0  1  0  0  0  0  0  0
  162.3310  211.5780  149.4160 C   0  0  0  0  0  2  0  0  0  0  0  0
  161.1940  212.2300  147.6420 C   0  0  0  0  0  1  0  0  0  0  0  0
  162.4740  211.8740  148.0600 O   0  0  0  0  0  0  0  0  0  0  0  0
  161.7560  201.7550  147.8800 C   0  0  0  0  0  2  0  0  0  0  0  0
  161.2150  200.6620  148.5630 O   0  0  0  0  0  1  0  0  0  0  0  0
  1  3  1  0  0  0  0
  2  9  1  0  0  0  0
  3  2  2  0  0  0  0
  4  6  1  0  0  0  0
  4 10  1  0  0  0  0
  5  7  1  0  0  0  0
  6  8  1  0  0  0  0
  7 22  1  0  0  0  0
  7  9  2  0  0  0  0
  8 29  1  1  0  0  0
  8 11  1  0  0  0  0
  9 12  1  0  0  0  0
 10  5  2  0  0  0  0
 10  3  1  0  0  0  0
 11  1  1  0  0  0  0
 12 20  2  0  0  0  0
 12 18  1  0  0  0  0
 13 16  1  0  0  0  0
 14 19  1  0  0  0  0
 14 16  2  0  0  0  0
 15 21  2  0  0  0  0
 15 20  1  0  0  0  0
 17 19  2  0  0  0  0
 18 13  2  0  0  0  0
 20 14  1  0  0  0  0
 21 17  1  0  0  0  0
 22 24  1  0  0  0  0
 23 22  2  0  0  0  0
 24 25  1  0  0  0  0
 26 23  1  0  0  0  0
 27 28  1  0  0  0  0
 28 26  1  0  0  0  0
 29 30  1  0  0  0  0
M  END
>  <MODEL>
9

>  <REMARK>
 VINA RESULT:      -4.2      2.313      4.855
  Name = 
  6 active torsions:
  status: ('A' for Active; 'I' for Inactive)
    1  A    between atoms: C_1  and  C_23
    2  A    between atoms: C_2  and  N_13
    3  A    between atoms: C_2  and  C_19
    4  A    between atoms: O_9  and  C_27
    5  A    between atoms: C_12  and  C_27
    6  A    between atoms: C_14  and  CA_21
                            x       y       z     vdW  Elec       q    Type
                         _______ _______ _______ _____ _____    ______ ____

>  <TORSDO>
F 6

$$$$
