=
 OpenBabel11052411163D

 27 30  0  0  1  0  0  0  0  0999 V2000
  161.8190  205.4210  145.2020 C   0  0  0  0  0  3  0  0  0  0  0  0
  161.4720  203.4400  146.1660 N   0  0  0  0  0  0  0  0  0  0  0  0
  160.8860  206.9860  151.2570 C   0  0  2  0  0  3  0  0  0  0  0  0
  160.9740  204.4320  151.3590 C   0  0  0  0  0  3  0  0  0  0  0  0
  161.4510  204.4800  147.1230 C   0  0  0  0  0  0  0  0  0  0  0  0
  161.7070  208.1050  149.2710 C   0  0  0  0  0  0  0  0  0  0  0  0
  161.6880  203.9980  145.0370 N   0  0  0  0  0  0  0  0  0  0  0  0
  161.3540  205.7860  153.3680 C   0  0  0  0  0  3  0  0  0  0  0  0
  161.6630  205.6590  146.4910 C   0  0  1  0  0  3  0  0  0  0  0  0
  161.0970  205.6620  150.5480 C   0  0  1  0  0  3  0  0  0  0  0  0
  161.0840  204.4990  152.6900 C   0  0  0  0  0  3  0  0  0  0  0  0
  161.5290  206.8500  148.5070 C   0  0  0  0  0  0  0  0  0  0  0  0
  161.7190  206.8410  147.1510 N   0  0  0  0  0  0  0  0  0  0  0  0
  161.2790  205.6320  149.2130 C   0  0  0  0  0  0  0  0  0  0  0  0
  161.4860  208.1200  150.5510 N   0  0  0  0  0  0  0  0  0  0  0  0
  161.2590  204.4150  148.4960 C   0  0  0  0  0  3  0  0  0  0  0  0
  161.3130  206.9430  152.6970 C   0  0  0  0  0  3  0  0  0  0  0  0
  162.2800  209.3220  148.6180 C   0  0  0  0  0  2  0  0  0  0  0  0
  161.9050  210.5840  149.3860 C   0  0  0  0  0  2  0  0  0  0  0  0
  162.2850  211.8430  148.6160 C   0  0  0  0  0  2  0  0  0  0  0  0
  161.0550  212.6630  148.2460 C   0  0  0  0  0  2  0  0  0  0  0  0
  160.7410  212.5360  146.7890 C   0  0  0  0  0  3  0  0  0  0  0  0
  161.4660  213.1320  145.9140 N   0  0  0  0  0  0  0  0  0  0  0  0
  161.1700  213.0150  144.5090 C   0  0  0  0  0  2  0  0  0  0  0  0
  163.5240  213.2380  144.2070 O   0  0  0  0  0  1  0  0  0  0  0  0
  162.4260  212.8620  143.7210 C   0  0  0  0  0  0  0  0  0  0  0  0
  162.3900  212.2750  142.4630 O   0  0  0  0  0  0  0  0  0  0  0  0
  2  5  2  0  0  0  0
  3 17  1  1  0  0  0
  4 11  2  0  0  0  0
  5 16  1  0  0  0  0
  6 15  2  0  0  0  0
  7  1  2  0  0  0  0
  7  2  1  0  0  0  0
  9  1  1  1  0  0  0
  9  5  1  0  0  0  0
  9 13  1  0  0  0  0
 10  3  1  0  0  0  0
 10  4  1  6  0  0  0
 11  8  1  0  0  0  0
 12 14  1  0  0  0  0
 12  6  1  0  0  0  0
 13 12  2  0  0  0  0
 14 10  1  0  0  0  0
 15  3  1  0  0  0  0
 16 14  2  0  0  0  0
 17  8  2  0  0  0  0
 18  6  1  0  0  0  0
 18 19  1  0  0  0  0
 20 19  1  0  0  0  0
 21 20  1  0  0  0  0
 22 21  1  0  0  0  0
 23 22  2  0  0  0  0
 24 23  1  0  0  0  0
 26 25  1  0  0  0  0
 26 24  1  0  0  0  0
 27 26  2  0  0  0  0
M  END
>  <MODEL>
1

>  <REMARK>
 VINA RESULT:      -8.6      0.000      0.000
  Name = 
  7 active torsions:
  status: ('A' for Active; 'I' for Inactive)
    1  A    between atoms: C_4  and  C_20
    2  A    between atoms: C_4  and  N_24
    3  A    between atoms: C_5  and  C_12
    4  A    between atoms: C_5  and  C_25
    5  A    between atoms: C_6  and  C_7
    6  A    between atoms: C_6  and  C_25
    7  A    between atoms: C_10  and  C_12
                            x       y       z     vdW  Elec       q    Type
                         _______ _______ _______ _____ _____    ______ ____

>  <TORSDO>
F 7

$$$$
=
 OpenBabel11052411163D

 27 30  0  0  1  0  0  0  0  0999 V2000
  162.1420  209.3140  148.5420 C   0  0  0  0  0  3  0  0  0  0  0  0
  162.0070  211.1940  149.7330 N   0  0  0  0  0  0  0  0  0  0  0  0
  161.1730  207.1570  154.4060 C   0  0  2  0  0  3  0  0  0  0  0  0
  160.8650  209.6800  154.6930 C   0  0  0  0  0  3  0  0  0  0  0  0
  161.7950  210.0600  150.5500 C   0  0  0  0  0  0  0  0  0  0  0  0
  161.1280  206.2210  152.1720 C   0  0  0  0  0  0  0  0  0  0  0  0
  162.2120  210.7510  148.5530 N   0  0  0  0  0  0  0  0  0  0  0  0
  159.9560  208.1050  156.3380 C   0  0  0  0  0  3  0  0  0  0  0  0
  161.8890  208.9480  149.7840 C   0  0  1  0  0  3  0  0  0  0  0  0
  161.1050  208.5380  153.7830 C   0  0  1  0  0  3  0  0  0  0  0  0
  160.3340  209.4670  155.9020 C   0  0  0  0  0  3  0  0  0  0  0  0
  161.4500  207.5560  151.6200 C   0  0  0  0  0  0  0  0  0  0  0  0
  161.7100  207.7010  150.2840 N   0  0  0  0  0  0  0  0  0  0  0  0
  161.3650  208.7010  152.4710 C   0  0  0  0  0  0  0  0  0  0  0  0
  160.9220  206.0790  153.4470 N   0  0  0  0  0  0  0  0  0  0  0  0
  161.5250  209.9880  151.9090 C   0  0  0  0  0  3  0  0  0  0  0  0
  160.3000  207.0280  155.6220 C   0  0  0  0  0  3  0  0  0  0  0  0
  160.8920  205.0570  151.2630 C   0  0  0  0  0  2  0  0  0  0  0  0
  160.9160  203.7440  152.0380 C   0  0  0  0  0  2  0  0  0  0  0  0
  161.3930  202.5880  151.1670 C   0  0  0  0  0  2  0  0  0  0  0  0
  160.4080  202.2940  150.0410 C   0  0  0  0  0  2  0  0  0  0  0  0
  161.0290  202.5420  148.7040 C   0  0  0  0  0  3  0  0  0  0  0  0
  161.2220  203.7410  148.2890 N   0  0  0  0  0  0  0  0  0  0  0  0
  161.8190  203.9880  147.0020 C   0  0  0  0  0  2  0  0  0  0  0  0
  162.3980  205.9070  145.7130 O   0  0  0  0  0  0  0  0  0  0  0  0
  161.6830  205.4240  146.6280 C   0  0  0  0  0  0  0  0  0  0  0  0
  160.7430  206.2220  147.2660 O   0  0  0  0  0  1  0  0  0  0  0  0
  1  7  2  0  0  0  0
  2  5  2  0  0  0  0
  3 17  1  1  0  0  0
  4 11  2  0  0  0  0
  5 16  1  0  0  0  0
  6 15  2  0  0  0  0
  7  2  1  0  0  0  0
  9  1  1  6  0  0  0
  9 13  1  0  0  0  0
  9  5  1  0  0  0  0
 10  3  1  0  0  0  0
 10  4  1  1  0  0  0
 11  8  1  0  0  0  0
 12  6  1  0  0  0  0
 12 14  1  0  0  0  0
 13 12  2  0  0  0  0
 14 10  1  0  0  0  0
 15  3  1  0  0  0  0
 16 14  2  0  0  0  0
 17  8  2  0  0  0  0
 18 19  1  0  0  0  0
 18  6  1  0  0  0  0
 20 19  1  0  0  0  0
 21 20  1  0  0  0  0
 22 21  1  0  0  0  0
 23 22  2  0  0  0  0
 24 23  1  0  0  0  0
 25 26  2  0  0  0  0
 26 24  1  0  0  0  0
 26 27  1  0  0  0  0
M  END
>  <MODEL>
2

>  <REMARK>
 VINA RESULT:      -8.4      3.179      6.710
  Name = 
  7 active torsions:
  status: ('A' for Active; 'I' for Inactive)
    1  A    between atoms: C_4  and  C_20
    2  A    between atoms: C_4  and  N_24
    3  A    between atoms: C_5  and  C_12
    4  A    between atoms: C_5  and  C_25
    5  A    between atoms: C_6  and  C_7
    6  A    between atoms: C_6  and  C_25
    7  A    between atoms: C_10  and  C_12
                            x       y       z     vdW  Elec       q    Type
                         _______ _______ _______ _____ _____    ______ ____

>  <TORSDO>
F 7

$$$$
=
 OpenBabel11052411163D

 27 30  0  0  1  0  0  0  0  0999 V2000
  161.6870  210.1700  151.3080 C   0  0  0  0  0  3  0  0  0  0  0  0
  161.5150  209.1440  153.2810 N   0  0  0  0  0  0  0  0  0  0  0  0
  161.4980  204.0660  149.6700 C   0  0  2  0  0  3  0  0  0  0  0  0
  161.0090  203.9740  152.1780 C   0  0  0  0  0  3  0  0  0  0  0  0
  161.4820  208.2110  152.2200 C   0  0  0  0  0  0  0  0  0  0  0  0
  161.3070  206.1900  148.5190 C   0  0  0  0  0  0  0  0  0  0  0  0
  161.6360  210.2950  152.7410 N   0  0  0  0  0  2  0  0  0  0  0  0
  160.4060  202.1060  150.7090 C   0  0  0  0  0  3  0  0  0  0  0  0
  161.5920  208.8800  151.0480 C   0  0  0  0  0  0  0  0  0  0  0  0
  161.2510  204.7990  150.9740 C   0  0  1  0  0  3  0  0  0  0  0  0
  160.6220  202.7010  152.0460 C   0  0  0  0  0  3  0  0  0  0  0  0
  161.4590  206.8900  149.8140 C   0  0  0  0  0  0  0  0  0  0  0  0
  161.5700  208.2540  149.8460 N   0  0  0  0  0  0  0  0  0  0  0  0
  161.3630  206.1400  151.0270 C   0  0  0  0  0  0  0  0  0  0  0  0
  161.2440  204.8920  148.4880 N   0  0  0  0  0  0  0  0  0  0  0  0
  161.3580  206.8290  152.2610 C   0  0  0  0  0  3  0  0  0  0  0  0
  160.7650  202.7560  149.5950 C   0  0  0  0  0  3  0  0  0  0  0  0
  161.0800  206.9590  147.2570 C   0  0  0  0  0  2  0  0  0  0  0  0
  160.3170  206.1240  146.2360 C   0  0  0  0  0  2  0  0  0  0  0  0
  161.1310  205.9100  144.9650 C   0  0  0  0  0  2  0  0  0  0  0  0
  161.9310  204.6140  145.0270 C   0  0  0  0  0  2  0  0  0  0  0  0
  161.0270  203.4250  145.1030 C   0  0  0  0  0  3  0  0  0  0  0  0
  161.2700  202.4770  145.9330 N   0  0  0  0  0  0  0  0  0  0  0  0
  160.4040  201.3290  146.0130 C   0  0  0  0  0  2  0  0  0  0  0  0
  161.5490  200.1490  147.7390 O   0  0  0  0  0  1  0  0  0  0  0  0
  161.1460  200.1510  146.5470 C   0  0  0  0  0  0  0  0  0  0  0  0
  161.3620  199.0420  145.7410 O   0  0  0  0  0  0  0  0  0  0  0  0
  1  7  1  0  0  0  0
  3 17  1  6  0  0  0
  3 10  1  0  0  0  0
  5 16  1  0  0  0  0
  5  2  2  0  0  0  0
  6 12  1  0  0  0  0
  7  2  1  0  0  0  0
  8 11  1  0  0  0  0
  9  1  2  0  0  0  0
  9  5  1  0  0  0  0
 10 14  1  0  0  0  0
 10  4  1  1  0  0  0
 11  4  2  0  0  0  0
 12 13  2  0  0  0  0
 12 14  1  0  0  0  0
 13  9  1  0  0  0  0
 14 16  2  0  0  0  0
 15  6  2  0  0  0  0
 15  3  1  0  0  0  0
 17  8  2  0  0  0  0
 18  6  1  0  0  0  0
 19 18  1  0  0  0  0
 20 21  1  0  0  0  0
 20 19  1  0  0  0  0
 21 22  1  0  0  0  0
 22 23  2  0  0  0  0
 23 24  1  0  0  0  0
 24 26  1  0  0  0  0
 26 25  1  0  0  0  0
 27 26  2  0  0  0  0
M  END
>  <MODEL>
3

>  <REMARK>
 VINA RESULT:      -8.4      4.664      7.415
  Name = 
  7 active torsions:
  status: ('A' for Active; 'I' for Inactive)
    1  A    between atoms: C_4  and  C_20
    2  A    between atoms: C_4  and  N_24
    3  A    between atoms: C_5  and  C_12
    4  A    between atoms: C_5  and  C_25
    5  A    between atoms: C_6  and  C_7
    6  A    between atoms: C_6  and  C_25
    7  A    between atoms: C_10  and  C_12
                            x       y       z     vdW  Elec       q    Type
                         _______ _______ _______ _____ _____    ______ ____

>  <TORSDO>
F 7

$$$$
=
 OpenBabel11052411163D

 27 30  0  0  1  0  0  0  0  0999 V2000
  160.4600  207.3700  156.4790 C   0  0  0  0  0  3  0  0  0  0  0  0
  160.7590  209.5360  156.0420 N   0  0  0  0  0  0  0  0  0  0  0  0
  161.0700  207.4280  150.1860 C   0  0  2  0  0  3  0  0  0  0  0  0
  161.6280  209.8450  150.8120 C   0  0  0  0  0  3  0  0  0  0  0  0
  160.8360  208.7650  154.8590 C   0  0  0  0  0  0  0  0  0  0  0  0
  161.0700  205.7410  151.9240 C   0  0  0  0  0  0  0  0  0  0  0  0
  160.5370  208.7120  156.9920 N   0  0  0  0  0  2  0  0  0  0  0  0
  162.3340  208.9070  148.6590 C   0  0  0  0  0  3  0  0  0  0  0  0
  160.6460  207.4620  155.1760 C   0  0  0  0  0  0  0  0  0  0  0  0
  161.2930  208.4750  151.2600 C   0  0  1  0  0  3  0  0  0  0  0  0
  162.1060  210.0430  149.5790 C   0  0  0  0  0  3  0  0  0  0  0  0
  160.8990  206.8050  152.9390 C   0  0  0  0  0  0  0  0  0  0  0  0
  160.6860  206.4740  154.2500 N   0  0  0  0  0  0  0  0  0  0  0  0
  161.0820  208.1700  152.5550 C   0  0  0  0  0  0  0  0  0  0  0  0
  161.2320  206.0580  150.6740 N   0  0  0  0  0  0  0  0  0  0  0  0
  161.0660  209.1710  153.5520 C   0  0  0  0  0  3  0  0  0  0  0  0
  161.8980  207.6770  148.9560 C   0  0  0  0  0  3  0  0  0  0  0  0
  161.2070  204.3100  152.3350 C   0  0  0  0  0  2  0  0  0  0  0  0
  161.7780  203.4660  151.2010 C   0  0  0  0  0  2  0  0  0  0  0  0
  160.8010  202.3820  150.7620 C   0  0  0  0  0  2  0  0  0  0  0  0
  160.4990  202.4740  149.2710 C   0  0  0  0  0  2  0  0  0  0  0  0
  161.2490  203.6020  148.6370 C   0  0  0  0  0  3  0  0  0  0  0  0
  161.4970  203.5910  147.3780 N   0  0  0  0  0  0  0  0  0  0  0  0
  162.2190  204.6730  146.7600 C   0  0  0  0  0  2  0  0  0  0  0  0
  160.4560  206.1960  146.2530 O   0  0  0  0  0  1  0  0  0  0  0  0
  161.3400  205.4150  145.8120 C   0  0  0  0  0  0  0  0  0  0  0  0
  161.5170  205.2720  144.4430 O   0  0  0  0  0  0  0  0  0  0  0  0
  1  7  1  0  0  0  0
  2  7  1  0  0  0  0
  3 17  1  6  0  0  0
  3 15  1  0  0  0  0
  3 10  1  0  0  0  0
  5  9  1  0  0  0  0
  5  2  2  0  0  0  0
  6 18  1  0  0  0  0
  6 12  1  0  0  0  0
  8 17  2  0  0  0  0
  8 11  1  0  0  0  0
  9  1  2  0  0  0  0
 10  4  1  6  0  0  0
 10 14  1  0  0  0  0
 11  4  2  0  0  0  0
 12 13  2  0  0  0  0
 13  9  1  0  0  0  0
 14 12  1  0  0  0  0
 14 16  2  0  0  0  0
 15  6  2  0  0  0  0
 16  5  1  0  0  0  0
 19 18  1  0  0  0  0
 20 19  1  0  0  0  0
 21 20  1  0  0  0  0
 22 21  1  0  0  0  0
 23 22  2  0  0  0  0
 24 23  1  0  0  0  0
 26 25  1  0  0  0  0
 26 24  1  0  0  0  0
 27 26  2  0  0  0  0
M  END
>  <MODEL>
4

>  <REMARK>
 VINA RESULT:      -8.2      3.507      7.704
  Name = 
  7 active torsions:
  status: ('A' for Active; 'I' for Inactive)
    1  A    between atoms: C_4  and  C_20
    2  A    between atoms: C_4  and  N_24
    3  A    between atoms: C_5  and  C_12
    4  A    between atoms: C_5  and  C_25
    5  A    between atoms: C_6  and  C_7
    6  A    between atoms: C_6  and  C_25
    7  A    between atoms: C_10  and  C_12
                            x       y       z     vdW  Elec       q    Type
                         _______ _______ _______ _____ _____    ______ ____

>  <TORSDO>
F 7

$$$$
=
 OpenBabel11052411163D

 27 30  0  0  1  0  0  0  0  0999 V2000
  160.8190  202.1190  149.3950 C   0  0  0  0  0  3  0  0  0  0  0  0
  160.7940  202.3100  151.6170 N   0  0  0  0  0  0  0  0  0  0  0  0
  161.1750  208.3750  150.2390 C   0  0  2  0  0  3  0  0  0  0  0  0
  161.4120  207.4870  152.6260 C   0  0  0  0  0  3  0  0  0  0  0  0
  160.9340  203.5750  151.0010 C   0  0  0  0  0  0  0  0  0  0  0  0
  161.4780  206.8430  148.3870 C   0  0  0  0  0  0  0  0  0  0  0  0
  160.7260  201.4570  150.6700 N   0  0  0  0  0  2  0  0  0  0  0  0
  162.1600  209.7490  152.0440 C   0  0  0  0  0  3  0  0  0  0  0  0
  160.9400  203.4070  149.6580 C   0  0  0  0  0  0  0  0  0  0  0  0
  161.2900  207.1930  151.1810 C   0  0  1  0  0  3  0  0  0  0  0  0
  161.8110  208.6990  153.0260 C   0  0  0  0  0  3  0  0  0  0  0  0
  161.1980  205.7100  149.2950 C   0  0  0  0  0  0  0  0  0  0  0  0
  161.0830  204.4410  148.7940 N   0  0  0  0  0  0  0  0  0  0  0  0
  161.1720  205.9370  150.7070 C   0  0  0  0  0  0  0  0  0  0  0  0
  161.5460  208.0520  148.8600 N   0  0  0  0  0  0  0  0  0  0  0  0
  161.0540  204.8310  151.5780 C   0  0  0  0  0  3  0  0  0  0  0  0
  161.9130  209.5860  150.7390 C   0  0  0  0  0  3  0  0  0  0  0  0
  161.8300  206.6030  146.9530 C   0  0  0  0  0  2  0  0  0  0  0  0
  160.5770  206.5130  146.0890 C   0  0  0  0  0  2  0  0  0  0  0  0
  160.7900  205.6030  144.8860 C   0  0  0  0  0  2  0  0  0  0  0  0
  161.6340  204.3860  145.2480 C   0  0  0  0  0  2  0  0  0  0  0  0
  160.8760  203.1170  145.0210 C   0  0  0  0  0  3  0  0  0  0  0  0
  161.0490  202.1100  145.7970 N   0  0  0  0  0  0  0  0  0  0  0  0
  160.3230  200.8840  145.5850 C   0  0  0  0  0  2  0  0  0  0  0  0
  161.1990  198.6720  145.4390 O   0  0  0  0  0  0  0  0  0  0  0  0
  161.0890  199.7230  146.1220 C   0  0  0  0  0  0  0  0  0  0  0  0
  161.7100  199.8130  147.3600 O   0  0  0  0  0  1  0  0  0  0  0  0
  1  9  2  0  0  0  0
  1  7  1  0  0  0  0
  3 17  1  1  0  0  0
  3 10  1  0  0  0  0
  4 11  2  0  0  0  0
  5 16  1  0  0  0  0
  5  2  2  0  0  0  0
  6 15  2  0  0  0  0
  6 12  1  0  0  0  0
  7  2  1  0  0  0  0
  8 11  1  0  0  0  0
  9  5  1  0  0  0  0
 10  4  1  1  0  0  0
 12 14  1  0  0  0  0
 13 12  2  0  0  0  0
 13  9  1  0  0  0  0
 14 10  1  0  0  0  0
 14 16  2  0  0  0  0
 15  3  1  0  0  0  0
 17  8  2  0  0  0  0
 18  6  1  0  0  0  0
 19 18  1  0  0  0  0
 20 21  1  0  0  0  0
 20 19  1  0  0  0  0
 22 21  1  0  0  0  0
 22 23  2  0  0  0  0
 24 23  1  0  0  0  0
 24 26  1  0  0  0  0
 25 26  2  0  0  0  0
 26 27  1  0  0  0  0
M  END
>  <MODEL>
5

>  <REMARK>
 VINA RESULT:      -8.0      4.677      7.041
  Name = 
  7 active torsions:
  status: ('A' for Active; 'I' for Inactive)
    1  A    between atoms: C_4  and  C_20
    2  A    between atoms: C_4  and  N_24
    3  A    between atoms: C_5  and  C_12
    4  A    between atoms: C_5  and  C_25
    5  A    between atoms: C_6  and  C_7
    6  A    between atoms: C_6  and  C_25
    7  A    between atoms: C_10  and  C_12
                            x       y       z     vdW  Elec       q    Type
                         _______ _______ _______ _____ _____    ______ ____

>  <TORSDO>
F 7

$$$$
=
 OpenBabel11052411163D

 27 30  0  0  1  0  0  0  0  0999 V2000
  161.8310  205.4830  145.2650 C   0  0  0  0  0  3  0  0  0  0  0  0
  161.5740  203.4660  146.1800 N   0  0  0  0  0  0  0  0  0  0  0  0
  160.8090  206.8580  151.3510 C   0  0  2  0  0  3  0  0  0  0  0  0
  161.0160  204.3090  151.3930 C   0  0  0  0  0  3  0  0  0  0  0  0
  161.5020  204.4800  147.1620 C   0  0  0  0  0  0  0  0  0  0  0  0
  161.5830  208.0610  149.3950 C   0  0  0  0  0  0  0  0  0  0  0  0
  161.7670  204.0590  145.0660 N   0  0  0  0  0  0  0  0  0  0  0  0
  161.3270  205.6310  153.4340 C   0  0  0  0  0  3  0  0  0  0  0  0
  161.6600  205.6820  146.5580 C   0  0  1  0  0  3  0  0  0  0  0  0
  161.0840  205.5630  150.6110 C   0  0  1  0  0  3  0  0  0  0  0  0
  161.1190  204.3500  152.7260 C   0  0  0  0  0  3  0  0  0  0  0  0
  161.4660  206.8180  148.6010 C   0  0  0  0  0  0  0  0  0  0  0  0
  161.6600  206.8490  147.2460 N   0  0  0  0  0  0  0  0  0  0  0  0
  161.2710  205.5730  149.2770 C   0  0  0  0  0  0  0  0  0  0  0  0
  161.3570  208.0350  150.6750 N   0  0  0  0  0  0  0  0  0  0  0  0
  161.3090  204.3740  148.5310 C   0  0  0  0  0  3  0  0  0  0  0  0
  161.2340  206.8020  152.7910 C   0  0  0  0  0  3  0  0  0  0  0  0
  162.1000  209.3180  148.7730 C   0  0  0  0  0  2  0  0  0  0  0  0
  162.3340  210.3950  149.8260 C   0  0  0  0  0  2  0  0  0  0  0  0
  161.8980  211.7690  149.3300 C   0  0  0  0  0  2  0  0  0  0  0  0
  162.3260  212.0020  147.8860 C   0  0  0  0  0  2  0  0  0  0  0  0
  161.2420  212.6700  147.1030 C   0  0  0  0  0  3  0  0  0  0  0  0
  160.0970  212.8930  147.6380 N   0  0  0  0  0  0  0  0  0  0  0  0
  159.0480  213.5370  146.8900 C   0  0  0  0  0  2  0  0  0  0  0  0
  156.7320  213.9830  147.2370 O   0  0  0  0  0  0  0  0  0  0  0  0
  157.8580  213.7750  147.7570 C   0  0  0  0  0  0  0  0  0  0  0  0
  157.9860  213.7340  149.1390 O   0  0  0  0  0  1  0  0  0  0  0  0
  2  5  2  0  0  0  0
  3 17  1  1  0  0  0
  4 11  2  0  0  0  0
  5 16  1  0  0  0  0
  6 15  2  0  0  0  0
  7  1  2  0  0  0  0
  7  2  1  0  0  0  0
  9  1  1  1  0  0  0
  9  5  1  0  0  0  0
  9 13  1  0  0  0  0
 10  3  1  0  0  0  0
 10  4  1  6  0  0  0
 11  8  1  0  0  0  0
 12 14  1  0  0  0  0
 12  6  1  0  0  0  0
 13 12  2  0  0  0  0
 14 10  1  0  0  0  0
 15  3  1  0  0  0  0
 16 14  2  0  0  0  0
 17  8  2  0  0  0  0
 18  6  1  0  0  0  0
 18 19  1  0  0  0  0
 20 19  1  0  0  0  0
 21 20  1  0  0  0  0
 22 23  2  0  0  0  0
 22 21  1  0  0  0  0
 24 23  1  0  0  0  0
 24 26  1  0  0  0  0
 25 26  2  0  0  0  0
 26 27  1  0  0  0  0
M  END
>  <MODEL>
6

>  <REMARK>
 VINA RESULT:      -7.9      2.282      2.577
  Name = 
  7 active torsions:
  status: ('A' for Active; 'I' for Inactive)
    1  A    between atoms: C_4  and  C_20
    2  A    between atoms: C_4  and  N_24
    3  A    between atoms: C_5  and  C_12
    4  A    between atoms: C_5  and  C_25
    5  A    between atoms: C_6  and  C_7
    6  A    between atoms: C_6  and  C_25
    7  A    between atoms: C_10  and  C_12
                            x       y       z     vdW  Elec       q    Type
                         _______ _______ _______ _____ _____    ______ ____

>  <TORSDO>
F 7

$$$$
=
 OpenBabel11052411163D

 27 30  0  0  1  0  0  0  0  0999 V2000
  161.7860  205.4190  145.3260 C   0  0  0  0  0  3  0  0  0  0  0  0
  161.4370  203.4900  146.3890 N   0  0  0  0  0  0  0  0  0  0  0  0
  160.8850  207.2870  151.2990 C   0  0  2  0  0  3  0  0  0  0  0  0
  160.9660  204.7410  151.5290 C   0  0  0  0  0  3  0  0  0  0  0  0
  161.4240  204.5770  147.2940 C   0  0  0  0  0  0  0  0  0  0  0  0
  161.7010  208.3030  149.2560 C   0  0  0  0  0  0  0  0  0  0  0  0
  161.6500  203.9890  145.2340 N   0  0  0  0  0  0  0  0  0  0  0  0
  161.3590  206.1930  153.4650 C   0  0  0  0  0  3  0  0  0  0  0  0
  161.6360  205.7210  146.6020 C   0  0  1  0  0  3  0  0  0  0  0  0
  161.0890  205.9290  150.6560 C   0  0  1  0  0  3  0  0  0  0  0  0
  161.0820  204.8750  152.8540 C   0  0  0  0  0  3  0  0  0  0  0  0
  161.5150  207.0130  148.5560 C   0  0  0  0  0  0  0  0  0  0  0  0
  161.6990  206.9340  147.2020 N   0  0  0  0  0  0  0  0  0  0  0  0
  161.2650  205.8320  149.3240 C   0  0  0  0  0  0  0  0  0  0  0  0
  161.4850  208.3830  150.5350 N   0  0  0  0  0  0  0  0  0  0  0  0
  161.2370  204.5810  148.6690 C   0  0  0  0  0  3  0  0  0  0  0  0
  161.3190  207.3160  152.7380 C   0  0  0  0  0  3  0  0  0  0  0  0
  162.2740  209.4840  148.5400 C   0  0  0  0  0  2  0  0  0  0  0  0
  161.9250  210.7820  149.2580 C   0  0  0  0  0  2  0  0  0  0  0  0
  162.3930  212.0010  148.4720 C   0  0  0  0  0  2  0  0  0  0  0  0
  161.5830  213.2410  148.8310 C   0  0  0  0  0  2  0  0  0  0  0  0
  160.4120  212.8900  149.6930 C   0  0  0  0  0  3  0  0  0  0  0  0
  160.0350  213.6820  150.6290 N   0  0  0  0  0  0  0  0  0  0  0  0
  158.9090  213.3510  151.4640 C   0  0  0  0  0  2  0  0  0  0  0  0
  158.7780  213.2270  153.8410 O   0  0  0  0  0  1  0  0  0  0  0  0
  159.3690  212.8570  152.7930 C   0  0  0  0  0  0  0  0  0  0  0  0
  160.4280  211.9640  152.8740 O   0  0  0  0  0  0  0  0  0  0  0  0
  2  5  2  0  0  0  0
  3 17  1  1  0  0  0
  4 11  2  0  0  0  0
  5 16  1  0  0  0  0
  6 15  2  0  0  0  0
  7  1  2  0  0  0  0
  7  2  1  0  0  0  0
  9  1  1  1  0  0  0
  9 13  1  0  0  0  0
  9  5  1  0  0  0  0
 10  3  1  0  0  0  0
 10  4  1  6  0  0  0
 11  8  1  0  0  0  0
 12  6  1  0  0  0  0
 12 14  1  0  0  0  0
 13 12  2  0  0  0  0
 14 10  1  0  0  0  0
 15  3  1  0  0  0  0
 16 14  2  0  0  0  0
 17  8  2  0  0  0  0
 18  6  1  0  0  0  0
 18 19  1  0  0  0  0
 20 21  1  0  0  0  0
 20 19  1  0  0  0  0
 21 22  1  0  0  0  0
 22 23  2  0  0  0  0
 23 24  1  0  0  0  0
 24 26  1  0  0  0  0
 26 27  2  0  0  0  0
 26 25  1  0  0  0  0
M  END
>  <MODEL>
7

>  <REMARK>
 VINA RESULT:      -7.8      3.177      3.890
  Name = 
  7 active torsions:
  status: ('A' for Active; 'I' for Inactive)
    1  A    between atoms: C_4  and  C_20
    2  A    between atoms: C_4  and  N_24
    3  A    between atoms: C_5  and  C_12
    4  A    between atoms: C_5  and  C_25
    5  A    between atoms: C_6  and  C_7
    6  A    between atoms: C_6  and  C_25
    7  A    between atoms: C_10  and  C_12
                            x       y       z     vdW  Elec       q    Type
                         _______ _______ _______ _____ _____    ______ ____

>  <TORSDO>
F 7

$$$$
=
 OpenBabel11052411163D

 27 30  0  0  1  0  0  0  0  0999 V2000
  161.2180  205.4820  147.5710 C   0  0  0  0  0  3  0  0  0  0  0  0
  161.2280  207.7080  147.7070 N   0  0  0  0  0  0  0  0  0  0  0  0
  161.4730  206.4740  153.8100 C   0  0  2  0  0  3  0  0  0  0  0  0
  161.1130  208.8350  152.8960 C   0  0  0  0  0  3  0  0  0  0  0  0
  161.2240  207.1220  148.9940 C   0  0  0  0  0  0  0  0  0  0  0  0
  161.0480  204.5810  152.3600 C   0  0  0  0  0  0  0  0  0  0  0  0
  161.2250  206.7410  146.8740 N   0  0  0  0  0  0  0  0  0  0  0  0
  160.6030  208.3000  155.2330 C   0  0  0  0  0  3  0  0  0  0  0  0
  161.2210  205.7750  148.8580 C   0  0  1  0  0  3  0  0  0  0  0  0
  161.2270  207.3860  152.6240 C   0  0  1  0  0  3  0  0  0  0  0  0
  160.8310  209.2600  154.1320 C   0  0  0  0  0  3  0  0  0  0  0  0
  161.2000  205.4660  151.1830 C   0  0  0  0  0  0  0  0  0  0  0  0
  161.1960  204.9350  149.9210 N   0  0  0  0  0  0  0  0  0  0  0  0
  161.2260  206.8820  151.3740 C   0  0  0  0  0  0  0  0  0  0  0  0
  161.0930  205.0830  153.5570 N   0  0  0  0  0  0  0  0  0  0  0  0
  161.2200  207.7280  150.2420 C   0  0  0  0  0  3  0  0  0  0  0  0
  160.8520  206.9940  155.0770 C   0  0  0  0  0  3  0  0  0  0  0  0
  160.6960  203.1380  152.1890 C   0  0  0  0  0  2  0  0  0  0  0  0
  161.4110  202.5380  150.9840 C   0  0  0  0  0  2  0  0  0  0  0  0
  160.5030  201.5950  150.2040 C   0  0  0  0  0  2  0  0  0  0  0  0
  161.2070  201.0320  148.9750 C   0  0  0  0  0  2  0  0  0  0  0  0
  160.5320  201.4740  147.7160 C   0  0  0  0  0  3  0  0  0  0  0  0
  161.2260  201.8700  146.7120 N   0  0  0  0  0  0  0  0  0  0  0  0
  160.5830  202.2980  145.4960 C   0  0  0  0  0  2  0  0  0  0  0  0
  160.4480  204.4310  144.4410 O   0  0  0  0  0  0  0  0  0  0  0  0
  161.1750  203.5780  145.0140 C   0  0  0  0  0  0  0  0  0  0  0  0
  162.5210  203.8450  145.2260 O   0  0  0  0  0  1  0  0  0  0  0  0
  2  5  2  0  0  0  0
  3 17  1  1  0  0  0
  4 11  2  0  0  0  0
  5 16  1  0  0  0  0
  6 15  2  0  0  0  0
  7  1  2  0  0  0  0
  7  2  1  0  0  0  0
  9  1  1  6  0  0  0
  9  5  1  0  0  0  0
  9 13  1  0  0  0  0
 10  4  1  6  0  0  0
 10  3  1  0  0  0  0
 11  8  1  0  0  0  0
 12 14  1  0  0  0  0
 12  6  1  0  0  0  0
 13 12  2  0  0  0  0
 14 10  1  0  0  0  0
 15  3  1  0  0  0  0
 16 14  2  0  0  0  0
 17  8  2  0  0  0  0
 18  6  1  0  0  0  0
 19 18  1  0  0  0  0
 20 19  1  0  0  0  0
 21 20  1  0  0  0  0
 22 21  1  0  0  0  0
 23 22  2  0  0  0  0
 24 23  1  0  0  0  0
 25 26  2  0  0  0  0
 26 27  1  0  0  0  0
 26 24  1  0  0  0  0
M  END
>  <MODEL>
8

>  <REMARK>
 VINA RESULT:      -7.7      4.023      6.675
  Name = 
  7 active torsions:
  status: ('A' for Active; 'I' for Inactive)
    1  A    between atoms: C_4  and  C_20
    2  A    between atoms: C_4  and  N_24
    3  A    between atoms: C_5  and  C_12
    4  A    between atoms: C_5  and  C_25
    5  A    between atoms: C_6  and  C_7
    6  A    between atoms: C_6  and  C_25
    7  A    between atoms: C_10  and  C_12
                            x       y       z     vdW  Elec       q    Type
                         _______ _______ _______ _____ _____    ______ ____

>  <TORSDO>
F 7

$$$$
=
 OpenBabel11052411163D

 27 30  0  0  1  0  0  0  0  0999 V2000
  161.0420  209.4340  155.1700 C   0  0  0  0  0  3  0  0  0  0  0  0
  160.4960  207.3110  155.5830 N   0  0  0  0  0  0  0  0  0  0  0  0
  162.1100  206.6350  149.6020 C   0  0  2  0  0  3  0  0  0  0  0  0
  160.9950  204.7670  150.9480 C   0  0  0  0  0  3  0  0  0  0  0  0
  160.8680  207.4840  154.2300 C   0  0  0  0  0  0  0  0  0  0  0  0
  161.9450  208.9140  150.4080 C   0  0  0  0  0  0  0  0  0  0  0  0
  160.6000  208.4590  156.1330 N   0  0  0  0  0  2  0  0  0  0  0  0
  161.0550  204.6890  148.4980 C   0  0  0  0  0  3  0  0  0  0  0  0
  161.1920  208.7840  154.0310 C   0  0  0  0  0  0  0  0  0  0  0  0
  161.4330  206.1780  150.8800 C   0  0  1  0  0  3  0  0  0  0  0  0
  160.8310  204.0670  149.8210 C   0  0  0  0  0  3  0  0  0  0  0  0
  161.6560  208.3990  151.7650 C   0  0  0  0  0  0  0  0  0  0  0  0
  161.5710  209.2640  152.8220 N   0  0  0  0  0  0  0  0  0  0  0  0
  161.3460  207.0140  151.9340 C   0  0  0  0  0  0  0  0  0  0  0  0
  162.0660  208.0860  149.4130 N   0  0  0  0  0  0  0  0  0  0  0  0
  160.9240  206.5550  153.2020 C   0  0  0  0  0  3  0  0  0  0  0  0
  161.6040  205.9050  148.3890 C   0  0  0  0  0  3  0  0  0  0  0  0
  161.9570  210.3840  150.1350 C   0  0  0  0  0  2  0  0  0  0  0  0
  162.0110  210.6630  148.6380 C   0  0  0  0  0  2  0  0  0  0  0  0
  162.3910  212.1110  148.3510 C   0  0  0  0  0  2  0  0  0  0  0  0
  161.1570  212.9870  148.1730 C   0  0  0  0  0  2  0  0  0  0  0  0
  161.1030  213.5710  146.7970 C   0  0  0  0  0  3  0  0  0  0  0  0
  161.0650  212.8060  145.7680 N   0  0  0  0  0  0  0  0  0  0  0  0
  161.0130  213.3610  144.4400 C   0  0  0  0  0  2  0  0  0  0  0  0
  162.0690  212.2730  142.6000 O   0  0  0  0  0  0  0  0  0  0  0  0
  162.2100  212.9470  143.6530 C   0  0  0  0  0  0  0  0  0  0  0  0
  163.4790  213.3340  144.0630 O   0  0  0  0  0  1  0  0  0  0  0  0
  1  7  1  0  0  0  0
  2  7  1  0  0  0  0
  3 17  1  6  0  0  0
  3 10  1  0  0  0  0
  5  2  2  0  0  0  0
  6 12  1  0  0  0  0
  8 11  1  0  0  0  0
  9  5  1  0  0  0  0
  9  1  2  0  0  0  0
 10  4  1  1  0  0  0
 10 14  1  0  0  0  0
 11  4  2  0  0  0  0
 12 14  1  0  0  0  0
 12 13  2  0  0  0  0
 13  9  1  0  0  0  0
 14 16  2  0  0  0  0
 15  3  1  0  0  0  0
 15  6  2  0  0  0  0
 16  5  1  0  0  0  0
 17  8  2  0  0  0  0
 18  6  1  0  0  0  0
 19 18  1  0  0  0  0
 20 19  1  0  0  0  0
 21 20  1  0  0  0  0
 22 21  1  0  0  0  0
 23 22  2  0  0  0  0
 24 23  1  0  0  0  0
 25 26  2  0  0  0  0
 26 27  1  0  0  0  0
 26 24  1  0  0  0  0
M  END
>  <MODEL>
9

>  <REMARK>
 VINA RESULT:      -7.7      1.995      4.934
  Name = 
  7 active torsions:
  status: ('A' for Active; 'I' for Inactive)
    1  A    between atoms: C_4  and  C_20
    2  A    between atoms: C_4  and  N_24
    3  A    between atoms: C_5  and  C_12
    4  A    between atoms: C_5  and  C_25
    5  A    between atoms: C_6  and  C_7
    6  A    between atoms: C_6  and  C_25
    7  A    between atoms: C_10  and  C_12
                            x       y       z     vdW  Elec       q    Type
                         _______ _______ _______ _____ _____    ______ ____

>  <TORSDO>
F 7

$$$$
