=
 OpenBabel11052411453D

 40 47  0  0  1  0  0  0  0  0999 V2000
  161.6540  208.4650  149.2200 C   0  0  0  0  0  0  0  0  0  0  0  0
  161.4240  207.0730  148.9860 N   0  0  0  0  0  2  0  0  0  0  0  0
  162.2170  210.5890  148.5510 N   0  0  0  0  0  0  0  0  0  0  0  0
  162.3570  211.1820  149.8820 C   0  0  2  0  0  3  0  0  0  0  0  0
  161.6890  210.2950  150.8460 N   0  0  0  0  0  0  0  0  0  0  0  0
  161.5920  212.3800  149.4980 C   0  0  1  0  0  3  0  0  0  0  0  0
  162.0150  209.2440  148.2440 N   0  0  0  0  0  0  0  0  0  0  0  0
  161.5520  211.7970  148.1880 N   0  0  0  0  0  2  0  0  0  0  0  0
  161.3850  209.0460  150.5740 C   0  0  0  0  0  0  0  0  0  0  0  0
  161.9800  204.3660  147.3320 C   0  0  0  0  0  2  0  0  0  0  0  0
  162.8610  205.5830  147.4960 C   0  0  0  0  0  2  0  0  0  0  0  0
  161.6330  206.4450  147.6910 C   0  0  1  0  0  0  0  0  0  0  0  0
  160.7550  205.1940  147.6690 C   0  0  1  0  0  3  0  0  0  0  0  0
  160.4810  206.3340  146.7150 C   0  0  0  0  0  2  0  0  0  0  0  0
  160.2420  212.3910  150.0680 N   0  0  1  0  0  0  0  0  0  0  0  0
  160.1580  213.6220  150.8830 C   0  0  0  0  0  2  0  0  0  0  0  0
  157.9450  213.2760  149.6540 C   0  0  0  0  0  1  0  0  0  0  0  0
  159.4360  213.5530  149.6230 C   0  0  2  0  0  0  0  0  0  0  0  0
  159.9880  214.2900  148.4850 N   0  0  0  0  0  2  0  0  0  0  0  0
  158.9360  214.4530  147.4940 C   0  0  0  0  0  2  0  0  0  0  0  0
  159.1080  213.4540  146.3980 C   0  0  0  0  0  0  0  0  0  0  0  0
  161.2920  214.4520  145.6150 C   0  0  0  0  0  3  0  0  0  0  0  0
  160.2180  213.5360  145.4920 N   0  0  0  0  0  0  0  0  0  0  0  0
  160.4700  212.6210  144.3920 C   0  0  1  0  0  3  0  0  0  0  0  0
  158.2650  212.5260  146.2840 O   0  0  0  0  0  0  0  0  0  0  0  0
  159.4370  212.8320  143.2960 C   0  0  0  0  0  1  0  0  0  0  0  0
  162.2250  214.2070  144.7170 C   0  0  0  0  0  3  0  0  0  0  0  0
  161.8450  213.0360  143.8690 C   0  0  0  0  0  2  0  0  0  0  0  0
  161.6140  207.9550  152.8510 C   0  0  0  0  0  2  0  0  0  0  0  0
  160.4040  208.8670  152.9490 C   0  0  2  0  0  3  0  0  0  0  0  0
  160.7480  208.1640  151.6230 C   0  0  1  0  0  3  0  0  0  0  0  0
  162.5590  210.8840  156.5080 C   0  0  0  0  0  1  0  0  0  0  0  0
  159.7190  211.2690  153.4910 C   0  0  2  0  0  3  0  0  0  0  0  0
  160.1860  210.3390  155.8620 C   0  0  0  0  0  2  0  0  0  0  0  0
  160.8650  210.3290  153.0800 C   0  0  1  0  0  3  0  0  0  0  0  0
  159.2440  211.1390  154.9530 C   0  0  0  0  0  2  0  0  0  0  0  0
  161.9480  210.4470  154.1070 C   0  0  0  0  0  0  0  0  0  0  0  0
  163.1590  210.4760  153.7530 O   0  0  0  0  0  0  0  0  0  0  0  0
  161.5810  210.5410  155.4880 N   0  0  0  0  0  0  0  0  0  0  0  0
  158.6330  211.1710  152.6210 O   0  0  0  0  0  1  0  0  0  0  0  0
  1  9  1  0  0  0  0
  2  1  1  0  0  0  0
  3  4  1  0  0  0  0
  4  5  1  1  0  0  0
  6  8  1  6  0  0  0
  6  4  1  0  0  0  0
  6 15  1  0  0  0  0
  7  3  1  0  0  0  0
  7  1  2  0  0  0  0
  8  3  1  0  0  0  0
  9  5  2  0  0  0  0
 10 11  1  0  0  0  0
 10 13  1  0  0  0  0
 11 12  1  0  0  0  0
 12  2  1  1  0  0  0
 13 14  1  6  0  0  0
 13 12  1  0  0  0  0
 14 12  1  0  0  0  0
 15 16  1  1  0  0  0
 18 17  1  1  0  0  0
 18 15  1  0  0  0  0
 18 16  1  0  0  0  0
 19 18  1  0  0  0  0
 20 19  1  0  0  0  0
 21 20  1  0  0  0  0
 23 22  1  0  0  0  0
 23 21  1  0  0  0  0
 24 26  1  6  0  0  0
 24 23  1  0  0  0  0
 25 21  2  0  0  0  0
 27 22  2  0  0  0  0
 28 24  1  0  0  0  0
 28 27  1  0  0  0  0
 30 29  1  1  0  0  0
 30 35  1  0  0  0  0
 31  9  1  6  0  0  0
 31 29  1  0  0  0  0
 31 30  1  0  0  0  0
 33 40  1  6  0  0  0
 33 36  1  0  0  0  0
 35 33  1  0  0  0  0
 35 37  1  1  0  0  0
 36 34  1  0  0  0  0
 37 39  1  0  0  0  0
 38 37  2  0  0  0  0
 39 34  1  0  0  0  0
 39 32  1  0  0  0  0
M  END
>  <MODEL>
1

>  <REMARK>
 VINA RESULT:      -6.1      0.000      0.000
  Name = 
  7 active torsions:
  status: ('A' for Active; 'I' for Inactive)
    1  A    between atoms: C_3  and  C_35
    2  A    between atoms: N_6  and  C_25
    3  A    between atoms: N_7  and  C_15
    4  A    between atoms: C_16  and  C_23
    5  A    between atoms: C_27  and  N_39
    6  A    between atoms: C_34  and  C_37
    7  A    between atoms: C_35  and  N_39
                            x       y       z     vdW  Elec       q    Type
                         _______ _______ _______ _____ _____    ______ ____

>  <TORSDO>
F 7

$$$$
=
 OpenBabel11052411453D

 40 47  0  0  1  0  0  0  0  0999 V2000
  161.4540  208.2410  150.9020 C   0  0  0  0  0  0  0  0  0  0  0  0
  161.1450  206.8720  151.1770 N   0  0  0  0  0  2  0  0  0  0  0  0
  162.3580  209.9190  149.6190 N   0  0  0  0  0  0  0  0  0  0  0  0
  162.2600  210.9940  150.6080 C   0  0  2  0  0  3  0  0  0  0  0  0
  161.3130  210.5680  151.6480 N   0  0  0  0  0  0  0  0  0  0  0  0
  161.7200  211.9400  149.6180 C   0  0  1  0  0  3  0  0  0  0  0  0
  162.0960  208.5640  149.8180 N   0  0  0  0  0  0  0  0  0  0  0  0
  161.9100  210.8830  148.6680 N   0  0  0  0  0  2  0  0  0  0  0  0
  160.9540  209.3150  151.8170 C   0  0  0  0  0  0  0  0  0  0  0  0
  160.7470  203.8050  150.2760 C   0  0  0  0  0  2  0  0  0  0  0  0
  161.9290  204.4550  150.9570 C   0  0  0  0  0  2  0  0  0  0  0  0
  161.5700  205.7780  150.3180 C   0  0  1  0  0  0  0  0  0  0  0  0
  160.2970  205.1540  149.7480 C   0  0  1  0  0  3  0  0  0  0  0  0
  161.2850  205.8360  148.8320 C   0  0  0  0  0  2  0  0  0  0  0  0
  160.2860  212.1830  149.7970 N   0  0  1  0  0  0  0  0  0  0  0  0
  160.1790  213.4860  150.4880 C   0  0  0  0  0  2  0  0  0  0  0  0
  158.3390  213.3180  148.7230 C   0  0  0  0  0  1  0  0  0  0  0  0
  159.8110  213.3930  149.0850 C   0  0  2  0  0  0  0  0  0  0  0  0
  160.7470  213.9400  148.1010 N   0  0  0  0  0  2  0  0  0  0  0  0
  160.0090  214.2270  146.8800 C   0  0  0  0  0  2  0  0  0  0  0  0
  160.9290  214.1860  145.7060 C   0  0  0  0  0  0  0  0  0  0  0  0
  159.0740  213.6920  144.0660 C   0  0  0  0  0  3  0  0  0  0  0  0
  160.4400  213.8660  144.3960 N   0  0  0  0  0  0  0  0  0  0  0  0
  161.2540  213.7920  143.1940 C   0  0  1  0  0  3  0  0  0  0  0  0
  162.1490  214.4480  145.8810 O   0  0  0  0  0  0  0  0  0  0  0  0
  162.1620  212.5750  143.2570 C   0  0  0  0  0  1  0  0  0  0  0  0
  158.9190  213.5340  142.7660 C   0  0  0  0  0  3  0  0  0  0  0  0
  160.2390  213.6000  142.0670 C   0  0  0  0  0  2  0  0  0  0  0  0
  160.7300  208.5870  154.2360 C   0  0  0  0  0  2  0  0  0  0  0  0
  159.9830  209.9040  154.1290 C   0  0  2  0  0  3  0  0  0  0  0  0
  160.0180  208.9270  152.9400 C   0  0  1  0  0  3  0  0  0  0  0  0
  163.1820  211.0630  157.2610 C   0  0  0  0  0  1  0  0  0  0  0  0
  160.3570  212.4030  154.5140 C   0  0  2  0  0  3  0  0  0  0  0  0
  160.7220  211.4730  156.9020 C   0  0  0  0  0  2  0  0  0  0  0  0
  160.9880  211.0680  154.0800 C   0  0  1  0  0  3  0  0  0  0  0  0
  160.0570  212.5380  156.0210 C   0  0  0  0  0  2  0  0  0  0  0  0
  162.1520  210.7950  154.9810 C   0  0  0  0  0  0  0  0  0  0  0  0
  163.2240  210.3260  154.5090 O   0  0  0  0  0  0  0  0  0  0  0  0
  162.0270  211.0900  156.3770 N   0  0  0  0  0  0  0  0  0  0  0  0
  159.2180  212.7040  153.7670 O   0  0  0  0  0  1  0  0  0  0  0  0
  1  2  1  0  0  0  0
  1  9  1  0  0  0  0
  3  7  1  0  0  0  0
  3  4  1  0  0  0  0
  4  5  1  1  0  0  0
  5  9  2  0  0  0  0
  6  8  1  6  0  0  0
  6 15  1  0  0  0  0
  6  4  1  0  0  0  0
  7  1  2  0  0  0  0
  8  3  1  0  0  0  0
 10 11  1  0  0  0  0
 12 11  1  0  0  0  0
 12  2  1  1  0  0  0
 13 14  1  6  0  0  0
 13 10  1  0  0  0  0
 13 12  1  0  0  0  0
 14 12  1  0  0  0  0
 15 16  1  1  0  0  0
 18 17  1  6  0  0  0
 18 15  1  0  0  0  0
 18 16  1  0  0  0  0
 19 18  1  0  0  0  0
 20 19  1  0  0  0  0
 21 25  2  0  0  0  0
 21 20  1  0  0  0  0
 22 23  1  0  0  0  0
 23 21  1  0  0  0  0
 24 26  1  1  0  0  0
 24 23  1  0  0  0  0
 27 22  2  0  0  0  0
 28 27  1  0  0  0  0
 28 24  1  0  0  0  0
 30 29  1  1  0  0  0
 31  9  1  6  0  0  0
 31 30  1  0  0  0  0
 31 29  1  0  0  0  0
 33 40  1  6  0  0  0
 33 36  1  0  0  0  0
 35 30  1  0  0  0  0
 35 33  1  0  0  0  0
 35 37  1  1  0  0  0
 36 34  1  0  0  0  0
 37 39  1  0  0  0  0
 38 37  2  0  0  0  0
 39 34  1  0  0  0  0
 39 32  1  0  0  0  0
M  END
>  <MODEL>
2

>  <REMARK>
 VINA RESULT:      -5.4      1.605      1.969
  Name = 
  7 active torsions:
  status: ('A' for Active; 'I' for Inactive)
    1  A    between atoms: C_3  and  C_35
    2  A    between atoms: N_6  and  C_25
    3  A    between atoms: N_7  and  C_15
    4  A    between atoms: C_16  and  C_23
    5  A    between atoms: C_27  and  N_39
    6  A    between atoms: C_34  and  C_37
    7  A    between atoms: C_35  and  N_39
                            x       y       z     vdW  Elec       q    Type
                         _______ _______ _______ _____ _____    ______ ____

>  <TORSDO>
F 7

$$$$
=
 OpenBabel11052411453D

 40 47  0  0  1  0  0  0  0  0999 V2000
  158.5320  212.6810  152.7390 C   0  0  0  0  0  0  0  0  0  0  0  0
  157.4190  213.5800  152.7520 N   0  0  0  0  0  2  0  0  0  0  0  0
  159.5360  210.6580  153.1580 N   0  0  0  0  0  0  0  0  0  0  0  0
  160.9190  211.0710  152.9110 C   0  0  2  0  0  3  0  0  0  0  0  0
  160.8860  212.3370  152.1630 N   0  0  0  0  0  0  0  0  0  0  0  0
  161.1990  209.8730  152.1040 C   0  0  1  0  0  3  0  0  0  0  0  0
  158.4080  211.4750  153.2090 N   0  0  0  0  0  0  0  0  0  0  0  0
  159.8650  209.4690  152.4410 N   0  0  0  0  0  2  0  0  0  0  0  0
  159.8180  213.0980  152.0950 C   0  0  0  0  0  0  0  0  0  0  0  0
  155.5200  213.5660  155.3540 C   0  0  0  0  0  2  0  0  0  0  0  0
  156.1070  212.3990  154.5940 C   0  0  0  0  0  2  0  0  0  0  0  0
  156.1310  213.2340  153.3320 C   0  0  1  0  0  0  0  0  0  0  0  0
  155.6740  214.4530  154.1330 C   0  0  1  0  0  3  0  0  0  0  0  0
  154.8920  214.0010  152.9210 C   0  0  0  0  0  2  0  0  0  0  0  0
  161.2740  210.1650  150.6710 N   0  0  1  0  0  0  0  0  0  0  0  0
  162.7040  210.4010  150.3800 C   0  0  0  0  0  2  0  0  0  0  0  0
  161.6650  209.0690  148.4620 C   0  0  0  0  0  1  0  0  0  0  0  0
  162.0780  209.1730  149.9190 C   0  0  2  0  0  0  0  0  0  0  0  0
  162.3820  207.9410  150.6490 N   0  0  0  0  0  2  0  0  0  0  0  0
  161.3730  206.9490  150.3110 C   0  0  0  0  0  2  0  0  0  0  0  0
  161.5530  205.7300  151.1530 C   0  0  0  0  0  0  0  0  0  0  0  0
  160.9420  204.1500  149.2810 C   0  0  0  0  0  3  0  0  0  0  0  0
  161.2750  204.4230  150.6300 N   0  0  0  0  0  0  0  0  0  0  0  0
  161.4100  203.1790  151.3690 C   0  0  1  0  0  3  0  0  0  0  0  0
  161.9640  205.8640  152.3360 O   0  0  0  0  0  0  0  0  0  0  0  0
  160.3270  203.0890  152.4320 C   0  0  0  0  0  1  0  0  0  0  0  0
  160.8700  202.8510  149.0660 C   0  0  0  0  0  3  0  0  0  0  0  0
  161.1720  202.0940  150.3190 C   0  0  0  0  0  2  0  0  0  0  0  0
  160.8780  214.4530  150.2320 C   0  0  0  0  0  2  0  0  0  0  0  0
  159.4020  214.3570  149.8870 C   0  0  2  0  0  3  0  0  0  0  0  0
  159.8590  214.4170  151.3560 C   0  0  1  0  0  3  0  0  0  0  0  0
  160.0740  212.7600  145.5990 C   0  0  0  0  0  1  0  0  0  0  0  0
  157.6070  212.7970  148.9510 C   0  0  2  0  0  3  0  0  0  0  0  0
  158.3090  214.0830  146.8160 C   0  0  0  0  0  2  0  0  0  0  0  0
  159.0890  212.9570  149.3300 C   0  0  1  0  0  3  0  0  0  0  0  0
  157.1590  213.5560  147.6850 C   0  0  0  0  0  2  0  0  0  0  0  0
  159.9100  212.6830  148.1090 C   0  0  0  0  0  0  0  0  0  0  0  0
  160.9760  212.0140  148.1970 O   0  0  0  0  0  0  0  0  0  0  0  0
  159.4530  213.1800  146.8460 N   0  0  0  0  0  0  0  0  0  0  0  0
  156.7630  213.1030  150.0190 O   0  0  0  0  0  1  0  0  0  0  0  0
  1  2  1  0  0  0  0
  1  7  2  0  0  0  0
  3  7  1  0  0  0  0
  4  5  1  6  0  0  0
  4  3  1  0  0  0  0
  6  8  1  6  0  0  0
  6  4  1  0  0  0  0
  8  3  1  0  0  0  0
  9  5  2  0  0  0  0
  9  1  1  0  0  0  0
 11 10  1  0  0  0  0
 12  2  1  6  0  0  0
 12 13  1  0  0  0  0
 12 11  1  0  0  0  0
 13 14  1  6  0  0  0
 13 10  1  0  0  0  0
 14 12  1  0  0  0  0
 15 16  1  1  0  0  0
 15  6  1  0  0  0  0
 18 17  1  6  0  0  0
 18 16  1  0  0  0  0
 18 19  1  0  0  0  0
 18 15  1  0  0  0  0
 20 19  1  0  0  0  0
 20 21  1  0  0  0  0
 21 25  2  0  0  0  0
 22 23  1  0  0  0  0
 23 21  1  0  0  0  0
 23 24  1  0  0  0  0
 24 26  1  1  0  0  0
 27 22  2  0  0  0  0
 27 28  1  0  0  0  0
 28 24  1  0  0  0  0
 29 31  1  0  0  0  0
 30 29  1  6  0  0  0
 30 31  1  0  0  0  0
 31  9  1  1  0  0  0
 32 39  1  0  0  0  0
 33 35  1  0  0  0  0
 33 40  1  1  0  0  0
 34 39  1  0  0  0  0
 34 36  1  0  0  0  0
 35 37  1  6  0  0  0
 35 30  1  0  0  0  0
 36 33  1  0  0  0  0
 37 38  2  0  0  0  0
 39 37  1  0  0  0  0
M  END
>  <MODEL>
3

>  <REMARK>
 VINA RESULT:      -5.2      2.809      8.496
  Name = 
  7 active torsions:
  status: ('A' for Active; 'I' for Inactive)
    1  A    between atoms: C_3  and  C_35
    2  A    between atoms: N_6  and  C_25
    3  A    between atoms: N_7  and  C_15
    4  A    between atoms: C_16  and  C_23
    5  A    between atoms: C_27  and  N_39
    6  A    between atoms: C_34  and  C_37
    7  A    between atoms: C_35  and  N_39
                            x       y       z     vdW  Elec       q    Type
                         _______ _______ _______ _____ _____    ______ ____

>  <TORSDO>
F 7

$$$$
=
 OpenBabel11052411453D

 40 47  0  0  1  0  0  0  0  0999 V2000
  159.7690  212.5620  153.5950 C   0  0  0  0  0  0  0  0  0  0  0  0
  159.9840  212.6700  155.0050 N   0  0  0  0  0  2  0  0  0  0  0  0
  158.6600  213.0680  151.6480 N   0  0  0  0  0  0  0  0  0  0  0  0
  159.2700  212.0390  150.8040 C   0  0  2  0  0  3  0  0  0  0  0  0
  160.4840  211.5590  151.4800 N   0  0  0  0  0  0  0  0  0  0  0  0
  159.4990  212.9890  149.7030 C   0  0  1  0  0  3  0  0  0  0  0  0
  158.8040  213.2220  153.0260 N   0  0  0  0  0  0  0  0  0  0  0  0
  158.8220  213.9430  150.5330 N   0  0  0  0  0  2  0  0  0  0  0  0
  160.7180  211.7620  152.7560 C   0  0  0  0  0  0  0  0  0  0  0  0
  157.6780  212.6840  157.2540 C   0  0  0  0  0  2  0  0  0  0  0  0
  157.6330  213.2030  155.8360 C   0  0  0  0  0  2  0  0  0  0  0  0
  159.1240  213.4520  155.8780 C   0  0  1  0  0  0  0  0  0  0  0  0
  159.1910  212.7950  157.2560 C   0  0  1  0  0  3  0  0  0  0  0  0
  159.7230  214.1950  157.0540 C   0  0  0  0  0  2  0  0  0  0  0  0
  160.9080  213.3700  149.5730 N   0  0  1  0  0  0  0  0  0  0  0  0
  161.5670  212.2460  148.8730 C   0  0  0  0  0  2  0  0  0  0  0  0
  162.5110  214.4530  147.9950 C   0  0  0  0  0  1  0  0  0  0  0  0
  161.3460  213.4960  148.1630 C   0  0  2  0  0  0  0  0  0  0  0  0
  160.2620  213.5330  147.1790 N   0  0  0  0  0  2  0  0  0  0  0  0
  160.8340  213.8630  145.8830 C   0  0  0  0  0  2  0  0  0  0  0  0
  160.2070  213.0230  144.8200 C   0  0  0  0  0  0  0  0  0  0  0  0
  162.2820  213.0120  143.3810 C   0  0  0  0  0  3  0  0  0  0  0  0
  160.9220  212.6980  143.6190 N   0  0  0  0  0  0  0  0  0  0  0  0
  160.4000  211.8970  142.5250 C   0  0  1  0  0  3  0  0  0  0  0  0
  159.0370  212.5930  144.9970 O   0  0  0  0  0  0  0  0  0  0  0  0
  159.3190  212.6700  141.7870 C   0  0  0  0  0  1  0  0  0  0  0  0
  162.7000  212.4760  142.2510 C   0  0  0  0  0  3  0  0  0  0  0  0
  161.6000  211.7040  141.5980 C   0  0  0  0  0  2  0  0  0  0  0  0
  161.7830  210.8950  154.8880 C   0  0  0  0  0  2  0  0  0  0  0  0
  161.8360  209.7430  153.8990 C   0  0  2  0  0  3  0  0  0  0  0  0
  161.9580  211.1990  153.4110 C   0  0  1  0  0  3  0  0  0  0  0  0
  159.6990  206.9320  156.8850 C   0  0  0  0  0  1  0  0  0  0  0  0
  160.4580  207.8400  152.8950 C   0  0  2  0  0  3  0  0  0  0  0  0
  161.3880  206.7070  155.0290 C   0  0  0  0  0  2  0  0  0  0  0  0
  160.4440  209.1020  153.7750 C   0  0  1  0  0  3  0  0  0  0  0  0
  161.1300  206.6010  153.5200 C   0  0  0  0  0  2  0  0  0  0  0  0
  159.9220  208.7160  155.1240 C   0  0  0  0  0  0  0  0  0  0  0  0
  159.1200  209.4740  155.7360 O   0  0  0  0  0  0  0  0  0  0  0  0
  160.3380  207.4690  155.6940 N   0  0  0  0  0  0  0  0  0  0  0  0
  160.9970  208.0960  151.6340 O   0  0  0  0  0  1  0  0  0  0  0  0
  1  2  1  0  0  0  0
  3  7  1  0  0  0  0
  4  5  1  1  0  0  0
  4  3  1  0  0  0  0
  5  9  2  0  0  0  0
  6  8  1  1  0  0  0
  6  4  1  0  0  0  0
  7  1  2  0  0  0  0
  8  3  1  0  0  0  0
  9  1  1  0  0  0  0
 10 13  1  0  0  0  0
 11 12  1  0  0  0  0
 11 10  1  0  0  0  0
 12  2  1  6  0  0  0
 12 14  1  0  0  0  0
 12 13  1  0  0  0  0
 13 14  1  1  0  0  0
 15 16  1  6  0  0  0
 15  6  1  0  0  0  0
 18 17  1  6  0  0  0
 18 16  1  0  0  0  0
 18 15  1  0  0  0  0
 19 18  1  0  0  0  0
 20 19  1  0  0  0  0
 21 25  2  0  0  0  0
 21 20  1  0  0  0  0
 22 23  1  0  0  0  0
 23 21  1  0  0  0  0
 24 26  1  6  0  0  0
 24 23  1  0  0  0  0
 27 22  2  0  0  0  0
 28 27  1  0  0  0  0
 28 24  1  0  0  0  0
 30 29  1  1  0  0  0
 31  9  1  6  0  0  0
 31 30  1  0  0  0  0
 31 29  1  0  0  0  0
 33 40  1  6  0  0  0
 33 36  1  0  0  0  0
 33 35  1  0  0  0  0
 34 39  1  0  0  0  0
 35 30  1  0  0  0  0
 35 37  1  1  0  0  0
 36 34  1  0  0  0  0
 37 39  1  0  0  0  0
 37 38  2  0  0  0  0
 39 32  1  0  0  0  0
M  END
>  <MODEL>
4

>  <REMARK>
 VINA RESULT:      -3.5      3.015      5.654
  Name = 
  7 active torsions:
  status: ('A' for Active; 'I' for Inactive)
    1  A    between atoms: C_3  and  C_35
    2  A    between atoms: N_6  and  C_25
    3  A    between atoms: N_7  and  C_15
    4  A    between atoms: C_16  and  C_23
    5  A    between atoms: C_27  and  N_39
    6  A    between atoms: C_34  and  C_37
    7  A    between atoms: C_35  and  N_39
                            x       y       z     vdW  Elec       q    Type
                         _______ _______ _______ _____ _____    ______ ____

>  <TORSDO>
F 7

$$$$
=
 OpenBabel11052411453D

 40 47  0  0  1  0  0  0  0  0999 V2000
  158.8610  212.7060  152.3260 C   0  0  0  0  0  0  0  0  0  0  0  0
  157.7510  213.6080  152.3800 N   0  0  0  0  0  2  0  0  0  0  0  0
  159.8830  210.6900  152.7330 N   0  0  0  0  0  0  0  0  0  0  0  0
  161.2510  211.0950  152.4040 C   0  0  2  0  0  3  0  0  0  0  0  0
  161.1800  212.3440  151.6320 N   0  0  0  0  0  0  0  0  0  0  0  0
  161.4870  209.8790  151.6080 C   0  0  1  0  0  3  0  0  0  0  0  0
  158.7600  211.5100  152.8270 N   0  0  0  0  0  0  0  0  0  0  0  0
  160.1710  209.4860  152.0240 N   0  0  0  0  0  2  0  0  0  0  0  0
  160.1110  213.1070  151.6050 C   0  0  0  0  0  0  0  0  0  0  0  0
  156.0630  213.4720  155.1190 C   0  0  0  0  0  2  0  0  0  0  0  0
  156.5250  212.3450  154.2260 C   0  0  0  0  0  2  0  0  0  0  0  0
  156.4960  213.2770  153.0350 C   0  0  1  0  0  0  0  0  0  0  0  0
  156.1690  214.4470  153.9620 C   0  0  1  0  0  3  0  0  0  0  0  0
  155.2720  214.1330  152.7870 C   0  0  0  0  0  2  0  0  0  0  0  0
  161.4840  210.1410  150.1670 N   0  0  1  0  0  0  0  0  0  0  0  0
  162.8950  210.0370  149.7350 C   0  0  0  0  0  2  0  0  0  0  0  0
  161.3930  208.9760  147.9610 C   0  0  0  0  0  1  0  0  0  0  0  0
  161.9600  208.9860  149.3680 C   0  0  2  0  0  0  0  0  0  0  0  0
  162.0430  207.7200  150.0990 N   0  0  0  0  0  2  0  0  0  0  0  0
  160.7070  207.1470  150.1710 C   0  0  0  0  0  2  0  0  0  0  0  0
  160.6020  205.9820  149.2430 C   0  0  0  0  0  0  0  0  0  0  0  0
  160.9850  204.2850  151.0730 C   0  0  0  0  0  3  0  0  0  0  0  0
  160.8040  204.6420  149.7140 N   0  0  0  0  0  0  0  0  0  0  0  0
  160.7320  203.4460  148.8930 C   0  0  1  0  0  3  0  0  0  0  0  0
  160.3230  206.1930  148.0330 O   0  0  0  0  0  0  0  0  0  0  0  0
  161.9220  203.3950  147.9470 C   0  0  0  0  0  1  0  0  0  0  0  0
  161.0160  202.9750  151.2160 C   0  0  0  0  0  3  0  0  0  0  0  0
  160.8400  202.2970  149.8950 C   0  0  0  0  0  2  0  0  0  0  0  0
  161.1200  214.4440  149.7020 C   0  0  0  0  0  2  0  0  0  0  0  0
  159.6430  214.3070  149.3750 C   0  0  2  0  0  3  0  0  0  0  0  0
  160.1130  214.4090  150.8370 C   0  0  1  0  0  3  0  0  0  0  0  0
  160.3430  212.6210  145.1260 C   0  0  0  0  0  1  0  0  0  0  0  0
  157.8770  212.6910  148.4780 C   0  0  2  0  0  3  0  0  0  0  0  0
  158.5540  213.9380  146.3120 C   0  0  0  0  0  2  0  0  0  0  0  0
  159.3570  212.8880  148.8520 C   0  0  1  0  0  3  0  0  0  0  0  0
  157.4150  213.4100  147.1940 C   0  0  0  0  0  2  0  0  0  0  0  0
  160.1820  212.6010  147.6370 C   0  0  0  0  0  0  0  0  0  0  0  0
  161.2610  211.9540  147.7400 O   0  0  0  0  0  0  0  0  0  0  0  0
  159.7150  213.0580  146.3630 N   0  0  0  0  0  0  0  0  0  0  0  0
  157.0290  213.0060  149.5390 O   0  0  0  0  0  1  0  0  0  0  0  0
  1  2  1  0  0  0  0
  1  7  2  0  0  0  0
  3  7  1  0  0  0  0
  4  5  1  6  0  0  0
  4  3  1  0  0  0  0
  6  8  1  6  0  0  0
  6  4  1  0  0  0  0
  8  3  1  0  0  0  0
  9  5  2  0  0  0  0
  9  1  1  0  0  0  0
 11 10  1  0  0  0  0
 12  2  1  6  0  0  0
 12 13  1  0  0  0  0
 12 11  1  0  0  0  0
 13 14  1  6  0  0  0
 13 10  1  0  0  0  0
 14 12  1  0  0  0  0
 15 16  1  1  0  0  0
 15  6  1  0  0  0  0
 18 17  1  6  0  0  0
 18 16  1  0  0  0  0
 18 19  1  0  0  0  0
 18 15  1  0  0  0  0
 19 20  1  0  0  0  0
 21 23  1  0  0  0  0
 21 20  1  0  0  0  0
 22 27  2  0  0  0  0
 23 22  1  0  0  0  0
 24 26  1  6  0  0  0
 24 23  1  0  0  0  0
 24 28  1  0  0  0  0
 25 21  2  0  0  0  0
 28 27  1  0  0  0  0
 29 31  1  0  0  0  0
 30 29  1  6  0  0  0
 30 31  1  0  0  0  0
 31  9  1  1  0  0  0
 32 39  1  0  0  0  0
 33 35  1  0  0  0  0
 33 40  1  1  0  0  0
 34 39  1  0  0  0  0
 34 36  1  0  0  0  0
 35 37  1  6  0  0  0
 35 30  1  0  0  0  0
 36 33  1  0  0  0  0
 37 38  2  0  0  0  0
 39 37  1  0  0  0  0
M  END
>  <MODEL>
5

>  <REMARK>
 VINA RESULT:      -3.4      2.641      8.225
  Name = 
  7 active torsions:
  status: ('A' for Active; 'I' for Inactive)
    1  A    between atoms: C_3  and  C_35
    2  A    between atoms: N_6  and  C_25
    3  A    between atoms: N_7  and  C_15
    4  A    between atoms: C_16  and  C_23
    5  A    between atoms: C_27  and  N_39
    6  A    between atoms: C_34  and  C_37
    7  A    between atoms: C_35  and  N_39
                            x       y       z     vdW  Elec       q    Type
                         _______ _______ _______ _____ _____    ______ ____

>  <TORSDO>
F 7

$$$$
