=
 OpenBabel11052410533D

 30 34  0  0  1  0  0  0  0  0999 V2000
  160.3400  209.9080  155.6250 C   0  0  0  0  0  0  0  0  0  0  0  0
  161.1870  210.7060  151.7270 C   0  0  0  0  0  0  0  0  0  0  0  0
  160.2780  212.6700  151.0610 C   0  0  0  0  0  0  0  0  0  0  0  0
  157.3630  213.2130  154.0560 C   0  0  0  0  0  2  0  0  0  0  0  0
  161.7170  211.6060  149.3630 N   0  0  0  0  0  0  0  0  0  0  0  0
  157.8710  213.7160  151.6740 C   0  0  0  0  0  3  0  0  0  0  0  0
  160.7380  208.6680  154.8460 C   0  0  0  0  0  2  0  0  0  0  0  0
  161.8880  210.6500  150.3920 C   0  0  0  0  0  3  0  0  0  0  0  0
  159.4490  212.4520  156.4460 C   0  0  0  0  0  0  0  0  0  0  0  0
  160.9090  212.5760  149.8040 C   0  0  0  0  0  0  0  0  0  0  0  0
  158.4960  213.5930  150.2400 C   0  0  0  0  0  2  0  0  0  0  0  0
  156.2100  212.4170  154.1780 O   0  0  0  0  0  0  0  0  0  0  0  0
  159.0130  210.1770  155.8690 N   0  0  0  0  0  0  0  0  0  0  0  0
  159.0350  213.7030  156.7660 F   0  0  0  0  0  0  0  0  0  0  0  0
  161.5140  209.8060  152.8550 C   0  0  0  0  0  2  0  0  0  0  0  0
  158.0950  212.9150  152.7780 C   0  0  0  0  0  0  0  0  0  0  0  0
  156.5200  211.2740  154.9660 C   0  0  1  0  0  3  0  0  0  0  0  0
  157.0730  211.5740  156.3780 C   0  0  0  0  0  2  0  0  0  0  0  0
  160.2910  211.7980  152.0260 C   0  0  0  0  0  0  0  0  0  0  0  0
  161.2870  210.9150  155.8640 C   0  0  0  0  0  0  0  0  0  0  0  0
  160.0690  213.6980  150.1310 C   0  0  1  0  0  3  0  0  0  0  0  0
  160.8130  212.2040  156.2190 C   0  0  0  0  0  3  0  0  0  0  0  0
  160.5750  209.0320  153.3960 C   0  0  0  0  0  2  0  0  0  0  0  0
  158.5510  211.3820  156.3040 C   0  0  0  0  0  0  0  0  0  0  0  0
  159.0470  211.6950  152.8590 C   0  0  0  0  0  2  0  0  0  0  0  0
  162.7080  210.6320  155.7760 N   0  0  0  0  0  0  0  0  0  0  0  0
  163.4680  210.7030  156.8230 C   0  0  0  0  0  2  0  0  0  0  0  0
  155.2810  210.3850  155.1030 C   0  0  0  0  0  2  0  0  0  0  0  0
  153.7060  209.5780  156.5110 O   0  0  0  0  0  1  0  0  0  0  0  0
  154.8100  210.3590  156.4870 N   0  0  0  0  0  2  0  0  0  0  0  0
  1 20  2  0  0  0  0
  1 13  1  0  0  0  0
  2 19  1  0  0  0  0
  2 15  1  0  0  0  0
  3 19  2  0  0  0  0
  4 12  1  0  0  0  0
  5 10  2  0  0  0  0
  5  8  1  0  0  0  0
  6 16  2  0  0  0  0
  7  1  1  0  0  0  0
  8  2  2  0  0  0  0
  9 14  1  0  0  0  0
 10 21  1  0  0  0  0
 10  3  1  0  0  0  0
 11  6  1  0  0  0  0
 12 17  1  0  0  0  0
 13 24  2  0  0  0  0
 15 23  1  0  0  0  0
 16 25  1  0  0  0  0
 16  4  1  0  0  0  0
 17 28  1  1  0  0  0
 17 18  1  0  0  0  0
 19 25  1  0  0  0  0
 20 22  1  0  0  0  0
 21 11  1  6  0  0  0
 21  3  1  0  0  0  0
 22  9  2  0  0  0  0
 23  7  1  0  0  0  0
 24 18  1  0  0  0  0
 24  9  1  0  0  0  0
 26 20  1  0  0  0  0
 26 27  2  0  0  0  0
 28 30  1  0  0  0  0
 30 29  1  0  0  0  0
M  END
>  <MODEL>
1

>  <REMARK>
 VINA RESULT:      -5.1      0.000      0.000
  Name = 
  3 active torsions:
  status: ('A' for Active; 'I' for Inactive)
    1  A    between atoms: N_14  and  C_27
    2  A    between atoms: C_19  and  C_27
    3  A    between atoms: N_20  and  C_23
                            x       y       z     vdW  Elec       q    Type
                         _______ _______ _______ _____ _____    ______ ____

>  <TORSDO>
F 3

$$$$
=
 OpenBabel11052410533D

 30 34  0  0  1  0  0  0  0  0999 V2000
  159.8640  209.8120  156.5010 C   0  0  0  0  0  0  0  0  0  0  0  0
  161.3210  208.8770  152.8200 C   0  0  0  0  0  0  0  0  0  0  0  0
  161.4850  210.7080  151.4980 C   0  0  0  0  0  0  0  0  0  0  0  0
  158.9030  213.3470  153.5300 C   0  0  0  0  0  2  0  0  0  0  0  0
  162.4110  208.6570  150.4870 N   0  0  0  0  0  0  0  0  0  0  0  0
  159.7920  212.7930  151.2750 C   0  0  0  0  0  3  0  0  0  0  0  0
  159.7100  208.3400  156.1660 C   0  0  0  0  0  2  0  0  0  0  0  0
  162.0300  208.1060  151.7330 C   0  0  0  0  0  3  0  0  0  0  0  0
  160.1840  212.6110  156.4390 C   0  0  0  0  0  0  0  0  0  0  0  0
  162.1090  209.9600  150.4790 C   0  0  0  0  0  0  0  0  0  0  0  0
  160.4120  211.9650  150.0950 C   0  0  0  0  0  2  0  0  0  0  0  0
  157.5070  213.1860  153.5850 O   0  0  0  0  0  0  0  0  0  0  0  0
  158.7970  210.6690  156.3660 N   0  0  0  0  0  0  0  0  0  0  0  0
  160.3690  213.9500  156.3360 F   0  0  0  0  0  0  0  0  0  0  0  0
  161.0950  208.3420  154.1800 C   0  0  0  0  0  2  0  0  0  0  0  0
  159.5230  212.3770  152.5650 C   0  0  0  0  0  0  0  0  0  0  0  0
  157.1830  212.3410  154.6830 C   0  0  1  0  0  3  0  0  0  0  0  0
  157.6870  212.8250  156.0620 C   0  0  0  0  0  2  0  0  0  0  0  0
  161.0090  210.2730  152.6280 C   0  0  0  0  0  0  0  0  0  0  0  0
  161.1450  210.3540  156.6870 C   0  0  0  0  0  0  0  0  0  0  0  0
  161.8580  211.3680  150.3180 C   0  0  1  0  0  3  0  0  0  0  0  0
  161.2920  211.7620  156.5940 C   0  0  0  0  0  3  0  0  0  0  0  0
  159.8610  208.2470  154.6730 C   0  0  0  0  0  2  0  0  0  0  0  0
  158.9090  212.0270  156.3720 C   0  0  0  0  0  0  0  0  0  0  0  0
  159.7920  210.9710  153.1590 C   0  0  0  0  0  2  0  0  0  0  0  0
  162.2750  209.4970  156.9940 N   0  0  0  0  0  0  0  0  0  0  0  0
  163.4410  209.9970  157.2570 C   0  0  0  0  0  2  0  0  0  0  0  0
  155.6670  212.1420  154.7570 C   0  0  0  0  0  2  0  0  0  0  0  0
  155.1540  210.2730  155.9230 O   0  0  0  0  0  1  0  0  0  0  0  0
  155.3240  210.7240  154.6590 N   0  0  0  0  0  2  0  0  0  0  0  0
  1 20  1  0  0  0  0
  2 15  1  0  0  0  0
  3 19  2  0  0  0  0
  4 12  1  0  0  0  0
  5  8  1  0  0  0  0
  6 16  2  0  0  0  0
  7  1  1  0  0  0  0
  8  2  2  0  0  0  0
  9 22  1  0  0  0  0
 10  5  2  0  0  0  0
 10  3  1  0  0  0  0
 11  6  1  0  0  0  0
 12 17  1  0  0  0  0
 13 24  1  0  0  0  0
 13  1  2  0  0  0  0
 14  9  1  0  0  0  0
 15 23  1  0  0  0  0
 16 25  1  0  0  0  0
 16  4  1  0  0  0  0
 17 28  1  1  0  0  0
 17 18  1  0  0  0  0
 18 24  1  0  0  0  0
 19  2  1  0  0  0  0
 19 25  1  0  0  0  0
 20 26  1  0  0  0  0
 21 11  1  6  0  0  0
 21 10  1  0  0  0  0
 21  3  1  0  0  0  0
 22 20  2  0  0  0  0
 23  7  1  0  0  0  0
 24  9  2  0  0  0  0
 26 27  2  0  0  0  0
 30 28  1  0  0  0  0
 30 29  1  0  0  0  0
M  END
>  <MODEL>
2

>  <REMARK>
 VINA RESULT:      -4.3      1.355      1.850
  Name = 
  3 active torsions:
  status: ('A' for Active; 'I' for Inactive)
    1  A    between atoms: N_14  and  C_27
    2  A    between atoms: C_19  and  C_27
    3  A    between atoms: N_20  and  C_23
                            x       y       z     vdW  Elec       q    Type
                         _______ _______ _______ _____ _____    ______ ____

>  <TORSDO>
F 3

$$$$
=
 OpenBabel11052410533D

 30 34  0  0  1  0  0  0  0  0999 V2000
  160.4900  211.6090  153.2430 C   0  0  0  0  0  0  0  0  0  0  0  0
  161.3820  208.5560  150.7080 C   0  0  0  0  0  0  0  0  0  0  0  0
  160.7430  206.5550  151.5540 C   0  0  0  0  0  0  0  0  0  0  0  0
  160.3510  207.5450  155.6310 C   0  0  0  0  0  2  0  0  0  0  0  0
  161.6150  206.4340  149.2500 N   0  0  0  0  0  0  0  0  0  0  0  0
  160.8900  205.6660  154.0940 C   0  0  0  0  0  3  0  0  0  0  0  0
  161.5620  211.9780  152.2340 C   0  0  0  0  0  2  0  0  0  0  0  0
  161.7200  207.8340  149.4260 C   0  0  0  0  0  3  0  0  0  0  0  0
  158.7040  210.2820  154.9720 C   0  0  0  0  0  0  0  0  0  0  0  0
  161.1050  205.8950  150.3620 C   0  0  0  0  0  0  0  0  0  0  0  0
  161.3620  204.8990  152.8090 C   0  0  0  0  0  2  0  0  0  0  0  0
  161.4390  207.8500  156.4690 O   0  0  0  0  0  0  0  0  0  0  0  0
  160.8380  211.2550  154.5250 N   0  0  0  0  0  0  0  0  0  0  0  0
  157.8540  209.5770  155.7590 F   0  0  0  0  0  0  0  0  0  0  0  0
  161.3200  210.0290  150.8180 C   0  0  0  0  0  2  0  0  0  0  0  0
  160.8200  207.0300  154.3000 C   0  0  0  0  0  0  0  0  0  0  0  0
  161.7260  209.2400  156.3650 C   0  0  1  0  0  3  0  0  0  0  0  0
  160.5510  210.1850  156.7040 C   0  0  0  0  0  2  0  0  0  0  0  0
  160.8970  207.8130  151.8460 C   0  0  0  0  0  0  0  0  0  0  0  0
  159.1790  211.3660  152.8080 C   0  0  0  0  0  0  0  0  0  0  0  0
  160.5570  205.1670  151.4760 C   0  0  1  0  0  3  0  0  0  0  0  0
  158.3140  210.6450  153.6710 C   0  0  0  0  0  3  0  0  0  0  0  0
  162.0830  210.6720  151.7010 C   0  0  0  0  0  2  0  0  0  0  0  0
  159.9890  210.6490  155.4020 C   0  0  0  0  0  0  0  0  0  0  0  0
  161.1860  208.1410  153.2820 C   0  0  0  0  0  2  0  0  0  0  0  0
  158.7180  211.8640  151.5250 N   0  0  0  0  0  0  0  0  0  0  0  0
  158.1760  213.0370  151.4200 C   0  0  0  0  0  2  0  0  0  0  0  0
  162.9150  209.5940  157.2610 C   0  0  0  0  0  2  0  0  0  0  0  0
  163.8550  211.0570  155.8140 O   0  0  0  0  0  1  0  0  0  0  0  0
  163.3250  210.9830  157.0560 N   0  0  0  0  0  2  0  0  0  0  0  0
  1 13  1  0  0  0  0
  2 15  1  0  0  0  0
  2 19  1  0  0  0  0
  3 19  2  0  0  0  0
  4 12  1  0  0  0  0
  5  8  1  0  0  0  0
  5 10  2  0  0  0  0
  6 16  2  0  0  0  0
  7  1  1  0  0  0  0
  8  2  2  0  0  0  0
  9 24  1  0  0  0  0
  9 14  1  0  0  0  0
 10 21  1  0  0  0  0
 10  3  1  0  0  0  0
 11  6  1  0  0  0  0
 13 24  2  0  0  0  0
 15 23  1  0  0  0  0
 16  4  1  0  0  0  0
 17 12  1  0  0  0  0
 17 18  1  0  0  0  0
 17 28  1  1  0  0  0
 19 25  1  0  0  0  0
 20  1  2  0  0  0  0
 20 22  1  0  0  0  0
 21  3  1  0  0  0  0
 21 11  1  1  0  0  0
 22  9  2  0  0  0  0
 23  7  1  0  0  0  0
 24 18  1  0  0  0  0
 25 16  1  0  0  0  0
 26 20  1  0  0  0  0
 27 26  2  0  0  0  0
 29 30  1  0  0  0  0
 30 28  1  0  0  0  0
M  END
>  <MODEL>
3

>  <REMARK>
 VINA RESULT:      -3.4      3.165      5.879
  Name = 
  3 active torsions:
  status: ('A' for Active; 'I' for Inactive)
    1  A    between atoms: N_14  and  C_27
    2  A    between atoms: C_19  and  C_27
    3  A    between atoms: N_20  and  C_23
                            x       y       z     vdW  Elec       q    Type
                         _______ _______ _______ _____ _____    ______ ____

>  <TORSDO>
F 3

$$$$
