=
 OpenBabel11042423083D

 37 38  0  0  0  0  0  0  0  0999 V2000
  159.7570  212.4830  152.9430 C   0  0  0  0  0  3  0  0  0  0  0  0
  160.1320  211.2800  153.4030 C   0  0  0  0  0  0  0  0  0  0  0  0
  162.6040  210.1490  152.3520 O   0  0  0  0  0  0  0  0  0  0  0  0
  161.5040  209.6290  152.0230 C   0  0  0  0  0  0  0  0  0  0  0  0
  160.2650  210.1720  152.5040 N   0  0  0  0  0  2  0  0  0  0  0  0
  161.4450  204.7980  147.3780 C   0  0  0  0  0  1  0  0  0  0  0  0
  161.4730  208.4780  151.1120 C   0  0  0  0  0  0  0  0  0  0  0  0
  161.2820  205.1200  148.8230 C   0  0  0  0  0  0  0  0  0  0  0  0
  161.1000  204.2050  149.8660 C   0  0  0  0  0  3  0  0  0  0  0  0
  161.2110  206.1810  150.7460 C   0  0  0  0  0  0  0  0  0  0  0  0
  161.2590  207.2210  151.6140 N   0  0  0  0  0  0  0  0  0  0  0  0
  161.3620  206.3580  149.4100 C   0  0  0  0  0  0  0  0  0  0  0  0
  161.0500  204.8810  151.0400 N   0  0  0  0  0  0  0  0  0  0  0  0
  160.9440  204.2920  152.3610 C   0  0  0  0  0  1  0  0  0  0  0  0
  161.6310  208.6570  149.7110 C   0  0  0  0  0  3  0  0  0  0  0  0
  161.5770  207.5810  148.8690 N   0  0  0  0  0  0  0  0  0  0  0  0
  160.3190  211.0710  154.8120 N   0  0  0  0  0  2  0  0  0  0  0  0
  158.1040  210.6420  155.4420 O   0  0  0  0  0  0  0  0  0  0  0  0
  159.3260  210.6410  155.7500 C   0  0  0  0  0  0  0  0  0  0  0  0
  159.7300  210.2550  157.0280 O   0  0  0  0  0  0  0  0  0  0  0  0
  160.6440  209.1910  157.2370 C   0  0  0  0  0  1  0  0  0  0  0  0
  160.4370  212.7960  150.7110 O   0  0  0  0  0  0  0  0  0  0  0  0
  159.4920  212.8690  151.5410 C   0  0  0  0  0  0  0  0  0  0  0  0
  158.1400  213.2740  151.0450 C   0  0  0  0  0  2  0  0  0  0  0  0
  158.2140  213.6920  149.5830 C   0  0  0  0  0  2  0  0  0  0  0  0
  156.9070  213.4070  148.8660 C   0  0  0  0  0  2  0  0  0  0  0  0
  157.1880  212.8470  147.4850 C   0  0  0  0  0  2  0  0  0  0  0  0
  159.2210  212.6610  146.0120 C   0  0  0  0  0  0  0  0  0  0  0  0
  158.6220  212.6940  147.3080 N   0  0  0  0  0  2  0  0  0  0  0  0
  158.5080  212.7320  144.9750 O   0  0  0  0  0  0  0  0  0  0  0  0
  160.7060  212.5750  145.8730 C   0  0  0  0  0  2  0  0  0  0  0  0
  161.3260  213.8810  146.0820 N   0  0  0  0  0  0  0  0  0  0  0  0
  162.3230  213.0310  144.0390 N   0  0  0  0  0  1  0  0  0  0  0  0
  162.3510  214.0850  145.0510 C   0  0  0  0  0  2  0  0  0  0  0  0
  161.9550  213.8920  147.3980 C   0  0  0  0  0  2  0  0  0  0  0  0
  162.9630  212.7600  147.5070 C   0  0  0  0  0  2  0  0  0  0  0  0
  162.6660  211.9580  148.6130 O   0  0  0  0  0  1  0  0  0  0  0  0
  1  2  2  0  0  0  0
  2 17  1  0  0  0  0
  4  3  2  0  0  0  0
  4  5  1  0  0  0  0
  5  2  1  0  0  0  0
  6  8  1  0  0  0  0
  7 11  1  0  0  0  0
  7  4  1  0  0  0  0
  8 12  1  0  0  0  0
  8  9  2  0  0  0  0
  9 13  1  0  0  0  0
 10 13  1  0  0  0  0
 10 11  2  0  0  0  0
 12 10  1  0  0  0  0
 13 14  1  0  0  0  0
 15  7  2  0  0  0  0
 16 12  2  0  0  0  0
 16 15  1  0  0  0  0
 17 19  1  0  0  0  0
 18 19  2  0  0  0  0
 19 20  1  0  0  0  0
 20 21  1  0  0  0  0
 22 23  2  0  0  0  0
 23  1  1  0  0  0  0
 24 23  1  0  0  0  0
 25 24  1  0  0  0  0
 26 25  1  0  0  0  0
 27 26  1  0  0  0  0
 28 29  1  0  0  0  0
 29 27  1  0  0  0  0
 30 28  2  0  0  0  0
 31 28  1  0  0  0  0
 31 32  1  0  0  0  0
 32 35  1  0  0  0  0
 33 34  1  0  0  0  0
 34 32  1  0  0  0  0
 35 36  1  0  0  0  0
 36 37  1  0  0  0  0
M  END
>  <MODEL>
1

>  <REMARK>
 VINA RESULT:      -6.2      0.000      0.000
  Name = 
  15 active torsions:
  status: ('A' for Active; 'I' for Inactive)
    1  A    between atoms: C_2  and  C_15
    2  A    between atoms: C_2  and  C_22
    3  A    between atoms: N_3  and  C_12
    4  A    between atoms: N_3  and  C_29
    5  A    between atoms: N_3  and  C_30
    6  A    between atoms: C_4  and  C_22
    7  A    between atoms: C_6  and  C_29
    8  A    between atoms: C_7  and  N_10
    9  A    between atoms: C_7  and  N_36
   10  A    between atoms: C_8  and  C_16
   11  A    between atoms: N_9  and  C_26
   12  A    between atoms: C_12  and  C_24
   13  A    between atoms: C_15  and  C_33
   14  A    between atoms: C_26  and  C_33
   15  A    between atoms: O_32  and  C_37
                            x       y       z     vdW  Elec       q    Type
                         _______ _______ _______ _____ _____    ______ ____

>  <TORSDO>
F 15

$$$$
=
 OpenBabel11042423083D

 37 38  0  0  0  0  0  0  0  0999 V2000
  161.9810  210.7550  150.5600 C   0  0  0  0  0  3  0  0  0  0  0  0
  161.9260  209.6700  151.3460 C   0  0  0  0  0  0  0  0  0  0  0  0
  160.6990  207.3110  152.5410 O   0  0  0  0  0  0  0  0  0  0  0  0
  161.1830  207.2290  151.3800 C   0  0  0  0  0  0  0  0  0  0  0  0
  161.8140  208.3630  150.7680 N   0  0  0  0  0  2  0  0  0  0  0  0
  160.8930  201.1300  148.6170 C   0  0  0  0  0  1  0  0  0  0  0  0
  161.1380  205.9560  150.6490 C   0  0  0  0  0  0  0  0  0  0  0  0
  161.1190  202.5820  148.3750 C   0  0  0  0  0  0  0  0  0  0  0  0
  161.3040  203.2030  147.1360 C   0  0  0  0  0  3  0  0  0  0  0  0
  161.2990  204.7560  148.6460 C   0  0  0  0  0  0  0  0  0  0  0  0
  161.3220  205.9470  149.2910 N   0  0  0  0  0  0  0  0  0  0  0  0
  161.1070  203.5880  149.3090 C   0  0  0  0  0  0  0  0  0  0  0  0
  161.4210  204.5410  147.3270 N   0  0  0  0  0  0  0  0  0  0  0  0
  161.5520  205.5430  146.2870 C   0  0  0  0  0  1  0  0  0  0  0  0
  160.9360  204.7300  151.3380 C   0  0  0  0  0  3  0  0  0  0  0  0
  160.9200  203.5480  150.6500 N   0  0  0  0  0  0  0  0  0  0  0  0
  161.8920  209.8130  152.7750 N   0  0  0  0  0  2  0  0  0  0  0  0
  159.7860  210.8080  153.0190 O   0  0  0  0  0  0  0  0  0  0  0  0
  160.7820  210.2590  153.5610 C   0  0  0  0  0  0  0  0  0  0  0  0
  160.8360  210.1100  154.9470 O   0  0  0  0  0  0  0  0  0  0  0  0
  161.3650  208.9430  155.5570 C   0  0  0  0  0  1  0  0  0  0  0  0
  162.2260  209.7300  148.4530 O   0  0  0  0  0  0  0  0  0  0  0  0
  161.9930  210.7970  149.0810 C   0  0  0  0  0  0  0  0  0  0  0  0
  161.6730  212.0290  148.2960 C   0  0  0  0  0  2  0  0  0  0  0  0
  162.9520  212.7590  147.9070 C   0  0  0  0  0  2  0  0  0  0  0  0
  162.6500  214.1530  147.3890 C   0  0  0  0  0  2  0  0  0  0  0  0
  161.5720  214.0860  146.3250 C   0  0  0  0  0  2  0  0  0  0  0  0
  161.4690  212.8060  144.1600 C   0  0  0  0  0  0  0  0  0  0  0  0
  162.1620  213.6660  145.0650 N   0  0  0  0  0  2  0  0  0  0  0  0
  160.3280  212.3560  144.4510 O   0  0  0  0  0  0  0  0  0  0  0  0
  162.0790  212.4540  142.8420 C   0  0  0  0  0  2  0  0  0  0  0  0
  161.0470  212.1990  141.8410 N   0  0  0  0  0  0  0  0  0  0  0  0
  162.6920  211.3370  140.2780 N   0  0  0  0  0  1  0  0  0  0  0  0
  161.4620  211.0570  141.0170 C   0  0  0  0  0  2  0  0  0  0  0  0
  160.9150  213.3810  140.9970 C   0  0  0  0  0  2  0  0  0  0  0  0
  159.4590  213.5970  140.6210 C   0  0  0  0  0  2  0  0  0  0  0  0
  158.6260  213.1760  141.6630 O   0  0  0  0  0  1  0  0  0  0  0  0
  1  2  2  0  0  0  0
  2 17  1  0  0  0  0
  4  3  2  0  0  0  0
  5  2  1  0  0  0  0
  5  4  1  0  0  0  0
  7 15  1  0  0  0  0
  7  4  1  0  0  0  0
  8  6  1  0  0  0  0
  8 12  1  0  0  0  0
  9 13  1  0  0  0  0
  9  8  2  0  0  0  0
 10 11  1  0  0  0  0
 10 12  2  0  0  0  0
 11  7  2  0  0  0  0
 12 16  1  0  0  0  0
 13 10  1  0  0  0  0
 14 13  1  0  0  0  0
 16 15  2  0  0  0  0
 17 19  1  0  0  0  0
 18 19  2  0  0  0  0
 19 20  1  0  0  0  0
 20 21  1  0  0  0  0
 22 23  2  0  0  0  0
 23  1  1  0  0  0  0
 24 23  1  0  0  0  0
 25 24  1  0  0  0  0
 26 25  1  0  0  0  0
 27 26  1  0  0  0  0
 28 30  2  0  0  0  0
 28 29  1  0  0  0  0
 29 27  1  0  0  0  0
 31 28  1  0  0  0  0
 32 31  1  0  0  0  0
 33 34  1  0  0  0  0
 34 32  1  0  0  0  0
 35 32  1  0  0  0  0
 36 35  1  0  0  0  0
 36 37  1  0  0  0  0
M  END
>  <MODEL>
2

>  <REMARK>
 VINA RESULT:      -6.1      2.444      4.184
  Name = 
  15 active torsions:
  status: ('A' for Active; 'I' for Inactive)
    1  A    between atoms: C_2  and  C_15
    2  A    between atoms: C_2  and  C_22
    3  A    between atoms: N_3  and  C_12
    4  A    between atoms: N_3  and  C_29
    5  A    between atoms: N_3  and  C_30
    6  A    between atoms: C_4  and  C_22
    7  A    between atoms: C_6  and  C_29
    8  A    between atoms: C_7  and  N_10
    9  A    between atoms: C_7  and  N_36
   10  A    between atoms: C_8  and  C_16
   11  A    between atoms: N_9  and  C_26
   12  A    between atoms: C_12  and  C_24
   13  A    between atoms: C_15  and  C_33
   14  A    between atoms: C_26  and  C_33
   15  A    between atoms: O_32  and  C_37
                            x       y       z     vdW  Elec       q    Type
                         _______ _______ _______ _____ _____    ______ ____

>  <TORSDO>
F 15

$$$$
=
 OpenBabel11042423083D

 37 38  0  0  0  0  0  0  0  0999 V2000
  162.0940  210.9090  150.3650 C   0  0  0  0  0  3  0  0  0  0  0  0
  162.0090  209.8080  151.1250 C   0  0  0  0  0  0  0  0  0  0  0  0
  160.7350  207.4320  152.2320 O   0  0  0  0  0  0  0  0  0  0  0  0
  161.2500  207.3720  151.0830 C   0  0  0  0  0  0  0  0  0  0  0  0
  161.9050  208.5150  150.5150 N   0  0  0  0  0  2  0  0  0  0  0  0
  161.0100  201.3370  148.1780 C   0  0  0  0  0  1  0  0  0  0  0  0
  161.2180  206.1160  150.3220 C   0  0  0  0  0  0  0  0  0  0  0  0
  161.2370  202.7950  147.9730 C   0  0  0  0  0  0  0  0  0  0  0  0
  161.4400  203.4440  146.7510 C   0  0  0  0  0  3  0  0  0  0  0  0
  161.4100  204.9620  148.2950 C   0  0  0  0  0  0  0  0  0  0  0  0
  161.4220  206.1380  148.9680 N   0  0  0  0  0  0  0  0  0  0  0  0
  161.2100  203.7790  148.9290 C   0  0  0  0  0  0  0  0  0  0  0  0
  161.5530  204.7770  146.9740 N   0  0  0  0  0  0  0  0  0  0  0  0
  161.6990  205.8030  145.9590 C   0  0  0  0  0  1  0  0  0  0  0  0
  161.0070  204.8740  150.9800 C   0  0  0  0  0  3  0  0  0  0  0  0
  161.0030  203.7080  150.2650 N   0  0  0  0  0  0  0  0  0  0  0  0
  161.9350  209.9200  152.5550 N   0  0  0  0  0  2  0  0  0  0  0  0
  159.8120  210.8880  152.7620 O   0  0  0  0  0  0  0  0  0  0  0  0
  160.7990  210.3370  153.3200 C   0  0  0  0  0  0  0  0  0  0  0  0
  160.8160  210.1590  154.7030 O   0  0  0  0  0  0  0  0  0  0  0  0
  161.5100  211.0460  155.5650 C   0  0  0  0  0  1  0  0  0  0  0  0
  161.7080  210.0120  148.2220 O   0  0  0  0  0  0  0  0  0  0  0  0
  162.1510  210.9840  148.8890 C   0  0  0  0  0  0  0  0  0  0  0  0
  162.6420  212.1880  148.1490 C   0  0  0  0  0  2  0  0  0  0  0  0
  161.6660  212.5670  147.0440 C   0  0  0  0  0  2  0  0  0  0  0  0
  162.3860  213.2240  145.8800 C   0  0  0  0  0  2  0  0  0  0  0  0
  161.4430  213.3550  144.6990 C   0  0  0  0  0  2  0  0  0  0  0  0
  161.4510  212.0700  142.5350 C   0  0  0  0  0  0  0  0  0  0  0  0
  162.1130  212.8960  143.4940 N   0  0  0  0  0  2  0  0  0  0  0  0
  160.2680  211.6850  142.7290 O   0  0  0  0  0  0  0  0  0  0  0  0
  162.1490  211.6790  141.2730 C   0  0  0  0  0  2  0  0  0  0  0  0
  161.2320  211.0060  140.3560 N   0  0  0  0  0  0  0  0  0  0  0  0
  160.9130  208.9480  139.1100 N   0  0  0  0  0  1  0  0  0  0  0  0
  161.7740  209.6800  140.0360 C   0  0  0  0  0  2  0  0  0  0  0  0
  161.1330  211.7960  139.1340 C   0  0  0  0  0  2  0  0  0  0  0  0
  162.3250  212.7310  139.0170 C   0  0  0  0  0  2  0  0  0  0  0  0
  163.0780  212.4090  137.8840 O   0  0  0  0  0  1  0  0  0  0  0  0
  1  2  2  0  0  0  0
  2 17  1  0  0  0  0
  4  3  2  0  0  0  0
  5  4  1  0  0  0  0
  5  2  1  0  0  0  0
  7 15  1  0  0  0  0
  7  4  1  0  0  0  0
  8  6  1  0  0  0  0
  8 12  1  0  0  0  0
  9 13  1  0  0  0  0
  9  8  2  0  0  0  0
 10 12  2  0  0  0  0
 10 11  1  0  0  0  0
 11  7  2  0  0  0  0
 12 16  1  0  0  0  0
 13 10  1  0  0  0  0
 14 13  1  0  0  0  0
 16 15  2  0  0  0  0
 17 19  1  0  0  0  0
 18 19  2  0  0  0  0
 19 20  1  0  0  0  0
 20 21  1  0  0  0  0
 22 23  2  0  0  0  0
 23  1  1  0  0  0  0
 24 23  1  0  0  0  0
 25 24  1  0  0  0  0
 26 25  1  0  0  0  0
 27 26  1  0  0  0  0
 28 30  2  0  0  0  0
 28 29  1  0  0  0  0
 29 27  1  0  0  0  0
 31 28  1  0  0  0  0
 32 31  1  0  0  0  0
 33 34  1  0  0  0  0
 34 32  1  0  0  0  0
 35 32  1  0  0  0  0
 36 35  1  0  0  0  0
 37 36  1  0  0  0  0
M  END
>  <MODEL>
3

>  <REMARK>
 VINA RESULT:      -6.0      3.283      4.823
  Name = 
  15 active torsions:
  status: ('A' for Active; 'I' for Inactive)
    1  A    between atoms: C_2  and  C_15
    2  A    between atoms: C_2  and  C_22
    3  A    between atoms: N_3  and  C_12
    4  A    between atoms: N_3  and  C_29
    5  A    between atoms: N_3  and  C_30
    6  A    between atoms: C_4  and  C_22
    7  A    between atoms: C_6  and  C_29
    8  A    between atoms: C_7  and  N_10
    9  A    between atoms: C_7  and  N_36
   10  A    between atoms: C_8  and  C_16
   11  A    between atoms: N_9  and  C_26
   12  A    between atoms: C_12  and  C_24
   13  A    between atoms: C_15  and  C_33
   14  A    between atoms: C_26  and  C_33
   15  A    between atoms: O_32  and  C_37
                            x       y       z     vdW  Elec       q    Type
                         _______ _______ _______ _____ _____    ______ ____

>  <TORSDO>
F 15

$$$$
=
 OpenBabel11042423083D

 37 38  0  0  0  0  0  0  0  0999 V2000
  161.1740  210.4340  152.0080 C   0  0  0  0  0  3  0  0  0  0  0  0
  160.7340  209.3440  152.6540 C   0  0  0  0  0  0  0  0  0  0  0  0
  161.8760  206.8480  153.6350 O   0  0  0  0  0  0  0  0  0  0  0  0
  161.2820  206.8550  152.5230 C   0  0  0  0  0  0  0  0  0  0  0  0
  160.7260  208.0700  151.9980 N   0  0  0  0  0  2  0  0  0  0  0  0
  160.7760  200.9110  149.4680 C   0  0  0  0  0  1  0  0  0  0  0  0
  161.1810  205.6230  151.7300 C   0  0  0  0  0  0  0  0  0  0  0  0
  160.9930  202.3740  149.2890 C   0  0  0  0  0  0  0  0  0  0  0  0
  161.0980  203.0590  148.0740 C   0  0  0  0  0  3  0  0  0  0  0  0
  161.2020  204.5300  149.6610 C   0  0  0  0  0  0  0  0  0  0  0  0
  161.2750  205.6850  150.3650 N   0  0  0  0  0  0  0  0  0  0  0  0
  161.0490  203.3290  150.2730 C   0  0  0  0  0  0  0  0  0  0  0  0
  161.2360  204.3840  148.3270 N   0  0  0  0  0  0  0  0  0  0  0  0
  161.3030  205.4400  147.3350 C   0  0  0  0  0  1  0  0  0  0  0  0
  161.0190  204.3620  152.3660 C   0  0  0  0  0  3  0  0  0  0  0  0
  160.9510  203.2190  151.6190 N   0  0  0  0  0  0  0  0  0  0  0  0
  160.1860  209.4590  153.9770 N   0  0  0  0  0  2  0  0  0  0  0  0
  162.1270  210.0360  155.1550 O   0  0  0  0  0  0  0  0  0  0  0  0
  160.8720  209.9180  155.1470 C   0  0  0  0  0  0  0  0  0  0  0  0
  160.1310  210.1980  156.2950 O   0  0  0  0  0  0  0  0  0  0  0  0
  159.5710  211.4790  156.5330 C   0  0  0  0  0  1  0  0  0  0  0  0
  162.3620  209.5080  150.1980 O   0  0  0  0  0  0  0  0  0  0  0  0
  161.7370  210.5060  150.6420 C   0  0  0  0  0  0  0  0  0  0  0  0
  161.5380  211.6810  149.7370 C   0  0  0  0  0  2  0  0  0  0  0  0
  162.1280  211.3980  148.3630 C   0  0  0  0  0  2  0  0  0  0  0  0
  163.2260  212.3890  148.0230 C   0  0  0  0  0  2  0  0  0  0  0  0
  162.6170  213.6730  147.4940 C   0  0  0  0  0  2  0  0  0  0  0  0
  161.1030  213.8320  145.4900 C   0  0  0  0  0  0  0  0  0  0  0  0
  162.3760  213.5410  146.0670 N   0  0  0  0  0  2  0  0  0  0  0  0
  160.1350  214.1810  146.2170 O   0  0  0  0  0  0  0  0  0  0  0  0
  160.9140  213.7540  144.0100 C   0  0  0  0  0  2  0  0  0  0  0  0
  161.2880  212.4340  143.5050 N   0  0  0  0  0  0  0  0  0  0  0  0
  162.6660  213.9570  142.2130 N   0  0  0  0  0  1  0  0  0  0  0  0
  162.4700  212.5760  142.6480 C   0  0  0  0  0  2  0  0  0  0  0  0
  160.1790  211.9080  142.7170 C   0  0  0  0  0  2  0  0  0  0  0  0
  159.2350  213.0310  142.3240 C   0  0  0  0  0  2  0  0  0  0  0  0
  159.2880  213.2410  140.9430 O   0  0  0  0  0  1  0  0  0  0  0  0
  1  2  2  0  0  0  0
  2 17  1  0  0  0  0
  4  3  2  0  0  0  0
  5  4  1  0  0  0  0
  5  2  1  0  0  0  0
  7 15  1  0  0  0  0
  7  4  1  0  0  0  0
  8  6  1  0  0  0  0
  8 12  1  0  0  0  0
  9 13  1  0  0  0  0
  9  8  2  0  0  0  0
 10 12  2  0  0  0  0
 10 11  1  0  0  0  0
 11  7  2  0  0  0  0
 12 16  1  0  0  0  0
 13 10  1  0  0  0  0
 14 13  1  0  0  0  0
 16 15  2  0  0  0  0
 17 19  1  0  0  0  0
 19 18  2  0  0  0  0
 19 20  1  0  0  0  0
 20 21  1  0  0  0  0
 22 23  2  0  0  0  0
 23  1  1  0  0  0  0
 24 23  1  0  0  0  0
 25 24  1  0  0  0  0
 26 25  1  0  0  0  0
 27 26  1  0  0  0  0
 28 29  1  0  0  0  0
 28 30  2  0  0  0  0
 29 27  1  0  0  0  0
 31 28  1  0  0  0  0
 32 31  1  0  0  0  0
 33 34  1  0  0  0  0
 34 32  1  0  0  0  0
 35 32  1  0  0  0  0
 36 35  1  0  0  0  0
 37 36  1  0  0  0  0
M  END
>  <MODEL>
4

>  <REMARK>
 VINA RESULT:      -5.9      2.333      3.841
  Name = 
  15 active torsions:
  status: ('A' for Active; 'I' for Inactive)
    1  A    between atoms: C_2  and  C_15
    2  A    between atoms: C_2  and  C_22
    3  A    between atoms: N_3  and  C_12
    4  A    between atoms: N_3  and  C_29
    5  A    between atoms: N_3  and  C_30
    6  A    between atoms: C_4  and  C_22
    7  A    between atoms: C_6  and  C_29
    8  A    between atoms: C_7  and  N_10
    9  A    between atoms: C_7  and  N_36
   10  A    between atoms: C_8  and  C_16
   11  A    between atoms: N_9  and  C_26
   12  A    between atoms: C_12  and  C_24
   13  A    between atoms: C_15  and  C_33
   14  A    between atoms: C_26  and  C_33
   15  A    between atoms: O_32  and  C_37
                            x       y       z     vdW  Elec       q    Type
                         _______ _______ _______ _____ _____    ______ ____

>  <TORSDO>
F 15

$$$$
=
 OpenBabel11042423083D

 37 38  0  0  0  0  0  0  0  0999 V2000
  161.7460  210.6310  151.6510 C   0  0  0  0  0  3  0  0  0  0  0  0
  161.9270  209.9990  150.4820 C   0  0  0  0  0  0  0  0  0  0  0  0
  161.5280  208.4350  148.0550 O   0  0  0  0  0  0  0  0  0  0  0  0
  161.5440  207.8450  149.1690 C   0  0  0  0  0  0  0  0  0  0  0  0
  161.7170  208.5840  150.3860 N   0  0  0  0  0  2  0  0  0  0  0  0
  160.5780  201.2820  150.1220 C   0  0  0  0  0  1  0  0  0  0  0  0
  161.3510  206.3900  149.2380 C   0  0  0  0  0  0  0  0  0  0  0  0
  160.9240  202.3460  149.1390 C   0  0  0  0  0  0  0  0  0  0  0  0
  161.1080  202.1820  147.7620 C   0  0  0  0  0  3  0  0  0  0  0  0
  161.3120  204.2940  148.1980 C   0  0  0  0  0  0  0  0  0  0  0  0
  161.4720  205.6360  148.1000 N   0  0  0  0  0  0  0  0  0  0  0  0
  161.0450  203.6910  149.3840 C   0  0  0  0  0  0  0  0  0  0  0  0
  161.3550  203.3930  147.2040 N   0  0  0  0  0  0  0  0  0  0  0  0
  161.5290  203.6620  145.7890 C   0  0  0  0  0  1  0  0  0  0  0  0
  161.0700  205.7540  150.4760 C   0  0  0  0  0  3  0  0  0  0  0  0
  160.9150  204.3960  150.5330 N   0  0  0  0  0  0  0  0  0  0  0  0
  162.4170  210.7180  149.3390 N   0  0  0  0  0  2  0  0  0  0  0  0
  160.9650  212.5550  149.3800 O   0  0  0  0  0  0  0  0  0  0  0  0
  162.0030  212.0180  148.9080 C   0  0  0  0  0  0  0  0  0  0  0  0
  162.7470  212.6700  147.9250 O   0  0  0  0  0  0  0  0  0  0  0  0
  162.1990  212.9900  146.6570 C   0  0  0  0  0  1  0  0  0  0  0  0
  160.3500  209.2000  152.8960 O   0  0  0  0  0  0  0  0  0  0  0  0
  161.2800  210.0490  152.9280 C   0  0  0  0  0  0  0  0  0  0  0  0
  161.9070  210.3670  154.2490 C   0  0  0  0  0  2  0  0  0  0  0  0
  161.4280  209.3890  155.3130 C   0  0  0  0  0  2  0  0  0  0  0  0
  161.2030  210.0920  156.6390 C   0  0  0  0  0  2  0  0  0  0  0  0
  159.7310  210.0510  157.0010 C   0  0  0  0  0  2  0  0  0  0  0  0
  158.6120  211.8170  155.5990 C   0  0  0  0  0  0  0  0  0  0  0  0
  158.9390  210.4490  155.8490 N   0  0  0  0  0  2  0  0  0  0  0  0
  158.9760  212.7200  156.3990 O   0  0  0  0  0  0  0  0  0  0  0  0
  157.8570  212.1940  154.3660 C   0  0  0  0  0  2  0  0  0  0  0  0
  157.9430  213.6320  154.1210 N   0  0  0  0  0  0  0  0  0  0  0  0
  155.5720  213.1160  154.0760 N   0  0  0  0  0  1  0  0  0  0  0  0
  156.5850  214.1610  153.9460 C   0  0  0  0  0  2  0  0  0  0  0  0
  158.7090  213.8510  152.9000 C   0  0  0  0  0  2  0  0  0  0  0  0
  158.5470  212.6680  151.9600 C   0  0  0  0  0  2  0  0  0  0  0  0
  157.9290  213.0790  150.7740 O   0  0  0  0  0  1  0  0  0  0  0  0
  1 23  1  0  0  0  0
  2  1  2  0  0  0  0
  3  4  2  0  0  0  0
  4  7  1  0  0  0  0
  4  5  1  0  0  0  0
  5  2  1  0  0  0  0
  7 15  1  0  0  0  0
  8 12  1  0  0  0  0
  8  6  1  0  0  0  0
  9  8  2  0  0  0  0
 10 12  2  0  0  0  0
 11 10  1  0  0  0  0
 11  7  2  0  0  0  0
 12 16  1  0  0  0  0
 13  9  1  0  0  0  0
 13 10  1  0  0  0  0
 14 13  1  0  0  0  0
 15 16  2  0  0  0  0
 17  2  1  0  0  0  0
 19 17  1  0  0  0  0
 19 18  2  0  0  0  0
 20 19  1  0  0  0  0
 21 20  1  0  0  0  0
 22 23  2  0  0  0  0
 23 24  1  0  0  0  0
 24 25  1  0  0  0  0
 25 26  1  0  0  0  0
 26 27  1  0  0  0  0
 28 29  1  0  0  0  0
 28 30  2  0  0  0  0
 29 27  1  0  0  0  0
 31 28  1  0  0  0  0
 32 31  1  0  0  0  0
 34 33  1  0  0  0  0
 34 32  1  0  0  0  0
 35 32  1  0  0  0  0
 36 35  1  0  0  0  0
 37 36  1  0  0  0  0
M  END
>  <MODEL>
5

>  <REMARK>
 VINA RESULT:      -5.8      2.498      6.852
  Name = 
  15 active torsions:
  status: ('A' for Active; 'I' for Inactive)
    1  A    between atoms: C_2  and  C_15
    2  A    between atoms: C_2  and  C_22
    3  A    between atoms: N_3  and  C_12
    4  A    between atoms: N_3  and  C_29
    5  A    between atoms: N_3  and  C_30
    6  A    between atoms: C_4  and  C_22
    7  A    between atoms: C_6  and  C_29
    8  A    between atoms: C_7  and  N_10
    9  A    between atoms: C_7  and  N_36
   10  A    between atoms: C_8  and  C_16
   11  A    between atoms: N_9  and  C_26
   12  A    between atoms: C_12  and  C_24
   13  A    between atoms: C_15  and  C_33
   14  A    between atoms: C_26  and  C_33
   15  A    between atoms: O_32  and  C_37
                            x       y       z     vdW  Elec       q    Type
                         _______ _______ _______ _____ _____    ______ ____

>  <TORSDO>
F 15

$$$$
=
 OpenBabel11042423083D

 37 38  0  0  0  0  0  0  0  0999 V2000
  162.0730  208.6530  150.8510 C   0  0  0  0  0  3  0  0  0  0  0  0
  161.7390  209.9420  151.0100 C   0  0  0  0  0  0  0  0  0  0  0  0
  161.9630  210.6880  153.8180 O   0  0  0  0  0  0  0  0  0  0  0  0
  160.8260  210.6910  153.2720 C   0  0  0  0  0  0  0  0  0  0  0  0
  160.6750  210.3090  151.8970 N   0  0  0  0  0  2  0  0  0  0  0  0
  155.5800  211.9120  157.2600 C   0  0  0  0  0  1  0  0  0  0  0  0
  159.6330  211.0520  154.0490 C   0  0  0  0  0  0  0  0  0  0  0  0
  156.2230  212.1990  155.9480 C   0  0  0  0  0  0  0  0  0  0  0  0
  155.7900  213.1220  154.9900 C   0  0  0  0  0  3  0  0  0  0  0  0
  157.6360  212.2540  154.2650 C   0  0  0  0  0  0  0  0  0  0  0  0
  158.7400  211.9570  153.5370 N   0  0  0  0  0  0  0  0  0  0  0  0
  157.3980  211.6760  155.4690 C   0  0  0  0  0  0  0  0  0  0  0  0
  156.6700  213.1330  153.9590 N   0  0  0  0  0  0  0  0  0  0  0  0
  156.6180  214.0040  152.8000 C   0  0  0  0  0  1  0  0  0  0  0  0
  159.3790  210.4510  155.3110 C   0  0  0  0  0  3  0  0  0  0  0  0
  158.2530  210.7780  156.0150 N   0  0  0  0  0  0  0  0  0  0  0  0
  162.3850  210.9590  150.2270 N   0  0  0  0  0  2  0  0  0  0  0  0
  161.2850  210.6390  148.1840 O   0  0  0  0  0  0  0  0  0  0  0  0
  162.0500  211.3490  148.8910 C   0  0  0  0  0  0  0  0  0  0  0  0
  162.6150  212.5110  148.3680 O   0  0  0  0  0  0  0  0  0  0  0  0
  163.3520  212.5070  147.1550 C   0  0  0  0  0  1  0  0  0  0  0  0
  161.4170  207.5070  152.8010 O   0  0  0  0  0  0  0  0  0  0  0  0
  161.4970  207.4810  151.5440 C   0  0  0  0  0  0  0  0  0  0  0  0
  160.9390  206.2950  150.8220 C   0  0  0  0  0  2  0  0  0  0  0  0
  161.7530  205.0490  151.1400 C   0  0  0  0  0  2  0  0  0  0  0  0
  160.9740  204.1010  152.0340 C   0  0  0  0  0  2  0  0  0  0  0  0
  160.5900  202.8570  151.2570 C   0  0  0  0  0  2  0  0  0  0  0  0
  160.7280  202.2190  148.8260 C   0  0  0  0  0  0  0  0  0  0  0  0
  161.2830  202.8520  149.9800 N   0  0  0  0  0  2  0  0  0  0  0  0
  159.6260  201.6130  148.8960 O   0  0  0  0  0  0  0  0  0  0  0  0
  161.4380  202.2970  147.5140 C   0  0  0  0  0  2  0  0  0  0  0  0
  161.0700  203.5130  146.7930 N   0  0  0  0  0  0  0  0  0  0  0  0
  160.2540  202.0010  145.0800 N   0  0  0  0  0  1  0  0  0  0  0  0
  161.0210  203.2140  145.3570 C   0  0  0  0  0  2  0  0  0  0  0  0
  162.0890  204.5260  147.0420 C   0  0  0  0  0  2  0  0  0  0  0  0
  161.6930  205.8400  146.3900 C   0  0  0  0  0  2  0  0  0  0  0  0
  161.4040  206.7940  147.3700 O   0  0  0  0  0  1  0  0  0  0  0  0
  1  2  2  0  0  0  0
  1 23  1  0  0  0  0
  2  5  1  0  0  0  0
  4  3  2  0  0  0  0
  4  7  1  0  0  0  0
  5  4  1  0  0  0  0
  7 15  1  0  0  0  0
  8  6  1  0  0  0  0
  9  8  2  0  0  0  0
 10 12  2  0  0  0  0
 11  7  2  0  0  0  0
 11 10  1  0  0  0  0
 12  8  1  0  0  0  0
 12 16  1  0  0  0  0
 13 10  1  0  0  0  0
 13  9  1  0  0  0  0
 14 13  1  0  0  0  0
 15 16  2  0  0  0  0
 17  2  1  0  0  0  0
 18 19  2  0  0  0  0
 19 17  1  0  0  0  0
 20 19  1  0  0  0  0
 21 20  1  0  0  0  0
 23 22  2  0  0  0  0
 24 25  1  0  0  0  0
 24 23  1  0  0  0  0
 25 26  1  0  0  0  0
 27 26  1  0  0  0  0
 28 30  2  0  0  0  0
 28 29  1  0  0  0  0
 29 27  1  0  0  0  0
 31 28  1  0  0  0  0
 32 35  1  0  0  0  0
 32 31  1  0  0  0  0
 33 34  1  0  0  0  0
 34 32  1  0  0  0  0
 36 35  1  0  0  0  0
 36 37  1  0  0  0  0
M  END
>  <MODEL>
6

>  <REMARK>
 VINA RESULT:      -5.7      3.080      8.707
  Name = 
  15 active torsions:
  status: ('A' for Active; 'I' for Inactive)
    1  A    between atoms: C_2  and  C_15
    2  A    between atoms: C_2  and  C_22
    3  A    between atoms: N_3  and  C_12
    4  A    between atoms: N_3  and  C_29
    5  A    between atoms: N_3  and  C_30
    6  A    between atoms: C_4  and  C_22
    7  A    between atoms: C_6  and  C_29
    8  A    between atoms: C_7  and  N_10
    9  A    between atoms: C_7  and  N_36
   10  A    between atoms: C_8  and  C_16
   11  A    between atoms: N_9  and  C_26
   12  A    between atoms: C_12  and  C_24
   13  A    between atoms: C_15  and  C_33
   14  A    between atoms: C_26  and  C_33
   15  A    between atoms: O_32  and  C_37
                            x       y       z     vdW  Elec       q    Type
                         _______ _______ _______ _____ _____    ______ ____

>  <TORSDO>
F 15

$$$$
=
 OpenBabel11042423083D

 37 38  0  0  0  0  0  0  0  0999 V2000
  162.0150  210.9680  150.5490 C   0  0  0  0  0  3  0  0  0  0  0  0
  162.0560  209.7370  151.0800 C   0  0  0  0  0  0  0  0  0  0  0  0
  160.8340  207.1730  151.7360 O   0  0  0  0  0  0  0  0  0  0  0  0
  161.3280  207.3410  150.5880 C   0  0  0  0  0  0  0  0  0  0  0  0
  161.9560  208.5830  150.2370 N   0  0  0  0  0  2  0  0  0  0  0  0
  161.2560  202.8260  145.6360 C   0  0  0  0  0  1  0  0  0  0  0  0
  161.2960  206.2520  149.6030 C   0  0  0  0  0  0  0  0  0  0  0  0
  161.1110  203.0500  147.1010 C   0  0  0  0  0  0  0  0  0  0  0  0
  160.9530  202.0670  148.0840 C   0  0  0  0  0  3  0  0  0  0  0  0
  161.0550  203.9810  149.0910 C   0  0  0  0  0  0  0  0  0  0  0  0
  161.1030  204.9630  150.0240 N   0  0  0  0  0  0  0  0  0  0  0  0
  161.1850  204.2480  147.7680 C   0  0  0  0  0  0  0  0  0  0  0  0
  160.9120  202.6640  149.3010 N   0  0  0  0  0  0  0  0  0  0  0  0
  160.8310  201.9870  150.5810 C   0  0  0  0  0  1  0  0  0  0  0  0
  161.4330  206.5250  148.2160 C   0  0  0  0  0  3  0  0  0  0  0  0
  161.3790  205.5060  147.3050 N   0  0  0  0  0  0  0  0  0  0  0  0
  162.1130  209.5660  152.5050 N   0  0  0  0  0  2  0  0  0  0  0  0
  159.9840  210.3560  153.0790 O   0  0  0  0  0  0  0  0  0  0  0  0
  161.0390  209.7630  153.4310 C   0  0  0  0  0  0  0  0  0  0  0  0
  161.1930  209.3220  154.7450 O   0  0  0  0  0  0  0  0  0  0  0  0
  160.6220  208.1070  155.2010 C   0  0  0  0  0  1  0  0  0  0  0  0
  162.0100  210.4100  148.2610 O   0  0  0  0  0  0  0  0  0  0  0  0
  161.9270  211.3290  149.1170 C   0  0  0  0  0  0  0  0  0  0  0  0
  161.6730  212.7240  148.6400 C   0  0  0  0  0  2  0  0  0  0  0  0
  162.7070  213.1260  147.5980 C   0  0  0  0  0  2  0  0  0  0  0  0
  162.0820  213.9750  146.5060 C   0  0  0  0  0  2  0  0  0  0  0  0
  161.1550  213.1260  145.6590 C   0  0  0  0  0  2  0  0  0  0  0  0
  160.7520  212.6530  143.2200 C   0  0  0  0  0  0  0  0  0  0  0  0
  161.4100  213.3880  144.2520 N   0  0  0  0  0  2  0  0  0  0  0  0
  159.9500  211.7240  143.5060 O   0  0  0  0  0  0  0  0  0  0  0  0
  160.9860  213.0000  141.7850 C   0  0  0  0  0  2  0  0  0  0  0  0
  162.3550  212.6780  141.3880 N   0  0  0  0  0  0  0  0  0  0  0  0
  163.5720  214.0150  139.7690 N   0  0  0  0  0  1  0  0  0  0  0  0
  163.0810  213.9290  141.1430 C   0  0  0  0  0  2  0  0  0  0  0  0
  162.3090  211.8960  140.1570 C   0  0  0  0  0  2  0  0  0  0  0  0
  161.6500  210.5520  140.4140 C   0  0  0  0  0  2  0  0  0  0  0  0
  160.6640  210.3090  139.4520 O   0  0  0  0  0  1  0  0  0  0  0  0
  1  2  2  0  0  0  0
  2 17  1  0  0  0  0
  4  3  2  0  0  0  0
  5  4  1  0  0  0  0
  5  2  1  0  0  0  0
  6  8  1  0  0  0  0
  7 11  1  0  0  0  0
  7  4  1  0  0  0  0
  8 12  1  0  0  0  0
  8  9  2  0  0  0  0
  9 13  1  0  0  0  0
 10 13  1  0  0  0  0
 10 11  2  0  0  0  0
 12 10  1  0  0  0  0
 13 14  1  0  0  0  0
 15  7  2  0  0  0  0
 16 12  2  0  0  0  0
 16 15  1  0  0  0  0
 17 19  1  0  0  0  0
 18 19  2  0  0  0  0
 19 20  1  0  0  0  0
 20 21  1  0  0  0  0
 22 23  2  0  0  0  0
 23  1  1  0  0  0  0
 24 23  1  0  0  0  0
 25 24  1  0  0  0  0
 26 25  1  0  0  0  0
 27 26  1  0  0  0  0
 28 30  2  0  0  0  0
 28 29  1  0  0  0  0
 29 27  1  0  0  0  0
 31 28  1  0  0  0  0
 32 31  1  0  0  0  0
 33 34  1  0  0  0  0
 34 32  1  0  0  0  0
 35 36  1  0  0  0  0
 35 32  1  0  0  0  0
 37 36  1  0  0  0  0
M  END
>  <MODEL>
7

>  <REMARK>
 VINA RESULT:      -5.6      2.748      4.085
  Name = 
  15 active torsions:
  status: ('A' for Active; 'I' for Inactive)
    1  A    between atoms: C_2  and  C_15
    2  A    between atoms: C_2  and  C_22
    3  A    between atoms: N_3  and  C_12
    4  A    between atoms: N_3  and  C_29
    5  A    between atoms: N_3  and  C_30
    6  A    between atoms: C_4  and  C_22
    7  A    between atoms: C_6  and  C_29
    8  A    between atoms: C_7  and  N_10
    9  A    between atoms: C_7  and  N_36
   10  A    between atoms: C_8  and  C_16
   11  A    between atoms: N_9  and  C_26
   12  A    between atoms: C_12  and  C_24
   13  A    between atoms: C_15  and  C_33
   14  A    between atoms: C_26  and  C_33
   15  A    between atoms: O_32  and  C_37
                            x       y       z     vdW  Elec       q    Type
                         _______ _______ _______ _____ _____    ______ ____

>  <TORSDO>
F 15

$$$$
=
 OpenBabel11042423083D

 37 38  0  0  0  0  0  0  0  0999 V2000
  161.7860  209.7130  151.4350 C   0  0  0  0  0  2  0  0  0  0  0  0
  161.6180  208.4590  151.8800 C   0  0  0  0  0  0  0  0  0  0  0  0
  160.9610  205.6810  152.4700 O   0  0  0  0  0  0  0  0  0  0  0  0
  161.2040  206.0140  151.2790 C   0  0  0  0  0  0  0  0  0  0  0  0
  161.5520  207.3680  150.9530 N   0  0  0  0  0  0  0  0  0  0  0  0
  160.8860  200.9920  146.8520 C   0  0  0  0  0  1  0  0  0  0  0  0
  161.1690  205.0080  150.2090 C   0  0  0  0  0  0  0  0  0  0  0  0
  161.2080  202.4310  147.0610 C   0  0  0  0  0  0  0  0  0  0  0  0
  161.5470  203.3620  146.0750 C   0  0  0  0  0  3  0  0  0  0  0  0
  161.4690  204.4180  147.9640 C   0  0  0  0  0  0  0  0  0  0  0  0
  161.4880  205.3710  148.9270 N   0  0  0  0  0  0  0  0  0  0  0  0
  161.1530  203.1290  148.2420 C   0  0  0  0  0  0  0  0  0  0  0  0
  161.7120  204.5770  146.6540 N   0  0  0  0  0  0  0  0  0  0  0  0
  161.9980  205.8210  145.9640 C   0  0  0  0  0  1  0  0  0  0  0  0
  160.8370  203.6570  150.4940 C   0  0  0  0  0  3  0  0  0  0  0  0
  160.8300  202.7240  149.4940 N   0  0  0  0  0  0  0  0  0  0  0  0
  161.4150  208.2090  153.2790 N   0  0  0  0  0  2  0  0  0  0  0  0
  160.4850  210.2630  153.9140 O   0  0  0  0  0  0  0  0  0  0  0  0
  160.7480  209.0660  154.2110 C   0  0  0  0  0  0  0  0  0  0  0  0
  160.4260  208.5680  155.4730 O   0  0  0  0  0  0  0  0  0  0  0  0
  160.0300  207.2200  155.6690 C   0  0  0  0  0  1  0  0  0  0  0  0
  162.3300  209.3030  149.1810 O   0  0  0  0  0  0  0  0  0  0  0  0
  161.9770  210.1570  150.0370 C   0  0  0  0  0  0  0  0  0  0  0  0
  161.7030  211.5530  149.5770 C   0  0  0  0  0  2  0  0  0  0  0  0
  162.0290  211.6990  148.0970 C   0  0  0  0  0  2  0  0  0  0  0  0
  163.2040  212.6360  147.8860 C   0  0  0  0  0  2  0  0  0  0  0  0
  162.7080  214.0610  147.7380 C   0  0  0  0  0  2  0  0  0  0  0  0
  161.8870  214.2480  145.3660 C   0  0  0  0  0  0  0  0  0  0  0  0
  161.6310  214.0980  146.7630 N   0  0  0  0  0  2  0  0  0  0  0  0
  163.0650  214.3870  144.9420 O   0  0  0  0  0  0  0  0  0  0  0  0
  160.7580  214.2100  144.3880 C   0  0  0  0  0  2  0  0  0  0  0  0
  160.1900  212.8660  144.2990 N   0  0  0  0  0  0  0  0  0  0  0  0
  161.8390  212.6810  142.5280 N   0  0  0  0  0  1  0  0  0  0  0  0
  160.4970  212.3130  142.9750 C   0  0  0  0  0  2  0  0  0  0  0  0
  158.7440  212.9610  144.4600 C   0  0  0  0  0  2  0  0  0  0  0  0
  158.3640  212.7620  145.9170 C   0  0  0  0  0  2  0  0  0  0  0  0
  157.0830  212.2080  146.0080 O   0  0  0  0  0  1  0  0  0  0  0  0
  1  2  1  0  0  0  0
  2 17  1  0  0  0  0
  4  3  2  0  0  0  0
  5  4  1  0  0  0  0
  5  2  2  0  0  0  0
  6  8  1  0  0  0  0
  7 15  1  0  0  0  0
  7  4  1  0  0  0  0
  8 12  1  0  0  0  0
  9 13  1  0  0  0  0
  9  8  2  0  0  0  0
 10 12  2  0  0  0  0
 10 11  1  0  0  0  0
 11  7  2  0  0  0  0
 12 16  1  0  0  0  0
 13 10  1  0  0  0  0
 14 13  1  0  0  0  0
 16 15  2  0  0  0  0
 17 19  1  0  0  0  0
 18 19  2  0  0  0  0
 19 20  1  0  0  0  0
 20 21  1  0  0  0  0
 22 23  2  0  0  0  0
 23  1  1  0  0  0  0
 24 23  1  0  0  0  0
 25 24  1  0  0  0  0
 26 25  1  0  0  0  0
 27 26  1  0  0  0  0
 28 29  1  0  0  0  0
 29 27  1  0  0  0  0
 30 28  2  0  0  0  0
 31 28  1  0  0  0  0
 32 31  1  0  0  0  0
 32 35  1  0  0  0  0
 33 34  1  0  0  0  0
 34 32  1  0  0  0  0
 35 36  1  0  0  0  0
 36 37  1  0  0  0  0
M  END
>  <MODEL>
8

>  <REMARK>
 VINA RESULT:      -5.5      2.329      4.067
  Name = 
  15 active torsions:
  status: ('A' for Active; 'I' for Inactive)
    1  A    between atoms: C_2  and  C_15
    2  A    between atoms: C_2  and  C_22
    3  A    between atoms: N_3  and  C_12
    4  A    between atoms: N_3  and  C_29
    5  A    between atoms: N_3  and  C_30
    6  A    between atoms: C_4  and  C_22
    7  A    between atoms: C_6  and  C_29
    8  A    between atoms: C_7  and  N_10
    9  A    between atoms: C_7  and  N_36
   10  A    between atoms: C_8  and  C_16
   11  A    between atoms: N_9  and  C_26
   12  A    between atoms: C_12  and  C_24
   13  A    between atoms: C_15  and  C_33
   14  A    between atoms: C_26  and  C_33
   15  A    between atoms: O_32  and  C_37
                            x       y       z     vdW  Elec       q    Type
                         _______ _______ _______ _____ _____    ______ ____

>  <TORSDO>
F 15

$$$$
=
 OpenBabel11042423083D

 37 38  0  0  0  0  0  0  0  0999 V2000
  162.0040  211.4620  149.9720 C   0  0  0  0  0  2  0  0  0  0  0  0
  161.9490  210.2700  150.5830 C   0  0  0  0  0  0  0  0  0  0  0  0
  161.3070  207.5950  151.5460 O   0  0  0  0  0  0  0  0  0  0  0  0
  161.5280  207.7670  150.3170 C   0  0  0  0  0  0  0  0  0  0  0  0
  161.8680  209.0660  149.8100 N   0  0  0  0  0  0  0  0  0  0  0  0
  161.3820  203.0030  145.6060 C   0  0  0  0  0  1  0  0  0  0  0  0
  161.4750  206.6290  149.3900 C   0  0  0  0  0  0  0  0  0  0  0  0
  161.2160  203.3080  147.0540 C   0  0  0  0  0  0  0  0  0  0  0  0
  161.0020  202.3850  148.0830 C   0  0  0  0  0  3  0  0  0  0  0  0
  161.1570  204.3450  148.9910 C   0  0  0  0  0  0  0  0  0  0  0  0
  161.2240  205.3720  149.8730 N   0  0  0  0  0  0  0  0  0  0  0  0
  161.3230  204.5360  147.6590 C   0  0  0  0  0  0  0  0  0  0  0  0
  160.9600  203.0460  149.2660 N   0  0  0  0  0  0  0  0  0  0  0  0
  160.8280  202.4420  150.5780 C   0  0  0  0  0  1  0  0  0  0  0  0
  161.6490  206.8230  147.9930 C   0  0  0  0  0  3  0  0  0  0  0  0
  161.5740  205.7600  147.1360 N   0  0  0  0  0  0  0  0  0  0  0  0
  161.8840  210.1930  152.0160 N   0  0  0  0  0  2  0  0  0  0  0  0
  159.8390  211.2790  152.3730 O   0  0  0  0  0  0  0  0  0  0  0  0
  160.7830  210.5860  152.8410 C   0  0  0  0  0  0  0  0  0  0  0  0
  160.7870  210.2220  154.1880 O   0  0  0  0  0  0  0  0  0  0  0  0
  161.7090  210.7780  155.1120 C   0  0  0  0  0  1  0  0  0  0  0  0
  163.1700  211.7810  147.9510 O   0  0  0  0  0  0  0  0  0  0  0  0
  162.0470  211.7300  148.5180 C   0  0  0  0  0  0  0  0  0  0  0  0
  160.8180  211.8710  147.6760 C   0  0  0  0  0  2  0  0  0  0  0  0
  160.8940  213.1380  146.8350 C   0  0  0  0  0  2  0  0  0  0  0  0
  160.2620  212.9280  145.4710 C   0  0  0  0  0  2  0  0  0  0  0  0
  160.5110  214.1400  144.5950 C   0  0  0  0  0  2  0  0  0  0  0  0
  161.4980  213.3670  142.4120 C   0  0  0  0  0  0  0  0  0  0  0  0
  160.3730  213.7630  143.1980 N   0  0  0  0  0  2  0  0  0  0  0  0
  162.6570  213.3670  142.9060 O   0  0  0  0  0  0  0  0  0  0  0  0
  161.3050  212.9170  141.0000 C   0  0  0  0  0  2  0  0  0  0  0  0
  162.1420  211.7560  140.7040 N   0  0  0  0  0  0  0  0  0  0  0  0
  163.8470  212.7850  139.3180 N   0  0  0  0  0  1  0  0  0  0  0  0
  162.6840  211.9000  139.3480 C   0  0  0  0  0  2  0  0  0  0  0  0
  161.3130  210.5580  140.7680 C   0  0  0  0  0  2  0  0  0  0  0  0
  161.4360  209.7650  139.4780 C   0  0  0  0  0  2  0  0  0  0  0  0
  161.9530  208.4930  139.7440 O   0  0  0  0  0  1  0  0  0  0  0  0
  1  2  1  0  0  0  0
  2 17  1  0  0  0  0
  4  3  2  0  0  0  0
  5  4  1  0  0  0  0
  5  2  2  0  0  0  0
  6  8  1  0  0  0  0
  7 11  1  0  0  0  0
  7  4  1  0  0  0  0
  8 12  1  0  0  0  0
  8  9  2  0  0  0  0
  9 13  1  0  0  0  0
 10 13  1  0  0  0  0
 10 11  2  0  0  0  0
 12 10  1  0  0  0  0
 13 14  1  0  0  0  0
 15  7  2  0  0  0  0
 16 12  2  0  0  0  0
 16 15  1  0  0  0  0
 17 19  1  0  0  0  0
 18 19  2  0  0  0  0
 19 20  1  0  0  0  0
 20 21  1  0  0  0  0
 22 23  2  0  0  0  0
 23  1  1  0  0  0  0
 24 23  1  0  0  0  0
 25 24  1  0  0  0  0
 26 25  1  0  0  0  0
 27 26  1  0  0  0  0
 28 30  2  0  0  0  0
 28 29  1  0  0  0  0
 29 27  1  0  0  0  0
 31 28  1  0  0  0  0
 32 35  1  0  0  0  0
 32 31  1  0  0  0  0
 33 34  1  0  0  0  0
 34 32  1  0  0  0  0
 36 37  1  0  0  0  0
 36 35  1  0  0  0  0
M  END
>  <MODEL>
9

>  <REMARK>
 VINA RESULT:      -5.4      3.123      4.328
  Name = 
  15 active torsions:
  status: ('A' for Active; 'I' for Inactive)
    1  A    between atoms: C_2  and  C_15
    2  A    between atoms: C_2  and  C_22
    3  A    between atoms: N_3  and  C_12
    4  A    between atoms: N_3  and  C_29
    5  A    between atoms: N_3  and  C_30
    6  A    between atoms: C_4  and  C_22
    7  A    between atoms: C_6  and  C_29
    8  A    between atoms: C_7  and  N_10
    9  A    between atoms: C_7  and  N_36
   10  A    between atoms: C_8  and  C_16
   11  A    between atoms: N_9  and  C_26
   12  A    between atoms: C_12  and  C_24
   13  A    between atoms: C_15  and  C_33
   14  A    between atoms: C_26  and  C_33
   15  A    between atoms: O_32  and  C_37
                            x       y       z     vdW  Elec       q    Type
                         _______ _______ _______ _____ _____    ______ ____

>  <TORSDO>
F 15

$$$$
