=
 OpenBabel11052409373D

 44 48  0  0  1  0  0  0  0  0999 V2000
  158.4940  211.4170  156.7550 C   0  0  0  0  0  3  0  0  0  0  0  0
  161.2200  209.5340  154.1040 C   0  0  0  0  0  2  0  0  0  0  0  0
  160.2940  213.2340  150.1280 O   0  0  0  0  0  0  0  0  0  0  0  0
  157.4730  212.5920  154.7750 C   0  0  0  0  0  0  0  0  0  0  0  0
  158.1520  214.0430  150.7050 C   0  0  0  0  0  3  0  0  0  0  0  0
  160.6260  208.2300  153.6010 C   0  0  0  0  0  2  0  0  0  0  0  0
  155.6930  214.4010  153.4840 C   0  0  0  0  0  3  0  0  0  0  0  0
  159.4250  210.5690  157.2610 N   0  0  0  0  0  0  0  0  0  0  0  0
  158.4490  211.6590  155.3800 C   0  0  0  0  0  0  0  0  0  0  0  0
  159.3550  211.0340  154.5820 N   0  0  0  0  0  0  0  0  0  0  0  0
  160.2890  210.1790  155.0740 C   0  0  0  0  0  0  0  0  0  0  0  0
  159.4140  213.4020  151.2000 C   0  0  2  0  0  3  0  0  0  0  0  0
  154.8200  213.8080  156.8980 C   0  0  0  0  0  3  0  0  0  0  0  0
  160.0840  214.2950  152.2300 C   0  0  0  0  0  1  0  0  0  0  0  0
  157.0340  214.2330  151.4190 C   0  0  0  0  0  3  0  0  0  0  0  0
  162.7730  207.7750  150.5530 C   0  0  0  0  0  3  0  0  0  0  0  0
  156.3920  213.1480  155.4730 C   0  0  0  0  0  0  0  0  0  0  0  0
  161.1220  209.0600  149.2350 N   0  0  0  0  0  2  0  0  0  0  0  0
  157.6280  212.9590  153.4670 N   0  0  0  0  0  0  0  0  0  0  0  0
  162.0080  210.2180  149.1010 C   0  0  0  0  0  2  0  0  0  0  0  0
  160.2850  211.8660  149.8390 C   0  0  0  0  0  2  0  0  0  0  0  0
  160.3260  209.9330  156.4670 C   0  0  0  0  0  0  0  0  0  0  0  0
  155.5010  214.0460  154.8070 C   0  0  0  0  0  0  0  0  0  0  0  0
  161.6540  211.2770  150.1340 C   0  0  0  0  0  2  0  0  0  0  0  0
  160.8610  208.0730  152.1100 C   0  0  0  0  0  2  0  0  0  0  0  0
  161.8890  207.8130  149.3350 C   0  0  1  0  0  3  0  0  0  0  0  0
  162.3130  207.8820  151.8030 C   0  0  0  0  0  3  0  0  0  0  0  0
  154.5330  214.4530  155.6930 C   0  0  0  0  0  3  0  0  0  0  0  0
  155.9560  213.0050  156.7720 C   0  0  0  0  0  2  0  0  0  0  0  0
  156.7970  213.8390  152.8180 C   0  0  0  0  0  0  0  0  0  0  0  0
  161.2260  207.7450  157.0490 N   0  0  0  0  0  2  0  0  0  0  0  0
  161.2910  209.0320  157.1280 C   0  0  0  0  0  3  0  0  0  0  0  0
  162.6990  207.5450  148.0740 C   0  0  0  0  0  2  0  0  0  0  0  0
  160.7260  206.6960  147.0450 O   0  0  0  0  0  0  0  0  0  0  0  0
  161.9750  206.6020  147.1830 C   0  0  0  0  0  0  0  0  0  0  0  0
  162.7090  205.5810  146.5070 N   0  0  0  0  0  2  0  0  0  0  0  0
  163.0190  203.5160  144.9040 O   0  0  0  0  0  0  0  0  0  0  0  0
  161.9520  204.3820  145.5120 S   0  0  0  0  0  0  0  0  0  0  0  0
  161.1760  205.0550  144.4130 O   0  0  0  0  0  0  0  0  0  0  0  0
  160.6900  202.0210  145.8770 C   0  0  0  0  0  2  0  0  0  0  0  0
  161.2080  201.8050  148.0210 C   0  0  0  0  0  2  0  0  0  0  0  0
  161.0670  201.0770  146.8300 O   0  0  0  0  0  0  0  0  0  0  0  0
  160.8680  203.3720  146.5060 C   0  0  1  0  0  3  0  0  0  0  0  0
  161.4470  203.1590  147.7550 O   0  0  0  0  0  0  0  0  0  0  0  0
  1  8  1  0  0  0  0
  2 11  1  0  0  0  0
  3 12  1  0  0  0  0
  4  9  1  0  0  0  0
  4 17  1  0  0  0  0
  5 12  1  0  0  0  0
  5 15  2  0  0  0  0
  6  2  1  0  0  0  0
  7 23  1  0  0  0  0
  9  1  2  0  0  0  0
 10 11  2  0  0  0  0
 10  9  1  0  0  0  0
 11 22  1  0  0  0  0
 12 14  1  1  0  0  0
 15 30  1  0  0  0  0
 16 27  2  0  0  0  0
 17 29  1  0  0  0  0
 18 26  1  0  0  0  0
 19  4  2  0  0  0  0
 20 18  1  0  0  0  0
 20 24  1  0  0  0  0
 21  3  1  0  0  0  0
 21 24  1  0  0  0  0
 22 32  1  0  0  0  0
 22  8  2  0  0  0  0
 23 17  2  0  0  0  0
 23 28  1  0  0  0  0
 25  6  1  0  0  0  0
 26 33  1  6  0  0  0
 26 16  1  0  0  0  0
 27 25  1  0  0  0  0
 28 13  2  0  0  0  0
 29 13  1  0  0  0  0
 30 19  1  0  0  0  0
 30  7  2  0  0  0  0
 31 32  2  0  0  0  0
 34 35  2  0  0  0  0
 35 33  1  0  0  0  0
 36 35  1  0  0  0  0
 37 38  2  0  0  0  0
 38 36  1  0  0  0  0
 39 38  2  0  0  0  0
 40 43  1  0  0  0  0
 40 42  1  0  0  0  0
 42 41  1  0  0  0  0
 43 38  1  6  0  0  0
 43 44  1  0  0  0  0
 44 41  1  0  0  0  0
M  END
>  <MODEL>
1

>  <REMARK>
 VINA RESULT:      -5.3      0.000      0.000
  Name = 
  5 active torsions:
  status: ('A' for Active; 'I' for Inactive)
    1  A    between atoms: S_11  and  N_26
    2  A    between atoms: S_11  and  C_38
    3  A    between atoms: C_25  and  C_40
    4  A    between atoms: C_32  and  C_41
    5  A    between atoms: C_36  and  C_40
                            x       y       z     vdW  Elec       q    Type
                         _______ _______ _______ _____ _____    ______ ____

>  <TORSDO>
F 5

$$$$
