=
 OpenBabel11042422173D

 52 57  0  0  1  0  0  0  0  0999 V2000
  162.1520  206.9010  151.6050 C   0  0  2  0  0  3  0  0  0  0  0  0
  161.2930  206.8690  154.7700 C   0  0  0  0  0  2  0  0  0  0  0  0
  160.6830  208.1580  155.3220 C   0  0  0  0  0  2  0  0  0  0  0  0
  161.0400  207.4190  152.5260 C   0  0  1  0  0  3  0  0  0  0  0  0
  160.6790  206.5040  153.5550 O   0  0  0  0  0  0  0  0  0  0  0  0
  160.4240  209.1750  154.2040 C   0  0  2  0  0  3  0  0  0  0  0  0
  161.2620  208.8790  152.9640 C   0  0  0  0  0  2  0  0  0  0  0  0
  160.6060  210.6230  154.6700 C   0  0  2  0  0  3  0  0  0  0  0  0
  161.3550  210.7060  155.9970 C   0  0  0  0  0  1  0  0  0  0  0  0
  158.6830  212.0770  153.7300 C   0  0  0  0  0  0  0  0  0  0  0  0
  155.3670  213.5270  155.9950 C   0  0  1  0  0  3  0  0  0  0  0  0
  157.5900  212.7910  154.3530 C   0  0  0  0  0  0  0  0  0  0  0  0
  156.5890  214.1230  152.5690 N   0  0  0  0  0  0  0  0  0  0  0  0
  157.4550  213.8170  151.4610 C   0  0  0  0  0  3  0  0  0  0  0  0
  156.5970  213.7090  153.8000 C   0  0  0  0  0  0  0  0  0  0  0  0
  158.6580  211.6100  155.9200 O   0  0  0  0  0  0  0  0  0  0  0  0
  155.5890  214.1820  154.7020 N   0  0  0  0  0  2  0  0  0  0  0  0
  159.3160  211.3080  154.7520 N   0  0  0  0  0  0  0  0  0  0  0  0
  157.6170  212.4890  155.6430 C   0  0  0  0  0  0  0  0  0  0  0  0
  159.1000  212.1600  152.4740 C   0  0  0  0  0  3  0  0  0  0  0  0
  158.5060  212.9910  151.4190 C   0  0  0  0  0  3  0  0  0  0  0  0
  156.6900  213.1020  156.6550 C   0  0  0  0  0  2  0  0  0  0  0  0
  154.6040  214.4530  156.9150 C   0  0  0  0  0  1  0  0  0  0  0  0
  162.1340  207.5770  150.2240 C   0  0  1  0  0  3  0  0  0  0  0  0
  162.5140  206.6290  147.9300 N   0  0  0  0  0  0  0  0  0  0  0  0
  161.1640  207.2370  147.8920 C   0  0  0  0  0  0  0  0  0  0  0  0
  161.6360  206.6040  149.1270 C   0  0  2  0  0  3  0  0  0  0  0  0
  161.2000  208.6270  147.7600 O   0  0  0  0  0  1  0  0  0  0  0  0
  160.2140  206.5500  147.1280 O   0  0  0  0  0  1  0  0  0  0  0  0
  162.5140  205.2720  147.4020 C   0  0  0  0  0  2  0  0  0  0  0  0
  162.5550  205.3600  144.7350 C   0  0  0  0  0  3  0  0  0  0  0  0
  162.5380  205.3100  145.9410 C   0  0  0  0  0  0  0  0  0  0  0  0
  161.4050  208.7750  150.2590 O   0  0  0  0  0  0  0  0  0  0  0  0
  162.3690  209.7850  150.2180 C   0  0  0  0  0  2  0  0  0  0  0  0
  161.6910  211.1280  150.0550 C   0  0  0  0  0  2  0  0  0  0  0  0
  162.1110  211.7330  148.7330 C   0  0  0  0  0  2  0  0  0  0  0  0
  161.7220  213.1280  148.6890 N   0  0  0  0  0  2  0  0  0  0  0  0
  160.4280  213.1760  148.0350 C   0  0  0  0  0  2  0  0  0  0  0  0
  160.4860  212.4370  146.7130 C   0  0  0  0  0  2  0  0  0  0  0  0
  159.6280  213.1030  145.7490 N   0  0  0  0  0  2  0  0  0  0  0  0
  162.1630  213.1720  144.4010 C   0  0  0  0  0  1  0  0  0  0  0  0
  160.4020  213.0190  144.2020 S   0  0  0  0  0  0  0  0  0  0  0  0
  160.0940  211.6920  143.5740 O   0  0  0  0  0  0  0  0  0  0  0  0
  159.8970  214.1190  143.3100 O   0  0  0  0  0  0  0  0  0  0  0  0
  162.2380  205.3690  151.5580 C   0  0  0  0  0  2  0  0  0  0  0  0
  160.8760  204.6900  151.6070 C   0  0  0  0  0  2  0  0  0  0  0  0
  160.6740  202.3670  148.6180 C   0  0  0  0  0  3  0  0  0  0  0  0
  160.8920  203.4580  150.7730 C   0  0  0  0  0  0  0  0  0  0  0  0
  161.2510  201.0680  150.5790 C   0  0  0  0  0  3  0  0  0  0  0  0
  160.6280  203.5270  149.4000 C   0  0  0  0  0  3  0  0  0  0  0  0
  161.2080  202.2280  151.3600 C   0  0  0  0  0  3  0  0  0  0  0  0
  160.9840  201.1380  149.2080 C   0  0  0  0  0  3  0  0  0  0  0  0
  1 45  1  6  0  0  0
  2  3  1  0  0  0  0
  4  1  1  1  0  0  0
  4  7  1  0  0  0  0
  4  5  1  0  0  0  0
  5  2  1  0  0  0  0
  6  8  1  1  0  0  0
  6  3  1  0  0  0  0
  7  6  1  0  0  0  0
  8 18  1  0  0  0  0
  8  9  1  1  0  0  0
 10 12  1  0  0  0  0
 10 18  1  0  0  0  0
 11 22  1  0  0  0  0
 11 23  1  1  0  0  0
 12 19  2  0  0  0  0
 13 15  2  0  0  0  0
 14 13  1  0  0  0  0
 15 12  1  0  0  0  0
 15 17  1  0  0  0  0
 17 11  1  0  0  0  0
 18 16  1  0  0  0  0
 19 16  1  0  0  0  0
 19 22  1  0  0  0  0
 20 10  2  0  0  0  0
 21 14  2  0  0  0  0
 21 20  1  0  0  0  0
 24 33  1  1  0  0  0
 24  1  1  0  0  0  0
 25 27  1  0  0  0  0
 26 25  1  0  0  0  0
 26 27  1  0  0  0  0
 27 24  1  1  0  0  0
 28 26  1  0  0  0  0
 29 26  1  0  0  0  0
 30 25  1  0  0  0  0
 31 32  3  0  0  0  0
 32 30  1  0  0  0  0
 34 33  1  0  0  0  0
 35 34  1  0  0  0  0
 36 35  1  0  0  0  0
 37 36  1  0  0  0  0
 38 37  1  0  0  0  0
 39 38  1  0  0  0  0
 40 39  1  0  0  0  0
 42 41  1  0  0  0  0
 42 40  1  0  0  0  0
 43 42  2  0  0  0  0
 44 42  2  0  0  0  0
 45 46  1  0  0  0  0
 47 52  2  0  0  0  0
 47 50  1  0  0  0  0
 48 51  1  0  0  0  0
 48 46  1  0  0  0  0
 49 51  2  0  0  0  0
 50 48  2  0  0  0  0
 52 49  1  0  0  0  0
M  END
>  <MODEL>
1

>  <REMARK>
 VINA RESULT:      -7.3      0.000      0.000
  Name = 
  19 active torsions:
  status: ('A' for Active; 'I' for Inactive)
    1  A    between atoms: C_2  and  N_14
    2  A    between atoms: C_2  and  C_25
    3  A    between atoms: C_3  and  C_15
    4  A    between atoms: C_3  and  C_35
    5  A    between atoms: C_5  and  N_23
    6  A    between atoms: C_5  and  C_32
    7  A    between atoms: C_15  and  C_28
    8  A    between atoms: C_15  and  C_30
    9  A    between atoms: S_16  and  N_49
   10  A    between atoms: N_20  and  C_24
   11  A    between atoms: N_20  and  C_48
   12  A    between atoms: C_21  and  C_33
   13  A    between atoms: C_21  and  O_42
   14  A    between atoms: C_22  and  C_30
   15  A    between atoms: C_24  and  C_41
   16  A    between atoms: C_26  and  C_35
   17  A    between atoms: C_30  and  O_42
   18  A    between atoms: C_33  and  C_48
   19  A    between atoms: C_41  and  N_49
                            x       y       z     vdW  Elec       q    Type
                         _______ _______ _______ _____ _____    ______ ____

>  <TORSDO>
F 19

$$$$
=
 OpenBabel11042422173D

 52 57  0  0  1  0  0  0  0  0999 V2000
  159.5960  211.7670  152.6950 C   0  0  2  0  0  3  0  0  0  0  0  0
  162.4940  210.2350  152.8300 C   0  0  0  0  0  2  0  0  0  0  0  0
  162.4790  208.7280  152.5710 C   0  0  0  0  0  2  0  0  0  0  0  0
  160.3710  210.6510  151.9810 C   0  0  1  0  0  3  0  0  0  0  0  0
  161.7610  210.9200  151.8400 O   0  0  0  0  0  0  0  0  0  0  0  0
  161.0940  208.2550  152.1120 C   0  0  2  0  0  3  0  0  0  0  0  0
  160.0010  209.2470  152.4970 C   0  0  0  0  0  2  0  0  0  0  0  0
  160.7640  206.8410  152.5960 C   0  0  2  0  0  3  0  0  0  0  0  0
  161.4940  206.4940  153.8900 C   0  0  0  0  0  1  0  0  0  0  0  0
  161.2420  206.1040  150.1620 C   0  0  0  0  0  0  0  0  0  0  0  0
  161.4970  202.0570  148.8260 C   0  0  1  0  0  3  0  0  0  0  0  0
  161.2010  204.8230  149.4920 C   0  0  0  0  0  0  0  0  0  0  0  0
  161.4810  205.3240  147.1200 N   0  0  0  0  0  0  0  0  0  0  0  0
  161.5390  206.7630  147.1350 C   0  0  0  0  0  3  0  0  0  0  0  0
  161.3530  204.4640  148.0840 C   0  0  0  0  0  0  0  0  0  0  0  0
  160.8440  204.5010  151.6750 O   0  0  0  0  0  0  0  0  0  0  0  0
  161.3340  203.0650  147.7730 N   0  0  0  0  0  2  0  0  0  0  0  0
  161.0480  205.8550  151.5540 N   0  0  0  0  0  0  0  0  0  0  0  0
  160.9600  203.9090  150.4220 C   0  0  0  0  0  0  0  0  0  0  0  0
  161.3520  207.3070  149.6140 C   0  0  0  0  0  3  0  0  0  0  0  0
  161.4880  207.5950  148.1800 C   0  0  0  0  0  3  0  0  0  0  0  0
  160.7560  202.4520  150.1150 C   0  0  0  0  0  2  0  0  0  0  0  0
  161.0000  200.7160  148.3330 C   0  0  0  0  0  1  0  0  0  0  0  0
  159.0550  212.8250  151.7200 C   0  0  1  0  0  3  0  0  0  0  0  0
  157.0170  214.2660  151.4500 N   0  0  0  0  0  0  0  0  0  0  0  0
  156.9630  213.7550  152.8390 C   0  0  0  0  0  0  0  0  0  0  0  0
  157.5090  212.9040  151.7780 C   0  0  2  0  0  3  0  0  0  0  0  0
  157.8240  214.4390  153.7010 O   0  0  0  0  0  1  0  0  0  0  0  0
  155.6850  213.4560  153.3230 O   0  0  0  0  0  1  0  0  0  0  0  0
  155.7510  214.0800  150.7530 C   0  0  0  0  0  2  0  0  0  0  0  0
  156.0910  214.4040  148.1260 C   0  0  0  0  0  3  0  0  0  0  0  0
  155.9470  214.2600  149.3160 C   0  0  0  0  0  0  0  0  0  0  0  0
  159.6710  214.0670  151.9310 O   0  0  0  0  0  0  0  0  0  0  0  0
  160.1480  214.4510  150.6770 C   0  0  0  0  0  2  0  0  0  0  0  0
  159.8740  213.3540  149.6710 C   0  0  0  0  0  2  0  0  0  0  0  0
  161.1770  212.9530  149.0120 C   0  0  0  0  0  2  0  0  0  0  0  0
  161.6120  214.0030  148.1130 N   0  0  0  0  0  2  0  0  0  0  0  0
  162.6870  213.4450  147.3160 C   0  0  0  0  0  2  0  0  0  0  0  0
  162.5830  213.9350  145.8860 C   0  0  0  0  0  2  0  0  0  0  0  0
  161.2400  214.4310  145.6410 N   0  0  0  0  0  2  0  0  0  0  0  0
  158.9870  213.9020  143.9410 C   0  0  0  0  0  1  0  0  0  0  0  0
  160.3570  213.1870  144.8230 S   0  0  0  0  0  0  0  0  0  0  0  0
  161.2670  212.5050  143.8450 O   0  0  0  0  0  0  0  0  0  0  0  0
  159.8470  212.1770  145.8140 O   0  0  0  0  0  0  0  0  0  0  0  0
  160.3420  212.3450  153.9060 C   0  0  0  0  0  2  0  0  0  0  0  0
  159.6810  212.0070  155.2350 C   0  0  0  0  0  2  0  0  0  0  0  0
  160.3930  208.4460  156.3230 C   0  0  0  0  0  3  0  0  0  0  0  0
  160.3430  210.8240  155.8470 C   0  0  0  0  0  0  0  0  0  0  0  0
  162.2290  209.8600  157.0260 C   0  0  0  0  0  3  0  0  0  0  0  0
  159.7480  209.5590  155.7700 C   0  0  0  0  0  3  0  0  0  0  0  0
  161.5860  210.9710  156.4720 C   0  0  0  0  0  3  0  0  0  0  0  0
  161.6320  208.5970  156.9520 C   0  0  0  0  0  3  0  0  0  0  0  0
  1 45  1  1  0  0  0
  3  2  1  0  0  0  0
  4  7  1  0  0  0  0
  4  1  1  1  0  0  0
  5  4  1  0  0  0  0
  5  2  1  0  0  0  0
  6  7  1  0  0  0  0
  6  3  1  0  0  0  0
  6  8  1  1  0  0  0
  8  9  1  1  0  0  0
 10 18  1  0  0  0  0
 11 23  1  6  0  0  0
 11 22  1  0  0  0  0
 12 10  1  0  0  0  0
 12 19  2  0  0  0  0
 13 14  1  0  0  0  0
 13 15  2  0  0  0  0
 14 21  2  0  0  0  0
 15 12  1  0  0  0  0
 17 15  1  0  0  0  0
 17 11  1  0  0  0  0
 18 16  1  0  0  0  0
 18  8  1  0  0  0  0
 19 16  1  0  0  0  0
 20 10  2  0  0  0  0
 21 20  1  0  0  0  0
 22 19  1  0  0  0  0
 24 33  1  1  0  0  0
 24  1  1  0  0  0  0
 25 27  1  0  0  0  0
 25 26  1  0  0  0  0
 26 29  1  0  0  0  0
 26 28  1  0  0  0  0
 27 24  1  1  0  0  0
 27 26  1  0  0  0  0
 30 25  1  0  0  0  0
 31 32  3  0  0  0  0
 32 30  1  0  0  0  0
 34 33  1  0  0  0  0
 35 34  1  0  0  0  0
 36 35  1  0  0  0  0
 37 36  1  0  0  0  0
 38 37  1  0  0  0  0
 39 38  1  0  0  0  0
 40 39  1  0  0  0  0
 41 42  1  0  0  0  0
 42 40  1  0  0  0  0
 42 44  2  0  0  0  0
 43 42  2  0  0  0  0
 45 46  1  0  0  0  0
 46 48  1  0  0  0  0
 47 52  1  0  0  0  0
 48 51  2  0  0  0  0
 50 48  1  0  0  0  0
 50 47  2  0  0  0  0
 51 49  1  0  0  0  0
 52 49  2  0  0  0  0
M  END
>  <MODEL>
2

>  <REMARK>
 VINA RESULT:      -6.6      2.212      8.299
  Name = 
  19 active torsions:
  status: ('A' for Active; 'I' for Inactive)
    1  A    between atoms: C_2  and  N_14
    2  A    between atoms: C_2  and  C_25
    3  A    between atoms: C_3  and  C_15
    4  A    between atoms: C_3  and  C_35
    5  A    between atoms: C_5  and  N_23
    6  A    between atoms: C_5  and  C_32
    7  A    between atoms: C_15  and  C_28
    8  A    between atoms: C_15  and  C_30
    9  A    between atoms: S_16  and  N_49
   10  A    between atoms: N_20  and  C_24
   11  A    between atoms: N_20  and  C_48
   12  A    between atoms: C_21  and  C_33
   13  A    between atoms: C_21  and  O_42
   14  A    between atoms: C_22  and  C_30
   15  A    between atoms: C_24  and  C_41
   16  A    between atoms: C_26  and  C_35
   17  A    between atoms: C_30  and  O_42
   18  A    between atoms: C_33  and  C_48
   19  A    between atoms: C_41  and  N_49
                            x       y       z     vdW  Elec       q    Type
                         _______ _______ _______ _____ _____    ______ ____

>  <TORSDO>
F 19

$$$$
=
 OpenBabel11042422173D

 52 57  0  0  1  0  0  0  0  0999 V2000
  159.7280  211.7180  152.4490 C   0  0  2  0  0  3  0  0  0  0  0  0
  162.4660  210.0420  153.1220 C   0  0  0  0  0  2  0  0  0  0  0  0
  162.5110  208.5910  152.6390 C   0  0  0  0  0  2  0  0  0  0  0  0
  160.6600  210.6820  151.8070 C   0  0  1  0  0  3  0  0  0  0  0  0
  162.0380  210.9000  152.0900 O   0  0  0  0  0  0  0  0  0  0  0  0
  161.3020  208.2600  151.7550 C   0  0  2  0  0  3  0  0  0  0  0  0
  160.1530  209.2380  151.9800 C   0  0  0  0  0  2  0  0  0  0  0  0
  160.8410  206.8080  151.9070 C   0  0  2  0  0  3  0  0  0  0  0  0
  161.6940  206.0390  152.9130 C   0  0  0  0  0  1  0  0  0  0  0  0
  160.9000  204.7260  150.3720 C   0  0  0  0  0  0  0  0  0  0  0  0
  161.1130  204.8240  146.1090 C   0  0  1  0  0  3  0  0  0  0  0  0
  161.1370  204.5500  148.9560 C   0  0  0  0  0  0  0  0  0  0  0  0
  161.3170  202.1390  148.6250 N   0  0  0  0  0  0  0  0  0  0  0  0
  161.1890  201.6530  149.9740 C   0  0  0  0  0  3  0  0  0  0  0  0
  161.2900  203.3450  148.1440 C   0  0  0  0  0  0  0  0  0  0  0  0
  161.0600  206.7390  149.4020 O   0  0  0  0  0  0  0  0  0  0  0  0
  161.4370  203.5370  146.7320 N   0  0  0  0  0  2  0  0  0  0  0  0
  160.8210  206.1310  150.6110 N   0  0  0  0  0  0  0  0  0  0  0  0
  161.2280  205.7620  148.4270 C   0  0  0  0  0  0  0  0  0  0  0  0
  160.8450  203.7920  151.3110 C   0  0  0  0  0  3  0  0  0  0  0  0
  160.9880  202.3450  151.1000 C   0  0  0  0  0  3  0  0  0  0  0  0
  161.5600  206.0100  146.9820 C   0  0  0  0  0  2  0  0  0  0  0  0
  161.7630  204.9120  144.7460 C   0  0  0  0  0  1  0  0  0  0  0  0
  159.2900  212.8090  151.4590 C   0  0  1  0  0  3  0  0  0  0  0  0
  157.3560  214.3980  151.2550 N   0  0  0  0  0  0  0  0  0  0  0  0
  157.2000  213.7460  152.5760 C   0  0  0  0  0  0  0  0  0  0  0  0
  157.7510  212.9800  151.4540 C   0  0  2  0  0  3  0  0  0  0  0  0
  158.0530  214.2790  153.5460 O   0  0  0  0  0  1  0  0  0  0  0  0
  155.8830  213.4780  152.9650 O   0  0  0  0  0  1  0  0  0  0  0  0
  156.1200  214.3670  150.4850 C   0  0  0  0  0  2  0  0  0  0  0  0
  156.6210  213.4900  148.0150 C   0  0  0  0  0  3  0  0  0  0  0  0
  156.3910  213.8770  149.1350 C   0  0  0  0  0  0  0  0  0  0  0  0
  159.9690  214.0130  151.7030 O   0  0  0  0  0  0  0  0  0  0  0  0
  160.5580  214.3480  150.4820 C   0  0  0  0  0  2  0  0  0  0  0  0
  160.8120  213.0920  149.6780 C   0  0  0  0  0  2  0  0  0  0  0  0
  161.1940  213.4800  148.2650 C   0  0  0  0  0  2  0  0  0  0  0  0
  160.0920  214.1780  147.6360 N   0  0  0  0  0  2  0  0  0  0  0  0
  159.9680  213.6340  146.2970 C   0  0  0  0  0  2  0  0  0  0  0  0
  160.8540  214.4030  145.3390 C   0  0  0  0  0  2  0  0  0  0  0  0
  160.5160  214.0440  143.9730 N   0  0  0  0  0  2  0  0  0  0  0  0
  162.6550  214.3000  142.0740 C   0  0  0  0  0  1  0  0  0  0  0  0
  161.8850  213.2430  143.2800 S   0  0  0  0  0  0  0  0  0  0  0  0
  162.8730  212.9370  144.3660 O   0  0  0  0  0  0  0  0  0  0  0  0
  161.4560  211.9590  142.6250 O   0  0  0  0  0  0  0  0  0  0  0  0
  160.2460  212.2520  153.7910 C   0  0  0  0  0  2  0  0  0  0  0  0
  159.5090  211.6740  154.9920 C   0  0  0  0  0  2  0  0  0  0  0  0
  162.3430  209.9870  156.8600 C   0  0  0  0  0  3  0  0  0  0  0  0
  160.3430  210.6330  155.6490 C   0  0  0  0  0  0  0  0  0  0  0  0
  160.6390  208.3380  156.3700 C   0  0  0  0  0  3  0  0  0  0  0  0
  161.5790  210.9670  156.2180 C   0  0  0  0  0  3  0  0  0  0  0  0
  159.8730  209.3180  155.7310 C   0  0  0  0  0  3  0  0  0  0  0  0
  161.8740  208.6720  156.9350 C   0  0  0  0  0  3  0  0  0  0  0  0
  1 45  1  1  0  0  0
  3  2  1  0  0  0  0
  4  7  1  0  0  0  0
  4  5  1  0  0  0  0
  4  1  1  1  0  0  0
  5  2  1  0  0  0  0
  6  8  1  1  0  0  0
  6  7  1  0  0  0  0
  6  3  1  0  0  0  0
  8  9  1  1  0  0  0
 10 18  1  0  0  0  0
 10 20  2  0  0  0  0
 11 23  1  6  0  0  0
 11 17  1  0  0  0  0
 11 22  1  0  0  0  0
 12 10  1  0  0  0  0
 13 14  1  0  0  0  0
 14 21  2  0  0  0  0
 15 13  2  0  0  0  0
 15 12  1  0  0  0  0
 16 18  1  0  0  0  0
 17 15  1  0  0  0  0
 18  8  1  0  0  0  0
 19 12  2  0  0  0  0
 19 16  1  0  0  0  0
 21 20  1  0  0  0  0
 22 19  1  0  0  0  0
 24 33  1  1  0  0  0
 24  1  1  0  0  0  0
 25 27  1  0  0  0  0
 25 26  1  0  0  0  0
 26 29  1  0  0  0  0
 26 28  1  0  0  0  0
 27 24  1  1  0  0  0
 27 26  1  0  0  0  0
 30 25  1  0  0  0  0
 31 32  3  0  0  0  0
 32 30  1  0  0  0  0
 34 33  1  0  0  0  0
 35 34  1  0  0  0  0
 36 35  1  0  0  0  0
 37 36  1  0  0  0  0
 38 37  1  0  0  0  0
 39 38  1  0  0  0  0
 40 39  1  0  0  0  0
 41 42  1  0  0  0  0
 42 40  1  0  0  0  0
 42 43  2  0  0  0  0
 44 42  2  0  0  0  0
 45 46  1  0  0  0  0
 46 48  1  0  0  0  0
 47 52  1  0  0  0  0
 48 51  2  0  0  0  0
 48 50  1  0  0  0  0
 49 52  2  0  0  0  0
 50 47  2  0  0  0  0
 51 49  1  0  0  0  0
M  END
>  <MODEL>
3

>  <REMARK>
 VINA RESULT:      -5.9      2.187      8.513
  Name = 
  19 active torsions:
  status: ('A' for Active; 'I' for Inactive)
    1  A    between atoms: C_2  and  N_14
    2  A    between atoms: C_2  and  C_25
    3  A    between atoms: C_3  and  C_15
    4  A    between atoms: C_3  and  C_35
    5  A    between atoms: C_5  and  N_23
    6  A    between atoms: C_5  and  C_32
    7  A    between atoms: C_15  and  C_28
    8  A    between atoms: C_15  and  C_30
    9  A    between atoms: S_16  and  N_49
   10  A    between atoms: N_20  and  C_24
   11  A    between atoms: N_20  and  C_48
   12  A    between atoms: C_21  and  C_33
   13  A    between atoms: C_21  and  O_42
   14  A    between atoms: C_22  and  C_30
   15  A    between atoms: C_24  and  C_41
   16  A    between atoms: C_26  and  C_35
   17  A    between atoms: C_30  and  O_42
   18  A    between atoms: C_33  and  C_48
   19  A    between atoms: C_41  and  N_49
                            x       y       z     vdW  Elec       q    Type
                         _______ _______ _______ _____ _____    ______ ____

>  <TORSDO>
F 19

$$$$
=
 OpenBabel11042422173D

 52 57  0  0  1  0  0  0  0  0999 V2000
  160.7550  209.7350  152.0750 C   0  0  2  0  0  3  0  0  0  0  0  0
  162.3750  210.8200  154.7130 C   0  0  0  0  0  2  0  0  0  0  0  0
  161.5500  211.5830  155.7510 C   0  0  0  0  0  2  0  0  0  0  0  0
  160.5620  209.8980  153.5880 C   0  0  1  0  0  3  0  0  0  0  0  0
  161.7330  209.6200  154.3470 O   0  0  0  0  0  0  0  0  0  0  0  0
  160.0530  211.5290  155.4220 C   0  0  2  0  0  3  0  0  0  0  0  0
  159.8080  211.1910  153.9550 C   0  0  0  0  0  2  0  0  0  0  0  0
  159.3130  212.8040  155.8350 C   0  0  2  0  0  3  0  0  0  0  0  0
  158.4750  212.5970  157.0940 C   0  0  0  0  0  1  0  0  0  0  0  0
  157.1180  213.6930  154.7920 C   0  0  0  0  0  0  0  0  0  0  0  0
  156.4930  214.4140  150.6300 C   0  0  1  0  0  3  0  0  0  0  0  0
  156.6620  213.8390  153.4270 C   0  0  0  0  0  0  0  0  0  0  0  0
  154.3030  214.4420  153.5950 N   0  0  0  0  0  0  0  0  0  0  0  0
  154.0970  214.4020  155.0190 C   0  0  0  0  0  3  0  0  0  0  0  0
  155.3650  214.2250  152.8780 C   0  0  0  0  0  0  0  0  0  0  0  0
  158.7970  213.1770  153.4010 O   0  0  0  0  0  0  0  0  0  0  0  0
  155.2810  214.3470  151.4530 N   0  0  0  0  0  2  0  0  0  0  0  0
  158.4910  213.3070  154.7350 N   0  0  0  0  0  0  0  0  0  0  0  0
  157.6820  213.5210  152.6430 C   0  0  0  0  0  0  0  0  0  0  0  0
  156.4070  213.8060  155.9050 C   0  0  0  0  0  3  0  0  0  0  0  0
  154.9790  214.1380  155.9890 C   0  0  0  0  0  3  0  0  0  0  0  0
  157.5860  213.4610  151.1440 C   0  0  0  0  0  2  0  0  0  0  0  0
  156.1560  214.0870  149.1930 C   0  0  0  0  0  1  0  0  0  0  0  0
  161.3190  208.3550  151.6990 C   0  0  1  0  0  3  0  0  0  0  0  0
  161.3090  206.9260  153.7650 N   0  0  0  0  0  0  0  0  0  0  0  0
  161.3760  205.9810  152.6260 C   0  0  0  0  0  0  0  0  0  0  0  0
  160.6120  207.2240  152.4870 C   0  0  2  0  0  3  0  0  0  0  0  0
  162.6590  205.8830  152.0790 O   0  0  0  0  0  1  0  0  0  0  0  0
  160.6610  204.7900  152.7870 O   0  0  0  0  0  1  0  0  0  0  0  0
  160.2680  206.5580  154.7150 C   0  0  0  0  0  2  0  0  0  0  0  0
  160.4700  208.0440  156.9220 C   0  0  0  0  0  3  0  0  0  0  0  0
  160.3850  207.3780  155.9190 C   0  0  0  0  0  0  0  0  0  0  0  0
  161.2800  208.1550  150.3110 O   0  0  0  0  0  0  0  0  0  0  0  0
  162.6020  208.3070  149.8870 C   0  0  0  0  0  2  0  0  0  0  0  0
  162.6600  208.2550  148.3760 C   0  0  0  0  0  2  0  0  0  0  0  0
  161.4860  207.4480  147.8660 C   0  0  0  0  0  2  0  0  0  0  0  0
  161.8800  206.0640  147.7020 N   0  0  0  0  0  2  0  0  0  0  0  0
  160.9000  205.2680  148.4170 C   0  0  0  0  0  2  0  0  0  0  0  0
  161.5330  203.9830  148.9110 C   0  0  0  0  0  2  0  0  0  0  0  0
  160.5800  203.2580  149.7320 N   0  0  0  0  0  2  0  0  0  0  0  0
  160.6780  201.7950  147.2630 C   0  0  0  0  0  1  0  0  0  0  0  0
  160.3220  201.7090  149.0040 S   0  0  0  0  0  0  0  0  0  0  0  0
  161.2410  200.7100  149.6430 O   0  0  0  0  0  0  0  0  0  0  0  0
  158.8980  201.2720  149.2070 O   0  0  0  0  0  0  0  0  0  0  0  0
  161.4880  210.9160  151.4250 C   0  0  0  0  0  2  0  0  0  0  0  0
  160.5490  211.9000  150.7390 C   0  0  0  0  0  2  0  0  0  0  0  0
  161.0490  213.7410  147.4640 C   0  0  0  0  0  3  0  0  0  0  0  0
  161.1410  212.3570  149.4530 C   0  0  0  0  0  0  0  0  0  0  0  0
  162.9670  212.3160  147.8600 C   0  0  0  0  0  3  0  0  0  0  0  0
  160.4720  213.2950  148.6570 C   0  0  0  0  0  3  0  0  0  0  0  0
  162.3910  211.8720  149.0540 C   0  0  0  0  0  3  0  0  0  0  0  0
  162.2960  213.2500  147.0640 C   0  0  0  0  0  3  0  0  0  0  0  0
  1 45  1  1  0  0  0
  2  3  1  0  0  0  0
  4  1  1  6  0  0  0
  4  7  1  0  0  0  0
  4  5  1  0  0  0  0
  5  2  1  0  0  0  0
  6  3  1  0  0  0  0
  6  8  1  6  0  0  0
  7  6  1  0  0  0  0
  8  9  1  1  0  0  0
 10 20  2  0  0  0  0
 11 23  1  6  0  0  0
 11 22  1  0  0  0  0
 11 17  1  0  0  0  0
 12 10  1  0  0  0  0
 13 14  1  0  0  0  0
 14 21  2  0  0  0  0
 15 12  1  0  0  0  0
 15 13  2  0  0  0  0
 16 18  1  0  0  0  0
 17 15  1  0  0  0  0
 18 10  1  0  0  0  0
 18  8  1  0  0  0  0
 19 16  1  0  0  0  0
 19 12  2  0  0  0  0
 20 21  1  0  0  0  0
 22 19  1  0  0  0  0
 24 33  1  6  0  0  0
 24  1  1  0  0  0  0
 25 30  1  0  0  0  0
 26 29  1  0  0  0  0
 26 25  1  0  0  0  0
 27 24  1  6  0  0  0
 27 26  1  0  0  0  0
 27 25  1  0  0  0  0
 28 26  1  0  0  0  0
 30 32  1  0  0  0  0
 32 31  3  0  0  0  0
 34 33  1  0  0  0  0
 35 34  1  0  0  0  0
 36 35  1  0  0  0  0
 37 36  1  0  0  0  0
 37 38  1  0  0  0  0
 38 39  1  0  0  0  0
 39 40  1  0  0  0  0
 41 42  1  0  0  0  0
 42 44  2  0  0  0  0
 42 43  2  0  0  0  0
 42 40  1  0  0  0  0
 46 45  1  0  0  0  0
 47 50  1  0  0  0  0
 48 46  1  0  0  0  0
 49 51  2  0  0  0  0
 50 48  2  0  0  0  0
 51 48  1  0  0  0  0
 52 47  2  0  0  0  0
 52 49  1  0  0  0  0
M  END
>  <MODEL>
4

>  <REMARK>
 VINA RESULT:      -5.7      3.248      7.060
  Name = 
  19 active torsions:
  status: ('A' for Active; 'I' for Inactive)
    1  A    between atoms: C_2  and  N_14
    2  A    between atoms: C_2  and  C_25
    3  A    between atoms: C_3  and  C_15
    4  A    between atoms: C_3  and  C_35
    5  A    between atoms: C_5  and  N_23
    6  A    between atoms: C_5  and  C_32
    7  A    between atoms: C_15  and  C_28
    8  A    between atoms: C_15  and  C_30
    9  A    between atoms: S_16  and  N_49
   10  A    between atoms: N_20  and  C_24
   11  A    between atoms: N_20  and  C_48
   12  A    between atoms: C_21  and  C_33
   13  A    between atoms: C_21  and  O_42
   14  A    between atoms: C_22  and  C_30
   15  A    between atoms: C_24  and  C_41
   16  A    between atoms: C_26  and  C_35
   17  A    between atoms: C_30  and  O_42
   18  A    between atoms: C_33  and  C_48
   19  A    between atoms: C_41  and  N_49
                            x       y       z     vdW  Elec       q    Type
                         _______ _______ _______ _____ _____    ______ ____

>  <TORSDO>
F 19

$$$$
=
 OpenBabel11042422173D

 52 57  0  0  1  0  0  0  0  0999 V2000
  160.6030  210.6290  152.9920 C   0  0  2  0  0  3  0  0  0  0  0  0
  161.6860  207.5380  152.8140 C   0  0  0  0  0  2  0  0  0  0  0  0
  162.3170  207.1140  151.4870 C   0  0  0  0  0  2  0  0  0  0  0  0
  161.7710  209.8250  152.4070 C   0  0  1  0  0  3  0  0  0  0  0  0
  162.2170  208.7690  153.2500 O   0  0  0  0  0  0  0  0  0  0  0  0
  162.4820  208.3100  150.5410 C   0  0  2  0  0  3  0  0  0  0  0  0
  161.5610  209.4650  150.9240 C   0  0  0  0  0  2  0  0  0  0  0  0
  162.3150  207.9240  149.0690 C   0  0  2  0  0  3  0  0  0  0  0  0
  161.2110  208.7280  148.3880 C   0  0  0  0  0  1  0  0  0  0  0  0
  162.0230  205.7350  147.7200 C   0  0  0  0  0  0  0  0  0  0  0  0
  160.8440  201.9760  149.3650 C   0  0  1  0  0  3  0  0  0  0  0  0
  161.4820  204.4360  148.0520 C   0  0  0  0  0  0  0  0  0  0  0  0
  161.3630  203.2250  145.9370 N   0  0  0  0  0  0  0  0  0  0  0  0
  161.8200  204.2240  145.0070 C   0  0  0  0  0  3  0  0  0  0  0  0
  161.2150  203.2610  147.2270 C   0  0  0  0  0  0  0  0  0  0  0  0
  161.5380  205.6830  149.9060 O   0  0  0  0  0  0  0  0  0  0  0  0
  160.7410  202.0920  147.9080 N   0  0  0  0  0  2  0  0  0  0  0  0
  162.0780  206.4880  148.9320 N   0  0  0  0  0  0  0  0  0  0  0  0
  161.2070  204.4530  149.3490 C   0  0  0  0  0  0  0  0  0  0  0  0
  162.3410  206.2030  146.5210 C   0  0  0  0  0  3  0  0  0  0  0  0
  162.2330  205.4720  145.2510 C   0  0  0  0  0  3  0  0  0  0  0  0
  160.5430  203.3120  150.0680 C   0  0  0  0  0  2  0  0  0  0  0  0
  159.8980  200.9060  149.8630 C   0  0  0  0  0  1  0  0  0  0  0  0
  159.8780  211.4720  151.9300 C   0  0  1  0  0  3  0  0  0  0  0  0
  157.8930  212.3380  153.2010 N   0  0  0  0  0  0  0  0  0  0  0  0
  157.9240  213.1080  151.9360 C   0  0  0  0  0  0  0  0  0  0  0  0
  159.1840  212.7020  152.5650 C   0  0  2  0  0  3  0  0  0  0  0  0
  157.4190  212.3870  150.8510 O   0  0  0  0  0  1  0  0  0  0  0  0
  157.5460  214.4510  152.0380 O   0  0  0  0  0  1  0  0  0  0  0  0
  157.7570  213.2060  154.3630 C   0  0  0  0  0  2  0  0  0  0  0  0
  157.2280  211.7240  156.5180 C   0  0  0  0  0  3  0  0  0  0  0  0
  157.4660  212.4030  155.5490 C   0  0  0  0  0  0  0  0  0  0  0  0
  160.7450  211.8180  150.8830 O   0  0  0  0  0  0  0  0  0  0  0  0
  160.7900  213.2140  150.8980 C   0  0  0  0  0  2  0  0  0  0  0  0
  160.5930  213.7440  149.4950 C   0  0  0  0  0  2  0  0  0  0  0  0
  161.2820  212.8170  148.5170 C   0  0  0  0  0  2  0  0  0  0  0  0
  162.4990  213.4360  148.0320 N   0  0  0  0  0  2  0  0  0  0  0  0
  162.6720  212.9890  146.6620 C   0  0  0  0  0  2  0  0  0  0  0  0
  161.3270  212.6510  146.0510 C   0  0  0  0  0  2  0  0  0  0  0  0
  160.9710  213.6660  145.0750 N   0  0  0  0  0  2  0  0  0  0  0  0
  158.2620  212.7340  145.2720 C   0  0  0  0  0  1  0  0  0  0  0  0
  159.6160  213.0800  144.1710 S   0  0  0  0  0  0  0  0  0  0  0  0
  159.1930  214.1320  143.1890 O   0  0  0  0  0  0  0  0  0  0  0  0
  159.9930  211.8300  143.4260 O   0  0  0  0  0  0  0  0  0  0  0  0
  160.9740  211.4000  154.2660 C   0  0  0  0  0  2  0  0  0  0  0  0
  161.9700  210.6580  155.1480 C   0  0  0  0  0  2  0  0  0  0  0  0
  161.4210  207.4930  157.1600 C   0  0  0  0  0  3  0  0  0  0  0  0
  161.3060  209.4970  155.7990 C   0  0  0  0  0  0  0  0  0  0  0  0
  159.2810  208.2810  156.3450 C   0  0  0  0  0  3  0  0  0  0  0  0
  162.0570  208.5660  156.5260 C   0  0  0  0  0  3  0  0  0  0  0  0
  159.9170  209.3550  155.7140 C   0  0  0  0  0  3  0  0  0  0  0  0
  160.0330  207.3500  157.0680 C   0  0  0  0  0  3  0  0  0  0  0  0
  1 45  1  1  0  0  0
  2  5  1  0  0  0  0
  3  2  1  0  0  0  0
  4  1  1  1  0  0  0
  4  5  1  0  0  0  0
  6  8  1  6  0  0  0
  6  7  1  0  0  0  0
  6  3  1  0  0  0  0
  7  4  1  0  0  0  0
  8  9  1  1  0  0  0
 10 12  1  0  0  0  0
 10 18  1  0  0  0  0
 11 23  1  1  0  0  0
 11 22  1  0  0  0  0
 12 19  2  0  0  0  0
 13 15  2  0  0  0  0
 14 21  2  0  0  0  0
 14 13  1  0  0  0  0
 15 17  1  0  0  0  0
 15 12  1  0  0  0  0
 17 11  1  0  0  0  0
 18  8  1  0  0  0  0
 18 16  1  0  0  0  0
 19 16  1  0  0  0  0
 19 22  1  0  0  0  0
 20 10  2  0  0  0  0
 21 20  1  0  0  0  0
 24 33  1  6  0  0  0
 24  1  1  0  0  0  0
 25 30  1  0  0  0  0
 26 29  1  0  0  0  0
 26 27  1  0  0  0  0
 26 25  1  0  0  0  0
 27 24  1  6  0  0  0
 27 25  1  0  0  0  0
 28 26  1  0  0  0  0
 30 32  1  0  0  0  0
 32 31  3  0  0  0  0
 33 34  1  0  0  0  0
 35 34  1  0  0  0  0
 36 35  1  0  0  0  0
 37 36  1  0  0  0  0
 38 37  1  0  0  0  0
 39 38  1  0  0  0  0
 40 39  1  0  0  0  0
 42 40  1  0  0  0  0
 42 41  1  0  0  0  0
 43 42  2  0  0  0  0
 44 42  2  0  0  0  0
 45 46  1  0  0  0  0
 46 48  1  0  0  0  0
 48 50  1  0  0  0  0
 49 52  2  0  0  0  0
 50 47  2  0  0  0  0
 51 48  2  0  0  0  0
 51 49  1  0  0  0  0
 52 47  1  0  0  0  0
M  END
>  <MODEL>
5

>  <REMARK>
 VINA RESULT:      -5.1      1.976      8.474
  Name = 
  19 active torsions:
  status: ('A' for Active; 'I' for Inactive)
    1  A    between atoms: C_2  and  N_14
    2  A    between atoms: C_2  and  C_25
    3  A    between atoms: C_3  and  C_15
    4  A    between atoms: C_3  and  C_35
    5  A    between atoms: C_5  and  N_23
    6  A    between atoms: C_5  and  C_32
    7  A    between atoms: C_15  and  C_28
    8  A    between atoms: C_15  and  C_30
    9  A    between atoms: S_16  and  N_49
   10  A    between atoms: N_20  and  C_24
   11  A    between atoms: N_20  and  C_48
   12  A    between atoms: C_21  and  C_33
   13  A    between atoms: C_21  and  O_42
   14  A    between atoms: C_22  and  C_30
   15  A    between atoms: C_24  and  C_41
   16  A    between atoms: C_26  and  C_35
   17  A    between atoms: C_30  and  O_42
   18  A    between atoms: C_33  and  C_48
   19  A    between atoms: C_41  and  N_49
                            x       y       z     vdW  Elec       q    Type
                         _______ _______ _______ _____ _____    ______ ____

>  <TORSDO>
F 19

$$$$
=
 OpenBabel11042422173D

 52 57  0  0  1  0  0  0  0  0999 V2000
  160.4460  213.0870  147.4210 C   0  0  2  0  0  3  0  0  0  0  0  0
  162.8930  213.1890  145.2400 C   0  0  0  0  0  2  0  0  0  0  0  0
  162.5680  213.8170  143.8830 C   0  0  0  0  0  2  0  0  0  0  0  0
  161.0240  214.0160  146.3460 C   0  0  1  0  0  3  0  0  0  0  0  0
  162.4460  214.0120  146.2920 O   0  0  0  0  0  0  0  0  0  0  0  0
  161.1720  214.4520  143.8830 C   0  0  2  0  0  3  0  0  0  0  0  0
  160.2940  213.8880  144.9950 C   0  0  0  0  0  2  0  0  0  0  0  0
  160.4820  214.3560  142.5200 C   0  0  2  0  0  3  0  0  0  0  0  0
  158.9630  214.2900  142.6520 C   0  0  0  0  0  1  0  0  0  0  0  0
  162.0320  213.2290  140.7810 C   0  0  0  0  0  0  0  0  0  0  0  0
  161.7200  209.1770  139.4730 C   0  0  1  0  0  3  0  0  0  0  0  0
  161.9870  211.9550  140.0980 C   0  0  0  0  0  0  0  0  0  0  0  0
  163.7480  212.0650  138.4110 N   0  0  0  0  0  0  0  0  0  0  0  0
  164.2400  213.4060  138.5950 C   0  0  0  0  0  3  0  0  0  0  0  0
  162.8120  211.4060  139.0250 C   0  0  0  0  0  0  0  0  0  0  0  0
  160.3380  212.0170  141.6050 O   0  0  0  0  0  0  0  0  0  0  0  0
  162.5360  210.0550  138.6310 N   0  0  0  0  0  2  0  0  0  0  0  0
  160.9920  213.2160  141.7580 N   0  0  0  0  0  0  0  0  0  0  0  0
  160.9720  211.2770  140.6130 C   0  0  0  0  0  0  0  0  0  0  0  0
  162.8180  214.2650  140.5230 C   0  0  0  0  0  3  0  0  0  0  0  0
  163.8520  214.3280  139.4820 C   0  0  0  0  0  3  0  0  0  0  0  0
  160.5370  209.9300  140.1060 C   0  0  0  0  0  2  0  0  0  0  0  0
  161.2130  208.0090  138.6570 C   0  0  0  0  0  1  0  0  0  0  0  0
  159.5420  213.8300  148.4190 C   0  0  1  0  0  3  0  0  0  0  0  0
  157.0600  213.4770  148.2740 N   0  0  0  0  0  0  0  0  0  0  0  0
  157.5760  213.2530  146.9040 C   0  0  0  0  0  0  0  0  0  0  0  0
  158.2100  214.2620  147.7570 C   0  0  2  0  0  3  0  0  0  0  0  0
  158.1670  211.9960  146.7470 O   0  0  0  0  0  1  0  0  0  0  0  0
  156.7490  213.7000  145.8670 O   0  0  0  0  0  1  0  0  0  0  0  0
  155.9230  214.3870  148.2840 C   0  0  0  0  0  2  0  0  0  0  0  0
  154.7790  214.4030  150.6950 C   0  0  0  0  0  3  0  0  0  0  0  0
  155.3030  214.3890  149.6080 C   0  0  0  0  0  0  0  0  0  0  0  0
  159.3490  213.0740  149.5840 O   0  0  0  0  0  0  0  0  0  0  0  0
  158.9580  214.0000  150.5540 C   0  0  0  0  0  2  0  0  0  0  0  0
  159.8420  213.8600  151.7750 C   0  0  0  0  0  2  0  0  0  0  0  0
  158.9950  214.0370  153.0170 C   0  0  0  0  0  2  0  0  0  0  0  0
  157.9430  213.0400  153.0370 N   0  0  0  0  0  2  0  0  0  0  0  0
  157.3350  213.1070  154.3520 C   0  0  0  0  0  2  0  0  0  0  0  0
  157.5300  211.7940  155.0830 C   0  0  0  0  0  2  0  0  0  0  0  0
  158.6290  211.0630  154.4780 N   0  0  0  0  0  2  0  0  0  0  0  0
  159.9360  209.1460  156.1710 C   0  0  0  0  0  1  0  0  0  0  0  0
  159.8550  210.8550  155.6830 S   0  0  0  0  0  0  0  0  0  0  0  0
  161.1790  211.2640  155.1080 O   0  0  0  0  0  0  0  0  0  0  0  0
  159.5520  211.7090  156.8830 O   0  0  0  0  0  0  0  0  0  0  0  0
  161.5010  212.1840  148.0750 C   0  0  0  0  0  2  0  0  0  0  0  0
  161.3490  210.7150  147.7010 C   0  0  0  0  0  2  0  0  0  0  0  0
  162.0010  209.5270  151.2400 C   0  0  0  0  0  3  0  0  0  0  0  0
  161.7270  209.8540  148.8530 C   0  0  0  0  0  0  0  0  0  0  0  0
  162.4350  207.7000  149.7110 C   0  0  0  0  0  3  0  0  0  0  0  0
  161.6730  210.3530  150.1600 C   0  0  0  0  0  3  0  0  0  0  0  0
  162.1040  208.5250  148.6310 C   0  0  0  0  0  3  0  0  0  0  0  0
  162.3840  208.2010  151.0160 C   0  0  0  0  0  3  0  0  0  0  0  0
  1 45  1  1  0  0  0
  1 24  1  0  0  0  0
  2  5  1  0  0  0  0
  3  2  1  0  0  0  0
  4  1  1  1  0  0  0
  5  4  1  0  0  0  0
  6  8  1  6  0  0  0
  6  3  1  0  0  0  0
  6  7  1  0  0  0  0
  7  4  1  0  0  0  0
  8  9  1  1  0  0  0
 10 18  1  0  0  0  0
 11 23  1  6  0  0  0
 11 22  1  0  0  0  0
 12 19  2  0  0  0  0
 12 10  1  0  0  0  0
 13 14  1  0  0  0  0
 13 15  2  0  0  0  0
 14 21  2  0  0  0  0
 15 12  1  0  0  0  0
 16 18  1  0  0  0  0
 17 15  1  0  0  0  0
 17 11  1  0  0  0  0
 18  8  1  0  0  0  0
 19 16  1  0  0  0  0
 20 10  2  0  0  0  0
 21 20  1  0  0  0  0
 22 19  1  0  0  0  0
 24 33  1  1  0  0  0
 25 30  1  0  0  0  0
 26 27  1  0  0  0  0
 26 25  1  0  0  0  0
 27 25  1  0  0  0  0
 27 24  1  1  0  0  0
 28 26  1  0  0  0  0
 29 26  1  0  0  0  0
 30 32  1  0  0  0  0
 32 31  3  0  0  0  0
 33 34  1  0  0  0  0
 34 35  1  0  0  0  0
 35 36  1  0  0  0  0
 36 37  1  0  0  0  0
 37 38  1  0  0  0  0
 38 39  1  0  0  0  0
 40 39  1  0  0  0  0
 40 42  1  0  0  0  0
 42 41  1  0  0  0  0
 42 44  2  0  0  0  0
 43 42  2  0  0  0  0
 46 45  1  0  0  0  0
 46 48  1  0  0  0  0
 48 50  1  0  0  0  0
 49 52  2  0  0  0  0
 50 47  2  0  0  0  0
 51 48  2  0  0  0  0
 51 49  1  0  0  0  0
 52 47  1  0  0  0  0
M  END
>  <MODEL>
6

>  <REMARK>
 VINA RESULT:      -5.1      3.884     11.404
  Name = 
  19 active torsions:
  status: ('A' for Active; 'I' for Inactive)
    1  A    between atoms: C_2  and  N_14
    2  A    between atoms: C_2  and  C_25
    3  A    between atoms: C_3  and  C_15
    4  A    between atoms: C_3  and  C_35
    5  A    between atoms: C_5  and  N_23
    6  A    between atoms: C_5  and  C_32
    7  A    between atoms: C_15  and  C_28
    8  A    between atoms: C_15  and  C_30
    9  A    between atoms: S_16  and  N_49
   10  A    between atoms: N_20  and  C_24
   11  A    between atoms: N_20  and  C_48
   12  A    between atoms: C_21  and  C_33
   13  A    between atoms: C_21  and  O_42
   14  A    between atoms: C_22  and  C_30
   15  A    between atoms: C_24  and  C_41
   16  A    between atoms: C_26  and  C_35
   17  A    between atoms: C_30  and  O_42
   18  A    between atoms: C_33  and  C_48
   19  A    between atoms: C_41  and  N_49
                            x       y       z     vdW  Elec       q    Type
                         _______ _______ _______ _____ _____    ______ ____

>  <TORSDO>
F 19

$$$$
=
 OpenBabel11042422173D

 52 57  0  0  1  0  0  0  0  0999 V2000
  160.9740  209.5140  152.0120 C   0  0  2  0  0  3  0  0  0  0  0  0
  162.6780  210.6930  154.5550 C   0  0  0  0  0  2  0  0  0  0  0  0
  161.8610  211.1790  155.7530 C   0  0  0  0  0  2  0  0  0  0  0  0
  160.9520  209.5080  153.5460 C   0  0  1  0  0  3  0  0  0  0  0  0
  162.2430  209.4200  154.1360 O   0  0  0  0  0  0  0  0  0  0  0  0
  160.3750  210.8400  155.5890 C   0  0  2  0  0  3  0  0  0  0  0  0
  160.0120  210.5800  154.1300 C   0  0  0  0  0  2  0  0  0  0  0  0
  159.4570  211.8930  156.2160 C   0  0  2  0  0  3  0  0  0  0  0  0
  158.5100  211.2860  157.2470 C   0  0  0  0  0  1  0  0  0  0  0  0
  157.3990  213.1600  155.2900 C   0  0  0  0  0  0  0  0  0  0  0  0
  156.9100  214.4220  151.2410 C   0  0  1  0  0  3  0  0  0  0  0  0
  156.9780  213.5150  153.9530 C   0  0  0  0  0  0  0  0  0  0  0  0
  154.7110  214.3830  154.1980 N   0  0  0  0  0  0  0  0  0  0  0  0
  154.4860  214.2060  155.6100 C   0  0  0  0  0  3  0  0  0  0  0  0
  155.7440  214.1190  153.4580 C   0  0  0  0  0  0  0  0  0  0  0  0
  159.0150  212.6020  153.8430 O   0  0  0  0  0  0  0  0  0  0  0  0
  155.6910  214.4120  152.0550 N   0  0  0  0  0  2  0  0  0  0  0  0
  158.7150  212.6160  155.1840 N   0  0  0  0  0  0  0  0  0  0  0  0
  157.9600  213.1650  153.1340 C   0  0  0  0  0  0  0  0  0  0  0  0
  156.6960  213.2320  156.4120 C   0  0  0  0  0  3  0  0  0  0  0  0
  155.3190  213.7270  156.5390 C   0  0  0  0  0  3  0  0  0  0  0  0
  157.8720  213.2890  151.6390 C   0  0  0  0  0  2  0  0  0  0  0  0
  156.5500  214.3060  149.7770 C   0  0  0  0  0  1  0  0  0  0  0  0
  161.4790  208.1850  151.4260 C   0  0  1  0  0  3  0  0  0  0  0  0
  161.4930  206.7280  153.4710 N   0  0  0  0  0  0  0  0  0  0  0  0
  161.7320  205.8160  152.3290 C   0  0  0  0  0  0  0  0  0  0  0  0
  160.8500  206.9730  152.1550 C   0  0  2  0  0  3  0  0  0  0  0  0
  163.0500  205.8640  151.8650 O   0  0  0  0  0  1  0  0  0  0  0  0
  161.1400  204.5520  152.4320 O   0  0  0  0  0  1  0  0  0  0  0  0
  160.4400  206.2350  154.3480 C   0  0  0  0  0  2  0  0  0  0  0  0
  160.5700  207.4830  156.7040 C   0  0  0  0  0  3  0  0  0  0  0  0
  160.5050  206.9260  155.6350 C   0  0  0  0  0  0  0  0  0  0  0  0
  161.2880  208.1420  150.0360 O   0  0  0  0  0  0  0  0  0  0  0  0
  162.5190  207.7390  149.5150 C   0  0  0  0  0  2  0  0  0  0  0  0
  162.2980  206.9360  148.2510 C   0  0  0  0  0  2  0  0  0  0  0  0
  162.0160  205.4970  148.6260 C   0  0  0  0  0  2  0  0  0  0  0  0
  162.3160  204.6330  147.5020 N   0  0  0  0  0  2  0  0  0  0  0  0
  161.3930  203.5160  147.5810 C   0  0  0  0  0  2  0  0  0  0  0  0
  161.2170  202.8880  146.2140 C   0  0  0  0  0  2  0  0  0  0  0  0
  161.9190  203.6830  145.2220 N   0  0  0  0  0  2  0  0  0  0  0  0
  160.0710  205.8450  145.6230 C   0  0  0  0  0  1  0  0  0  0  0  0
  160.7590  204.7050  144.4430 S   0  0  0  0  0  0  0  0  0  0  0  0
  161.4430  205.4790  143.3550 O   0  0  0  0  0  0  0  0  0  0  0  0
  159.6590  203.8740  143.8430 O   0  0  0  0  0  0  0  0  0  0  0  0
  161.6420  210.7610  151.4180 C   0  0  0  0  0  2  0  0  0  0  0  0
  160.6780  211.6410  150.6320 C   0  0  0  0  0  2  0  0  0  0  0  0
  162.9640  212.2160  147.6640 C   0  0  0  0  0  3  0  0  0  0  0  0
  161.3950  212.3050  149.5110 C   0  0  0  0  0  0  0  0  0  0  0  0
  161.7660  214.2670  148.1360 C   0  0  0  0  0  3  0  0  0  0  0  0
  162.3170  211.5920  148.7360 C   0  0  0  0  0  3  0  0  0  0  0  0
  161.1170  213.6420  149.2060 C   0  0  0  0  0  3  0  0  0  0  0  0
  162.6900  213.5540  147.3650 C   0  0  0  0  0  3  0  0  0  0  0  0
  1 45  1  1  0  0  0
  2  3  1  0  0  0  0
  4  1  1  6  0  0  0
  4  7  1  0  0  0  0
  4  5  1  0  0  0  0
  5  2  1  0  0  0  0
  6  3  1  0  0  0  0
  6  8  1  6  0  0  0
  7  6  1  0  0  0  0
  8  9  1  1  0  0  0
 10 20  2  0  0  0  0
 11 23  1  6  0  0  0
 11 22  1  0  0  0  0
 11 17  1  0  0  0  0
 12 10  1  0  0  0  0
 13 14  1  0  0  0  0
 14 21  2  0  0  0  0
 15 12  1  0  0  0  0
 15 13  2  0  0  0  0
 16 18  1  0  0  0  0
 17 15  1  0  0  0  0
 18 10  1  0  0  0  0
 18  8  1  0  0  0  0
 19 16  1  0  0  0  0
 19 12  2  0  0  0  0
 20 21  1  0  0  0  0
 22 19  1  0  0  0  0
 24 33  1  6  0  0  0
 24  1  1  0  0  0  0
 25 30  1  0  0  0  0
 26 29  1  0  0  0  0
 26 25  1  0  0  0  0
 27 24  1  6  0  0  0
 27 26  1  0  0  0  0
 27 25  1  0  0  0  0
 28 26  1  0  0  0  0
 30 32  1  0  0  0  0
 32 31  3  0  0  0  0
 34 33  1  0  0  0  0
 35 36  1  0  0  0  0
 35 34  1  0  0  0  0
 37 38  1  0  0  0  0
 37 36  1  0  0  0  0
 39 38  1  0  0  0  0
 40 39  1  0  0  0  0
 42 40  1  0  0  0  0
 42 41  1  0  0  0  0
 43 42  2  0  0  0  0
 44 42  2  0  0  0  0
 46 45  1  0  0  0  0
 47 50  1  0  0  0  0
 48 46  1  0  0  0  0
 49 51  2  0  0  0  0
 50 48  2  0  0  0  0
 51 48  1  0  0  0  0
 52 47  2  0  0  0  0
 52 49  1  0  0  0  0
M  END
>  <MODEL>
7

>  <REMARK>
 VINA RESULT:      -5.0      2.928      6.563
  Name = 
  19 active torsions:
  status: ('A' for Active; 'I' for Inactive)
    1  A    between atoms: C_2  and  N_14
    2  A    between atoms: C_2  and  C_25
    3  A    between atoms: C_3  and  C_15
    4  A    between atoms: C_3  and  C_35
    5  A    between atoms: C_5  and  N_23
    6  A    between atoms: C_5  and  C_32
    7  A    between atoms: C_15  and  C_28
    8  A    between atoms: C_15  and  C_30
    9  A    between atoms: S_16  and  N_49
   10  A    between atoms: N_20  and  C_24
   11  A    between atoms: N_20  and  C_48
   12  A    between atoms: C_21  and  C_33
   13  A    between atoms: C_21  and  O_42
   14  A    between atoms: C_22  and  C_30
   15  A    between atoms: C_24  and  C_41
   16  A    between atoms: C_26  and  C_35
   17  A    between atoms: C_30  and  O_42
   18  A    between atoms: C_33  and  C_48
   19  A    between atoms: C_41  and  N_49
                            x       y       z     vdW  Elec       q    Type
                         _______ _______ _______ _____ _____    ______ ____

>  <TORSDO>
F 19

$$$$
=
 OpenBabel11042422173D

 52 57  0  0  1  0  0  0  0  0999 V2000
  162.0650  208.2090  151.2400 C   0  0  2  0  0  3  0  0  0  0  0  0
  161.1880  207.9460  154.3900 C   0  0  0  0  0  2  0  0  0  0  0  0
  160.4180  209.1280  154.9830 C   0  0  0  0  0  2  0  0  0  0  0  0
  160.8890  208.5490  152.1660 C   0  0  1  0  0  3  0  0  0  0  0  0
  160.6340  207.5570  153.1540 O   0  0  0  0  0  0  0  0  0  0  0  0
  160.0470  210.1490  153.9010 C   0  0  2  0  0  3  0  0  0  0  0  0
  160.9260  210.0070  152.6620 C   0  0  0  0  0  2  0  0  0  0  0  0
  160.0450  211.5880  154.4250 C   0  0  2  0  0  3  0  0  0  0  0  0
  160.8670  211.7330  155.7020 C   0  0  0  0  0  1  0  0  0  0  0  0
  157.8510  212.7370  153.6730 C   0  0  0  0  0  0  0  0  0  0  0  0
  154.5520  213.6410  156.2280 C   0  0  1  0  0  3  0  0  0  0  0  0
  156.7170  213.2690  154.3970 C   0  0  0  0  0  0  0  0  0  0  0  0
  155.3810  214.4460  152.7280 N   0  0  0  0  0  0  0  0  0  0  0  0
  156.1880  214.2850  151.5470 C   0  0  0  0  0  3  0  0  0  0  0  0
  155.5540  214.0270  153.9450 C   0  0  0  0  0  0  0  0  0  0  0  0
  158.0800  212.2540  155.8480 O   0  0  0  0  0  0  0  0  0  0  0  0
  154.5630  214.3330  154.9360 N   0  0  0  0  0  2  0  0  0  0  0  0
  158.6770  212.0660  154.6240 N   0  0  0  0  0  0  0  0  0  0  0  0
  156.8970  212.9640  155.6740 C   0  0  0  0  0  0  0  0  0  0  0  0
  158.1450  212.8920  152.3890 C   0  0  0  0  0  3  0  0  0  0  0  0
  157.3450  213.6310  151.4030 C   0  0  0  0  0  3  0  0  0  0  0  0
  155.9750  213.4200  156.7700 C   0  0  0  0  0  2  0  0  0  0  0  0
  153.7360  214.4320  157.2260 C   0  0  0  0  0  1  0  0  0  0  0  0
  161.8640  208.7430  149.8130 C   0  0  1  0  0  3  0  0  0  0  0  0
  161.2050  211.1180  149.3320 N   0  0  0  0  0  0  0  0  0  0  0  0
  162.2590  210.7880  148.3450 C   0  0  0  0  0  0  0  0  0  0  0  0
  162.3280  210.2150  149.6920 C   0  0  2  0  0  3  0  0  0  0  0  0
  161.7810  210.0180  147.2800 O   0  0  0  0  0  1  0  0  0  0  0  0
  163.1400  211.8290  148.0320 O   0  0  0  0  0  1  0  0  0  0  0  0
  161.4710  212.3800  150.0090 C   0  0  0  0  0  2  0  0  0  0  0  0
  159.7690  214.2500  149.1540 C   0  0  0  0  0  3  0  0  0  0  0  0
  160.5420  213.4020  149.5310 C   0  0  0  0  0  0  0  0  0  0  0  0
  162.4750  207.9020  148.8700 O   0  0  0  0  0  0  0  0  0  0  0  0
  161.4870  206.9810  148.5140 C   0  0  0  0  0  2  0  0  0  0  0  0
  161.9730  206.1350  147.3580 C   0  0  0  0  0  2  0  0  0  0  0  0
  160.9600  206.2100  146.2340 C   0  0  0  0  0  2  0  0  0  0  0  0
  161.5790  205.7960  144.9920 N   0  0  0  0  0  2  0  0  0  0  0  0
  162.6560  204.8920  145.3480 C   0  0  0  0  0  2  0  0  0  0  0  0
  162.1220  203.4830  145.5050 C   0  0  0  0  0  2  0  0  0  0  0  0
  160.6950  203.4740  145.2390 N   0  0  0  0  0  2  0  0  0  0  0  0
  161.2580  201.0250  146.6290 C   0  0  0  0  0  1  0  0  0  0  0  0
  160.0990  201.8870  145.5900 S   0  0  0  0  0  0  0  0  0  0  0  0
  158.7890  202.0060  146.3120 O   0  0  0  0  0  0  0  0  0  0  0  0
  159.8950  201.1170  144.3150 O   0  0  0  0  0  0  0  0  0  0  0  0
  162.4870  206.7350  151.3110 C   0  0  0  0  0  2  0  0  0  0  0  0
  161.5300  205.8750  152.1270 C   0  0  0  0  0  2  0  0  0  0  0  0
  161.3510  202.1470  151.4680 C   0  0  0  0  0  3  0  0  0  0  0  0
  161.3100  204.5720  151.4460 C   0  0  0  0  0  0  0  0  0  0  0  0
  160.5500  203.3250  149.5100 C   0  0  0  0  0  3  0  0  0  0  0  0
  161.5890  203.3690  152.1060 C   0  0  0  0  0  3  0  0  0  0  0  0
  160.7850  204.5470  150.1490 C   0  0  0  0  0  3  0  0  0  0  0  0
  160.8330  202.1250  150.1700 C   0  0  0  0  0  3  0  0  0  0  0  0
  1 45  1  6  0  0  0
  2  3  1  0  0  0  0
  4  1  1  1  0  0  0
  4  7  1  0  0  0  0
  4  5  1  0  0  0  0
  5  2  1  0  0  0  0
  6  8  1  1  0  0  0
  6  3  1  0  0  0  0
  7  6  1  0  0  0  0
  8 18  1  0  0  0  0
  8  9  1  1  0  0  0
 10 12  1  0  0  0  0
 10 18  1  0  0  0  0
 11 22  1  0  0  0  0
 11 23  1  1  0  0  0
 12 19  2  0  0  0  0
 13 15  2  0  0  0  0
 14 13  1  0  0  0  0
 15 12  1  0  0  0  0
 15 17  1  0  0  0  0
 17 11  1  0  0  0  0
 18 16  1  0  0  0  0
 19 16  1  0  0  0  0
 19 22  1  0  0  0  0
 20 10  2  0  0  0  0
 21 14  2  0  0  0  0
 21 20  1  0  0  0  0
 24 33  1  6  0  0  0
 24  1  1  0  0  0  0
 25 27  1  0  0  0  0
 25 30  1  0  0  0  0
 26 25  1  0  0  0  0
 26 27  1  0  0  0  0
 27 24  1  6  0  0  0
 28 26  1  0  0  0  0
 29 26  1  0  0  0  0
 31 32  3  0  0  0  0
 32 30  1  0  0  0  0
 34 33  1  0  0  0  0
 35 34  1  0  0  0  0
 36 35  1  0  0  0  0
 37 38  1  0  0  0  0
 37 36  1  0  0  0  0
 38 39  1  0  0  0  0
 40 39  1  0  0  0  0
 40 42  1  0  0  0  0
 42 43  2  0  0  0  0
 42 41  1  0  0  0  0
 44 42  2  0  0  0  0
 45 46  1  0  0  0  0
 47 50  1  0  0  0  0
 48 50  2  0  0  0  0
 48 46  1  0  0  0  0
 49 51  2  0  0  0  0
 49 52  1  0  0  0  0
 51 48  1  0  0  0  0
 52 47  2  0  0  0  0
M  END
>  <MODEL>
8

>  <REMARK>
 VINA RESULT:      -4.7      2.407      5.136
  Name = 
  19 active torsions:
  status: ('A' for Active; 'I' for Inactive)
    1  A    between atoms: C_2  and  N_14
    2  A    between atoms: C_2  and  C_25
    3  A    between atoms: C_3  and  C_15
    4  A    between atoms: C_3  and  C_35
    5  A    between atoms: C_5  and  N_23
    6  A    between atoms: C_5  and  C_32
    7  A    between atoms: C_15  and  C_28
    8  A    between atoms: C_15  and  C_30
    9  A    between atoms: S_16  and  N_49
   10  A    between atoms: N_20  and  C_24
   11  A    between atoms: N_20  and  C_48
   12  A    between atoms: C_21  and  C_33
   13  A    between atoms: C_21  and  O_42
   14  A    between atoms: C_22  and  C_30
   15  A    between atoms: C_24  and  C_41
   16  A    between atoms: C_26  and  C_35
   17  A    between atoms: C_30  and  O_42
   18  A    between atoms: C_33  and  C_48
   19  A    between atoms: C_41  and  N_49
                            x       y       z     vdW  Elec       q    Type
                         _______ _______ _______ _____ _____    ______ ____

>  <TORSDO>
F 19

$$$$
=
 OpenBabel11042422173D

 52 57  0  0  1  0  0  0  0  0999 V2000
  159.9130  211.4050  152.1060 C   0  0  2  0  0  3  0  0  0  0  0  0
  161.6110  209.6000  154.2560 C   0  0  0  0  0  2  0  0  0  0  0  0
  161.8380  208.1340  153.8830 C   0  0  0  0  0  2  0  0  0  0  0  0
  160.9750  210.2970  152.1320 C   0  0  1  0  0  3  0  0  0  0  0  0
  161.9310  210.4470  153.1760 O   0  0  0  0  0  0  0  0  0  0  0  0
  161.3660  207.8430  152.4530 C   0  0  2  0  0  3  0  0  0  0  0  0
  160.3710  208.8910  151.9620 C   0  0  0  0  0  2  0  0  0  0  0  0
  160.8110  206.4250  152.2930 C   0  0  2  0  0  3  0  0  0  0  0  0
  161.5400  205.4220  153.1820 C   0  0  0  0  0  1  0  0  0  0  0  0
  160.8180  204.6720  150.3900 C   0  0  0  0  0  0  0  0  0  0  0  0
  161.4350  205.5380  146.2550 C   0  0  1  0  0  3  0  0  0  0  0  0
  161.1670  204.7380  148.9880 C   0  0  0  0  0  0  0  0  0  0  0  0
  161.1520  202.4260  148.2080 N   0  0  0  0  0  0  0  0  0  0  0  0
  160.8540  201.7140  149.4230 C   0  0  0  0  0  3  0  0  0  0  0  0
  161.2820  203.6960  147.9710 C   0  0  0  0  0  0  0  0  0  0  0  0
  161.2550  206.8000  149.8450 O   0  0  0  0  0  0  0  0  0  0  0  0
  161.5770  204.1310  146.6370 N   0  0  0  0  0  2  0  0  0  0  0  0
  160.8480  206.0070  150.8920 N   0  0  0  0  0  0  0  0  0  0  0  0
  161.4200  206.0100  148.7130 C   0  0  0  0  0  0  0  0  0  0  0  0
  160.5890  203.5910  151.1220 C   0  0  0  0  0  3  0  0  0  0  0  0
  160.6150  202.2020  150.6450 C   0  0  0  0  0  3  0  0  0  0  0  0
  161.9060  206.4850  147.3730 C   0  0  0  0  0  2  0  0  0  0  0  0
  162.2130  205.8070  144.9870 C   0  0  0  0  0  1  0  0  0  0  0  0
  159.8840  212.1610  150.7680 C   0  0  1  0  0  3  0  0  0  0  0  0
  158.3110  213.3350  149.2020 N   0  0  0  0  0  0  0  0  0  0  0  0
  157.7000  213.4570  150.5460 C   0  0  0  0  0  0  0  0  0  0  0  0
  158.4460  212.2430  150.2000 C   0  0  2  0  0  3  0  0  0  0  0  0
  158.3020  214.4490  151.3260 O   0  0  0  0  0  1  0  0  0  0  0  0
  156.3040  213.3770  150.5850 O   0  0  0  0  0  1  0  0  0  0  0  0
  157.3530  212.8600  148.2120 C   0  0  0  0  0  2  0  0  0  0  0  0
  157.5040  214.3450  146.0000 C   0  0  0  0  0  3  0  0  0  0  0  0
  157.4430  213.6800  147.0060 C   0  0  0  0  0  0  0  0  0  0  0  0
  160.4930  213.4200  150.8880 O   0  0  0  0  0  0  0  0  0  0  0  0
  161.4740  213.4410  149.8950 C   0  0  0  0  0  2  0  0  0  0  0  0
  161.3640  212.1940  149.0450 C   0  0  0  0  0  2  0  0  0  0  0  0
  162.3520  212.2890  147.9020 C   0  0  0  0  0  2  0  0  0  0  0  0
  162.6840  213.6780  147.6580 N   0  0  0  0  0  2  0  0  0  0  0  0
  161.9700  214.0680  146.4560 C   0  0  0  0  0  2  0  0  0  0  0  0
  162.7210  213.5930  145.2280 C   0  0  0  0  0  2  0  0  0  0  0  0
  162.2470  214.3160  144.0620 N   0  0  0  0  0  2  0  0  0  0  0  0
  160.4930  214.1220  141.7960 C   0  0  0  0  0  1  0  0  0  0  0  0
  161.2690  213.2340  143.1280 S   0  0  0  0  0  0  0  0  0  0  0  0
  162.1430  212.1580  142.5550 O   0  0  0  0  0  0  0  0  0  0  0  0
  160.2160  212.6070  143.9980 O   0  0  0  0  0  0  0  0  0  0  0  0
  159.9500  212.3100  153.3450 C   0  0  0  0  0  2  0  0  0  0  0  0
  158.6650  213.1040  153.5460 C   0  0  0  0  0  2  0  0  0  0  0  0
  156.0370  211.3390  155.6300 C   0  0  0  0  0  3  0  0  0  0  0  0
  157.9140  212.5700  154.7140 C   0  0  0  0  0  0  0  0  0  0  0  0
  157.7400  212.2240  157.1070 C   0  0  0  0  0  3  0  0  0  0  0  0
  156.7200  211.8630  154.5280 C   0  0  0  0  0  3  0  0  0  0  0  0
  158.4250  212.7460  156.0050 C   0  0  0  0  0  3  0  0  0  0  0  0
  156.5450  211.5210  156.9200 C   0  0  0  0  0  3  0  0  0  0  0  0
  1 45  1  1  0  0  0
  3  2  1  0  0  0  0
  4  1  1  1  0  0  0
  4  5  1  0  0  0  0
  5  2  1  0  0  0  0
  6  8  1  1  0  0  0
  6  3  1  0  0  0  0
  7  4  1  0  0  0  0
  7  6  1  0  0  0  0
  8  9  1  1  0  0  0
 10 18  1  0  0  0  0
 10 20  2  0  0  0  0
 11 23  1  6  0  0  0
 11 17  1  0  0  0  0
 11 22  1  0  0  0  0
 12 10  1  0  0  0  0
 13 14  1  0  0  0  0
 14 21  2  0  0  0  0
 15 13  2  0  0  0  0
 15 12  1  0  0  0  0
 16 18  1  0  0  0  0
 17 15  1  0  0  0  0
 18  8  1  0  0  0  0
 19 12  2  0  0  0  0
 19 16  1  0  0  0  0
 21 20  1  0  0  0  0
 22 19  1  0  0  0  0
 24 33  1  1  0  0  0
 24  1  1  0  0  0  0
 25 27  1  0  0  0  0
 25 26  1  0  0  0  0
 26 29  1  0  0  0  0
 26 28  1  0  0  0  0
 27 26  1  0  0  0  0
 27 24  1  1  0  0  0
 30 25  1  0  0  0  0
 31 32  3  0  0  0  0
 32 30  1  0  0  0  0
 34 33  1  0  0  0  0
 35 34  1  0  0  0  0
 36 35  1  0  0  0  0
 37 36  1  0  0  0  0
 38 37  1  0  0  0  0
 39 38  1  0  0  0  0
 40 39  1  0  0  0  0
 41 42  1  0  0  0  0
 42 44  2  0  0  0  0
 42 40  1  0  0  0  0
 43 42  2  0  0  0  0
 45 46  1  0  0  0  0
 46 48  1  0  0  0  0
 47 52  1  0  0  0  0
 48 51  2  0  0  0  0
 50 48  1  0  0  0  0
 50 47  2  0  0  0  0
 51 49  1  0  0  0  0
 52 49  2  0  0  0  0
M  END
>  <MODEL>
9

>  <REMARK>
 VINA RESULT:      -4.7      2.320      8.500
  Name = 
  19 active torsions:
  status: ('A' for Active; 'I' for Inactive)
    1  A    between atoms: C_2  and  N_14
    2  A    between atoms: C_2  and  C_25
    3  A    between atoms: C_3  and  C_15
    4  A    between atoms: C_3  and  C_35
    5  A    between atoms: C_5  and  N_23
    6  A    between atoms: C_5  and  C_32
    7  A    between atoms: C_15  and  C_28
    8  A    between atoms: C_15  and  C_30
    9  A    between atoms: S_16  and  N_49
   10  A    between atoms: N_20  and  C_24
   11  A    between atoms: N_20  and  C_48
   12  A    between atoms: C_21  and  C_33
   13  A    between atoms: C_21  and  O_42
   14  A    between atoms: C_22  and  C_30
   15  A    between atoms: C_24  and  C_41
   16  A    between atoms: C_26  and  C_35
   17  A    between atoms: C_30  and  O_42
   18  A    between atoms: C_33  and  C_48
   19  A    between atoms: C_41  and  N_49
                            x       y       z     vdW  Elec       q    Type
                         _______ _______ _______ _____ _____    ______ ____

>  <TORSDO>
F 19

$$$$
