=
 OpenBabel11052411153D

 26 29  0  0  0  0  0  0  0  0999 V2000
  161.4290  208.8830  152.1560 C   0  0  0  0  0  3  0  0  0  0  0  0
  161.1110  202.9320  148.0570 C   0  0  0  0  0  0  0  0  0  0  0  0
  161.3420  203.0280  145.6370 O   0  0  0  0  0  1  0  0  0  0  0  0
  161.4050  206.8590  150.7970 C   0  0  0  0  0  0  0  0  0  0  0  0
  161.7380  207.0980  148.3670 O   0  0  0  0  0  0  0  0  0  0  0  0
  161.1900  204.9780  149.2950 C   0  0  0  0  0  0  0  0  0  0  0  0
  161.4900  205.0910  146.9290 C   0  0  0  0  0  0  0  0  0  0  0  0
  160.9890  201.4450  148.0300 C   0  0  0  0  0  1  0  0  0  0  0  0
  161.8340  209.6370  151.0590 C   0  0  0  0  0  3  0  0  0  0  0  0
  161.4570  205.7390  148.1790 C   0  0  0  0  0  0  0  0  0  0  0  0
  161.2000  207.5040  152.0470 C   0  0  0  0  0  0  0  0  0  0  0  0
  161.7160  207.6690  149.6600 C   0  0  0  0  0  0  0  0  0  0  0  0
  161.3070  203.6800  146.8670 C   0  0  0  0  0  0  0  0  0  0  0  0
  161.7520  205.8760  145.6880 C   0  0  0  0  0  1  0  0  0  0  0  0
  161.1560  204.2850  151.2850 C   0  0  0  0  0  0  0  0  0  0  0  0
  161.2100  205.4370  150.5460 N   0  0  0  0  0  0  0  0  0  0  0  0
  161.9680  209.0400  149.8090 C   0  0  0  0  0  0  0  0  0  0  0  0
  161.0550  203.1580  150.5210 N   0  0  0  0  0  0  0  0  0  0  0  0
  161.4180  204.1750  152.7430 C   0  0  0  0  0  1  0  0  0  0  0  0
  161.0680  203.6350  149.2650 C   0  0  0  0  0  0  0  0  0  0  0  0
  162.3640  209.8830  148.6390 C   0  0  0  0  0  2  0  0  0  0  0  0
  162.0450  211.3490  148.8840 C   0  0  0  0  0  2  0  0  0  0  0  0
  162.9180  212.2380  148.0170 C   0  0  0  0  0  1  0  0  0  0  0  0
  160.5720  206.8340  153.2240 C   0  0  0  0  0  2  0  0  0  0  0  0
  161.3680  207.9310  155.4740 N   0  0  0  0  0  0  0  0  0  0  0  0
  161.0160  207.4480  154.4820 C   0  0  0  0  0  0  0  0  0  0  0  0
  2 20  1  0  0  0  0
  3 13  1  0  0  0  0
  4 11  2  0  0  0  0
  5 12  1  0  0  0  0
  6 16  1  0  0  0  0
  7 10  2  0  0  0  0
  8  2  1  0  0  0  0
  9  1  2  0  0  0  0
 10  5  1  0  0  0  0
 10  6  1  0  0  0  0
 11  1  1  0  0  0  0
 11 24  1  0  0  0  0
 12 17  2  0  0  0  0
 12  4  1  0  0  0  0
 13  7  1  0  0  0  0
 13  2  2  0  0  0  0
 14  7  1  0  0  0  0
 15 19  1  0  0  0  0
 16  4  1  0  0  0  0
 16 15  1  0  0  0  0
 17  9  1  0  0  0  0
 18 15  2  0  0  0  0
 20  6  2  0  0  0  0
 20 18  1  0  0  0  0
 21 22  1  0  0  0  0
 21 17  1  0  0  0  0
 23 22  1  0  0  0  0
 24 26  1  0  0  0  0
 26 25  3  0  0  0  0
M  END
>  <MODEL>
1

>  <REMARK>
 VINA RESULT:      -9.1      0.000      0.000
  Name = 
  4 active torsions:
  status: ('A' for Active; 'I' for Inactive)
    1  A    between atoms: C_3  and  C_12
    2  A    between atoms: C_8  and  C_25
    3  A    between atoms: C_12  and  C_22
    4  A    between atoms: C_16  and  C_25
                            x       y       z     vdW  Elec       q    Type
                         _______ _______ _______ _____ _____    ______ ____

>  <TORSDO>
F 4

$$$$
=
 OpenBabel11052411153D

 26 29  0  0  0  0  0  0  0  0999 V2000
  161.6790  209.1060  151.0840 C   0  0  0  0  0  3  0  0  0  0  0  0
  161.0630  202.4990  148.2060 C   0  0  0  0  0  0  0  0  0  0  0  0
  160.8240  200.5140  149.5920 O   0  0  0  0  0  1  0  0  0  0  0  0
  161.3870  206.8960  150.0970 C   0  0  0  0  0  0  0  0  0  0  0  0
  161.0690  204.9850  151.6210 O   0  0  0  0  0  0  0  0  0  0  0  0
  161.3030  204.6220  149.2820 C   0  0  0  0  0  0  0  0  0  0  0  0
  161.0000  202.6970  150.6620 C   0  0  0  0  0  0  0  0  0  0  0  0
  160.9610  201.6910  146.9550 C   0  0  0  0  0  1  0  0  0  0  0  0
  161.3810  208.6020  152.3460 C   0  0  0  0  0  3  0  0  0  0  0  0
  161.1420  204.0940  150.5430 C   0  0  0  0  0  0  0  0  0  0  0  0
  161.6980  208.2750  149.9540 C   0  0  0  0  0  0  0  0  0  0  0  0
  161.1900  206.3790  151.4160 C   0  0  0  0  0  0  0  0  0  0  0  0
  160.9700  201.8950  149.4860 C   0  0  0  0  0  0  0  0  0  0  0  0
  160.8470  202.0750  152.0090 C   0  0  0  0  0  1  0  0  0  0  0  0
  161.2520  205.9490  147.6450 C   0  0  0  0  0  0  0  0  0  0  0  0
  161.3640  205.9260  149.0100 N   0  0  0  0  0  0  0  0  0  0  0  0
  161.1470  207.2410  152.5200 C   0  0  0  0  0  0  0  0  0  0  0  0
  161.1760  204.7050  147.0890 N   0  0  0  0  0  0  0  0  0  0  0  0
  160.9920  207.1530  146.8160 C   0  0  0  0  0  1  0  0  0  0  0  0
  161.2230  203.8860  148.1540 C   0  0  0  0  0  0  0  0  0  0  0  0
  160.8700  206.7200  153.8950 C   0  0  0  0  0  2  0  0  0  0  0  0
  160.6780  207.8580  154.8850 C   0  0  0  0  0  2  0  0  0  0  0  0
  159.9180  207.3780  156.1080 C   0  0  0  0  0  1  0  0  0  0  0  0
  162.2310  208.8720  148.6930 C   0  0  0  0  0  2  0  0  0  0  0  0
  161.9160  211.4790  148.6730 N   0  0  0  0  0  0  0  0  0  0  0  0
  162.0560  210.3300  148.6820 C   0  0  0  0  0  0  0  0  0  0  0  0
  1  9  1  0  0  0  0
  2 13  1  0  0  0  0
  4 12  2  0  0  0  0
  6 10  2  0  0  0  0
  7 14  1  0  0  0  0
  8  2  1  0  0  0  0
  9 17  2  0  0  0  0
 10  7  1  0  0  0  0
 10  5  1  0  0  0  0
 11  4  1  0  0  0  0
 11  1  2  0  0  0  0
 12  5  1  0  0  0  0
 12 17  1  0  0  0  0
 13  3  1  0  0  0  0
 13  7  2  0  0  0  0
 15 16  1  0  0  0  0
 16  6  1  0  0  0  0
 16  4  1  0  0  0  0
 17 21  1  0  0  0  0
 18 15  2  0  0  0  0
 18 20  1  0  0  0  0
 19 15  1  0  0  0  0
 20  2  2  0  0  0  0
 20  6  1  0  0  0  0
 21 22  1  0  0  0  0
 22 23  1  0  0  0  0
 24 11  1  0  0  0  0
 25 26  3  0  0  0  0
 26 24  1  0  0  0  0
M  END
>  <MODEL>
2

>  <REMARK>
 VINA RESULT:      -8.6      2.154      4.621
  Name = 
  4 active torsions:
  status: ('A' for Active; 'I' for Inactive)
    1  A    between atoms: C_3  and  C_12
    2  A    between atoms: C_8  and  C_25
    3  A    between atoms: C_12  and  C_22
    4  A    between atoms: C_16  and  C_25
                            x       y       z     vdW  Elec       q    Type
                         _______ _______ _______ _____ _____    ______ ____

>  <TORSDO>
F 4

$$$$
=
 OpenBabel11052411153D

 26 29  0  0  0  0  0  0  0  0999 V2000
  161.2380  204.6190  148.0770 C   0  0  0  0  0  3  0  0  0  0  0  0
  161.1750  209.5980  153.3230 C   0  0  0  0  0  0  0  0  0  0  0  0
  160.7980  209.0030  155.6510 O   0  0  0  0  0  1  0  0  0  0  0  0
  161.3040  206.2980  149.8440 C   0  0  0  0  0  0  0  0  0  0  0  0
  160.9920  205.5390  152.1680 O   0  0  0  0  0  0  0  0  0  0  0  0
  161.1270  207.8630  151.6770 C   0  0  0  0  0  0  0  0  0  0  0  0
  160.8240  207.2440  153.9630 C   0  0  0  0  0  0  0  0  0  0  0  0
  161.3570  211.0370  153.6750 C   0  0  0  0  0  1  0  0  0  0  0  0
  161.2060  203.5990  149.0230 C   0  0  0  0  0  3  0  0  0  0  0  0
  160.9590  206.8660  152.6130 C   0  0  0  0  0  0  0  0  0  0  0  0
  161.2760  205.9670  148.4620 C   0  0  0  0  0  0  0  0  0  0  0  0
  161.1620  205.2400  150.7970 C   0  0  0  0  0  0  0  0  0  0  0  0
  160.9240  208.6190  154.3190 C   0  0  0  0  0  0  0  0  0  0  0  0
  160.6150  206.2030  155.0120 C   0  0  0  0  0  1  0  0  0  0  0  0
  161.7120  208.8960  149.9360 C   0  0  0  0  0  0  0  0  0  0  0  0
  161.3510  207.6510  150.3800 N   0  0  0  0  0  0  0  0  0  0  0  0
  161.1570  203.9020  150.3800 C   0  0  0  0  0  0  0  0  0  0  0  0
  161.6640  209.8510  150.9100 N   0  0  0  0  0  0  0  0  0  0  0  0
  162.3310  209.2030  148.6210 C   0  0  0  0  0  1  0  0  0  0  0  0
  161.2790  209.1640  151.9990 C   0  0  0  0  0  0  0  0  0  0  0  0
  161.0800  202.7860  151.3730 C   0  0  0  0  0  2  0  0  0  0  0  0
  161.2060  201.4330  150.6900 C   0  0  0  0  0  2  0  0  0  0  0  0
  159.8890  201.0320  150.0520 C   0  0  0  0  0  1  0  0  0  0  0  0
  161.0990  206.9780  147.3780 C   0  0  0  0  0  2  0  0  0  0  0  0
  160.4560  205.8270  145.1070 N   0  0  0  0  0  0  0  0  0  0  0  0
  160.7390  206.3350  146.1070 C   0  0  0  0  0  0  0  0  0  0  0  0
  1 11  2  0  0  0  0
  1  9  1  0  0  0  0
  2  8  1  0  0  0  0
  2 13  1  0  0  0  0
  4 16  1  0  0  0  0
  4 12  2  0  0  0  0
  5 10  1  0  0  0  0
  6 20  1  0  0  0  0
  6 10  2  0  0  0  0
  7 13  2  0  0  0  0
  7 14  1  0  0  0  0
  9 17  2  0  0  0  0
 10  7  1  0  0  0  0
 11  4  1  0  0  0  0
 12  5  1  0  0  0  0
 13  3  1  0  0  0  0
 15 16  1  0  0  0  0
 15 18  2  0  0  0  0
 16  6  1  0  0  0  0
 17 12  1  0  0  0  0
 17 21  1  0  0  0  0
 18 20  1  0  0  0  0
 19 15  1  0  0  0  0
 20  2  2  0  0  0  0
 22 21  1  0  0  0  0
 23 22  1  0  0  0  0
 24 11  1  0  0  0  0
 25 26  3  0  0  0  0
 26 24  1  0  0  0  0
M  END
>  <MODEL>
3

>  <REMARK>
 VINA RESULT:      -8.0      2.538      7.363
  Name = 
  4 active torsions:
  status: ('A' for Active; 'I' for Inactive)
    1  A    between atoms: C_3  and  C_12
    2  A    between atoms: C_8  and  C_25
    3  A    between atoms: C_12  and  C_22
    4  A    between atoms: C_16  and  C_25
                            x       y       z     vdW  Elec       q    Type
                         _______ _______ _______ _____ _____    ______ ____

>  <TORSDO>
F 4

$$$$
=
 OpenBabel11052411153D

 26 29  0  0  0  0  0  0  0  0999 V2000
  161.2280  202.4010  146.3160 C   0  0  0  0  0  3  0  0  0  0  0  0
  161.3800  206.3080  152.4010 C   0  0  0  0  0  0  0  0  0  0  0  0
  161.7900  208.7060  152.3750 O   0  0  0  0  0  1  0  0  0  0  0  0
  161.1920  203.7170  148.3670 C   0  0  0  0  0  0  0  0  0  0  0  0
  161.5360  206.1510  148.1820 O   0  0  0  0  0  0  0  0  0  0  0  0
  161.4000  205.1220  150.3230 C   0  0  0  0  0  0  0  0  0  0  0  0
  161.7350  207.4860  150.2640 C   0  0  0  0  0  0  0  0  0  0  0  0
  161.2070  206.3090  153.8830 C   0  0  0  0  0  1  0  0  0  0  0  0
  161.2710  203.5620  145.5500 C   0  0  0  0  0  3  0  0  0  0  0  0
  161.5790  206.2670  149.5770 C   0  0  0  0  0  0  0  0  0  0  0  0
  161.1980  202.4540  147.7170 C   0  0  0  0  0  0  0  0  0  0  0  0
  161.3450  204.8930  147.5660 C   0  0  0  0  0  0  0  0  0  0  0  0
  161.6430  207.5050  151.6850 C   0  0  0  0  0  0  0  0  0  0  0  0
  161.9560  208.7490  149.5020 C   0  0  0  0  0  1  0  0  0  0  0  0
  160.7920  203.1930  150.9150 C   0  0  0  0  0  0  0  0  0  0  0  0
  161.1560  203.9160  149.8100 N   0  0  0  0  0  0  0  0  0  0  0  0
  161.3410  204.8070  146.1680 C   0  0  0  0  0  0  0  0  0  0  0  0
  160.8560  203.9110  152.0740 N   0  0  0  0  0  0  0  0  0  0  0  0
  160.1540  201.8520  150.9040 C   0  0  0  0  0  1  0  0  0  0  0  0
  161.2560  205.1270  151.6640 C   0  0  0  0  0  0  0  0  0  0  0  0
  161.4290  206.0360  145.3190 C   0  0  0  0  0  2  0  0  0  0  0  0
  160.8250  205.7990  143.9440 C   0  0  0  0  0  2  0  0  0  0  0  0
  161.9030  205.8280  142.8760 C   0  0  0  0  0  1  0  0  0  0  0  0
  161.3630  201.1580  148.4400 C   0  0  0  0  0  2  0  0  0  0  0  0
  161.5810  199.1560  146.7540 N   0  0  0  0  0  0  0  0  0  0  0  0
  161.4850  200.0380  147.4980 C   0  0  0  0  0  0  0  0  0  0  0  0
  1 11  1  0  0  0  0
  2  8  1  0  0  0  0
  4 16  1  0  0  0  0
  5 10  1  0  0  0  0
  6 20  1  0  0  0  0
  7 13  2  0  0  0  0
  9 17  1  0  0  0  0
  9  1  2  0  0  0  0
 10  7  1  0  0  0  0
 10  6  2  0  0  0  0
 11  4  2  0  0  0  0
 11 24  1  0  0  0  0
 12  5  1  0  0  0  0
 12  4  1  0  0  0  0
 13  3  1  0  0  0  0
 13  2  1  0  0  0  0
 14  7  1  0  0  0  0
 15 18  2  0  0  0  0
 16  6  1  0  0  0  0
 16 15  1  0  0  0  0
 17 12  2  0  0  0  0
 19 15  1  0  0  0  0
 20 18  1  0  0  0  0
 20  2  2  0  0  0  0
 21 17  1  0  0  0  0
 22 21  1  0  0  0  0
 23 22  1  0  0  0  0
 25 26  3  0  0  0  0
 26 24  1  0  0  0  0
M  END
>  <MODEL>
4

>  <REMARK>
 VINA RESULT:      -7.6      1.891      6.159
  Name = 
  4 active torsions:
  status: ('A' for Active; 'I' for Inactive)
    1  A    between atoms: C_3  and  C_12
    2  A    between atoms: C_8  and  C_25
    3  A    between atoms: C_12  and  C_22
    4  A    between atoms: C_16  and  C_25
                            x       y       z     vdW  Elec       q    Type
                         _______ _______ _______ _____ _____    ______ ____

>  <TORSDO>
F 4

$$$$
=
 OpenBabel11052411153D

 26 29  0  0  0  0  0  0  0  0999 V2000
  161.6650  206.7020  152.7520 C   0  0  0  0  0  3  0  0  0  0  0  0
  161.5420  205.1370  145.6910 C   0  0  0  0  0  0  0  0  0  0  0  0
  161.1550  202.8750  144.8860 O   0  0  0  0  0  1  0  0  0  0  0  0
  161.5420  206.2060  150.3680 C   0  0  0  0  0  0  0  0  0  0  0  0
  161.0560  203.8850  149.6960 O   0  0  0  0  0  0  0  0  0  0  0  0
  161.6040  205.5150  148.0530 C   0  0  0  0  0  0  0  0  0  0  0  0
  161.1510  203.2990  147.2870 C   0  0  0  0  0  0  0  0  0  0  0  0
  161.6200  205.6670  144.2980 C   0  0  0  0  0  1  0  0  0  0  0  0
  161.2100  205.4230  153.0600 C   0  0  0  0  0  3  0  0  0  0  0  0
  161.2850  204.2090  148.3530 C   0  0  0  0  0  0  0  0  0  0  0  0
  161.8480  207.1090  151.4230 C   0  0  0  0  0  0  0  0  0  0  0  0
  161.1800  204.8640  150.7080 C   0  0  0  0  0  0  0  0  0  0  0  0
  161.2900  203.7650  145.9480 C   0  0  0  0  0  0  0  0  0  0  0  0
  160.8310  201.8690  147.5620 C   0  0  0  0  0  1  0  0  0  0  0  0
  161.7490  207.6160  148.1550 C   0  0  0  0  0  0  0  0  0  0  0  0
  161.6790  206.5000  148.9480 N   0  0  0  0  0  0  0  0  0  0  0  0
  160.9780  204.4980  152.0460 C   0  0  0  0  0  0  0  0  0  0  0  0
  161.7670  207.3280  146.8210 N   0  0  0  0  0  0  0  0  0  0  0  0
  161.5810  209.0180  148.6130 C   0  0  0  0  0  1  0  0  0  0  0  0
  161.6850  205.9870  146.7920 C   0  0  0  0  0  0  0  0  0  0  0  0
  160.5300  203.1180  152.4080 C   0  0  0  0  0  2  0  0  0  0  0  0
  161.5570  202.0780  151.9910 C   0  0  0  0  0  2  0  0  0  0  0  0
  161.0010  201.1880  150.8950 C   0  0  0  0  0  1  0  0  0  0  0  0
  162.5320  208.4180  151.2110 C   0  0  0  0  0  2  0  0  0  0  0  0
  161.5040  210.2850  152.7460 N   0  0  0  0  0  0  0  0  0  0  0  0
  161.9570  209.4620  152.0700 C   0  0  0  0  0  0  0  0  0  0  0  0
  1  9  1  0  0  0  0
  2 13  2  0  0  0  0
  2 20  1  0  0  0  0
  3 13  1  0  0  0  0
  4 12  2  0  0  0  0
  4 11  1  0  0  0  0
  5 12  1  0  0  0  0
  6 10  1  0  0  0  0
  6 16  1  0  0  0  0
  7 14  1  0  0  0  0
  7 10  2  0  0  0  0
  8  2  1  0  0  0  0
 10  5  1  0  0  0  0
 11  1  2  0  0  0  0
 12 17  1  0  0  0  0
 13  7  1  0  0  0  0
 15 19  1  0  0  0  0
 15 16  1  0  0  0  0
 16  4  1  0  0  0  0
 17 21  1  0  0  0  0
 17  9  2  0  0  0  0
 18 15  2  0  0  0  0
 20 18  1  0  0  0  0
 20  6  2  0  0  0  0
 22 21  1  0  0  0  0
 23 22  1  0  0  0  0
 24 11  1  0  0  0  0
 24 26  1  0  0  0  0
 26 25  3  0  0  0  0
M  END
>  <MODEL>
5

>  <REMARK>
 VINA RESULT:      -7.3      1.791      4.750
  Name = 
  4 active torsions:
  status: ('A' for Active; 'I' for Inactive)
    1  A    between atoms: C_3  and  C_12
    2  A    between atoms: C_8  and  C_25
    3  A    between atoms: C_12  and  C_22
    4  A    between atoms: C_16  and  C_25
                            x       y       z     vdW  Elec       q    Type
                         _______ _______ _______ _____ _____    ______ ____

>  <TORSDO>
F 4

$$$$
=
 OpenBabel11052411153D

 26 29  0  0  0  0  0  0  0  0999 V2000
  161.3630  203.2340  148.1440 C   0  0  0  0  0  3  0  0  0  0  0  0
  161.3710  208.3510  153.2570 C   0  0  0  0  0  0  0  0  0  0  0  0
  161.6720  210.7030  152.7150 O   0  0  0  0  0  1  0  0  0  0  0  0
  161.2790  204.9540  149.8690 C   0  0  0  0  0  0  0  0  0  0  0  0
  161.5100  207.3050  149.1660 O   0  0  0  0  0  0  0  0  0  0  0  0
  161.4340  206.7520  151.4780 C   0  0  0  0  0  0  0  0  0  0  0  0
  161.6600  209.0610  150.9140 C   0  0  0  0  0  0  0  0  0  0  0  0
  161.2070  208.6600  154.7070 C   0  0  0  0  0  1  0  0  0  0  0  0
  161.3490  204.2060  147.1480 C   0  0  0  0  0  3  0  0  0  0  0  0
  161.5570  207.7170  150.5040 C   0  0  0  0  0  0  0  0  0  0  0  0
  161.3400  203.5830  149.5020 C   0  0  0  0  0  0  0  0  0  0  0  0
  161.3740  205.9380  148.8340 C   0  0  0  0  0  0  0  0  0  0  0  0
  161.5760  209.3780  152.2990 C   0  0  0  0  0  0  0  0  0  0  0  0
  161.8190  210.1410  149.8970 C   0  0  0  0  0  1  0  0  0  0  0  0
  160.9180  204.9680  152.4770 C   0  0  0  0  0  0  0  0  0  0  0  0
  161.2430  205.4540  151.2370 N   0  0  0  0  0  0  0  0  0  0  0  0
  161.3660  205.5560  147.4860 C   0  0  0  0  0  0  0  0  0  0  0  0
  160.9560  205.9190  153.4550 N   0  0  0  0  0  0  0  0  0  0  0  0
  160.3430  203.6290  152.7600 C   0  0  0  0  0  1  0  0  0  0  0  0
  161.2980  207.0350  152.7900 C   0  0  0  0  0  0  0  0  0  0  0  0
  161.3930  206.5780  146.3950 C   0  0  0  0  0  2  0  0  0  0  0  0
  160.4460  206.2030  145.2660 C   0  0  0  0  0  2  0  0  0  0  0  0
  161.2060  205.5490  144.1270 C   0  0  0  0  0  1  0  0  0  0  0  0
  161.5680  202.4790  150.4820 C   0  0  0  0  0  2  0  0  0  0  0  0
  160.0140  200.4240  149.9710 N   0  0  0  0  0  0  0  0  0  0  0  0
  160.7000  201.3290  150.1950 C   0  0  0  0  0  0  0  0  0  0  0  0
  1 11  1  0  0  0  0
  2  8  1  0  0  0  0
  4 16  1  0  0  0  0
  5 10  1  0  0  0  0
  6 20  2  0  0  0  0
  7 13  1  0  0  0  0
  9 17  1  0  0  0  0
  9  1  2  0  0  0  0
 10  7  2  0  0  0  0
 10  6  1  0  0  0  0
 11  4  2  0  0  0  0
 11 24  1  0  0  0  0
 12  5  1  0  0  0  0
 12  4  1  0  0  0  0
 13  3  1  0  0  0  0
 13  2  2  0  0  0  0
 14  7  1  0  0  0  0
 15 19  1  0  0  0  0
 15 18  2  0  0  0  0
 16  6  1  0  0  0  0
 16 15  1  0  0  0  0
 17 12  2  0  0  0  0
 20  2  1  0  0  0  0
 20 18  1  0  0  0  0
 21 17  1  0  0  0  0
 22 21  1  0  0  0  0
 23 22  1  0  0  0  0
 25 26  3  0  0  0  0
 26 24  1  0  0  0  0
M  END
>  <MODEL>
6

>  <REMARK>
 VINA RESULT:      -7.2      1.703      5.847
  Name = 
  4 active torsions:
  status: ('A' for Active; 'I' for Inactive)
    1  A    between atoms: C_3  and  C_12
    2  A    between atoms: C_8  and  C_25
    3  A    between atoms: C_12  and  C_22
    4  A    between atoms: C_16  and  C_25
                            x       y       z     vdW  Elec       q    Type
                         _______ _______ _______ _____ _____    ______ ____

>  <TORSDO>
F 4

$$$$
=
 OpenBabel11052411153D

 26 29  0  0  0  0  0  0  0  0999 V2000
  161.0140  203.4060  151.1020 C   0  0  0  0  0  3  0  0  0  0  0  0
  161.9100  210.2680  148.9950 C   0  0  0  0  0  0  0  0  0  0  0  0
  161.7910  212.1180  150.5700 O   0  0  0  0  0  1  0  0  0  0  0  0
  161.4020  205.7050  150.3910 C   0  0  0  0  0  0  0  0  0  0  0  0
  161.3370  207.4710  152.1090 O   0  0  0  0  0  0  0  0  0  0  0  0
  161.5510  208.0470  149.8110 C   0  0  0  0  0  0  0  0  0  0  0  0
  161.4990  209.8400  151.3880 C   0  0  0  0  0  0  0  0  0  0  0  0
  162.2210  211.1910  147.8660 C   0  0  0  0  0  1  0  0  0  0  0  0
  161.0380  203.7960  152.4380 C   0  0  0  0  0  3  0  0  0  0  0  0
  161.4400  208.4580  151.1220 C   0  0  0  0  0  0  0  0  0  0  0  0
  161.1820  204.3390  150.0690 C   0  0  0  0  0  0  0  0  0  0  0  0
  161.3160  206.1010  151.7640 C   0  0  0  0  0  0  0  0  0  0  0  0
  161.7260  210.7500  150.3170 C   0  0  0  0  0  0  0  0  0  0  0  0
  161.3600  210.3360  152.7880 C   0  0  0  0  0  1  0  0  0  0  0  0
  161.9760  206.8820  148.1070 C   0  0  0  0  0  0  0  0  0  0  0  0
  161.5980  206.7740  149.4200 N   0  0  0  0  0  0  0  0  0  0  0  0
  161.1770  205.1400  152.7740 C   0  0  0  0  0  0  0  0  0  0  0  0
  162.1080  208.1740  147.6890 N   0  0  0  0  0  0  0  0  0  0  0  0
  162.4430  205.7670  147.2440 C   0  0  0  0  0  1  0  0  0  0  0  0
  161.8200  208.8880  148.7910 C   0  0  0  0  0  0  0  0  0  0  0  0
  161.1580  205.5350  154.2160 C   0  0  0  0  0  2  0  0  0  0  0  0
  160.4590  206.8710  154.4120 C   0  0  0  0  0  2  0  0  0  0  0  0
  160.1630  207.1080  155.8810 C   0  0  0  0  0  1  0  0  0  0  0  0
  160.9320  203.8520  148.6800 C   0  0  0  0  0  2  0  0  0  0  0  0
  161.1380  201.2370  148.5430 N   0  0  0  0  0  0  0  0  0  0  0  0
  161.0480  202.3900  148.6020 C   0  0  0  0  0  0  0  0  0  0  0  0
  1  9  1  0  0  0  0
  2 13  1  0  0  0  0
  4 12  2  0  0  0  0
  6 10  2  0  0  0  0
  7 14  1  0  0  0  0
  8  2  1  0  0  0  0
  9 17  2  0  0  0  0
 10  7  1  0  0  0  0
 10  5  1  0  0  0  0
 11  4  1  0  0  0  0
 11  1  2  0  0  0  0
 12  5  1  0  0  0  0
 12 17  1  0  0  0  0
 13  3  1  0  0  0  0
 13  7  2  0  0  0  0
 15 16  1  0  0  0  0
 16  6  1  0  0  0  0
 16  4  1  0  0  0  0
 17 21  1  0  0  0  0
 18 15  2  0  0  0  0
 18 20  1  0  0  0  0
 19 15  1  0  0  0  0
 20  2  2  0  0  0  0
 20  6  1  0  0  0  0
 21 22  1  0  0  0  0
 22 23  1  0  0  0  0
 24 11  1  0  0  0  0
 25 26  3  0  0  0  0
 26 24  1  0  0  0  0
M  END
>  <MODEL>
7

>  <REMARK>
 VINA RESULT:      -6.3      2.402      6.473
  Name = 
  4 active torsions:
  status: ('A' for Active; 'I' for Inactive)
    1  A    between atoms: C_3  and  C_12
    2  A    between atoms: C_8  and  C_25
    3  A    between atoms: C_12  and  C_22
    4  A    between atoms: C_16  and  C_25
                            x       y       z     vdW  Elec       q    Type
                         _______ _______ _______ _____ _____    ______ ____

>  <TORSDO>
F 4

$$$$
=
 OpenBabel11052411153D

 26 29  0  0  0  0  0  0  0  0999 V2000
  160.8320  206.8930  154.6440 C   0  0  0  0  0  3  0  0  0  0  0  0
  160.4570  213.0320  150.8370 C   0  0  0  0  0  0  0  0  0  0  0  0
  161.4220  213.2220  148.6120 O   0  0  0  0  0  1  0  0  0  0  0  0
  160.6230  208.9420  153.3400 C   0  0  0  0  0  0  0  0  0  0  0  0
  161.5720  208.9640  151.0650 O   0  0  0  0  0  0  0  0  0  0  0  0
  160.6880  210.9600  152.0110 C   0  0  0  0  0  0  0  0  0  0  0  0
  161.5810  211.0990  149.8000 C   0  0  0  0  0  0  0  0  0  0  0  0
  159.9410  214.4310  150.7810 C   0  0  0  0  0  1  0  0  0  0  0  0
  161.3320  206.2170  153.5350 C   0  0  0  0  0  3  0  0  0  0  0  0
  161.3080  210.3340  150.9510 C   0  0  0  0  0  0  0  0  0  0  0  0
  160.4830  208.2500  154.5730 C   0  0  0  0  0  0  0  0  0  0  0  0
  161.2390  208.2590  152.2440 C   0  0  0  0  0  0  0  0  0  0  0  0
  161.1610  212.4580  149.7470 C   0  0  0  0  0  0  0  0  0  0  0  0
  162.2730  210.4730  148.6360 C   0  0  0  0  0  1  0  0  0  0  0  0
  159.5140  211.2980  153.7280 C   0  0  0  0  0  0  0  0  0  0  0  0
  160.2940  210.3450  153.1260 N   0  0  0  0  0  0  0  0  0  0  0  0
  161.5480  206.8950  152.3390 C   0  0  0  0  0  0  0  0  0  0  0  0
  159.4700  212.4740  153.0380 N   0  0  0  0  0  0  0  0  0  0  0  0
  158.5970  211.0710  154.8740 C   0  0  0  0  0  1  0  0  0  0  0  0
  160.2340  212.2290  151.9590 C   0  0  0  0  0  0  0  0  0  0  0  0
  162.1260  206.1530  151.1760 C   0  0  0  0  0  2  0  0  0  0  0  0
  161.0630  205.3340  150.4620 C   0  0  0  0  0  2  0  0  0  0  0  0
  160.6230  206.0270  149.1860 C   0  0  0  0  0  1  0  0  0  0  0  0
  160.1570  208.9260  155.8630 C   0  0  0  0  0  2  0  0  0  0  0  0
  162.3310  209.4040  157.2570 N   0  0  0  0  0  0  0  0  0  0  0  0
  161.3720  209.1930  156.6440 C   0  0  0  0  0  0  0  0  0  0  0  0
  2 20  1  0  0  0  0
  3 13  1  0  0  0  0
  4 11  2  0  0  0  0
  5 12  1  0  0  0  0
  6 16  1  0  0  0  0
  7 10  2  0  0  0  0
  8  2  1  0  0  0  0
  9  1  2  0  0  0  0
 10  5  1  0  0  0  0
 10  6  1  0  0  0  0
 11  1  1  0  0  0  0
 11 24  1  0  0  0  0
 12 17  2  0  0  0  0
 12  4  1  0  0  0  0
 13  7  1  0  0  0  0
 13  2  2  0  0  0  0
 14  7  1  0  0  0  0
 15 19  1  0  0  0  0
 16  4  1  0  0  0  0
 16 15  1  0  0  0  0
 17  9  1  0  0  0  0
 18 15  2  0  0  0  0
 20  6  2  0  0  0  0
 20 18  1  0  0  0  0
 21 17  1  0  0  0  0
 22 21  1  0  0  0  0
 23 22  1  0  0  0  0
 24 26  1  0  0  0  0
 26 25  3  0  0  0  0
M  END
>  <MODEL>
8

>  <REMARK>
 VINA RESULT:      -6.3      3.207      6.699
  Name = 
  4 active torsions:
  status: ('A' for Active; 'I' for Inactive)
    1  A    between atoms: C_3  and  C_12
    2  A    between atoms: C_8  and  C_25
    3  A    between atoms: C_12  and  C_22
    4  A    between atoms: C_16  and  C_25
                            x       y       z     vdW  Elec       q    Type
                         _______ _______ _______ _____ _____    ______ ____

>  <TORSDO>
F 4

$$$$
