=
 OpenBabel11042420223D

 30 34  0  0  1  0  0  0  0  0999 V2000
  161.0530  207.8740  151.9470 C   0  0  1  0  0  3  0  0  0  0  0  0
  161.5030  210.7610  151.9810 O   0  0  0  0  0  0  0  0  0  0  0  0
  160.3270  208.8630  152.8430 C   0  0  0  0  0  2  0  0  0  0  0  0
  162.4380  209.9850  151.2310 C   0  0  2  0  0  3  0  0  0  0  0  0
  160.2280  210.1720  152.0980 C   0  0  1  0  0  3  0  0  0  0  0  0
  161.8400  209.2740  150.1710 O   0  0  0  0  0  0  0  0  0  0  0  0
  162.2880  208.4870  151.2590 C   0  0  2  0  0  3  0  0  0  0  0  0
  159.2280  211.1190  152.7660 C   0  0  2  0  0  3  0  0  0  0  0  0
  159.6040  212.8080  152.1970 S   0  0  0  0  0  1  0  0  0  0  0  0
  159.2020  211.0620  154.3100 C   0  0  2  0  0  3  0  0  0  0  0  0
  157.9660  211.6470  154.9030 C   0  0  0  0  0  0  0  0  0  0  0  0
  156.8610  211.1480  154.7760 O   0  0  0  0  0  0  0  0  0  0  0  0
  159.7070  212.8570  155.9380 C   0  0  0  0  0  2  0  0  0  0  0  0
  158.2010  212.8160  155.7760 C   0  0  0  0  0  2  0  0  0  0  0  0
  160.3120  211.9440  154.8750 C   0  0  0  0  0  2  0  0  0  0  0  0
  161.4280  206.6060  152.7240 C   0  0  2  0  0  3  0  0  0  0  0  0
  161.0590  204.0310  152.4370 C   0  0  0  0  0  3  0  0  0  0  0  0
  160.9370  202.6930  150.2190 C   0  0  0  0  0  3  0  0  0  0  0  0
  161.1060  203.5730  149.1940 C   0  0  0  0  0  0  0  0  0  0  0  0
  161.3380  205.4310  150.5950 C   0  0  0  0  0  0  0  0  0  0  0  0
  160.9150  202.8980  151.7100 C   0  0  0  0  0  3  0  0  0  0  0  0
  161.2810  205.3770  151.8780 C   0  0  0  0  0  0  0  0  0  0  0  0
  161.3220  205.0270  149.3770 C   0  0  0  0  0  3  0  0  0  0  0  0
  160.6920  201.8080  147.4760 N   0  0  0  0  0  0  0  0  0  0  0  0
  161.4310  203.7620  146.7280 N   0  0  0  0  0  0  0  0  0  0  0  0
  161.2570  202.9310  145.7140 N   0  0  0  0  0  0  0  0  0  0  0  0
  160.8160  201.7650  146.1600 N   0  0  0  0  0  2  0  0  0  0  0  0
  161.0760  203.0530  147.8170 C   0  0  0  0  0  0  0  0  0  0  0  0
  160.6020  206.4740  153.9170 N   0  0  0  0  0  2  0  0  0  0  0  0
  161.3630  207.0190  155.0270 C   0  0  0  0  0  1  0  0  0  0  0  0
  1 16  1  1  0  0  0
  1  3  1  0  0  0  0
  2  5  1  0  0  0  0
  4  6  1  6  0  0  0
  4  7  1  0  0  0  0
  4  2  1  0  0  0  0
  5  8  1  1  0  0  0
  5  3  1  0  0  0  0
  7  6  1  6  0  0  0
  7  1  1  0  0  0  0
  8  9  1  1  0  0  0
 10  8  1  6  0  0  0
 10 15  1  0  0  0  0
 10 11  1  0  0  0  0
 11 14  1  0  0  0  0
 12 11  2  0  0  0  0
 14 13  1  0  0  0  0
 15 13  1  0  0  0  0
 16 29  1  1  0  0  0
 18 21  1  0  0  0  0
 19 23  1  0  0  0  0
 19 18  2  0  0  0  0
 20 22  2  0  0  0  0
 21 17  2  0  0  0  0
 22 17  1  0  0  0  0
 22 16  1  0  0  0  0
 23 20  2  0  0  0  0
 24 28  2  0  0  0  0
 25 28  1  0  0  0  0
 26 27  1  0  0  0  0
 26 25  2  0  0  0  0
 27 24  1  0  0  0  0
 28 19  1  0  0  0  0
 29 30  1  0  0  0  0
M  END
>  <MODEL>
1

>  <REMARK>
 VINA RESULT:      -8.7      0.000      0.000
  Name = 
  6 active torsions:
  status: ('A' for Active; 'I' for Inactive)
    1  A    between atoms: C_2  and  C_24
    2  A    between atoms: C_3  and  C_15
    3  A    between atoms: C_7  and  C_30
    4  A    between atoms: N_8  and  C_15
    5  A    between atoms: C_15  and  C_16
    6  A    between atoms: C_22  and  C_24
                            x       y       z     vdW  Elec       q    Type
                         _______ _______ _______ _____ _____    ______ ____

>  <TORSDO>
F 6

$$$$
=
 OpenBabel11042420223D

 30 34  0  0  1  0  0  0  0  0999 V2000
  161.5710  209.2390  155.2350 C   0  0  1  0  0  3  0  0  0  0  0  0
  161.0780  211.6360  156.8310 O   0  0  0  0  0  0  0  0  0  0  0  0
  160.3460  210.1290  155.1220 C   0  0  0  0  0  2  0  0  0  0  0  0
  162.1750  210.8180  157.2410 C   0  0  2  0  0  3  0  0  0  0  0  0
  160.7690  211.5380  155.4590 C   0  0  1  0  0  3  0  0  0  0  0  0
  163.1730  210.6970  156.2540 O   0  0  0  0  0  0  0  0  0  0  0  0
  162.4070  209.5320  156.4960 C   0  0  2  0  0  3  0  0  0  0  0  0
  159.6990  212.5540  155.0480 C   0  0  2  0  0  3  0  0  0  0  0  0
  159.5150  213.7430  156.4160 S   0  0  0  0  0  1  0  0  0  0  0  0
  158.3300  211.9480  154.6710 C   0  0  2  0  0  3  0  0  0  0  0  0
  157.5930  212.7430  153.6470 C   0  0  0  0  0  0  0  0  0  0  0  0
  157.9640  212.8540  152.4910 O   0  0  0  0  0  0  0  0  0  0  0  0
  156.0740  212.6070  155.4470 C   0  0  0  0  0  2  0  0  0  0  0  0
  156.2960  213.2810  154.1080 C   0  0  0  0  0  2  0  0  0  0  0  0
  157.4000  211.9880  155.8800 C   0  0  0  0  0  2  0  0  0  0  0  0
  161.1780  207.7570  155.1670 C   0  0  2  0  0  3  0  0  0  0  0  0
  161.1310  208.1590  152.5810 C   0  0  0  0  0  3  0  0  0  0  0  0
  161.0720  206.3670  150.7080 C   0  0  0  0  0  3  0  0  0  0  0  0
  161.0640  205.1430  151.3040 C   0  0  0  0  0  0  0  0  0  0  0  0
  161.1130  206.0080  153.4770 C   0  0  0  0  0  0  0  0  0  0  0  0
  161.1030  207.7550  151.2890 C   0  0  0  0  0  3  0  0  0  0  0  0
  161.1390  207.2630  153.7520 C   0  0  0  0  0  0  0  0  0  0  0  0
  161.0830  204.9360  152.7700 C   0  0  0  0  0  3  0  0  0  0  0  0
  160.8940  202.6860  150.8900 N   0  0  0  0  0  0  0  0  0  0  0  0
  161.1390  203.9760  149.1010 N   0  0  0  0  0  2  0  0  0  0  0  0
  161.0630  202.7080  148.7320 N   0  0  0  0  0  0  0  0  0  0  0  0
  160.9170  201.9390  149.7990 N   0  0  0  0  0  0  0  0  0  0  0  0
  161.0320  203.9490  150.4440 C   0  0  0  0  0  0  0  0  0  0  0  0
  159.8790  207.5430  155.7900 N   0  0  0  0  0  2  0  0  0  0  0  0
  160.1250  206.9890  157.1100 C   0  0  0  0  0  1  0  0  0  0  0  0
  1 16  1  1  0  0  0
  1  7  1  0  0  0  0
  2  4  1  0  0  0  0
  3  1  1  0  0  0  0
  3  5  1  0  0  0  0
  4  6  1  6  0  0  0
  5  8  1  1  0  0  0
  5  2  1  0  0  0  0
  7  6  1  6  0  0  0
  7  4  1  0  0  0  0
  8  9  1  1  0  0  0
 10  8  1  1  0  0  0
 10 15  1  0  0  0  0
 11 14  1  0  0  0  0
 11 10  1  0  0  0  0
 12 11  2  0  0  0  0
 13 15  1  0  0  0  0
 14 13  1  0  0  0  0
 16 29  1  6  0  0  0
 17 22  1  0  0  0  0
 18 21  1  0  0  0  0
 18 19  2  0  0  0  0
 19 23  1  0  0  0  0
 20 22  2  0  0  0  0
 21 17  2  0  0  0  0
 22 16  1  0  0  0  0
 23 20  2  0  0  0  0
 25 28  1  0  0  0  0
 26 25  1  0  0  0  0
 26 27  2  0  0  0  0
 27 24  1  0  0  0  0
 28 24  2  0  0  0  0
 28 19  1  0  0  0  0
 29 30  1  0  0  0  0
M  END
>  <MODEL>
2

>  <REMARK>
 VINA RESULT:      -8.6      2.318      3.603
  Name = 
  6 active torsions:
  status: ('A' for Active; 'I' for Inactive)
    1  A    between atoms: C_2  and  C_24
    2  A    between atoms: C_3  and  C_15
    3  A    between atoms: C_7  and  C_30
    4  A    between atoms: N_8  and  C_15
    5  A    between atoms: C_15  and  C_16
    6  A    between atoms: C_22  and  C_24
                            x       y       z     vdW  Elec       q    Type
                         _______ _______ _______ _____ _____    ______ ____

>  <TORSDO>
F 6

$$$$
=
 OpenBabel11042420223D

 30 34  0  0  1  0  0  0  0  0999 V2000
  161.0750  207.8730  151.9340 C   0  0  1  0  0  3  0  0  0  0  0  0
  162.0130  210.6130  151.5480 O   0  0  0  0  0  0  0  0  0  0  0  0
  160.7950  209.0340  152.8720 C   0  0  0  0  0  2  0  0  0  0  0  0
  162.5660  209.6270  150.6760 C   0  0  2  0  0  3  0  0  0  0  0  0
  160.7320  210.2920  152.0400 C   0  0  1  0  0  3  0  0  0  0  0  0
  161.5950  208.9870  149.8800 O   0  0  0  0  0  0  0  0  0  0  0  0
  162.1710  208.1920  150.8990 C   0  0  2  0  0  3  0  0  0  0  0  0
  160.1250  211.4540  152.8330 C   0  0  2  0  0  3  0  0  0  0  0  0
  160.6140  211.2460  154.5750 S   0  0  0  0  0  1  0  0  0  0  0  0
  158.5910  211.5960  152.7160 C   0  0  2  0  0  3  0  0  0  0  0  0
  158.1610  212.9040  152.1450 C   0  0  0  0  0  0  0  0  0  0  0  0
  158.3700  213.2320  150.9890 O   0  0  0  0  0  0  0  0  0  0  0  0
  157.0250  212.7960  154.2100 C   0  0  0  0  0  2  0  0  0  0  0  0
  157.3360  213.7260  153.0540 C   0  0  0  0  0  2  0  0  0  0  0  0
  157.9680  211.6010  154.1090 C   0  0  0  0  0  2  0  0  0  0  0  0
  161.4140  206.6020  152.7230 C   0  0  2  0  0  3  0  0  0  0  0  0
  161.0440  204.0270  152.4380 C   0  0  0  0  0  3  0  0  0  0  0  0
  160.9250  202.6870  150.2210 C   0  0  0  0  0  3  0  0  0  0  0  0
  161.0970  203.5650  149.1950 C   0  0  0  0  0  0  0  0  0  0  0  0
  161.3270  205.4250  150.5950 C   0  0  0  0  0  0  0  0  0  0  0  0
  160.9000  202.8930  151.7120 C   0  0  0  0  0  3  0  0  0  0  0  0
  161.2680  205.3730  151.8780 C   0  0  0  0  0  0  0  0  0  0  0  0
  161.3130  205.0190  149.3770 C   0  0  0  0  0  3  0  0  0  0  0  0
  161.4060  203.7500  146.7240 N   0  0  0  0  0  0  0  0  0  0  0  0
  160.7010  201.7900  147.4890 N   0  0  0  0  0  2  0  0  0  0  0  0
  160.8190  201.7420  146.1720 N   0  0  0  0  0  0  0  0  0  0  0  0
  161.2390  202.9110  145.7160 N   0  0  0  0  0  0  0  0  0  0  0  0
  161.0690  203.0430  147.8190 C   0  0  0  0  0  0  0  0  0  0  0  0
  160.5600  206.4860  153.8980 N   0  0  0  0  0  2  0  0  0  0  0  0
  161.3060  207.0230  155.0230 C   0  0  0  0  0  1  0  0  0  0  0  0
  1 16  1  1  0  0  0
  1  3  1  0  0  0  0
  2  5  1  0  0  0  0
  4  6  1  6  0  0  0
  4  7  1  0  0  0  0
  4  2  1  0  0  0  0
  5  8  1  1  0  0  0
  5  3  1  0  0  0  0
  7  6  1  6  0  0  0
  7  1  1  0  0  0  0
  8  9  1  1  0  0  0
 10  8  1  1  0  0  0
 10 15  1  0  0  0  0
 11 10  1  0  0  0  0
 11 14  1  0  0  0  0
 12 11  2  0  0  0  0
 14 13  1  0  0  0  0
 15 13  1  0  0  0  0
 16 29  1  1  0  0  0
 18 21  1  0  0  0  0
 19 23  1  0  0  0  0
 19 18  2  0  0  0  0
 20 22  2  0  0  0  0
 21 17  2  0  0  0  0
 22 17  1  0  0  0  0
 22 16  1  0  0  0  0
 23 20  2  0  0  0  0
 24 28  2  0  0  0  0
 25 28  1  0  0  0  0
 26 25  1  0  0  0  0
 27 26  2  0  0  0  0
 27 24  1  0  0  0  0
 28 19  1  0  0  0  0
 29 30  1  0  0  0  0
M  END
>  <MODEL>
3

>  <REMARK>
 VINA RESULT:      -8.4      1.308      1.674
  Name = 
  6 active torsions:
  status: ('A' for Active; 'I' for Inactive)
    1  A    between atoms: C_2  and  C_24
    2  A    between atoms: C_3  and  C_15
    3  A    between atoms: C_7  and  C_30
    4  A    between atoms: N_8  and  C_15
    5  A    between atoms: C_15  and  C_16
    6  A    between atoms: C_22  and  C_24
                            x       y       z     vdW  Elec       q    Type
                         _______ _______ _______ _____ _____    ______ ____

>  <TORSDO>
F 6

$$$$
=
 OpenBabel11042420223D

 30 34  0  0  1  0  0  0  0  0999 V2000
  161.2890  209.1530  154.9700 C   0  0  1  0  0  3  0  0  0  0  0  0
  160.7520  211.7060  156.2850 O   0  0  0  0  0  0  0  0  0  0  0  0
  159.9630  209.8920  154.9370 C   0  0  0  0  0  2  0  0  0  0  0  0
  161.9870  211.0710  156.6180 C   0  0  2  0  0  3  0  0  0  0  0  0
  160.2590  211.3700  155.0080 C   0  0  1  0  0  3  0  0  0  0  0  0
  162.8360  210.8990  155.5080 O   0  0  0  0  0  0  0  0  0  0  0  0
  162.2600  209.7150  156.0260 C   0  0  2  0  0  3  0  0  0  0  0  0
  159.0260  212.2030  154.6420 C   0  0  2  0  0  3  0  0  0  0  0  0
  157.6720  211.6960  155.7500 S   0  0  0  0  0  1  0  0  0  0  0  0
  158.5820  212.1040  153.1660 C   0  0  2  0  0  3  0  0  0  0  0  0
  159.6950  212.3150  152.1980 C   0  0  0  0  0  0  0  0  0  0  0  0
  160.6250  211.5370  152.0650 O   0  0  0  0  0  0  0  0  0  0  0  0
  158.0930  213.9270  151.5660 C   0  0  0  0  0  2  0  0  0  0  0  0
  159.5190  213.4820  151.3090 C   0  0  0  0  0  2  0  0  0  0  0  0
  157.6170  213.2400  152.8420 C   0  0  0  0  0  2  0  0  0  0  0  0
  161.0720  207.6470  155.1670 C   0  0  2  0  0  3  0  0  0  0  0  0
  161.0880  205.4370  153.7650 C   0  0  0  0  0  3  0  0  0  0  0  0
  161.1960  205.2070  151.1850 C   0  0  0  0  0  3  0  0  0  0  0  0
  161.2510  206.4610  150.6580 C   0  0  0  0  0  0  0  0  0  0  0  0
  161.1860  207.5270  152.7390 C   0  0  0  0  0  0  0  0  0  0  0  0
  161.1210  204.7310  152.6110 C   0  0  0  0  0  3  0  0  0  0  0  0
  161.1180  206.9080  153.8630 C   0  0  0  0  0  0  0  0  0  0  0  0
  161.2480  207.7010  151.4680 C   0  0  0  0  0  3  0  0  0  0  0  0
  160.3840  206.1450  148.3370 N   0  0  0  0  0  0  0  0  0  0  0  0
  162.3260  207.2010  148.5330 N   0  0  0  0  0  2  0  0  0  0  0  0
  161.9930  207.1070  147.2550 N   0  0  0  0  0  0  0  0  0  0  0  0
  160.8350  206.4770  147.1390 N   0  0  0  0  0  0  0  0  0  0  0  0
  161.3180  206.6000  149.1940 C   0  0  0  0  0  0  0  0  0  0  0  0
  159.7930  207.3960  155.8200 N   0  0  0  0  0  2  0  0  0  0  0  0
  160.0840  206.9470  157.1700 C   0  0  0  0  0  1  0  0  0  0  0  0
  1 16  1  1  0  0  0
  1  7  1  0  0  0  0
  2  4  1  0  0  0  0
  3  1  1  0  0  0  0
  3  5  1  0  0  0  0
  4  6  1  6  0  0  0
  5  8  1  1  0  0  0
  5  2  1  0  0  0  0
  7  6  1  6  0  0  0
  7  4  1  0  0  0  0
  8  9  1  1  0  0  0
 10  8  1  1  0  0  0
 11 10  1  0  0  0  0
 12 11  2  0  0  0  0
 13 15  1  0  0  0  0
 14 13  1  0  0  0  0
 14 11  1  0  0  0  0
 15 10  1  0  0  0  0
 16 29  1  6  0  0  0
 17 22  1  0  0  0  0
 18 21  1  0  0  0  0
 19 18  2  0  0  0  0
 19 23  1  0  0  0  0
 20 22  2  0  0  0  0
 21 17  2  0  0  0  0
 22 16  1  0  0  0  0
 23 20  2  0  0  0  0
 24 28  2  0  0  0  0
 25 28  1  0  0  0  0
 26 25  1  0  0  0  0
 27 26  2  0  0  0  0
 27 24  1  0  0  0  0
 28 19  1  0  0  0  0
 29 30  1  0  0  0  0
M  END
>  <MODEL>
4

>  <REMARK>
 VINA RESULT:      -8.2      2.460      3.712
  Name = 
  6 active torsions:
  status: ('A' for Active; 'I' for Inactive)
    1  A    between atoms: C_2  and  C_24
    2  A    between atoms: C_3  and  C_15
    3  A    between atoms: C_7  and  C_30
    4  A    between atoms: N_8  and  C_15
    5  A    between atoms: C_15  and  C_16
    6  A    between atoms: C_22  and  C_24
                            x       y       z     vdW  Elec       q    Type
                         _______ _______ _______ _____ _____    ______ ____

>  <TORSDO>
F 6

$$$$
=
 OpenBabel11042420223D

 30 34  0  0  1  0  0  0  0  0999 V2000
  161.6670  207.2750  151.5280 C   0  0  1  0  0  3  0  0  0  0  0  0
  160.5690  207.8780  154.1680 O   0  0  0  0  0  0  0  0  0  0  0  0
  161.1130  208.6220  151.9590 C   0  0  0  0  0  2  0  0  0  0  0  0
  160.8310  206.5020  153.8920 C   0  0  2  0  0  3  0  0  0  0  0  0
  161.3740  208.7750  153.4370 C   0  0  1  0  0  3  0  0  0  0  0  0
  162.1900  206.2420  153.6230 O   0  0  0  0  0  0  0  0  0  0  0  0
  161.3170  206.1430  152.5130 C   0  0  2  0  0  3  0  0  0  0  0  0
  161.1640  210.2220  153.8930 C   0  0  2  0  0  3  0  0  0  0  0  0
  161.7860  210.3560  155.6000 S   0  0  0  0  0  1  0  0  0  0  0  0
  159.7080  210.7320  153.8070 C   0  0  2  0  0  3  0  0  0  0  0  0
  159.5910  212.0880  153.2020 C   0  0  0  0  0  0  0  0  0  0  0  0
  159.8380  212.3230  152.0310 O   0  0  0  0  0  0  0  0  0  0  0  0
  158.5290  212.3190  155.2950 C   0  0  0  0  0  2  0  0  0  0  0  0
  159.0200  213.1120  154.1000 C   0  0  0  0  0  2  0  0  0  0  0  0
  159.1480  210.9270  155.2130 C   0  0  0  0  0  2  0  0  0  0  0  0
  161.2120  206.9270  150.1050 C   0  0  2  0  0  3  0  0  0  0  0  0
  160.7290  204.5220  151.0190 C   0  0  0  0  0  3  0  0  0  0  0  0
  160.7100  202.3010  149.6810 C   0  0  0  0  0  3  0  0  0  0  0  0
  161.0080  202.5950  148.3850 C   0  0  0  0  0  0  0  0  0  0  0  0
  161.2270  204.8910  148.7730 C   0  0  0  0  0  0  0  0  0  0  0  0
  160.5810  203.1830  150.8950 C   0  0  0  0  0  3  0  0  0  0  0  0
  161.0660  205.4460  149.9200 C   0  0  0  0  0  0  0  0  0  0  0  0
  161.2860  203.9620  147.8880 C   0  0  0  0  0  3  0  0  0  0  0  0
  161.5730  200.2710  147.6660 N   0  0  0  0  0  0  0  0  0  0  0  0
  160.5930  201.5640  146.1530 N   0  0  0  0  0  2  0  0  0  0  0  0
  160.8320  200.3700  145.6350 N   0  0  0  0  0  0  0  0  0  0  0  0
  161.4170  199.5990  146.5380 N   0  0  0  0  0  0  0  0  0  0  0  0
  161.0580  201.4890  147.4150 C   0  0  0  0  0  0  0  0  0  0  0  0
  162.1580  207.4460  149.1250 N   0  0  0  0  0  2  0  0  0  0  0  0
  161.6000  208.6840  148.6070 C   0  0  0  0  0  1  0  0  0  0  0  0
  1 16  1  6  0  0  0
  1  3  1  0  0  0  0
  1  7  1  0  0  0  0
  3  5  1  0  0  0  0
  4  6  1  1  0  0  0
  4  2  1  0  0  0  0
  5  8  1  1  0  0  0
  5  2  1  0  0  0  0
  7  6  1  1  0  0  0
  7  4  1  0  0  0  0
  8  9  1  1  0  0  0
 10  8  1  1  0  0  0
 10 15  1  0  0  0  0
 11 10  1  0  0  0  0
 11 14  1  0  0  0  0
 12 11  2  0  0  0  0
 14 13  1  0  0  0  0
 15 13  1  0  0  0  0
 16 29  1  6  0  0  0
 18 21  1  0  0  0  0
 19 18  2  0  0  0  0
 20 22  2  0  0  0  0
 21 17  2  0  0  0  0
 22 16  1  0  0  0  0
 22 17  1  0  0  0  0
 23 19  1  0  0  0  0
 23 20  2  0  0  0  0
 25 28  1  0  0  0  0
 26 25  1  0  0  0  0
 26 27  2  0  0  0  0
 27 24  1  0  0  0  0
 28 24  2  0  0  0  0
 28 19  1  0  0  0  0
 30 29  1  0  0  0  0
M  END
>  <MODEL>
5

>  <REMARK>
 VINA RESULT:      -8.1      2.064      2.887
  Name = 
  6 active torsions:
  status: ('A' for Active; 'I' for Inactive)
    1  A    between atoms: C_2  and  C_24
    2  A    between atoms: C_3  and  C_15
    3  A    between atoms: C_7  and  C_30
    4  A    between atoms: N_8  and  C_15
    5  A    between atoms: C_15  and  C_16
    6  A    between atoms: C_22  and  C_24
                            x       y       z     vdW  Elec       q    Type
                         _______ _______ _______ _____ _____    ______ ____

>  <TORSDO>
F 6

$$$$
=
 OpenBabel11042420223D

 30 34  0  0  1  0  0  0  0  0999 V2000
  161.7900  206.9300  151.1000 C   0  0  1  0  0  3  0  0  0  0  0  0
  160.7930  206.7960  153.8430 O   0  0  0  0  0  0  0  0  0  0  0  0
  160.8520  207.9380  151.7400 C   0  0  0  0  0  2  0  0  0  0  0  0
  161.4820  205.6410  153.3650 C   0  0  2  0  0  3  0  0  0  0  0  0
  161.1760  207.9970  153.2130 C   0  0  1  0  0  3  0  0  0  0  0  0
  162.8190  205.9060  153.0040 O   0  0  0  0  0  0  0  0  0  0  0  0
  161.9370  205.6390  151.9300 C   0  0  2  0  0  3  0  0  0  0  0  0
  160.5270  209.2160  153.8770 C   0  0  2  0  0  3  0  0  0  0  0  0
  160.5040  210.5630  152.6510 S   0  0  0  0  0  1  0  0  0  0  0  0
  161.2020  209.6870  155.1840 C   0  0  2  0  0  3  0  0  0  0  0  0
  160.4780  209.2540  156.4130 C   0  0  0  0  0  0  0  0  0  0  0  0
  160.3960  208.0910  156.7680 O   0  0  0  0  0  0  0  0  0  0  0  0
  160.6060  211.5990  156.6370 C   0  0  0  0  0  2  0  0  0  0  0  0
  159.9750  210.3640  157.2480 C   0  0  0  0  0  2  0  0  0  0  0  0
  161.1540  211.2100  155.2670 C   0  0  0  0  0  2  0  0  0  0  0  0
  161.3570  206.6140  149.6630 C   0  0  2  0  0  3  0  0  0  0  0  0
  160.6730  204.2470  150.5450 C   0  0  0  0  0  3  0  0  0  0  0  0
  160.5770  202.0310  149.2030 C   0  0  0  0  0  3  0  0  0  0  0  0
  160.9570  202.3030  147.9240 C   0  0  0  0  0  0  0  0  0  0  0  0
  161.3060  204.5810  148.3280 C   0  0  0  0  0  0  0  0  0  0  0  0
  160.4460  202.9200  150.4110 C   0  0  0  0  0  3  0  0  0  0  0  0
  161.1240  205.1460  149.4670 C   0  0  0  0  0  0  0  0  0  0  0  0
  161.3480  203.6490  147.4450 C   0  0  0  0  0  3  0  0  0  0  0  0
  161.5410  199.9920  147.1810 N   0  0  0  0  0  0  0  0  0  0  0  0
  160.4520  201.2550  145.7180 N   0  0  0  0  0  2  0  0  0  0  0  0
  160.6930  200.0660  145.1910 N   0  0  0  0  0  0  0  0  0  0  0  0
  161.3420  199.3130  146.0640 N   0  0  0  0  0  0  0  0  0  0  0  0
  160.9840  201.1960  146.9540 C   0  0  0  0  0  0  0  0  0  0  0  0
  162.3610  207.0760  148.7130 N   0  0  0  0  0  2  0  0  0  0  0  0
  162.0540  208.4630  148.4090 C   0  0  0  0  0  1  0  0  0  0  0  0
  1 16  1  6  0  0  0
  1  3  1  0  0  0  0
  1  7  1  0  0  0  0
  3  5  1  0  0  0  0
  4  6  1  1  0  0  0
  4  2  1  0  0  0  0
  5  2  1  0  0  0  0
  5  8  1  1  0  0  0
  7  6  1  1  0  0  0
  7  4  1  0  0  0  0
  8  9  1  6  0  0  0
 10  8  1  6  0  0  0
 10 15  1  0  0  0  0
 10 11  1  0  0  0  0
 11 12  2  0  0  0  0
 11 14  1  0  0  0  0
 13 14  1  0  0  0  0
 15 13  1  0  0  0  0
 16 29  1  6  0  0  0
 18 21  1  0  0  0  0
 19 18  2  0  0  0  0
 20 22  2  0  0  0  0
 21 17  2  0  0  0  0
 22 16  1  0  0  0  0
 22 17  1  0  0  0  0
 23 19  1  0  0  0  0
 23 20  2  0  0  0  0
 25 28  1  0  0  0  0
 26 25  1  0  0  0  0
 26 27  2  0  0  0  0
 27 24  1  0  0  0  0
 28 24  2  0  0  0  0
 28 19  1  0  0  0  0
 30 29  1  0  0  0  0
M  END
>  <MODEL>
6

>  <REMARK>
 VINA RESULT:      -7.8      2.467      3.190
  Name = 
  6 active torsions:
  status: ('A' for Active; 'I' for Inactive)
    1  A    between atoms: C_2  and  C_24
    2  A    between atoms: C_3  and  C_15
    3  A    between atoms: C_7  and  C_30
    4  A    between atoms: N_8  and  C_15
    5  A    between atoms: C_15  and  C_16
    6  A    between atoms: C_22  and  C_24
                            x       y       z     vdW  Elec       q    Type
                         _______ _______ _______ _____ _____    ______ ____

>  <TORSDO>
F 6

$$$$
=
 OpenBabel11042420223D

 30 34  0  0  1  0  0  0  0  0999 V2000
  161.0960  208.1350  151.7310 C   0  0  1  0  0  3  0  0  0  0  0  0
  161.8490  210.7370  152.8260 O   0  0  0  0  0  0  0  0  0  0  0  0
  160.5890  208.7130  153.0410 C   0  0  0  0  0  2  0  0  0  0  0  0
  162.6010  210.2840  151.7000 C   0  0  2  0  0  3  0  0  0  0  0  0
  160.5410  210.2150  152.8930 C   0  0  1  0  0  3  0  0  0  0  0  0
  161.8110  210.0910  150.5490 O   0  0  0  0  0  0  0  0  0  0  0  0
  162.2990  208.9120  151.1610 C   0  0  2  0  0  3  0  0  0  0  0  0
  159.7320  210.8600  154.0220 C   0  0  2  0  0  3  0  0  0  0  0  0
  159.7690  209.7230  155.4440 S   0  0  0  0  0  1  0  0  0  0  0  0
  158.2760  211.2250  153.6590 C   0  0  2  0  0  3  0  0  0  0  0  0
  158.1300  212.6010  153.1060 C   0  0  0  0  0  0  0  0  0  0  0  0
  158.5800  212.9390  152.0240 O   0  0  0  0  0  0  0  0  0  0  0  0
  156.6490  212.5790  154.9420 C   0  0  0  0  0  2  0  0  0  0  0  0
  157.2780  213.4980  153.9130 C   0  0  0  0  0  2  0  0  0  0  0  0
  157.4260  211.2660  154.9260 C   0  0  0  0  0  2  0  0  0  0  0  0
  161.4230  206.6440  151.8820 C   0  0  2  0  0  3  0  0  0  0  0  0
  161.4120  206.6330  149.2640 C   0  0  0  0  0  3  0  0  0  0  0  0
  161.3020  204.5710  147.6970 C   0  0  0  0  0  3  0  0  0  0  0  0
  161.2420  203.4580  148.4790 C   0  0  0  0  0  0  0  0  0  0  0  0
  161.3060  204.6530  150.4880 C   0  0  0  0  0  0  0  0  0  0  0  0
  161.3790  206.0320  148.0530 C   0  0  0  0  0  3  0  0  0  0  0  0
  161.3770  205.9340  150.5620 C   0  0  0  0  0  0  0  0  0  0  0  0
  161.2420  203.4840  149.9600 C   0  0  0  0  0  3  0  0  0  0  0  0
  161.4500  200.9690  148.4140 N   0  0  0  0  0  0  0  0  0  0  0  0
  160.8230  201.9590  146.5300 N   0  0  0  0  0  2  0  0  0  0  0  0
  160.8900  200.6500  146.3480 N   0  0  0  0  0  0  0  0  0  0  0  0
  161.2640  200.0610  147.4720 N   0  0  0  0  0  0  0  0  0  0  0  0
  161.1730  202.1440  147.8170 C   0  0  0  0  0  0  0  0  0  0  0  0
  160.4950  206.0080  152.8070 N   0  0  0  0  0  2  0  0  0  0  0  0
  161.2610  205.6070  153.9740 C   0  0  0  0  0  1  0  0  0  0  0  0
  1 16  1  1  0  0  0
  1  3  1  0  0  0  0
  2  5  1  0  0  0  0
  4  6  1  6  0  0  0
  4  2  1  0  0  0  0
  5  3  1  0  0  0  0
  5  8  1  1  0  0  0
  7  6  1  6  0  0  0
  7  4  1  0  0  0  0
  7  1  1  0  0  0  0
  8  9  1  1  0  0  0
 10  8  1  1  0  0  0
 10 15  1  0  0  0  0
 11 10  1  0  0  0  0
 11 14  1  0  0  0  0
 12 11  2  0  0  0  0
 14 13  1  0  0  0  0
 15 13  1  0  0  0  0
 16 29  1  1  0  0  0
 17 22  1  0  0  0  0
 18 21  1  0  0  0  0
 18 19  2  0  0  0  0
 19 23  1  0  0  0  0
 20 22  2  0  0  0  0
 21 17  2  0  0  0  0
 22 16  1  0  0  0  0
 23 20  2  0  0  0  0
 25 28  1  0  0  0  0
 26 25  1  0  0  0  0
 26 27  2  0  0  0  0
 27 24  1  0  0  0  0
 28 24  2  0  0  0  0
 28 19  1  0  0  0  0
 29 30  1  0  0  0  0
M  END
>  <MODEL>
7

>  <REMARK>
 VINA RESULT:      -7.7      1.606      2.215
  Name = 
  6 active torsions:
  status: ('A' for Active; 'I' for Inactive)
    1  A    between atoms: C_2  and  C_24
    2  A    between atoms: C_3  and  C_15
    3  A    between atoms: C_7  and  C_30
    4  A    between atoms: N_8  and  C_15
    5  A    between atoms: C_15  and  C_16
    6  A    between atoms: C_22  and  C_24
                            x       y       z     vdW  Elec       q    Type
                         _______ _______ _______ _____ _____    ______ ____

>  <TORSDO>
F 6

$$$$
=
 OpenBabel11042420223D

 30 34  0  0  1  0  0  0  0  0999 V2000
  160.9520  205.7430  151.4250 C   0  0  1  0  0  3  0  0  0  0  0  0
  161.6030  203.0790  150.4170 O   0  0  0  0  0  0  0  0  0  0  0  0
  161.1820  205.3920  149.9650 C   0  0  0  0  0  2  0  0  0  0  0  0
  161.6440  203.2460  151.8340 C   0  0  2  0  0  3  0  0  0  0  0  0
  160.7280  203.9670  149.7590 C   0  0  1  0  0  3  0  0  0  0  0  0
  160.4010  203.6190  152.3830 O   0  0  0  0  0  0  0  0  0  0  0  0
  161.3980  204.6240  152.3860 C   0  0  2  0  0  3  0  0  0  0  0  0
  160.6020  203.6340  148.2690 C   0  0  2  0  0  3  0  0  0  0  0  0
  160.8970  201.8470  148.0780 S   0  0  0  0  0  1  0  0  0  0  0  0
  161.5330  204.4390  147.3360 C   0  0  2  0  0  3  0  0  0  0  0  0
  160.8580  205.5940  146.6780 C   0  0  0  0  0  0  0  0  0  0  0  0
  160.4690  206.5770  147.2860 O   0  0  0  0  0  0  0  0  0  0  0  0
  161.7160  204.3460  144.8690 C   0  0  0  0  0  2  0  0  0  0  0  0
  160.8150  205.5190  145.2040 C   0  0  0  0  0  2  0  0  0  0  0  0
  161.9580  203.5660  146.1580 C   0  0  0  0  0  2  0  0  0  0  0  0
  161.6250  207.0750  151.7800 C   0  0  2  0  0  3  0  0  0  0  0  0
  160.8340  206.8150  154.2610 C   0  0  0  0  0  3  0  0  0  0  0  0
  159.9860  208.6800  155.8500 C   0  0  0  0  0  3  0  0  0  0  0  0
  160.0130  209.8550  155.1620 C   0  0  0  0  0  0  0  0  0  0  0  0
  160.8320  208.8870  153.1970 C   0  0  0  0  0  0  0  0  0  0  0  0
  160.3610  207.2810  155.4400 C   0  0  0  0  0  3  0  0  0  0  0  0
  161.0930  207.6360  153.0640 C   0  0  0  0  0  0  0  0  0  0  0  0
  160.4570  209.9810  153.7550 C   0  0  0  0  0  3  0  0  0  0  0  0
  160.3480  212.1600  156.0640 N   0  0  0  0  0  0  0  0  0  0  0  0
  158.3410  211.2620  156.3640 N   0  0  0  0  0  2  0  0  0  0  0  0
  158.3720  212.4760  156.8900 N   0  0  0  0  0  0  0  0  0  0  0  0
  159.5690  213.0110  156.7100 N   0  0  0  0  0  0  0  0  0  0  0  0
  159.5740  211.0780  155.8550 C   0  0  0  0  0  0  0  0  0  0  0  0
  161.4320  208.0460  150.7100 N   0  0  0  0  0  2  0  0  0  0  0  0
  162.7060  208.1890  150.0280 C   0  0  0  0  0  1  0  0  0  0  0  0
  1 16  1  1  0  0  0
  1  7  1  0  0  0  0
  3  1  1  0  0  0  0
  4  2  1  6  0  0  0
  4  6  1  0  0  0  0
  4  7  1  0  0  0  0
  5  8  1  6  0  0  0
  5  3  1  0  0  0  0
  5  2  1  0  0  0  0
  7  6  1  1  0  0  0
  8  9  1  1  0  0  0
 10  8  1  1  0  0  0
 11 12  2  0  0  0  0
 11 10  1  0  0  0  0
 13 14  1  0  0  0  0
 13 15  1  0  0  0  0
 14 11  1  0  0  0  0
 15 10  1  0  0  0  0
 16 29  1  6  0  0  0
 16 22  1  0  0  0  0
 17 21  2  0  0  0  0
 19 18  2  0  0  0  0
 19 28  1  0  0  0  0
 20 23  2  0  0  0  0
 21 18  1  0  0  0  0
 22 20  2  0  0  0  0
 22 17  1  0  0  0  0
 23 19  1  0  0  0  0
 24 27  1  0  0  0  0
 25 26  1  0  0  0  0
 27 26  2  0  0  0  0
 28 24  2  0  0  0  0
 28 25  1  0  0  0  0
 30 29  1  0  0  0  0
M  END
>  <MODEL>
8

>  <REMARK>
 VINA RESULT:      -7.7      4.164      9.143
  Name = 
  6 active torsions:
  status: ('A' for Active; 'I' for Inactive)
    1  A    between atoms: C_2  and  C_24
    2  A    between atoms: C_3  and  C_15
    3  A    between atoms: C_7  and  C_30
    4  A    between atoms: N_8  and  C_15
    5  A    between atoms: C_15  and  C_16
    6  A    between atoms: C_22  and  C_24
                            x       y       z     vdW  Elec       q    Type
                         _______ _______ _______ _____ _____    ______ ____

>  <TORSDO>
F 6

$$$$
=
 OpenBabel11042420223D

 30 34  0  0  1  0  0  0  0  0999 V2000
  161.7780  207.2450  151.5890 C   0  0  1  0  0  3  0  0  0  0  0  0
  160.8260  206.0320  154.0720 O   0  0  0  0  0  0  0  0  0  0  0  0
  161.1200  207.9960  152.7340 C   0  0  0  0  0  2  0  0  0  0  0  0
  161.2100  205.1300  153.0340 C   0  0  2  0  0  3  0  0  0  0  0  0
  161.4750  207.2820  154.0160 C   0  0  1  0  0  3  0  0  0  0  0  0
  162.5640  205.2560  152.6650 O   0  0  0  0  0  0  0  0  0  0  0  0
  161.6250  205.7170  151.7120 C   0  0  2  0  0  3  0  0  0  0  0  0
  161.1490  208.1420  155.2410 C   0  0  2  0  0  3  0  0  0  0  0  0
  159.7880  207.3290  156.1370 S   0  0  0  0  0  1  0  0  0  0  0  0
  160.7910  209.6130  154.9330 C   0  0  2  0  0  3  0  0  0  0  0  0
  161.6920  210.5940  155.6020 C   0  0  0  0  0  0  0  0  0  0  0  0
  162.8700  210.7260  155.3160 O   0  0  0  0  0  0  0  0  0  0  0  0
  159.5380  211.2300  156.3260 C   0  0  0  0  0  2  0  0  0  0  0  0
  161.0130  211.4950  156.5560 C   0  0  0  0  0  2  0  0  0  0  0  0
  159.4210  209.9410  155.5180 C   0  0  0  0  0  2  0  0  0  0  0  0
  161.2560  207.7450  150.2360 C   0  0  2  0  0  3  0  0  0  0  0  0
  162.1690  207.0480  147.8840 C   0  0  0  0  0  3  0  0  0  0  0  0
  162.0460  204.7090  146.7750 C   0  0  0  0  0  3  0  0  0  0  0  0
  161.4040  203.8730  147.6370 C   0  0  0  0  0  0  0  0  0  0  0  0
  161.0850  205.5190  149.2680 C   0  0  0  0  0  0  0  0  0  0  0  0
  162.4000  206.1680  146.8830 C   0  0  0  0  0  3  0  0  0  0  0  0
  161.4820  206.7350  149.1520 C   0  0  0  0  0  0  0  0  0  0  0  0
  160.8870  204.2880  148.9620 C   0  0  0  0  0  3  0  0  0  0  0  0
  160.8410  202.0730  146.0000 N   0  0  0  0  0  0  0  0  0  0  0  0
  161.3710  201.4140  148.0510 N   0  0  0  0  0  0  0  0  0  0  0  0
  161.0990  200.3610  147.2990 N   0  0  0  0  0  0  0  0  0  0  0  0
  160.7830  200.7540  146.0750 N   0  0  0  0  0  2  0  0  0  0  0  0
  161.2070  202.4710  147.2330 C   0  0  0  0  0  0  0  0  0  0  0  0
  161.9000  209.0000  149.8720 N   0  0  0  0  0  2  0  0  0  0  0  0
  161.9630  209.8130  151.0740 C   0  0  0  0  0  1  0  0  0  0  0  0
  1 16  1  6  0  0  0
  1  7  1  0  0  0  0
  1  3  1  0  0  0  0
  3  5  1  0  0  0  0
  4  6  1  1  0  0  0
  4  2  1  0  0  0  0
  5  2  1  0  0  0  0
  5  8  1  1  0  0  0
  7  6  1  1  0  0  0
  7  4  1  0  0  0  0
  8  9  1  6  0  0  0
 10  8  1  1  0  0  0
 10 15  1  0  0  0  0
 10 11  1  0  0  0  0
 11 14  1  0  0  0  0
 12 11  2  0  0  0  0
 13 14  1  0  0  0  0
 15 13  1  0  0  0  0
 16 29  1  6  0  0  0
 17 22  1  0  0  0  0
 18 21  1  0  0  0  0
 18 19  2  0  0  0  0
 19 23  1  0  0  0  0
 21 17  2  0  0  0  0
 22 20  2  0  0  0  0
 22 16  1  0  0  0  0
 23 20  2  0  0  0  0
 24 27  1  0  0  0  0
 24 28  2  0  0  0  0
 26 25  2  0  0  0  0
 27 26  1  0  0  0  0
 28 19  1  0  0  0  0
 28 25  1  0  0  0  0
 29 30  1  0  0  0  0
M  END
>  <MODEL>
9

>  <REMARK>
 VINA RESULT:      -7.4      2.598      3.731
  Name = 
  6 active torsions:
  status: ('A' for Active; 'I' for Inactive)
    1  A    between atoms: C_2  and  C_24
    2  A    between atoms: C_3  and  C_15
    3  A    between atoms: C_7  and  C_30
    4  A    between atoms: N_8  and  C_15
    5  A    between atoms: C_15  and  C_16
    6  A    between atoms: C_22  and  C_24
                            x       y       z     vdW  Elec       q    Type
                         _______ _______ _______ _____ _____    ______ ____

>  <TORSDO>
F 6

$$$$
