=
 OpenBabel11042420133D

 25 28  0  0  1  0  0  0  0  0999 V2000
  162.5220  207.9130  149.9580 C   0  0  2  0  0  3  0  0  0  0  0  0
  161.9650  208.9640  149.0190 C   0  0  0  0  0  2  0  0  0  0  0  0
  161.1610  207.7170  149.3160 C   0  0  1  0  0  3  0  0  0  0  0  0
  162.0760  207.2160  152.2200 C   0  0  0  0  0  3  0  0  0  0  0  0
  160.2230  211.8270  154.5630 C   0  0  0  0  0  2  0  0  0  0  0  0
  160.8110  209.4150  154.1330 C   0  0  0  0  0  0  0  0  0  0  0  0
  159.1410  211.5770  153.5160 C   0  0  0  0  0  2  0  0  0  0  0  0
  160.8080  208.2130  154.7740 C   0  0  0  0  0  3  0  0  0  0  0  0
  160.7490  210.5440  155.0180 N   0  0  0  0  0  2  0  0  0  0  0  0
  161.1580  209.1680  151.5000 O   0  0  0  0  0  0  0  0  0  0  0  0
  159.7380  210.7590  152.4100 C   0  0  0  0  0  3  0  0  0  0  0  0
  160.5490  209.7230  152.6590 C   0  0  0  0  0  0  0  0  0  0  0  0
  162.3350  208.3540  151.3990 C   0  0  2  0  0  3  0  0  0  0  0  0
  161.5180  206.7200  153.1330 C   0  0  0  0  0  3  0  0  0  0  0  0
  160.6590  206.7970  154.2710 C   0  0  0  0  0  2  0  0  0  0  0  0
  161.4230  203.1230  147.4430 C   0  0  0  0  0  2  0  0  0  0  0  0
  161.2210  205.3610  148.4070 C   0  0  0  0  0  0  0  0  0  0  0  0
  161.4300  204.5850  147.3820 N   0  0  0  0  0  0  0  0  0  0  0  0
  161.2930  206.7740  148.2190 N   0  0  0  0  0  2  0  0  0  0  0  0
  160.4950  202.6210  148.5480 C   0  0  2  0  0  3  0  0  0  0  0  0
  160.9550  203.2860  149.8390 C   0  0  0  0  0  2  0  0  0  0  0  0
  160.7870  204.8000  149.7420 C   0  0  0  0  0  2  0  0  0  0  0  0
  161.4880  200.5160  147.6120 C   0  0  0  0  0  1  0  0  0  0  0  0
  161.1040  200.6830  150.0390 C   0  0  0  0  0  1  0  0  0  0  0  0
  160.5710  201.0970  148.6770 C   0  0  0  0  0  3  0  0  0  0  0  0
  1  2  1  6  0  0  0
  1 13  1  0  0  0  0
  2  3  1  0  0  0  0
  3 19  1  6  0  0  0
  3  1  1  0  0  0  0
  4 14  2  0  0  0  0
  5  9  1  0  0  0  0
  6  8  2  0  0  0  0
  6  9  1  0  0  0  0
  7  5  1  0  0  0  0
 10 12  1  0  0  0  0
 11 12  2  0  0  0  0
 11  7  1  0  0  0  0
 12  6  1  0  0  0  0
 13 10  1  0  0  0  0
 13  4  1  1  0  0  0
 14 15  1  0  0  0  0
 15  8  1  0  0  0  0
 16 20  1  0  0  0  0
 17 22  1  0  0  0  0
 18 16  1  0  0  0  0
 18 17  2  0  0  0  0
 19 17  1  0  0  0  0
 20 25  1  1  0  0  0
 20 21  1  0  0  0  0
 22 21  1  0  0  0  0
 23 25  1  0  0  0  0
 25 24  1  0  0  0  0
M  END
>  <MODEL>
1

>  <REMARK>
 VINA RESULT:      -9.1      0.000      0.000
  Name = 
  3 active torsions:
  status: ('A' for Active; 'I' for Inactive)
    1  A    between atoms: C_3  and  C_19
    2  A    between atoms: C_12  and  N_21
    3  A    between atoms: C_18  and  C_23
                            x       y       z     vdW  Elec       q    Type
                         _______ _______ _______ _____ _____    ______ ____

>  <TORSDO>
F 3

$$$$
=
 OpenBabel11042420133D

 25 28  0  0  1  0  0  0  0  0999 V2000
  161.4630  207.1780  148.4130 C   0  0  2  0  0  3  0  0  0  0  0  0
  162.6960  208.0420  148.2440 C   0  0  0  0  0  2  0  0  0  0  0  0
  162.3150  207.5350  149.6180 C   0  0  1  0  0  3  0  0  0  0  0  0
  161.5220  205.6000  146.5950 C   0  0  0  0  0  3  0  0  0  0  0  0
  161.3360  200.7600  149.1900 C   0  0  0  0  0  2  0  0  0  0  0  0
  161.2920  202.5350  147.4010 C   0  0  0  0  0  0  0  0  0  0  0  0
  159.9820  201.3500  149.5740 C   0  0  0  0  0  2  0  0  0  0  0  0
  161.2250  202.6440  146.0450 C   0  0  0  0  0  3  0  0  0  0  0  0
  161.7000  201.2370  147.8580 N   0  0  0  0  0  2  0  0  0  0  0  0
  160.8510  204.8570  148.6370 O   0  0  0  0  0  0  0  0  0  0  0  0
  160.0790  202.8440  149.4890 C   0  0  0  0  0  3  0  0  0  0  0  0
  160.7040  203.4520  148.4740 C   0  0  0  0  0  0  0  0  0  0  0  0
  161.7680  205.7520  147.9920 C   0  0  2  0  0  3  0  0  0  0  0  0
  161.1480  204.9440  145.6880 C   0  0  0  0  0  3  0  0  0  0  0  0
  160.6650  203.7170  145.1420 C   0  0  0  0  0  2  0  0  0  0  0  0
  160.1310  209.3690  153.6860 C   0  0  0  0  0  2  0  0  0  0  0  0
  161.2730  208.4420  151.7330 C   0  0  0  0  0  0  0  0  0  0  0  0
  160.6100  209.4060  152.3030 N   0  0  0  0  0  0  0  0  0  0  0  0
  161.6500  208.5890  150.3640 N   0  0  0  0  0  2  0  0  0  0  0  0
  161.0350  208.5020  154.5610 C   0  0  2  0  0  3  0  0  0  0  0  0
  161.1010  207.1320  153.8970 C   0  0  0  0  0  2  0  0  0  0  0  0
  161.7500  207.2430  152.5200 C   0  0  0  0  0  2  0  0  0  0  0  0
  159.6940  207.0850  156.1370 C   0  0  0  0  0  1  0  0  0  0  0  0
  161.5830  208.3980  157.0170 C   0  0  0  0  0  1  0  0  0  0  0  0
  160.4720  208.3810  155.9790 C   0  0  0  0  0  3  0  0  0  0  0  0
  1  2  1  6  0  0  0
  1  3  1  0  0  0  0
  2  3  1  0  0  0  0
  3 19  1  1  0  0  0
  5  7  1  0  0  0  0
  6  9  1  0  0  0  0
  6 12  1  0  0  0  0
  8  6  2  0  0  0  0
  9  5  1  0  0  0  0
 11  7  1  0  0  0  0
 12 10  1  0  0  0  0
 12 11  2  0  0  0  0
 13  4  1  6  0  0  0
 13  1  1  0  0  0  0
 13 10  1  0  0  0  0
 14  4  2  0  0  0  0
 15 14  1  0  0  0  0
 15  8  1  0  0  0  0
 16 20  1  0  0  0  0
 17 18  2  0  0  0  0
 17 22  1  0  0  0  0
 18 16  1  0  0  0  0
 19 17  1  0  0  0  0
 20 25  1  1  0  0  0
 21 20  1  0  0  0  0
 22 21  1  0  0  0  0
 25 23  1  0  0  0  0
 25 24  1  0  0  0  0
M  END
>  <MODEL>
2

>  <REMARK>
 VINA RESULT:      -9.1      1.961      7.968
  Name = 
  3 active torsions:
  status: ('A' for Active; 'I' for Inactive)
    1  A    between atoms: C_3  and  C_19
    2  A    between atoms: C_12  and  N_21
    3  A    between atoms: C_18  and  C_23
                            x       y       z     vdW  Elec       q    Type
                         _______ _______ _______ _____ _____    ______ ____

>  <TORSDO>
F 3

$$$$
=
 OpenBabel11042420133D

 25 28  0  0  1  0  0  0  0  0999 V2000
  161.5530  203.7800  150.5870 C   0  0  2  0  0  3  0  0  0  0  0  0
  161.0830  202.6180  151.4380 C   0  0  0  0  0  2  0  0  0  0  0  0
  160.3880  203.9580  151.5430 C   0  0  1  0  0  3  0  0  0  0  0  0
  160.9140  202.2520  148.8390 C   0  0  0  0  0  3  0  0  0  0  0  0
  161.2370  205.3740  144.3290 C   0  0  0  0  0  2  0  0  0  0  0  0
  161.0290  203.3960  145.8760 C   0  0  0  0  0  0  0  0  0  0  0  0
  162.6940  205.3650  144.7820 C   0  0  0  0  0  2  0  0  0  0  0  0
  160.7840  202.0570  145.8260 C   0  0  0  0  0  3  0  0  0  0  0  0
  160.6170  204.1050  144.6980 N   0  0  0  0  0  2  0  0  0  0  0  0
  161.9730  204.1750  148.2460 O   0  0  0  0  0  0  0  0  0  0  0  0
  162.7250  205.1010  146.2580 C   0  0  0  0  0  3  0  0  0  0  0  0
  161.9400  204.1770  146.8250 C   0  0  0  0  0  0  0  0  0  0  0  0
  161.0210  203.6350  149.1730 C   0  0  2  0  0  3  0  0  0  0  0  0
  160.9980  201.3820  148.0450 C   0  0  0  0  0  3  0  0  0  0  0  0
  161.2160  200.9150  146.7140 C   0  0  0  0  0  2  0  0  0  0  0  0
  161.8710  208.0400  153.9550 C   0  0  0  0  0  2  0  0  0  0  0  0
  161.0700  206.0750  152.7410 C   0  0  0  0  0  0  0  0  0  0  0  0
  161.5670  206.6150  153.8160 N   0  0  0  0  0  0  0  0  0  0  0  0
  160.8560  204.6630  152.7230 N   0  0  0  0  0  2  0  0  0  0  0  0
  160.9470  208.8900  153.0840 C   0  0  2  0  0  3  0  0  0  0  0  0
  161.0890  208.3680  151.6600 C   0  0  0  0  0  2  0  0  0  0  0  0
  160.6090  206.9210  151.5770 C   0  0  0  0  0  2  0  0  0  0  0  0
  160.2690  211.2330  152.5000 C   0  0  0  0  0  1  0  0  0  0  0  0
  161.5070  210.8290  154.5900 C   0  0  0  0  0  1  0  0  0  0  0  0
  161.3360  210.3690  153.1520 C   0  0  0  0  0  3  0  0  0  0  0  0
  1  2  1  1  0  0  0
  1  3  1  0  0  0  0
  2  3  1  0  0  0  0
  3 19  1  1  0  0  0
  5  9  1  0  0  0  0
  5  7  1  0  0  0  0
  6 12  1  0  0  0  0
  7 11  1  0  0  0  0
  8  6  2  0  0  0  0
  8 15  1  0  0  0  0
  9  6  1  0  0  0  0
 10 13  1  0  0  0  0
 11 12  2  0  0  0  0
 12 10  1  0  0  0  0
 13  4  1  6  0  0  0
 13  1  1  0  0  0  0
 14  4  2  0  0  0  0
 15 14  1  0  0  0  0
 17 18  2  0  0  0  0
 18 16  1  0  0  0  0
 19 17  1  0  0  0  0
 20 25  1  6  0  0  0
 20 16  1  0  0  0  0
 21 20  1  0  0  0  0
 22 21  1  0  0  0  0
 22 17  1  0  0  0  0
 23 25  1  0  0  0  0
 25 24  1  0  0  0  0
M  END
>  <MODEL>
3

>  <REMARK>
 VINA RESULT:      -9.0      2.479      8.365
  Name = 
  3 active torsions:
  status: ('A' for Active; 'I' for Inactive)
    1  A    between atoms: C_3  and  C_19
    2  A    between atoms: C_12  and  N_21
    3  A    between atoms: C_18  and  C_23
                            x       y       z     vdW  Elec       q    Type
                         _______ _______ _______ _____ _____    ______ ____

>  <TORSDO>
F 3

$$$$
=
 OpenBabel11042420133D

 25 28  0  0  1  0  0  0  0  0999 V2000
  160.8880  207.9860  149.7010 C   0  0  2  0  0  3  0  0  0  0  0  0
  162.1040  208.5950  149.0330 C   0  0  0  0  0  2  0  0  0  0  0  0
  162.2330  207.9650  150.4030 C   0  0  1  0  0  3  0  0  0  0  0  0
  160.6180  205.6360  150.1570 C   0  0  0  0  0  3  0  0  0  0  0  0
  161.5730  203.3370  145.2590 C   0  0  0  0  0  2  0  0  0  0  0  0
  161.1870  203.6690  147.7270 C   0  0  0  0  0  0  0  0  0  0  0  0
  162.9310  203.9660  145.5560 C   0  0  0  0  0  2  0  0  0  0  0  0
  161.0100  202.9350  148.8610 C   0  0  0  0  0  3  0  0  0  0  0  0
  160.9520  202.9330  146.5180 N   0  0  0  0  0  2  0  0  0  0  0  0
  161.6820  206.2400  148.2400 O   0  0  0  0  0  0  0  0  0  0  0  0
  162.7220  205.1100  146.5040 C   0  0  0  0  0  3  0  0  0  0  0  0
  161.8910  205.0150  147.5480 C   0  0  0  0  0  0  0  0  0  0  0  0
  160.6100  206.6130  149.1170 C   0  0  2  0  0  3  0  0  0  0  0  0
  160.8720  204.5480  150.5360 C   0  0  0  0  0  3  0  0  0  0  0  0
  161.3320  203.2150  150.3090 C   0  0  0  0  0  2  0  0  0  0  0  0
  161.2600  209.7000  154.9550 C   0  0  0  0  0  2  0  0  0  0  0  0
  161.7780  208.7760  152.7520 C   0  0  0  0  0  0  0  0  0  0  0  0
  161.7490  209.7820  153.5780 N   0  0  0  0  0  0  0  0  0  0  0  0
  162.2460  209.0010  151.4210 N   0  0  0  0  0  2  0  0  0  0  0  0
  161.4630  208.2990  155.5310 C   0  0  2  0  0  3  0  0  0  0  0  0
  160.7760  207.3310  154.5770 C   0  0  0  0  0  2  0  0  0  0  0  0
  161.4470  207.3740  153.2070 C   0  0  0  0  0  2  0  0  0  0  0  0
  160.0410  209.4310  157.2610 C   0  0  0  0  0  1  0  0  0  0  0  0
  159.9420  206.9800  157.0450 C   0  0  0  0  0  1  0  0  0  0  0  0
  160.8550  208.1890  156.9320 C   0  0  0  0  0  3  0  0  0  0  0  0
  1  2  1  6  0  0  0
  1  3  1  0  0  0  0
  2  3  1  0  0  0  0
  3 19  1  1  0  0  0
  4 14  2  0  0  0  0
  5  7  1  0  0  0  0
  5  9  1  0  0  0  0
  6  8  2  0  0  0  0
  7 11  1  0  0  0  0
  8 15  1  0  0  0  0
  9  6  1  0  0  0  0
 10 13  1  0  0  0  0
 11 12  2  0  0  0  0
 12  6  1  0  0  0  0
 12 10  1  0  0  0  0
 13  1  1  0  0  0  0
 13  4  1  1  0  0  0
 15 14  1  0  0  0  0
 16 20  1  0  0  0  0
 17 22  1  0  0  0  0
 17 18  2  0  0  0  0
 18 16  1  0  0  0  0
 19 17  1  0  0  0  0
 20 25  1  1  0  0  0
 21 20  1  0  0  0  0
 22 21  1  0  0  0  0
 25 24  1  0  0  0  0
 25 23  1  0  0  0  0
M  END
>  <MODEL>
4

>  <REMARK>
 VINA RESULT:      -8.3      1.963      7.772
  Name = 
  3 active torsions:
  status: ('A' for Active; 'I' for Inactive)
    1  A    between atoms: C_3  and  C_19
    2  A    between atoms: C_12  and  N_21
    3  A    between atoms: C_18  and  C_23
                            x       y       z     vdW  Elec       q    Type
                         _______ _______ _______ _____ _____    ______ ____

>  <TORSDO>
F 3

$$$$
=
 OpenBabel11042420133D

 25 28  0  0  1  0  0  0  0  0999 V2000
  161.0400  208.2170  151.6320 C   0  0  2  0  0  3  0  0  0  0  0  0
  160.8310  206.7340  151.4060 C   0  0  0  0  0  2  0  0  0  0  0  0
  162.1590  207.3700  151.0550 C   0  0  1  0  0  3  0  0  0  0  0  0
  160.8830  207.3750  153.8830 C   0  0  0  0  0  3  0  0  0  0  0  0
  161.2070  211.9500  156.9090 C   0  0  0  0  0  2  0  0  0  0  0  0
  160.8580  209.5600  156.1900 C   0  0  0  0  0  0  0  0  0  0  0  0
  159.9060  212.1930  156.1500 C   0  0  0  0  0  2  0  0  0  0  0  0
  160.5940  208.3380  156.7320 C   0  0  0  0  0  3  0  0  0  0  0  0
  161.3630  210.5150  157.1340 N   0  0  0  0  0  2  0  0  0  0  0  0
  160.5320  209.5960  153.5430 O   0  0  0  0  0  0  0  0  0  0  0  0
  159.9470  211.3980  154.8790 C   0  0  0  0  0  3  0  0  0  0  0  0
  160.4030  210.1400  154.8500 C   0  0  0  0  0  0  0  0  0  0  0  0
  161.3220  208.4840  153.0990 C   0  0  2  0  0  3  0  0  0  0  0  0
  160.4010  206.9490  154.8720 C   0  0  0  0  0  3  0  0  0  0  0  0
  159.8810  207.1230  156.1900 C   0  0  0  0  0  2  0  0  0  0  0  0
  162.1540  205.8450  146.3270 C   0  0  0  0  0  2  0  0  0  0  0  0
  162.0820  206.5500  148.6670 C   0  0  0  0  0  0  0  0  0  0  0  0
  162.2400  206.8310  147.4050 N   0  0  0  0  0  0  0  0  0  0  0  0
  162.2290  207.6010  149.6230 N   0  0  0  0  0  2  0  0  0  0  0  0
  161.2120  204.7010  146.6980 C   0  0  2  0  0  3  0  0  0  0  0  0
  161.7180  204.1280  148.0150 C   0  0  0  0  0  2  0  0  0  0  0  0
  161.6320  205.1800  149.1170 C   0  0  0  0  0  2  0  0  0  0  0  0
  160.8310  202.2720  146.2020 C   0  0  0  0  0  1  0  0  0  0  0  0
  160.2110  203.9510  144.5110 C   0  0  0  0  0  1  0  0  0  0  0  0
  161.2060  203.6220  145.6120 C   0  0  0  0  0  3  0  0  0  0  0  0
  1  2  1  1  0  0  0
  1 13  1  0  0  0  0
  3 19  1  6  0  0  0
  3  2  1  0  0  0  0
  3  1  1  0  0  0  0
  4 14  2  0  0  0  0
  5  9  1  0  0  0  0
  6  8  2  0  0  0  0
  6  9  1  0  0  0  0
  7  5  1  0  0  0  0
 10 12  1  0  0  0  0
 11  7  1  0  0  0  0
 12 11  2  0  0  0  0
 12  6  1  0  0  0  0
 13 10  1  0  0  0  0
 13  4  1  1  0  0  0
 14 15  1  0  0  0  0
 15  8  1  0  0  0  0
 16 20  1  0  0  0  0
 16 18  1  0  0  0  0
 17 22  1  0  0  0  0
 17 19  1  0  0  0  0
 18 17  2  0  0  0  0
 20 25  1  6  0  0  0
 20 21  1  0  0  0  0
 21 22  1  0  0  0  0
 24 25  1  0  0  0  0
 25 23  1  0  0  0  0
M  END
>  <MODEL>
5

>  <REMARK>
 VINA RESULT:      -8.1      1.869      2.685
  Name = 
  3 active torsions:
  status: ('A' for Active; 'I' for Inactive)
    1  A    between atoms: C_3  and  C_19
    2  A    between atoms: C_12  and  N_21
    3  A    between atoms: C_18  and  C_23
                            x       y       z     vdW  Elec       q    Type
                         _______ _______ _______ _____ _____    ______ ____

>  <TORSDO>
F 3

$$$$
=
 OpenBabel11042420133D

 25 28  0  0  1  0  0  0  0  0999 V2000
  162.2710  206.1500  152.7550 C   0  0  2  0  0  3  0  0  0  0  0  0
  161.1470  205.4950  153.5320 C   0  0  0  0  0  2  0  0  0  0  0  0
  160.9720  206.8980  152.9930 C   0  0  1  0  0  3  0  0  0  0  0  0
  161.8360  206.6430  150.4390 C   0  0  0  0  0  3  0  0  0  0  0  0
  161.2570  201.6460  148.2290 C   0  0  0  0  0  2  0  0  0  0  0  0
  161.2450  204.1430  148.5680 C   0  0  0  0  0  0  0  0  0  0  0  0
  160.0760  201.6760  149.1950 C   0  0  0  0  0  2  0  0  0  0  0  0
  161.0110  205.2870  147.8670 C   0  0  0  0  0  3  0  0  0  0  0  0
  161.5060  202.9990  147.7410 N   0  0  0  0  0  2  0  0  0  0  0  0
  161.3420  204.5580  151.2020 O   0  0  0  0  0  0  0  0  0  0  0  0
  160.3910  202.6500  150.2920 C   0  0  0  0  0  3  0  0  0  0  0  0
  160.9590  203.8350  150.0390 C   0  0  0  0  0  0  0  0  0  0  0  0
  162.2910  205.6270  151.3310 C   0  0  2  0  0  3  0  0  0  0  0  0
  161.2440  206.9620  149.4690 C   0  0  0  0  0  3  0  0  0  0  0  0
  160.5070  206.6470  148.2870 C   0  0  0  0  0  2  0  0  0  0  0  0
  160.7670  211.4760  154.9130 C   0  0  0  0  0  2  0  0  0  0  0  0
  160.7830  209.2310  153.9460 C   0  0  0  0  0  0  0  0  0  0  0  0
  161.0770  210.0460  154.9170 N   0  0  0  0  0  0  0  0  0  0  0  0
  161.1770  207.8630  154.0600 N   0  0  0  0  0  2  0  0  0  0  0  0
  159.5190  211.7680  154.0810 C   0  0  2  0  0  3  0  0  0  0  0  0
  159.7740  211.1910  152.6940 C   0  0  0  0  0  2  0  0  0  0  0  0
  159.9380  209.6750  152.7750 C   0  0  0  0  0  2  0  0  0  0  0  0
  158.1250  213.5650  153.0230 C   0  0  0  0  0  1  0  0  0  0  0  0
  158.8830  213.8500  155.3490 C   0  0  0  0  0  1  0  0  0  0  0  0
  159.2590  213.2740  153.9930 C   0  0  0  0  0  3  0  0  0  0  0  0
  1  3  1  0  0  0  0
  1  2  1  1  0  0  0
  3  2  1  0  0  0  0
  3 19  1  1  0  0  0
  5  7  1  0  0  0  0
  6 12  1  0  0  0  0
  7 11  1  0  0  0  0
  8 15  1  0  0  0  0
  8  6  2  0  0  0  0
  9  5  1  0  0  0  0
  9  6  1  0  0  0  0
 10 13  1  0  0  0  0
 12 11  2  0  0  0  0
 12 10  1  0  0  0  0
 13  4  1  6  0  0  0
 13  1  1  0  0  0  0
 14  4  2  0  0  0  0
 15 14  1  0  0  0  0
 16 18  1  0  0  0  0
 17 19  1  0  0  0  0
 17 18  2  0  0  0  0
 20 25  1  6  0  0  0
 20 16  1  0  0  0  0
 21 22  1  0  0  0  0
 21 20  1  0  0  0  0
 22 17  1  0  0  0  0
 23 25  1  0  0  0  0
 25 24  1  0  0  0  0
M  END
>  <MODEL>
6

>  <REMARK>
 VINA RESULT:      -8.1      1.656      8.605
  Name = 
  3 active torsions:
  status: ('A' for Active; 'I' for Inactive)
    1  A    between atoms: C_3  and  C_19
    2  A    between atoms: C_12  and  N_21
    3  A    between atoms: C_18  and  C_23
                            x       y       z     vdW  Elec       q    Type
                         _______ _______ _______ _____ _____    ______ ____

>  <TORSDO>
F 3

$$$$
=
 OpenBabel11042420133D

 25 28  0  0  1  0  0  0  0  0999 V2000
  162.1060  207.9240  150.0390 C   0  0  2  0  0  3  0  0  0  0  0  0
  162.1200  208.9460  148.9210 C   0  0  0  0  0  2  0  0  0  0  0  0
  161.0770  207.8490  148.9250 C   0  0  1  0  0  3  0  0  0  0  0  0
  162.1960  209.6640  151.7020 C   0  0  0  0  0  3  0  0  0  0  0  0
  159.2480  207.5460  155.8270 C   0  0  0  0  0  2  0  0  0  0  0  0
  160.7790  209.0200  154.4720 C   0  0  0  0  0  0  0  0  0  0  0  0
  160.4120  206.5630  155.7650 C   0  0  0  0  0  2  0  0  0  0  0  0
  161.4630  210.1930  154.5850 C   0  0  0  0  0  3  0  0  0  0  0  0
  159.7230  208.8700  155.4330 N   0  0  0  0  0  2  0  0  0  0  0  0
  161.5520  207.5850  152.3600 O   0  0  0  0  0  0  0  0  0  0  0  0
  160.9830  206.5950  154.3780 C   0  0  0  0  0  3  0  0  0  0  0  0
  161.1660  207.7460  153.7190 C   0  0  0  0  0  0  0  0  0  0  0  0
  161.4580  208.5190  151.2760 C   0  0  2  0  0  3  0  0  0  0  0  0
  162.6200  210.3430  152.5690 C   0  0  0  0  0  3  0  0  0  0  0  0
  162.7410  210.6850  153.9490 C   0  0  0  0  0  2  0  0  0  0  0  0
  161.7500  203.0880  147.6750 C   0  0  0  0  0  2  0  0  0  0  0  0
  161.3380  205.4110  148.3160 C   0  0  0  0  0  0  0  0  0  0  0  0
  161.7840  204.5360  147.4620 N   0  0  0  0  0  0  0  0  0  0  0  0
  161.4650  206.7980  148.0010 N   0  0  0  0  0  2  0  0  0  0  0  0
  160.5770  202.6890  148.5690 C   0  0  2  0  0  3  0  0  0  0  0  0
  160.7140  203.4960  149.8540 C   0  0  0  0  0  2  0  0  0  0  0  0
  160.5880  204.9880  149.5570 C   0  0  0  0  0  2  0  0  0  0  0  0
  161.5100  200.4620  147.8920 C   0  0  0  0  0  1  0  0  0  0  0  0
  161.1220  200.9220  150.2800 C   0  0  0  0  0  1  0  0  0  0  0  0
  160.6070  201.1890  148.8750 C   0  0  0  0  0  3  0  0  0  0  0  0
  1  2  1  6  0  0  0
  1 13  1  0  0  0  0
  2  3  1  0  0  0  0
  3 19  1  6  0  0  0
  3  1  1  0  0  0  0
  4 14  2  0  0  0  0
  6  8  2  0  0  0  0
  6  9  1  0  0  0  0
  7  5  1  0  0  0  0
  9  5  1  0  0  0  0
 10 12  1  0  0  0  0
 11  7  1  0  0  0  0
 12 11  2  0  0  0  0
 12  6  1  0  0  0  0
 13  4  1  1  0  0  0
 13 10  1  0  0  0  0
 14 15  1  0  0  0  0
 15  8  1  0  0  0  0
 16 20  1  0  0  0  0
 17 22  1  0  0  0  0
 18 16  1  0  0  0  0
 18 17  2  0  0  0  0
 19 17  1  0  0  0  0
 20 25  1  1  0  0  0
 20 21  1  0  0  0  0
 22 21  1  0  0  0  0
 23 25  1  0  0  0  0
 25 24  1  0  0  0  0
M  END
>  <MODEL>
7

>  <REMARK>
 VINA RESULT:      -8.0      1.252      2.328
  Name = 
  3 active torsions:
  status: ('A' for Active; 'I' for Inactive)
    1  A    between atoms: C_3  and  C_19
    2  A    between atoms: C_12  and  N_21
    3  A    between atoms: C_18  and  C_23
                            x       y       z     vdW  Elec       q    Type
                         _______ _______ _______ _____ _____    ______ ____

>  <TORSDO>
F 3

$$$$
=
 OpenBabel11042420133D

 25 28  0  0  1  0  0  0  0  0999 V2000
  162.2540  206.3890  152.5200 C   0  0  2  0  0  3  0  0  0  0  0  0
  162.3840  206.9520  151.1200 C   0  0  0  0  0  2  0  0  0  0  0  0
  161.1220  206.2190  151.5230 C   0  0  1  0  0  3  0  0  0  0  0  0
  161.2380  206.9450  154.6320 C   0  0  0  0  0  3  0  0  0  0  0  0
  160.0520  212.2760  154.0350 C   0  0  0  0  0  2  0  0  0  0  0  0
  160.1560  209.9190  154.9190 C   0  0  0  0  0  0  0  0  0  0  0  0
  159.1620  211.6580  152.9610 C   0  0  0  0  0  2  0  0  0  0  0  0
  159.7600  209.1950  156.0030 C   0  0  0  0  0  3  0  0  0  0  0  0
  160.1800  211.3360  155.1450 N   0  0  0  0  0  2  0  0  0  0  0  0
  160.9370  208.3740  152.8890 O   0  0  0  0  0  0  0  0  0  0  0  0
  159.7610  210.3440  152.5540 C   0  0  0  0  0  3  0  0  0  0  0  0
  160.2570  209.4870  153.4550 C   0  0  0  0  0  0  0  0  0  0  0  0
  161.8980  207.4970  153.4940 C   0  0  2  0  0  3  0  0  0  0  0  0
  160.4180  207.0240  155.4770 C   0  0  0  0  0  3  0  0  0  0  0  0
  159.3970  207.7400  156.1720 C   0  0  0  0  0  2  0  0  0  0  0  0
  161.0060  202.8920  147.8350 C   0  0  0  0  0  2  0  0  0  0  0  0
  161.1260  204.5730  149.6070 C   0  0  0  0  0  0  0  0  0  0  0  0
  161.0770  203.3270  149.2310 N   0  0  0  0  0  0  0  0  0  0  0  0
  161.1560  204.8630  151.0050 N   0  0  0  0  0  2  0  0  0  0  0  0
  161.6840  203.8990  146.9070 C   0  0  2  0  0  3  0  0  0  0  0  0
  161.0220  205.2460  147.1650 C   0  0  0  0  0  2  0  0  0  0  0  0
  161.2740  205.6920  148.6030 C   0  0  0  0  0  2  0  0  0  0  0  0
  160.5580  202.3180  145.3180 C   0  0  0  0  0  1  0  0  0  0  0  0
  160.9680  204.6400  144.6090 C   0  0  0  0  0  1  0  0  0  0  0  0
  161.5160  203.4920  145.4410 C   0  0  0  0  0  3  0  0  0  0  0  0
  1  2  1  6  0  0  0
  1 13  1  0  0  0  0
  2  3  1  0  0  0  0
  3 19  1  6  0  0  0
  3  1  1  0  0  0  0
  4 14  2  0  0  0  0
  5  9  1  0  0  0  0
  6  9  1  0  0  0  0
  6  8  2  0  0  0  0
  7  5  1  0  0  0  0
  8 15  1  0  0  0  0
 10 12  1  0  0  0  0
 10 13  1  0  0  0  0
 11  7  1  0  0  0  0
 11 12  2  0  0  0  0
 12  6  1  0  0  0  0
 13  4  1  1  0  0  0
 14 15  1  0  0  0  0
 16 18  1  0  0  0  0
 17 19  1  0  0  0  0
 18 17  2  0  0  0  0
 20 25  1  6  0  0  0
 20 21  1  0  0  0  0
 20 16  1  0  0  0  0
 21 22  1  0  0  0  0
 22 17  1  0  0  0  0
 23 25  1  0  0  0  0
 24 25  1  0  0  0  0
M  END
>  <MODEL>
8

>  <REMARK>
 VINA RESULT:      -7.9      1.642      2.604
  Name = 
  3 active torsions:
  status: ('A' for Active; 'I' for Inactive)
    1  A    between atoms: C_3  and  C_19
    2  A    between atoms: C_12  and  N_21
    3  A    between atoms: C_18  and  C_23
                            x       y       z     vdW  Elec       q    Type
                         _______ _______ _______ _____ _____    ______ ____

>  <TORSDO>
F 3

$$$$
=
 OpenBabel11042420133D

 25 28  0  0  1  0  0  0  0  0999 V2000
  161.0140  207.3160  150.0310 C   0  0  2  0  0  3  0  0  0  0  0  0
  162.4220  207.3720  150.5880 C   0  0  0  0  0  2  0  0  0  0  0  0
  161.2420  207.6670  151.4890 C   0  0  1  0  0  3  0  0  0  0  0  0
  160.9000  205.1740  151.1260 C   0  0  0  0  0  3  0  0  0  0  0  0
  160.1740  201.7070  146.9250 C   0  0  0  0  0  2  0  0  0  0  0  0
  160.6260  202.6460  149.2190 C   0  0  0  0  0  0  0  0  0  0  0  0
  161.5560  202.2680  146.6050 C   0  0  0  0  0  2  0  0  0  0  0  0
  160.8300  202.2200  150.4970 C   0  0  0  0  0  3  0  0  0  0  0  0
  160.0010  201.6690  148.3750 N   0  0  0  0  0  2  0  0  0  0  0  0
  161.2740  205.2120  148.8830 O   0  0  0  0  0  0  0  0  0  0  0  0
  161.6770  203.6170  147.2490 C   0  0  0  0  0  3  0  0  0  0  0  0
  161.2370  203.8450  148.4930 C   0  0  0  0  0  0  0  0  0  0  0  0
  160.5520  205.8740  149.9320 C   0  0  2  0  0  3  0  0  0  0  0  0
  161.2600  204.1880  151.6650 C   0  0  0  0  0  3  0  0  0  0  0  0
  161.6140  202.8050  151.6470 C   0  0  0  0  0  2  0  0  0  0  0  0
  160.2490  211.7340  154.1660 C   0  0  0  0  0  2  0  0  0  0  0  0
  160.7940  209.7070  152.9110 C   0  0  0  0  0  0  0  0  0  0  0  0
  160.6010  210.9940  152.9530 N   0  0  0  0  0  0  0  0  0  0  0  0
  161.0970  209.1030  151.6530 N   0  0  0  0  0  2  0  0  0  0  0  0
  160.8080  211.0480  155.4120 C   0  0  2  0  0  3  0  0  0  0  0  0
  160.2870  209.6160  155.3930 C   0  0  0  0  0  2  0  0  0  0  0  0
  160.8250  208.8750  154.1720 C   0  0  0  0  0  2  0  0  0  0  0  0
  160.0420  213.2260  156.3920 C   0  0  0  0  0  1  0  0  0  0  0  0
  159.0980  211.1240  157.2600 C   0  0  0  0  0  1  0  0  0  0  0  0
  160.3490  211.7660  156.6840 C   0  0  0  0  0  3  0  0  0  0  0  0
  1  2  1  6  0  0  0
  1  3  1  0  0  0  0
  2  3  1  0  0  0  0
  3 19  1  6  0  0  0
  4 14  2  0  0  0  0
  5  9  1  0  0  0  0
  6  8  2  0  0  0  0
  7  5  1  0  0  0  0
  7 11  1  0  0  0  0
  8 15  1  0  0  0  0
  9  6  1  0  0  0  0
 10 13  1  0  0  0  0
 11 12  2  0  0  0  0
 12 10  1  0  0  0  0
 12  6  1  0  0  0  0
 13  1  1  0  0  0  0
 13  4  1  1  0  0  0
 15 14  1  0  0  0  0
 16 20  1  0  0  0  0
 17 18  2  0  0  0  0
 17 22  1  0  0  0  0
 18 16  1  0  0  0  0
 19 17  1  0  0  0  0
 20 25  1  1  0  0  0
 21 20  1  0  0  0  0
 22 21  1  0  0  0  0
 23 25  1  0  0  0  0
 25 24  1  0  0  0  0
M  END
>  <MODEL>
9

>  <REMARK>
 VINA RESULT:      -7.8      1.985      8.551
  Name = 
  3 active torsions:
  status: ('A' for Active; 'I' for Inactive)
    1  A    between atoms: C_3  and  C_19
    2  A    between atoms: C_12  and  N_21
    3  A    between atoms: C_18  and  C_23
                            x       y       z     vdW  Elec       q    Type
                         _______ _______ _______ _____ _____    ______ ____

>  <TORSDO>
F 3

$$$$
