=
 OpenBabel11042423113D

 29 30  0  0  1  0  0  0  0  0999 V2000
  161.4890  208.2850  155.6290 C   0  0  1  0  0  3  0  0  0  0  0  0
  161.2250  209.0170  151.1980 C   0  0  0  0  0  3  0  0  0  0  0  0
  161.7800  210.8070  155.4440 N   0  0  0  0  0  0  0  0  0  0  0  0
  160.9500  206.7650  152.2010 C   0  0  0  0  0  0  0  0  0  0  0  0
  160.3980  207.8710  156.3950 O   0  0  0  0  0  1  0  0  0  0  0  0
  160.8090  207.0720  153.5060 C   0  0  0  0  0  3  0  0  0  0  0  0
  160.3270  209.6600  152.1970 C   0  0  0  0  0  2  0  0  0  0  0  0
  162.6150  209.6200  157.2610 O   0  0  0  0  0  0  0  0  0  0  0  0
  161.4880  207.7040  151.1860 C   0  0  0  0  0  0  0  0  0  0  0  0
  161.2640  210.8090  154.2540 C   0  0  0  0  0  3  0  0  0  0  0  0
  160.9080  209.5550  153.5670 C   0  0  0  0  0  0  0  0  0  0  0  0
  161.0870  208.3630  154.1740 C   0  0  0  0  0  0  0  0  0  0  0  0
  162.0060  209.5910  156.1600 C   0  0  0  0  0  0  0  0  0  0  0  0
  162.0770  207.2110  148.7500 C   0  0  0  0  0  0  0  0  0  0  0  0
  162.3300  207.1570  150.1620 N   0  0  0  0  0  2  0  0  0  0  0  0
  163.0390  207.4140  147.9650 O   0  0  0  0  0  0  0  0  0  0  0  0
  160.5900  206.3340  146.9830 C   0  0  0  0  0  1  0  0  0  0  0  0
  160.8020  206.9990  148.2190 O   0  0  0  0  0  0  0  0  0  0  0  0
  160.6240  205.4780  151.7540 O   0  0  0  0  0  0  0  0  0  0  0  0
  160.8770  204.2980  152.5080 C   0  0  0  0  0  2  0  0  0  0  0  0
  161.5800  203.2790  151.6270 C   0  0  0  0  0  2  0  0  0  0  0  0
  161.4790  203.8890  149.3090 O   0  0  0  0  0  1  0  0  0  0  0  0
  160.8760  203.0920  150.2860 C   0  0  1  0  0  3  0  0  0  0  0  0
  160.8720  201.6310  149.8500 C   0  0  0  0  0  2  0  0  0  0  0  0
  161.1490  200.4740  147.7450 N   0  0  0  0  0  0  0  0  0  0  0  0
  160.7240  201.5260  148.3710 C   0  0  0  0  0  3  0  0  0  0  0  0
  161.0200  200.3280  146.3290 C   0  0  0  0  0  0  0  0  0  0  0  0
  160.4110  201.4270  145.5330 C   0  0  0  0  0  1  0  0  0  0  0  0
  161.4220  199.2840  145.7440 O   0  0  0  0  0  0  0  0  0  0  0  0
  1 13  1  0  0  0  0
  1  5  1  1  0  0  0
  2  7  1  0  0  0  0
  3 13  1  0  0  0  0
  4  6  2  0  0  0  0
  6 12  1  0  0  0  0
  7 11  1  0  0  0  0
  9  2  2  0  0  0  0
  9  4  1  0  0  0  0
 10  3  2  0  0  0  0
 11 12  2  0  0  0  0
 11 10  1  0  0  0  0
 12  1  1  0  0  0  0
 13  8  2  0  0  0  0
 14 15  1  0  0  0  0
 15  9  1  0  0  0  0
 16 14  2  0  0  0  0
 17 18  1  0  0  0  0
 18 14  1  0  0  0  0
 19  4  1  0  0  0  0
 19 20  1  0  0  0  0
 21 20  1  0  0  0  0
 23 22  1  6  0  0  0
 23 21  1  0  0  0  0
 24 23  1  0  0  0  0
 25 26  2  0  0  0  0
 26 24  1  0  0  0  0
 27 25  1  0  0  0  0
 28 27  1  0  0  0  0
 29 27  2  0  0  0  0
M  END
>  <MODEL>
1

>  <REMARK>
 VINA RESULT:      -7.3      0.000      0.000
  Name = 
  9 active torsions:
  status: ('A' for Active; 'I' for Inactive)
    1  A    between atoms: N_3  and  C_4
    2  A    between atoms: C_6  and  O_16
    3  A    between atoms: C_7  and  O_21
    4  A    between atoms: N_11  and  C_15
    5  A    between atoms: O_16  and  C_26
    6  A    between atoms: C_18  and  C_19
    7  A    between atoms: C_18  and  C_22
    8  A    between atoms: C_19  and  C_29
    9  A    between atoms: C_26  and  C_29
                            x       y       z     vdW  Elec       q    Type
                         _______ _______ _______ _____ _____    ______ ____

>  <TORSDO>
F 9

$$$$
=
 OpenBabel11042423113D

 29 30  0  0  1  0  0  0  0  0999 V2000
  160.2110  210.4020  153.8010 C   0  0  1  0  0  3  0  0  0  0  0  0
  161.1040  206.0230  153.2860 C   0  0  0  0  0  3  0  0  0  0  0  0
  159.3170  209.3760  155.9530 N   0  0  0  0  0  0  0  0  0  0  0  0
  161.7580  207.7290  151.6080 C   0  0  0  0  0  0  0  0  0  0  0  0
  161.2070  211.3640  153.9750 O   0  0  0  0  0  1  0  0  0  0  0  0
  161.5670  208.8690  152.3020 C   0  0  0  0  0  3  0  0  0  0  0  0
  161.6010  206.8390  154.4290 C   0  0  0  0  0  2  0  0  0  0  0  0
  158.4910  211.3900  155.1370 O   0  0  0  0  0  0  0  0  0  0  0  0
  161.1960  206.4150  152.0090 C   0  0  0  0  0  0  0  0  0  0  0  0
  160.0300  208.3060  155.7730 C   0  0  0  0  0  3  0  0  0  0  0  0
  160.8210  208.1050  154.5460 C   0  0  0  0  0  0  0  0  0  0  0  0
  160.8450  209.0480  153.5810 C   0  0  0  0  0  0  0  0  0  0  0  0
  159.2830  210.4240  154.9830 C   0  0  0  0  0  0  0  0  0  0  0  0
  160.8250  204.1180  150.9580 C   0  0  0  0  0  0  0  0  0  0  0  0
  160.7320  205.5500  150.9640 N   0  0  0  0  0  2  0  0  0  0  0  0
  159.8630  203.4460  150.5040 O   0  0  0  0  0  0  0  0  0  0  0  0
  161.9550  202.0830  151.7870 C   0  0  0  0  0  1  0  0  0  0  0  0
  161.9690  203.4490  151.3990 O   0  0  0  0  0  0  0  0  0  0  0  0
  162.4830  207.7620  150.4100 O   0  0  0  0  0  0  0  0  0  0  0  0
  161.9700  208.2970  149.1970 C   0  0  0  0  0  2  0  0  0  0  0  0
  162.5320  207.5130  148.0230 C   0  0  0  0  0  2  0  0  0  0  0  0
  160.4370  206.3880  147.7090 O   0  0  0  0  0  1  0  0  0  0  0  0
  161.8140  206.1810  147.8210 C   0  0  1  0  0  3  0  0  0  0  0  0
  162.3400  205.4360  146.6000 C   0  0  0  0  0  2  0  0  0  0  0  0
  161.7260  203.2320  147.3820 N   0  0  0  0  0  0  0  0  0  0  0  0
  161.6470  204.1250  146.4470 C   0  0  0  0  0  3  0  0  0  0  0  0
  161.0710  201.9650  147.2810 C   0  0  0  0  0  0  0  0  0  0  0  0
  161.1270  201.0190  148.4270 C   0  0  0  0  0  1  0  0  0  0  0  0
  160.4400  201.6420  146.2360 O   0  0  0  0  0  0  0  0  0  0  0  0
  1  5  1  1  0  0  0
  1 13  1  0  0  0  0
  2  7  1  0  0  0  0
  4  9  1  0  0  0  0
  4  6  2  0  0  0  0
  6 12  1  0  0  0  0
  7 11  1  0  0  0  0
  9  2  2  0  0  0  0
 10  3  2  0  0  0  0
 11 10  1  0  0  0  0
 12  1  1  0  0  0  0
 12 11  2  0  0  0  0
 13  8  2  0  0  0  0
 13  3  1  0  0  0  0
 14 15  1  0  0  0  0
 14 18  1  0  0  0  0
 15  9  1  0  0  0  0
 16 14  2  0  0  0  0
 18 17  1  0  0  0  0
 19  4  1  0  0  0  0
 20 19  1  0  0  0  0
 21 20  1  0  0  0  0
 23 22  1  6  0  0  0
 23 21  1  0  0  0  0
 24 23  1  0  0  0  0
 26 24  1  0  0  0  0
 26 25  2  0  0  0  0
 27 25  1  0  0  0  0
 27 28  1  0  0  0  0
 29 27  2  0  0  0  0
M  END
>  <MODEL>
2

>  <REMARK>
 VINA RESULT:      -7.0      1.977      3.743
  Name = 
  9 active torsions:
  status: ('A' for Active; 'I' for Inactive)
    1  A    between atoms: N_3  and  C_4
    2  A    between atoms: C_6  and  O_16
    3  A    between atoms: C_7  and  O_21
    4  A    between atoms: N_11  and  C_15
    5  A    between atoms: O_16  and  C_26
    6  A    between atoms: C_18  and  C_19
    7  A    between atoms: C_18  and  C_22
    8  A    between atoms: C_19  and  C_29
    9  A    between atoms: C_26  and  C_29
                            x       y       z     vdW  Elec       q    Type
                         _______ _______ _______ _____ _____    ______ ____

>  <TORSDO>
F 9

$$$$
=
 OpenBabel11042423113D

 29 30  0  0  1  0  0  0  0  0999 V2000
  161.3280  207.9660  154.5770 C   0  0  1  0  0  3  0  0  0  0  0  0
  160.9400  211.2520  151.5280 C   0  0  0  0  0  3  0  0  0  0  0  0
  160.9760  210.0410  156.0080 N   0  0  0  0  0  0  0  0  0  0  0  0
  161.2310  208.8700  150.9000 C   0  0  0  0  0  0  0  0  0  0  0  0
  160.3690  206.9660  154.7400 O   0  0  0  0  0  1  0  0  0  0  0  0
  161.0010  208.2550  152.0770 C   0  0  0  0  0  3  0  0  0  0  0  0
  159.8970  210.9400  152.5440 C   0  0  0  0  0  2  0  0  0  0  0  0
  162.0630  208.1620  156.8430 O   0  0  0  0  0  0  0  0  0  0  0  0
  161.5260  210.3180  150.7680 C   0  0  0  0  0  0  0  0  0  0  0  0
  160.4900  210.6930  154.9970 C   0  0  0  0  0  3  0  0  0  0  0  0
  160.4690  210.1100  153.6440 C   0  0  0  0  0  0  0  0  0  0  0  0
  160.9360  208.8630  153.4250 C   0  0  0  0  0  0  0  0  0  0  0  0
  161.4930  208.7170  155.8670 C   0  0  0  0  0  0  0  0  0  0  0  0
  162.2440  211.5740  148.6630 C   0  0  0  0  0  0  0  0  0  0  0  0
  162.4900  210.7070  149.7810 N   0  0  0  0  0  2  0  0  0  0  0  0
  163.1250  212.4080  148.3320 O   0  0  0  0  0  0  0  0  0  0  0  0
  160.2500  212.6130  147.6390 C   0  0  0  0  0  1  0  0  0  0  0  0
  161.0740  211.4880  147.9040 O   0  0  0  0  0  0  0  0  0  0  0  0
  161.2450  208.1170  149.7180 O   0  0  0  0  0  0  0  0  0  0  0  0
  162.2450  207.1520  149.4150 C   0  0  0  0  0  2  0  0  0  0  0  0
  162.3340  206.9750  147.9080 C   0  0  0  0  0  2  0  0  0  0  0  0
  160.6120  206.4890  146.3100 O   0  0  0  0  0  1  0  0  0  0  0  0
  161.3280  205.9540  147.3850 C   0  0  1  0  0  3  0  0  0  0  0  0
  162.0060  204.6520  146.9760 C   0  0  0  0  0  2  0  0  0  0  0  0
  161.1380  203.7650  149.0510 N   0  0  0  0  0  0  0  0  0  0  0  0
  161.5540  203.5300  147.8470 C   0  0  0  0  0  3  0  0  0  0  0  0
  160.6880  202.7200  149.9180 C   0  0  0  0  0  0  0  0  0  0  0  0
  161.0520  202.7580  151.3590 C   0  0  0  0  0  1  0  0  0  0  0  0
  159.9820  201.7710  149.4780 O   0  0  0  0  0  0  0  0  0  0  0  0
  1  5  1  1  0  0  0
  1 13  1  0  0  0  0
  2  7  1  0  0  0  0
  4  6  2  0  0  0  0
  6 12  1  0  0  0  0
  7 11  1  0  0  0  0
  9  4  1  0  0  0  0
  9  2  2  0  0  0  0
 10  3  2  0  0  0  0
 11 10  1  0  0  0  0
 12 11  2  0  0  0  0
 12  1  1  0  0  0  0
 13  3  1  0  0  0  0
 13  8  2  0  0  0  0
 14 15  1  0  0  0  0
 15  9  1  0  0  0  0
 16 14  2  0  0  0  0
 17 18  1  0  0  0  0
 18 14  1  0  0  0  0
 19  4  1  0  0  0  0
 20 19  1  0  0  0  0
 21 20  1  0  0  0  0
 23 22  1  6  0  0  0
 23 21  1  0  0  0  0
 24 23  1  0  0  0  0
 24 26  1  0  0  0  0
 25 27  1  0  0  0  0
 26 25  2  0  0  0  0
 27 28  1  0  0  0  0
 29 27  2  0  0  0  0
M  END
>  <MODEL>
3

>  <REMARK>
 VINA RESULT:      -6.9      2.332      3.520
  Name = 
  9 active torsions:
  status: ('A' for Active; 'I' for Inactive)
    1  A    between atoms: N_3  and  C_4
    2  A    between atoms: C_6  and  O_16
    3  A    between atoms: C_7  and  O_21
    4  A    between atoms: N_11  and  C_15
    5  A    between atoms: O_16  and  C_26
    6  A    between atoms: C_18  and  C_19
    7  A    between atoms: C_18  and  C_22
    8  A    between atoms: C_19  and  C_29
    9  A    between atoms: C_26  and  C_29
                            x       y       z     vdW  Elec       q    Type
                         _______ _______ _______ _____ _____    ______ ____

>  <TORSDO>
F 9

$$$$
=
 OpenBabel11042423113D

 29 30  0  0  1  0  0  0  0  0999 V2000
  161.3680  207.8840  154.5890 C   0  0  1  0  0  3  0  0  0  0  0  0
  160.8660  211.1470  151.5330 C   0  0  0  0  0  3  0  0  0  0  0  0
  160.7690  209.9130  156.0060 N   0  0  0  0  0  0  0  0  0  0  0  0
  161.3880  208.8020  150.9140 C   0  0  0  0  0  0  0  0  0  0  0  0
  160.4880  206.8060  154.6990 O   0  0  0  0  0  1  0  0  0  0  0  0
  161.1490  208.1630  152.0760 C   0  0  0  0  0  3  0  0  0  0  0  0
  159.8010  210.7430  152.4920 C   0  0  0  0  0  2  0  0  0  0  0  0
  161.9630  208.1250  156.8920 O   0  0  0  0  0  0  0  0  0  0  0  0
  161.5670  210.2710  150.8020 C   0  0  0  0  0  0  0  0  0  0  0  0
  160.2830  210.5290  154.9720 C   0  0  0  0  0  3  0  0  0  0  0  0
  160.3830  209.9560  153.6180 C   0  0  0  0  0  0  0  0  0  0  0  0
  160.9630  208.7530  153.4210 C   0  0  0  0  0  0  0  0  0  0  0  0
  161.4020  208.6370  155.8880 C   0  0  0  0  0  0  0  0  0  0  0  0
  162.2810  211.5580  148.7150 C   0  0  0  0  0  0  0  0  0  0  0  0
  162.5460  210.7460  149.8680 N   0  0  0  0  0  2  0  0  0  0  0  0
  163.0850  212.4780  148.4180 O   0  0  0  0  0  0  0  0  0  0  0  0
  160.4930  212.3740  147.2180 C   0  0  0  0  0  1  0  0  0  0  0  0
  161.1800  211.3270  147.8860 O   0  0  0  0  0  0  0  0  0  0  0  0
  161.5270  208.0620  149.7330 O   0  0  0  0  0  0  0  0  0  0  0  0
  161.0400  206.7340  149.5780 C   0  0  0  0  0  2  0  0  0  0  0  0
  160.6530  206.5060  148.1260 C   0  0  0  0  0  2  0  0  0  0  0  0
  162.5140  205.4410  147.0510 O   0  0  0  0  0  1  0  0  0  0  0  0
  161.2370  205.2110  147.5680 C   0  0  1  0  0  3  0  0  0  0  0  0
  161.2800  204.1120  148.6230 C   0  0  0  0  0  2  0  0  0  0  0  0
  160.6950  202.6140  146.8180 N   0  0  0  0  0  0  0  0  0  0  0  0
  161.2440  202.7670  147.9810 C   0  0  0  0  0  3  0  0  0  0  0  0
  160.6450  201.3440  146.1620 C   0  0  0  0  0  0  0  0  0  0  0  0
  161.2440  200.1560  146.8240 C   0  0  0  0  0  1  0  0  0  0  0  0
  160.0940  201.2180  145.0330 O   0  0  0  0  0  0  0  0  0  0  0  0
  1  5  1  1  0  0  0
  1 13  1  0  0  0  0
  2  7  1  0  0  0  0
  4  6  2  0  0  0  0
  6 12  1  0  0  0  0
  7 11  1  0  0  0  0
  9  4  1  0  0  0  0
  9  2  2  0  0  0  0
 10  3  2  0  0  0  0
 11 10  1  0  0  0  0
 12 11  2  0  0  0  0
 12  1  1  0  0  0  0
 13  3  1  0  0  0  0
 13  8  2  0  0  0  0
 14 15  1  0  0  0  0
 15  9  1  0  0  0  0
 16 14  2  0  0  0  0
 17 18  1  0  0  0  0
 18 14  1  0  0  0  0
 19  4  1  0  0  0  0
 20 19  1  0  0  0  0
 21 20  1  0  0  0  0
 23 22  1  1  0  0  0
 23 21  1  0  0  0  0
 23 24  1  0  0  0  0
 25 26  2  0  0  0  0
 26 24  1  0  0  0  0
 27 25  1  0  0  0  0
 27 28  1  0  0  0  0
 29 27  2  0  0  0  0
M  END
>  <MODEL>
4

>  <REMARK>
 VINA RESULT:      -6.6      2.286      2.918
  Name = 
  9 active torsions:
  status: ('A' for Active; 'I' for Inactive)
    1  A    between atoms: N_3  and  C_4
    2  A    between atoms: C_6  and  O_16
    3  A    between atoms: C_7  and  O_21
    4  A    between atoms: N_11  and  C_15
    5  A    between atoms: O_16  and  C_26
    6  A    between atoms: C_18  and  C_19
    7  A    between atoms: C_18  and  C_22
    8  A    between atoms: C_19  and  C_29
    9  A    between atoms: C_26  and  C_29
                            x       y       z     vdW  Elec       q    Type
                         _______ _______ _______ _____ _____    ______ ____

>  <TORSDO>
F 9

$$$$
=
 OpenBabel11042423113D

 29 30  0  0  1  0  0  0  0  0999 V2000
  162.1870  205.9270  147.1720 C   0  0  1  0  0  3  0  0  0  0  0  0
  160.8580  205.0360  151.3770 C   0  0  0  0  0  3  0  0  0  0  0  0
  161.9770  203.3900  147.1840 N   0  0  0  0  0  0  0  0  0  0  0  0
  161.2100  207.3460  150.5450 C   0  0  0  0  0  0  0  0  0  0  0  0
  161.3770  206.5820  146.2440 O   0  0  0  0  0  1  0  0  0  0  0  0
  161.2980  207.1390  149.2170 C   0  0  0  0  0  3  0  0  0  0  0  0
  160.0930  204.6300  150.1650 C   0  0  0  0  0  2  0  0  0  0  0  0
  163.3790  204.4830  145.6850 O   0  0  0  0  0  0  0  0  0  0  0  0
  161.3430  206.2710  151.5590 C   0  0  0  0  0  0  0  0  0  0  0  0
  161.2270  203.4270  148.2420 C   0  0  0  0  0  3  0  0  0  0  0  0
  160.9620  204.6900  148.9540 C   0  0  0  0  0  0  0  0  0  0  0  0
  161.4770  205.8540  148.5040 C   0  0  0  0  0  0  0  0  0  0  0  0
  162.5640  204.5740  146.6400 C   0  0  0  0  0  0  0  0  0  0  0  0
  161.4290  207.1280  153.9630 C   0  0  0  0  0  0  0  0  0  0  0  0
  162.0310  206.5920  152.7760 N   0  0  0  0  0  2  0  0  0  0  0  0
  161.8210  206.7160  155.0850 O   0  0  0  0  0  0  0  0  0  0  0  0
  160.6270  209.3990  154.5180 C   0  0  0  0  0  1  0  0  0  0  0  0
  160.4530  208.1270  153.9120 O   0  0  0  0  0  0  0  0  0  0  0  0
  161.0320  208.6480  151.0320 O   0  0  0  0  0  0  0  0  0  0  0  0
  162.0650  209.6250  151.0550 C   0  0  0  0  0  2  0  0  0  0  0  0
  161.5100  210.9570  150.5760 C   0  0  0  0  0  2  0  0  0  0  0  0
  162.0280  210.3500  148.3140 O   0  0  0  0  0  1  0  0  0  0  0  0
  162.1160  211.3890  149.2440 C   0  0  1  0  0  3  0  0  0  0  0  0
  161.4450  212.6460  148.7010 C   0  0  0  0  0  2  0  0  0  0  0  0
  162.1290  213.2230  146.4550 N   0  0  0  0  0  0  0  0  0  0  0  0
  161.3120  212.5690  147.2180 C   0  0  0  0  0  3  0  0  0  0  0  0
  162.0430  213.1720  145.0290 C   0  0  0  0  0  0  0  0  0  0  0  0
  163.2780  213.3290  144.2160 C   0  0  0  0  0  1  0  0  0  0  0  0
  160.9350  212.9890  144.4510 O   0  0  0  0  0  0  0  0  0  0  0  0
  1  5  1  6  0  0  0
  1 12  1  0  0  0  0
  2  9  2  0  0  0  0
  3 10  2  0  0  0  0
  4 19  1  0  0  0  0
  4  9  1  0  0  0  0
  6  4  2  0  0  0  0
  7  2  1  0  0  0  0
  8 13  2  0  0  0  0
  9 15  1  0  0  0  0
 10 11  1  0  0  0  0
 11  7  1  0  0  0  0
 12 11  2  0  0  0  0
 12  6  1  0  0  0  0
 13  1  1  0  0  0  0
 13  3  1  0  0  0  0
 14 16  2  0  0  0  0
 15 14  1  0  0  0  0
 18 14  1  0  0  0  0
 18 17  1  0  0  0  0
 19 20  1  0  0  0  0
 21 20  1  0  0  0  0
 23 22  1  6  0  0  0
 23 21  1  0  0  0  0
 24 23  1  0  0  0  0
 25 26  2  0  0  0  0
 26 24  1  0  0  0  0
 27 25  1  0  0  0  0
 28 27  1  0  0  0  0
 29 27  2  0  0  0  0
M  END
>  <MODEL>
5

>  <REMARK>
 VINA RESULT:      -6.6      3.555      8.616
  Name = 
  9 active torsions:
  status: ('A' for Active; 'I' for Inactive)
    1  A    between atoms: N_3  and  C_4
    2  A    between atoms: C_6  and  O_16
    3  A    between atoms: C_7  and  O_21
    4  A    between atoms: N_11  and  C_15
    5  A    between atoms: O_16  and  C_26
    6  A    between atoms: C_18  and  C_19
    7  A    between atoms: C_18  and  C_22
    8  A    between atoms: C_19  and  C_29
    9  A    between atoms: C_26  and  C_29
                            x       y       z     vdW  Elec       q    Type
                         _______ _______ _______ _____ _____    ______ ____

>  <TORSDO>
F 9

$$$$
=
 OpenBabel11042423113D

 29 30  0  0  1  0  0  0  0  0999 V2000
  160.9390  209.4560  153.5960 C   0  0  1  0  0  3  0  0  0  0  0  0
  161.6900  206.4240  150.3590 C   0  0  0  0  0  3  0  0  0  0  0  0
  160.5660  207.2380  154.7880 N   0  0  0  0  0  0  0  0  0  0  0  0
  161.9400  208.8640  149.9910 C   0  0  0  0  0  0  0  0  0  0  0  0
  161.9490  210.2550  154.1360 O   0  0  0  0  0  1  0  0  0  0  0  0
  161.9140  209.3260  151.2570 C   0  0  0  0  0  3  0  0  0  0  0  0
  162.4370  206.4600  151.6470 C   0  0  0  0  0  2  0  0  0  0  0  0
  159.5740  209.2020  155.5420 O   0  0  0  0  0  0  0  0  0  0  0  0
  161.4860  207.5070  149.5990 C   0  0  0  0  0  0  0  0  0  0  0  0
  161.2180  206.5990  153.8660 C   0  0  0  0  0  3  0  0  0  0  0  0
  161.7050  207.2810  152.6540 C   0  0  0  0  0  0  0  0  0  0  0  0
  161.5060  208.6050  152.4830 C   0  0  0  0  0  0  0  0  0  0  0  0
  160.3090  208.6400  154.6880 C   0  0  0  0  0  0  0  0  0  0  0  0
  161.1190  206.4550  147.3010 C   0  0  0  0  0  0  0  0  0  0  0  0
  160.7930  207.3780  148.3500 N   0  0  0  0  0  2  0  0  0  0  0  0
  160.1870  205.8900  146.6730 O   0  0  0  0  0  0  0  0  0  0  0  0
  162.7870  205.1950  145.9830 C   0  0  0  0  0  1  0  0  0  0  0  0
  162.4410  206.1980  146.9260 O   0  0  0  0  0  0  0  0  0  0  0  0
  162.3700  209.7040  148.9560 O   0  0  0  0  0  0  0  0  0  0  0  0
  162.2920  211.1240  149.0150 C   0  0  0  0  0  2  0  0  0  0  0  0
  161.3730  211.6230  147.9120 C   0  0  0  0  0  2  0  0  0  0  0  0
  162.1710  213.8580  148.2640 O   0  0  0  0  0  1  0  0  0  0  0  0
  161.0130  213.0970  148.0830 C   0  0  1  0  0  3  0  0  0  0  0  0
  160.2110  213.6230  146.8990 C   0  0  0  0  0  2  0  0  0  0  0  0
  160.8570  213.2550  144.5990 N   0  0  0  0  0  0  0  0  0  0  0  0
  160.4070  212.7530  145.7050 C   0  0  0  0  0  3  0  0  0  0  0  0
  161.0670  212.4560  143.4320 C   0  0  0  0  0  0  0  0  0  0  0  0
  162.3780  212.5160  142.7320 C   0  0  0  0  0  1  0  0  0  0  0  0
  160.1600  211.6970  142.9920 O   0  0  0  0  0  0  0  0  0  0  0  0
  1  5  1  1  0  0  0
  1 13  1  0  0  0  0
  2  7  1  0  0  0  0
  4  6  2  0  0  0  0
  6 12  1  0  0  0  0
  7 11  1  0  0  0  0
  9  4  1  0  0  0  0
  9  2  2  0  0  0  0
 10  3  2  0  0  0  0
 11 10  1  0  0  0  0
 12 11  2  0  0  0  0
 12  1  1  0  0  0  0
 13  3  1  0  0  0  0
 13  8  2  0  0  0  0
 14 15  1  0  0  0  0
 15  9  1  0  0  0  0
 16 14  2  0  0  0  0
 17 18  1  0  0  0  0
 18 14  1  0  0  0  0
 19 20  1  0  0  0  0
 19  4  1  0  0  0  0
 21 23  1  0  0  0  0
 21 20  1  0  0  0  0
 23 22  1  6  0  0  0
 24 23  1  0  0  0  0
 25 26  2  0  0  0  0
 26 24  1  0  0  0  0
 27 25  1  0  0  0  0
 28 27  1  0  0  0  0
 29 27  2  0  0  0  0
M  END
>  <MODEL>
6

>  <REMARK>
 VINA RESULT:      -6.5      4.062      7.076
  Name = 
  9 active torsions:
  status: ('A' for Active; 'I' for Inactive)
    1  A    between atoms: N_3  and  C_4
    2  A    between atoms: C_6  and  O_16
    3  A    between atoms: C_7  and  O_21
    4  A    between atoms: N_11  and  C_15
    5  A    between atoms: O_16  and  C_26
    6  A    between atoms: C_18  and  C_19
    7  A    between atoms: C_18  and  C_22
    8  A    between atoms: C_19  and  C_29
    9  A    between atoms: C_26  and  C_29
                            x       y       z     vdW  Elec       q    Type
                         _______ _______ _______ _____ _____    ______ ____

>  <TORSDO>
F 9

$$$$
=
 OpenBabel11042423113D

 29 30  0  0  1  0  0  0  0  0999 V2000
  161.0080  209.5730  153.4840 C   0  0  1  0  0  3  0  0  0  0  0  0
  161.5910  206.3790  150.3700 C   0  0  0  0  0  3  0  0  0  0  0  0
  160.4760  207.4300  154.7510 N   0  0  0  0  0  0  0  0  0  0  0  0
  162.0050  208.7830  149.9170 C   0  0  0  0  0  0  0  0  0  0  0  0
  162.0620  210.3230  154.0080 O   0  0  0  0  0  1  0  0  0  0  0  0
  161.9960  209.2930  151.1640 C   0  0  0  0  0  3  0  0  0  0  0  0
  162.3250  206.4140  151.6650 C   0  0  0  0  0  2  0  0  0  0  0  0
  159.6080  209.4810  155.4200 O   0  0  0  0  0  0  0  0  0  0  0  0
  161.4660  207.4450  149.5680 C   0  0  0  0  0  0  0  0  0  0  0  0
  161.0940  206.7150  153.8610 C   0  0  0  0  0  3  0  0  0  0  0  0
  161.6380  207.3190  152.6310 C   0  0  0  0  0  0  0  0  0  0  0  0
  161.5280  208.6460  152.4100 C   0  0  0  0  0  0  0  0  0  0  0  0
  160.3130  208.8410  154.5970 C   0  0  0  0  0  0  0  0  0  0  0  0
  161.1100  206.3900  147.2690 C   0  0  0  0  0  0  0  0  0  0  0  0
  160.7810  207.3160  148.3150 N   0  0  0  0  0  2  0  0  0  0  0  0
  160.1810  205.8260  146.6380 O   0  0  0  0  0  0  0  0  0  0  0  0
  162.7900  205.0780  146.0190 C   0  0  0  0  0  1  0  0  0  0  0  0
  162.4340  206.1310  146.9020 O   0  0  0  0  0  0  0  0  0  0  0  0
  162.5010  209.5540  148.8570 O   0  0  0  0  0  0  0  0  0  0  0  0
  161.9010  210.7690  148.4240 C   0  0  0  0  0  2  0  0  0  0  0  0
  162.9760  211.8320  148.2630 C   0  0  0  0  0  2  0  0  0  0  0  0
  162.3800  213.2910  146.4540 O   0  0  0  0  0  1  0  0  0  0  0  0
  162.3970  213.1810  147.8470 C   0  0  1  0  0  3  0  0  0  0  0  0
  160.9970  213.3930  148.4130 C   0  0  0  0  0  2  0  0  0  0  0  0
  159.1250  212.7020  147.0490 N   0  0  0  0  0  0  0  0  0  0  0  0
  160.0140  213.6060  147.3130 C   0  0  0  0  0  3  0  0  0  0  0  0
  158.1580  212.8680  146.0080 C   0  0  0  0  0  0  0  0  0  0  0  0
  158.4310  213.8250  144.9030 C   0  0  0  0  0  1  0  0  0  0  0  0
  157.0810  212.2100  146.0120 O   0  0  0  0  0  0  0  0  0  0  0  0
  1  5  1  1  0  0  0
  1 13  1  0  0  0  0
  2  7  1  0  0  0  0
  4  6  2  0  0  0  0
  6 12  1  0  0  0  0
  7 11  1  0  0  0  0
  9  4  1  0  0  0  0
  9  2  2  0  0  0  0
 10  3  2  0  0  0  0
 11 10  1  0  0  0  0
 12 11  2  0  0  0  0
 12  1  1  0  0  0  0
 13  3  1  0  0  0  0
 13  8  2  0  0  0  0
 14 15  1  0  0  0  0
 15  9  1  0  0  0  0
 16 14  2  0  0  0  0
 17 18  1  0  0  0  0
 18 14  1  0  0  0  0
 19  4  1  0  0  0  0
 20 19  1  0  0  0  0
 21 20  1  0  0  0  0
 23 22  1  6  0  0  0
 23 21  1  0  0  0  0
 23 24  1  0  0  0  0
 25 26  2  0  0  0  0
 26 24  1  0  0  0  0
 27 29  2  0  0  0  0
 27 25  1  0  0  0  0
 28 27  1  0  0  0  0
M  END
>  <MODEL>
7

>  <REMARK>
 VINA RESULT:      -6.5      3.906      7.181
  Name = 
  9 active torsions:
  status: ('A' for Active; 'I' for Inactive)
    1  A    between atoms: N_3  and  C_4
    2  A    between atoms: C_6  and  O_16
    3  A    between atoms: C_7  and  O_21
    4  A    between atoms: N_11  and  C_15
    5  A    between atoms: O_16  and  C_26
    6  A    between atoms: C_18  and  C_19
    7  A    between atoms: C_18  and  C_22
    8  A    between atoms: C_19  and  C_29
    9  A    between atoms: C_26  and  C_29
                            x       y       z     vdW  Elec       q    Type
                         _______ _______ _______ _____ _____    ______ ____

>  <TORSDO>
F 9

$$$$
=
 OpenBabel11042423113D

 29 30  0  0  1  0  0  0  0  0999 V2000
  157.2010  211.8790  154.6380 C   0  0  1  0  0  3  0  0  0  0  0  0
  161.3180  210.2780  155.4880 C   0  0  0  0  0  3  0  0  0  0  0  0
  157.6130  212.5990  157.0450 N   0  0  0  0  0  0  0  0  0  0  0  0
  160.2210  210.0440  153.2760 C   0  0  0  0  0  0  0  0  0  0  0  0
  156.9630  212.9210  153.7420 O   0  0  0  0  0  1  0  0  0  0  0  0
  159.1880  210.9000  153.4010 C   0  0  0  0  0  3  0  0  0  0  0  0
  160.9490  211.7160  155.6090 C   0  0  0  0  0  2  0  0  0  0  0  0
  155.4590  212.3260  156.2130 O   0  0  0  0  0  0  0  0  0  0  0  0
  161.0090  209.5280  154.4220 C   0  0  0  0  0  0  0  0  0  0  0  0
  158.8930  212.4360  156.9060 C   0  0  0  0  0  3  0  0  0  0  0  0
  159.4670  211.8720  155.6710 C   0  0  0  0  0  0  0  0  0  0  0  0
  158.6710  211.5320  154.6350 C   0  0  0  0  0  0  0  0  0  0  0  0
  156.6980  212.2650  156.0000 C   0  0  0  0  0  0  0  0  0  0  0  0
  160.6250  207.0120  154.6380 C   0  0  0  0  0  0  0  0  0  0  0  0
  161.4400  208.1620  154.3650 N   0  0  0  0  0  2  0  0  0  0  0  0
  160.7580  205.9860  153.9240 O   0  0  0  0  0  0  0  0  0  0  0  0
  160.1330  207.0240  157.0590 C   0  0  0  0  0  1  0  0  0  0  0  0
  159.7190  206.9850  155.7020 O   0  0  0  0  0  0  0  0  0  0  0  0
  160.5660  209.5570  152.0080 O   0  0  0  0  0  0  0  0  0  0  0  0
  161.8110  209.8280  151.3760 C   0  0  0  0  0  2  0  0  0  0  0  0
  162.4200  208.5260  150.8840 C   0  0  0  0  0  2  0  0  0  0  0  0
  162.4460  207.6550  148.6490 O   0  0  0  0  0  1  0  0  0  0  0  0
  161.6160  207.9050  149.7450 C   0  0  1  0  0  3  0  0  0  0  0  0
  160.9130  206.6250  150.1830 C   0  0  0  0  0  2  0  0  0  0  0  0
  161.0800  204.3280  149.4500 N   0  0  0  0  0  0  0  0  0  0  0  0
  161.0210  205.5800  149.1250 C   0  0  0  0  0  3  0  0  0  0  0  0
  161.1760  203.2920  148.4680 C   0  0  0  0  0  0  0  0  0  0  0  0
  160.7340  201.9150  148.8140 C   0  0  0  0  0  1  0  0  0  0  0  0
  161.6240  203.5320  147.3130 O   0  0  0  0  0  0  0  0  0  0  0  0
  1  5  1  6  0  0  0
  1 13  1  0  0  0  0
  2  7  1  0  0  0  0
  4  6  2  0  0  0  0
  4  9  1  0  0  0  0
  6 12  1  0  0  0  0
  7 11  1  0  0  0  0
  9  2  2  0  0  0  0
 10  3  2  0  0  0  0
 11 10  1  0  0  0  0
 12  1  1  0  0  0  0
 12 11  2  0  0  0  0
 13  8  2  0  0  0  0
 13  3  1  0  0  0  0
 14 18  1  0  0  0  0
 15  9  1  0  0  0  0
 15 14  1  0  0  0  0
 16 14  2  0  0  0  0
 18 17  1  0  0  0  0
 19  4  1  0  0  0  0
 20 19  1  0  0  0  0
 21 20  1  0  0  0  0
 23 22  1  6  0  0  0
 23 24  1  0  0  0  0
 23 21  1  0  0  0  0
 26 25  2  0  0  0  0
 26 24  1  0  0  0  0
 27 28  1  0  0  0  0
 27 25  1  0  0  0  0
 29 27  2  0  0  0  0
M  END
>  <MODEL>
8

>  <REMARK>
 VINA RESULT:      -6.3      3.010      5.250
  Name = 
  9 active torsions:
  status: ('A' for Active; 'I' for Inactive)
    1  A    between atoms: N_3  and  C_4
    2  A    between atoms: C_6  and  O_16
    3  A    between atoms: C_7  and  O_21
    4  A    between atoms: N_11  and  C_15
    5  A    between atoms: O_16  and  C_26
    6  A    between atoms: C_18  and  C_19
    7  A    between atoms: C_18  and  C_22
    8  A    between atoms: C_19  and  C_29
    9  A    between atoms: C_26  and  C_29
                            x       y       z     vdW  Elec       q    Type
                         _______ _______ _______ _____ _____    ______ ____

>  <TORSDO>
F 9

$$$$
=
 OpenBabel11042423113D

 29 30  0  0  1  0  0  0  0  0999 V2000
  160.9550  209.5020  153.4300 C   0  0  1  0  0  3  0  0  0  0  0  0
  161.5800  206.1580  150.4860 C   0  0  0  0  0  3  0  0  0  0  0  0
  160.4630  207.4210  154.8100 N   0  0  0  0  0  0  0  0  0  0  0  0
  161.9520  208.5410  149.9050 C   0  0  0  0  0  0  0  0  0  0  0  0
  161.9980  210.2960  153.9080 O   0  0  0  0  0  1  0  0  0  0  0  0
  161.9390  209.1160  151.1230 C   0  0  0  0  0  3  0  0  0  0  0  0
  162.3180  206.2740  151.7750 C   0  0  0  0  0  2  0  0  0  0  0  0
  159.5640  209.4900  155.3740 O   0  0  0  0  0  0  0  0  0  0  0  0
  161.4350  207.1770  149.6300 C   0  0  0  0  0  0  0  0  0  0  0  0
  161.0900  206.6700  153.9570 C   0  0  0  0  0  3  0  0  0  0  0  0
  161.6190  207.2170  152.6950 C   0  0  0  0  0  0  0  0  0  0  0  0
  161.4870  208.5280  152.4040 C   0  0  0  0  0  0  0  0  0  0  0  0
  160.2770  208.8190  154.5830 C   0  0  0  0  0  0  0  0  0  0  0  0
  161.1990  206.1450  147.3050 C   0  0  0  0  0  0  0  0  0  0  0  0
  160.7470  206.9710  148.3890 N   0  0  0  0  0  2  0  0  0  0  0  0
  160.3610  205.4500  146.6760 O   0  0  0  0  0  0  0  0  0  0  0  0
  163.0820  205.0740  146.1170 C   0  0  0  0  0  1  0  0  0  0  0  0
  162.5370  206.1240  146.9000 O   0  0  0  0  0  0  0  0  0  0  0  0
  162.4310  209.2630  148.8040 O   0  0  0  0  0  0  0  0  0  0  0  0
  161.7870  210.4200  148.2840 C   0  0  0  0  0  2  0  0  0  0  0  0
  162.3010  211.6520  149.0110 C   0  0  0  0  0  2  0  0  0  0  0  0
  162.3580  212.5780  146.7990 O   0  0  0  0  0  1  0  0  0  0  0  0
  162.2170  212.9090  148.1500 C   0  0  1  0  0  3  0  0  0  0  0  0
  160.9140  213.6640  148.3790 C   0  0  0  0  0  2  0  0  0  0  0  0
  159.1890  213.6910  150.0730 N   0  0  0  0  0  0  0  0  0  0  0  0
  160.4280  213.4600  149.7740 C   0  0  0  0  0  3  0  0  0  0  0  0
  158.6790  213.5010  151.3960 C   0  0  0  0  0  0  0  0  0  0  0  0
  159.4140  212.6220  152.3430 C   0  0  0  0  0  1  0  0  0  0  0  0
  157.6190  214.0740  151.7710 O   0  0  0  0  0  0  0  0  0  0  0  0
  1  5  1  1  0  0  0
  1 13  1  0  0  0  0
  2  7  1  0  0  0  0
  4  6  2  0  0  0  0
  6 12  1  0  0  0  0
  7 11  1  0  0  0  0
  9  4  1  0  0  0  0
  9  2  2  0  0  0  0
 10  3  2  0  0  0  0
 11 10  1  0  0  0  0
 12 11  2  0  0  0  0
 12  1  1  0  0  0  0
 13  3  1  0  0  0  0
 13  8  2  0  0  0  0
 14 15  1  0  0  0  0
 15  9  1  0  0  0  0
 16 14  2  0  0  0  0
 17 18  1  0  0  0  0
 18 14  1  0  0  0  0
 19  4  1  0  0  0  0
 20 19  1  0  0  0  0
 20 21  1  0  0  0  0
 23 22  1  6  0  0  0
 23 24  1  0  0  0  0
 23 21  1  0  0  0  0
 24 26  1  0  0  0  0
 25 27  1  0  0  0  0
 26 25  2  0  0  0  0
 27 29  2  0  0  0  0
 27 28  1  0  0  0  0
M  END
>  <MODEL>
9

>  <REMARK>
 VINA RESULT:      -6.3      3.411      7.503
  Name = 
  9 active torsions:
  status: ('A' for Active; 'I' for Inactive)
    1  A    between atoms: N_3  and  C_4
    2  A    between atoms: C_6  and  O_16
    3  A    between atoms: C_7  and  O_21
    4  A    between atoms: N_11  and  C_15
    5  A    between atoms: O_16  and  C_26
    6  A    between atoms: C_18  and  C_19
    7  A    between atoms: C_18  and  C_22
    8  A    between atoms: C_19  and  C_29
    9  A    between atoms: C_26  and  C_29
                            x       y       z     vdW  Elec       q    Type
                         _______ _______ _______ _____ _____    ______ ____

>  <TORSDO>
F 9

$$$$
