=
 OpenBabel11042422343D

 33 35  0  0  1  0  0  0  0  0999 V2000
  160.5560  209.7570  154.2070 N   0  0  0  0  0  0  0  0  0  0  0  0
  160.0740  211.6150  155.2840 C   0  0  0  0  0  2  0  0  0  0  0  0
  160.0960  210.1510  155.5490 C   0  0  0  0  0  2  0  0  0  0  0  0
  160.5500  211.2050  153.9350 C   0  0  2  0  0  3  0  0  0  0  0  0
  161.9730  204.8980  151.5470 C   0  0  0  0  0  2  0  0  0  0  0  0
  161.1020  206.8580  149.0760 C   0  0  0  0  0  2  0  0  0  0  0  0
  161.2030  206.1410  153.5670 C   0  0  0  0  0  3  0  0  0  0  0  0
  160.9100  208.5450  153.5380 C   0  0  0  0  0  0  0  0  0  0  0  0
  161.1160  205.4870  148.5400 C   0  0  0  0  0  0  0  0  0  0  0  0
  160.8520  204.4620  150.7300 N   0  0  0  0  0  2  0  0  0  0  0  0
  161.6290  206.1710  152.2350 C   0  0  0  0  0  0  0  0  0  0  0  0
  161.3310  208.5740  152.2050 C   0  0  0  0  0  3  0  0  0  0  0  0
  162.1470  207.4630  150.0240 C   0  0  0  0  0  2  0  0  0  0  0  0
  161.6900  207.3940  151.5490 C   0  0  0  0  0  0  0  0  0  0  0  0
  160.8480  207.3250  154.2190 C   0  0  0  0  0  3  0  0  0  0  0  0
  162.2250  207.4990  149.1880 N   0  0  0  0  0  2  0  0  0  0  0  0
  160.9370  204.3910  149.3050 C   0  0  0  0  0  0  0  0  0  0  0  0
  160.7580  203.1150  148.6880 N   0  0  0  0  0  1  0  0  0  0  0  0
  161.1370  205.3600  147.0480 C   0  0  0  0  0  2  0  0  0  0  0  0
  162.8200  204.9860  146.4710 S   0  0  0  0  0  1  0  0  0  0  0  0
  159.4970  211.5530  152.8920 C   0  0  0  0  0  2  0  0  0  0  0  0
  160.1380  212.0020  151.6700 N   0  0  0  0  0  2  0  0  0  0  0  0
  159.7690  213.3940  151.4900 C   0  0  0  0  0  2  0  0  0  0  0  0
  159.5980  213.5310  148.9830 C   0  0  0  0  0  0  0  0  0  0  0  0
  158.9740  213.5380  150.2790 N   0  0  0  0  0  0  0  0  0  0  0  0
  158.8950  213.6280  147.9420 O   0  0  0  0  0  0  0  0  0  0  0  0
  157.5210  213.5520  150.4090 C   0  0  0  0  0  2  0  0  0  0  0  0
  157.1140  214.1620  151.7380 C   0  0  0  0  0  1  0  0  0  0  0  0
  161.1010  213.4520  148.8520 C   0  0  0  0  0  2  0  0  0  0  0  0
  162.1540  211.3060  148.7180 C   0  0  0  0  0  1  0  0  0  0  0  0
  161.5820  212.3980  147.9470 N   0  0  0  0  0  0  0  0  0  0  0  0
  162.6120  212.9130  147.0520 C   0  0  0  0  0  2  0  0  0  0  0  0
  161.9980  213.7340  146.0220 N   0  0  0  0  0  1  0  0  0  0  0  0
  1  3  1  0  0  0  0
  2  3  1  0  0  0  0
  4 21  1  6  0  0  0
  4  1  1  0  0  0  0
  4  2  1  0  0  0  0
  5 11  1  0  0  0  0
  6 16  1  0  0  0  0
  7 15  1  0  0  0  0
  8  1  1  0  0  0  0
  8 15  2  0  0  0  0
  9  6  1  0  0  0  0
  9 17  2  0  0  0  0
 10  5  1  0  0  0  0
 11  7  2  0  0  0  0
 12  8  1  0  0  0  0
 13 14  1  0  0  0  0
 14 12  2  0  0  0  0
 14 11  1  0  0  0  0
 16 13  1  0  0  0  0
 17 10  1  0  0  0  0
 18 17  1  0  0  0  0
 19  9  1  0  0  0  0
 20 19  1  0  0  0  0
 22 21  1  0  0  0  0
 23 22  1  0  0  0  0
 24 25  1  0  0  0  0
 25 27  1  0  0  0  0
 25 23  1  0  0  0  0
 26 24  2  0  0  0  0
 27 28  1  0  0  0  0
 29 24  1  0  0  0  0
 31 30  1  0  0  0  0
 31 29  1  0  0  0  0
 32 31  1  0  0  0  0
 33 32  1  0  0  0  0
M  END
>  <MODEL>
1

>  <REMARK>
 VINA RESULT:      -7.6      0.000      0.000
  Name = 
  10 active torsions:
  status: ('A' for Active; 'I' for Inactive)
    1  A    between atoms: N_1  and  C_7
    2  A    between atoms: C_5  and  N_15
    3  A    between atoms: C_5  and  C_28
    4  A    between atoms: C_8  and  C_9
    5  A    between atoms: C_13  and  N_32
    6  A    between atoms: N_15  and  C_27
    7  A    between atoms: C_17  and  C_26
    8  A    between atoms: C_18  and  N_22
    9  A    between atoms: N_22  and  C_27
   10  A    between atoms: C_26  and  N_32
                            x       y       z     vdW  Elec       q    Type
                         _______ _______ _______ _____ _____    ______ ____

>  <TORSDO>
F 10

$$$$
=
 OpenBabel11042422343D

 33 35  0  0  1  0  0  0  0  0999 V2000
  160.4700  209.3560  154.3850 N   0  0  0  0  0  0  0  0  0  0  0  0
  159.9460  211.1540  155.5410 C   0  0  0  0  0  2  0  0  0  0  0  0
  160.0730  209.6880  155.7630 C   0  0  0  0  0  2  0  0  0  0  0  0
  160.3590  210.8070  154.1550 C   0  0  2  0  0  3  0  0  0  0  0  0
  162.0030  204.6600  151.5070 C   0  0  0  0  0  2  0  0  0  0  0  0
  161.0640  206.7010  149.1290 C   0  0  0  0  0  2  0  0  0  0  0  0
  161.2120  205.7900  153.5830 C   0  0  0  0  0  3  0  0  0  0  0  0
  160.8520  208.1850  153.6620 C   0  0  0  0  0  0  0  0  0  0  0  0
  161.1120  205.3550  148.5320 C   0  0  0  0  0  0  0  0  0  0  0  0
  160.8900  204.2290  150.6770 N   0  0  0  0  0  2  0  0  0  0  0  0
  161.6280  205.8910  152.2510 C   0  0  0  0  0  0  0  0  0  0  0  0
  161.2640  208.2840  152.3290 C   0  0  0  0  0  3  0  0  0  0  0  0
  162.0970  207.2930  150.0970 C   0  0  0  0  0  2  0  0  0  0  0  0
  161.6520  207.1440  151.6200 C   0  0  0  0  0  0  0  0  0  0  0  0
  160.8280  206.9350  154.2880 C   0  0  0  0  0  3  0  0  0  0  0  0
  162.1690  207.3670  149.2630 N   0  0  0  0  0  2  0  0  0  0  0  0
  160.9670  204.2220  149.2490 C   0  0  0  0  0  0  0  0  0  0  0  0
  160.8200  202.9700  148.5780 N   0  0  0  0  0  1  0  0  0  0  0  0
  161.1270  205.2950  147.0360 C   0  0  0  0  0  2  0  0  0  0  0  0
  162.8150  204.9870  146.4360 S   0  0  0  0  0  1  0  0  0  0  0  0
  159.2220  211.1140  153.1890 C   0  0  0  0  0  2  0  0  0  0  0  0
  159.7220  211.8760  152.0600 N   0  0  0  0  0  2  0  0  0  0  0  0
  159.3870  213.2650  152.3100 C   0  0  0  0  0  2  0  0  0  0  0  0
  157.0240  214.0450  152.6830 C   0  0  0  0  0  0  0  0  0  0  0  0
  158.0500  213.5460  151.8070 N   0  0  0  0  0  0  0  0  0  0  0  0
  155.8790  214.3110  152.2280 O   0  0  0  0  0  0  0  0  0  0  0  0
  157.8180  213.4340  150.3710 C   0  0  0  0  0  2  0  0  0  0  0  0
  158.8350  214.2610  149.6040 C   0  0  0  0  0  1  0  0  0  0  0  0
  157.2890  214.2190  154.1600 C   0  0  0  0  0  2  0  0  0  0  0  0
  156.7740  213.6120  156.4180 C   0  0  0  0  0  1  0  0  0  0  0  0
  156.3210  213.5450  155.0380 N   0  0  0  0  0  0  0  0  0  0  0  0
  156.1790  212.1410  154.6730 C   0  0  0  0  0  2  0  0  0  0  0  0
  156.3330  211.3100  155.8550 N   0  0  0  0  0  1  0  0  0  0  0  0
  1  3  1  0  0  0  0
  2  3  1  0  0  0  0
  4 21  1  6  0  0  0
  4  1  1  0  0  0  0
  4  2  1  0  0  0  0
  5 11  1  0  0  0  0
  6 16  1  0  0  0  0
  7 15  1  0  0  0  0
  8 15  2  0  0  0  0
  8  1  1  0  0  0  0
  9  6  1  0  0  0  0
  9 17  2  0  0  0  0
 10  5  1  0  0  0  0
 11  7  2  0  0  0  0
 12  8  1  0  0  0  0
 13 14  1  0  0  0  0
 14 11  1  0  0  0  0
 14 12  2  0  0  0  0
 16 13  1  0  0  0  0
 17 10  1  0  0  0  0
 18 17  1  0  0  0  0
 19  9  1  0  0  0  0
 20 19  1  0  0  0  0
 22 23  1  0  0  0  0
 22 21  1  0  0  0  0
 24 29  1  0  0  0  0
 25 23  1  0  0  0  0
 25 24  1  0  0  0  0
 26 24  2  0  0  0  0
 27 25  1  0  0  0  0
 28 27  1  0  0  0  0
 29 31  1  0  0  0  0
 31 30  1  0  0  0  0
 32 31  1  0  0  0  0
 32 33  1  0  0  0  0
M  END
>  <MODEL>
2

>  <REMARK>
 VINA RESULT:      -7.1      2.131      3.946
  Name = 
  10 active torsions:
  status: ('A' for Active; 'I' for Inactive)
    1  A    between atoms: N_1  and  C_7
    2  A    between atoms: C_5  and  N_15
    3  A    between atoms: C_5  and  C_28
    4  A    between atoms: C_8  and  C_9
    5  A    between atoms: C_13  and  N_32
    6  A    between atoms: N_15  and  C_27
    7  A    between atoms: C_17  and  C_26
    8  A    between atoms: C_18  and  N_22
    9  A    between atoms: N_22  and  C_27
   10  A    between atoms: C_26  and  N_32
                            x       y       z     vdW  Elec       q    Type
                         _______ _______ _______ _____ _____    ______ ____

>  <TORSDO>
F 10

$$$$
=
 OpenBabel11042422343D

 33 35  0  0  1  0  0  0  0  0999 V2000
  160.9680  205.7720  152.2170 N   0  0  0  0  0  0  0  0  0  0  0  0
  160.9590  203.5990  151.8700 C   0  0  0  0  0  2  0  0  0  0  0  0
  161.3480  204.5510  152.9460 C   0  0  0  0  0  2  0  0  0  0  0  0
  160.5680  204.8400  151.1490 C   0  0  2  0  0  3  0  0  0  0  0  0
  160.8520  211.3960  153.2400 C   0  0  0  0  0  2  0  0  0  0  0  0
  159.0380  210.1730  155.6730 C   0  0  0  0  0  2  0  0  0  0  0  0
  161.1210  209.4610  151.6910 C   0  0  0  0  0  3  0  0  0  0  0  0
  160.9360  207.1770  152.4770 C   0  0  0  0  0  0  0  0  0  0  0  0
  158.7570  211.6180  155.6250 C   0  0  0  0  0  0  0  0  0  0  0  0
  159.4680  211.8370  153.3080 N   0  0  0  0  0  2  0  0  0  0  0  0
  160.9030  209.9310  152.9910 C   0  0  0  0  0  0  0  0  0  0  0  0
  160.7140  207.6480  153.7750 C   0  0  0  0  0  3  0  0  0  0  0  0
  160.4190  209.5200  155.5250 C   0  0  0  0  0  2  0  0  0  0  0  0
  160.6950  209.0210  154.0380 C   0  0  0  0  0  0  0  0  0  0  0  0
  161.1410  208.0870  151.4360 C   0  0  0  0  0  3  0  0  0  0  0  0
  160.1150  209.7630  156.2700 N   0  0  0  0  0  2  0  0  0  0  0  0
  158.9000  212.3640  154.5100 C   0  0  0  0  0  0  0  0  0  0  0  0
  158.4160  213.7070  154.4860 N   0  0  0  0  0  1  0  0  0  0  0  0
  158.1000  212.2050  156.8360 C   0  0  0  0  0  2  0  0  0  0  0  0
  156.3130  211.8720  156.8050 S   0  0  0  0  0  1  0  0  0  0  0  0
  161.4490  205.0190  149.9200 C   0  0  0  0  0  2  0  0  0  0  0  0
  160.8200  204.4060  148.7650 N   0  0  0  0  0  2  0  0  0  0  0  0
  161.7760  203.4600  148.2190 C   0  0  0  0  0  2  0  0  0  0  0  0
  161.0950  202.8700  145.8690 C   0  0  0  0  0  0  0  0  0  0  0  0
  161.1050  202.5750  147.2770 N   0  0  0  0  0  0  0  0  0  0  0  0
  160.5360  202.0810  145.0610 O   0  0  0  0  0  0  0  0  0  0  0  0
  160.5640  201.3180  147.7810 C   0  0  0  0  0  2  0  0  0  0  0  0
  161.0820  201.0410  149.1810 C   0  0  0  0  0  1  0  0  0  0  0  0
  161.7140  204.1450  145.3450 C   0  0  0  0  0  2  0  0  0  0  0  0
  161.3560  205.6030  143.4800 C   0  0  0  0  0  1  0  0  0  0  0  0
  160.7670  205.0620  144.6940 N   0  0  0  0  0  0  0  0  0  0  0  0
  160.4340  206.1760  145.5740 C   0  0  0  0  0  2  0  0  0  0  0  0
  161.5840  206.5080  146.3980 N   0  0  0  0  0  1  0  0  0  0  0  0
  1  8  1  0  0  0  0
  1  3  1  0  0  0  0
  2  3  1  0  0  0  0
  4 21  1  6  0  0  0
  4  2  1  0  0  0  0
  4  1  1  0  0  0  0
  5 10  1  0  0  0  0
  6 16  1  0  0  0  0
  7 11  1  0  0  0  0
  8 12  2  0  0  0  0
  9  6  1  0  0  0  0
  9 19  1  0  0  0  0
 10 17  1  0  0  0  0
 11  5  1  0  0  0  0
 11 14  2  0  0  0  0
 12 14  1  0  0  0  0
 13 16  1  0  0  0  0
 14 13  1  0  0  0  0
 15  7  2  0  0  0  0
 15  8  1  0  0  0  0
 17  9  2  0  0  0  0
 18 17  1  0  0  0  0
 20 19  1  0  0  0  0
 22 21  1  0  0  0  0
 23 22  1  0  0  0  0
 24 25  1  0  0  0  0
 25 27  1  0  0  0  0
 25 23  1  0  0  0  0
 26 24  2  0  0  0  0
 27 28  1  0  0  0  0
 29 24  1  0  0  0  0
 30 31  1  0  0  0  0
 31 29  1  0  0  0  0
 31 32  1  0  0  0  0
 32 33  1  0  0  0  0
M  END
>  <MODEL>
3

>  <REMARK>
 VINA RESULT:      -6.8      4.364      8.742
  Name = 
  10 active torsions:
  status: ('A' for Active; 'I' for Inactive)
    1  A    between atoms: N_1  and  C_7
    2  A    between atoms: C_5  and  N_15
    3  A    between atoms: C_5  and  C_28
    4  A    between atoms: C_8  and  C_9
    5  A    between atoms: C_13  and  N_32
    6  A    between atoms: N_15  and  C_27
    7  A    between atoms: C_17  and  C_26
    8  A    between atoms: C_18  and  N_22
    9  A    between atoms: N_22  and  C_27
   10  A    between atoms: C_26  and  N_32
                            x       y       z     vdW  Elec       q    Type
                         _______ _______ _______ _____ _____    ______ ____

>  <TORSDO>
F 10

$$$$
=
 OpenBabel11042422343D

 33 35  0  0  1  0  0  0  0  0999 V2000
  161.0820  206.9650  152.5520 N   0  0  0  0  0  0  0  0  0  0  0  0
  161.4350  204.8390  152.1110 C   0  0  0  0  0  2  0  0  0  0  0  0
  161.5590  205.7690  153.2660 C   0  0  0  0  0  2  0  0  0  0  0  0
  160.9440  206.0520  151.4040 C   0  0  2  0  0  3  0  0  0  0  0  0
  160.0190  212.4430  153.8000 C   0  0  0  0  0  2  0  0  0  0  0  0
  158.2460  210.8280  156.0250 C   0  0  0  0  0  2  0  0  0  0  0  0
  160.6970  210.6580  152.1970 C   0  0  0  0  0  3  0  0  0  0  0  0
  160.8140  208.3330  152.8680 C   0  0  0  0  0  0  0  0  0  0  0  0
  157.7480  212.2150  156.0170 C   0  0  0  0  0  0  0  0  0  0  0  0
  158.5820  212.6640  153.7760 N   0  0  0  0  0  2  0  0  0  0  0  0
  160.3150  211.0180  153.4940 C   0  0  0  0  0  0  0  0  0  0  0  0
  160.4270  208.6930  154.1620 C   0  0  0  0  0  3  0  0  0  0  0  0
  159.7190  210.4020  155.9610 C   0  0  0  0  0  2  0  0  0  0  0  0
  160.1760  210.0310  154.4810 C   0  0  0  0  0  0  0  0  0  0  0  0
  160.9500  209.3180  151.8860 C   0  0  0  0  0  3  0  0  0  0  0  0
  159.3270  210.5550  156.6890 N   0  0  0  0  0  2  0  0  0  0  0  0
  157.8530  213.0320  154.9490 C   0  0  0  0  0  0  0  0  0  0  0  0
  157.1690  214.2860  154.9440 N   0  0  0  0  0  1  0  0  0  0  0  0
  156.9210  212.6280  157.1950 C   0  0  0  0  0  2  0  0  0  0  0  0
  155.3790  211.6670  157.2500 S   0  0  0  0  0  1  0  0  0  0  0  0
  161.9170  206.4290  150.2950 C   0  0  0  0  0  2  0  0  0  0  0  0
  161.1940  206.9920  149.1710 N   0  0  0  0  0  2  0  0  0  0  0  0
  160.4310  205.9090  148.5780 C   0  0  0  0  0  2  0  0  0  0  0  0
  161.5480  203.9610  147.4420 C   0  0  0  0  0  0  0  0  0  0  0  0
  161.1670  205.3480  147.4540 N   0  0  0  0  0  0  0  0  0  0  0  0
  162.1590  203.4820  146.4500 O   0  0  0  0  0  0  0  0  0  0  0  0
  161.3890  206.1950  146.2870 C   0  0  0  0  0  2  0  0  0  0  0  0
  160.2000  206.1260  145.3470 C   0  0  0  0  0  1  0  0  0  0  0  0
  161.2580  203.0730  148.6290 C   0  0  0  0  0  2  0  0  0  0  0  0
  159.5430  201.5540  149.3230 C   0  0  0  0  0  1  0  0  0  0  0  0
  160.5410  201.8310  148.3030 N   0  0  0  0  0  0  0  0  0  0  0  0
  161.4590  200.7010  148.2440 C   0  0  0  0  0  2  0  0  0  0  0  0
  161.4540  200.1360  146.9050 N   0  0  0  0  0  1  0  0  0  0  0  0
  1  8  1  0  0  0  0
  1  3  1  0  0  0  0
  2  3  1  0  0  0  0
  4 21  1  6  0  0  0
  4  2  1  0  0  0  0
  4  1  1  0  0  0  0
  6 16  1  0  0  0  0
  7 11  1  0  0  0  0
  8 12  2  0  0  0  0
  9  6  1  0  0  0  0
  9 19  1  0  0  0  0
 10  5  1  0  0  0  0
 10 17  1  0  0  0  0
 11  5  1  0  0  0  0
 11 14  2  0  0  0  0
 12 14  1  0  0  0  0
 13 16  1  0  0  0  0
 14 13  1  0  0  0  0
 15  7  2  0  0  0  0
 15  8  1  0  0  0  0
 17  9  2  0  0  0  0
 18 17  1  0  0  0  0
 19 20  1  0  0  0  0
 22 21  1  0  0  0  0
 23 22  1  0  0  0  0
 24 25  1  0  0  0  0
 24 29  1  0  0  0  0
 25 23  1  0  0  0  0
 26 24  2  0  0  0  0
 27 25  1  0  0  0  0
 28 27  1  0  0  0  0
 31 29  1  0  0  0  0
 31 30  1  0  0  0  0
 32 31  1  0  0  0  0
 33 32  1  0  0  0  0
M  END
>  <MODEL>
4

>  <REMARK>
 VINA RESULT:      -6.7      4.281      8.945
  Name = 
  10 active torsions:
  status: ('A' for Active; 'I' for Inactive)
    1  A    between atoms: N_1  and  C_7
    2  A    between atoms: C_5  and  N_15
    3  A    between atoms: C_5  and  C_28
    4  A    between atoms: C_8  and  C_9
    5  A    between atoms: C_13  and  N_32
    6  A    between atoms: N_15  and  C_27
    7  A    between atoms: C_17  and  C_26
    8  A    between atoms: C_18  and  N_22
    9  A    between atoms: N_22  and  C_27
   10  A    between atoms: C_26  and  N_32
                            x       y       z     vdW  Elec       q    Type
                         _______ _______ _______ _____ _____    ______ ____

>  <TORSDO>
F 10

$$$$
=
 OpenBabel11042422343D

 33 35  0  0  1  0  0  0  0  0999 V2000
  161.9740  210.0720  149.6960 N   0  0  0  0  0  0  0  0  0  0  0  0
  161.8040  208.5020  151.2290 C   0  0  0  0  0  2  0  0  0  0  0  0
  162.1820  209.9390  151.1470 C   0  0  0  0  0  2  0  0  0  0  0  0
  161.5850  208.6520  149.7650 C   0  0  2  0  0  3  0  0  0  0  0  0
  162.2720  214.2520  145.8060 C   0  0  0  0  0  2  0  0  0  0  0  0
  160.0660  212.2080  144.5170 C   0  0  0  0  0  2  0  0  0  0  0  0
  163.2610  212.9290  147.6740 C   0  0  0  0  0  3  0  0  0  0  0  0
  162.0440  211.1140  148.7210 C   0  0  0  0  0  0  0  0  0  0  0  0
  160.4910  213.1080  143.4300 C   0  0  0  0  0  0  0  0  0  0  0  0
  162.5950  213.6720  144.5120 N   0  0  0  0  0  2  0  0  0  0  0  0
  162.1740  213.1770  146.8290 C   0  0  0  0  0  0  0  0  0  0  0  0
  160.9600  211.3600  147.8730 C   0  0  0  0  0  3  0  0  0  0  0  0
  159.7710  212.6240  145.9640 C   0  0  0  0  0  2  0  0  0  0  0  0
  161.0180  212.3860  146.9260 C   0  0  0  0  0  0  0  0  0  0  0  0
  163.1950  211.9020  148.6200 C   0  0  0  0  0  3  0  0  0  0  0  0
  159.1800  212.6280  145.3670 N   0  0  0  0  0  2  0  0  0  0  0  0
  161.6880  213.7290  143.4090 C   0  0  0  0  0  0  0  0  0  0  0  0
  162.1100  214.4180  142.2320 N   0  0  0  0  0  1  0  0  0  0  0  0
  159.6060  213.1510  142.2230 C   0  0  0  0  0  2  0  0  0  0  0  0
  160.0690  211.8360  141.0560 S   0  0  0  0  0  1  0  0  0  0  0  0
  162.5800  207.7840  149.0060 C   0  0  0  0  0  2  0  0  0  0  0  0
  162.0850  207.5150  147.6690 N   0  0  0  0  0  2  0  0  0  0  0  0
  160.9420  206.6340  147.8130 C   0  0  0  0  0  2  0  0  0  0  0  0
  161.2080  204.2310  148.5150 C   0  0  0  0  0  0  0  0  0  0  0  0
  161.3390  205.2640  147.5210 N   0  0  0  0  0  0  0  0  0  0  0  0
  161.5290  203.0450  148.2390 O   0  0  0  0  0  0  0  0  0  0  0  0
  161.7440  204.9420  146.1570 C   0  0  0  0  0  2  0  0  0  0  0  0
  160.6780  205.3800  145.1690 C   0  0  0  0  0  1  0  0  0  0  0  0
  160.7270  204.5600  149.9080 C   0  0  0  0  0  2  0  0  0  0  0  0
  160.8500  203.0600  151.7700 C   0  0  0  0  0  1  0  0  0  0  0  0
  161.5810  204.0440  150.9880 N   0  0  0  0  0  0  0  0  0  0  0  0
  161.9970  205.1190  151.8800 C   0  0  0  0  0  2  0  0  0  0  0  0
  161.1980  205.0830  153.0940 N   0  0  0  0  0  1  0  0  0  0  0  0
  1  4  1  0  0  0  0
  1  3  1  0  0  0  0
  3  2  1  0  0  0  0
  4 21  1  6  0  0  0
  4  2  1  0  0  0  0
  5 11  1  0  0  0  0
  6 16  1  0  0  0  0
  7 15  1  0  0  0  0
  8  1  1  0  0  0  0
  9  6  1  0  0  0  0
 10  5  1  0  0  0  0
 11 14  1  0  0  0  0
 11  7  2  0  0  0  0
 12  8  1  0  0  0  0
 13 14  1  0  0  0  0
 14 12  2  0  0  0  0
 15  8  2  0  0  0  0
 16 13  1  0  0  0  0
 17  9  2  0  0  0  0
 17 10  1  0  0  0  0
 18 17  1  0  0  0  0
 19  9  1  0  0  0  0
 20 19  1  0  0  0  0
 22 23  1  0  0  0  0
 22 21  1  0  0  0  0
 24 29  1  0  0  0  0
 25 23  1  0  0  0  0
 25 24  1  0  0  0  0
 26 24  2  0  0  0  0
 27 25  1  0  0  0  0
 28 27  1  0  0  0  0
 29 31  1  0  0  0  0
 31 30  1  0  0  0  0
 31 32  1  0  0  0  0
 32 33  1  0  0  0  0
M  END
>  <MODEL>
5

>  <REMARK>
 VINA RESULT:      -6.3      3.794      8.690
  Name = 
  10 active torsions:
  status: ('A' for Active; 'I' for Inactive)
    1  A    between atoms: N_1  and  C_7
    2  A    between atoms: C_5  and  N_15
    3  A    between atoms: C_5  and  C_28
    4  A    between atoms: C_8  and  C_9
    5  A    between atoms: C_13  and  N_32
    6  A    between atoms: N_15  and  C_27
    7  A    between atoms: C_17  and  C_26
    8  A    between atoms: C_18  and  N_22
    9  A    between atoms: N_22  and  C_27
   10  A    between atoms: C_26  and  N_32
                            x       y       z     vdW  Elec       q    Type
                         _______ _______ _______ _____ _____    ______ ____

>  <TORSDO>
F 10

$$$$
=
 OpenBabel11042422343D

 33 35  0  0  1  0  0  0  0  0999 V2000
  161.6130  212.1320  148.9980 N   0  0  0  0  0  0  0  0  0  0  0  0
  161.2560  214.1010  148.0820 C   0  0  0  0  0  2  0  0  0  0  0  0
  162.3400  213.0830  148.1420 C   0  0  0  0  0  2  0  0  0  0  0  0
  160.5260  213.1250  148.9370 C   0  0  2  0  0  3  0  0  0  0  0  0
  162.5400  206.9420  151.2100 C   0  0  0  0  0  2  0  0  0  0  0  0
  161.2140  206.2680  148.2970 C   0  0  0  0  0  2  0  0  0  0  0  0
  162.1520  209.3910  151.4690 C   0  0  0  0  0  3  0  0  0  0  0  0
  161.8430  210.8330  149.5460 C   0  0  0  0  0  0  0  0  0  0  0  0
  161.1360  205.0300  149.0900 C   0  0  0  0  0  0  0  0  0  0  0  0
  161.2900  206.2000  151.2170 N   0  0  0  0  0  2  0  0  0  0  0  0
  162.3220  208.2900  150.6220 C   0  0  0  0  0  0  0  0  0  0  0  0
  162.0090  209.7310  148.7010 C   0  0  0  0  0  3  0  0  0  0  0  0
  162.4120  207.2250  148.2380 C   0  0  0  0  0  2  0  0  0  0  0  0
  162.2480  208.4600  149.2320 C   0  0  0  0  0  0  0  0  0  0  0  0
  161.9170  210.6600  150.9320 C   0  0  0  0  0  3  0  0  0  0  0  0
  162.3330  206.5710  147.7160 N   0  0  0  0  0  2  0  0  0  0  0  0
  161.1090  205.0140  150.4380 C   0  0  0  0  0  0  0  0  0  0  0  0
  160.8270  203.7970  151.1300 N   0  0  0  0  0  1  0  0  0  0  0  0
  160.8790  203.7690  148.3240 C   0  0  0  0  0  2  0  0  0  0  0  0
  161.5830  203.8940  146.6520 S   0  0  0  0  0  1  0  0  0  0  0  0
  160.2750  213.7340  150.3100 C   0  0  0  0  0  2  0  0  0  0  0  0
  158.8700  213.6190  150.6540 N   0  0  0  0  0  2  0  0  0  0  0  0
  158.7660  212.5690  151.6500 C   0  0  0  0  0  2  0  0  0  0  0  0
  159.3320  212.7300  154.0970 C   0  0  0  0  0  0  0  0  0  0  0  0
  158.5560  213.1590  152.9640 N   0  0  0  0  0  0  0  0  0  0  0  0
  159.1590  213.2700  155.2220 O   0  0  0  0  0  0  0  0  0  0  0  0
  157.6350  214.2860  153.0720 C   0  0  0  0  0  2  0  0  0  0  0  0
  156.2230  213.7930  153.3330 C   0  0  0  0  0  1  0  0  0  0  0  0
  160.3300  211.6040  153.9650 C   0  0  0  0  0  2  0  0  0  0  0  0
  162.0800  210.6970  155.3240 C   0  0  0  0  0  1  0  0  0  0  0  0
  160.6460  210.9160  155.2250 N   0  0  0  0  0  0  0  0  0  0  0  0
  159.9820  209.6200  155.2890 C   0  0  0  0  0  2  0  0  0  0  0  0
  160.6910  208.6650  154.4540 N   0  0  0  0  0  1  0  0  0  0  0  0
  1  8  1  0  0  0  0
  2  3  1  0  0  0  0
  2  4  1  0  0  0  0
  3  1  1  0  0  0  0
  4  1  1  0  0  0  0
  4 21  1  1  0  0  0
  5 10  1  0  0  0  0
  6  9  1  0  0  0  0
  8 15  2  0  0  0  0
  9 17  2  0  0  0  0
 11  5  1  0  0  0  0
 11  7  2  0  0  0  0
 12 14  2  0  0  0  0
 12  8  1  0  0  0  0
 13 14  1  0  0  0  0
 14 11  1  0  0  0  0
 15  7  1  0  0  0  0
 16 13  1  0  0  0  0
 16  6  1  0  0  0  0
 17 18  1  0  0  0  0
 17 10  1  0  0  0  0
 19  9  1  0  0  0  0
 20 19  1  0  0  0  0
 21 22  1  0  0  0  0
 22 23  1  0  0  0  0
 23 25  1  0  0  0  0
 24 26  2  0  0  0  0
 25 27  1  0  0  0  0
 25 24  1  0  0  0  0
 27 28  1  0  0  0  0
 29 24  1  0  0  0  0
 29 31  1  0  0  0  0
 31 32  1  0  0  0  0
 31 30  1  0  0  0  0
 33 32  1  0  0  0  0
M  END
>  <MODEL>
6

>  <REMARK>
 VINA RESULT:      -6.3      2.018      4.745
  Name = 
  10 active torsions:
  status: ('A' for Active; 'I' for Inactive)
    1  A    between atoms: N_1  and  C_7
    2  A    between atoms: C_5  and  N_15
    3  A    between atoms: C_5  and  C_28
    4  A    between atoms: C_8  and  C_9
    5  A    between atoms: C_13  and  N_32
    6  A    between atoms: N_15  and  C_27
    7  A    between atoms: C_17  and  C_26
    8  A    between atoms: C_18  and  N_22
    9  A    between atoms: N_22  and  C_27
   10  A    between atoms: C_26  and  N_32
                            x       y       z     vdW  Elec       q    Type
                         _______ _______ _______ _____ _____    ______ ____

>  <TORSDO>
F 10

$$$$
=
 OpenBabel11042422343D

 33 35  0  0  1  0  0  0  0  0999 V2000
  160.9580  205.6510  152.0360 N   0  0  0  0  0  0  0  0  0  0  0  0
  160.8340  203.5070  151.5550 C   0  0  0  0  0  2  0  0  0  0  0  0
  161.2010  204.3670  152.7130 C   0  0  0  0  0  2  0  0  0  0  0  0
  160.5810  204.8110  150.8850 C   0  0  2  0  0  3  0  0  0  0  0  0
  161.1320  211.2030  153.3910 C   0  0  0  0  0  2  0  0  0  0  0  0
  159.2520  209.9330  155.7480 C   0  0  0  0  0  2  0  0  0  0  0  0
  161.3030  209.3520  151.7300 C   0  0  0  0  0  3  0  0  0  0  0  0
  160.9990  207.0370  152.3790 C   0  0  0  0  0  0  0  0  0  0  0  0
  159.0460  211.3910  155.7870 C   0  0  0  0  0  0  0  0  0  0  0  0
  159.7720  211.7090  153.4870 N   0  0  0  0  0  2  0  0  0  0  0  0
  161.1070  209.7550  153.0550 C   0  0  0  0  0  0  0  0  0  0  0  0
  160.7990  207.4410  153.7020 C   0  0  0  0  0  3  0  0  0  0  0  0
  160.5980  209.2190  155.5610 C   0  0  0  0  0  2  0  0  0  0  0  0
  160.8500  208.7950  154.0460 C   0  0  0  0  0  0  0  0  0  0  0  0
  161.2530  207.9960  151.3930 C   0  0  0  0  0  3  0  0  0  0  0  0
  160.3040  209.4330  156.3190 N   0  0  0  0  0  2  0  0  0  0  0  0
  159.2300  212.1930  154.7190 C   0  0  0  0  0  0  0  0  0  0  0  0
  158.8150  213.5580  154.7750 N   0  0  0  0  0  1  0  0  0  0  0  0
  158.4180  211.9380  157.0310 C   0  0  0  0  0  2  0  0  0  0  0  0
  156.6070  211.8270  156.9220 S   0  0  0  0  0  1  0  0  0  0  0  0
  161.5630  204.9970  149.7370 C   0  0  0  0  0  2  0  0  0  0  0  0
  160.8490  205.3680  148.5290 N   0  0  0  0  0  2  0  0  0  0  0  0
  161.8150  205.3440  147.4460 C   0  0  0  0  0  2  0  0  0  0  0  0
  161.1080  203.3320  146.1100 C   0  0  0  0  0  0  0  0  0  0  0  0
  161.2060  204.7590  146.2600 N   0  0  0  0  0  0  0  0  0  0  0  0
  160.5520  202.8400  145.0910 O   0  0  0  0  0  0  0  0  0  0  0  0
  160.5810  205.6570  145.2950 C   0  0  0  0  0  2  0  0  0  0  0  0
  161.2920  205.5760  143.9560 C   0  0  0  0  0  1  0  0  0  0  0  0
  161.7020  202.4060  147.1450 C   0  0  0  0  0  2  0  0  0  0  0  0
  160.4340  201.4250  148.9220 C   0  0  0  0  0  1  0  0  0  0  0  0
  160.8350  201.2840  147.5320 N   0  0  0  0  0  0  0  0  0  0  0  0
  161.5330  200.0130  147.3850 C   0  0  0  0  0  2  0  0  0  0  0  0
  161.3060  199.4810  146.0520 N   0  0  0  0  0  1  0  0  0  0  0  0
  1  8  1  0  0  0  0
  1  3  1  0  0  0  0
  2  3  1  0  0  0  0
  4 21  1  6  0  0  0
  4  2  1  0  0  0  0
  4  1  1  0  0  0  0
  5 10  1  0  0  0  0
  6  9  1  0  0  0  0
  6 16  1  0  0  0  0
  7 11  1  0  0  0  0
  8 12  2  0  0  0  0
  9 19  1  0  0  0  0
 10 17  1  0  0  0  0
 11  5  1  0  0  0  0
 11 14  2  0  0  0  0
 12 14  1  0  0  0  0
 13 16  1  0  0  0  0
 14 13  1  0  0  0  0
 15  7  2  0  0  0  0
 15  8  1  0  0  0  0
 17 18  1  0  0  0  0
 17  9  2  0  0  0  0
 20 19  1  0  0  0  0
 22 21  1  0  0  0  0
 23 22  1  0  0  0  0
 24 25  1  0  0  0  0
 24 29  1  0  0  0  0
 25 23  1  0  0  0  0
 26 24  2  0  0  0  0
 27 25  1  0  0  0  0
 28 27  1  0  0  0  0
 29 31  1  0  0  0  0
 31 30  1  0  0  0  0
 32 31  1  0  0  0  0
 33 32  1  0  0  0  0
M  END
>  <MODEL>
7

>  <REMARK>
 VINA RESULT:      -6.2      4.386      9.032
  Name = 
  10 active torsions:
  status: ('A' for Active; 'I' for Inactive)
    1  A    between atoms: N_1  and  C_7
    2  A    between atoms: C_5  and  N_15
    3  A    between atoms: C_5  and  C_28
    4  A    between atoms: C_8  and  C_9
    5  A    between atoms: C_13  and  N_32
    6  A    between atoms: N_15  and  C_27
    7  A    between atoms: C_17  and  C_26
    8  A    between atoms: C_18  and  N_22
    9  A    between atoms: N_22  and  C_27
   10  A    between atoms: C_26  and  N_32
                            x       y       z     vdW  Elec       q    Type
                         _______ _______ _______ _____ _____    ______ ____

>  <TORSDO>
F 10

$$$$
=
 OpenBabel11042422343D

 33 35  0  0  1  0  0  0  0  0999 V2000
  162.0100  210.1120  149.4680 N   0  0  0  0  0  0  0  0  0  0  0  0
  161.8630  208.5760  151.0370 C   0  0  0  0  0  2  0  0  0  0  0  0
  162.1580  210.0310  150.9300 C   0  0  0  0  0  2  0  0  0  0  0  0
  161.7050  208.6730  149.5610 C   0  0  2  0  0  3  0  0  0  0  0  0
  162.2420  214.1950  145.4720 C   0  0  0  0  0  2  0  0  0  0  0  0
  160.0310  212.1100  144.2610 C   0  0  0  0  0  2  0  0  0  0  0  0
  163.2600  212.9230  147.3600 C   0  0  0  0  0  3  0  0  0  0  0  0
  162.0640  211.1300  148.4670 C   0  0  0  0  0  0  0  0  0  0  0  0
  160.4380  212.9840  143.1470 C   0  0  0  0  0  0  0  0  0  0  0  0
  162.5530  213.5850  144.1900 N   0  0  0  0  0  2  0  0  0  0  0  0
  162.1610  213.1450  146.5220 C   0  0  0  0  0  0  0  0  0  0  0  0
  160.9690  211.3490  147.6260 C   0  0  0  0  0  3  0  0  0  0  0  0
  159.7510  212.5610  145.7010 C   0  0  0  0  0  2  0  0  0  0  0  0
  161.0110  212.3520  146.6540 C   0  0  0  0  0  0  0  0  0  0  0  0
  163.2100  211.9200  148.3330 C   0  0  0  0  0  3  0  0  0  0  0  0
  159.1530  212.5470  145.1110 N   0  0  0  0  0  2  0  0  0  0  0  0
  161.6320  213.6100  143.0960 C   0  0  0  0  0  0  0  0  0  0  0  0
  162.0370  214.2710  141.8970 N   0  0  0  0  0  1  0  0  0  0  0  0
  159.5390  212.9930  141.9500 C   0  0  0  0  0  2  0  0  0  0  0  0
  160.0180  211.6750  140.7930 S   0  0  0  0  0  1  0  0  0  0  0  0
  162.7840  207.8470  148.8740 C   0  0  0  0  0  2  0  0  0  0  0  0
  162.1750  206.8760  147.9850 N   0  0  0  0  0  2  0  0  0  0  0  0
  160.8980  206.5130  148.5710 C   0  0  0  0  0  2  0  0  0  0  0  0
  161.4800  204.0870  148.2320 C   0  0  0  0  0  0  0  0  0  0  0  0
  160.9550  205.1420  149.0580 N   0  0  0  0  0  0  0  0  0  0  0  0
  161.5500  202.9110  148.6770 O   0  0  0  0  0  0  0  0  0  0  0  0
  160.5930  204.8910  150.4490 C   0  0  0  0  0  2  0  0  0  0  0  0
  161.7480  205.2430  151.3690 C   0  0  0  0  0  1  0  0  0  0  0  0
  161.9130  204.3660  146.8110 C   0  0  0  0  0  2  0  0  0  0  0  0
  160.9450  202.6890  145.4030 C   0  0  0  0  0  1  0  0  0  0  0  0
  160.8890  204.0880  145.7940 N   0  0  0  0  0  0  0  0  0  0  0  0
  161.1040  204.9030  144.6050 C   0  0  0  0  0  2  0  0  0  0  0  0
  160.5000  206.2110  144.7920 N   0  0  0  0  0  1  0  0  0  0  0  0
  1  4  1  0  0  0  0
  1  3  1  0  0  0  0
  3  2  1  0  0  0  0
  4 21  1  6  0  0  0
  4  2  1  0  0  0  0
  5 11  1  0  0  0  0
  6 16  1  0  0  0  0
  7 15  1  0  0  0  0
  8  1  1  0  0  0  0
  9  6  1  0  0  0  0
 10  5  1  0  0  0  0
 11 14  1  0  0  0  0
 11  7  2  0  0  0  0
 12  8  1  0  0  0  0
 13 14  1  0  0  0  0
 14 12  2  0  0  0  0
 15  8  2  0  0  0  0
 16 13  1  0  0  0  0
 17  9  2  0  0  0  0
 17 10  1  0  0  0  0
 18 17  1  0  0  0  0
 19  9  1  0  0  0  0
 20 19  1  0  0  0  0
 22 23  1  0  0  0  0
 22 21  1  0  0  0  0
 23 25  1  0  0  0  0
 24 26  2  0  0  0  0
 24 25  1  0  0  0  0
 25 27  1  0  0  0  0
 27 28  1  0  0  0  0
 29 24  1  0  0  0  0
 30 31  1  0  0  0  0
 31 29  1  0  0  0  0
 32 33  1  0  0  0  0
 32 31  1  0  0  0  0
M  END
>  <MODEL>
8

>  <REMARK>
 VINA RESULT:      -6.0      3.885      8.547
  Name = 
  10 active torsions:
  status: ('A' for Active; 'I' for Inactive)
    1  A    between atoms: N_1  and  C_7
    2  A    between atoms: C_5  and  N_15
    3  A    between atoms: C_5  and  C_28
    4  A    between atoms: C_8  and  C_9
    5  A    between atoms: C_13  and  N_32
    6  A    between atoms: N_15  and  C_27
    7  A    between atoms: C_17  and  C_26
    8  A    between atoms: C_18  and  N_22
    9  A    between atoms: N_22  and  C_27
   10  A    between atoms: C_26  and  N_32
                            x       y       z     vdW  Elec       q    Type
                         _______ _______ _______ _____ _____    ______ ____

>  <TORSDO>
F 10

$$$$
=
 OpenBabel11042422343D

 33 35  0  0  1  0  0  0  0  0999 V2000
  160.9670  205.4130  152.4310 N   0  0  0  0  0  0  0  0  0  0  0  0
  160.8190  203.2380  152.1350 C   0  0  0  0  0  2  0  0  0  0  0  0
  161.2530  204.1880  153.1950 C   0  0  0  0  0  2  0  0  0  0  0  0
  160.5230  204.4830  151.3770 C   0  0  2  0  0  3  0  0  0  0  0  0
  161.2100  211.0560  153.3180 C   0  0  0  0  0  2  0  0  0  0  0  0
  159.2270  210.0250  155.7080 C   0  0  0  0  0  2  0  0  0  0  0  0
  161.3980  209.0680  151.8260 C   0  0  0  0  0  3  0  0  0  0  0  0
  161.0250  206.8230  152.6570 C   0  0  0  0  0  0  0  0  0  0  0  0
  159.0500  211.4840  155.6160 C   0  0  0  0  0  0  0  0  0  0  0  0
  159.8590  211.5930  153.3240 N   0  0  0  0  0  2  0  0  0  0  0  0
  161.1660  209.5850  153.1050 C   0  0  0  0  0  0  0  0  0  0  0  0
  160.7890  207.3410  153.9340 C   0  0  0  0  0  3  0  0  0  0  0  0
  160.5630  209.2740  155.6280 C   0  0  0  0  0  2  0  0  0  0  0  0
  160.8570  208.7180  154.1640 C   0  0  0  0  0  0  0  0  0  0  0  0
  161.3310  207.6890  151.6030 C   0  0  0  0  0  3  0  0  0  0  0  0
  160.2500  209.5570  156.3550 N   0  0  0  0  0  2  0  0  0  0  0  0
  159.2850  212.1890  154.4910 C   0  0  0  0  0  0  0  0  0  0  0  0
  158.8980  213.5610  154.4180 N   0  0  0  0  0  1  0  0  0  0  0  0
  158.3930  212.1460  156.7870 C   0  0  0  0  0  2  0  0  0  0  0  0
  156.5860  211.9800  156.6710 S   0  0  0  0  0  1  0  0  0  0  0  0
  161.4350  204.5730  150.1610 C   0  0  0  0  0  2  0  0  0  0  0  0
  160.6670  204.3600  148.9490 N   0  0  0  0  0  2  0  0  0  0  0  0
  160.6610  205.6180  148.2270 C   0  0  0  0  0  2  0  0  0  0  0  0
  162.4190  204.8900  146.5800 C   0  0  0  0  0  0  0  0  0  0  0  0
  161.9480  205.8150  147.5760 N   0  0  0  0  0  0  0  0  0  0  0  0
  163.5220  205.0890  146.0040 O   0  0  0  0  0  0  0  0  0  0  0  0
  162.6820  207.0430  147.8620 C   0  0  0  0  0  2  0  0  0  0  0  0
  161.7220  208.1680  148.2030 C   0  0  0  0  0  1  0  0  0  0  0  0
  161.6230  203.6520  146.2420 C   0  0  0  0  0  2  0  0  0  0  0  0
  160.5320  204.9560  144.5570 C   0  0  0  0  0  1  0  0  0  0  0  0
  161.0560  203.6400  144.8860 N   0  0  0  0  0  0  0  0  0  0  0  0
  159.9650  202.6770  144.7880 C   0  0  0  0  0  2  0  0  0  0  0  0
  160.3910  201.4000  145.3330 N   0  0  0  0  0  1  0  0  0  0  0  0
  1  8  1  0  0  0  0
  1  3  1  0  0  0  0
  2  3  1  0  0  0  0
  4 21  1  6  0  0  0
  4  2  1  0  0  0  0
  4  1  1  0  0  0  0
  5 10  1  0  0  0  0
  6 16  1  0  0  0  0
  7 11  1  0  0  0  0
  8 12  2  0  0  0  0
  9  6  1  0  0  0  0
  9 19  1  0  0  0  0
 10 17  1  0  0  0  0
 11  5  1  0  0  0  0
 11 14  2  0  0  0  0
 12 14  1  0  0  0  0
 13 16  1  0  0  0  0
 14 13  1  0  0  0  0
 15  7  2  0  0  0  0
 15  8  1  0  0  0  0
 17  9  2  0  0  0  0
 18 17  1  0  0  0  0
 20 19  1  0  0  0  0
 22 21  1  0  0  0  0
 23 22  1  0  0  0  0
 24 25  1  0  0  0  0
 25 27  1  0  0  0  0
 25 23  1  0  0  0  0
 26 24  2  0  0  0  0
 27 28  1  0  0  0  0
 29 24  1  0  0  0  0
 30 31  1  0  0  0  0
 31 29  1  0  0  0  0
 32 31  1  0  0  0  0
 32 33  1  0  0  0  0
M  END
>  <MODEL>
9

>  <REMARK>
 VINA RESULT:      -5.8      4.169      8.338
  Name = 
  10 active torsions:
  status: ('A' for Active; 'I' for Inactive)
    1  A    between atoms: N_1  and  C_7
    2  A    between atoms: C_5  and  N_15
    3  A    between atoms: C_5  and  C_28
    4  A    between atoms: C_8  and  C_9
    5  A    between atoms: C_13  and  N_32
    6  A    between atoms: N_15  and  C_27
    7  A    between atoms: C_17  and  C_26
    8  A    between atoms: C_18  and  N_22
    9  A    between atoms: N_22  and  C_27
   10  A    between atoms: C_26  and  N_32
                            x       y       z     vdW  Elec       q    Type
                         _______ _______ _______ _____ _____    ______ ____

>  <TORSDO>
F 10

$$$$
