=
 OpenBabel11042422253D

 64 69  0  0  1  0  0  0  0  0999 V2000
  162.1120  205.4640  148.5930 C   0  0  1  0  0  3  0  0  0  0  0  0
  161.3330  207.6230  147.9020 N   0  0  0  0  0  0  0  0  0  0  0  0
  162.8000  207.6260  147.8200 C   0  0  1  0  0  3  0  0  0  0  0  0
  163.4720  208.3260  149.0030 C   0  0  0  0  0  1  0  0  0  0  0  0
  163.2130  206.1690  147.8250 C   0  0  0  0  0  2  0  0  0  0  0  0
  160.9570  206.4510  148.7060 C   0  0  2  0  0  3  0  0  0  0  0  0
  160.7670  208.8810  148.3920 C   0  0  0  0  0  1  0  0  0  0  0  0
  161.9100  203.9230  146.6970 N   0  0  0  0  0  0  0  0  0  0  0  0
  161.7020  204.1530  147.9650 C   0  0  0  0  0  0  0  0  0  0  0  0
  160.4050  202.1370  150.9080 C   0  0  0  0  0  3  0  0  0  0  0  0
  160.2590  202.0880  148.1210 C   0  0  0  0  0  3  0  0  0  0  0  0
  159.0020  200.0780  151.0650 C   0  0  0  0  0  1  0  0  0  0  0  0
  159.6100  201.1050  148.8720 C   0  0  0  0  0  3  0  0  0  0  0  0
  160.9880  203.1090  148.7500 C   0  0  0  0  0  0  0  0  0  0  0  0
  161.0540  203.1200  150.1550 C   0  0  0  0  0  3  0  0  0  0  0  0
  159.6830  201.1290  150.2660 C   0  0  0  0  0  0  0  0  0  0  0  0
  162.5660  204.7310  145.7010 C   0  0  0  0  0  0  0  0  0  0  0  0
  164.1290  204.4890  145.2640 S   0  0  0  0  0  0  0  0  0  0  0  0
  161.7770  205.5940  144.8810 N   0  0  0  0  0  2  0  0  0  0  0  0
  161.3060  205.2020  143.5630 C   0  0  1  0  0  3  0  0  0  0  0  0
  159.9630  204.5510  143.6750 C   0  0  0  0  0  3  0  0  0  0  0  0
  159.7380  203.5940  144.5690 C   0  0  0  0  0  2  0  0  0  0  0  0
  161.2240  206.4310  142.6760 C   0  0  0  0  0  2  0  0  0  0  0  0
  162.2190  206.3400  141.6200 N   0  0  0  0  0  2  0  0  0  0  0  0
  161.8140  207.2450  140.5520 C   0  0  2  0  0  3  0  0  0  0  0  0
  162.1680  206.6700  139.2180 C   0  0  0  0  0  0  0  0  0  0  0  0
  161.4220  206.9920  138.0890 O   0  0  0  0  0  0  0  0  0  0  0  0
  163.1410  205.8770  139.1180 O   0  0  0  0  0  1  0  0  0  0  0  0
  162.3930  208.6510  140.7370 C   0  0  0  0  0  2  0  0  0  0  0  0
  162.5160  210.5080  138.7390 S   0  0  0  0  0  1  0  0  0  0  0  0
  161.5530  209.7470  140.0860 C   0  0  2  0  0  3  0  0  0  0  0  0
  160.0990  211.5720  140.6650 O   0  0  0  0  0  1  0  0  0  0  0  0
  162.3480  211.7310  141.3950 C   0  0  0  0  0  1  0  0  0  0  0  0
  161.1750  210.8050  141.1200 C   0  0  2  0  0  3  0  0  0  0  0  0
  160.7750  206.7850  150.0550 O   0  0  0  0  0  0  0  0  0  0  0  0
  161.3720  205.7420  150.7680 C   0  0  0  0  0  2  0  0  0  0  0  0
  161.6880  206.2030  152.1750 C   0  0  2  0  0  3  0  0  0  0  0  0
  160.3950  206.4580  152.9220 C   0  0  0  0  0  1  0  0  0  0  0  0
  162.5050  207.4810  152.1170 C   0  0  0  0  0  2  0  0  0  0  0  0
  158.8010  212.7470  153.7740 C   0  0  1  0  0  3  0  0  0  0  0  0
  159.2450  211.3680  153.9750 N   0  0  0  0  0  2  0  0  0  0  0  0
  160.5290  211.8460  151.3140 N   0  0  0  0  0  0  0  0  0  0  0  0
  158.5830  213.0200  152.2890 C   0  0  0  0  0  2  0  0  0  0  0  0
  161.7180  208.6210  152.6610 C   0  0  0  0  0  0  0  0  0  0  0  0
  159.9210  213.1560  151.5640 C   0  0  2  0  0  3  0  0  0  0  0  0
  160.6710  211.3130  153.6880 C   0  0  0  0  0  2  0  0  0  0  0  0
  161.2740  208.5660  153.8390 O   0  0  0  0  0  0  0  0  0  0  0  0
  161.4770  209.7600  151.8280 N   0  0  0  0  0  2  0  0  0  0  0  0
  160.8840  210.9990  152.2350 C   0  0  0  0  0  0  0  0  0  0  0  0
  157.5130  213.0510  154.5540 C   0  0  1  0  0  0  0  0  0  0  0  0
  155.6120  210.4500  155.9760 C   0  0  0  0  0  1  0  0  0  0  0  0
  157.5920  213.3930  156.0220 C   0  0  0  0  0  2  0  0  0  0  0  0
  156.2250  213.3620  153.8190 C   0  0  0  0  0  2  0  0  0  0  0  0
  156.6950  212.3860  156.7060 C   0  0  0  0  0  2  0  0  0  0  0  0
  155.7720  211.8680  155.7050 N   0  0  0  0  0  0  0  0  0  0  0  0
  156.4540  211.9780  154.4200 C   0  0  2  0  0  3  0  0  0  0  0  0
  157.1850  212.7670  147.6100 Cl  0  0  0  0  0  0  0  0  0  0  0  0
  158.4170  213.8680  148.2660 C   0  0  2  0  0  3  0  0  0  0  0  0
  160.5320  213.3030  149.1340 C   0  0  0  0  0  2  0  0  0  0  0  0
  159.7490  213.3910  147.9030 N   0  0  0  0  0  0  0  0  0  0  0  0
  159.7310  213.9260  150.2570 C   0  0  1  0  0  3  0  0  0  0  0  0
  158.3040  213.9120  149.7720 C   0  0  0  0  0  2  0  0  0  0  0  0
  161.8530  214.4530  147.3060 C   0  0  0  0  0  1  0  0  0  0  0  0
  160.3550  214.4250  147.0780 C   0  0  0  0  0  2  0  0  0  0  0  0
  1  9  1  6  0  0  0
  1  6  1  0  0  0  0
  2  7  1  0  0  0  0
  2  6  1  0  0  0  0
  3  5  1  0  0  0  0
  3  2  1  0  0  0  0
  3  4  1  1  0  0  0
  5  1  1  0  0  0  0
  6 35  1  1  0  0  0
  8  9  2  0  0  0  0
  9 14  1  0  0  0  0
 11 14  2  0  0  0  0
 11 13  1  0  0  0  0
 13 16  2  0  0  0  0
 14 15  1  0  0  0  0
 15 10  2  0  0  0  0
 16 10  1  0  0  0  0
 16 12  1  0  0  0  0
 17  8  1  0  0  0  0
 18 17  2  0  0  0  0
 19 17  1  0  0  0  0
 20 23  1  6  0  0  0
 20 21  1  0  0  0  0
 20 19  1  0  0  0  0
 21 22  2  0  0  0  0
 24 23  1  0  0  0  0
 25 29  1  1  0  0  0
 25 24  1  0  0  0  0
 26 25  1  0  0  0  0
 27 26  2  0  0  0  0
 28 26  1  0  0  0  0
 31 30  1  6  0  0  0
 31 29  1  0  0  0  0
 31 34  1  0  0  0  0
 32 34  1  0  0  0  0
 34 33  1  6  0  0  0
 35 36  1  0  0  0  0
 36 37  1  0  0  0  0
 37 38  1  1  0  0  0
 39 37  1  0  0  0  0
 39 44  1  0  0  0  0
 40 43  1  6  0  0  0
 40 41  1  0  0  0  0
 40 50  1  0  0  0  0
 42 45  1  0  0  0  0
 42 49  2  0  0  0  0
 44 47  2  0  0  0  0
 45 43  1  6  0  0  0
 46 41  1  0  0  0  0
 48 49  1  0  0  0  0
 48 44  1  0  0  0  0
 49 46  1  0  0  0  0
 50 53  1  6  0  0  0
 50 52  1  0  0  0  0
 52 54  1  0  0  0  0
 55 51  1  0  0  0  0
 55 54  1  0  0  0  0
 56 53  1  6  0  0  0
 56 50  1  0  0  0  0
 56 55  1  0  0  0  0
 58 57  1  1  0  0  0
 58 62  1  0  0  0  0
 60 58  1  0  0  0  0
 60 59  1  0  0  0  0
 61 59  1  6  0  0  0
 61 45  1  0  0  0  0
 62 61  1  0  0  0  0
 64 63  1  0  0  0  0
 64 60  1  0  0  0  0
M  END
>  <MODEL>
1

>  <REMARK>
 VINA RESULT:       1.6      0.000      0.000
  Name = 
  21 active torsions:
  status: ('A' for Active; 'I' for Inactive)
    1  A    between atoms: C_1  and  C_6
    2  A    between atoms: C_2  and  C_29
    3  A    between atoms: C_2  and  C_38
    4  A    between atoms: C_13  and  C_60
    5  A    between atoms: C_14  and  N_17
    6  A    between atoms: C_14  and  N_39
    7  A    between atoms: C_18  and  CA_54
    8  A    between atoms: C_19  and  C_27
    9  A    between atoms: C_19  and  C_31
   10  A    between atoms: C_19  and  N_39
   11  A    between atoms: N_24  and  C_27
   12  A    between atoms: N_24  and  CA_54
   13  A    between atoms: C_26  and  C_38
   14  A    between atoms: C_26  and  O_40
   15  A    between atoms: C_30  and  C_60
   16  A    between atoms: C_33  and  C_48
   17  A    between atoms: O_40  and  C_61
   18  A    between atoms: N_45  and  C_46
   19  A    between atoms: C_49  and  C_58
   20  A    between atoms: C_50  and  CA_54
   21  A    between atoms: C_50  and  C_58
                            x       y       z     vdW  Elec       q    Type
                         _______ _______ _______ _____ _____    ______ ____

>  <TORSDO>
F 21

$$$$
=
 OpenBabel11042422253D

 64 70  0  0  1  0  0  0  0  0999 V2000
  161.9860  204.7620  146.5430 C   0  0  1  0  0  3  0  0  0  0  0  0
  160.3720  205.9830  147.8280 N   0  0  0  0  0  0  0  0  0  0  0  0
  161.3010  206.9540  147.2340 C   0  0  1  0  0  3  0  0  0  0  0  0
  162.3590  207.4590  148.2160 C   0  0  0  0  0  1  0  0  0  0  0  0
  162.0000  206.2160  146.1110 C   0  0  1  0  0  3  0  0  0  0  0  0
  161.0030  204.6610  147.7040 C   0  0  2  0  0  3  0  0  0  0  0  0
  159.9640  206.3170  149.1940 C   0  0  0  0  0  1  0  0  0  0  0  0
  161.5760  204.2410  144.1830 N   0  0  0  0  0  0  0  0  0  0  0  0
  161.6580  203.8150  145.4150 C   0  0  2  0  0  3  0  0  0  0  0  0
  160.1280  200.3580  145.0780 C   0  0  0  0  0  3  0  0  0  0  0  0
  161.9260  201.6870  146.7480 C   0  0  0  0  0  3  0  0  0  0  0  0
  160.3680  198.2600  146.4120 C   0  0  0  0  0  1  0  0  0  0  0  0
  161.6110  200.3470  146.9870 C   0  0  0  0  0  3  0  0  0  0  0  0
  161.3490  202.3810  145.6730 C   0  0  0  0  0  0  0  0  0  0  0  0
  160.4440  201.6980  144.8410 C   0  0  0  0  0  3  0  0  0  0  0  0
  160.7110  199.6830  146.1520 C   0  0  0  0  0  0  0  0  0  0  0  0
  161.8160  205.5510  143.6350 C   0  0  0  0  0  0  0  0  0  0  0  0
  162.9260  206.5800  144.2710 S   0  0  0  0  0  0  0  0  0  0  0  0
  161.2700  205.8760  142.3570 N   0  0  0  0  0  2  0  0  0  0  0  0
  162.0230  206.6050  141.3490 C   0  0  1  0  0  3  0  0  0  0  0  0
  162.3320  205.7040  140.1940 C   0  0  0  0  0  3  0  0  0  0  0  0
  162.7260  206.2000  139.0250 C   0  0  0  0  0  2  0  0  0  0  0  0
  161.2100  207.7990  140.8830 C   0  0  0  0  0  2  0  0  0  0  0  0
  161.6800  208.2300  139.5770 N   0  0  0  0  0  2  0  0  0  0  0  0
  160.7720  209.2660  139.1000 C   0  0  2  0  0  3  0  0  0  0  0  0
  159.8420  208.7100  138.0700 C   0  0  0  0  0  0  0  0  0  0  0  0
  158.5350  209.1770  137.9730 O   0  0  0  0  0  1  0  0  0  0  0  0
  160.2410  207.8050  137.2920 O   0  0  0  0  0  0  0  0  0  0  0  0
  161.5220  210.4980  138.5850 C   0  0  0  0  0  2  0  0  0  0  0  0
  160.7010  213.0960  138.4070 S   0  0  0  0  0  1  0  0  0  0  0  0
  161.3230  211.7390  139.4520 C   0  0  2  0  0  3  0  0  0  0  0  0
  162.6990  213.5300  140.2760 O   0  0  0  0  0  1  0  0  0  0  0  0
  163.8200  211.7170  139.2410 C   0  0  0  0  0  1  0  0  0  0  0  0
  162.6440  212.1440  140.1030 C   0  0  2  0  0  3  0  0  0  0  0  0
  161.7060  204.3120  148.8650 O   0  0  0  0  0  0  0  0  0  0  0  0
  160.8160  203.5240  149.6000 C   0  0  0  0  0  2  0  0  0  0  0  0
  161.0920  203.6900  151.0800 C   0  0  2  0  0  3  0  0  0  0  0  0
  159.9040  204.3620  151.7400 C   0  0  0  0  0  1  0  0  0  0  0  0
  162.3320  204.5440  151.2700 C   0  0  0  0  0  2  0  0  0  0  0  0
  160.6540  210.5020  153.6930 C   0  0  1  0  0  3  0  0  0  0  0  0
  160.6080  209.0410  153.7180 N   0  0  0  0  0  2  0  0  0  0  0  0
  161.9360  209.3810  151.0570 N   0  0  0  0  0  0  0  0  0  0  0  0
  160.5170  211.0100  152.2600 C   0  0  0  0  0  2  0  0  0  0  0  0
  161.9860  205.8060  151.9780 C   0  0  0  0  0  0  0  0  0  0  0  0
  161.8110  210.7780  151.4820 C   0  0  2  0  0  3  0  0  0  0  0  0
  161.9280  208.5480  153.3470 C   0  0  0  0  0  2  0  0  0  0  0  0
  161.5680  205.7600  153.1660 O   0  0  0  0  0  0  0  0  0  0  0  0
  162.1310  207.0520  151.2880 N   0  0  0  0  0  2  0  0  0  0  0  0
  161.9990  208.3590  151.8600 C   0  0  0  0  0  0  0  0  0  0  0  0
  159.5580  211.1220  154.5720 C   0  0  1  0  0  0  0  0  0  0  0  0
  157.3890  213.5770  153.2800 C   0  0  0  0  0  1  0  0  0  0  0  0
  158.2200  210.4340  154.6970 C   0  0  0  0  0  2  0  0  0  0  0  0
  159.9000  212.1990  155.5820 C   0  0  0  0  0  2  0  0  0  0  0  0
  157.2060  211.4710  154.2710 C   0  0  0  0  0  2  0  0  0  0  0  0
  157.8310  212.7800  154.4110 N   0  0  0  0  0  0  0  0  0  0  0  0
  159.2650  212.5710  154.2460 C   0  0  2  0  0  3  0  0  0  0  0  0
  158.6750  213.2790  148.8010 Cl  0  0  0  0  0  0  0  0  0  0  0  0
  160.4330  213.0290  148.8970 C   0  0  2  0  0  3  0  0  0  0  0  0
  161.5880  210.9790  148.9900 C   0  0  0  0  0  2  0  0  0  0  0  0
  160.8070  211.8530  148.1160 N   0  0  0  0  0  0  0  0  0  0  0  0
  161.8720  211.7200  150.2780 C   0  0  1  0  0  3  0  0  0  0  0  0
  160.8340  212.8110  150.3370 C   0  0  0  0  0  2  0  0  0  0  0  0
  160.8830  212.7150  145.8440 C   0  0  0  0  0  1  0  0  0  0  0  0
  161.6950  212.3150  147.0600 C   0  0  0  0  0  2  0  0  0  0  0  0
  1  6  1  0  0  0  0
  2  7  1  0  0  0  0
  3  2  1  0  0  0  0
  3  4  1  0  0  0  0
  5  1  1  0  0  0  0
  5  3  1  0  0  0  0
  6  2  1  0  0  0  0
  6 35  1  0  0  0  0
  8  9  1  0  0  0  0
  9 14  1  0  0  0  0
  9  1  1  0  0  0  0
 10 16  1  0  0  0  0
 11 13  1  0  0  0  0
 14 11  2  0  0  0  0
 15 10  2  0  0  0  0
 15 14  1  0  0  0  0
 16 12  1  0  0  0  0
 16 13  2  0  0  0  0
 17  8  2  0  0  0  0
 17 18  1  0  0  0  0
 18  5  1  0  0  0  0
 19 17  1  0  0  0  0
 20 19  1  0  0  0  0
 21 20  1  0  0  0  0
 22 21  2  0  0  0  0
 23 20  1  0  0  0  0
 24 23  1  0  0  0  0
 25 24  1  0  0  0  0
 26 25  1  0  0  0  0
 27 26  1  0  0  0  0
 28 26  2  0  0  0  0
 29 25  1  0  0  0  0
 29 31  1  0  0  0  0
 30 31  1  0  0  0  0
 31 34  1  0  0  0  0
 33 34  1  0  0  0  0
 34 32  1  0  0  0  0
 35 36  1  0  0  0  0
 36 37  1  0  0  0  0
 37 39  1  0  0  0  0
 37 38  1  0  0  0  0
 39 44  1  0  0  0  0
 40 41  1  0  0  0  0
 40 50  1  0  0  0  0
 42 45  1  0  0  0  0
 42 49  2  0  0  0  0
 43 40  1  0  0  0  0
 44 47  2  0  0  0  0
 45 43  1  0  0  0  0
 46 41  1  0  0  0  0
 48 49  1  0  0  0  0
 48 44  1  0  0  0  0
 49 46  1  0  0  0  0
 50 52  1  0  0  0  0
 50 53  1  0  0  0  0
 51 55  1  0  0  0  0
 54 55  1  0  0  0  0
 54 52  1  0  0  0  0
 56 55  1  0  0  0  0
 56 50  1  0  0  0  0
 56 53  1  0  0  0  0
 57 58  1  0  0  0  0
 58 62  1  0  0  0  0
 59 61  1  0  0  0  0
 60 58  1  0  0  0  0
 60 59  1  0  0  0  0
 61 62  1  0  0  0  0
 61 45  1  0  0  0  0
 63 64  1  0  0  0  0
 64 60  1  0  0  0  0
M  END
>  <MODEL>
2

>  <REMARK>
 VINA RESULT:       3.1      1.970      3.135
  Name = 
  21 active torsions:
  status: ('A' for Active; 'I' for Inactive)
    1  A    between atoms: C_1  and  C_6
    2  A    between atoms: C_2  and  C_29
    3  A    between atoms: C_2  and  C_38
    4  A    between atoms: C_13  and  C_60
    5  A    between atoms: C_14  and  N_17
    6  A    between atoms: C_14  and  N_39
    7  A    between atoms: C_18  and  CA_54
    8  A    between atoms: C_19  and  C_27
    9  A    between atoms: C_19  and  C_31
   10  A    between atoms: C_19  and  N_39
   11  A    between atoms: N_24  and  C_27
   12  A    between atoms: N_24  and  CA_54
   13  A    between atoms: C_26  and  C_38
   14  A    between atoms: C_26  and  O_40
   15  A    between atoms: C_30  and  C_60
   16  A    between atoms: C_33  and  C_48
   17  A    between atoms: O_40  and  C_61
   18  A    between atoms: N_45  and  C_46
   19  A    between atoms: C_49  and  C_58
   20  A    between atoms: C_50  and  CA_54
   21  A    between atoms: C_50  and  C_58
                            x       y       z     vdW  Elec       q    Type
                         _______ _______ _______ _____ _____    ______ ____

>  <TORSDO>
F 21

$$$$
=
 OpenBabel11042422253D

 64 69  0  0  1  0  0  0  0  0999 V2000
  161.9430  205.0270  146.4160 C   0  0  1  0  0  3  0  0  0  0  0  0
  160.2990  206.1360  147.7620 N   0  0  0  0  0  0  0  0  0  0  0  0
  161.1480  207.1660  147.1490 C   0  0  1  0  0  3  0  0  0  0  0  0
  162.2050  207.7270  148.1030 C   0  0  0  0  0  1  0  0  0  0  0  0
  161.8550  206.4820  145.9980 C   0  0  0  0  0  2  0  0  0  0  0  0
  161.0050  204.8560  147.6050 C   0  0  2  0  0  3  0  0  0  0  0  0
  159.9160  206.4330  149.1440 C   0  0  0  0  0  1  0  0  0  0  0  0
  161.6200  204.4790  144.0480 N   0  0  0  0  0  0  0  0  0  0  0  0
  161.6370  204.0700  145.2880 C   0  0  0  0  0  0  0  0  0  0  0  0
  161.5890  200.6170  146.8620 C   0  0  0  0  0  3  0  0  0  0  0  0
  160.3450  201.9670  144.7590 C   0  0  0  0  0  3  0  0  0  0  0  0
  160.3350  198.5250  146.3230 C   0  0  0  0  0  1  0  0  0  0  0  0
  160.0350  200.6280  145.0110 C   0  0  0  0  0  3  0  0  0  0  0  0
  161.2790  202.6490  145.5540 C   0  0  0  0  0  0  0  0  0  0  0  0
  161.8980  201.9560  146.6080 C   0  0  0  0  0  3  0  0  0  0  0  0
  160.6570  199.9530  146.0620 C   0  0  0  0  0  0  0  0  0  0  0  0
  161.9180  205.7730  143.4920 C   0  0  0  0  0  0  0  0  0  0  0  0
  163.0930  206.7430  144.1020 S   0  0  0  0  0  0  0  0  0  0  0  0
  161.3640  206.1250  142.2230 N   0  0  0  0  0  2  0  0  0  0  0  0
  162.1090  206.8830  141.2310 C   0  0  1  0  0  3  0  0  0  0  0  0
  162.5970  205.9680  140.1520 C   0  0  0  0  0  3  0  0  0  0  0  0
  162.3310  206.2140  138.8720 C   0  0  0  0  0  2  0  0  0  0  0  0
  161.2100  207.9560  140.6440 C   0  0  0  0  0  2  0  0  0  0  0  0
  161.8470  209.2560  140.7790 N   0  0  0  0  0  2  0  0  0  0  0  0
  161.5420  210.0240  139.5790 C   0  0  2  0  0  3  0  0  0  0  0  0
  162.5920  211.0620  139.3440 C   0  0  0  0  0  0  0  0  0  0  0  0
  162.3040  212.2030  138.6020 O   0  0  0  0  0  0  0  0  0  0  0  0
  163.7500  210.8970  139.8100 O   0  0  0  0  0  1  0  0  0  0  0  0
  160.1390  210.6350  139.6270 C   0  0  0  0  0  2  0  0  0  0  0  0
  158.7450  212.5870  138.3210 S   0  0  0  0  0  1  0  0  0  0  0  0
  159.5700  210.9630  138.2480 C   0  0  2  0  0  3  0  0  0  0  0  0
  157.7310  209.5520  138.8850 O   0  0  0  0  0  1  0  0  0  0  0  0
  159.2970  208.6360  137.3600 C   0  0  0  0  0  1  0  0  0  0  0  0
  158.5720  209.8890  137.8210 C   0  0  2  0  0  3  0  0  0  0  0  0
  161.7640  204.5410  148.7400 O   0  0  0  0  0  0  0  0  0  0  0  0
  160.8430  204.5110  149.7910 C   0  0  0  0  0  2  0  0  0  0  0  0
  161.5800  204.4030  151.1100 C   0  0  2  0  0  3  0  0  0  0  0  0
  160.6190  204.6890  152.2470 C   0  0  0  0  0  1  0  0  0  0  0  0
  162.7160  205.4090  151.1380 C   0  0  0  0  0  2  0  0  0  0  0  0
  160.5040  211.3600  153.1070 C   0  0  1  0  0  3  0  0  0  0  0  0
  160.6020  209.9080  153.2520 N   0  0  0  0  0  2  0  0  0  0  0  0
  161.8460  210.1500  150.5400 N   0  0  0  0  0  0  0  0  0  0  0  0
  160.2950  211.7310  151.6410 C   0  0  0  0  0  2  0  0  0  0  0  0
  162.2600  206.6870  151.7480 C   0  0  0  0  0  0  0  0  0  0  0  0
  161.5920  211.5600  150.8530 C   0  0  2  0  0  3  0  0  0  0  0  0
  161.9570  209.5150  152.8910 C   0  0  0  0  0  2  0  0  0  0  0  0
  161.8680  206.7010  152.9460 O   0  0  0  0  0  0  0  0  0  0  0  0
  162.2720  207.8790  150.9560 N   0  0  0  0  0  2  0  0  0  0  0  0
  162.0220  209.2100  151.4220 C   0  0  0  0  0  0  0  0  0  0  0  0
  159.3680  211.9440  153.9590 C   0  0  1  0  0  0  0  0  0  0  0  0
  156.4870  210.0440  154.6610 C   0  0  0  0  0  1  0  0  0  0  0  0
  159.4350  211.8460  155.4640 C   0  0  0  0  0  2  0  0  0  0  0  0
  158.3740  212.9130  153.3530 C   0  0  0  0  0  2  0  0  0  0  0  0
  158.1590  211.1400  155.8660 C   0  0  0  0  0  2  0  0  0  0  0  0
  157.2060  211.3010  154.7760 N   0  0  0  0  0  0  0  0  0  0  0  0
  157.9940  211.4500  153.5580 C   0  0  2  0  0  3  0  0  0  0  0  0
  158.2400  212.9230  147.6620 Cl  0  0  0  0  0  0  0  0  0  0  0  0
  159.9780  213.1700  147.9450 C   0  0  2  0  0  3  0  0  0  0  0  0
  161.6150  211.5240  148.3430 C   0  0  0  0  0  2  0  0  0  0  0  0
  160.7370  212.0900  147.3200 N   0  0  0  0  0  0  0  0  0  0  0  0
  161.5420  212.3990  149.5750 C   0  0  1  0  0  3  0  0  0  0  0  0
  160.2530  213.1670  149.4310 C   0  0  0  0  0  2  0  0  0  0  0  0
  161.5080  214.2140  146.4220 C   0  0  0  0  0  1  0  0  0  0  0  0
  161.5880  212.7050  146.3120 C   0  0  0  0  0  2  0  0  0  0  0  0
  1  9  1  6  0  0  0
  1  6  1  0  0  0  0
  2  7  1  0  0  0  0
  3  2  1  0  0  0  0
  3  4  1  1  0  0  0
  5  1  1  0  0  0  0
  5  3  1  0  0  0  0
  6  2  1  0  0  0  0
  6 35  1  1  0  0  0
  8  9  2  0  0  0  0
  9 14  1  0  0  0  0
 11 13  2  0  0  0  0
 11 14  1  0  0  0  0
 13 16  1  0  0  0  0
 14 15  2  0  0  0  0
 15 10  1  0  0  0  0
 16 12  1  0  0  0  0
 16 10  2  0  0  0  0
 17  8  1  0  0  0  0
 17 18  2  0  0  0  0
 19 17  1  0  0  0  0
 20 21  1  6  0  0  0
 20 19  1  0  0  0  0
 22 21  2  0  0  0  0
 23 24  1  0  0  0  0
 23 20  1  0  0  0  0
 25 29  1  1  0  0  0
 25 24  1  0  0  0  0
 26 25  1  0  0  0  0
 26 28  1  0  0  0  0
 27 26  2  0  0  0  0
 31 30  1  1  0  0  0
 31 29  1  0  0  0  0
 34 33  1  1  0  0  0
 34 31  1  0  0  0  0
 34 32  1  0  0  0  0
 35 36  1  0  0  0  0
 36 37  1  0  0  0  0
 37 39  1  0  0  0  0
 37 38  1  1  0  0  0
 39 44  1  0  0  0  0
 40 43  1  6  0  0  0
 40 41  1  0  0  0  0
 40 50  1  0  0  0  0
 42 45  1  0  0  0  0
 42 49  2  0  0  0  0
 44 47  2  0  0  0  0
 45 43  1  6  0  0  0
 46 41  1  0  0  0  0
 48 49  1  0  0  0  0
 48 44  1  0  0  0  0
 49 46  1  0  0  0  0
 50 53  1  6  0  0  0
 50 52  1  0  0  0  0
 51 55  1  0  0  0  0
 52 54  1  0  0  0  0
 55 54  1  0  0  0  0
 56 53  1  6  0  0  0
 56 50  1  0  0  0  0
 56 55  1  0  0  0  0
 58 57  1  1  0  0  0
 58 62  1  0  0  0  0
 60 58  1  0  0  0  0
 60 59  1  0  0  0  0
 61 59  1  6  0  0  0
 61 45  1  0  0  0  0
 62 61  1  0  0  0  0
 64 63  1  0  0  0  0
 64 60  1  0  0  0  0
M  END
>  <MODEL>
3

>  <REMARK>
 VINA RESULT:       3.2      2.079      3.055
  Name = 
  21 active torsions:
  status: ('A' for Active; 'I' for Inactive)
    1  A    between atoms: C_1  and  C_6
    2  A    between atoms: C_2  and  C_29
    3  A    between atoms: C_2  and  C_38
    4  A    between atoms: C_13  and  C_60
    5  A    between atoms: C_14  and  N_17
    6  A    between atoms: C_14  and  N_39
    7  A    between atoms: C_18  and  CA_54
    8  A    between atoms: C_19  and  C_27
    9  A    between atoms: C_19  and  C_31
   10  A    between atoms: C_19  and  N_39
   11  A    between atoms: N_24  and  C_27
   12  A    between atoms: N_24  and  CA_54
   13  A    between atoms: C_26  and  C_38
   14  A    between atoms: C_26  and  O_40
   15  A    between atoms: C_30  and  C_60
   16  A    between atoms: C_33  and  C_48
   17  A    between atoms: O_40  and  C_61
   18  A    between atoms: N_45  and  C_46
   19  A    between atoms: C_49  and  C_58
   20  A    between atoms: C_50  and  CA_54
   21  A    between atoms: C_50  and  C_58
                            x       y       z     vdW  Elec       q    Type
                         _______ _______ _______ _____ _____    ______ ____

>  <TORSDO>
F 21

$$$$
