=
 OpenBabel11052411233D

 41 44  0  0  1  0  0  0  0  0999 V2000
  161.1710  206.0840  152.8850 C   0  0  0  0  0  0  0  0  0  0  0  0
  160.5740  202.7100  150.4990 O   0  0  0  0  0  1  0  0  0  0  0  0
  160.7980  203.7210  152.6980 C   0  0  0  0  0  3  0  0  0  0  0  0
  160.9360  205.3720  149.1890 C   0  0  0  0  0  2  0  0  0  0  0  0
  161.3170  207.4530  151.1610 C   0  0  0  0  0  0  0  0  0  0  0  0
  161.1510  206.1680  151.5310 C   0  0  0  0  0  0  0  0  0  0  0  0
  161.2830  207.8280  149.7430 C   0  0  0  0  0  3  0  0  0  0  0  0
  160.7740  203.8400  151.2820 C   0  0  0  0  0  0  0  0  0  0  0  0
  161.4590  208.2270  152.2640 N   0  0  0  0  0  0  0  0  0  0  0  0
  160.9500  205.1040  150.6830 C   0  0  0  0  0  0  0  0  0  0  0  0
  160.9960  204.8560  153.5240 C   0  0  0  0  0  3  0  0  0  0  0  0
  161.3550  207.3860  153.3350 C   0  0  0  0  0  0  0  0  0  0  0  0
  161.0890  206.8570  148.8200 C   0  0  0  0  0  0  0  0  0  0  0  0
  162.7380  210.1430  151.6450 O   0  0  0  0  0  0  0  0  0  0  0  0
  161.5870  209.6820  152.3030 C   0  0  2  0  0  0  0  0  0  0  0  0
  162.7310  210.2270  153.0560 C   0  0  0  0  0  2  0  0  0  0  0  0
  160.3630  210.5500  152.0690 C   0  0  0  0  0  2  0  0  0  0  0  0
  159.3300  210.1570  152.9210 O   0  0  0  0  0  1  0  0  0  0  0  0
  161.4420  207.8080  154.7640 C   0  0  0  0  0  2  0  0  0  0  0  0
  159.7140  208.8600  156.0880 C   0  0  0  0  0  0  0  0  0  0  0  0
  159.3440  209.8860  156.8090 C   0  0  0  0  0  3  0  0  0  0  0  0
  160.0820  207.8400  155.3670 C   0  0  0  0  0  3  0  0  0  0  0  0
  159.5050  211.2390  156.3590 N   0  0  0  0  0  0  0  0  0  0  0  0
  158.1110  212.2650  156.2990 S   0  0  0  0  0  0  0  0  0  0  0  0
  157.0500  211.7150  157.2100 O   0  0  0  0  0  0  0  0  0  0  0  0
  158.4850  213.6510  156.7480 O   0  0  0  0  0  0  0  0  0  0  0  0
  156.0540  212.8240  154.6280 C   0  0  0  0  0  1  0  0  0  0  0  0
  158.2730  213.2250  153.8800 O   0  0  0  0  0  1  0  0  0  0  0  0
  157.4920  212.3460  154.6290 C   0  0  1  0  0  3  0  0  0  0  0  0
  160.7660  211.7360  155.8190 C   0  0  0  0  0  2  0  0  0  0  0  0
  161.9270  211.2560  156.6720 C   0  0  0  0  0  1  0  0  0  0  0  0
  161.0700  207.2230  147.3760 C   0  0  0  0  0  2  0  0  0  0  0  0
  162.1060  206.4180  146.6060 C   0  0  0  0  0  2  0  0  0  0  0  0
  160.4870  205.7320  144.8350 C   0  0  0  0  0  1  0  0  0  0  0  0
  161.6790  203.9730  146.1640 C   0  0  0  0  0  0  0  0  0  0  0  0
  161.4560  205.3570  145.8500 N   0  0  0  0  0  0  0  0  0  0  0  0
  162.4510  203.6580  147.1130 O   0  0  0  0  0  0  0  0  0  0  0  0
  161.0230  202.9530  145.4010 N   0  0  0  0  0  0  0  0  0  0  0  0
  160.7750  201.7800  145.8850 C   0  0  0  0  0  3  0  0  0  0  0  0
  160.0910  200.7610  145.0460 C   0  0  0  0  0  2  0  0  0  0  0  0
  160.7000  199.3990  145.3080 C   0  0  0  0  0  1  0  0  0  0  0  0
  1 12  2  0  0  0  0
  1 11  1  0  0  0  0
  2  8  1  0  0  0  0
  3 11  2  0  0  0  0
  4 10  1  0  0  0  0
  5  6  2  0  0  0  0
  5  9  1  0  0  0  0
  6  1  1  0  0  0  0
  7  5  1  0  0  0  0
  8  3  1  0  0  0  0
  9 15  1  0  0  0  0
  9 12  1  0  0  0  0
 10  8  2  0  0  0  0
 10  6  1  0  0  0  0
 12 19  1  0  0  0  0
 13  4  1  0  0  0  0
 13  7  2  0  0  0  0
 14 15  1  0  0  0  0
 14 16  1  0  0  0  0
 15 17  1  6  0  0  0
 15 16  1  0  0  0  0
 17 18  1  0  0  0  0
 19 22  1  0  0  0  0
 20 21  2  0  0  0  0
 22 20  2  0  0  0  0
 23 21  1  0  0  0  0
 24 23  1  0  0  0  0
 24 26  2  0  0  0  0
 24 25  2  0  0  0  0
 28 29  1  0  0  0  0
 29 27  1  1  0  0  0
 29 24  1  0  0  0  0
 30 23  1  0  0  0  0
 30 31  1  0  0  0  0
 32 13  1  0  0  0  0
 33 32  1  0  0  0  0
 34 36  1  0  0  0  0
 35 37  2  0  0  0  0
 36 35  1  0  0  0  0
 36 33  1  0  0  0  0
 38 39  2  0  0  0  0
 38 35  1  0  0  0  0
 40 41  1  0  0  0  0
 40 39  1  0  0  0  0
M  END
>  <MODEL>
1

>  <REMARK>
 VINA RESULT:      -7.0      0.000      0.000
  Name = 
  13 active torsions:
  status: ('A' for Active; 'I' for Inactive)
    1  A    between atoms: C_6  and  C_31
    2  A    between atoms: S_8  and  C_23
    3  A    between atoms: S_8  and  N_24
    4  A    between atoms: C_9  and  C_29
    5  A    between atoms: C_9  and  N_34
    6  A    between atoms: C_13  and  C_36
    7  A    between atoms: C_13  and  C_41
    8  A    between atoms: N_14  and  C_16
    9  A    between atoms: C_18  and  N_24
   10  A    between atoms: C_21  and  C_25
   11  A    between atoms: N_24  and  C_38
   12  A    between atoms: C_25  and  N_27
   13  A    between atoms: C_29  and  C_40
                            x       y       z     vdW  Elec       q    Type
                         _______ _______ _______ _____ _____    ______ ____

>  <TORSDO>
F 13

$$$$
=
 OpenBabel11052411233D

 41 44  0  0  1  0  0  0  0  0999 V2000
  161.1920  207.9340  153.5380 C   0  0  0  0  0  0  0  0  0  0  0  0
  159.5240  209.8890  156.8280 O   0  0  0  0  0  1  0  0  0  0  0  0
  160.5550  207.9160  155.8510 C   0  0  0  0  0  3  0  0  0  0  0  0
  159.7090  211.3330  154.2170 C   0  0  0  0  0  3  0  0  0  0  0  0
  160.9180  209.6600  152.1920 C   0  0  0  0  0  0  0  0  0  0  0  0
  160.7220  209.2020  153.4450 C   0  0  2  0  0  3  0  0  0  0  0  0
  160.5440  211.0330  151.8360 C   0  0  0  0  0  3  0  0  0  0  0  0
  160.0770  209.2490  155.7260 C   0  0  0  0  0  0  0  0  0  0  0  0
  161.5100  208.6970  151.4460 N   0  0  0  0  0  0  0  0  0  0  0  0
  160.1690  209.9120  154.4850 C   0  0  0  0  0  0  0  0  0  0  0  0
  161.1280  207.2380  154.7460 C   0  0  0  0  0  3  0  0  0  0  0  0
  161.6950  207.6300  152.2790 C   0  0  0  0  0  0  0  0  0  0  0  0
  159.9910  211.8220  152.7870 C   0  0  0  0  0  0  0  0  0  0  0  0
  161.1600  208.0820  149.1680 O   0  0  0  0  0  0  0  0  0  0  0  0
  161.9600  208.8130  150.0610 C   0  0  2  0  0  0  0  0  0  0  0  0
  162.4590  207.5840  149.4190 C   0  0  0  0  0  2  0  0  0  0  0  0
  162.3910  210.1670  149.5230 C   0  0  0  0  0  2  0  0  0  0  0  0
  161.6010  210.5190  148.4280 O   0  0  0  0  0  1  0  0  0  0  0  0
  162.3270  206.3370  151.8830 C   0  0  0  0  0  2  0  0  0  0  0  0
  160.7970  204.5380  151.3670 C   0  0  0  0  0  0  0  0  0  0  0  0
  160.1440  203.8700  150.4530 C   0  0  0  0  0  3  0  0  0  0  0  0
  161.4510  205.2020  152.2770 C   0  0  0  0  0  3  0  0  0  0  0  0
  160.7810  203.3610  149.2720 N   0  0  0  0  0  0  0  0  0  0  0  0
  160.5840  201.6870  148.8780 S   0  0  0  0  0  0  0  0  0  0  0  0
  161.3140  200.8490  149.8900 O   0  0  0  0  0  0  0  0  0  0  0  0
  159.1230  201.3310  148.8980 O   0  0  0  0  0  0  0  0  0  0  0  0
  161.6060  199.9060  147.1100 C   0  0  0  0  0  1  0  0  0  0  0  0
  160.2770  201.6970  146.2880 O   0  0  0  0  0  1  0  0  0  0  0  0
  161.2340  201.3690  147.2480 C   0  0  1  0  0  3  0  0  0  0  0  0
  161.6990  204.1660  148.4730 C   0  0  0  0  0  2  0  0  0  0  0  0
  160.9230  205.0220  147.4870 C   0  0  0  0  0  1  0  0  0  0  0  0
  159.5910  213.2130  152.4330 C   0  0  0  0  0  2  0  0  0  0  0  0
  158.3810  213.2020  151.5110 C   0  0  0  0  0  2  0  0  0  0  0  0
  160.0930  214.1530  149.9640 C   0  0  0  0  0  1  0  0  0  0  0  0
  157.8630  213.4570  149.0580 C   0  0  0  0  0  0  0  0  0  0  0  0
  158.7780  213.5680  150.1590 N   0  0  0  0  0  0  0  0  0  0  0  0
  156.6880  213.0370  149.2530 O   0  0  0  0  0  0  0  0  0  0  0  0
  158.2840  213.8260  147.7390 N   0  0  0  0  0  0  0  0  0  0  0  0
  158.7370  212.9610  146.8900 C   0  0  0  0  0  3  0  0  0  0  0  0
  159.1610  213.4030  145.5360 C   0  0  0  0  0  2  0  0  0  0  0  0
  159.8990  212.2760  144.8450 C   0  0  0  0  0  1  0  0  0  0  0  0
  1 11  1  0  0  0  0
  4 10  1  0  0  0  0
  6  5  1  1  0  0  0
  6  1  1  0  0  0  0
  6 10  1  0  0  0  0
  7  5  2  0  0  0  0
  7 13  1  0  0  0  0
  8  3  1  0  0  0  0
  8  2  1  0  0  0  0
  9  5  1  0  0  0  0
  9 12  1  0  0  0  0
 10  8  2  0  0  0  0
 11  3  2  0  0  0  0
 12  1  2  0  0  0  0
 13  4  2  0  0  0  0
 14 16  1  0  0  0  0
 14 15  1  0  0  0  0
 15 17  1  6  0  0  0
 15  9  1  0  0  0  0
 16 15  1  0  0  0  0
 18 17  1  0  0  0  0
 19 22  1  0  0  0  0
 19 12  1  0  0  0  0
 20 22  2  0  0  0  0
 21 20  2  0  0  0  0
 23 21  1  0  0  0  0
 24 26  2  0  0  0  0
 24 23  1  0  0  0  0
 24 25  2  0  0  0  0
 28 29  1  0  0  0  0
 29 27  1  1  0  0  0
 29 24  1  0  0  0  0
 30 23  1  0  0  0  0
 31 30  1  0  0  0  0
 32 13  1  0  0  0  0
 33 32  1  0  0  0  0
 34 36  1  0  0  0  0
 35 37  2  0  0  0  0
 35 36  1  0  0  0  0
 36 33  1  0  0  0  0
 38 35  1  0  0  0  0
 39 38  2  0  0  0  0
 40 39  1  0  0  0  0
 41 40  1  0  0  0  0
M  END
>  <MODEL>
2

>  <REMARK>
 VINA RESULT:      -6.6      3.781      8.991
  Name = 
  13 active torsions:
  status: ('A' for Active; 'I' for Inactive)
    1  A    between atoms: C_6  and  C_31
    2  A    between atoms: S_8  and  C_23
    3  A    between atoms: S_8  and  N_24
    4  A    between atoms: C_9  and  C_29
    5  A    between atoms: C_9  and  N_34
    6  A    between atoms: C_13  and  C_36
    7  A    between atoms: C_13  and  C_41
    8  A    between atoms: N_14  and  C_16
    9  A    between atoms: C_18  and  N_24
   10  A    between atoms: C_21  and  C_25
   11  A    between atoms: N_24  and  C_38
   12  A    between atoms: C_25  and  N_27
   13  A    between atoms: C_29  and  C_40
                            x       y       z     vdW  Elec       q    Type
                         _______ _______ _______ _____ _____    ______ ____

>  <TORSDO>
F 13

$$$$
=
 OpenBabel11052411233D

 41 44  0  0  1  0  0  0  0  0999 V2000
  161.3520  209.3540  152.2240 C   0  0  0  0  0  0  0  0  0  0  0  0
  162.1070  207.7410  148.4470 O   0  0  0  0  0  1  0  0  0  0  0  0
  161.9460  209.6680  149.9200 C   0  0  0  0  0  3  0  0  0  0  0  0
  161.3820  205.9080  150.6930 C   0  0  0  0  0  2  0  0  0  0  0  0
  160.9410  207.3880  153.1380 C   0  0  0  0  0  0  0  0  0  0  0  0
  161.2630  208.0200  151.9910 C   0  0  0  0  0  0  0  0  0  0  0  0
  160.8320  205.9260  153.1740 C   0  0  0  0  0  3  0  0  0  0  0  0
  161.8530  208.2660  149.7080 C   0  0  0  0  0  0  0  0  0  0  0  0
  160.8040  208.2980  154.1320 N   0  0  0  0  0  0  0  0  0  0  0  0
  161.5060  207.4180  150.7790 C   0  0  0  0  0  0  0  0  0  0  0  0
  161.6970  210.2330  151.1960 C   0  0  0  0  0  3  0  0  0  0  0  0
  161.0720  209.5150  153.5750 C   0  0  0  0  0  0  0  0  0  0  0  0
  161.0530  205.2310  152.0340 C   0  0  0  0  0  0  0  0  0  0  0  0
  159.4110  207.1990  155.7270 O   0  0  0  0  0  0  0  0  0  0  0  0
  160.5330  208.0220  155.5410 C   0  0  2  0  0  0  0  0  0  0  0  0
  159.2760  208.5570  156.0930 C   0  0  0  0  0  2  0  0  0  0  0  0
  161.6850  207.7010  156.4780 C   0  0  0  0  0  2  0  0  0  0  0  0
  162.3520  208.8730  156.8330 O   0  0  0  0  0  1  0  0  0  0  0  0
  161.0500  210.8150  154.3090 C   0  0  0  0  0  2  0  0  0  0  0  0
  159.4420  212.4400  153.5240 C   0  0  0  0  0  0  0  0  0  0  0  0
  158.2580  212.9780  153.6570 C   0  0  0  0  0  3  0  0  0  0  0  0
  160.6230  211.9070  153.3950 C   0  0  0  0  0  3  0  0  0  0  0  0
  157.7590  213.4340  154.9220 N   0  0  0  0  0  0  0  0  0  0  0  0
  156.1190  213.0750  155.3470 S   0  0  0  0  0  0  0  0  0  0  0  0
  155.6400  214.0720  156.3640 O   0  0  0  0  0  0  0  0  0  0  0  0
  155.2510  213.1550  154.1220 O   0  0  0  0  0  0  0  0  0  0  0  0
  155.1440  211.4240  157.2610 C   0  0  0  0  0  1  0  0  0  0  0  0
  155.4770  210.5630  155.0710 O   0  0  0  0  0  1  0  0  0  0  0  0
  156.0170  211.4270  156.0220 C   0  0  1  0  0  3  0  0  0  0  0  0
  158.5360  214.3060  155.7980 C   0  0  0  0  0  2  0  0  0  0  0  0
  158.5990  213.7210  157.1980 C   0  0  0  0  0  1  0  0  0  0  0  0
  160.9290  203.7460  152.0550 C   0  0  0  0  0  2  0  0  0  0  0  0
  161.8820  203.1160  151.0500 C   0  0  0  0  0  2  0  0  0  0  0  0
  160.4180  201.2350  150.3100 C   0  0  0  0  0  1  0  0  0  0  0  0
  161.1750  202.9410  148.6370 C   0  0  0  0  0  0  0  0  0  0  0  0
  161.1310  202.4590  149.9900 N   0  0  0  0  0  0  0  0  0  0  0  0
  161.8760  203.9520  148.3500 O   0  0  0  0  0  0  0  0  0  0  0  0
  160.4250  202.2710  147.6160 N   0  0  0  0  0  0  0  0  0  0  0  0
  160.9940  201.6740  146.6200 C   0  0  0  0  0  3  0  0  0  0  0  0
  160.1650  200.9960  145.5900 C   0  0  0  0  0  2  0  0  0  0  0  0
  159.6190  202.0250  144.6220 C   0  0  0  0  0  1  0  0  0  0  0  0
  1 12  2  0  0  0  0
  2  8  1  0  0  0  0
  3 11  2  0  0  0  0
  4 10  1  0  0  0  0
  4 13  1  0  0  0  0
  5  7  1  0  0  0  0
  5  9  1  0  0  0  0
  6  1  1  0  0  0  0
  6  5  2  0  0  0  0
  8  3  1  0  0  0  0
  8 10  2  0  0  0  0
  9 15  1  0  0  0  0
 10  6  1  0  0  0  0
 11  1  1  0  0  0  0
 12  9  1  0  0  0  0
 12 19  1  0  0  0  0
 13 32  1  0  0  0  0
 13  7  2  0  0  0  0
 14 16  1  0  0  0  0
 15 14  1  0  0  0  0
 15 16  1  0  0  0  0
 15 17  1  1  0  0  0
 17 18  1  0  0  0  0
 20 21  2  0  0  0  0
 21 23  1  0  0  0  0
 22 20  2  0  0  0  0
 22 19  1  0  0  0  0
 23 24  1  0  0  0  0
 23 30  1  0  0  0  0
 24 29  1  0  0  0  0
 24 25  2  0  0  0  0
 26 24  2  0  0  0  0
 28 29  1  0  0  0  0
 29 27  1  1  0  0  0
 30 31  1  0  0  0  0
 33 32  1  0  0  0  0
 35 36  1  0  0  0  0
 36 34  1  0  0  0  0
 36 33  1  0  0  0  0
 37 35  2  0  0  0  0
 38 35  1  0  0  0  0
 39 38  2  0  0  0  0
 40 39  1  0  0  0  0
 41 40  1  0  0  0  0
M  END
>  <MODEL>
3

>  <REMARK>
 VINA RESULT:      -6.4      2.270      4.029
  Name = 
  13 active torsions:
  status: ('A' for Active; 'I' for Inactive)
    1  A    between atoms: C_6  and  C_31
    2  A    between atoms: S_8  and  C_23
    3  A    between atoms: S_8  and  N_24
    4  A    between atoms: C_9  and  C_29
    5  A    between atoms: C_9  and  N_34
    6  A    between atoms: C_13  and  C_36
    7  A    between atoms: C_13  and  C_41
    8  A    between atoms: N_14  and  C_16
    9  A    between atoms: C_18  and  N_24
   10  A    between atoms: C_21  and  C_25
   11  A    between atoms: N_24  and  C_38
   12  A    between atoms: C_25  and  N_27
   13  A    between atoms: C_29  and  C_40
                            x       y       z     vdW  Elec       q    Type
                         _______ _______ _______ _____ _____    ______ ____

>  <TORSDO>
F 13

$$$$
=
 OpenBabel11052411233D

 41 44  0  0  1  0  0  0  0  0999 V2000
  161.7670  208.0330  152.0340 C   0  0  0  0  0  0  0  0  0  0  0  0
  162.1870  211.3090  149.4780 O   0  0  0  0  0  1  0  0  0  0  0  0
  162.2130  210.3700  151.7210 C   0  0  0  0  0  3  0  0  0  0  0  0
  161.5400  208.6310  148.3180 C   0  0  0  0  0  2  0  0  0  0  0  0
  161.3350  206.6260  150.3910 C   0  0  0  0  0  0  0  0  0  0  0  0
  161.6040  207.9120  150.6920 C   0  0  0  0  0  0  0  0  0  0  0  0
  161.1650  206.2110  148.9940 C   0  0  0  0  0  3  0  0  0  0  0  0
  162.0440  210.2120  150.3190 C   0  0  0  0  0  0  0  0  0  0  0  0
  161.3080  205.8900  151.5280 N   0  0  0  0  0  0  0  0  0  0  0  0
  161.7360  208.9410  149.7910 C   0  0  0  0  0  0  0  0  0  0  0  0
  162.0780  209.2690  152.6030 C   0  0  0  0  0  3  0  0  0  0  0  0
  161.5890  206.7550  152.5470 C   0  0  0  0  0  0  0  0  0  0  0  0
  161.2760  207.1460  148.0220 C   0  0  0  0  0  0  0  0  0  0  0  0
  160.1330  203.9590  150.7640 O   0  0  0  0  0  0  0  0  0  0  0  0
  161.1240  204.4450  151.6330 C   0  0  2  0  0  0  0  0  0  0  0  0
  159.8230  203.9760  152.1430 C   0  0  0  0  0  2  0  0  0  0  0  0
  162.3390  203.5390  151.7370 C   0  0  0  0  0  2  0  0  0  0  0  0
  161.9400  202.2020  151.7100 O   0  0  0  0  0  1  0  0  0  0  0  0
  161.6750  206.3760  153.9890 C   0  0  0  0  0  2  0  0  0  0  0  0
  160.2830  207.6310  155.5160 C   0  0  0  0  0  0  0  0  0  0  0  0
  160.1860  208.6180  156.3670 C   0  0  0  0  0  3  0  0  0  0  0  0
  160.3780  206.6510  154.6640 C   0  0  0  0  0  3  0  0  0  0  0  0
  160.6540  209.9410  156.0670 N   0  0  0  0  0  0  0  0  0  0  0  0
  159.4890  211.1920  155.7940 S   0  0  0  0  0  0  0  0  0  0  0  0
  158.1060  210.6100  155.8800 O   0  0  0  0  0  0  0  0  0  0  0  0
  159.6450  212.2640  156.8370 O   0  0  0  0  0  0  0  0  0  0  0  0
  158.9800  211.1260  153.1340 C   0  0  0  0  0  1  0  0  0  0  0  0
  159.2990  213.2340  154.1830 O   0  0  0  0  0  1  0  0  0  0  0  0
  159.7420  211.9120  154.1820 C   0  0  1  0  0  3  0  0  0  0  0  0
  162.0660  210.2360  155.8450 C   0  0  0  0  0  2  0  0  0  0  0  0
  162.8420  210.0920  157.1420 C   0  0  0  0  0  1  0  0  0  0  0  0
  161.0880  206.7400  146.6000 C   0  0  0  0  0  2  0  0  0  0  0  0
  162.2290  205.8410  146.1460 C   0  0  0  0  0  2  0  0  0  0  0  0
  161.2150  204.7580  144.1390 C   0  0  0  0  0  1  0  0  0  0  0  0
  161.5570  203.4130  146.2260 C   0  0  0  0  0  0  0  0  0  0  0  0
  161.7000  204.6460  145.5040 N   0  0  0  0  0  0  0  0  0  0  0  0
  161.8920  203.3510  147.4420 O   0  0  0  0  0  0  0  0  0  0  0  0
  161.0310  202.2550  145.5650 N   0  0  0  0  0  0  0  0  0  0  0  0
  160.7980  201.1480  146.1920 C   0  0  0  0  0  3  0  0  0  0  0  0
  160.2530  199.9790  145.4530 C   0  0  0  0  0  2  0  0  0  0  0  0
  161.2520  198.8420  145.4970 C   0  0  0  0  0  1  0  0  0  0  0  0
  1 12  2  0  0  0  0
  1 11  1  0  0  0  0
  2  8  1  0  0  0  0
  3 11  2  0  0  0  0
  4 10  1  0  0  0  0
  5  6  2  0  0  0  0
  5  9  1  0  0  0  0
  6  1  1  0  0  0  0
  7  5  1  0  0  0  0
  8  3  1  0  0  0  0
  9 15  1  0  0  0  0
  9 12  1  0  0  0  0
 10  8  2  0  0  0  0
 10  6  1  0  0  0  0
 12 19  1  0  0  0  0
 13  4  1  0  0  0  0
 13  7  2  0  0  0  0
 14 15  1  0  0  0  0
 14 16  1  0  0  0  0
 15 17  1  1  0  0  0
 15 16  1  0  0  0  0
 18 17  1  0  0  0  0
 19 22  1  0  0  0  0
 20 21  2  0  0  0  0
 22 20  2  0  0  0  0
 23 21  1  0  0  0  0
 24 25  2  0  0  0  0
 24 23  1  0  0  0  0
 24 26  2  0  0  0  0
 29 27  1  6  0  0  0
 29 28  1  0  0  0  0
 29 24  1  0  0  0  0
 30 23  1  0  0  0  0
 30 31  1  0  0  0  0
 32 13  1  0  0  0  0
 33 32  1  0  0  0  0
 34 36  1  0  0  0  0
 35 37  2  0  0  0  0
 36 33  1  0  0  0  0
 36 35  1  0  0  0  0
 38 39  2  0  0  0  0
 38 35  1  0  0  0  0
 40 41  1  0  0  0  0
 40 39  1  0  0  0  0
M  END
>  <MODEL>
4

>  <REMARK>
 VINA RESULT:      -6.3      1.513      3.638
  Name = 
  13 active torsions:
  status: ('A' for Active; 'I' for Inactive)
    1  A    between atoms: C_6  and  C_31
    2  A    between atoms: S_8  and  C_23
    3  A    between atoms: S_8  and  N_24
    4  A    between atoms: C_9  and  C_29
    5  A    between atoms: C_9  and  N_34
    6  A    between atoms: C_13  and  C_36
    7  A    between atoms: C_13  and  C_41
    8  A    between atoms: N_14  and  C_16
    9  A    between atoms: C_18  and  N_24
   10  A    between atoms: C_21  and  C_25
   11  A    between atoms: N_24  and  C_38
   12  A    between atoms: C_25  and  N_27
   13  A    between atoms: C_29  and  C_40
                            x       y       z     vdW  Elec       q    Type
                         _______ _______ _______ _____ _____    ______ ____

>  <TORSDO>
F 13

$$$$
=
 OpenBabel11052411233D

 41 44  0  0  1  0  0  0  0  0999 V2000
  161.5030  207.8710  150.5990 C   0  0  0  0  0  0  0  0  0  0  0  0
  161.0340  206.9500  154.6450 O   0  0  0  0  0  1  0  0  0  0  0  0
  161.3970  208.5890  152.8860 C   0  0  0  0  0  3  0  0  0  0  0  0
  160.9160  204.7470  152.6280 C   0  0  0  0  0  3  0  0  0  0  0  0
  161.2770  205.7750  149.9490 C   0  0  0  0  0  0  0  0  0  0  0  0
  161.3110  206.5950  151.0190 C   0  0  2  0  0  3  0  0  0  0  0  0
  161.0290  204.3390  150.1220 C   0  0  0  0  0  3  0  0  0  0  0  0
  161.1900  207.2440  153.2960 C   0  0  0  0  0  0  0  0  0  0  0  0
  161.4550  206.4980  148.8180 N   0  0  0  0  0  0  0  0  0  0  0  0
  161.1400  206.2180  152.3300 C   0  0  0  0  0  0  0  0  0  0  0  0
  161.5540  208.9200  151.5180 C   0  0  0  0  0  3  0  0  0  0  0  0
  161.5820  207.7990  149.2140 C   0  0  0  0  0  0  0  0  0  0  0  0
  160.8440  203.8600  151.3740 C   0  0  0  0  0  0  0  0  0  0  0  0
  161.9760  204.7240  147.3110 O   0  0  0  0  0  0  0  0  0  0  0  0
  161.4120  206.0030  147.4440 C   0  0  2  0  0  0  0  0  0  0  0  0
  162.7060  205.8060  146.7680 C   0  0  0  0  0  2  0  0  0  0  0  0
  160.1560  206.2030  146.6130 C   0  0  0  0  0  2  0  0  0  0  0  0
  160.4550  206.0680  145.2570 O   0  0  0  0  0  1  0  0  0  0  0  0
  161.7870  208.9570  148.2930 C   0  0  0  0  0  2  0  0  0  0  0  0
  162.0120  211.3300  148.6960 C   0  0  0  0  0  0  0  0  0  0  0  0
  161.6900  212.5460  148.3420 C   0  0  0  0  0  3  0  0  0  0  0  0
  162.3280  210.1170  149.0500 C   0  0  0  0  0  3  0  0  0  0  0  0
  160.3320  212.9460  148.1120 N   0  0  0  0  0  0  0  0  0  0  0  0
  159.7830  213.1190  146.4780 S   0  0  0  0  0  0  0  0  0  0  0  0
  160.5290  214.2450  145.8200 O   0  0  0  0  0  0  0  0  0  0  0  0
  160.0360  211.8440  145.7220 O   0  0  0  0  0  0  0  0  0  0  0  0
  157.6540  214.1840  145.1840 C   0  0  0  0  0  1  0  0  0  0  0  0
  157.3190  212.2690  146.5510 O   0  0  0  0  0  1  0  0  0  0  0  0
  158.0330  213.4630  146.4630 C   0  0  1  0  0  3  0  0  0  0  0  0
  159.4420  213.3460  149.1970 C   0  0  0  0  0  2  0  0  0  0  0  0
  160.2510  213.7960  150.4000 C   0  0  0  0  0  1  0  0  0  0  0  0
  160.6090  202.4010  151.5640 C   0  0  0  0  0  2  0  0  0  0  0  0
  161.4720  201.5900  150.6080 C   0  0  0  0  0  2  0  0  0  0  0  0
  159.3380  201.5950  149.3140 C   0  0  0  0  0  1  0  0  0  0  0  0
  161.4690  200.9300  148.1760 C   0  0  0  0  0  0  0  0  0  0  0  0
  160.7770  201.4010  149.3430 N   0  0  0  0  0  0  0  0  0  0  0  0
  162.7040  200.6720  148.2360 O   0  0  0  0  0  0  0  0  0  0  0  0
  160.7560  200.7530  146.9460 N   0  0  0  0  0  0  0  0  0  0  0  0
  160.4600  201.7450  146.1690 C   0  0  0  0  0  3  0  0  0  0  0  0
  159.7180  201.5000  144.9050 C   0  0  0  0  0  2  0  0  0  0  0  0
  159.5440  202.8070  144.1600 C   0  0  0  0  0  1  0  0  0  0  0  0
  1  6  1  0  0  0  0
  1 11  1  0  0  0  0
  3  8  1  0  0  0  0
  5  7  2  0  0  0  0
  6  5  1  6  0  0  0
  6 10  1  0  0  0  0
  7 13  1  0  0  0  0
  8  2  1  0  0  0  0
  9 12  1  0  0  0  0
  9  5  1  0  0  0  0
 10  4  1  0  0  0  0
 10  8  2  0  0  0  0
 11  3  2  0  0  0  0
 12  1  2  0  0  0  0
 13 32  1  0  0  0  0
 13  4  2  0  0  0  0
 14 15  1  0  0  0  0
 15 17  1  6  0  0  0
 15  9  1  0  0  0  0
 16 14  1  0  0  0  0
 16 15  1  0  0  0  0
 18 17  1  0  0  0  0
 19 22  1  0  0  0  0
 19 12  1  0  0  0  0
 20 22  2  0  0  0  0
 21 20  2  0  0  0  0
 23 21  1  0  0  0  0
 23 30  1  0  0  0  0
 24 23  1  0  0  0  0
 25 24  2  0  0  0  0
 26 24  2  0  0  0  0
 29 27  1  6  0  0  0
 29 24  1  0  0  0  0
 29 28  1  0  0  0  0
 30 31  1  0  0  0  0
 33 32  1  0  0  0  0
 34 36  1  0  0  0  0
 35 37  2  0  0  0  0
 35 36  1  0  0  0  0
 36 33  1  0  0  0  0
 38 35  1  0  0  0  0
 39 38  2  0  0  0  0
 40 39  1  0  0  0  0
 41 40  1  0  0  0  0
M  END
>  <MODEL>
5

>  <REMARK>
 VINA RESULT:      -5.9      3.810      6.353
  Name = 
  13 active torsions:
  status: ('A' for Active; 'I' for Inactive)
    1  A    between atoms: C_6  and  C_31
    2  A    between atoms: S_8  and  C_23
    3  A    between atoms: S_8  and  N_24
    4  A    between atoms: C_9  and  C_29
    5  A    between atoms: C_9  and  N_34
    6  A    between atoms: C_13  and  C_36
    7  A    between atoms: C_13  and  C_41
    8  A    between atoms: N_14  and  C_16
    9  A    between atoms: C_18  and  N_24
   10  A    between atoms: C_21  and  C_25
   11  A    between atoms: N_24  and  C_38
   12  A    between atoms: C_25  and  N_27
   13  A    between atoms: C_29  and  C_40
                            x       y       z     vdW  Elec       q    Type
                         _______ _______ _______ _____ _____    ______ ____

>  <TORSDO>
F 13

$$$$
=
 OpenBabel11052411233D

 41 44  0  0  1  0  0  0  0  0999 V2000
  160.5720  209.6800  153.7230 C   0  0  0  0  0  0  0  0  0  0  0  0
  159.8770  206.7580  156.6240 O   0  0  0  0  0  1  0  0  0  0  0  0
  159.7910  209.0810  155.9110 C   0  0  0  0  0  3  0  0  0  0  0  0
  161.0480  205.9500  153.9950 C   0  0  0  0  0  3  0  0  0  0  0  0
  161.3760  208.2390  152.2590 C   0  0  0  0  0  0  0  0  0  0  0  0
  160.8780  208.3770  153.5040 C   0  0  2  0  0  3  0  0  0  0  0  0
  161.7400  206.9130  151.7470 C   0  0  0  0  0  3  0  0  0  0  0  0
  160.1140  207.7220  155.6510 C   0  0  0  0  0  0  0  0  0  0  0  0
  161.4130  209.4490  151.6500 N   0  0  0  0  0  0  0  0  0  0  0  0
  160.6690  207.3610  154.4060 C   0  0  0  0  0  0  0  0  0  0  0  0
  160.0160  210.0850  154.9380 C   0  0  0  0  0  3  0  0  0  0  0  0
  160.9030  210.3430  152.5480 C   0  0  0  0  0  0  0  0  0  0  0  0
  161.5730  205.8390  152.5540 C   0  0  0  0  0  0  0  0  0  0  0  0
  163.0780  210.3310  150.1870 O   0  0  0  0  0  0  0  0  0  0  0  0
  161.8150  209.7240  150.2730 C   0  0  2  0  0  0  0  0  0  0  0  0
  161.9580  211.1420  149.8940 C   0  0  0  0  0  2  0  0  0  0  0  0
  161.5650  208.6840  149.1950 C   0  0  0  0  0  2  0  0  0  0  0  0
  162.7000  208.5420  148.3960 O   0  0  0  0  0  1  0  0  0  0  0  0
  160.7440  211.8060  152.2990 C   0  0  0  0  0  2  0  0  0  0  0  0
  158.4190  212.2480  152.7900 C   0  0  0  0  0  0  0  0  0  0  0  0
  157.4890  212.3990  153.6970 C   0  0  0  0  0  3  0  0  0  0  0  0
  159.3460  212.1020  151.8880 C   0  0  0  0  0  3  0  0  0  0  0  0
  157.6570  213.2610  154.8320 N   0  0  0  0  0  0  0  0  0  0  0  0
  156.3710  213.3720  155.9870 S   0  0  0  0  0  0  0  0  0  0  0  0
  156.6900  214.4520  156.9830 O   0  0  0  0  0  0  0  0  0  0  0  0
  155.0860  213.7090  155.2810 O   0  0  0  0  0  0  0  0  0  0  0  0
  155.4940  210.8100  155.9190 C   0  0  0  0  0  1  0  0  0  0  0  0
  157.4280  211.3210  157.2010 O   0  0  0  0  0  1  0  0  0  0  0  0
  156.1780  211.8120  156.8280 C   0  0  1  0  0  3  0  0  0  0  0  0
  158.8060  214.1490  154.9740 C   0  0  0  0  0  2  0  0  0  0  0  0
  159.7320  213.6380  156.0630 C   0  0  0  0  0  1  0  0  0  0  0  0
  161.9550  204.4890  152.0520 C   0  0  0  0  0  2  0  0  0  0  0  0
  160.7380  203.7560  151.5090 C   0  0  0  0  0  2  0  0  0  0  0  0
  160.6260  204.8660  149.2760 C   0  0  0  0  0  1  0  0  0  0  0  0
  160.9740  202.3870  149.4060 C   0  0  0  0  0  0  0  0  0  0  0  0
  160.8180  203.6570  150.0580 N   0  0  0  0  0  0  0  0  0  0  0  0
  161.0440  201.3290  150.0920 O   0  0  0  0  0  0  0  0  0  0  0  0
  161.0490  202.3240  147.9760 N   0  0  0  0  0  0  0  0  0  0  0  0
  160.7300  201.2590  147.3140 C   0  0  0  0  0  3  0  0  0  0  0  0
  160.8270  201.2520  145.8310 C   0  0  0  0  0  2  0  0  0  0  0  0
  160.8310  202.6760  145.3170 C   0  0  0  0  0  1  0  0  0  0  0  0
  1 11  1  0  0  0  0
  4 10  1  0  0  0  0
  6  5  1  6  0  0  0
  6  1  1  0  0  0  0
  6 10  1  0  0  0  0
  7  5  2  0  0  0  0
  7 13  1  0  0  0  0
  8  3  1  0  0  0  0
  8  2  1  0  0  0  0
  9  5  1  0  0  0  0
  9 12  1  0  0  0  0
 10  8  2  0  0  0  0
 11  3  2  0  0  0  0
 12  1  2  0  0  0  0
 13  4  2  0  0  0  0
 14 15  1  0  0  0  0
 15 17  1  6  0  0  0
 15  9  1  0  0  0  0
 16 14  1  0  0  0  0
 16 15  1  0  0  0  0
 18 17  1  0  0  0  0
 19 12  1  0  0  0  0
 20 21  2  0  0  0  0
 21 23  1  0  0  0  0
 22 19  1  0  0  0  0
 22 20  2  0  0  0  0
 23 30  1  0  0  0  0
 23 24  1  0  0  0  0
 24 29  1  0  0  0  0
 24 25  2  0  0  0  0
 26 24  2  0  0  0  0
 29 27  1  6  0  0  0
 29 28  1  0  0  0  0
 30 31  1  0  0  0  0
 32 13  1  0  0  0  0
 33 32  1  0  0  0  0
 34 36  1  0  0  0  0
 35 36  1  0  0  0  0
 35 37  2  0  0  0  0
 36 33  1  0  0  0  0
 38 35  1  0  0  0  0
 39 38  2  0  0  0  0
 40 39  1  0  0  0  0
 41 40  1  0  0  0  0
M  END
>  <MODEL>
6

>  <REMARK>
 VINA RESULT:      -5.7      2.057      4.017
  Name = 
  13 active torsions:
  status: ('A' for Active; 'I' for Inactive)
    1  A    between atoms: C_6  and  C_31
    2  A    between atoms: S_8  and  C_23
    3  A    between atoms: S_8  and  N_24
    4  A    between atoms: C_9  and  C_29
    5  A    between atoms: C_9  and  N_34
    6  A    between atoms: C_13  and  C_36
    7  A    between atoms: C_13  and  C_41
    8  A    between atoms: N_14  and  C_16
    9  A    between atoms: C_18  and  N_24
   10  A    between atoms: C_21  and  C_25
   11  A    between atoms: N_24  and  C_38
   12  A    between atoms: C_25  and  N_27
   13  A    between atoms: C_29  and  C_40
                            x       y       z     vdW  Elec       q    Type
                         _______ _______ _______ _____ _____    ______ ____

>  <TORSDO>
F 13

$$$$
=
 OpenBabel11052411233D

 41 44  0  0  1  0  0  0  0  0999 V2000
  161.7020  209.5970  152.6850 C   0  0  0  0  0  0  0  0  0  0  0  0
  161.9180  208.3730  148.6980 O   0  0  0  0  0  1  0  0  0  0  0  0
  162.1330  210.1150  150.3810 C   0  0  0  0  0  3  0  0  0  0  0  0
  161.1570  206.3810  150.7930 C   0  0  0  0  0  2  0  0  0  0  0  0
  161.1210  207.5980  153.4160 C   0  0  0  0  0  0  0  0  0  0  0  0
  161.4230  208.3210  152.3180 C   0  0  0  0  0  0  0  0  0  0  0  0
  160.8280  206.1650  153.3040 C   0  0  0  0  0  3  0  0  0  0  0  0
  161.8420  208.7690  150.0280 C   0  0  0  0  0  0  0  0  0  0  0  0
  161.1890  208.3910  154.5120 N   0  0  0  0  0  0  0  0  0  0  0  0
  161.4820  207.8450  151.0300 C   0  0  0  0  0  0  0  0  0  0  0  0
  162.0690  210.5460  151.7290 C   0  0  0  0  0  3  0  0  0  0  0  0
  161.5620  209.6270  154.0660 C   0  0  0  0  0  0  0  0  0  0  0  0
  160.8600  205.5910  152.0780 C   0  0  0  0  0  0  0  0  0  0  0  0
  161.9960  208.4970  156.7550 O   0  0  0  0  0  0  0  0  0  0  0  0
  161.0060  207.9810  155.9020 C   0  0  2  0  0  0  0  0  0  0  0  0
  162.0460  207.1110  156.4800 C   0  0  0  0  0  2  0  0  0  0  0  0
  159.6140  207.9890  156.5110 C   0  0  0  0  0  2  0  0  0  0  0  0
  158.8540  206.9490  155.9760 O   0  0  0  0  0  1  0  0  0  0  0  0
  161.7710  210.8220  154.9370 C   0  0  0  0  0  2  0  0  0  0  0  0
  159.7480  211.7340  155.8950 C   0  0  0  0  0  0  0  0  0  0  0  0
  158.7700  212.5960  155.7990 C   0  0  0  0  0  3  0  0  0  0  0  0
  160.7200  210.8730  155.9880 C   0  0  0  0  0  3  0  0  0  0  0  0
  158.0000  212.7540  154.5980 N   0  0  0  0  0  0  0  0  0  0  0  0
  156.2740  212.6590  154.6990 S   0  0  0  0  0  0  0  0  0  0  0  0
  155.6660  213.4880  153.6020 O   0  0  0  0  0  0  0  0  0  0  0  0
  155.8360  211.2290  154.5440 O   0  0  0  0  0  0  0  0  0  0  0  0
  154.6630  214.3260  156.1020 C   0  0  0  0  0  1  0  0  0  0  0  0
  155.2080  212.2100  157.0350 O   0  0  0  0  0  1  0  0  0  0  0  0
  155.7280  213.2630  156.2860 C   0  0  1  0  0  3  0  0  0  0  0  0
  158.6220  212.8490  153.2810 C   0  0  0  0  0  2  0  0  0  0  0  0
  158.6660  211.4820  152.6220 C   0  0  0  0  0  1  0  0  0  0  0  0
  160.5470  204.1400  151.9490 C   0  0  0  0  0  2  0  0  0  0  0  0
  161.6770  203.4110  151.2360 C   0  0  0  0  0  2  0  0  0  0  0  0
  160.6950  201.2540  150.4530 C   0  0  0  0  0  1  0  0  0  0  0  0
  161.1570  203.0740  148.7930 C   0  0  0  0  0  0  0  0  0  0  0  0
  161.1440  202.6020  150.1490 N   0  0  0  0  0  0  0  0  0  0  0  0
  161.6390  204.2100  148.5250 O   0  0  0  0  0  0  0  0  0  0  0  0
  160.6260  202.2520  147.7460 N   0  0  0  0  0  0  0  0  0  0  0  0
  161.3080  201.2940  147.2070 C   0  0  0  0  0  3  0  0  0  0  0  0
  160.7050  200.4740  146.1230 C   0  0  0  0  0  2  0  0  0  0  0  0
  161.4500  199.1600  146.0090 C   0  0  0  0  0  1  0  0  0  0  0  0
  1 12  2  0  0  0  0
  2  8  1  0  0  0  0
  3 11  2  0  0  0  0
  4 10  1  0  0  0  0
  4 13  1  0  0  0  0
  5  9  1  0  0  0  0
  6  1  1  0  0  0  0
  6  5  2  0  0  0  0
  7  5  1  0  0  0  0
  8  3  1  0  0  0  0
  8 10  2  0  0  0  0
  9 15  1  0  0  0  0
 10  6  1  0  0  0  0
 11  1  1  0  0  0  0
 12  9  1  0  0  0  0
 12 19  1  0  0  0  0
 13  7  2  0  0  0  0
 15 16  1  0  0  0  0
 15 17  1  1  0  0  0
 15 14  1  0  0  0  0
 16 14  1  0  0  0  0
 18 17  1  0  0  0  0
 19 22  1  0  0  0  0
 20 22  2  0  0  0  0
 21 20  2  0  0  0  0
 23 24  1  0  0  0  0
 23 21  1  0  0  0  0
 24 29  1  0  0  0  0
 25 24  2  0  0  0  0
 26 24  2  0  0  0  0
 29 27  1  6  0  0  0
 29 28  1  0  0  0  0
 30 23  1  0  0  0  0
 31 30  1  0  0  0  0
 32 13  1  0  0  0  0
 33 32  1  0  0  0  0
 35 36  1  0  0  0  0
 36 34  1  0  0  0  0
 36 33  1  0  0  0  0
 37 35  2  0  0  0  0
 38 35  1  0  0  0  0
 39 38  2  0  0  0  0
 40 39  1  0  0  0  0
 41 40  1  0  0  0  0
M  END
>  <MODEL>
7

>  <REMARK>
 VINA RESULT:      -5.1      2.207      4.001
  Name = 
  13 active torsions:
  status: ('A' for Active; 'I' for Inactive)
    1  A    between atoms: C_6  and  C_31
    2  A    between atoms: S_8  and  C_23
    3  A    between atoms: S_8  and  N_24
    4  A    between atoms: C_9  and  C_29
    5  A    between atoms: C_9  and  N_34
    6  A    between atoms: C_13  and  C_36
    7  A    between atoms: C_13  and  C_41
    8  A    between atoms: N_14  and  C_16
    9  A    between atoms: C_18  and  N_24
   10  A    between atoms: C_21  and  C_25
   11  A    between atoms: N_24  and  C_38
   12  A    between atoms: C_25  and  N_27
   13  A    between atoms: C_29  and  C_40
                            x       y       z     vdW  Elec       q    Type
                         _______ _______ _______ _____ _____    ______ ____

>  <TORSDO>
F 13

$$$$
=
 OpenBabel11052411233D

 41 44  0  0  1  0  0  0  0  0999 V2000
  162.0150  208.1130  151.0060 C   0  0  0  0  0  0  0  0  0  0  0  0
  161.6620  211.3460  148.3870 O   0  0  0  0  0  1  0  0  0  0  0  0
  162.3190  209.0440  148.8160 C   0  0  0  0  0  3  0  0  0  0  0  0
  160.7460  211.6580  151.2150 C   0  0  0  0  0  2  0  0  0  0  0  0
  161.1470  209.2150  152.7090 C   0  0  0  0  0  0  0  0  0  0  0  0
  161.5070  209.3030  151.4130 C   0  0  0  0  0  0  0  0  0  0  0  0
  160.5180  210.3550  153.3850 C   0  0  0  0  0  3  0  0  0  0  0  0
  161.7750  210.2770  149.2680 C   0  0  0  0  0  0  0  0  0  0  0  0
  161.4240  207.9720  153.1720 N   0  0  0  0  0  0  0  0  0  0  0  0
  161.3520  210.4060  150.6070 C   0  0  0  0  0  0  0  0  0  0  0  0
  162.4420  207.9360  149.6890 C   0  0  0  0  0  3  0  0  0  0  0  0
  161.9480  207.2810  152.1170 C   0  0  0  0  0  0  0  0  0  0  0  0
  160.3160  211.4940  152.6820 C   0  0  0  0  0  0  0  0  0  0  0  0
  161.3050  206.0540  154.5860 O   0  0  0  0  0  0  0  0  0  0  0  0
  161.1210  207.4430  154.5000 C   0  0  2  0  0  0  0  0  0  0  0  0
  159.9720  206.5260  154.6030 C   0  0  0  0  0  2  0  0  0  0  0  0
  161.5900  208.1960  155.7330 C   0  0  0  0  0  2  0  0  0  0  0  0
  161.0460  207.6180  156.8800 O   0  0  0  0  0  1  0  0  0  0  0  0
  162.3920  205.8560  152.1640 C   0  0  0  0  0  2  0  0  0  0  0  0
  160.8080  204.7210  150.7340 C   0  0  0  0  0  0  0  0  0  0  0  0
  160.3890  204.4820  149.5190 C   0  0  0  0  0  3  0  0  0  0  0  0
  161.2290  204.9560  151.9440 C   0  0  0  0  0  3  0  0  0  0  0  0
  161.2780  204.0900  148.4630 N   0  0  0  0  0  0  0  0  0  0  0  0
  161.5400  205.1850  147.1480 S   0  0  0  0  0  0  0  0  0  0  0  0
  160.5500  206.3130  147.2360 O   0  0  0  0  0  0  0  0  0  0  0  0
  162.9360  205.7390  147.2220 O   0  0  0  0  0  0  0  0  0  0  0  0
  160.6920  205.2380  144.5750 C   0  0  0  0  0  1  0  0  0  0  0  0
  162.5850  203.9130  145.1260 O   0  0  0  0  0  1  0  0  0  0  0  0
  161.3400  204.3260  145.5980 C   0  0  1  0  0  3  0  0  0  0  0  0
  161.8550  202.7520  148.3870 C   0  0  0  0  0  2  0  0  0  0  0  0
  160.8320  201.7690  147.8460 C   0  0  0  0  0  1  0  0  0  0  0  0
  159.6930  212.6650  153.3620 C   0  0  0  0  0  2  0  0  0  0  0  0
  159.9910  212.6370  154.8540 C   0  0  0  0  0  2  0  0  0  0  0  0
  158.2130  214.0720  155.8590 C   0  0  0  0  0  1  0  0  0  0  0  0
  158.1370  211.5900  156.2010 C   0  0  0  0  0  0  0  0  0  0  0  0
  158.7540  212.7460  155.6140 N   0  0  0  0  0  0  0  0  0  0  0  0
  158.6670  210.4520  156.0640 O   0  0  0  0  0  0  0  0  0  0  0  0
  156.9200  211.7310  156.9450 N   0  0  0  0  0  0  0  0  0  0  0  0
  155.7640  211.4410  156.4410 C   0  0  0  0  0  3  0  0  0  0  0  0
  154.5360  211.6090  157.2610 C   0  0  0  0  0  2  0  0  0  0  0  0
  153.7340  210.3240  157.2380 C   0  0  0  0  0  1  0  0  0  0  0  0
  1  6  1  0  0  0  0
  1 12  2  0  0  0  0
  2  8  1  0  0  0  0
  3  8  1  0  0  0  0
  3 11  2  0  0  0  0
  4 13  1  0  0  0  0
  5  9  1  0  0  0  0
  5  7  1  0  0  0  0
  6  5  2  0  0  0  0
  8 10  2  0  0  0  0
  9 15  1  0  0  0  0
 10  4  1  0  0  0  0
 10  6  1  0  0  0  0
 11  1  1  0  0  0  0
 12 19  1  0  0  0  0
 12  9  1  0  0  0  0
 13 32  1  0  0  0  0
 13  7  2  0  0  0  0
 14 16  1  0  0  0  0
 15 14  1  0  0  0  0
 15 16  1  0  0  0  0
 15 17  1  1  0  0  0
 17 18  1  0  0  0  0
 20 22  2  0  0  0  0
 21 20  2  0  0  0  0
 22 19  1  0  0  0  0
 23 21  1  0  0  0  0
 24 26  2  0  0  0  0
 24 25  2  0  0  0  0
 24 23  1  0  0  0  0
 28 29  1  0  0  0  0
 29 27  1  6  0  0  0
 29 24  1  0  0  0  0
 30 23  1  0  0  0  0
 31 30  1  0  0  0  0
 32 33  1  0  0  0  0
 33 36  1  0  0  0  0
 35 38  1  0  0  0  0
 36 34  1  0  0  0  0
 36 35  1  0  0  0  0
 37 35  2  0  0  0  0
 39 38  2  0  0  0  0
 39 40  1  0  0  0  0
 41 40  1  0  0  0  0
M  END
>  <MODEL>
8

>  <REMARK>
 VINA RESULT:      -5.0      2.911      9.801
  Name = 
  13 active torsions:
  status: ('A' for Active; 'I' for Inactive)
    1  A    between atoms: C_6  and  C_31
    2  A    between atoms: S_8  and  C_23
    3  A    between atoms: S_8  and  N_24
    4  A    between atoms: C_9  and  C_29
    5  A    between atoms: C_9  and  N_34
    6  A    between atoms: C_13  and  C_36
    7  A    between atoms: C_13  and  C_41
    8  A    between atoms: N_14  and  C_16
    9  A    between atoms: C_18  and  N_24
   10  A    between atoms: C_21  and  C_25
   11  A    between atoms: N_24  and  C_38
   12  A    between atoms: C_25  and  N_27
   13  A    between atoms: C_29  and  C_40
                            x       y       z     vdW  Elec       q    Type
                         _______ _______ _______ _____ _____    ______ ____

>  <TORSDO>
F 13

$$$$
=
 OpenBabel11052411233D

 41 44  0  0  1  0  0  0  0  0999 V2000
  160.9170  210.5960  151.9660 C   0  0  0  0  0  0  0  0  0  0  0  0
  161.3950  206.6430  153.2230 O   0  0  0  0  0  1  0  0  0  0  0  0
  160.7890  208.9480  153.7050 C   0  0  0  0  0  3  0  0  0  0  0  0
  162.0040  207.3510  150.3840 C   0  0  0  0  0  2  0  0  0  0  0  0
  161.5510  210.1650  149.8970 C   0  0  0  0  0  0  0  0  0  0  0  0
  161.3540  209.6300  151.1190 C   0  0  0  0  0  0  0  0  0  0  0  0
  161.9770  209.3190  148.7770 C   0  0  0  0  0  3  0  0  0  0  0  0
  161.2410  207.9550  152.7930 C   0  0  0  0  0  0  0  0  0  0  0  0
  161.2560  211.4860  149.9280 N   0  0  0  0  0  0  0  0  0  0  0  0
  161.5260  208.3090  151.4590 C   0  0  0  0  0  0  0  0  0  0  0  0
  160.6160  210.2930  153.2950 C   0  0  0  0  0  3  0  0  0  0  0  0
  160.8490  211.7560  151.2040 C   0  0  0  0  0  0  0  0  0  0  0  0
  162.1750  207.9990  149.0000 C   0  0  0  0  0  0  0  0  0  0  0  0
  162.2690  212.1180  147.8630 O   0  0  0  0  0  0  0  0  0  0  0  0
  161.2650  212.4140  148.7990 C   0  0  2  0  0  0  0  0  0  0  0  0
  162.4540  213.2730  148.6560 C   0  0  0  0  0  2  0  0  0  0  0  0
  159.9520  212.8420  148.1680 C   0  0  0  0  0  2  0  0  0  0  0  0
  159.7000  212.0800  147.0260 O   0  0  0  0  0  1  0  0  0  0  0  0
  160.4140  213.0960  151.6970 C   0  0  0  0  0  2  0  0  0  0  0  0
  158.1870  212.8450  152.6010 C   0  0  0  0  0  0  0  0  0  0  0  0
  157.4360  212.4760  153.6050 C   0  0  0  0  0  3  0  0  0  0  0  0
  158.9350  213.2160  151.6020 C   0  0  0  0  0  3  0  0  0  0  0  0
  157.6870  212.9070  154.9500 N   0  0  0  0  0  0  0  0  0  0  0  0
  157.9460  211.7080  156.1730 S   0  0  0  0  0  0  0  0  0  0  0  0
  156.8350  211.7810  157.1830 O   0  0  0  0  0  0  0  0  0  0  0  0
  157.9600  210.3420  155.5450 O   0  0  0  0  0  0  0  0  0  0  0  0
  160.2510  210.6820  157.1590 C   0  0  0  0  0  1  0  0  0  0  0  0
  160.2870  212.8560  156.2010 O   0  0  0  0  0  1  0  0  0  0  0  0
  159.5130  211.9930  156.9750 C   0  0  1  0  0  3  0  0  0  0  0  0
  157.5910  214.3070  155.3510 C   0  0  0  0  0  2  0  0  0  0  0  0
  156.6440  214.4530  156.5280 C   0  0  0  0  0  1  0  0  0  0  0  0
  162.6240  207.1320  147.8740 C   0  0  0  0  0  2  0  0  0  0  0  0
  161.4280  206.5710  147.1200 C   0  0  0  0  0  2  0  0  0  0  0  0
  161.2820  204.6830  148.7450 C   0  0  0  0  0  1  0  0  0  0  0  0
  161.3140  204.1950  146.2870 C   0  0  0  0  0  0  0  0  0  0  0  0
  161.3050  205.1420  147.3670 N   0  0  0  0  0  0  0  0  0  0  0  0
  161.4320  204.5980  145.0960 O   0  0  0  0  0  0  0  0  0  0  0  0
  161.1930  202.7950  146.5650 N   0  0  0  0  0  0  0  0  0  0  0  0
  160.8750  201.9340  145.6520 C   0  0  0  0  0  3  0  0  0  0  0  0
  160.7630  200.4930  145.9990 C   0  0  0  0  0  2  0  0  0  0  0  0
  161.3000  200.2660  147.3970 C   0  0  0  0  0  1  0  0  0  0  0  0
  1 11  1  0  0  0  0
  4 10  1  0  0  0  0
  5  9  1  0  0  0  0
  5  6  2  0  0  0  0
  6 10  1  0  0  0  0
  6  1  1  0  0  0  0
  7 13  2  0  0  0  0
  7  5  1  0  0  0  0
  8  2  1  0  0  0  0
  8  3  1  0  0  0  0
  9 12  1  0  0  0  0
 10  8  2  0  0  0  0
 11  3  2  0  0  0  0
 12 19  1  0  0  0  0
 12  1  2  0  0  0  0
 13  4  1  0  0  0  0
 14 16  1  0  0  0  0
 14 15  1  0  0  0  0
 15 17  1  6  0  0  0
 15  9  1  0  0  0  0
 16 15  1  0  0  0  0
 18 17  1  0  0  0  0
 20 21  2  0  0  0  0
 21 23  1  0  0  0  0
 22 19  1  0  0  0  0
 22 20  2  0  0  0  0
 23 30  1  0  0  0  0
 23 24  1  0  0  0  0
 24 29  1  0  0  0  0
 24 25  2  0  0  0  0
 26 24  2  0  0  0  0
 28 29  1  0  0  0  0
 29 27  1  6  0  0  0
 30 31  1  0  0  0  0
 32 13  1  0  0  0  0
 33 36  1  0  0  0  0
 33 32  1  0  0  0  0
 35 38  1  0  0  0  0
 35 36  1  0  0  0  0
 36 34  1  0  0  0  0
 37 35  2  0  0  0  0
 39 40  1  0  0  0  0
 39 38  2  0  0  0  0
 40 41  1  0  0  0  0
M  END
>  <MODEL>
9

>  <REMARK>
 VINA RESULT:      -4.8      2.430      3.917
  Name = 
  13 active torsions:
  status: ('A' for Active; 'I' for Inactive)
    1  A    between atoms: C_6  and  C_31
    2  A    between atoms: S_8  and  C_23
    3  A    between atoms: S_8  and  N_24
    4  A    between atoms: C_9  and  C_29
    5  A    between atoms: C_9  and  N_34
    6  A    between atoms: C_13  and  C_36
    7  A    between atoms: C_13  and  C_41
    8  A    between atoms: N_14  and  C_16
    9  A    between atoms: C_18  and  N_24
   10  A    between atoms: C_21  and  C_25
   11  A    between atoms: N_24  and  C_38
   12  A    between atoms: C_25  and  N_27
   13  A    between atoms: C_29  and  C_40
                            x       y       z     vdW  Elec       q    Type
                         _______ _______ _______ _____ _____    ______ ____

>  <TORSDO>
F 13

$$$$
