=
 OpenBabel11042421463D

 51 54  0  0  1  0  0  0  0  0999 V2000
  161.3860  209.6760  152.7480 C   0  0  2  0  0  0  0  0  0  0  0  0
  159.9020  209.4000  152.4930 C   0  0  0  0  0  1  0  0  0  0  0  0
  161.5640  210.6480  153.9550 C   0  0  1  0  0  3  0  0  0  0  0  0
  160.3970  211.4780  154.2780 C   0  0  0  0  0  0  0  0  0  0  0  0
  160.5350  209.9750  156.0340 O   0  0  0  0  0  0  0  0  0  0  0  0
  160.0400  212.4500  153.6330 O   0  0  0  0  0  0  0  0  0  0  0  0
  161.7300  209.9040  155.2770 C   0  0  0  0  0  2  0  0  0  0  0  0
  159.8050  211.0880  155.5700 C   0  0  1  0  0  3  0  0  0  0  0  0
  159.9200  212.1370  156.4830 O   0  0  0  0  0  0  0  0  0  0  0  0
  158.7610  212.0660  157.2570 C   0  0  0  0  0  2  0  0  0  0  0  0
  157.5520  212.3080  156.3800 C   0  0  0  0  0  2  0  0  0  0  0  0
  156.4460  212.9230  157.2090 C   0  0  0  0  0  1  0  0  0  0  0  0
  162.0370  210.2660  151.4600 C   0  0  2  0  0  3  0  0  0  0  0  0
  163.3650  210.6590  151.6720 O   0  0  0  0  0  1  0  0  0  0  0  0
  161.2630  211.4060  150.7850 C   0  0  0  0  0  2  0  0  0  0  0  0
  161.9680  211.9420  149.5460 C   0  0  0  0  0  2  0  0  0  0  0  0
  160.9780  212.2070  148.4180 C   0  0  0  0  0  2  0  0  0  0  0  0
  159.9790  214.3750  148.2980 O   0  0  0  0  0  1  0  0  0  0  0  0
  161.0690  213.6260  147.8470 C   0  0  2  0  0  3  0  0  0  0  0  0
  159.7160  213.2770  144.2980 C   0  0  0  0  0  2  0  0  0  0  0  0
  160.1830  212.6670  145.6100 C   0  0  2  0  0  3  0  0  0  0  0  0
  159.0610  212.3850  146.3910 O   0  0  0  0  0  1  0  0  0  0  0  0
  160.7930  212.8200  142.9500 S   0  0  0  0  0  0  0  0  0  0  0  0
  160.3540  211.4930  142.4030 O   0  0  0  0  0  0  0  0  0  0  0  0
  162.5890  213.3400  145.8600 C   0  0  0  0  0  2  0  0  0  0  0  0
  162.4980  212.7020  143.4510 C   0  0  0  0  0  2  0  0  0  0  0  0
  161.1550  213.6410  146.3060 C   0  0  2  0  0  3  0  0  0  0  0  0
  162.8550  213.8010  144.4360 C   0  0  0  0  0  2  0  0  0  0  0  0
  160.6760  213.8560  141.8690 O   0  0  0  0  0  0  0  0  0  0  0  0
  162.0360  208.3250  153.1070 C   0  0  0  0  0  2  0  0  0  0  0  0
  161.1360  207.1210  152.8180 C   0  0  2  0  0  3  0  0  0  0  0  0
  160.6820  206.4170  154.0930 C   0  0  0  0  0  1  0  0  0  0  0  0
  161.6380  206.2830  151.7830 O   0  0  0  0  0  0  0  0  0  0  0  0
  161.3350  206.7340  150.4640 C   0  0  2  0  0  3  0  0  0  0  0  0
  161.0480  206.0700  146.0590 C   0  0  0  0  0  3  0  0  0  0  0  0
  160.8170  201.6500  149.9600 C   0  0  0  0  0  1  0  0  0  0  0  0
  161.4780  202.8720  147.9480 C   0  0  0  0  0  2  0  0  0  0  0  0
  160.6720  202.9790  149.2350 C   0  0  2  0  0  3  0  0  0  0  0  0
  161.9420  205.6750  148.3030 C   0  0  0  0  0  2  0  0  0  0  0  0
  161.3320  203.2660  145.4830 C   0  0  0  0  0  2  0  0  0  0  0  0
  160.9950  205.5710  149.4980 C   0  0  1  0  0  3  0  0  0  0  0  0
  161.0890  204.1600  150.1560 C   0  0  1  0  0  3  0  0  0  0  0  0
  160.3980  205.5780  144.7970 C   0  0  0  0  0  2  0  0  0  0  0  0
  161.0420  204.2620  144.3370 C   0  0  0  0  0  2  0  0  0  0  0  0
  160.8850  203.7600  146.8650 C   0  0  2  0  0  3  0  0  0  0  0  0
  161.2710  205.2050  147.0550 C   0  0  0  0  0  0  0  0  0  0  0  0
  160.2960  204.0840  151.4690 C   0  0  0  0  0  2  0  0  0  0  0  0
  161.0050  203.2440  152.5230 C   0  0  0  0  0  1  0  0  0  0  0  0
  162.3150  207.6040  149.9580 O   0  0  0  0  0  0  0  0  0  0  0  0
  161.6710  208.3270  148.9490 C   0  0  0  0  0  2  0  0  0  0  0  0
  162.6060  209.0780  148.2350 O   0  0  0  0  0  1  0  0  0  0  0  0
  1  2  1  6  0  0  0
  1 30  1  0  0  0  0
  3  1  1  6  0  0  0
  3  4  1  0  0  0  0
  3  7  1  0  0  0  0
  4  8  1  0  0  0  0
  6  4  2  0  0  0  0
  7  5  1  0  0  0  0
  8  5  1  0  0  0  0
  8  9  1  1  0  0  0
  9 10  1  0  0  0  0
 11 12  1  0  0  0  0
 11 10  1  0  0  0  0
 13 14  1  1  0  0  0
 13  1  1  0  0  0  0
 15 13  1  0  0  0  0
 16 15  1  0  0  0  0
 17 16  1  0  0  0  0
 19 18  1  6  0  0  0
 19 17  1  0  0  0  0
 20 21  1  0  0  0  0
 21 27  1  0  0  0  0
 21 22  1  1  0  0  0
 23 26  1  0  0  0  0
 23 20  1  0  0  0  0
 24 23  2  0  0  0  0
 25 27  1  0  0  0  0
 26 28  1  0  0  0  0
 27 19  1  1  0  0  0
 28 25  1  0  0  0  0
 29 23  2  0  0  0  0
 31 30  1  0  0  0  0
 31 32  1  1  0  0  0
 33 31  1  0  0  0  0
 34 49  1  6  0  0  0
 34 33  1  0  0  0  0
 35 46  2  0  0  0  0
 37 38  1  0  0  0  0
 38 36  1  1  0  0  0
 38 42  1  0  0  0  0
 39 41  1  0  0  0  0
 41 42  1  0  0  0  0
 41 34  1  1  0  0  0
 42 47  1  1  0  0  0
 43 35  1  0  0  0  0
 44 43  1  0  0  0  0
 44 40  1  0  0  0  0
 45 40  1  6  0  0  0
 45 46  1  0  0  0  0
 45 37  1  0  0  0  0
 46 39  1  0  0  0  0
 47 48  1  0  0  0  0
 50 49  1  0  0  0  0
 51 50  1  0  0  0  0
M  END
>  <MODEL>
1

>  <REMARK>
 VINA RESULT:      -6.7      0.000      0.000
  Name = 
  18 active torsions:
  status: ('A' for Active; 'I' for Inactive)
    1  A    between atoms: C_1  and  C_4
    2  A    between atoms: C_1  and  C_10
    3  A    between atoms: C_4  and  C_9
    4  A    between atoms: C_5  and  C_9
    5  A    between atoms: C_9  and  C_38
    6  A    between atoms: C_10  and  C_43
    7  A    between atoms: C_11  and  O_15
    8  A    between atoms: C_11  and  C_38
    9  A    between atoms: O_15  and  C_26
   10  A    between atoms: O_18  and  C_19
   11  A    between atoms: O_18  and  C_45
   12  A    between atoms: C_19  and  C_21
   13  A    between atoms: C_22  and  O_47
   14  A    between atoms: C_26  and  C_34
   15  A    between atoms: C_26  and  O_47
   16  A    between atoms: C_29  and  C_35
   17  A    between atoms: C_37  and  C_50
   18  A    between atoms: C_43  and  C_50
                            x       y       z     vdW  Elec       q    Type
                         _______ _______ _______ _____ _____    ______ ____

>  <TORSDO>
F 18

$$$$
=
 OpenBabel11042421463D

 51 54  0  0  1  0  0  0  0  0999 V2000
  161.2660  207.0680  149.7100 C   0  0  2  0  0  0  0  0  0  0  0  0
  159.9240  206.3510  149.8810 C   0  0  0  0  0  1  0  0  0  0  0  0
  162.2010  206.2610  148.7580 C   0  0  1  0  0  3  0  0  0  0  0  0
  161.6800  204.9630  148.3100 C   0  0  0  0  0  0  0  0  0  0  0  0
  161.6270  206.2890  146.4120 O   0  0  0  0  0  0  0  0  0  0  0  0
  161.6300  203.9610  149.0040 O   0  0  0  0  0  0  0  0  0  0  0  0
  162.3870  206.9480  147.4090 C   0  0  0  0  0  2  0  0  0  0  0  0
  161.3760  204.9790  146.8680 C   0  0  1  0  0  3  0  0  0  0  0  0
  162.2090  204.0820  146.1950 O   0  0  0  0  0  0  0  0  0  0  0  0
  161.3670  203.4100  145.3080 C   0  0  0  0  0  2  0  0  0  0  0  0
  160.8220  202.1650  145.9740 C   0  0  0  0  0  2  0  0  0  0  0  0
  159.9660  201.4020  144.9870 C   0  0  0  0  0  1  0  0  0  0  0  0
  161.9340  207.2710  151.1030 C   0  0  2  0  0  3  0  0  0  0  0  0
  163.0460  206.4400  151.2830 O   0  0  0  0  0  1  0  0  0  0  0  0
  160.9980  207.1500  152.3130 C   0  0  0  0  0  2  0  0  0  0  0  0
  161.6980  207.4580  153.6300 C   0  0  0  0  0  2  0  0  0  0  0  0
  160.8230  208.3230  154.5320 C   0  0  0  0  0  2  0  0  0  0  0  0
  162.2540  209.8690  155.6600 O   0  0  0  0  0  1  0  0  0  0  0  0
  161.3050  209.7730  154.6390 C   0  0  2  0  0  3  0  0  0  0  0  0
  158.7620  211.7230  156.7080 C   0  0  0  0  0  2  0  0  0  0  0  0
  159.2490  210.4320  156.0710 C   0  0  2  0  0  3  0  0  0  0  0  0
  159.9200  209.6850  157.0410 O   0  0  0  0  0  1  0  0  0  0  0  0
  157.2190  212.2600  155.9910 S   0  0  0  0  0  0  0  0  0  0  0  0
  156.0870  211.5730  156.6970 O   0  0  0  0  0  0  0  0  0  0  0  0
  159.2880  210.8610  153.5970 C   0  0  0  0  0  2  0  0  0  0  0  0
  157.1160  211.8990  154.2490 C   0  0  0  0  0  2  0  0  0  0  0  0
  160.1460  210.7680  154.8610 C   0  0  2  0  0  3  0  0  0  0  0  0
  158.4510  212.1310  153.5640 C   0  0  0  0  0  2  0  0  0  0  0  0
  157.0880  213.7440  156.1870 O   0  0  0  0  0  0  0  0  0  0  0  0
  160.9620  208.4320  149.0560 C   0  0  0  0  0  2  0  0  0  0  0  0
  162.0300  209.4910  149.3340 C   0  0  2  0  0  3  0  0  0  0  0  0
  161.9760  210.0080  150.7680 C   0  0  0  0  0  1  0  0  0  0  0  0
  162.1170  210.4800  148.3150 O   0  0  0  0  0  0  0  0  0  0  0  0
  162.0270  211.8230  148.7900 C   0  0  2  0  0  3  0  0  0  0  0  0
  160.6390  213.2030  144.7780 C   0  0  0  0  0  3  0  0  0  0  0  0
  157.2100  213.4190  149.5750 C   0  0  0  0  0  1  0  0  0  0  0  0
  157.8410  212.9960  147.2510 C   0  0  0  0  0  2  0  0  0  0  0  0
  158.3760  213.4600  148.5990 C   0  0  2  0  0  3  0  0  0  0  0  0
  160.4690  211.9280  146.8610 C   0  0  0  0  0  2  0  0  0  0  0  0
  157.7900  213.6040  144.8260 C   0  0  0  0  0  2  0  0  0  0  0  0
  160.8190  212.5880  148.1950 C   0  0  1  0  0  3  0  0  0  0  0  0
  159.5750  212.6270  149.1340 C   0  0  1  0  0  3  0  0  0  0  0  0
  160.0880  214.2000  143.7980 C   0  0  0  0  0  2  0  0  0  0  0  0
  158.5950  213.9420  143.5500 C   0  0  0  0  0  2  0  0  0  0  0  0
  158.6260  213.6300  146.1130 C   0  0  2  0  0  3  0  0  0  0  0  0
  159.9480  212.9380  145.8920 C   0  0  0  0  0  0  0  0  0  0  0  0
  159.9360  213.1090  150.5470 C   0  0  0  0  0  2  0  0  0  0  0  0
  160.6680  214.4450  150.5300 C   0  0  0  0  0  1  0  0  0  0  0  0
  163.2400  212.5180  148.6610 O   0  0  0  0  0  0  0  0  0  0  0  0
  163.7670  212.1020  147.4340 C   0  0  0  0  0  2  0  0  0  0  0  0
  163.5340  213.0790  146.4640 O   0  0  0  0  0  1  0  0  0  0  0  0
  1  2  1  1  0  0  0
  1 13  1  0  0  0  0
  3  1  1  1  0  0  0
  4  3  1  0  0  0  0
  4  6  2  0  0  0  0
  5  8  1  0  0  0  0
  5  7  1  0  0  0  0
  7  3  1  0  0  0  0
  8  9  1  6  0  0  0
  8  4  1  0  0  0  0
 10 11  1  0  0  0  0
 10  9  1  0  0  0  0
 12 11  1  0  0  0  0
 13 14  1  1  0  0  0
 13 15  1  0  0  0  0
 15 16  1  0  0  0  0
 16 17  1  0  0  0  0
 17 19  1  0  0  0  0
 19 18  1  1  0  0  0
 21 20  1  0  0  0  0
 21 22  1  1  0  0  0
 23 29  2  0  0  0  0
 23 24  2  0  0  0  0
 23 20  1  0  0  0  0
 25 27  1  0  0  0  0
 26 23  1  0  0  0  0
 27 19  1  6  0  0  0
 27 21  1  0  0  0  0
 28 25  1  0  0  0  0
 28 26  1  0  0  0  0
 30 31  1  0  0  0  0
 30  1  1  0  0  0  0
 31 32  1  1  0  0  0
 33 31  1  0  0  0  0
 34 33  1  6  0  0  0
 35 46  2  0  0  0  0
 37 38  1  0  0  0  0
 38 42  1  0  0  0  0
 38 36  1  1  0  0  0
 39 41  1  0  0  0  0
 41 34  1  1  0  0  0
 41 42  1  0  0  0  0
 42 47  1  1  0  0  0
 43 35  1  0  0  0  0
 44 43  1  0  0  0  0
 44 40  1  0  0  0  0
 45 40  1  6  0  0  0
 45 37  1  0  0  0  0
 46 45  1  0  0  0  0
 46 39  1  0  0  0  0
 48 47  1  0  0  0  0
 49 34  1  0  0  0  0
 50 49  1  0  0  0  0
 51 50  1  0  0  0  0
M  END
>  <MODEL>
2

>  <REMARK>
 VINA RESULT:      -6.3      2.913      9.537
  Name = 
  18 active torsions:
  status: ('A' for Active; 'I' for Inactive)
    1  A    between atoms: C_1  and  C_4
    2  A    between atoms: C_1  and  C_10
    3  A    between atoms: C_4  and  C_9
    4  A    between atoms: C_5  and  C_9
    5  A    between atoms: C_9  and  C_38
    6  A    between atoms: C_10  and  C_43
    7  A    between atoms: C_11  and  O_15
    8  A    between atoms: C_11  and  C_38
    9  A    between atoms: O_15  and  C_26
   10  A    between atoms: O_18  and  C_19
   11  A    between atoms: O_18  and  C_45
   12  A    between atoms: C_19  and  C_21
   13  A    between atoms: C_22  and  O_47
   14  A    between atoms: C_26  and  C_34
   15  A    between atoms: C_26  and  O_47
   16  A    between atoms: C_29  and  C_35
   17  A    between atoms: C_37  and  C_50
   18  A    between atoms: C_43  and  C_50
                            x       y       z     vdW  Elec       q    Type
                         _______ _______ _______ _____ _____    ______ ____

>  <TORSDO>
F 18

$$$$
=
 OpenBabel11042421463D

 51 54  0  0  1  0  0  0  0  0999 V2000
  161.1460  206.9800  149.8490 C   0  0  2  0  0  0  0  0  0  0  0  0
  159.8260  206.2110  149.9500 C   0  0  0  0  0  1  0  0  0  0  0  0
  162.0580  206.3630  148.7440 C   0  0  1  0  0  3  0  0  0  0  0  0
  161.6160  205.0690  148.2090 C   0  0  0  0  0  0  0  0  0  0  0  0
  161.2670  206.5580  146.4700 O   0  0  0  0  0  0  0  0  0  0  0  0
  161.7210  204.0060  148.7970 O   0  0  0  0  0  0  0  0  0  0  0  0
  162.0550  207.1920  147.4630 C   0  0  0  0  0  2  0  0  0  0  0  0
  161.1790  205.1920  146.8060 C   0  0  1  0  0  3  0  0  0  0  0  0
  162.0220  204.4510  145.9770 O   0  0  0  0  0  0  0  0  0  0  0  0
  161.1630  203.7040  145.1700 C   0  0  0  0  0  2  0  0  0  0  0  0
  161.0600  202.2950  145.7100 C   0  0  0  0  0  2  0  0  0  0  0  0
  159.8490  201.6150  145.1110 C   0  0  0  0  0  1  0  0  0  0  0  0
  161.8660  206.9690  151.2320 C   0  0  2  0  0  3  0  0  0  0  0  0
  163.2360  206.7070  151.1130 O   0  0  0  0  0  1  0  0  0  0  0  0
  161.2540  206.0450  152.2930 C   0  0  0  0  0  2  0  0  0  0  0  0
  161.2040  206.6860  153.6730 C   0  0  0  0  0  2  0  0  0  0  0  0
  160.8330  208.1630  153.5830 C   0  0  0  0  0  2  0  0  0  0  0  0
  161.6770  208.1160  155.8190 O   0  0  0  0  0  1  0  0  0  0  0  0
  161.3020  208.9830  154.7890 C   0  0  2  0  0  3  0  0  0  0  0  0
  158.2540  211.2460  154.4160 C   0  0  0  0  0  2  0  0  0  0  0  0
  159.7220  210.9410  154.1690 C   0  0  2  0  0  3  0  0  0  0  0  0
  159.8520  210.3950  152.8910 O   0  0  0  0  0  1  0  0  0  0  0  0
  158.0540  212.6880  155.4480 S   0  0  0  0  0  0  0  0  0  0  0  0
  158.0870  213.9150  154.5840 O   0  0  0  0  0  0  0  0  0  0  0  0
  160.7860  210.8120  156.4400 C   0  0  0  0  0  2  0  0  0  0  0  0
  159.3290  212.8210  156.6860 C   0  0  0  0  0  2  0  0  0  0  0  0
  160.2360  209.9910  155.2710 C   0  0  2  0  0  3  0  0  0  0  0  0
  159.6790  211.4580  157.2580 C   0  0  0  0  0  2  0  0  0  0  0  0
  156.7200  212.6090  156.1330 O   0  0  0  0  0  0  0  0  0  0  0  0
  160.7910  208.4240  149.4410 C   0  0  0  0  0  2  0  0  0  0  0  0
  161.9940  209.3690  149.4360 C   0  0  2  0  0  3  0  0  0  0  0  0
  162.2910  209.9370  150.8190 C   0  0  0  0  0  1  0  0  0  0  0  0
  161.9650  210.3060  148.3660 O   0  0  0  0  0  0  0  0  0  0  0  0
  162.0320  211.6700  148.7780 C   0  0  2  0  0  3  0  0  0  0  0  0
  160.8090  212.5730  144.5810 C   0  0  0  0  0  3  0  0  0  0  0  0
  157.7250  214.4240  149.2580 C   0  0  0  0  0  1  0  0  0  0  0  0
  158.1450  213.4540  147.0530 C   0  0  0  0  0  2  0  0  0  0  0  0
  158.8270  214.0230  148.2900 C   0  0  2  0  0  3  0  0  0  0  0  0
  160.4530  211.7700  146.8660 C   0  0  0  0  0  2  0  0  0  0  0  0
  158.1240  213.6060  144.5580 C   0  0  0  0  0  2  0  0  0  0  0  0
  160.9980  212.5670  148.0520 C   0  0  1  0  0  3  0  0  0  0  0  0
  159.8350  213.0550  148.9690 C   0  0  1  0  0  3  0  0  0  0  0  0
  160.4490  213.4720  143.4330 C   0  0  0  0  0  2  0  0  0  0  0  0
  158.9260  213.5160  143.2390 C   0  0  0  0  0  2  0  0  0  0  0  0
  159.0000  213.6770  145.8150 C   0  0  2  0  0  3  0  0  0  0  0  0
  160.1260  212.6770  145.7260 C   0  0  0  0  0  0  0  0  0  0  0  0
  160.3550  213.6920  150.2660 C   0  0  0  0  0  2  0  0  0  0  0  0
  159.4930  213.3340  151.4700 C   0  0  0  0  0  1  0  0  0  0  0  0
  163.3390  212.1810  148.7270 O   0  0  0  0  0  0  0  0  0  0  0  0
  163.3440  213.0540  147.6340 C   0  0  0  0  0  2  0  0  0  0  0  0
  163.7270  214.3300  148.0500 O   0  0  0  0  0  1  0  0  0  0  0  0
  1  2  1  1  0  0  0
  1 13  1  0  0  0  0
  3  1  1  1  0  0  0
  4  3  1  0  0  0  0
  4  6  2  0  0  0  0
  5  8  1  0  0  0  0
  5  7  1  0  0  0  0
  7  3  1  0  0  0  0
  8  9  1  6  0  0  0
  8  4  1  0  0  0  0
 10 11  1  0  0  0  0
 10  9  1  0  0  0  0
 12 11  1  0  0  0  0
 13 14  1  6  0  0  0
 13 15  1  0  0  0  0
 15 16  1  0  0  0  0
 17 16  1  0  0  0  0
 17 19  1  0  0  0  0
 19 18  1  1  0  0  0
 20 23  1  0  0  0  0
 21 22  1  6  0  0  0
 21 20  1  0  0  0  0
 21 27  1  0  0  0  0
 23 29  2  0  0  0  0
 23 26  1  0  0  0  0
 24 23  2  0  0  0  0
 25 28  1  0  0  0  0
 26 28  1  0  0  0  0
 27 19  1  6  0  0  0
 27 25  1  0  0  0  0
 30  1  1  0  0  0  0
 31 30  1  0  0  0  0
 31 32  1  1  0  0  0
 33 31  1  0  0  0  0
 34 33  1  6  0  0  0
 35 46  2  0  0  0  0
 37 38  1  0  0  0  0
 38 42  1  0  0  0  0
 38 36  1  1  0  0  0
 39 41  1  0  0  0  0
 41 34  1  1  0  0  0
 41 42  1  0  0  0  0
 42 47  1  1  0  0  0
 43 35  1  0  0  0  0
 44 43  1  0  0  0  0
 44 40  1  0  0  0  0
 45 40  1  6  0  0  0
 45 37  1  0  0  0  0
 46 45  1  0  0  0  0
 46 39  1  0  0  0  0
 47 48  1  0  0  0  0
 49 34  1  0  0  0  0
 50 51  1  0  0  0  0
 50 49  1  0  0  0  0
M  END
>  <MODEL>
3

>  <REMARK>
 VINA RESULT:      -6.0      2.911      9.487
  Name = 
  18 active torsions:
  status: ('A' for Active; 'I' for Inactive)
    1  A    between atoms: C_1  and  C_4
    2  A    between atoms: C_1  and  C_10
    3  A    between atoms: C_4  and  C_9
    4  A    between atoms: C_5  and  C_9
    5  A    between atoms: C_9  and  C_38
    6  A    between atoms: C_10  and  C_43
    7  A    between atoms: C_11  and  O_15
    8  A    between atoms: C_11  and  C_38
    9  A    between atoms: O_15  and  C_26
   10  A    between atoms: O_18  and  C_19
   11  A    between atoms: O_18  and  C_45
   12  A    between atoms: C_19  and  C_21
   13  A    between atoms: C_22  and  O_47
   14  A    between atoms: C_26  and  C_34
   15  A    between atoms: C_26  and  O_47
   16  A    between atoms: C_29  and  C_35
   17  A    between atoms: C_37  and  C_50
   18  A    between atoms: C_43  and  C_50
                            x       y       z     vdW  Elec       q    Type
                         _______ _______ _______ _____ _____    ______ ____

>  <TORSDO>
F 18

$$$$
=
 OpenBabel11042421463D

 51 54  0  0  1  0  0  0  0  0999 V2000
  161.7230  208.8100  151.6190 C   0  0  2  0  0  0  0  0  0  0  0  0
  160.4000  208.1400  151.2390 C   0  0  0  0  0  1  0  0  0  0  0  0
  162.0340  208.5900  153.1320 C   0  0  1  0  0  3  0  0  0  0  0  0
  162.0990  209.8090  153.9480 C   0  0  0  0  0  0  0  0  0  0  0  0
  160.1600  208.7530  154.6470 O   0  0  0  0  0  0  0  0  0  0  0  0
  163.0290  210.5980  153.9390 O   0  0  0  0  0  0  0  0  0  0  0  0
  160.9100  207.8510  153.8530 C   0  0  0  0  0  2  0  0  0  0  0  0
  160.9750  209.8750  154.9000 C   0  0  1  0  0  3  0  0  0  0  0  0
  161.4560  209.8180  156.2100 O   0  0  0  0  0  0  0  0  0  0  0  0
  161.4950  211.1470  156.6330 C   0  0  0  0  0  2  0  0  0  0  0  0
  160.1760  211.8170  156.3170 C   0  0  0  0  0  2  0  0  0  0  0  0
  160.1820  213.2250  156.8710 C   0  0  0  0  0  1  0  0  0  0  0  0
  161.6570  210.3300  151.2810 C   0  0  2  0  0  3  0  0  0  0  0  0
  160.4070  210.8840  151.5810 O   0  0  0  0  0  1  0  0  0  0  0  0
  162.0620  210.7110  149.8510 C   0  0  0  0  0  2  0  0  0  0  0  0
  161.7590  212.1670  149.5240 C   0  0  0  0  0  2  0  0  0  0  0  0
  160.9760  212.2890  148.2210 C   0  0  0  0  0  2  0  0  0  0  0  0
  161.8740  214.3600  147.4360 O   0  0  0  0  0  1  0  0  0  0  0  0
  161.7480  213.0060  147.1100 C   0  0  2  0  0  3  0  0  0  0  0  0
  161.7260  212.4310  143.3390 C   0  0  0  0  0  2  0  0  0  0  0  0
  161.9640  213.3220  144.5480 C   0  0  2  0  0  3  0  0  0  0  0  0
  163.3270  213.3050  144.8490 O   0  0  0  0  0  1  0  0  0  0  0  0
  160.3930  213.0510  142.3280 S   0  0  0  0  0  0  0  0  0  0  0  0
  160.9380  214.0730  141.3730 O   0  0  0  0  0  0  0  0  0  0  0  0
  159.7380  213.5360  145.6890 C   0  0  0  0  0  2  0  0  0  0  0  0
  159.0960  213.7990  143.2940 C   0  0  0  0  0  2  0  0  0  0  0  0
  161.0950  212.8280  145.7230 C   0  0  2  0  0  3  0  0  0  0  0  0
  158.8470  213.0170  144.5720 C   0  0  0  0  0  2  0  0  0  0  0  0
  159.8140  211.9090  141.5420 O   0  0  0  0  0  0  0  0  0  0  0  0
  162.8250  208.1220  150.7880 C   0  0  0  0  0  2  0  0  0  0  0  0
  162.3130  207.5180  149.4790 C   0  0  2  0  0  3  0  0  0  0  0  0
  161.6630  208.5600  148.5750 C   0  0  0  0  0  1  0  0  0  0  0  0
  161.5850  206.3100  149.6670 O   0  0  0  0  0  0  0  0  0  0  0  0
  161.0440  205.7580  148.4680 C   0  0  2  0  0  3  0  0  0  0  0  0
  160.7320  202.2970  145.6660 C   0  0  0  0  0  3  0  0  0  0  0  0
  161.1890  201.6240  151.5090 C   0  0  0  0  0  1  0  0  0  0  0  0
  161.6300  201.2330  149.1360 C   0  0  0  0  0  2  0  0  0  0  0  0
  160.8510  202.1090  150.1080 C   0  0  2  0  0  3  0  0  0  0  0  0
  161.7290  203.5790  147.4970 C   0  0  0  0  0  2  0  0  0  0  0  0
  161.3700  199.8630  147.0610 C   0  0  0  0  0  2  0  0  0  0  0  0
  160.8350  204.2250  148.5560 C   0  0  1  0  0  3  0  0  0  0  0  0
  161.1320  203.6310  149.9670 C   0  0  1  0  0  3  0  0  0  0  0  0
  160.1200  201.0370  145.1240 C   0  0  0  0  0  2  0  0  0  0  0  0
  160.9200  199.8090  145.5830 C   0  0  0  0  0  2  0  0  0  0  0  0
  160.8970  201.1160  147.8090 C   0  0  2  0  0  3  0  0  0  0  0  0
  161.0930  202.3420  146.9530 C   0  0  0  0  0  0  0  0  0  0  0  0
  160.3900  204.3890  151.0780 C   0  0  0  0  0  2  0  0  0  0  0  0
  161.2620  204.6090  152.3070 C   0  0  0  0  0  1  0  0  0  0  0  0
  161.7590  206.1540  147.3260 O   0  0  0  0  0  0  0  0  0  0  0  0
  160.8140  206.1750  146.2960 C   0  0  0  0  0  2  0  0  0  0  0  0
  161.4530  206.0140  145.0650 O   0  0  0  0  0  1  0  0  0  0  0  0
  1  2  1  6  0  0  0
  3  1  1  6  0  0  0
  3  7  1  0  0  0  0
  3  4  1  0  0  0  0
  4  8  1  0  0  0  0
  5  8  1  0  0  0  0
  6  4  2  0  0  0  0
  7  5  1  0  0  0  0
  8  9  1  1  0  0  0
  9 10  1  0  0  0  0
 11 10  1  0  0  0  0
 11 12  1  0  0  0  0
 13 14  1  6  0  0  0
 13  1  1  0  0  0  0
 15 13  1  0  0  0  0
 16 15  1  0  0  0  0
 17 16  1  0  0  0  0
 19 18  1  1  0  0  0
 19 17  1  0  0  0  0
 20 21  1  0  0  0  0
 21 22  1  1  0  0  0
 21 27  1  0  0  0  0
 23 26  1  0  0  0  0
 23 20  1  0  0  0  0
 24 23  2  0  0  0  0
 25 27  1  0  0  0  0
 26 28  1  0  0  0  0
 27 19  1  1  0  0  0
 28 25  1  0  0  0  0
 29 23  2  0  0  0  0
 30  1  1  0  0  0  0
 31 32  1  1  0  0  0
 31 33  1  0  0  0  0
 31 30  1  0  0  0  0
 34 49  1  6  0  0  0
 34 33  1  0  0  0  0
 35 46  2  0  0  0  0
 37 38  1  0  0  0  0
 38 36  1  1  0  0  0
 39 41  1  0  0  0  0
 41 34  1  1  0  0  0
 41 42  1  0  0  0  0
 42 38  1  0  0  0  0
 42 47  1  1  0  0  0
 43 44  1  0  0  0  0
 43 35  1  0  0  0  0
 44 40  1  0  0  0  0
 45 40  1  6  0  0  0
 45 37  1  0  0  0  0
 46 39  1  0  0  0  0
 46 45  1  0  0  0  0
 47 48  1  0  0  0  0
 50 49  1  0  0  0  0
 51 50  1  0  0  0  0
M  END
>  <MODEL>
4

>  <REMARK>
 VINA RESULT:      -5.6      1.711      2.777
  Name = 
  18 active torsions:
  status: ('A' for Active; 'I' for Inactive)
    1  A    between atoms: C_1  and  C_4
    2  A    between atoms: C_1  and  C_10
    3  A    between atoms: C_4  and  C_9
    4  A    between atoms: C_5  and  C_9
    5  A    between atoms: C_9  and  C_38
    6  A    between atoms: C_10  and  C_43
    7  A    between atoms: C_11  and  O_15
    8  A    between atoms: C_11  and  C_38
    9  A    between atoms: O_15  and  C_26
   10  A    between atoms: O_18  and  C_19
   11  A    between atoms: O_18  and  C_45
   12  A    between atoms: C_19  and  C_21
   13  A    between atoms: C_22  and  O_47
   14  A    between atoms: C_26  and  C_34
   15  A    between atoms: C_26  and  O_47
   16  A    between atoms: C_29  and  C_35
   17  A    between atoms: C_37  and  C_50
   18  A    between atoms: C_43  and  C_50
                            x       y       z     vdW  Elec       q    Type
                         _______ _______ _______ _____ _____    ______ ____

>  <TORSDO>
F 18

$$$$
=
 OpenBabel11042421463D

 51 54  0  0  1  0  0  0  0  0999 V2000
  161.4680  208.9470  152.1050 C   0  0  2  0  0  0  0  0  0  0  0  0
  159.9560  208.7660  151.9460 C   0  0  0  0  0  1  0  0  0  0  0  0
  161.8800  208.8320  153.6050 C   0  0  1  0  0  3  0  0  0  0  0  0
  162.1480  210.1050  154.2870 C   0  0  0  0  0  0  0  0  0  0  0  0
  160.1700  209.3540  155.2300 O   0  0  0  0  0  0  0  0  0  0  0  0
  163.1550  210.7750  154.1300 O   0  0  0  0  0  0  0  0  0  0  0  0
  160.7470  208.3010  154.4770 C   0  0  0  0  0  2  0  0  0  0  0  0
  161.1230  210.3900  155.3070 C   0  0  1  0  0  3  0  0  0  0  0  0
  161.7030  210.3980  156.5770 O   0  0  0  0  0  0  0  0  0  0  0  0
  161.1490  211.5080  157.2160 C   0  0  0  0  0  2  0  0  0  0  0  0
  159.8900  211.9320  156.4900 C   0  0  0  0  0  2  0  0  0  0  0  0
  159.9700  213.4080  156.1690 C   0  0  0  0  0  1  0  0  0  0  0  0
  161.8950  210.3260  151.5160 C   0  0  2  0  0  3  0  0  0  0  0  0
  160.9470  211.3240  151.7670 O   0  0  0  0  0  1  0  0  0  0  0  0
  162.2650  210.3270  150.0270 C   0  0  0  0  0  2  0  0  0  0  0  0
  162.0130  211.6730  149.3610 C   0  0  0  0  0  2  0  0  0  0  0  0
  161.4830  211.4980  147.9420 C   0  0  0  0  0  2  0  0  0  0  0  0
  161.4310  213.8710  147.6640 O   0  0  0  0  0  1  0  0  0  0  0  0
  161.7950  212.6830  147.0230 C   0  0  2  0  0  3  0  0  0  0  0  0
  161.6830  212.4640  143.2170 C   0  0  0  0  0  2  0  0  0  0  0  0
  161.8710  213.2590  144.4990 C   0  0  2  0  0  3  0  0  0  0  0  0
  163.2390  213.3670  144.7560 O   0  0  0  0  0  1  0  0  0  0  0  0
  160.2500  213.0220  142.3110 S   0  0  0  0  0  0  0  0  0  0  0  0
  160.6420  214.1840  141.4450 O   0  0  0  0  0  0  0  0  0  0  0  0
  159.6830  213.1140  145.7220 C   0  0  0  0  0  2  0  0  0  0  0  0
  158.9200  213.5270  143.3840 C   0  0  0  0  0  2  0  0  0  0  0  0
  161.1090  212.5630  145.6460 C   0  0  2  0  0  3  0  0  0  0  0  0
  158.8100  212.6050  144.5870 C   0  0  0  0  0  2  0  0  0  0  0  0
  159.7680  211.9010  141.4350 O   0  0  0  0  0  0  0  0  0  0  0  0
  162.1390  207.7990  151.3240 C   0  0  0  0  0  2  0  0  0  0  0  0
  161.3160  206.5100  151.3100 C   0  0  2  0  0  3  0  0  0  0  0  0
  161.7090  205.5570  152.4350 C   0  0  0  0  0  1  0  0  0  0  0  0
  161.1990  205.9340  150.0140 O   0  0  0  0  0  0  0  0  0  0  0  0
  161.5120  204.5440  149.9580 C   0  0  2  0  0  3  0  0  0  0  0  0
  161.1410  200.6110  147.8770 C   0  0  0  0  0  3  0  0  0  0  0  0
  161.3130  205.7420  144.9690 C   0  0  0  0  0  1  0  0  0  0  0  0
  160.5570  203.4960  145.5700 C   0  0  0  0  0  2  0  0  0  0  0  0
  161.5300  204.6020  145.9530 C   0  0  2  0  0  3  0  0  0  0  0  0
  160.5020  202.9210  148.3750 C   0  0  0  0  0  2  0  0  0  0  0  0
  160.4310  201.0390  145.1220 C   0  0  0  0  0  2  0  0  0  0  0  0
  161.5750  204.0020  148.5080 C   0  0  1  0  0  3  0  0  0  0  0  0
  161.3890  205.1020  147.4180 C   0  0  1  0  0  3  0  0  0  0  0  0
  161.5550  199.5420  146.9080 C   0  0  0  0  0  2  0  0  0  0  0  0
  160.6950  199.6050  145.6370 C   0  0  0  0  0  2  0  0  0  0  0  0
  161.1130  202.1330  145.9540 C   0  0  2  0  0  3  0  0  0  0  0  0
  160.9410  201.8550  147.4270 C   0  0  0  0  0  0  0  0  0  0  0  0
  162.3290  206.2960  147.6400 C   0  0  0  0  0  2  0  0  0  0  0  0
  161.5670  207.5870  147.9080 C   0  0  0  0  0  1  0  0  0  0  0  0
  160.6910  203.7760  150.8000 O   0  0  0  0  0  0  0  0  0  0  0  0
  161.5390  202.8110  151.3520 C   0  0  0  0  0  2  0  0  0  0  0  0
  160.9510  201.5500  151.2470 O   0  0  0  0  0  1  0  0  0  0  0  0
  1  2  1  6  0  0  0
  3  1  1  6  0  0  0
  3  4  1  0  0  0  0
  3  7  1  0  0  0  0
  4  8  1  0  0  0  0
  5  8  1  0  0  0  0
  6  4  2  0  0  0  0
  7  5  1  0  0  0  0
  8  9  1  1  0  0  0
  9 10  1  0  0  0  0
 11 10  1  0  0  0  0
 12 11  1  0  0  0  0
 13 14  1  6  0  0  0
 13  1  1  0  0  0  0
 15 13  1  0  0  0  0
 16 15  1  0  0  0  0
 17 16  1  0  0  0  0
 19 18  1  1  0  0  0
 19 17  1  0  0  0  0
 20 21  1  0  0  0  0
 21 22  1  1  0  0  0
 21 27  1  0  0  0  0
 23 20  1  0  0  0  0
 23 26  1  0  0  0  0
 24 23  2  0  0  0  0
 26 28  1  0  0  0  0
 27 25  1  0  0  0  0
 27 19  1  1  0  0  0
 28 25  1  0  0  0  0
 29 23  2  0  0  0  0
 30  1  1  0  0  0  0
 31 30  1  0  0  0  0
 31 32  1  1  0  0  0
 33 31  1  0  0  0  0
 34 33  1  6  0  0  0
 34 49  1  0  0  0  0
 37 38  1  0  0  0  0
 37 45  1  0  0  0  0
 38 36  1  6  0  0  0
 38 42  1  0  0  0  0
 39 41  1  0  0  0  0
 40 44  1  0  0  0  0
 41 34  1  1  0  0  0
 42 47  1  1  0  0  0
 42 41  1  0  0  0  0
 43 35  1  0  0  0  0
 44 43  1  0  0  0  0
 45 40  1  6  0  0  0
 45 46  1  0  0  0  0
 46 35  2  0  0  0  0
 46 39  1  0  0  0  0
 47 48  1  0  0  0  0
 49 50  1  0  0  0  0
 51 50  1  0  0  0  0
M  END
>  <MODEL>
5

>  <REMARK>
 VINA RESULT:      -5.5      1.749      3.356
  Name = 
  18 active torsions:
  status: ('A' for Active; 'I' for Inactive)
    1  A    between atoms: C_1  and  C_4
    2  A    between atoms: C_1  and  C_10
    3  A    between atoms: C_4  and  C_9
    4  A    between atoms: C_5  and  C_9
    5  A    between atoms: C_9  and  C_38
    6  A    between atoms: C_10  and  C_43
    7  A    between atoms: C_11  and  O_15
    8  A    between atoms: C_11  and  C_38
    9  A    between atoms: O_15  and  C_26
   10  A    between atoms: O_18  and  C_19
   11  A    between atoms: O_18  and  C_45
   12  A    between atoms: C_19  and  C_21
   13  A    between atoms: C_22  and  O_47
   14  A    between atoms: C_26  and  C_34
   15  A    between atoms: C_26  and  O_47
   16  A    between atoms: C_29  and  C_35
   17  A    between atoms: C_37  and  C_50
   18  A    between atoms: C_43  and  C_50
                            x       y       z     vdW  Elec       q    Type
                         _______ _______ _______ _____ _____    ______ ____

>  <TORSDO>
F 18

$$$$
=
 OpenBabel11042421463D

 51 54  0  0  1  0  0  0  0  0999 V2000
  161.4840  208.4270  151.9000 C   0  0  2  0  0  0  0  0  0  0  0  0
  160.2850  207.5580  151.5110 C   0  0  0  0  0  1  0  0  0  0  0  0
  161.8640  208.1980  153.3960 C   0  0  1  0  0  3  0  0  0  0  0  0
  161.5970  209.3250  154.2970 C   0  0  0  0  0  0  0  0  0  0  0  0
  160.0400  207.7230  154.9060 O   0  0  0  0  0  0  0  0  0  0  0  0
  162.2690  210.3420  154.3500 O   0  0  0  0  0  0  0  0  0  0  0  0
  161.0020  207.1250  154.0540 C   0  0  0  0  0  2  0  0  0  0  0  0
  160.5130  209.0070  155.2430 C   0  0  1  0  0  3  0  0  0  0  0  0
  161.0080  208.9960  156.5490 O   0  0  0  0  0  0  0  0  0  0  0  0
  160.2360  209.9360  157.2320 C   0  0  0  0  0  2  0  0  0  0  0  0
  159.2800  210.6030  156.2660 C   0  0  0  0  0  2  0  0  0  0  0  0
  159.4650  212.1030  156.3320 C   0  0  0  0  0  1  0  0  0  0  0  0
  161.1520  209.9270  151.6360 C   0  0  2  0  0  3  0  0  0  0  0  0
  162.3040  210.6930  151.4190 O   0  0  0  0  0  1  0  0  0  0  0  0
  160.2700  210.6090  152.6900 C   0  0  0  0  0  2  0  0  0  0  0  0
  159.2110  211.5140  152.0740 C   0  0  0  0  0  2  0  0  0  0  0  0
  159.7740  212.9000  151.7770 C   0  0  0  0  0  2  0  0  0  0  0  0
  157.5600  213.6810  151.3290 O   0  0  0  0  0  1  0  0  0  0  0  0
  158.8770  213.7390  150.8620 C   0  0  2  0  0  3  0  0  0  0  0  0
  160.6410  213.0440  147.5530 C   0  0  0  0  0  2  0  0  0  0  0  0
  160.0760  214.0090  148.5820 C   0  0  2  0  0  3  0  0  0  0  0  0
  161.1210  214.4500  149.3960 O   0  0  0  0  0  1  0  0  0  0  0  0
  159.7580  213.1540  146.0060 S   0  0  0  0  0  0  0  0  0  0  0  0
  160.3520  214.2610  145.1830 O   0  0  0  0  0  0  0  0  0  0  0  0
  157.6150  213.5270  148.6950 C   0  0  0  0  0  2  0  0  0  0  0  0
  158.0210  213.4740  146.2350 C   0  0  0  0  0  2  0  0  0  0  0  0
  158.9630  213.3030  149.3840 C   0  0  2  0  0  3  0  0  0  0  0  0
  157.4760  212.7030  147.4240 C   0  0  0  0  0  2  0  0  0  0  0  0
  159.9190  211.8570  145.2670 O   0  0  0  0  0  0  0  0  0  0  0  0
  162.6660  207.9750  151.0200 C   0  0  0  0  0  2  0  0  0  0  0  0
  162.2380  207.4420  149.6510 C   0  0  2  0  0  3  0  0  0  0  0  0
  161.5820  208.5170  148.7890 C   0  0  0  0  0  1  0  0  0  0  0  0
  161.5560  206.1950  149.7250 O   0  0  0  0  0  0  0  0  0  0  0  0
  161.1110  205.6950  148.4650 C   0  0  2  0  0  3  0  0  0  0  0  0
  160.6920  202.3750  145.5100 C   0  0  0  0  0  3  0  0  0  0  0  0
  161.1550  201.4230  151.3140 C   0  0  0  0  0  1  0  0  0  0  0  0
  161.5750  201.1300  148.9230 C   0  0  0  0  0  2  0  0  0  0  0  0
  160.8240  201.9810  149.9380 C   0  0  2  0  0  3  0  0  0  0  0  0
  161.7320  203.5440  147.3920 C   0  0  0  0  0  2  0  0  0  0  0  0
  161.2680  199.8640  146.7890 C   0  0  0  0  0  2  0  0  0  0  0  0
  160.8600  204.1660  148.4840 C   0  0  1  0  0  3  0  0  0  0  0  0
  161.1460  203.5000  149.8650 C   0  0  1  0  0  3  0  0  0  0  0  0
  160.0440  201.1580  144.9140 C   0  0  0  0  0  2  0  0  0  0  0  0
  160.8120  199.8890  145.3120 C   0  0  0  0  0  2  0  0  0  0  0  0
  160.8340  201.0940  147.5960 C   0  0  2  0  0  3  0  0  0  0  0  0
  161.0600  202.3520  146.7960 C   0  0  0  0  0  0  0  0  0  0  0  0
  160.4300  204.2260  151.0130 C   0  0  0  0  0  2  0  0  0  0  0  0
  161.2340  204.1920  152.3060 C   0  0  0  0  0  1  0  0  0  0  0  0
  161.9330  206.1070  147.4050 O   0  0  0  0  0  0  0  0  0  0  0  0
  161.0780  206.2180  146.3040 C   0  0  0  0  0  2  0  0  0  0  0  0
  161.8000  206.0370  145.1230 O   0  0  0  0  0  1  0  0  0  0  0  0
  1  2  1  6  0  0  0
  3  1  1  6  0  0  0
  3  7  1  0  0  0  0
  3  4  1  0  0  0  0
  4  6  2  0  0  0  0
  4  8  1  0  0  0  0
  5  8  1  0  0  0  0
  7  5  1  0  0  0  0
  8  9  1  1  0  0  0
  9 10  1  0  0  0  0
 11 12  1  0  0  0  0
 11 10  1  0  0  0  0
 13 14  1  1  0  0  0
 13  1  1  0  0  0  0
 13 15  1  0  0  0  0
 16 15  1  0  0  0  0
 17 16  1  0  0  0  0
 19 18  1  1  0  0  0
 19 17  1  0  0  0  0
 20 21  1  0  0  0  0
 21 27  1  0  0  0  0
 21 22  1  1  0  0  0
 23 26  1  0  0  0  0
 23 20  1  0  0  0  0
 24 23  2  0  0  0  0
 25 27  1  0  0  0  0
 26 28  1  0  0  0  0
 27 19  1  1  0  0  0
 28 25  1  0  0  0  0
 29 23  2  0  0  0  0
 30  1  1  0  0  0  0
 31 32  1  1  0  0  0
 31 33  1  0  0  0  0
 31 30  1  0  0  0  0
 34 49  1  6  0  0  0
 34 33  1  0  0  0  0
 35 46  2  0  0  0  0
 37 38  1  0  0  0  0
 38 36  1  1  0  0  0
 39 41  1  0  0  0  0
 41 34  1  1  0  0  0
 41 42  1  0  0  0  0
 42 38  1  0  0  0  0
 42 47  1  1  0  0  0
 43 44  1  0  0  0  0
 43 35  1  0  0  0  0
 44 40  1  0  0  0  0
 45 40  1  6  0  0  0
 45 37  1  0  0  0  0
 46 39  1  0  0  0  0
 46 45  1  0  0  0  0
 47 48  1  0  0  0  0
 50 49  1  0  0  0  0
 51 50  1  0  0  0  0
M  END
>  <MODEL>
6

>  <REMARK>
 VINA RESULT:      -5.5      2.021      3.270
  Name = 
  18 active torsions:
  status: ('A' for Active; 'I' for Inactive)
    1  A    between atoms: C_1  and  C_4
    2  A    between atoms: C_1  and  C_10
    3  A    between atoms: C_4  and  C_9
    4  A    between atoms: C_5  and  C_9
    5  A    between atoms: C_9  and  C_38
    6  A    between atoms: C_10  and  C_43
    7  A    between atoms: C_11  and  O_15
    8  A    between atoms: C_11  and  C_38
    9  A    between atoms: O_15  and  C_26
   10  A    between atoms: O_18  and  C_19
   11  A    between atoms: O_18  and  C_45
   12  A    between atoms: C_19  and  C_21
   13  A    between atoms: C_22  and  O_47
   14  A    between atoms: C_26  and  C_34
   15  A    between atoms: C_26  and  O_47
   16  A    between atoms: C_29  and  C_35
   17  A    between atoms: C_37  and  C_50
   18  A    between atoms: C_43  and  C_50
                            x       y       z     vdW  Elec       q    Type
                         _______ _______ _______ _____ _____    ______ ____

>  <TORSDO>
F 18

$$$$
=
 OpenBabel11042421463D

 51 54  0  0  1  0  0  0  0  0999 V2000
  162.0050  209.4460  151.0900 C   0  0  2  0  0  0  0  0  0  0  0  0
  163.0310  210.3500  151.7770 C   0  0  0  0  0  1  0  0  0  0  0  0
  161.1430  210.2630  150.0790 C   0  0  1  0  0  3  0  0  0  0  0  0
  161.2420  211.7230  150.1990 C   0  0  0  0  0  0  0  0  0  0  0  0
  162.3210  211.2370  148.2080 O   0  0  0  0  0  0  0  0  0  0  0  0
  160.7140  212.3820  151.0800 O   0  0  0  0  0  0  0  0  0  0  0  0
  161.6170  210.0860  148.6400 C   0  0  0  0  0  2  0  0  0  0  0  0
  161.9220  212.3100  149.0300 C   0  0  1  0  0  3  0  0  0  0  0  0
  161.0390  213.1340  148.3290 O   0  0  0  0  0  0  0  0  0  0  0  0
  161.8510  213.8830  147.4770 C   0  0  0  0  0  2  0  0  0  0  0  0
  161.2970  213.8230  146.0690 C   0  0  0  0  0  2  0  0  0  0  0  0
  162.3010  213.1430  145.1640 C   0  0  0  0  0  1  0  0  0  0  0  0
  161.1030  208.7650  152.1650 C   0  0  2  0  0  3  0  0  0  0  0  0
  160.0850  207.9950  151.5900 O   0  0  0  0  0  1  0  0  0  0  0  0
  160.5070  209.7030  153.2220 C   0  0  0  0  0  2  0  0  0  0  0  0
  161.2190  209.6040  154.5650 C   0  0  0  0  0  2  0  0  0  0  0  0
  161.2210  210.9450  155.2900 C   0  0  0  0  0  2  0  0  0  0  0  0
  159.8880  209.6710  156.8110 O   0  0  0  0  0  1  0  0  0  0  0  0
  160.3150  210.9710  156.5250 C   0  0  2  0  0  3  0  0  0  0  0  0
  156.6420  211.8640  156.0180 C   0  0  0  0  0  2  0  0  0  0  0  0
  157.9760  211.3650  155.4860 C   0  0  2  0  0  3  0  0  0  0  0  0
  157.9520  209.9690  155.4740 O   0  0  0  0  0  1  0  0  0  0  0  0
  156.1740  213.4070  155.2520 S   0  0  0  0  0  0  0  0  0  0  0  0
  155.4650  213.1150  153.9620 O   0  0  0  0  0  0  0  0  0  0  0  0
  159.5880  213.2650  155.7870 C   0  0  0  0  0  2  0  0  0  0  0  0
  157.5760  214.4530  154.9160 C   0  0  0  0  0  2  0  0  0  0  0  0
  159.1150  211.9270  156.3610 C   0  0  2  0  0  3  0  0  0  0  0  0
  158.5910  214.3840  156.0440 C   0  0  0  0  0  2  0  0  0  0  0  0
  155.2350  214.1340  156.1720 O   0  0  0  0  0  0  0  0  0  0  0  0
  162.8010  208.3820  150.3070 C   0  0  0  0  0  2  0  0  0  0  0  0
  162.3150  206.9530  150.5540 C   0  0  2  0  0  3  0  0  0  0  0  0
  163.0800  206.2670  151.6810 C   0  0  0  0  0  1  0  0  0  0  0  0
  162.1550  206.2010  149.3570 O   0  0  0  0  0  0  0  0  0  0  0  0
  160.8180  205.7670  149.1100 C   0  0  2  0  0  3  0  0  0  0  0  0
  160.7520  202.6440  145.9210 C   0  0  0  0  0  3  0  0  0  0  0  0
  161.1590  201.3210  151.6560 C   0  0  0  0  0  1  0  0  0  0  0  0
  161.6590  201.2350  149.2640 C   0  0  0  0  0  2  0  0  0  0  0  0
  160.8150  201.9460  150.3130 C   0  0  2  0  0  3  0  0  0  0  0  0
  161.6450  203.7580  147.9100 C   0  0  0  0  0  2  0  0  0  0  0  0
  161.5100  200.1040  147.0390 C   0  0  0  0  0  2  0  0  0  0  0  0
  160.6980  204.2250  149.0160 C   0  0  1  0  0  3  0  0  0  0  0  0
  161.0080  203.4880  150.3550 C   0  0  1  0  0  3  0  0  0  0  0  0
  160.2230  201.4230  145.2240 C   0  0  0  0  0  2  0  0  0  0  0  0
  161.0870  200.1970  145.5550 C   0  0  0  0  0  2  0  0  0  0  0  0
  160.9540  201.2330  147.9170 C   0  0  2  0  0  3  0  0  0  0  0  0
  161.0900  202.5590  147.2130 C   0  0  0  0  0  0  0  0  0  0  0  0
  160.2060  204.0680  151.5290 C   0  0  0  0  0  2  0  0  0  0  0  0
  161.0920  204.3990  152.7230 C   0  0  0  0  0  1  0  0  0  0  0  0
  160.2310  206.4350  148.0240 O   0  0  0  0  0  0  0  0  0  0  0  0
  161.2580  206.5740  147.0850 C   0  0  0  0  0  2  0  0  0  0  0  0
  160.7340  206.4930  145.7940 O   0  0  0  0  0  1  0  0  0  0  0  0
  1  2  1  1  0  0  0
  1 13  1  0  0  0  0
  3  4  1  0  0  0  0
  3  1  1  1  0  0  0
  4  6  2  0  0  0  0
  5  7  1  0  0  0  0
  5  8  1  0  0  0  0
  7  3  1  0  0  0  0
  8  9  1  6  0  0  0
  8  4  1  0  0  0  0
 10  9  1  0  0  0  0
 11 10  1  0  0  0  0
 12 11  1  0  0  0  0
 13 14  1  6  0  0  0
 13 15  1  0  0  0  0
 15 16  1  0  0  0  0
 16 17  1  0  0  0  0
 17 19  1  0  0  0  0
 19 18  1  6  0  0  0
 21 22  1  1  0  0  0
 21 20  1  0  0  0  0
 21 27  1  0  0  0  0
 23 20  1  0  0  0  0
 23 29  2  0  0  0  0
 24 23  2  0  0  0  0
 25 28  1  0  0  0  0
 25 27  1  0  0  0  0
 26 23  1  0  0  0  0
 26 28  1  0  0  0  0
 27 19  1  6  0  0  0
 30 31  1  0  0  0  0
 30  1  1  0  0  0  0
 31 32  1  1  0  0  0
 33 31  1  0  0  0  0
 34 49  1  6  0  0  0
 34 33  1  0  0  0  0
 35 46  2  0  0  0  0
 37 38  1  0  0  0  0
 38 42  1  0  0  0  0
 38 36  1  1  0  0  0
 39 41  1  0  0  0  0
 41 34  1  1  0  0  0
 41 42  1  0  0  0  0
 42 47  1  1  0  0  0
 43 44  1  0  0  0  0
 43 35  1  0  0  0  0
 44 40  1  0  0  0  0
 45 40  1  6  0  0  0
 45 37  1  0  0  0  0
 46 39  1  0  0  0  0
 46 45  1  0  0  0  0
 47 48  1  0  0  0  0
 50 49  1  0  0  0  0
 51 50  1  0  0  0  0
M  END
>  <MODEL>
7

>  <REMARK>
 VINA RESULT:      -5.4      2.693      7.111
  Name = 
  18 active torsions:
  status: ('A' for Active; 'I' for Inactive)
    1  A    between atoms: C_1  and  C_4
    2  A    between atoms: C_1  and  C_10
    3  A    between atoms: C_4  and  C_9
    4  A    between atoms: C_5  and  C_9
    5  A    between atoms: C_9  and  C_38
    6  A    between atoms: C_10  and  C_43
    7  A    between atoms: C_11  and  O_15
    8  A    between atoms: C_11  and  C_38
    9  A    between atoms: O_15  and  C_26
   10  A    between atoms: O_18  and  C_19
   11  A    between atoms: O_18  and  C_45
   12  A    between atoms: C_19  and  C_21
   13  A    between atoms: C_22  and  O_47
   14  A    between atoms: C_26  and  C_34
   15  A    between atoms: C_26  and  O_47
   16  A    between atoms: C_29  and  C_35
   17  A    between atoms: C_37  and  C_50
   18  A    between atoms: C_43  and  C_50
                            x       y       z     vdW  Elec       q    Type
                         _______ _______ _______ _____ _____    ______ ____

>  <TORSDO>
F 18

$$$$
=
 OpenBabel11042421463D

 51 54  0  0  1  0  0  0  0  0999 V2000
  160.9610  212.8550  148.5420 C   0  0  2  0  0  0  0  0  0  0  0  0
  160.1900  211.6450  148.0070 C   0  0  0  0  0  1  0  0  0  0  0  0
  159.9750  213.9570  149.0400 C   0  0  1  0  0  3  0  0  0  0  0  0
  158.5700  213.5450  149.1530 C   0  0  0  0  0  0  0  0  0  0  0  0
  159.2710  213.8040  151.3450 O   0  0  0  0  0  0  0  0  0  0  0  0
  157.8170  213.3910  148.2060 O   0  0  0  0  0  0  0  0  0  0  0  0
  160.2460  214.3660  150.4840 C   0  0  0  0  0  2  0  0  0  0  0  0
  158.1390  213.5000  150.5610 C   0  0  1  0  0  3  0  0  0  0  0  0
  157.1440  214.4530  150.7860 O   0  0  0  0  0  0  0  0  0  0  0  0
  156.2420  213.8300  151.6500 C   0  0  0  0  0  2  0  0  0  0  0  0
  156.5870  214.1810  153.0800 C   0  0  0  0  0  2  0  0  0  0  0  0
  155.9790  213.1540  154.0100 C   0  0  0  0  0  1  0  0  0  0  0  0
  161.9010  213.4110  147.4300 C   0  0  2  0  0  3  0  0  0  0  0  0
  163.0910  213.9300  147.9540 O   0  0  0  0  0  1  0  0  0  0  0  0
  161.2690  214.4320  146.4750 C   0  0  0  0  0  2  0  0  0  0  0  0
  161.7320  214.2550  145.0350 C   0  0  0  0  0  2  0  0  0  0  0  0
  161.8990  212.7800  144.6860 C   0  0  0  0  0  2  0  0  0  0  0  0
  163.2330  213.6300  142.8940 O   0  0  0  0  0  1  0  0  0  0  0  0
  162.4350  212.5450  143.2710 C   0  0  2  0  0  3  0  0  0  0  0  0
  160.7200  210.7510  140.3750 C   0  0  0  0  0  2  0  0  0  0  0  0
  161.7930  211.6830  140.9140 C   0  0  2  0  0  3  0  0  0  0  0  0
  162.9760  210.9560  141.0630 O   0  0  0  0  0  1  0  0  0  0  0  0
  159.5840  211.6190  139.3060 S   0  0  0  0  0  0  0  0  0  0  0  0
  160.1500  211.6510  137.9160 O   0  0  0  0  0  0  0  0  0  0  0  0
  160.5670  213.6070  141.9600 C   0  0  0  0  0  2  0  0  0  0  0  0
  159.2840  213.2900  139.8450 C   0  0  0  0  0  2  0  0  0  0  0  0
  161.3100  212.3000  142.2430 C   0  0  2  0  0  3  0  0  0  0  0  0
  159.1910  213.3670  141.3590 C   0  0  0  0  0  2  0  0  0  0  0  0
  158.2800  210.8740  139.2860 O   0  0  0  0  0  0  0  0  0  0  0  0
  161.7880  212.3590  149.7460 C   0  0  0  0  0  2  0  0  0  0  0  0
  162.0340  210.8490  149.7350 C   0  0  2  0  0  3  0  0  0  0  0  0
  162.2750  210.3100  148.3290 C   0  0  0  0  0  1  0  0  0  0  0  0
  161.1040  210.1250  150.5330 O   0  0  0  0  0  0  0  0  0  0  0  0
  161.6800  209.0540  151.2780 C   0  0  2  0  0  3  0  0  0  0  0  0
  161.4580  207.0280  147.3060 C   0  0  0  0  0  3  0  0  0  0  0  0
  160.8600  204.1100  152.3990 C   0  0  0  0  0  1  0  0  0  0  0  0
  161.6430  204.5870  150.1330 C   0  0  0  0  0  2  0  0  0  0  0  0
  160.8150  205.1420  151.2830 C   0  0  2  0  0  3  0  0  0  0  0  0
  162.2720  207.3280  149.5950 C   0  0  0  0  0  2  0  0  0  0  0  0
  161.5820  204.1760  147.6670 C   0  0  0  0  0  2  0  0  0  0  0  0
  161.2920  207.6610  150.7200 C   0  0  1  0  0  3  0  0  0  0  0  0
  161.2820  206.5330  151.7960 C   0  0  1  0  0  3  0  0  0  0  0  0
  160.8090  206.1910  146.2410 C   0  0  0  0  0  2  0  0  0  0  0  0
  161.3810  204.7660  146.2520 C   0  0  0  0  0  2  0  0  0  0  0  0
  161.1330  205.1090  148.7990 C   0  0  2  0  0  3  0  0  0  0  0  0
  161.6030  206.5180  148.5350 C   0  0  0  0  0  0  0  0  0  0  0  0
  160.4540  206.9230  153.0300 C   0  0  0  0  0  2  0  0  0  0  0  0
  161.2860  206.9200  154.3060 C   0  0  0  0  0  1  0  0  0  0  0  0
  161.4540  209.1790  152.6580 O   0  0  0  0  0  0  0  0  0  0  0  0
  161.8080  210.4960  152.9660 C   0  0  0  0  0  2  0  0  0  0  0  0
  160.6610  211.2420  153.2430 O   0  0  0  0  0  1  0  0  0  0  0  0
  1  2  1  6  0  0  0
  1 30  1  0  0  0  0
  3  1  1  1  0  0  0
  3  4  1  0  0  0  0
  3  7  1  0  0  0  0
  4  8  1  0  0  0  0
  6  4  2  0  0  0  0
  7  5  1  0  0  0  0
  8  9  1  6  0  0  0
  8  5  1  0  0  0  0
  9 10  1  0  0  0  0
 10 11  1  0  0  0  0
 11 12  1  0  0  0  0
 13 14  1  1  0  0  0
 13  1  1  0  0  0  0
 15 13  1  0  0  0  0
 16 15  1  0  0  0  0
 17 16  1  0  0  0  0
 19 18  1  6  0  0  0
 19 17  1  0  0  0  0
 20 21  1  0  0  0  0
 21 22  1  1  0  0  0
 21 27  1  0  0  0  0
 23 26  1  0  0  0  0
 23 20  1  0  0  0  0
 24 23  2  0  0  0  0
 25 27  1  0  0  0  0
 26 28  1  0  0  0  0
 27 19  1  1  0  0  0
 28 25  1  0  0  0  0
 29 23  2  0  0  0  0
 31 32  1  6  0  0  0
 31 30  1  0  0  0  0
 31 33  1  0  0  0  0
 34 33  1  6  0  0  0
 34 49  1  0  0  0  0
 35 46  2  0  0  0  0
 37 38  1  0  0  0  0
 38 42  1  0  0  0  0
 38 36  1  1  0  0  0
 39 41  1  0  0  0  0
 41 34  1  1  0  0  0
 41 42  1  0  0  0  0
 42 47  1  1  0  0  0
 43 44  1  0  0  0  0
 43 35  1  0  0  0  0
 44 40  1  0  0  0  0
 45 40  1  6  0  0  0
 45 37  1  0  0  0  0
 46 45  1  0  0  0  0
 46 39  1  0  0  0  0
 47 48  1  0  0  0  0
 49 50  1  0  0  0  0
 50 51  1  0  0  0  0
M  END
>  <MODEL>
8

>  <REMARK>
 VINA RESULT:      -5.2      2.411      4.642
  Name = 
  18 active torsions:
  status: ('A' for Active; 'I' for Inactive)
    1  A    between atoms: C_1  and  C_4
    2  A    between atoms: C_1  and  C_10
    3  A    between atoms: C_4  and  C_9
    4  A    between atoms: C_5  and  C_9
    5  A    between atoms: C_9  and  C_38
    6  A    between atoms: C_10  and  C_43
    7  A    between atoms: C_11  and  O_15
    8  A    between atoms: C_11  and  C_38
    9  A    between atoms: O_15  and  C_26
   10  A    between atoms: O_18  and  C_19
   11  A    between atoms: O_18  and  C_45
   12  A    between atoms: C_19  and  C_21
   13  A    between atoms: C_22  and  O_47
   14  A    between atoms: C_26  and  C_34
   15  A    between atoms: C_26  and  O_47
   16  A    between atoms: C_29  and  C_35
   17  A    between atoms: C_37  and  C_50
   18  A    between atoms: C_43  and  C_50
                            x       y       z     vdW  Elec       q    Type
                         _______ _______ _______ _____ _____    ______ ____

>  <TORSDO>
F 18

$$$$
=
 OpenBabel11042421463D

 51 54  0  0  1  0  0  0  0  0999 V2000
  162.0870  209.3460  151.2380 C   0  0  2  0  0  0  0  0  0  0  0  0
  163.2360  210.2360  151.7180 C   0  0  0  0  0  1  0  0  0  0  0  0
  161.2290  210.0870  150.1670 C   0  0  1  0  0  3  0  0  0  0  0  0
  161.3160  211.5530  150.1900 C   0  0  0  0  0  0  0  0  0  0  0  0
  162.4180  210.9440  148.2460 O   0  0  0  0  0  0  0  0  0  0  0  0
  160.7740  212.2640  151.0200 O   0  0  0  0  0  0  0  0  0  0  0  0
  161.7180  209.8180  148.7470 C   0  0  0  0  0  2  0  0  0  0  0  0
  162.0030  212.0670  148.9920 C   0  0  1  0  0  3  0  0  0  0  0  0
  161.1200  212.8340  148.2280 O   0  0  0  0  0  0  0  0  0  0  0  0
  161.5250  212.6360  146.9080 C   0  0  0  0  0  2  0  0  0  0  0  0
  162.1900  213.8930  146.3900 C   0  0  0  0  0  2  0  0  0  0  0  0
  162.6450  213.6690  144.9640 C   0  0  0  0  0  1  0  0  0  0  0  0
  161.2100  208.9220  152.4550 C   0  0  2  0  0  3  0  0  0  0  0  0
  159.9700  208.4060  152.0580 O   0  0  0  0  0  1  0  0  0  0  0  0
  161.0030  209.9950  153.5320 C   0  0  0  0  0  2  0  0  0  0  0  0
  161.4540  209.5360  154.9120 C   0  0  0  0  0  2  0  0  0  0  0  0
  161.6800  210.7230  155.8420 C   0  0  0  0  0  2  0  0  0  0  0  0
  160.1870  209.5090  157.2590 O   0  0  0  0  0  1  0  0  0  0  0  0
  160.6780  210.7920  156.9980 C   0  0  2  0  0  3  0  0  0  0  0  0
  157.0720  211.7960  156.2650 C   0  0  0  0  0  2  0  0  0  0  0  0
  158.4080  211.2200  155.8260 C   0  0  2  0  0  3  0  0  0  0  0  0
  158.3300  209.8270  155.8800 O   0  0  0  0  0  1  0  0  0  0  0  0
  156.7030  213.3140  155.4020 S   0  0  0  0  0  0  0  0  0  0  0  0
  156.0460  212.9850  154.0940 O   0  0  0  0  0  0  0  0  0  0  0  0
  160.0800  213.0710  156.1130 C   0  0  0  0  0  2  0  0  0  0  0  0
  158.1610  214.2880  155.0860 C   0  0  0  0  0  2  0  0  0  0  0  0
  159.5260  211.7830  156.7270 C   0  0  2  0  0  3  0  0  0  0  0  0
  159.1170  214.2390  156.2650 C   0  0  0  0  0  2  0  0  0  0  0  0
  155.7520  214.1230  156.2370 O   0  0  0  0  0  0  0  0  0  0  0  0
  162.7280  208.1070  150.5800 C   0  0  0  0  0  2  0  0  0  0  0  0
  162.0780  206.7880  151.0040 C   0  0  2  0  0  3  0  0  0  0  0  0
  163.0720  205.8360  151.6600 C   0  0  0  0  0  1  0  0  0  0  0  0
  161.2430  206.2270  149.9970 O   0  0  0  0  0  0  0  0  0  0  0  0
  161.2110  204.8000  149.9900 C   0  0  2  0  0  3  0  0  0  0  0  0
  161.2420  200.7670  148.0770 C   0  0  0  0  0  3  0  0  0  0  0  0
  160.8120  205.7570  144.9610 C   0  0  0  0  0  1  0  0  0  0  0  0
  160.3150  203.4700  145.6660 C   0  0  0  0  0  2  0  0  0  0  0  0
  161.1660  204.6910  145.9860 C   0  0  2  0  0  3  0  0  0  0  0  0
  160.3610  203.0120  148.4920 C   0  0  0  0  0  2  0  0  0  0  0  0
  160.4510  200.9970  145.3210 C   0  0  0  0  0  2  0  0  0  0  0  0
  161.3120  204.2080  148.5610 C   0  0  1  0  0  3  0  0  0  0  0  0
  160.9920  205.2340  147.4320 C   0  0  1  0  0  3  0  0  0  0  0  0
  161.7560  199.7080  147.1440 C   0  0  0  0  0  2  0  0  0  0  0  0
  160.8770  199.6240  145.8880 C   0  0  0  0  0  2  0  0  0  0  0  0
  161.0210  202.1930  146.0950 C   0  0  2  0  0  3  0  0  0  0  0  0
  160.9020  201.9610  147.5800 C   0  0  0  0  0  0  0  0  0  0  0  0
  161.7990  206.5310  147.5870 C   0  0  0  0  0  2  0  0  0  0  0  0
  163.2950  206.2680  147.7060 C   0  0  0  0  0  1  0  0  0  0  0  0
  160.1330  204.2860  150.7270 O   0  0  0  0  0  0  0  0  0  0  0  0
  160.7200  203.5840  151.7850 C   0  0  0  0  0  2  0  0  0  0  0  0
  160.6770  204.3570  152.9460 O   0  0  0  0  0  1  0  0  0  0  0  0
  1  2  1  1  0  0  0
  1 13  1  0  0  0  0
  3  4  1  0  0  0  0
  3  1  1  1  0  0  0
  4  6  2  0  0  0  0
  5  7  1  0  0  0  0
  5  8  1  0  0  0  0
  7  3  1  0  0  0  0
  8  9  1  6  0  0  0
  8  4  1  0  0  0  0
 10  9  1  0  0  0  0
 11 10  1  0  0  0  0
 12 11  1  0  0  0  0
 13 14  1  6  0  0  0
 13 15  1  0  0  0  0
 15 16  1  0  0  0  0
 16 17  1  0  0  0  0
 17 19  1  0  0  0  0
 19 18  1  6  0  0  0
 21 22  1  1  0  0  0
 21 20  1  0  0  0  0
 21 27  1  0  0  0  0
 23 29  2  0  0  0  0
 23 20  1  0  0  0  0
 24 23  2  0  0  0  0
 25 28  1  0  0  0  0
 25 27  1  0  0  0  0
 26 23  1  0  0  0  0
 26 28  1  0  0  0  0
 27 19  1  6  0  0  0
 30 31  1  0  0  0  0
 30  1  1  0  0  0  0
 31 32  1  6  0  0  0
 33 31  1  0  0  0  0
 34 33  1  6  0  0  0
 34 49  1  0  0  0  0
 37 38  1  0  0  0  0
 37 45  1  0  0  0  0
 38 36  1  6  0  0  0
 38 42  1  0  0  0  0
 39 41  1  0  0  0  0
 40 44  1  0  0  0  0
 41 34  1  1  0  0  0
 42 47  1  1  0  0  0
 42 41  1  0  0  0  0
 43 35  1  0  0  0  0
 44 43  1  0  0  0  0
 45 40  1  6  0  0  0
 45 46  1  0  0  0  0
 46 35  2  0  0  0  0
 46 39  1  0  0  0  0
 47 48  1  0  0  0  0
 49 50  1  0  0  0  0
 50 51  1  0  0  0  0
M  END
>  <MODEL>
9

>  <REMARK>
 VINA RESULT:      -4.5      2.689      7.506
  Name = 
  18 active torsions:
  status: ('A' for Active; 'I' for Inactive)
    1  A    between atoms: C_1  and  C_4
    2  A    between atoms: C_1  and  C_10
    3  A    between atoms: C_4  and  C_9
    4  A    between atoms: C_5  and  C_9
    5  A    between atoms: C_9  and  C_38
    6  A    between atoms: C_10  and  C_43
    7  A    between atoms: C_11  and  O_15
    8  A    between atoms: C_11  and  C_38
    9  A    between atoms: O_15  and  C_26
   10  A    between atoms: O_18  and  C_19
   11  A    between atoms: O_18  and  C_45
   12  A    between atoms: C_19  and  C_21
   13  A    between atoms: C_22  and  O_47
   14  A    between atoms: C_26  and  C_34
   15  A    between atoms: C_26  and  O_47
   16  A    between atoms: C_29  and  C_35
   17  A    between atoms: C_37  and  C_50
   18  A    between atoms: C_43  and  C_50
                            x       y       z     vdW  Elec       q    Type
                         _______ _______ _______ _____ _____    ______ ____

>  <TORSDO>
F 18

$$$$
