=
 OpenBabel11042420323D

 49 55  0  0  1  0  0  0  0  0999 V2000
  160.0650  208.3780  154.1500 O   0  0  0  0  0  0  0  0  0  0  0  0
  161.0510  206.6060  153.0310 N   0  0  0  0  0  0  0  0  0  0  0  0
  160.7850  208.0000  153.1850 C   0  0  0  0  0  0  0  0  0  0  0  0
  163.2020  205.4220  152.6100 C   0  0  0  0  0  1  0  0  0  0  0  0
  160.8910  205.1780  153.4560 C   0  0  0  0  0  2  0  0  0  0  0  0
  161.3370  208.9610  152.2600 N   0  0  0  0  0  0  0  0  0  0  0  0
  161.7030  205.4400  152.3760 C   0  0  1  0  0  0  0  0  0  0  0  0
  161.2110  210.4090  152.4940 C   0  0  1  0  0  3  0  0  0  0  0  0
  160.4720  212.2530  155.6410 N   0  0  0  0  0  2  0  0  0  0  0  0
  160.4850  211.5910  154.3730 C   0  0  0  0  0  0  0  0  0  0  0  0
  159.4960  211.6520  153.5490 N   0  0  0  0  0  0  0  0  0  0  0  0
  159.7670  210.8900  152.3460 C   0  0  0  0  0  2  0  0  0  0  0  0
  161.6420  210.7990  153.9030 C   0  0  0  0  0  2  0  0  0  0  0  0
  159.3340  213.0280  156.1190 C   0  0  0  0  0  2  0  0  0  0  0  0
  158.3250  212.1390  156.7680 C   0  0  0  0  0  0  0  0  0  0  0  0
  158.6850  211.0330  157.2600 O   0  0  0  0  0  0  0  0  0  0  0  0
  156.2620  212.9150  155.6740 C   0  0  0  0  0  1  0  0  0  0  0  0
  156.9940  212.5510  156.8350 O   0  0  0  0  0  0  0  0  0  0  0  0
  161.1400  208.6750  149.8360 C   0  0  0  0  0  2  0  0  0  0  0  0
  163.0370  209.4400  150.4820 C   0  0  0  0  0  2  0  0  0  0  0  0
  162.0190  208.4600  151.0570 C   0  0  1  0  0  3  0  0  0  0  0  0
  162.1540  209.6520  149.2660 C   0  0  2  0  0  3  0  0  0  0  0  0
  161.6000  211.0090  149.2860 C   0  0  0  0  0  0  0  0  0  0  0  0
  161.1340  212.1210  149.3000 C   0  0  0  0  0  0  0  0  0  0  0  0
  160.5600  213.4680  149.3110 C   0  0  0  0  0  2  0  0  0  0  0  0
  160.2850  213.8860  147.9800 O   0  0  0  0  0  0  0  0  0  0  0  0
  160.5280  213.0700  144.8790 S   0  0  0  0  0  0  0  0  0  0  0  0
  157.3450  212.5670  146.6940 C   0  0  0  0  0  3  0  0  0  0  0  0
  158.0590  212.5030  145.5450 N   0  0  0  0  0  2  0  0  0  0  0  0
  158.0710  213.0870  147.7060 N   0  0  0  0  0  0  0  0  0  0  0  0
  159.2600  213.3660  147.2070 N   0  0  0  0  0  0  0  0  0  0  0  0
  159.2530  213.0090  145.9050 C   0  0  0  0  0  0  0  0  0  0  0  0
  161.1400  205.1660  150.9920 C   0  0  0  0  0  2  0  0  0  0  0  0
  160.1620  204.0940  151.0600 N   0  0  0  0  0  2  0  0  0  0  0  0
  160.8870  202.8480  150.8720 C   0  0  0  0  0  2  0  0  0  0  0  0
  161.5260  203.4010  147.1710 C   0  0  0  0  0  0  0  0  0  0  0  0
  161.4330  203.6140  148.5580 C   0  0  0  0  0  3  0  0  0  0  0  0
  160.7390  201.3210  148.8970 C   0  0  0  0  0  3  0  0  0  0  0  0
  161.0410  202.5830  149.4160 C   0  0  0  0  0  0  0  0  0  0  0  0
  161.2390  202.1190  146.6670 C   0  0  0  0  0  3  0  0  0  0  0  0
  160.8440  201.0860  147.5230 C   0  0  0  0  0  3  0  0  0  0  0  0
  160.7840  206.6810  146.4470 C   0  0  0  0  0  2  0  0  0  0  0  0
  161.0320  204.7070  145.0620 C   0  0  2  0  0  0  0  0  0  0  0  0
  161.9170  205.8440  147.0300 C   0  0  0  0  0  2  0  0  0  0  0  0
  161.1780  205.8800  144.1140 C   0  0  0  0  0  2  0  0  0  0  0  0
  160.1790  205.9360  145.2670 C   0  0  2  0  0  3  0  0  0  0  0  0
  163.3930  204.3330  145.7410 C   0  0  0  0  0  1  0  0  0  0  0  0
  161.9710  204.5340  146.2580 C   0  0  1  0  0  0  0  0  0  0  0  0
  160.3110  203.6160  144.5700 O   0  0  0  0  0  1  0  0  0  0  0  0
  2  3  1  0  0  0  0
  2  5  1  0  0  0  0
  3  1  2  0  0  0  0
  6  3  1  0  0  0  0
  7  4  1  1  0  0  0
  7  2  1  0  0  0  0
  7  5  1  0  0  0  0
  8  6  1  1  0  0  0
  8 13  1  0  0  0  0
  9 14  1  0  0  0  0
 10  9  1  0  0  0  0
 11 10  2  0  0  0  0
 12  8  1  0  0  0  0
 12 11  1  0  0  0  0
 13 10  1  0  0  0  0
 14 15  1  0  0  0  0
 15 18  1  0  0  0  0
 15 16  2  0  0  0  0
 17 18  1  0  0  0  0
 19 21  1  0  0  0  0
 20 21  1  0  0  0  0
 21  6  1  1  0  0  0
 22 23  1  1  0  0  0
 22 19  1  0  0  0  0
 22 20  1  0  0  0  0
 23 24  3  0  0  0  0
 24 25  1  0  0  0  0
 26 25  1  0  0  0  0
 27 32  2  0  0  0  0
 28 30  2  0  0  0  0
 29 32  1  0  0  0  0
 29 28  1  0  0  0  0
 31 30  1  0  0  0  0
 31 26  1  0  0  0  0
 32 31  1  0  0  0  0
 33 34  1  0  0  0  0
 33  7  1  0  0  0  0
 35 34  1  0  0  0  0
 36 37  1  0  0  0  0
 37 39  2  0  0  0  0
 38 39  1  0  0  0  0
 39 35  1  0  0  0  0
 40 36  2  0  0  0  0
 40 41  1  0  0  0  0
 41 38  2  0  0  0  0
 42 44  1  0  0  0  0
 43 49  1  6  0  0  0
 43 46  1  0  0  0  0
 43 48  1  0  0  0  0
 45 43  1  0  0  0  0
 46 45  1  6  0  0  0
 46 42  1  0  0  0  0
 48 47  1  6  0  0  0
 48 44  1  0  0  0  0
 48 36  1  0  0  0  0
M  END
>  <MODEL>
1

>  <REMARK>
 VINA RESULT:      -6.6      0.000      0.000
  Name = 
  14 active torsions:
  status: ('A' for Active; 'I' for Inactive)
    1  A    between atoms: C_1  and  N_36
    2  A    between atoms: N_3  and  C_44
    3  A    between atoms: C_4  and  O_15
    4  A    between atoms: C_4  and  C_26
    5  A    between atoms: C_5  and  C_32
    6  A    between atoms: C_7  and  C_35
    7  A    between atoms: O_15  and  N_45
    8  A    between atoms: C_24  and  N_36
    9  A    between atoms: C_27  and  C_43
   10  A    between atoms: C_37  and  O_39
   11  A    between atoms: C_37  and  C_44
   12  A    between atoms: C_38  and  C_41
   13  A    between atoms: C_38  and  N_49
   14  A    between atoms: C_43  and  N_49
                            x       y       z     vdW  Elec       q    Type
                         _______ _______ _______ _____ _____    ______ ____

>  <TORSDO>
F 14

$$$$
=
 OpenBabel11042420323D

 49 55  0  0  1  0  0  0  0  0999 V2000
  161.3320  205.4560  154.4970 O   0  0  0  0  0  0  0  0  0  0  0  0
  160.6160  207.3950  155.5420 N   0  0  0  0  0  0  0  0  0  0  0  0
  161.1130  206.6950  154.4010 C   0  0  0  0  0  0  0  0  0  0  0  0
  158.7350  209.0160  155.7350 C   0  0  0  0  0  1  0  0  0  0  0  0
  160.1810  207.4400  156.9760 C   0  0  0  0  0  2  0  0  0  0  0  0
  161.3500  207.3890  153.1580 N   0  0  0  0  0  0  0  0  0  0  0  0
  160.1030  208.6030  156.2430 C   0  0  1  0  0  0  0  0  0  0  0  0
  161.7030  206.6600  151.9290 C   0  0  1  0  0  3  0  0  0  0  0  0
  160.3060  203.4940  150.5590 N   0  0  0  0  0  2  0  0  0  0  0  0
  161.0550  204.5470  151.1710 C   0  0  0  0  0  0  0  0  0  0  0  0
  162.2600  204.3840  151.5980 N   0  0  0  0  0  0  0  0  0  0  0  0
  162.7820  205.6050  152.1790 C   0  0  0  0  0  2  0  0  0  0  0  0
  160.5100  205.9110  151.3470 C   0  0  0  0  0  2  0  0  0  0  0  0
  160.8290  202.1440  150.3890 C   0  0  0  0  0  2  0  0  0  0  0  0
  160.3530  201.5520  149.1030 C   0  0  0  0  0  0  0  0  0  0  0  0
  159.2350  200.9690  149.0540 O   0  0  0  0  0  0  0  0  0  0  0  0
  161.0340  200.7630  146.8740 C   0  0  0  0  0  1  0  0  0  0  0  0
  161.1500  201.6660  147.9630 O   0  0  0  0  0  0  0  0  0  0  0  0
  162.4730  209.4550  152.4740 C   0  0  0  0  0  2  0  0  0  0  0  0
  160.3770  209.3980  152.0190 C   0  0  0  0  0  2  0  0  0  0  0  0
  161.2490  208.8560  153.1470 C   0  0  1  0  0  3  0  0  0  0  0  0
  161.6040  209.9920  151.3500 C   0  0  2  0  0  3  0  0  0  0  0  0
  161.8910  209.2660  150.1100 C   0  0  0  0  0  0  0  0  0  0  0  0
  162.1300  208.6780  149.0830 C   0  0  0  0  0  0  0  0  0  0  0  0
  162.4190  207.9740  147.8330 C   0  0  0  0  0  2  0  0  0  0  0  0
  161.5650  206.8440  147.7090 O   0  0  0  0  0  0  0  0  0  0  0  0
  163.4760  204.7010  146.2610 S   0  0  0  0  0  0  0  0  0  0  0  0
  160.2180  205.6040  144.7610 C   0  0  0  0  0  3  0  0  0  0  0  0
  161.3820  204.9150  144.7020 N   0  0  0  0  0  2  0  0  0  0  0  0
  160.1590  206.3910  145.8560 N   0  0  0  0  0  0  0  0  0  0  0  0
  161.2930  206.2130  146.5060 N   0  0  0  0  0  0  0  0  0  0  0  0
  162.0280  205.3200  145.8110 C   0  0  0  0  0  0  0  0  0  0  0  0
  161.1860  209.6450  156.4640 C   0  0  0  0  0  2  0  0  0  0  0  0
  160.6170  210.9780  156.3630 N   0  0  0  0  0  2  0  0  0  0  0  0
  161.0610  211.5330  155.0950 C   0  0  0  0  0  2  0  0  0  0  0  0
  157.4990  212.5420  154.2580 C   0  0  0  0  0  0  0  0  0  0  0  0
  158.6190  212.0390  154.9420 C   0  0  0  0  0  3  0  0  0  0  0  0
  160.0720  212.7250  153.1320 C   0  0  0  0  0  3  0  0  0  0  0  0
  159.8980  212.1280  154.3840 C   0  0  0  0  0  0  0  0  0  0  0  0
  157.6940  213.1590  153.0080 C   0  0  0  0  0  3  0  0  0  0  0  0
  158.9710  213.2470  152.4470 C   0  0  0  0  0  3  0  0  0  0  0  0
  154.6920  214.4520  154.8130 C   0  0  0  0  0  2  0  0  0  0  0  0
  156.0800  213.1070  156.2760 C   0  0  2  0  0  0  0  0  0  0  0  0
  155.1240  213.2160  154.0340 C   0  0  0  0  0  2  0  0  0  0  0  0
  154.7740  213.2870  157.0220 C   0  0  0  0  0  2  0  0  0  0  0  0
  155.3510  214.4250  156.1840 C   0  0  2  0  0  3  0  0  0  0  0  0
  155.6380  211.0060  155.0220 C   0  0  0  0  0  1  0  0  0  0  0  0
  156.1180  212.4490  154.8930 C   0  0  1  0  0  0  0  0  0  0  0  0
  157.2370  213.1730  157.0550 O   0  0  0  0  0  1  0  0  0  0  0  0
  2  7  1  0  0  0  0
  2  5  1  0  0  0  0
  3  1  2  0  0  0  0
  3  2  1  0  0  0  0
  6  3  1  0  0  0  0
  7  4  1  6  0  0  0
  7 33  1  0  0  0  0
  7  5  1  0  0  0  0
  8 12  1  0  0  0  0
  8  6  1  1  0  0  0
  9 10  1  0  0  0  0
 10 13  1  0  0  0  0
 10 11  2  0  0  0  0
 11 12  1  0  0  0  0
 13  8  1  0  0  0  0
 14  9  1  0  0  0  0
 15 14  1  0  0  0  0
 16 15  2  0  0  0  0
 17 18  1  0  0  0  0
 18 15  1  0  0  0  0
 19 21  1  0  0  0  0
 20 21  1  0  0  0  0
 21  6  1  6  0  0  0
 22 23  1  6  0  0  0
 22 20  1  0  0  0  0
 22 19  1  0  0  0  0
 24 23  3  0  0  0  0
 25 24  1  0  0  0  0
 26 25  1  0  0  0  0
 28 30  2  0  0  0  0
 29 28  1  0  0  0  0
 29 32  1  0  0  0  0
 30 31  1  0  0  0  0
 31 26  1  0  0  0  0
 32 27  2  0  0  0  0
 32 31  1  0  0  0  0
 34 33  1  0  0  0  0
 35 34  1  0  0  0  0
 36 48  1  0  0  0  0
 36 37  1  0  0  0  0
 38 39  1  0  0  0  0
 39 37  2  0  0  0  0
 39 35  1  0  0  0  0
 40 36  2  0  0  0  0
 41 40  1  0  0  0  0
 41 38  2  0  0  0  0
 43 45  1  0  0  0  0
 43 49  1  1  0  0  0
 44 42  1  0  0  0  0
 44 48  1  0  0  0  0
 46 42  1  6  0  0  0
 46 43  1  0  0  0  0
 46 45  1  0  0  0  0
 48 47  1  1  0  0  0
 48 43  1  0  0  0  0
M  END
>  <MODEL>
2

>  <REMARK>
 VINA RESULT:      -6.1      3.130      9.730
  Name = 
  14 active torsions:
  status: ('A' for Active; 'I' for Inactive)
    1  A    between atoms: C_1  and  N_36
    2  A    between atoms: N_3  and  C_44
    3  A    between atoms: C_4  and  O_15
    4  A    between atoms: C_4  and  C_26
    5  A    between atoms: C_5  and  C_32
    6  A    between atoms: C_7  and  C_35
    7  A    between atoms: O_15  and  N_45
    8  A    between atoms: C_24  and  N_36
    9  A    between atoms: C_27  and  C_43
   10  A    between atoms: C_37  and  O_39
   11  A    between atoms: C_37  and  C_44
   12  A    between atoms: C_38  and  C_41
   13  A    between atoms: C_38  and  N_49
   14  A    between atoms: C_43  and  N_49
                            x       y       z     vdW  Elec       q    Type
                         _______ _______ _______ _____ _____    ______ ____

>  <TORSDO>
F 14

$$$$
=
 OpenBabel11042420323D

 49 55  0  0  1  0  0  0  0  0999 V2000
  162.3180  210.9730  150.8010 O   0  0  0  0  0  0  0  0  0  0  0  0
  161.8210  208.7130  150.9040 N   0  0  0  0  0  0  0  0  0  0  0  0
  161.7360  210.0410  151.4210 C   0  0  0  0  0  0  0  0  0  0  0  0
  160.0350  207.0140  150.5470 C   0  0  0  0  0  1  0  0  0  0  0  0
  162.3140  207.7190  149.8950 C   0  0  0  0  0  2  0  0  0  0  0  0
  160.9900  210.3140  152.6260 N   0  0  0  0  0  0  0  0  0  0  0  0
  161.4900  207.2620  150.8990 C   0  0  1  0  0  0  0  0  0  0  0  0
  160.7530  211.6930  153.0850 C   0  0  1  0  0  3  0  0  0  0  0  0
  157.6640  213.2400  154.4680 N   0  0  0  0  0  2  0  0  0  0  0  0
  158.7760  212.7750  153.6990 C   0  0  0  0  0  0  0  0  0  0  0  0
  159.0420  213.2270  152.5210 N   0  0  0  0  0  0  0  0  0  0  0  0
  160.2160  212.5850  151.9640 C   0  0  0  0  0  2  0  0  0  0  0  0
  159.7190  211.7530  154.2020 C   0  0  0  0  0  2  0  0  0  0  0  0
  156.7240  214.2400  153.9790 C   0  0  0  0  0  2  0  0  0  0  0  0
  155.3860  214.0640  154.6190 C   0  0  0  0  0  0  0  0  0  0  0  0
  154.3360  214.3120  153.9630 O   0  0  0  0  0  0  0  0  0  0  0  0
  154.2360  213.9590  156.7920 C   0  0  0  0  0  1  0  0  0  0  0  0
  155.3140  213.6110  155.9370 O   0  0  0  0  0  0  0  0  0  0  0  0
  161.6350  208.4510  154.0790 C   0  0  0  0  0  2  0  0  0  0  0  0
  159.9420  209.5690  154.7770 C   0  0  0  0  0  2  0  0  0  0  0  0
  160.4810  209.1750  153.4060 C   0  0  1  0  0  3  0  0  0  0  0  0
  161.0980  208.8460  155.4440 C   0  0  2  0  0  3  0  0  0  0  0  0
  161.9990  209.8200  156.0680 C   0  0  0  0  0  0  0  0  0  0  0  0
  162.7310  210.6310  156.5810 C   0  0  0  0  0  0  0  0  0  0  0  0
  163.6130  211.6210  157.1990 C   0  0  0  0  0  2  0  0  0  0  0  0
  164.9380  211.4590  156.7070 O   0  0  0  0  0  0  0  0  0  0  0  0
  167.0080  211.6830  154.2560 S   0  0  0  0  0  0  0  0  0  0  0  0
  166.7650  214.4090  156.7440 C   0  0  0  0  0  3  0  0  0  0  0  0
  167.3470  213.8800  155.6420 N   0  0  0  0  0  2  0  0  0  0  0  0
  165.8310  213.5830  157.2610 N   0  0  0  0  0  0  0  0  0  0  0  0
  165.8130  212.5110  156.4910 N   0  0  0  0  0  0  0  0  0  0  0  0
  166.7250  212.6930  155.5130 C   0  0  0  0  0  0  0  0  0  0  0  0
  162.1380  206.5180  152.0540 C   0  0  0  0  0  2  0  0  0  0  0  0
  162.6050  205.2190  151.6040 N   0  0  0  0  0  2  0  0  0  0  0  0
  161.4530  204.3330  151.6020 C   0  0  0  0  0  2  0  0  0  0  0  0
  161.5050  203.8430  147.8390 C   0  0  0  0  0  0  0  0  0  0  0  0
  161.6750  204.4070  149.1160 C   0  0  0  0  0  3  0  0  0  0  0  0
  160.8010  202.4020  150.1520 C   0  0  0  0  0  3  0  0  0  0  0  0
  161.3250  203.6930  150.2650 C   0  0  0  0  0  0  0  0  0  0  0  0
  160.9960  202.5340  147.7430 C   0  0  0  0  0  3  0  0  0  0  0  0
  160.6430  201.8200  148.8910 C   0  0  0  0  0  3  0  0  0  0  0  0
  160.3300  206.3250  145.7660 C   0  0  0  0  0  2  0  0  0  0  0  0
  161.2180  204.1100  145.3390 C   0  0  2  0  0  0  0  0  0  0  0  0
  161.4550  206.0760  146.7640 C   0  0  0  0  0  2  0  0  0  0  0  0
  161.3330  204.8470  144.0200 C   0  0  0  0  0  2  0  0  0  0  0  0
  160.1280  205.0710  144.9290 C   0  0  2  0  0  3  0  0  0  0  0  0
  163.4180  204.6190  146.3760 C   0  0  0  0  0  1  0  0  0  0  0  0
  161.9090  204.6330  146.6010 C   0  0  1  0  0  0  0  0  0  0  0  0
  160.8280  202.7720  145.2530 O   0  0  0  0  0  1  0  0  0  0  0  0
  1  3  2  0  0  0  0
  2  3  1  0  0  0  0
  3  6  1  0  0  0  0
  5  7  1  0  0  0  0
  5  2  1  0  0  0  0
  7  4  1  6  0  0  0
  7  2  1  0  0  0  0
  7 33  1  0  0  0  0
  8  6  1  6  0  0  0
  8 13  1  0  0  0  0
 10 13  1  0  0  0  0
 10  9  1  0  0  0  0
 11 10  2  0  0  0  0
 12 11  1  0  0  0  0
 12  8  1  0  0  0  0
 14  9  1  0  0  0  0
 14 15  1  0  0  0  0
 15 18  1  0  0  0  0
 16 15  2  0  0  0  0
 18 17  1  0  0  0  0
 19 22  1  0  0  0  0
 20 22  1  0  0  0  0
 21  6  1  6  0  0  0
 21 19  1  0  0  0  0
 21 20  1  0  0  0  0
 22 23  1  6  0  0  0
 23 24  3  0  0  0  0
 24 25  1  0  0  0  0
 26 25  1  0  0  0  0
 27 32  2  0  0  0  0
 28 30  2  0  0  0  0
 29 28  1  0  0  0  0
 31 26  1  0  0  0  0
 31 30  1  0  0  0  0
 32 29  1  0  0  0  0
 32 31  1  0  0  0  0
 34 33  1  0  0  0  0
 35 34  1  0  0  0  0
 36 37  1  0  0  0  0
 37 39  2  0  0  0  0
 38 39  1  0  0  0  0
 39 35  1  0  0  0  0
 40 36  2  0  0  0  0
 40 41  1  0  0  0  0
 41 38  2  0  0  0  0
 42 44  1  0  0  0  0
 43 49  1  6  0  0  0
 43 48  1  0  0  0  0
 45 43  1  0  0  0  0
 46 45  1  6  0  0  0
 46 43  1  0  0  0  0
 46 42  1  0  0  0  0
 48 47  1  6  0  0  0
 48 44  1  0  0  0  0
 48 36  1  0  0  0  0
M  END
>  <MODEL>
3

>  <REMARK>
 VINA RESULT:      -5.2      3.254      5.626
  Name = 
  14 active torsions:
  status: ('A' for Active; 'I' for Inactive)
    1  A    between atoms: C_1  and  N_36
    2  A    between atoms: N_3  and  C_44
    3  A    between atoms: C_4  and  O_15
    4  A    between atoms: C_4  and  C_26
    5  A    between atoms: C_5  and  C_32
    6  A    between atoms: C_7  and  C_35
    7  A    between atoms: O_15  and  N_45
    8  A    between atoms: C_24  and  N_36
    9  A    between atoms: C_27  and  C_43
   10  A    between atoms: C_37  and  O_39
   11  A    between atoms: C_37  and  C_44
   12  A    between atoms: C_38  and  C_41
   13  A    between atoms: C_38  and  N_49
   14  A    between atoms: C_43  and  N_49
                            x       y       z     vdW  Elec       q    Type
                         _______ _______ _______ _____ _____    ______ ____

>  <TORSDO>
F 14

$$$$
=
 OpenBabel11042420323D

 49 55  0  0  1  0  0  0  0  0999 V2000
  160.1270  207.3750  154.3490 O   0  0  0  0  0  0  0  0  0  0  0  0
  161.1230  205.7760  153.0020 N   0  0  0  0  0  0  0  0  0  0  0  0
  160.8390  207.1350  153.3360 C   0  0  0  0  0  0  0  0  0  0  0  0
  163.2840  204.6880  152.4100 C   0  0  0  0  0  1  0  0  0  0  0  0
  160.9880  204.3030  153.2440 C   0  0  0  0  0  2  0  0  0  0  0  0
  161.3660  208.2140  152.5350 N   0  0  0  0  0  0  0  0  0  0  0  0
  161.7830  204.7130  152.1970 C   0  0  1  0  0  0  0  0  0  0  0  0
  161.2230  209.6190  152.9530 C   0  0  1  0  0  3  0  0  0  0  0  0
  160.7530  211.0490  156.3560 N   0  0  0  0  0  2  0  0  0  0  0  0
  160.6570  210.5420  155.0230 C   0  0  0  0  0  0  0  0  0  0  0  0
  159.5890  210.6590  154.3120 N   0  0  0  0  0  0  0  0  0  0  0  0
  159.7580  210.0550  153.0050 C   0  0  0  0  0  2  0  0  0  0  0  0
  161.7830  209.8580  154.3500 C   0  0  0  0  0  2  0  0  0  0  0  0
  159.6480  211.7160  157.0330 C   0  0  0  0  0  2  0  0  0  0  0  0
  159.2380  212.9440  156.2880 C   0  0  0  0  0  0  0  0  0  0  0  0
  160.0850  213.8500  156.0520 O   0  0  0  0  0  0  0  0  0  0  0  0
  156.8200  212.6580  156.6490 C   0  0  0  0  0  1  0  0  0  0  0  0
  157.9190  213.0670  155.8480 O   0  0  0  0  0  0  0  0  0  0  0  0
  161.1440  208.2420  150.0960 C   0  0  0  0  0  2  0  0  0  0  0  0
  163.0400  208.9390  150.8170 C   0  0  0  0  0  2  0  0  0  0  0  0
  162.0390  207.8820  151.2700 C   0  0  1  0  0  3  0  0  0  0  0  0
  162.1400  209.2960  149.6480 C   0  0  2  0  0  3  0  0  0  0  0  0
  161.5730  210.6330  149.8490 C   0  0  0  0  0  0  0  0  0  0  0  0
  161.1110  211.7330  150.0250 C   0  0  0  0  0  0  0  0  0  0  0  0
  160.5520  213.0670  150.2490 C   0  0  0  0  0  2  0  0  0  0  0  0
  159.8510  213.0940  151.4860 O   0  0  0  0  0  0  0  0  0  0  0  0
  157.6300  213.2790  149.1670 S   0  0  0  0  0  0  0  0  0  0  0  0
  156.8500  214.4420  152.5900 C   0  0  0  0  0  3  0  0  0  0  0  0
  156.4790  214.2750  151.2990 N   0  0  0  0  0  2  0  0  0  0  0  0
  158.1220  214.0410  152.8000 N   0  0  0  0  0  0  0  0  0  0  0  0
  158.5770  213.6170  151.6370 N   0  0  0  0  0  0  0  0  0  0  0  0
  157.5840  213.7550  150.7330 C   0  0  0  0  0  0  0  0  0  0  0  0
  161.2050  204.6090  150.7960 C   0  0  0  0  0  2  0  0  0  0  0  0
  160.0740  203.6980  150.7950 N   0  0  0  0  0  2  0  0  0  0  0  0
  160.5960  202.3750  150.4950 C   0  0  0  0  0  2  0  0  0  0  0  0
  161.4030  203.2980  146.9030 C   0  0  0  0  0  0  0  0  0  0  0  0
  161.2390  203.3730  148.2970 C   0  0  0  0  0  3  0  0  0  0  0  0
  160.5720  201.0480  148.3750 C   0  0  0  0  0  3  0  0  0  0  0  0
  160.8260  202.2570  149.0300 C   0  0  0  0  0  0  0  0  0  0  0  0
  161.1640  202.0680  146.2620 C   0  0  0  0  0  3  0  0  0  0  0  0
  160.7480  200.9510  146.9920 C   0  0  0  0  0  3  0  0  0  0  0  0
  160.8420  206.6850  146.6870 C   0  0  0  0  0  2  0  0  0  0  0  0
  160.8810  204.9170  145.0300 C   0  0  2  0  0  0  0  0  0  0  0  0
  161.9470  205.7100  147.0750 C   0  0  0  0  0  2  0  0  0  0  0  0
  161.0510  206.2020  144.2450 C   0  0  0  0  0  2  0  0  0  0  0  0
  160.1250  206.1510  145.4570 C   0  0  2  0  0  3  0  0  0  0  0  0
  163.2460  204.3140  145.4970 C   0  0  0  0  0  1  0  0  0  0  0  0
  161.8720  204.5220  146.1280 C   0  0  1  0  0  0  0  0  0  0  0  0
  160.0630  203.9510  144.4390 O   0  0  0  0  0  1  0  0  0  0  0  0
  2  5  1  0  0  0  0
  2  3  1  0  0  0  0
  3  1  2  0  0  0  0
  6  3  1  0  0  0  0
  7  4  1  1  0  0  0
  7  2  1  0  0  0  0
  7  5  1  0  0  0  0
  8  6  1  1  0  0  0
  8 12  1  0  0  0  0
  8 13  1  0  0  0  0
  9 14  1  0  0  0  0
 10  9  1  0  0  0  0
 11 10  2  0  0  0  0
 12 11  1  0  0  0  0
 13 10  1  0  0  0  0
 15 14  1  0  0  0  0
 16 15  2  0  0  0  0
 18 15  1  0  0  0  0
 18 17  1  0  0  0  0
 19 21  1  0  0  0  0
 20 21  1  0  0  0  0
 21  6  1  1  0  0  0
 22 23  1  1  0  0  0
 22 19  1  0  0  0  0
 22 20  1  0  0  0  0
 23 24  3  0  0  0  0
 24 25  1  0  0  0  0
 25 26  1  0  0  0  0
 26 31  1  0  0  0  0
 27 32  2  0  0  0  0
 28 30  2  0  0  0  0
 29 28  1  0  0  0  0
 31 30  1  0  0  0  0
 32 29  1  0  0  0  0
 32 31  1  0  0  0  0
 33  7  1  0  0  0  0
 34 33  1  0  0  0  0
 35 34  1  0  0  0  0
 36 37  1  0  0  0  0
 37 39  2  0  0  0  0
 38 39  1  0  0  0  0
 39 35  1  0  0  0  0
 40 36  2  0  0  0  0
 40 41  1  0  0  0  0
 41 38  2  0  0  0  0
 42 44  1  0  0  0  0
 43 49  1  6  0  0  0
 43 46  1  0  0  0  0
 43 48  1  0  0  0  0
 45 43  1  0  0  0  0
 46 45  1  6  0  0  0
 46 42  1  0  0  0  0
 48 47  1  6  0  0  0
 48 36  1  0  0  0  0
 48 44  1  0  0  0  0
M  END
>  <MODEL>
4

>  <REMARK>
 VINA RESULT:      -4.8      1.942      2.166
  Name = 
  14 active torsions:
  status: ('A' for Active; 'I' for Inactive)
    1  A    between atoms: C_1  and  N_36
    2  A    between atoms: N_3  and  C_44
    3  A    between atoms: C_4  and  O_15
    4  A    between atoms: C_4  and  C_26
    5  A    between atoms: C_5  and  C_32
    6  A    between atoms: C_7  and  C_35
    7  A    between atoms: O_15  and  N_45
    8  A    between atoms: C_24  and  N_36
    9  A    between atoms: C_27  and  C_43
   10  A    between atoms: C_37  and  O_39
   11  A    between atoms: C_37  and  C_44
   12  A    between atoms: C_38  and  C_41
   13  A    between atoms: C_38  and  N_49
   14  A    between atoms: C_43  and  N_49
                            x       y       z     vdW  Elec       q    Type
                         _______ _______ _______ _____ _____    ______ ____

>  <TORSDO>
F 14

$$$$
=
 OpenBabel11042420323D

 49 55  0  0  1  0  0  0  0  0999 V2000
  161.2020  208.6760  150.7070 O   0  0  0  0  0  0  0  0  0  0  0  0
  160.9150  206.4160  151.1210 N   0  0  0  0  0  0  0  0  0  0  0  0
  161.0470  207.7660  151.5670 C   0  0  0  0  0  0  0  0  0  0  0  0
  159.2610  204.6690  151.7660 C   0  0  0  0  0  1  0  0  0  0  0  0
  160.8760  205.3830  150.0350 C   0  0  0  0  0  2  0  0  0  0  0  0
  160.9940  208.0840  152.9740 N   0  0  0  0  0  0  0  0  0  0  0  0
  160.6850  204.9610  151.3320 C   0  0  1  0  0  0  0  0  0  0  0  0
  160.9630  209.4790  153.4430 C   0  0  1  0  0  3  0  0  0  0  0  0
  159.1790  212.4230  152.0290 N   0  0  0  0  0  2  0  0  0  0  0  0
  160.0900  211.4020  152.4450 C   0  0  0  0  0  0  0  0  0  0  0  0
  161.3640  211.5010  152.2800 N   0  0  0  0  0  0  0  0  0  0  0  0
  162.0520  210.3290  152.7840 C   0  0  0  0  0  2  0  0  0  0  0  0
  159.6410  210.1620  153.1150 C   0  0  0  0  0  2  0  0  0  0  0  0
  159.6080  213.6450  151.3600 C   0  0  0  0  0  2  0  0  0  0  0  0
  159.6430  213.4510  149.8790 C   0  0  0  0  0  0  0  0  0  0  0  0
  160.6840  212.9980  149.3280 O   0  0  0  0  0  0  0  0  0  0  0  0
  157.2090  213.3720  149.5280 C   0  0  0  0  0  1  0  0  0  0  0  0
  158.5130  213.7620  149.1230 O   0  0  0  0  0  0  0  0  0  0  0  0
  161.7890  207.3630  155.1750 C   0  0  0  0  0  2  0  0  0  0  0  0
  159.7260  206.9150  154.7920 C   0  0  0  0  0  2  0  0  0  0  0  0
  160.9910  206.9760  153.9410 C   0  0  1  0  0  3  0  0  0  0  0  0
  160.5280  207.3040  156.0200 C   0  0  2  0  0  3  0  0  0  0  0  0
  160.1550  208.6550  156.4490 C   0  0  0  0  0  0  0  0  0  0  0  0
  159.8540  209.7650  156.8120 C   0  0  0  0  0  0  0  0  0  0  0  0
  159.4920  211.1100  157.2610 C   0  0  0  0  0  2  0  0  0  0  0  0
  158.1130  211.3480  157.0070 O   0  0  0  0  0  0  0  0  0  0  0  0
  155.6670  210.6390  155.0430 S   0  0  0  0  0  0  0  0  0  0  0  0
  157.4320  213.8740  154.7280 C   0  0  0  0  0  3  0  0  0  0  0  0
  156.4850  213.0110  154.2900 N   0  0  0  0  0  2  0  0  0  0  0  0
  158.1370  213.3610  155.7590 N   0  0  0  0  0  0  0  0  0  0  0  0
  157.6460  212.1580  155.9850 N   0  0  0  0  0  0  0  0  0  0  0  0
  156.6480  211.9490  155.1010 C   0  0  0  0  0  0  0  0  0  0  0  0
  161.8540  204.2870  152.0300 C   0  0  0  0  0  2  0  0  0  0  0  0
  162.3160  203.1590  151.2400 N   0  0  0  0  0  2  0  0  0  0  0  0
  161.1340  202.4300  150.8110 C   0  0  0  0  0  2  0  0  0  0  0  0
  161.5650  203.1300  147.1060 C   0  0  0  0  0  0  0  0  0  0  0  0
  161.5660  203.2820  148.5030 C   0  0  0  0  0  3  0  0  0  0  0  0
  160.8020  201.0030  148.7830 C   0  0  0  0  0  3  0  0  0  0  0  0
  161.1870  202.2280  149.3380 C   0  0  0  0  0  0  0  0  0  0  0  0
  161.1960  201.8850  146.5640 C   0  0  0  0  0  3  0  0  0  0  0  0
  160.8130  200.8300  147.3970 C   0  0  0  0  0  3  0  0  0  0  0  0
  160.8390  206.4390  146.5020 C   0  0  0  0  0  2  0  0  0  0  0  0
  161.0310  204.5070  145.0510 C   0  0  2  0  0  0  0  0  0  0  0  0
  161.9770  205.5730  147.0300 C   0  0  0  0  0  2  0  0  0  0  0  0
  161.1650  205.7070  144.1360 C   0  0  0  0  0  2  0  0  0  0  0  0
  160.1970  205.7360  145.3160 C   0  0  2  0  0  3  0  0  0  0  0  0
  163.4050  204.0900  145.6570 C   0  0  0  0  0  1  0  0  0  0  0  0
  161.9990  204.2880  146.2170 C   0  0  1  0  0  0  0  0  0  0  0  0
  160.2870  203.4390  144.5440 O   0  0  0  0  0  1  0  0  0  0  0  0
  1  3  2  0  0  0  0
  2  7  1  0  0  0  0
  2  3  1  0  0  0  0
  3  6  1  0  0  0  0
  5  2  1  0  0  0  0
  5  7  1  0  0  0  0
  7  4  1  1  0  0  0
  7 33  1  0  0  0  0
  8  6  1  6  0  0  0
  9 10  1  0  0  0  0
 10 13  1  0  0  0  0
 11 10  2  0  0  0  0
 11 12  1  0  0  0  0
 12  8  1  0  0  0  0
 13  8  1  0  0  0  0
 14  9  1  0  0  0  0
 15 14  1  0  0  0  0
 16 15  2  0  0  0  0
 18 17  1  0  0  0  0
 18 15  1  0  0  0  0
 19 22  1  0  0  0  0
 20 22  1  0  0  0  0
 21  6  1  6  0  0  0
 21 20  1  0  0  0  0
 21 19  1  0  0  0  0
 22 23  1  6  0  0  0
 23 24  3  0  0  0  0
 24 25  1  0  0  0  0
 26 25  1  0  0  0  0
 27 32  2  0  0  0  0
 28 30  2  0  0  0  0
 29 28  1  0  0  0  0
 29 32  1  0  0  0  0
 30 31  1  0  0  0  0
 31 26  1  0  0  0  0
 32 31  1  0  0  0  0
 34 33  1  0  0  0  0
 35 34  1  0  0  0  0
 36 37  1  0  0  0  0
 37 39  2  0  0  0  0
 38 39  1  0  0  0  0
 39 35  1  0  0  0  0
 40 36  2  0  0  0  0
 40 41  1  0  0  0  0
 41 38  2  0  0  0  0
 42 44  1  0  0  0  0
 43 49  1  6  0  0  0
 43 46  1  0  0  0  0
 43 48  1  0  0  0  0
 45 43  1  0  0  0  0
 46 45  1  6  0  0  0
 46 42  1  0  0  0  0
 48 47  1  6  0  0  0
 48 44  1  0  0  0  0
 48 36  1  0  0  0  0
M  END
>  <MODEL>
5

>  <REMARK>
 VINA RESULT:      -4.8      2.670      5.108
  Name = 
  14 active torsions:
  status: ('A' for Active; 'I' for Inactive)
    1  A    between atoms: C_1  and  N_36
    2  A    between atoms: N_3  and  C_44
    3  A    between atoms: C_4  and  O_15
    4  A    between atoms: C_4  and  C_26
    5  A    between atoms: C_5  and  C_32
    6  A    between atoms: C_7  and  C_35
    7  A    between atoms: O_15  and  N_45
    8  A    between atoms: C_24  and  N_36
    9  A    between atoms: C_27  and  C_43
   10  A    between atoms: C_37  and  O_39
   11  A    between atoms: C_37  and  C_44
   12  A    between atoms: C_38  and  C_41
   13  A    between atoms: C_38  and  N_49
   14  A    between atoms: C_43  and  N_49
                            x       y       z     vdW  Elec       q    Type
                         _______ _______ _______ _____ _____    ______ ____

>  <TORSDO>
F 14

$$$$
=
 OpenBabel11042420323D

 49 55  0  0  1  0  0  0  0  0999 V2000
  160.8390  208.8270  149.5430 O   0  0  0  0  0  0  0  0  0  0  0  0
  161.1080  209.3970  151.7720 N   0  0  0  0  0  0  0  0  0  0  0  0
  161.2030  208.4640  150.6960 C   0  0  0  0  0  0  0  0  0  0  0  0
  162.7750  210.0050  153.5200 C   0  0  0  0  0  1  0  0  0  0  0  0
  160.7400  210.7420  152.3230 C   0  0  0  0  0  2  0  0  0  0  0  0
  161.7170  207.1340  150.9190 N   0  0  0  0  0  0  0  0  0  0  0  0
  161.3070  209.8270  153.1820 C   0  0  1  0  0  0  0  0  0  0  0  0
  161.9770  206.2150  149.7990 C   0  0  1  0  0  3  0  0  0  0  0  0
  161.5920  206.7620  146.1380 N   0  0  0  0  0  2  0  0  0  0  0  0
  161.4960  206.4150  147.5210 C   0  0  0  0  0  0  0  0  0  0  0  0
  160.6080  205.5950  147.9700 N   0  0  0  0  0  0  0  0  0  0  0  0
  160.7280  205.4250  149.4050 C   0  0  0  0  0  2  0  0  0  0  0  0
  162.4190  206.9560  148.5430 C   0  0  0  0  0  2  0  0  0  0  0  0
  160.6830  206.2430  145.1240 C   0  0  0  0  0  2  0  0  0  0  0  0
  161.3940  205.2950  144.2140 C   0  0  0  0  0  0  0  0  0  0  0  0
  161.4780  205.5500  142.9810 O   0  0  0  0  0  0  0  0  0  0  0  0
  163.0480  204.1990  145.6710 C   0  0  0  0  0  1  0  0  0  0  0  0
  161.9710  204.1420  144.7460 O   0  0  0  0  0  0  0  0  0  0  0  0
  160.7560  205.9400  152.8290 C   0  0  0  0  0  2  0  0  0  0  0  0
  162.7960  205.4310  152.4070 C   0  0  0  0  0  2  0  0  0  0  0  0
  161.9610  206.7030  152.3040 C   0  0  1  0  0  3  0  0  0  0  0  0
  161.5880  204.6740  152.9290 C   0  0  2  0  0  3  0  0  0  0  0  0
  161.1390  203.7050  151.9260 C   0  0  0  0  0  0  0  0  0  0  0  0
  160.7810  202.9010  151.1000 C   0  0  0  0  0  0  0  0  0  0  0  0
  160.3550  201.9250  150.0970 C   0  0  0  0  0  2  0  0  0  0  0  0
  161.0630  202.1410  148.8830 O   0  0  0  0  0  0  0  0  0  0  0  0
  159.6100  202.5030  146.0370 S   0  0  0  0  0  0  0  0  0  0  0  0
  161.6560  199.4980  146.7150 C   0  0  0  0  0  3  0  0  0  0  0  0
  160.8460  200.1980  145.8870 N   0  0  0  0  0  2  0  0  0  0  0  0
  161.8180  200.1210  147.9020 N   0  0  0  0  0  0  0  0  0  0  0  0
  161.1030  201.2280  147.8420 N   0  0  0  0  0  0  0  0  0  0  0  0
  160.5200  201.2750  146.6260 C   0  0  0  0  0  0  0  0  0  0  0  0
  160.3810  209.1010  154.1430 C   0  0  0  0  0  2  0  0  0  0  0  0
  161.1380  208.6110  155.2820 N   0  0  0  0  0  2  0  0  0  0  0  0
  160.3170  208.8290  156.4610 C   0  0  0  0  0  2  0  0  0  0  0  0
  158.7920  212.2970  156.6950 C   0  0  0  0  0  0  0  0  0  0  0  0
  158.9330  210.9080  156.5330 C   0  0  0  0  0  3  0  0  0  0  0  0
  161.2960  211.0580  157.0330 C   0  0  0  0  0  3  0  0  0  0  0  0
  160.1760  210.2910  156.7000 C   0  0  0  0  0  0  0  0  0  0  0  0
  159.9250  213.0520  157.0510 C   0  0  0  0  0  3  0  0  0  0  0  0
  161.1690  212.4380  157.2160 C   0  0  0  0  0  3  0  0  0  0  0  0
  155.5440  211.4850  155.9050 C   0  0  0  0  0  2  0  0  0  0  0  0
  157.0730  213.1610  155.0520 C   0  0  2  0  0  0  0  0  0  0  0  0
  156.3600  212.0090  157.0800 C   0  0  0  0  0  2  0  0  0  0  0  0
  155.6940  213.6320  154.6350 C   0  0  0  0  0  2  0  0  0  0  0  0
  156.0410  212.1450  154.6280 C   0  0  2  0  0  3  0  0  0  0  0  0
  157.3250  214.2810  157.2560 C   0  0  0  0  0  1  0  0  0  0  0  0
  157.4240  212.9450  156.5260 C   0  0  1  0  0  0  0  0  0  0  0  0
  158.0860  213.3410  154.1060 O   0  0  0  0  0  1  0  0  0  0  0  0
  1  3  2  0  0  0  0
  2  5  1  0  0  0  0
  2  7  1  0  0  0  0
  3  6  1  0  0  0  0
  3  2  1  0  0  0  0
  5  7  1  0  0  0  0
  7  4  1  1  0  0  0
  7 33  1  0  0  0  0
  8  6  1  1  0  0  0
  9 10  1  0  0  0  0
 10 11  2  0  0  0  0
 10 13  1  0  0  0  0
 11 12  1  0  0  0  0
 12  8  1  0  0  0  0
 13  8  1  0  0  0  0
 14  9  1  0  0  0  0
 15 18  1  0  0  0  0
 15 14  1  0  0  0  0
 16 15  2  0  0  0  0
 18 17  1  0  0  0  0
 19 22  1  0  0  0  0
 20 22  1  0  0  0  0
 21  6  1  6  0  0  0
 21 20  1  0  0  0  0
 21 19  1  0  0  0  0
 22 23  1  6  0  0  0
 24 23  3  0  0  0  0
 25 24  1  0  0  0  0
 26 25  1  0  0  0  0
 27 32  2  0  0  0  0
 28 30  2  0  0  0  0
 29 32  1  0  0  0  0
 29 28  1  0  0  0  0
 31 30  1  0  0  0  0
 31 26  1  0  0  0  0
 32 31  1  0  0  0  0
 33 34  1  0  0  0  0
 34 35  1  0  0  0  0
 35 39  1  0  0  0  0
 36 40  1  0  0  0  0
 37 36  2  0  0  0  0
 37 39  1  0  0  0  0
 38 41  1  0  0  0  0
 39 38  2  0  0  0  0
 40 41  2  0  0  0  0
 42 44  1  0  0  0  0
 43 49  1  6  0  0  0
 43 48  1  0  0  0  0
 45 43  1  0  0  0  0
 46 45  1  1  0  0  0
 46 43  1  0  0  0  0
 46 42  1  0  0  0  0
 48 36  1  0  0  0  0
 48 44  1  0  0  0  0
 48 47  1  1  0  0  0
M  END
>  <MODEL>
6

>  <REMARK>
 VINA RESULT:      -4.2      3.317     10.761
  Name = 
  14 active torsions:
  status: ('A' for Active; 'I' for Inactive)
    1  A    between atoms: C_1  and  N_36
    2  A    between atoms: N_3  and  C_44
    3  A    between atoms: C_4  and  O_15
    4  A    between atoms: C_4  and  C_26
    5  A    between atoms: C_5  and  C_32
    6  A    between atoms: C_7  and  C_35
    7  A    between atoms: O_15  and  N_45
    8  A    between atoms: C_24  and  N_36
    9  A    between atoms: C_27  and  C_43
   10  A    between atoms: C_37  and  O_39
   11  A    between atoms: C_37  and  C_44
   12  A    between atoms: C_38  and  C_41
   13  A    between atoms: C_38  and  N_49
   14  A    between atoms: C_43  and  N_49
                            x       y       z     vdW  Elec       q    Type
                         _______ _______ _______ _____ _____    ______ ____

>  <TORSDO>
F 14

$$$$
=
 OpenBabel11042420323D

 49 55  0  0  1  0  0  0  0  0999 V2000
  161.1850  209.4280  147.1930 O   0  0  0  0  0  0  0  0  0  0  0  0
  161.1680  211.4870  148.2530 N   0  0  0  0  0  0  0  0  0  0  0  0
  161.3550  210.0710  148.2650 C   0  0  0  0  0  0  0  0  0  0  0  0
  162.6030  213.3010  149.1770 C   0  0  0  0  0  1  0  0  0  0  0  0
  160.8160  212.7650  147.5540 C   0  0  0  0  0  2  0  0  0  0  0  0
  161.7410  209.3900  149.4770 N   0  0  0  0  0  0  0  0  0  0  0  0
  161.1900  212.8380  148.8770 C   0  0  1  0  0  0  0  0  0  0  0  0
  162.0970  207.9620  149.4730 C   0  0  1  0  0  3  0  0  0  0  0  0
  162.7930  205.6940  146.6060 N   0  0  0  0  0  2  0  0  0  0  0  0
  162.2740  206.4410  147.7090 C   0  0  0  0  0  0  0  0  0  0  0  0
  161.1570  206.1470  148.2810 N   0  0  0  0  0  0  0  0  0  0  0  0
  160.8630  207.0640  149.3640 C   0  0  0  0  0  2  0  0  0  0  0  0
  162.9870  207.5990  148.2910 C   0  0  0  0  0  2  0  0  0  0  0  0
  162.0960  204.5570  146.0180 C   0  0  0  0  0  2  0  0  0  0  0  0
  161.1710  205.0080  144.9360 C   0  0  0  0  0  0  0  0  0  0  0  0
  161.4160  206.0710  144.3010 O   0  0  0  0  0  0  0  0  0  0  0  0
  160.0320  202.8300  144.8270 C   0  0  0  0  0  1  0  0  0  0  0  0
  160.0500  204.2360  144.6300 O   0  0  0  0  0  0  0  0  0  0  0  0
  160.5720  209.7480  151.6000 C   0  0  0  0  0  2  0  0  0  0  0  0
  162.7040  209.5850  151.7820 C   0  0  0  0  0  2  0  0  0  0  0  0
  161.7540  210.1540  150.7340 C   0  0  1  0  0  3  0  0  0  0  0  0
  161.5200  209.1800  152.6420 C   0  0  2  0  0  3  0  0  0  0  0  0
  161.4070  207.7190  152.6710 C   0  0  0  0  0  0  0  0  0  0  0  0
  161.3200  206.5150  152.6850 C   0  0  0  0  0  0  0  0  0  0  0  0
  161.2160  205.0560  152.6920 C   0  0  0  0  0  2  0  0  0  0  0  0
  161.7890  204.5260  151.5030 O   0  0  0  0  0  0  0  0  0  0  0  0
  162.6770  201.4760  152.0010 S   0  0  0  0  0  0  0  0  0  0  0  0
  160.0520  202.2710  149.5200 C   0  0  0  0  0  3  0  0  0  0  0  0
  160.8410  201.3600  150.1360 N   0  0  0  0  0  0  0  0  0  0  0  0
  160.3160  203.5260  149.9410 N   0  0  0  0  0  2  0  0  0  0  0  0
  161.2850  203.4260  150.8300 N   0  0  0  0  0  0  0  0  0  0  0  0
  161.5980  202.1190  150.9490 C   0  0  0  0  0  0  0  0  0  0  0  0
  160.0890  213.0150  149.9090 C   0  0  0  0  0  2  0  0  0  0  0  0
  159.2310  214.1240  149.5300 N   0  0  0  0  0  2  0  0  0  0  0  0
  157.8900  213.5870  149.3740 C   0  0  0  0  0  2  0  0  0  0  0  0
  156.9730  213.6350  153.0570 C   0  0  0  0  0  0  0  0  0  0  0  0
  157.7020  213.4930  151.8630 C   0  0  0  0  0  3  0  0  0  0  0  0
  155.8040  214.2660  150.5760 C   0  0  0  0  0  3  0  0  0  0  0  0
  157.1230  213.8050  150.6300 C   0  0  0  0  0  0  0  0  0  0  0  0
  155.6540  214.1200  152.9870 C   0  0  0  0  0  3  0  0  0  0  0  0
  155.0720  214.4310  151.7550 C   0  0  0  0  0  3  0  0  0  0  0  0
  159.8230  212.1910  154.3320 C   0  0  0  0  0  2  0  0  0  0  0  0
  157.4650  211.8290  154.7590 C   0  0  2  0  0  0  0  0  0  0  0  0
  159.1290  213.5460  154.2770 C   0  0  0  0  0  2  0  0  0  0  0  0
  158.1820  211.2350  155.9540 C   0  0  0  0  0  2  0  0  0  0  0  0
  158.7760  211.1100  154.5540 C   0  0  2  0  0  3  0  0  0  0  0  0
  157.0850  214.1610  155.5300 C   0  0  0  0  0  1  0  0  0  0  0  0
  157.6310  213.3050  154.3900 C   0  0  1  0  0  0  0  0  0  0  0  0
  156.3650  211.1060  154.2920 O   0  0  0  0  0  1  0  0  0  0  0  0
  1  3  2  0  0  0  0
  2  3  1  0  0  0  0
  2  7  1  0  0  0  0
  3  6  1  0  0  0  0
  5  2  1  0  0  0  0
  5  7  1  0  0  0  0
  7  4  1  1  0  0  0
  7 33  1  0  0  0  0
  8  6  1  6  0  0  0
  9 10  1  0  0  0  0
 10 11  2  0  0  0  0
 10 13  1  0  0  0  0
 11 12  1  0  0  0  0
 12  8  1  0  0  0  0
 13  8  1  0  0  0  0
 14  9  1  0  0  0  0
 15 14  1  0  0  0  0
 16 15  2  0  0  0  0
 18 17  1  0  0  0  0
 18 15  1  0  0  0  0
 19 22  1  0  0  0  0
 20 22  1  0  0  0  0
 21  6  1  6  0  0  0
 21 19  1  0  0  0  0
 21 20  1  0  0  0  0
 22 23  1  6  0  0  0
 23 24  3  0  0  0  0
 24 25  1  0  0  0  0
 26 25  1  0  0  0  0
 28 30  1  0  0  0  0
 28 29  2  0  0  0  0
 29 32  1  0  0  0  0
 30 31  1  0  0  0  0
 31 32  1  0  0  0  0
 31 26  1  0  0  0  0
 32 27  2  0  0  0  0
 34 33  1  0  0  0  0
 35 34  1  0  0  0  0
 35 39  1  0  0  0  0
 36 48  1  0  0  0  0
 37 36  2  0  0  0  0
 38 39  2  0  0  0  0
 38 41  1  0  0  0  0
 39 37  1  0  0  0  0
 40 36  1  0  0  0  0
 41 40  2  0  0  0  0
 43 49  1  6  0  0  0
 43 45  1  0  0  0  0
 44 42  1  0  0  0  0
 44 48  1  0  0  0  0
 46 42  1  1  0  0  0
 46 43  1  0  0  0  0
 46 45  1  0  0  0  0
 48 43  1  0  0  0  0
 48 47  1  1  0  0  0
M  END
>  <MODEL>
7

>  <REMARK>
 VINA RESULT:      -3.8      3.112     10.540
  Name = 
  14 active torsions:
  status: ('A' for Active; 'I' for Inactive)
    1  A    between atoms: C_1  and  N_36
    2  A    between atoms: N_3  and  C_44
    3  A    between atoms: C_4  and  O_15
    4  A    between atoms: C_4  and  C_26
    5  A    between atoms: C_5  and  C_32
    6  A    between atoms: C_7  and  C_35
    7  A    between atoms: O_15  and  N_45
    8  A    between atoms: C_24  and  N_36
    9  A    between atoms: C_27  and  C_43
   10  A    between atoms: C_37  and  O_39
   11  A    between atoms: C_37  and  C_44
   12  A    between atoms: C_38  and  C_41
   13  A    between atoms: C_38  and  N_49
   14  A    between atoms: C_43  and  N_49
                            x       y       z     vdW  Elec       q    Type
                         _______ _______ _______ _____ _____    ______ ____

>  <TORSDO>
F 14

$$$$
