=
 OpenBabel11052410063D

 54 62  0  0  1  0  0  0  0  0999 V2000
  160.3510  209.4930  155.3400 C   0  0  1  0  0  0  0  0  0  0  0  0
  160.5300  210.8720  156.7800 C   0  0  0  0  0  2  0  0  0  0  0  0
  159.7790  211.3370  154.4370 C   0  0  1  0  0  3  0  0  0  0  0  0
  161.3250  209.8140  156.3050 O   0  0  0  0  0  0  0  0  0  0  0  0
  159.4440  210.6160  155.7540 C   0  0  1  0  0  3  0  0  0  0  0  0
  160.5540  210.1100  153.9560 C   0  0  1  0  0  3  0  0  0  0  0  0
  158.1430  214.3860  152.5790 N   0  0  0  0  0  0  0  0  0  0  0  0
  155.8060  210.8920  155.0430 C   0  0  0  0  0  1  0  0  0  0  0  0
  158.5740  211.6420  153.5220 C   0  0  2  0  0  3  0  0  0  0  0  0
  159.3930  213.7050  152.2610 C   0  0  1  0  0  3  0  0  0  0  0  0
  160.1910  211.4850  151.6830 O   0  0  0  0  0  1  0  0  0  0  0  0
  159.0900  212.2010  152.1640 C   0  0  1  0  0  3  0  0  0  0  0  0
  157.6210  212.6390  154.2360 C   0  0  2  0  0  3  0  0  0  0  0  0
  156.2070  212.1730  154.3970 C   0  0  0  0  0  0  0  0  0  0  0  0
  155.3370  213.0710  154.0510 N   0  0  0  0  0  0  0  0  0  0  0  0
  155.9680  214.1940  153.5040 N   0  0  0  0  0  2  0  0  0  0  0  0
  157.3560  213.9120  153.4970 C   0  0  0  0  0  0  0  0  0  0  0  0
  159.9150  214.2170  150.9270 C   0  0  0  0  0  2  0  0  0  0  0  0
  159.0930  213.6870  149.7580 C   0  0  0  0  0  2  0  0  0  0  0  0
  161.2470  212.8030  148.6970 C   0  0  0  0  0  3  0  0  0  0  0  0
  161.6450  212.6930  147.3740 C   0  0  0  0  0  3  0  0  0  0  0  0
  159.9360  213.2390  148.6110 C   0  0  0  0  0  0  0  0  0  0  0  0
  160.6100  213.0500  146.5870 N   0  0  0  0  0  0  0  0  0  0  0  0
  159.5770  213.4110  147.3290 N   0  0  0  0  0  0  0  0  0  0  0  0
  162.1300  213.1140  144.6470 C   0  0  0  0  0  2  0  0  0  0  0  0
  160.6910  213.2270  145.1350 C   0  0  1  0  0  3  0  0  0  0  0  0
  160.0970  212.2470  142.9010 C   0  0  0  0  0  3  0  0  0  0  0  0
  159.8420  212.1950  144.3880 C   0  0  0  0  0  2  0  0  0  0  0  0
  162.1560  213.5070  143.1700 C   0  0  0  0  0  2  0  0  0  0  0  0
  161.1520  212.7950  142.3920 N   0  0  0  0  0  0  0  0  0  0  0  0
  162.4580  209.7280  152.5730 O   0  0  0  0  0  1  0  0  0  0  0  0
  162.0100  210.4540  153.6750 C   0  0  0  0  0  2  0  0  0  0  0  0
  159.8120  208.0700  155.4720 C   0  0  0  0  0  2  0  0  0  0  0  0
  160.7810  206.9920  155.0220 C   0  0  0  0  0  2  0  0  0  0  0  0
  160.7120  206.9100  153.5100 C   0  0  0  0  0  2  0  0  0  0  0  0
  161.3580  205.6260  153.0170 C   0  0  0  0  0  2  0  0  0  0  0  0
  162.2690  205.9000  151.8260 C   0  0  0  0  0  2  0  0  0  0  0  0
  161.6650  205.3630  150.5250 C   0  0  2  0  0  3  0  0  0  0  0  0
  161.7480  208.6970  149.2140 C   0  0  0  0  0  2  0  0  0  0  0  0
  162.7200  208.1390  148.2130 C   0  0  0  0  0  2  0  0  0  0  0  0
  159.9300  206.4410  149.2630 O   0  0  0  0  0  1  0  0  0  0  0  0
  161.5520  207.7430  150.2220 O   0  0  0  0  0  0  0  0  0  0  0  0
  161.2900  206.5180  149.5790 C   0  0  1  0  0  0  0  0  0  0  0  0
  162.2770  206.4040  148.0420 S   0  0  0  0  0  0  0  0  0  0  0  0
  160.4480  204.4950  150.8570 C   0  0  0  0  0  2  0  0  0  0  0  0
  160.6000  201.7380  148.4120 C   0  0  1  0  0  3  0  0  0  0  0  0
  161.2310  201.0330  149.6350 C   0  0  0  0  0  2  0  0  0  0  0  0
  161.3760  201.9110  151.8750 O   0  0  0  0  0  0  0  0  0  0  0  0
  160.3240  203.1490  148.7450 N   0  0  0  0  0  2  0  0  0  0  0  0
  160.5120  203.2320  150.1300 N   0  0  0  0  0  0  0  0  0  0  0  0
  161.0640  202.0560  150.6660 C   0  0  0  0  0  0  0  0  0  0  0  0
  161.3680  201.6540  147.0800 C   0  0  0  0  0  3  0  0  0  0  0  0
  160.4540  201.6750  145.8690 C   0  0  0  0  0  2  0  0  0  0  0  0
  161.2310  202.9210  146.2520 C   0  0  0  0  0  2  0  0  0  0  0  0
  1 33  1  1  0  0  0
  1  5  1  0  0  0  0
  1  4  1  0  0  0  0
  3  9  1  6  0  0  0
  3  5  1  0  0  0  0
  4  2  1  0  0  0  0
  5  2  1  1  0  0  0
  6 32  1  1  0  0  0
  6  3  1  0  0  0  0
  6  1  1  0  0  0  0
  7 17  2  0  0  0  0
  9 13  1  0  0  0  0
 10  7  1  0  0  0  0
 11 12  1  0  0  0  0
 12 10  1  0  0  0  0
 12  9  1  0  0  0  0
 13 14  1  0  0  0  0
 14  8  1  0  0  0  0
 15 14  2  0  0  0  0
 16 15  1  0  0  0  0
 17 16  1  0  0  0  0
 17 13  1  0  0  0  0
 18 10  1  0  0  0  0
 19 18  1  0  0  0  0
 21 20  2  0  0  0  0
 22 20  1  0  0  0  0
 22 19  1  0  0  0  0
 23 24  1  0  0  0  0
 23 21  1  0  0  0  0
 24 22  2  0  0  0  0
 25 26  1  0  0  0  0
 26 23  1  0  0  0  0
 27 28  1  0  0  0  0
 28 26  1  0  0  0  0
 29 25  1  0  0  0  0
 30 27  2  0  0  0  0
 30 29  1  0  0  0  0
 31 32  1  0  0  0  0
 34 33  1  0  0  0  0
 35 34  1  0  0  0  0
 36 35  1  0  0  0  0
 37 36  1  0  0  0  0
 38 45  1  0  0  0  0
 38 37  1  0  0  0  0
 39 42  1  0  0  0  0
 40 39  1  0  0  0  0
 41 43  1  0  0  0  0
 43 42  1  0  0  0  0
 43 38  1  0  0  0  0
 44 40  1  0  0  0  0
 44 43  1  0  0  0  0
 46 49  1  0  0  0  0
 46 47  1  0  0  0  0
 47 51  1  0  0  0  0
 49 50  1  0  0  0  0
 50 51  1  0  0  0  0
 50 45  1  0  0  0  0
 51 48  2  0  0  0  0
 52 46  1  0  0  0  0
 53 54  1  0  0  0  0
 53 52  1  0  0  0  0
 54 52  1  0  0  0  0
M  END
>  <MODEL>
1

>  <REMARK>
 VINA RESULT:      -8.0      0.000      0.000
  Name = 
  16 active torsions:
  status: ('A' for Active; 'I' for Inactive)
    1  A    between atoms: C_4  and  C_23
    2  A    between atoms: C_6  and  C_19
    3  A    between atoms: C_6  and  C_44
    4  A    between atoms: C_10  and  N_46
    5  A    between atoms: C_12  and  C_20
    6  A    between atoms: C_14  and  C_37
    7  A    between atoms: C_14  and  C_45
    8  A    between atoms: C_16  and  C_32
    9  A    between atoms: C_17  and  C_45
   10  A    between atoms: C_19  and  C_32
   11  A    between atoms: C_24  and  C_53
   12  A    between atoms: C_25  and  C_36
   13  A    between atoms: C_29  and  C_36
   14  A    between atoms: C_29  and  N_42
   15  A    between atoms: C_30  and  C_36
   16  A    between atoms: C_30  and  C_44
                            x       y       z     vdW  Elec       q    Type
                         _______ _______ _______ _____ _____    ______ ____

>  <TORSDO>
F 16

$$$$
=
 OpenBabel11052410063D

 54 62  0  0  1  0  0  0  0  0999 V2000
  161.7790  205.7770  145.9690 C   0  0  1  0  0  0  0  0  0  0  0  0
  163.4790  204.7210  145.9540 C   0  0  0  0  0  2  0  0  0  0  0  0
  161.8900  204.8510  147.8840 C   0  0  1  0  0  3  0  0  0  0  0  0
  163.1070  206.0230  145.5730 O   0  0  0  0  0  0  0  0  0  0  0  0
  162.0810  204.3820  146.4320 C   0  0  1  0  0  3  0  0  0  0  0  0
  161.4120  206.2160  147.3870 C   0  0  1  0  0  3  0  0  0  0  0  0
  161.3560  203.1940  151.4050 N   0  0  0  0  0  0  0  0  0  0  0  0
  159.8890  201.4250  147.1080 C   0  0  0  0  0  1  0  0  0  0  0  0
  160.7890  204.1190  148.6800 C   0  0  2  0  0  3  0  0  0  0  0  0
  161.4760  204.6130  151.0890 C   0  0  1  0  0  3  0  0  0  0  0  0
  160.3800  206.3000  149.7280 O   0  0  0  0  0  1  0  0  0  0  0  0
  160.4660  204.9260  149.9720 C   0  0  1  0  0  3  0  0  0  0  0  0
  161.2550  202.6720  148.9990 C   0  0  2  0  0  3  0  0  0  0  0  0
  160.3470  201.5830  148.5170 C   0  0  0  0  0  0  0  0  0  0  0  0
  160.1100  200.6860  149.4230 N   0  0  0  0  0  0  0  0  0  0  0  0
  160.6770  201.0510  150.6500 N   0  0  0  0  0  2  0  0  0  0  0  0
  161.2830  202.3150  150.4510 C   0  0  0  0  0  0  0  0  0  0  0  0
  161.1480  205.4300  152.3290 C   0  0  0  0  0  2  0  0  0  0  0  0
  161.8990  206.7570  152.3450 C   0  0  0  0  0  2  0  0  0  0  0  0
  161.0780  207.4330  154.6730 C   0  0  0  0  0  3  0  0  0  0  0  0
  160.4200  208.5670  155.1250 C   0  0  0  0  0  3  0  0  0  0  0  0
  161.3540  207.7200  153.3470 C   0  0  0  0  0  0  0  0  0  0  0  0
  160.3330  209.4440  154.1040 N   0  0  0  0  0  0  0  0  0  0  0  0
  160.8710  208.9270  153.0120 N   0  0  0  0  0  0  0  0  0  0  0  0
  160.3170  211.7850  154.8750 C   0  0  0  0  0  2  0  0  0  0  0  0
  159.5590  210.6860  154.1390 C   0  0  1  0  0  3  0  0  0  0  0  0
  158.6150  212.5680  152.7710 C   0  0  0  0  0  3  0  0  0  0  0  0
  159.2220  211.1870  152.7320 C   0  0  0  0  0  2  0  0  0  0  0  0
  159.3710  212.9740  155.0430 C   0  0  0  0  0  2  0  0  0  0  0  0
  158.7350  213.3550  153.7900 N   0  0  0  0  0  0  0  0  0  0  0  0
  161.5380  208.4720  148.1460 O   0  0  0  0  0  1  0  0  0  0  0  0
  162.3060  207.3350  147.9040 C   0  0  0  0  0  2  0  0  0  0  0  0
  160.7680  205.9370  144.8340 C   0  0  0  0  0  2  0  0  0  0  0  0
  161.2480  205.4140  143.4930 C   0  0  0  0  0  2  0  0  0  0  0  0
  161.6370  206.6070  142.6430 C   0  0  0  0  0  2  0  0  0  0  0  0
  161.8280  206.1900  141.1940 C   0  0  0  0  0  2  0  0  0  0  0  0
  162.6660  207.2150  140.4410 C   0  0  0  0  0  2  0  0  0  0  0  0
  161.8350  208.4450  140.0620 C   0  0  2  0  0  3  0  0  0  0  0  0
  159.5250  208.8500  137.3530 C   0  0  0  0  0  2  0  0  0  0  0  0
  160.3410  210.0650  137.0110 C   0  0  0  0  0  2  0  0  0  0  0  0
  161.7290  207.1120  138.0690 O   0  0  0  0  0  1  0  0  0  0  0  0
  159.9150  208.3960  138.6200 O   0  0  0  0  0  0  0  0  0  0  0  0
  161.3220  208.3320  138.6150 C   0  0  1  0  0  0  0  0  0  0  0  0
  161.9980  209.7040  137.6090 S   0  0  0  0  0  0  0  0  0  0  0  0
  162.6820  209.7040  140.2580 C   0  0  0  0  0  2  0  0  0  0  0  0
  160.2600  212.0540  141.7450 C   0  0  1  0  0  3  0  0  0  0  0  0
  161.3060  213.0630  141.2170 C   0  0  0  0  0  2  0  0  0  0  0  0
  163.2140  212.5530  139.8360 O   0  0  0  0  0  0  0  0  0  0  0  0
  160.7350  210.6790  141.5010 N   0  0  0  0  0  2  0  0  0  0  0  0
  161.8400  210.8270  140.6550 N   0  0  0  0  0  0  0  0  0  0  0  0
  162.2180  212.1720  140.5010 C   0  0  0  0  0  0  0  0  0  0  0  0
  159.8190  212.2050  143.2130 C   0  0  0  0  0  3  0  0  0  0  0  0
  160.4990  213.3640  143.9170 C   0  0  0  0  0  2  0  0  0  0  0  0
  159.0590  213.4980  143.4580 C   0  0  0  0  0  2  0  0  0  0  0  0
  1 33  1  6  0  0  0
  1  5  1  0  0  0  0
  1  6  1  0  0  0  0
  3  9  1  6  0  0  0
  4  2  1  0  0  0  0
  4  1  1  0  0  0  0
  5  2  1  1  0  0  0
  5  3  1  0  0  0  0
  6  3  1  0  0  0  0
  6 32  1  1  0  0  0
  8 14  1  0  0  0  0
  9 13  1  0  0  0  0
  9 12  1  0  0  0  0
 10  7  1  0  0  0  0
 10 18  1  0  0  0  0
 11 12  1  0  0  0  0
 12 10  1  0  0  0  0
 13 17  1  0  0  0  0
 14 13  1  0  0  0  0
 14 15  2  0  0  0  0
 15 16  1  0  0  0  0
 17 16  1  0  0  0  0
 17  7  2  0  0  0  0
 18 19  1  0  0  0  0
 19 22  1  0  0  0  0
 20 21  2  0  0  0  0
 22 20  1  0  0  0  0
 23 26  1  0  0  0  0
 23 21  1  0  0  0  0
 24 22  2  0  0  0  0
 24 23  1  0  0  0  0
 25 29  1  0  0  0  0
 26 25  1  0  0  0  0
 27 30  2  0  0  0  0
 28 27  1  0  0  0  0
 28 26  1  0  0  0  0
 30 29  1  0  0  0  0
 32 31  1  0  0  0  0
 34 33  1  0  0  0  0
 35 34  1  0  0  0  0
 36 35  1  0  0  0  0
 37 36  1  0  0  0  0
 38 45  1  0  0  0  0
 38 37  1  0  0  0  0
 39 42  1  0  0  0  0
 40 39  1  0  0  0  0
 40 44  1  0  0  0  0
 41 43  1  0  0  0  0
 43 42  1  0  0  0  0
 43 38  1  0  0  0  0
 44 43  1  0  0  0  0
 45 50  1  0  0  0  0
 46 52  1  0  0  0  0
 47 46  1  0  0  0  0
 48 51  2  0  0  0  0
 49 46  1  0  0  0  0
 50 49  1  0  0  0  0
 51 50  1  0  0  0  0
 51 47  1  0  0  0  0
 52 54  1  0  0  0  0
 52 53  1  0  0  0  0
 54 53  1  0  0  0  0
M  END
>  <MODEL>
2

>  <REMARK>
 VINA RESULT:      -6.4      4.281     10.959
  Name = 
  16 active torsions:
  status: ('A' for Active; 'I' for Inactive)
    1  A    between atoms: C_4  and  C_23
    2  A    between atoms: C_6  and  C_19
    3  A    between atoms: C_6  and  C_44
    4  A    between atoms: C_10  and  N_46
    5  A    between atoms: C_12  and  C_20
    6  A    between atoms: C_14  and  C_37
    7  A    between atoms: C_14  and  C_45
    8  A    between atoms: C_16  and  C_32
    9  A    between atoms: C_17  and  C_45
   10  A    between atoms: C_19  and  C_32
   11  A    between atoms: C_24  and  C_53
   12  A    between atoms: C_25  and  C_36
   13  A    between atoms: C_29  and  C_36
   14  A    between atoms: C_29  and  N_42
   15  A    between atoms: C_30  and  C_36
   16  A    between atoms: C_30  and  C_44
                            x       y       z     vdW  Elec       q    Type
                         _______ _______ _______ _____ _____    ______ ____

>  <TORSDO>
F 16

$$$$
=
 OpenBabel11052410063D

 54 62  0  0  1  0  0  0  0  0999 V2000
  160.5180  208.8350  155.5170 C   0  0  1  0  0  0  0  0  0  0  0  0
  160.9090  209.7360  157.2600 C   0  0  0  0  0  2  0  0  0  0  0  0
  159.7070  210.7970  155.3370 C   0  0  1  0  0  3  0  0  0  0  0  0
  161.6440  208.9490  156.3550 O   0  0  0  0  0  0  0  0  0  0  0  0
  159.6600  209.6890  156.4030 C   0  0  1  0  0  3  0  0  0  0  0  0
  160.4280  209.8500  154.3770 C   0  0  1  0  0  3  0  0  0  0  0  0
  158.0920  213.8650  153.4920 N   0  0  0  0  0  0  0  0  0  0  0  0
  156.1390  211.3250  157.1630 C   0  0  0  0  0  1  0  0  0  0  0  0
  158.3400  211.2400  154.7770 C   0  0  2  0  0  3  0  0  0  0  0  0
  159.0340  212.8890  152.9570 C   0  0  1  0  0  3  0  0  0  0  0  0
  159.2120  210.4910  152.6100 O   0  0  0  0  0  1  0  0  0  0  0  0
  158.4670  211.4890  153.2460 C   0  0  1  0  0  3  0  0  0  0  0  0
  157.8550  212.5070  155.5340 C   0  0  2  0  0  3  0  0  0  0  0  0
  156.5150  212.3910  156.1930 C   0  0  0  0  0  0  0  0  0  0  0  0
  155.7450  213.4050  155.9520 N   0  0  0  0  0  0  0  0  0  0  0  0
  156.3410  214.2800  155.0360 N   0  0  0  0  0  2  0  0  0  0  0  0
  157.5810  213.7000  154.6740 C   0  0  0  0  0  0  0  0  0  0  0  0
  159.1680  213.0950  151.4550 C   0  0  0  0  0  2  0  0  0  0  0  0
  158.2400  214.1940  150.9520 C   0  0  0  0  0  2  0  0  0  0  0  0
  156.7810  213.6000  148.9350 C   0  0  0  0  0  3  0  0  0  0  0  0
  157.0690  213.5190  147.5810 C   0  0  0  0  0  3  0  0  0  0  0  0
  157.9510  214.0870  149.4910 C   0  0  0  0  0  0  0  0  0  0  0  0
  158.3350  213.9380  147.3890 N   0  0  0  0  0  0  0  0  0  0  0  0
  158.8900  214.2580  148.5470 N   0  0  0  0  0  0  0  0  0  0  0  0
  160.5120  213.4340  146.3480 C   0  0  0  0  0  2  0  0  0  0  0  0
  159.0610  213.8400  146.1210 C   0  0  1  0  0  3  0  0  0  0  0  0
  159.2830  212.5770  143.9630 C   0  0  0  0  0  3  0  0  0  0  0  0
  158.4160  212.8270  145.1720 C   0  0  0  0  0  2  0  0  0  0  0  0
  161.2450  213.5500  145.0120 C   0  0  0  0  0  2  0  0  0  0  0  0
  160.5430  212.8650  143.9360 N   0  0  0  0  0  0  0  0  0  0  0  0
  162.6430  209.3510  153.6480 O   0  0  0  0  0  1  0  0  0  0  0  0
  161.7890  210.4030  153.9760 C   0  0  0  0  0  2  0  0  0  0  0  0
  160.0750  207.3900  155.2900 C   0  0  0  0  0  2  0  0  0  0  0  0
  160.2240  206.9090  153.8590 C   0  0  0  0  0  2  0  0  0  0  0  0
  161.5710  206.2250  153.7390 C   0  0  0  0  0  2  0  0  0  0  0  0
  161.7380  205.6190  152.3550 C   0  0  0  0  0  2  0  0  0  0  0  0
  162.7230  206.4320  151.5230 C   0  0  0  0  0  2  0  0  0  0  0  0
  162.1140  206.8400  150.1780 C   0  0  2  0  0  3  0  0  0  0  0  0
  162.6070  210.3870  150.2930 C   0  0  0  0  0  2  0  0  0  0  0  0
  162.4720  210.3230  148.7980 C   0  0  0  0  0  2  0  0  0  0  0  0
  160.5280  208.4750  150.9360 O   0  0  0  0  0  1  0  0  0  0  0  0
  162.7310  209.0810  150.7840 O   0  0  0  0  0  0  0  0  0  0  0  0
  161.7020  208.3230  150.1920 C   0  0  1  0  0  0  0  0  0  0  0  0
  161.4160  208.9030  148.4800 S   0  0  0  0  0  0  0  0  0  0  0  0
  160.9210  205.9320  149.8700 C   0  0  0  0  0  2  0  0  0  0  0  0
  161.5770  202.8690  147.9230 C   0  0  1  0  0  3  0  0  0  0  0  0
  161.5620  203.9060  146.7750 C   0  0  0  0  0  2  0  0  0  0  0  0
  161.4500  206.3010  147.0140 O   0  0  0  0  0  0  0  0  0  0  0  0
  161.2490  203.5390  149.1960 N   0  0  0  0  0  2  0  0  0  0  0  0
  161.2990  204.9070  148.9030 N   0  0  0  0  0  0  0  0  0  0  0  0
  161.4380  205.1540  147.5270 C   0  0  0  0  0  0  0  0  0  0  0  0
  160.7000  201.6160  147.7480 C   0  0  0  0  0  3  0  0  0  0  0  0
  160.6930  201.0950  146.3230 C   0  0  0  0  0  2  0  0  0  0  0  0
  161.5150  200.3860  147.3830 C   0  0  0  0  0  2  0  0  0  0  0  0
  1 33  1  6  0  0  0
  1  4  1  0  0  0  0
  1  5  1  0  0  0  0
  3  9  1  6  0  0  0
  3  5  1  0  0  0  0
  4  2  1  0  0  0  0
  5  2  1  1  0  0  0
  6 32  1  1  0  0  0
  6  3  1  0  0  0  0
  6  1  1  0  0  0  0
  7 17  2  0  0  0  0
  9 13  1  0  0  0  0
 10 12  1  0  0  0  0
 10  7  1  0  0  0  0
 11 12  1  0  0  0  0
 12  9  1  0  0  0  0
 13 14  1  0  0  0  0
 14  8  1  0  0  0  0
 15 14  2  0  0  0  0
 16 15  1  0  0  0  0
 17 16  1  0  0  0  0
 17 13  1  0  0  0  0
 18 10  1  0  0  0  0
 19 18  1  0  0  0  0
 20 22  1  0  0  0  0
 21 20  2  0  0  0  0
 22 19  1  0  0  0  0
 23 21  1  0  0  0  0
 23 24  1  0  0  0  0
 24 22  2  0  0  0  0
 26 25  1  0  0  0  0
 26 23  1  0  0  0  0
 27 28  1  0  0  0  0
 28 26  1  0  0  0  0
 29 25  1  0  0  0  0
 30 27  2  0  0  0  0
 30 29  1  0  0  0  0
 31 32  1  0  0  0  0
 34 33  1  0  0  0  0
 35 34  1  0  0  0  0
 36 35  1  0  0  0  0
 37 36  1  0  0  0  0
 38 43  1  0  0  0  0
 38 37  1  0  0  0  0
 39 42  1  0  0  0  0
 40 39  1  0  0  0  0
 43 42  1  0  0  0  0
 43 41  1  0  0  0  0
 44 40  1  0  0  0  0
 44 43  1  0  0  0  0
 45 38  1  0  0  0  0
 46 49  1  0  0  0  0
 47 51  1  0  0  0  0
 47 46  1  0  0  0  0
 48 51  2  0  0  0  0
 50 49  1  0  0  0  0
 50 45  1  0  0  0  0
 51 50  1  0  0  0  0
 52 46  1  0  0  0  0
 53 54  1  0  0  0  0
 53 52  1  0  0  0  0
 54 52  1  0  0  0  0
M  END
>  <MODEL>
3

>  <REMARK>
 VINA RESULT:      -5.9      1.713      2.178
  Name = 
  16 active torsions:
  status: ('A' for Active; 'I' for Inactive)
    1  A    between atoms: C_4  and  C_23
    2  A    between atoms: C_6  and  C_19
    3  A    between atoms: C_6  and  C_44
    4  A    between atoms: C_10  and  N_46
    5  A    between atoms: C_12  and  C_20
    6  A    between atoms: C_14  and  C_37
    7  A    between atoms: C_14  and  C_45
    8  A    between atoms: C_16  and  C_32
    9  A    between atoms: C_17  and  C_45
   10  A    between atoms: C_19  and  C_32
   11  A    between atoms: C_24  and  C_53
   12  A    between atoms: C_25  and  C_36
   13  A    between atoms: C_29  and  C_36
   14  A    between atoms: C_29  and  N_42
   15  A    between atoms: C_30  and  C_36
   16  A    between atoms: C_30  and  C_44
                            x       y       z     vdW  Elec       q    Type
                         _______ _______ _______ _____ _____    ______ ____

>  <TORSDO>
F 16

$$$$
=
 OpenBabel11052410063D

 54 62  0  0  1  0  0  0  0  0999 V2000
  160.8190  209.2930  154.4800 C   0  0  1  0  0  0  0  0  0  0  0  0
  161.5690  210.6030  155.7940 C   0  0  0  0  0  2  0  0  0  0  0  0
  160.0620  211.1930  153.8840 C   0  0  1  0  0  3  0  0  0  0  0  0
  162.0870  209.5330  155.0420 O   0  0  0  0  0  0  0  0  0  0  0  0
  160.1780  210.4340  155.2160 C   0  0  1  0  0  3  0  0  0  0  0  0
  160.5500  209.9570  153.1290 C   0  0  1  0  0  3  0  0  0  0  0  0
  157.9810  214.4130  153.0300 N   0  0  0  0  0  0  0  0  0  0  0  0
  156.5110  210.6370  155.7350 C   0  0  0  0  0  1  0  0  0  0  0  0
  158.6300  211.5860  153.4660 C   0  0  2  0  0  3  0  0  0  0  0  0
  159.0340  213.7880  152.2380 C   0  0  1  0  0  3  0  0  0  0  0  0
  159.5330  211.6560  151.1850 O   0  0  0  0  0  1  0  0  0  0  0  0
  158.6760  212.3000  152.0830 C   0  0  1  0  0  3  0  0  0  0  0  0
  157.9970  212.4850  154.5640 C   0  0  2  0  0  3  0  0  0  0  0  0
  156.7060  211.9870  155.1370 C   0  0  0  0  0  0  0  0  0  0  0  0
  155.7950  212.9080  155.2040 N   0  0  0  0  0  0  0  0  0  0  0  0
  156.2370  214.0930  154.6030 N   0  0  0  0  0  2  0  0  0  0  0  0
  157.5340  213.8300  154.1000 C   0  0  0  0  0  0  0  0  0  0  0  0
  159.0930  214.4530  150.8710 C   0  0  0  0  0  2  0  0  0  0  0  0
  160.3510  214.0590  150.1060 C   0  0  0  0  0  2  0  0  0  0  0  0
  158.8680  213.2940  148.1650 C   0  0  0  0  0  3  0  0  0  0  0  0
  159.1710  212.9370  146.8590 C   0  0  0  0  0  3  0  0  0  0  0  0
  160.0800  213.7270  148.6750 C   0  0  0  0  0  0  0  0  0  0  0  0
  160.4840  213.1580  146.6500 N   0  0  0  0  0  0  0  0  0  0  0  0
  161.0520  213.6100  147.7570 N   0  0  0  0  0  0  0  0  0  0  0  0
  160.3880  212.9820  144.1930 C   0  0  0  0  0  2  0  0  0  0  0  0
  161.2170  212.7470  145.4510 C   0  0  1  0  0  3  0  0  0  0  0  0
  163.1850  213.2300  143.9690 C   0  0  0  0  0  3  0  0  0  0  0  0
  162.5420  213.5010  145.3070 C   0  0  0  0  0  2  0  0  0  0  0  0
  161.1320  212.3490  143.0180 C   0  0  0  0  0  2  0  0  0  0  0  0
  162.5260  212.7630  142.9600 N   0  0  0  0  0  0  0  0  0  0  0  0
  162.1020  209.1970  151.4870 O   0  0  0  0  0  1  0  0  0  0  0  0
  161.8280  210.2520  152.3560 C   0  0  0  0  0  2  0  0  0  0  0  0
  160.2870  207.8890  154.7610 C   0  0  0  0  0  2  0  0  0  0  0  0
  161.2400  206.7720  154.3800 C   0  0  0  0  0  2  0  0  0  0  0  0
  161.0260  206.4620  152.9110 C   0  0  0  0  0  2  0  0  0  0  0  0
  161.5950  205.0960  152.5670 C   0  0  0  0  0  2  0  0  0  0  0  0
  160.5250  204.2040  151.9480 C   0  0  0  0  0  2  0  0  0  0  0  0
  160.7500  204.0260  150.4430 C   0  0  2  0  0  3  0  0  0  0  0  0
  159.7170  200.7680  149.3680 C   0  0  0  0  0  2  0  0  0  0  0  0
  160.2420  201.1880  148.0240 C   0  0  0  0  0  2  0  0  0  0  0  0
  161.8220  201.9450  150.9730 O   0  0  0  0  0  1  0  0  0  0  0  0
  159.6680  201.8950  150.1970 O   0  0  0  0  0  0  0  0  0  0  0  0
  160.9160  202.5380  150.0880 C   0  0  1  0  0  0  0  0  0  0  0  0
  161.5450  202.3760  148.3760 S   0  0  0  0  0  0  0  0  0  0  0  0
  161.9710  204.8430  150.0160 C   0  0  0  0  0  2  0  0  0  0  0  0
  161.8700  205.7110  146.4340 C   0  0  1  0  0  3  0  0  0  0  0  0
  160.5720  206.4100  146.9040 C   0  0  0  0  0  2  0  0  0  0  0  0
  159.8280  206.6560  149.1830 O   0  0  0  0  0  0  0  0  0  0  0  0
  162.4730  204.9800  147.5640 N   0  0  0  0  0  2  0  0  0  0  0  0
  161.7640  205.4130  148.6900 N   0  0  0  0  0  0  0  0  0  0  0  0
  160.6500  206.1990  148.3490 C   0  0  0  0  0  0  0  0  0  0  0  0
  161.7630  204.7880  145.2060 C   0  0  0  0  0  3  0  0  0  0  0  0
  160.3940  204.8270  144.5550 C   0  0  0  0  0  2  0  0  0  0  0  0
  161.5570  205.5620  143.9150 C   0  0  0  0  0  2  0  0  0  0  0  0
  1 33  1  1  0  0  0
  1  4  1  0  0  0  0
  1  5  1  0  0  0  0
  3  9  1  6  0  0  0
  3  5  1  0  0  0  0
  4  2  1  0  0  0  0
  5  2  1  1  0  0  0
  6 32  1  6  0  0  0
  6  3  1  0  0  0  0
  6  1  1  0  0  0  0
  7 17  2  0  0  0  0
  9 13  1  0  0  0  0
 10  7  1  0  0  0  0
 11 12  1  0  0  0  0
 12 10  1  0  0  0  0
 12  9  1  0  0  0  0
 13 14  1  0  0  0  0
 14 15  2  0  0  0  0
 14  8  1  0  0  0  0
 16 15  1  0  0  0  0
 17 13  1  0  0  0  0
 17 16  1  0  0  0  0
 18 10  1  0  0  0  0
 19 18  1  0  0  0  0
 20 22  1  0  0  0  0
 21 20  2  0  0  0  0
 22 19  1  0  0  0  0
 23 21  1  0  0  0  0
 23 24  1  0  0  0  0
 24 22  2  0  0  0  0
 25 26  1  0  0  0  0
 26 23  1  0  0  0  0
 27 28  1  0  0  0  0
 28 26  1  0  0  0  0
 29 25  1  0  0  0  0
 30 29  1  0  0  0  0
 30 27  2  0  0  0  0
 31 32  1  0  0  0  0
 34 33  1  0  0  0  0
 35 34  1  0  0  0  0
 36 35  1  0  0  0  0
 37 36  1  0  0  0  0
 38 37  1  0  0  0  0
 39 42  1  0  0  0  0
 40 44  1  0  0  0  0
 40 39  1  0  0  0  0
 43 42  1  0  0  0  0
 43 38  1  0  0  0  0
 43 41  1  0  0  0  0
 44 43  1  0  0  0  0
 45 38  1  0  0  0  0
 46 47  1  0  0  0  0
 46 49  1  0  0  0  0
 47 51  1  0  0  0  0
 49 50  1  0  0  0  0
 50 45  1  0  0  0  0
 51 50  1  0  0  0  0
 51 48  2  0  0  0  0
 52 46  1  0  0  0  0
 53 52  1  0  0  0  0
 54 53  1  0  0  0  0
 54 52  1  0  0  0  0
M  END
>  <MODEL>
4

>  <REMARK>
 VINA RESULT:      -5.8      1.521      2.941
  Name = 
  16 active torsions:
  status: ('A' for Active; 'I' for Inactive)
    1  A    between atoms: C_4  and  C_23
    2  A    between atoms: C_6  and  C_19
    3  A    between atoms: C_6  and  C_44
    4  A    between atoms: C_10  and  N_46
    5  A    between atoms: C_12  and  C_20
    6  A    between atoms: C_14  and  C_37
    7  A    between atoms: C_14  and  C_45
    8  A    between atoms: C_16  and  C_32
    9  A    between atoms: C_17  and  C_45
   10  A    between atoms: C_19  and  C_32
   11  A    between atoms: C_24  and  C_53
   12  A    between atoms: C_25  and  C_36
   13  A    between atoms: C_29  and  C_36
   14  A    between atoms: C_29  and  N_42
   15  A    between atoms: C_30  and  C_36
   16  A    between atoms: C_30  and  C_44
                            x       y       z     vdW  Elec       q    Type
                         _______ _______ _______ _____ _____    ______ ____

>  <TORSDO>
F 16

$$$$
=
 OpenBabel11052410063D

 54 62  0  0  1  0  0  0  0  0999 V2000
  160.9940  208.8250  154.2590 C   0  0  1  0  0  0  0  0  0  0  0  0
  161.7440  209.9710  155.7180 C   0  0  0  0  0  2  0  0  0  0  0  0
  160.3610  210.8090  153.8070 C   0  0  1  0  0  3  0  0  0  0  0  0
  162.2440  208.9460  154.8940 O   0  0  0  0  0  0  0  0  0  0  0  0
  160.3750  209.9280  155.0680 C   0  0  1  0  0  3  0  0  0  0  0  0
  160.8220  209.6200  152.9640 C   0  0  1  0  0  3  0  0  0  0  0  0
  158.4830  214.1990  153.1650 N   0  0  0  0  0  0  0  0  0  0  0  0
  156.7020  210.2770  155.4430 C   0  0  0  0  0  1  0  0  0  0  0  0
  158.9710  211.3130  153.3650 C   0  0  2  0  0  3  0  0  0  0  0  0
  159.5410  213.5920  152.3650 C   0  0  1  0  0  3  0  0  0  0  0  0
  159.9850  211.5400  151.1420 O   0  0  0  0  0  1  0  0  0  0  0  0
  159.1180  212.1450  152.0580 C   0  0  1  0  0  3  0  0  0  0  0  0
  158.3310  212.1420  154.5130 C   0  0  2  0  0  3  0  0  0  0  0  0
  156.9910  211.6640  154.9820 C   0  0  0  0  0  0  0  0  0  0  0  0
  156.1240  212.6210  155.0930 N   0  0  0  0  0  0  0  0  0  0  0  0
  156.6510  213.8310  154.6240 N   0  0  0  0  0  2  0  0  0  0  0  0
  157.9570  213.5450  154.1560 C   0  0  0  0  0  0  0  0  0  0  0  0
  159.6980  214.3730  151.0690 C   0  0  0  0  0  2  0  0  0  0  0  0
  158.3860  214.4530  150.2960 C   0  0  0  0  0  2  0  0  0  0  0  0
  157.5220  213.3860  148.1360 C   0  0  0  0  0  3  0  0  0  0  0  0
  158.1760  212.9810  146.9820 C   0  0  0  0  0  3  0  0  0  0  0  0
  158.5170  213.9960  148.8810 C   0  0  0  0  0  0  0  0  0  0  0  0
  159.4700  213.3460  147.0760 N   0  0  0  0  0  0  0  0  0  0  0  0
  159.6950  213.9370  148.2380 N   0  0  0  0  0  0  0  0  0  0  0  0
  160.1340  213.3070  144.7020 C   0  0  0  0  0  2  0  0  0  0  0  0
  160.5180  212.9480  146.1330 C   0  0  1  0  0  3  0  0  0  0  0  0
  162.8710  213.3680  145.3660 C   0  0  0  0  0  3  0  0  0  0  0  0
  161.8590  213.6120  146.4570 C   0  0  0  0  0  2  0  0  0  0  0  0
  161.1730  212.6860  143.7690 C   0  0  0  0  0  2  0  0  0  0  0  0
  162.5360  213.0020  144.1720 N   0  0  0  0  0  0  0  0  0  0  0  0
  162.0020  209.7780  150.8980 O   0  0  0  0  0  1  0  0  0  0  0  0
  162.1490  209.9150  152.2770 C   0  0  0  0  0  2  0  0  0  0  0  0
  160.3810  207.4320  154.3860 C   0  0  0  0  0  2  0  0  0  0  0  0
  161.1150  206.3540  153.6120 C   0  0  0  0  0  2  0  0  0  0  0  0
  161.2510  206.8250  152.1780 C   0  0  0  0  0  2  0  0  0  0  0  0
  161.3080  205.6390  151.2300 C   0  0  0  0  0  2  0  0  0  0  0  0
  161.4680  206.1050  149.7880 C   0  0  0  0  0  2  0  0  0  0  0  0
  161.5730  204.9170  148.8260 C   0  0  2  0  0  3  0  0  0  0  0  0
  162.4370  204.5710  145.3660 C   0  0  0  0  0  2  0  0  0  0  0  0
  160.9880  204.8740  145.1080 C   0  0  0  0  0  2  0  0  0  0  0  0
  162.8390  206.4760  147.5110 O   0  0  0  0  0  1  0  0  0  0  0  0
  162.6040  204.3340  146.7360 O   0  0  0  0  0  0  0  0  0  0  0  0
  161.9640  205.3900  147.4140 C   0  0  1  0  0  0  0  0  0  0  0  0
  160.4660  205.8970  146.4930 S   0  0  0  0  0  0  0  0  0  0  0  0
  160.2430  204.1610  148.8130 C   0  0  0  0  0  2  0  0  0  0  0  0
  160.7950  200.7170  147.6170 C   0  0  1  0  0  3  0  0  0  0  0  0
  161.4380  200.6080  149.0200 C   0  0  0  0  0  2  0  0  0  0  0  0
  161.3860  202.2850  150.7500 O   0  0  0  0  0  0  0  0  0  0  0  0
  160.3580  202.1060  147.3820 N   0  0  0  0  0  2  0  0  0  0  0  0
  160.4710  202.7320  148.6280 N   0  0  0  0  0  0  0  0  0  0  0  0
  161.1170  201.9210  149.5770 C   0  0  0  0  0  0  0  0  0  0  0  0
  161.6290  200.2190  146.4220 C   0  0  0  0  0  3  0  0  0  0  0  0
  161.4220  198.7440  146.1320 C   0  0  0  0  0  2  0  0  0  0  0  0
  160.7620  199.7880  145.2510 C   0  0  0  0  0  2  0  0  0  0  0  0
  1 33  1  1  0  0  0
  1  4  1  0  0  0  0
  1  5  1  0  0  0  0
  3  9  1  6  0  0  0
  3  5  1  0  0  0  0
  4  2  1  0  0  0  0
  5  2  1  1  0  0  0
  6 32  1  1  0  0  0
  6  3  1  0  0  0  0
  6  1  1  0  0  0  0
  7 17  2  0  0  0  0
  9 13  1  0  0  0  0
 10  7  1  0  0  0  0
 11 12  1  0  0  0  0
 12 10  1  0  0  0  0
 12  9  1  0  0  0  0
 13 14  1  0  0  0  0
 14 15  2  0  0  0  0
 14  8  1  0  0  0  0
 16 15  1  0  0  0  0
 17 13  1  0  0  0  0
 17 16  1  0  0  0  0
 18 10  1  0  0  0  0
 19 18  1  0  0  0  0
 20 22  1  0  0  0  0
 21 23  1  0  0  0  0
 21 20  2  0  0  0  0
 22 19  1  0  0  0  0
 23 24  1  0  0  0  0
 24 22  2  0  0  0  0
 25 26  1  0  0  0  0
 26 28  1  0  0  0  0
 26 23  1  0  0  0  0
 27 28  1  0  0  0  0
 29 30  1  0  0  0  0
 29 25  1  0  0  0  0
 30 27  2  0  0  0  0
 31 32  1  0  0  0  0
 34 33  1  0  0  0  0
 35 34  1  0  0  0  0
 36 35  1  0  0  0  0
 37 36  1  0  0  0  0
 38 37  1  0  0  0  0
 39 42  1  0  0  0  0
 40 39  1  0  0  0  0
 40 44  1  0  0  0  0
 42 43  1  0  0  0  0
 43 41  1  0  0  0  0
 43 38  1  0  0  0  0
 44 43  1  0  0  0  0
 45 38  1  0  0  0  0
 46 47  1  0  0  0  0
 47 51  1  0  0  0  0
 49 46  1  0  0  0  0
 49 50  1  0  0  0  0
 50 45  1  0  0  0  0
 50 51  1  0  0  0  0
 51 48  2  0  0  0  0
 52 46  1  0  0  0  0
 53 52  1  0  0  0  0
 54 53  1  0  0  0  0
 54 52  1  0  0  0  0
M  END
>  <MODEL>
5

>  <REMARK>
 VINA RESULT:      -5.7      1.592      2.190
  Name = 
  16 active torsions:
  status: ('A' for Active; 'I' for Inactive)
    1  A    between atoms: C_4  and  C_23
    2  A    between atoms: C_6  and  C_19
    3  A    between atoms: C_6  and  C_44
    4  A    between atoms: C_10  and  N_46
    5  A    between atoms: C_12  and  C_20
    6  A    between atoms: C_14  and  C_37
    7  A    between atoms: C_14  and  C_45
    8  A    between atoms: C_16  and  C_32
    9  A    between atoms: C_17  and  C_45
   10  A    between atoms: C_19  and  C_32
   11  A    between atoms: C_24  and  C_53
   12  A    between atoms: C_25  and  C_36
   13  A    between atoms: C_29  and  C_36
   14  A    between atoms: C_29  and  N_42
   15  A    between atoms: C_30  and  C_36
   16  A    between atoms: C_30  and  C_44
                            x       y       z     vdW  Elec       q    Type
                         _______ _______ _______ _____ _____    ______ ____

>  <TORSDO>
F 16

$$$$
