=
 OpenBabel11052411363D

 43 50  0  0  1  0  0  0  0  0999 V2000
  160.9560  202.0320  146.8170 C   0  0  0  0  0  0  0  0  0  0  0  0
  161.8820  206.6420  148.7020 C   0  0  0  0  0  0  0  0  0  0  0  0
  161.4170  206.4950  151.4740 C   0  0  0  0  0  0  0  0  0  0  0  0
  161.5270  204.3710  147.0810 C   0  0  0  0  0  0  0  0  0  0  0  0
  160.7360  201.9240  148.1920 C   0  0  0  0  0  3  0  0  0  0  0  0
  160.7810  200.9240  146.0000 O   0  0  0  0  0  1  0  0  0  0  0  0
  161.3050  204.2730  148.4770 C   0  0  0  0  0  0  0  0  0  0  0  0
  161.3510  203.2520  146.2630 C   0  0  0  0  0  3  0  0  0  0  0  0
  160.9080  203.0370  149.0190 C   0  0  0  0  0  3  0  0  0  0  0  0
  161.2530  205.3590  150.6740 C   0  0  0  0  0  3  0  0  0  0  0  0
  161.4790  205.4140  149.2900 C   0  0  0  0  0  0  0  0  0  0  0  0
  162.0970  206.7090  147.3190 C   0  0  0  0  0  3  0  0  0  0  0  0
  162.0650  207.7830  149.5030 C   0  0  0  0  0  0  0  0  0  0  0  0
  161.8190  207.6970  150.8810 C   0  0  0  0  0  3  0  0  0  0  0  0
  161.9200  205.5830  146.5160 C   0  0  0  0  0  3  0  0  0  0  0  0
  161.1610  206.4270  152.9220 C   0  0  0  0  0  0  0  0  0  0  0  0
  160.7340  207.6030  153.6260 N   0  0  0  0  0  2  0  0  0  0  0  0
  161.3180  205.3370  153.5380 O   0  0  0  0  0  0  0  0  0  0  0  0
  160.4960  207.6810  155.0350 C   0  0  0  0  0  0  0  0  0  0  0  0
  160.6710  206.6810  155.7830 O   0  0  0  0  0  0  0  0  0  0  0  0
  160.0100  208.9590  155.6200 C   0  0  0  0  0  2  0  0  0  0  0  0
  160.9630  210.0250  155.3360 N   0  0  0  0  0  0  0  0  0  0  0  0
  160.5810  212.1400  156.5650 C   0  0  0  0  0  2  0  0  0  0  0  0
  159.1760  211.5600  154.3660 C   0  0  2  0  0  3  0  0  0  0  0  0
  161.8640  210.0820  156.4850 C   0  0  0  0  0  2  0  0  0  0  0  0
  160.2460  211.2930  155.3680 C   0  0  2  0  0  0  0  0  0  0  0  0
  160.4990  212.0120  154.1860 O   0  0  0  0  0  0  0  0  0  0  0  0
  161.8370  211.4870  157.0820 C   0  0  0  0  0  2  0  0  0  0  0  0
  158.3270  212.6710  154.7910 N   0  0  0  0  0  0  0  0  0  0  0  0
  157.8310  213.3100  152.4150 C   0  0  0  0  0  2  0  0  0  0  0  0
  156.0480  213.0830  154.1250 C   0  0  0  0  0  3  0  0  0  0  0  0
  156.9300  214.0570  153.3780 C   0  0  1  0  0  3  0  0  0  0  0  0
  156.9600  212.1790  154.9240 C   0  0  0  0  0  3  0  0  0  0  0  0
  158.3570  213.7420  153.7820 C   0  0  1  0  0  3  0  0  0  0  0  0
  162.4550  208.9920  148.8980 O   0  0  0  0  0  0  0  0  0  0  0  0
  161.0650  211.9730  150.6610 C   0  0  0  0  0  3  0  0  0  0  0  0
  160.9330  212.8600  149.5880 C   0  0  0  0  0  0  0  0  0  0  0  0
  161.7970  211.1630  148.0890 C   0  0  0  0  0  3  0  0  0  0  0  0
  161.5630  210.6860  150.4470 C   0  0  0  0  0  3  0  0  0  0  0  0
  161.9260  210.2670  149.1560 C   0  0  0  0  0  0  0  0  0  0  0  0
  161.2950  212.4520  148.3000 C   0  0  0  0  0  3  0  0  0  0  0  0
  159.1010  214.3070  149.2690 O   0  0  0  0  0  1  0  0  0  0  0  0
  160.3830  214.2230  149.8110 C   0  0  0  0  0  2  0  0  0  0  0  0
  1  5  1  0  0  0  0
  2 11  1  0  0  0  0
  2 13  1  0  0  0  0
  3 16  1  0  0  0  0
  4  7  1  0  0  0  0
  5  9  2  0  0  0  0
  6  1  1  0  0  0  0
  7  9  1  0  0  0  0
  7 11  2  0  0  0  0
  8  1  2  0  0  0  0
  8  4  1  0  0  0  0
 10  3  2  0  0  0  0
 11 10  1  0  0  0  0
 12  2  2  0  0  0  0
 13 14  2  0  0  0  0
 14  3  1  0  0  0  0
 15  4  2  0  0  0  0
 15 12  1  0  0  0  0
 16 18  2  0  0  0  0
 16 17  1  0  0  0  0
 17 19  1  0  0  0  0
 19 21  1  0  0  0  0
 19 20  2  0  0  0  0
 22 26  1  0  0  0  0
 22 21  1  0  0  0  0
 22 25  1  0  0  0  0
 23 28  1  0  0  0  0
 24 29  1  1  0  0  0
 24 26  1  0  0  0  0
 25 28  1  0  0  0  0
 26 23  1  1  0  0  0
 27 24  1  0  0  0  0
 27 26  1  0  0  0  0
 29 33  1  0  0  0  0
 31 33  2  0  0  0  0
 32 30  1  6  0  0  0
 32 34  1  0  0  0  0
 32 31  1  0  0  0  0
 34 30  1  6  0  0  0
 34 29  1  0  0  0  0
 35 40  1  0  0  0  0
 35 13  1  0  0  0  0
 37 43  1  0  0  0  0
 37 36  2  0  0  0  0
 38 41  2  0  0  0  0
 38 40  1  0  0  0  0
 39 36  1  0  0  0  0
 40 39  2  0  0  0  0
 41 37  1  0  0  0  0
 42 43  1  0  0  0  0
M  END
>  <MODEL>
1

>  <REMARK>
 VINA RESULT:      -9.9      0.000      0.000
  Name = 
  7 active torsions:
  status: ('A' for Active; 'I' for Inactive)
    1  A    between atoms: O_1  and  C_34
    2  A    between atoms: O_1  and  C_35
    3  A    between atoms: C_2  and  C_13
    4  A    between atoms: C_3  and  N_4
    5  A    between atoms: C_3  and  C_12
    6  A    between atoms: N_11  and  C_14
    7  A    between atoms: C_19  and  C_37
                            x       y       z     vdW  Elec       q    Type
                         _______ _______ _______ _____ _____    ______ ____

>  <TORSDO>
F 7

$$$$
=
 OpenBabel11052411363D

 43 50  0  0  1  0  0  0  0  0999 V2000
  161.1670  204.0580  148.6090 C   0  0  0  0  0  0  0  0  0  0  0  0
  161.7370  208.3840  151.1830 C   0  0  0  0  0  0  0  0  0  0  0  0
  161.9100  210.4470  149.2770 C   0  0  0  0  0  0  0  0  0  0  0  0
  161.4150  205.7140  150.3600 C   0  0  0  0  0  0  0  0  0  0  0  0
  161.2310  205.0620  147.6410 C   0  0  0  0  0  3  0  0  0  0  0  0
  161.0130  202.7340  148.2230 O   0  0  0  0  0  1  0  0  0  0  0  0
  161.4820  206.7410  149.3860 C   0  0  0  0  0  0  0  0  0  0  0  0
  161.2580  204.3830  149.9650 C   0  0  0  0  0  3  0  0  0  0  0  0
  161.3880  206.3970  148.0260 C   0  0  0  0  0  3  0  0  0  0  0  0
  161.7350  209.1220  148.8630 C   0  0  0  0  0  3  0  0  0  0  0  0
  161.6480  208.0800  149.7990 C   0  0  0  0  0  0  0  0  0  0  0  0
  161.6650  207.3480  152.1250 C   0  0  0  0  0  3  0  0  0  0  0  0
  161.8960  209.7150  151.6070 C   0  0  0  0  0  0  0  0  0  0  0  0
  161.9910  210.7310  150.6440 C   0  0  0  0  0  3  0  0  0  0  0  0
  161.5060  206.0250  151.7160 C   0  0  0  0  0  3  0  0  0  0  0  0
  162.0160  211.5280  148.2830 C   0  0  0  0  0  0  0  0  0  0  0  0
  161.1240  211.5540  147.1600 N   0  0  0  0  0  2  0  0  0  0  0  0
  162.8910  212.4260  148.4230 O   0  0  0  0  0  0  0  0  0  0  0  0
  161.1510  212.5200  146.1050 C   0  0  0  0  0  0  0  0  0  0  0  0
  162.0120  213.4420  146.0870 O   0  0  0  0  0  0  0  0  0  0  0  0
  160.1300  212.4490  145.0260 C   0  0  0  0  0  2  0  0  0  0  0  0
  159.9910  213.7530  144.3910 N   0  0  0  0  0  0  0  0  0  0  0  0
  158.7670  213.7580  142.2400 C   0  0  0  0  0  2  0  0  0  0  0  0
  161.3460  213.0630  142.3470 C   0  0  2  0  0  3  0  0  0  0  0  0
  158.6120  214.1760  144.6250 C   0  0  0  0  0  2  0  0  0  0  0  0
  160.0800  213.5660  142.9490 C   0  0  2  0  0  0  0  0  0  0  0  0
  161.0450  214.4380  142.4140 O   0  0  0  0  0  0  0  0  0  0  0  0
  157.9310  214.4500  143.2860 C   0  0  0  0  0  2  0  0  0  0  0  0
  161.1200  212.5730  140.9880 N   0  0  0  0  0  0  0  0  0  0  0  0
  163.3060  213.5190  140.1950 C   0  0  0  0  0  2  0  0  0  0  0  0
  162.6060  211.1940  139.6860 C   0  0  0  0  0  3  0  0  0  0  0  0
  162.6980  212.6050  139.1500 C   0  0  1  0  0  3  0  0  0  0  0  0
  161.6850  211.2320  140.8850 C   0  0  0  0  0  3  0  0  0  0  0  0
  161.7900  213.4540  140.0180 C   0  0  1  0  0  3  0  0  0  0  0  0
  161.9930  209.9920  152.9830 O   0  0  0  0  0  0  0  0  0  0  0  0
  159.1430  211.8950  154.4620 C   0  0  0  0  0  3  0  0  0  0  0  0
  158.8360  211.0760  155.5530 C   0  0  0  0  0  0  0  0  0  0  0  0
  160.6290  209.5740  154.9240 C   0  0  0  0  0  3  0  0  0  0  0  0
  160.1910  211.5500  153.6050 C   0  0  0  0  0  3  0  0  0  0  0  0
  160.9490  210.3900  153.8330 C   0  0  0  0  0  0  0  0  0  0  0  0
  159.5830  209.9170  155.7860 C   0  0  0  0  0  3  0  0  0  0  0  0
  157.2090  212.6880  156.1050 O   0  0  0  0  0  1  0  0  0  0  0  0
  157.7340  211.4520  156.4790 C   0  0  0  0  0  2  0  0  0  0  0  0
  1  8  1  0  0  0  0
  2 13  1  0  0  0  0
  2 12  1  0  0  0  0
  3 14  1  0  0  0  0
  4 15  1  0  0  0  0
  5  9  1  0  0  0  0
  5  1  2  0  0  0  0
  6  1  1  0  0  0  0
  7 11  1  0  0  0  0
  7  4  1  0  0  0  0
  8  4  2  0  0  0  0
  9  7  2  0  0  0  0
 10  3  2  0  0  0  0
 10 11  1  0  0  0  0
 11  2  2  0  0  0  0
 13 35  1  0  0  0  0
 14 13  2  0  0  0  0
 15 12  2  0  0  0  0
 16 18  2  0  0  0  0
 16  3  1  0  0  0  0
 17 16  1  0  0  0  0
 19 17  1  0  0  0  0
 20 19  2  0  0  0  0
 21 19  1  0  0  0  0
 22 25  1  0  0  0  0
 22 21  1  0  0  0  0
 23 28  1  0  0  0  0
 24 29  1  6  0  0  0
 24 27  1  0  0  0  0
 24 26  1  0  0  0  0
 26 23  1  6  0  0  0
 26 22  1  0  0  0  0
 27 26  1  0  0  0  0
 28 25  1  0  0  0  0
 31 33  2  0  0  0  0
 32 31  1  1  0  0  0
 32 34  1  0  0  0  0
 32 30  1  0  0  0  0
 33 29  1  0  0  0  0
 34 30  1  1  0  0  0
 34 29  1  0  0  0  0
 35 40  1  0  0  0  0
 36 37  1  0  0  0  0
 37 41  2  0  0  0  0
 37 43  1  0  0  0  0
 38 41  1  0  0  0  0
 39 40  1  0  0  0  0
 39 36  2  0  0  0  0
 40 38  2  0  0  0  0
 42 43  1  0  0  0  0
M  END
>  <MODEL>
2

>  <REMARK>
 VINA RESULT:      -8.9      4.895      9.111
  Name = 
  7 active torsions:
  status: ('A' for Active; 'I' for Inactive)
    1  A    between atoms: O_1  and  C_34
    2  A    between atoms: O_1  and  C_35
    3  A    between atoms: C_2  and  C_13
    4  A    between atoms: C_3  and  N_4
    5  A    between atoms: C_3  and  C_12
    6  A    between atoms: N_11  and  C_14
    7  A    between atoms: C_19  and  C_37
                            x       y       z     vdW  Elec       q    Type
                         _______ _______ _______ _____ _____    ______ ____

>  <TORSDO>
F 7

$$$$
=
 OpenBabel11052411363D

 43 50  0  0  1  0  0  0  0  0999 V2000
  160.4520  208.1560  155.0960 C   0  0  0  0  0  0  0  0  0  0  0  0
  162.1360  207.8900  150.3260 C   0  0  0  0  0  0  0  0  0  0  0  0
  161.7770  210.4410  149.1940 C   0  0  0  0  0  0  0  0  0  0  0  0
  161.3760  207.3990  152.9890 C   0  0  0  0  0  0  0  0  0  0  0  0
  160.2790  209.4370  154.5670 C   0  0  0  0  0  3  0  0  0  0  0  0
  160.0780  207.8930  156.4070 O   0  0  0  0  0  1  0  0  0  0  0  0
  161.2030  208.6950  152.4420 C   0  0  0  0  0  0  0  0  0  0  0  0
  160.9990  207.1400  154.3100 C   0  0  0  0  0  3  0  0  0  0  0  0
  160.6520  209.7060  153.2480 C   0  0  0  0  0  3  0  0  0  0  0  0
  161.4120  210.2050  150.5230 C   0  0  0  0  0  3  0  0  0  0  0  0
  161.5810  208.9390  151.1040 C   0  0  0  0  0  0  0  0  0  0  0  0
  162.2980  206.6190  150.8940 C   0  0  0  0  0  3  0  0  0  0  0  0
  162.5220  208.1240  148.9950 C   0  0  0  0  0  0  0  0  0  0  0  0
  162.3280  209.3970  148.4410 C   0  0  0  0  0  3  0  0  0  0  0  0
  161.9190  206.3760  152.2140 C   0  0  0  0  0  3  0  0  0  0  0  0
  161.5780  211.7700  148.5920 C   0  0  0  0  0  0  0  0  0  0  0  0
  161.3330  211.8840  147.1830 N   0  0  0  0  0  2  0  0  0  0  0  0
  161.6260  212.8010  149.3170 O   0  0  0  0  0  0  0  0  0  0  0  0
  161.1680  213.1140  146.4700 C   0  0  0  0  0  0  0  0  0  0  0  0
  161.2500  214.2260  147.0600 O   0  0  0  0  0  0  0  0  0  0  0  0
  160.8710  213.0770  145.0130 C   0  0  0  0  0  2  0  0  0  0  0  0
  162.0790  212.7360  144.2730 N   0  0  0  0  0  0  0  0  0  0  0  0
  162.5630  214.1780  142.3200 C   0  0  0  0  0  2  0  0  0  0  0  0
  160.7930  212.1830  142.1450 C   0  0  2  0  0  3  0  0  0  0  0  0
  163.0800  213.7330  144.6480 C   0  0  0  0  0  2  0  0  0  0  0  0
  161.8270  212.9820  142.8590 C   0  0  2  0  0  0  0  0  0  0  0  0
  162.1590  211.8380  142.1110 O   0  0  0  0  0  0  0  0  0  0  0  0
  163.5880  214.4400  143.3930 C   0  0  0  0  0  2  0  0  0  0  0  0
  160.4130  212.8240  140.8870 N   0  0  0  0  0  0  0  0  0  0  0  0
  159.9110  210.6100  139.8150 C   0  0  0  0  0  2  0  0  0  0  0  0
  158.3460  212.5300  139.6850 C   0  0  0  0  0  3  0  0  0  0  0  0
  159.4190  211.7560  138.9530 C   0  0  1  0  0  3  0  0  0  0  0  0
  158.9820  213.1060  140.9300 C   0  0  0  0  0  3  0  0  0  0  0  0
  160.6930  211.9210  139.7580 C   0  0  1  0  0  3  0  0  0  0  0  0
  163.0610  207.0660  148.2380 O   0  0  0  0  0  0  0  0  0  0  0  0
  162.2040  204.3030  145.8800 C   0  0  0  0  0  3  0  0  0  0  0  0
  160.8990  204.6650  145.5340 C   0  0  0  0  0  0  0  0  0  0  0  0
  161.0630  206.6080  146.9730 C   0  0  0  0  0  3  0  0  0  0  0  0
  162.9350  205.0920  146.7710 C   0  0  0  0  0  3  0  0  0  0  0  0
  162.3730  206.2570  147.3190 C   0  0  0  0  0  0  0  0  0  0  0  0
  160.3300  205.8210  146.0780 C   0  0  0  0  0  3  0  0  0  0  0  0
  160.2720  202.4880  144.8870 O   0  0  0  0  0  1  0  0  0  0  0  0
  160.1270  203.8380  144.5690 C   0  0  0  0  0  2  0  0  0  0  0  0
  1  6  1  0  0  0  0
  2 12  1  0  0  0  0
  2 11  1  0  0  0  0
  3 10  1  0  0  0  0
  4  8  1  0  0  0  0
  5  1  1  0  0  0  0
  7  4  2  0  0  0  0
  7  9  1  0  0  0  0
  8  1  2  0  0  0  0
  9  5  2  0  0  0  0
 10 11  2  0  0  0  0
 11  7  1  0  0  0  0
 12 15  2  0  0  0  0
 13  2  2  0  0  0  0
 14 13  1  0  0  0  0
 14  3  2  0  0  0  0
 15  4  1  0  0  0  0
 16  3  1  0  0  0  0
 16 18  2  0  0  0  0
 17 16  1  0  0  0  0
 19 20  2  0  0  0  0
 19 17  1  0  0  0  0
 21 19  1  0  0  0  0
 22 25  1  0  0  0  0
 22 21  1  0  0  0  0
 23 28  1  0  0  0  0
 24 29  1  6  0  0  0
 24 26  1  0  0  0  0
 26 23  1  6  0  0  0
 26 22  1  0  0  0  0
 27 24  1  0  0  0  0
 27 26  1  0  0  0  0
 28 25  1  0  0  0  0
 29 33  1  0  0  0  0
 31 33  2  0  0  0  0
 32 31  1  1  0  0  0
 32 34  1  0  0  0  0
 32 30  1  0  0  0  0
 34 30  1  1  0  0  0
 34 29  1  0  0  0  0
 35 13  1  0  0  0  0
 36 39  1  0  0  0  0
 37 36  2  0  0  0  0
 37 41  1  0  0  0  0
 38 40  1  0  0  0  0
 39 40  2  0  0  0  0
 40 35  1  0  0  0  0
 41 38  2  0  0  0  0
 43 42  1  0  0  0  0
 43 37  1  0  0  0  0
M  END
>  <MODEL>
3

>  <REMARK>
 VINA RESULT:      -8.4      4.907      9.910
  Name = 
  7 active torsions:
  status: ('A' for Active; 'I' for Inactive)
    1  A    between atoms: O_1  and  C_34
    2  A    between atoms: O_1  and  C_35
    3  A    between atoms: C_2  and  C_13
    4  A    between atoms: C_3  and  N_4
    5  A    between atoms: C_3  and  C_12
    6  A    between atoms: N_11  and  C_14
    7  A    between atoms: C_19  and  C_37
                            x       y       z     vdW  Elec       q    Type
                         _______ _______ _______ _____ _____    ______ ____

>  <TORSDO>
F 7

$$$$
=
 OpenBabel11052411363D

 43 50  0  0  1  0  0  0  0  0999 V2000
  161.5040  204.1710  146.5270 C   0  0  0  0  0  0  0  0  0  0  0  0
  161.5710  207.5300  150.3190 C   0  0  0  0  0  0  0  0  0  0  0  0
  161.8860  210.0700  149.1490 C   0  0  0  0  0  0  0  0  0  0  0  0
  161.4660  205.2280  148.7060 C   0  0  0  0  0  0  0  0  0  0  0  0
  161.6410  205.4200  145.9170 C   0  0  0  0  0  3  0  0  0  0  0  0
  161.4550  203.0230  145.7490 O   0  0  0  0  0  1  0  0  0  0  0  0
  161.6070  206.5000  148.0980 C   0  0  0  0  0  0  0  0  0  0  0  0
  161.4160  204.0750  147.9180 C   0  0  0  0  0  3  0  0  0  0  0  0
  161.6930  206.5780  146.6970 C   0  0  0  0  0  3  0  0  0  0  0  0
  161.8190  208.9290  148.3420 C   0  0  0  0  0  3  0  0  0  0  0  0
  161.6640  207.6540  148.9080 C   0  0  0  0  0  0  0  0  0  0  0  0
  161.4300  206.2600  150.8930 C   0  0  0  0  0  3  0  0  0  0  0  0
  161.6210  208.6730  151.1350 C   0  0  0  0  0  0  0  0  0  0  0  0
  161.7880  209.9320  150.5380 C   0  0  0  0  0  3  0  0  0  0  0  0
  161.3790  205.1190  150.0940 C   0  0  0  0  0  3  0  0  0  0  0  0
  162.0650  211.4000  148.5430 C   0  0  0  0  0  0  0  0  0  0  0  0
  161.6120  211.6390  147.2030 N   0  0  0  0  0  2  0  0  0  0  0  0
  162.6170  212.3220  149.2040 O   0  0  0  0  0  0  0  0  0  0  0  0
  161.7650  212.8690  146.4860 C   0  0  0  0  0  0  0  0  0  0  0  0
  162.3510  213.8570  147.0050 O   0  0  0  0  0  0  0  0  0  0  0  0
  161.2010  212.9870  145.1150 C   0  0  0  0  0  2  0  0  0  0  0  0
  162.2300  212.6780  144.1310 N   0  0  0  0  0  0  0  0  0  0  0  0
  162.4200  214.2870  142.2590 C   0  0  0  0  0  2  0  0  0  0  0  0
  160.5420  212.3850  142.2450 C   0  0  2  0  0  3  0  0  0  0  0  0
  163.3360  213.5950  144.3970 C   0  0  0  0  0  2  0  0  0  0  0  0
  161.7330  213.0710  142.8190 C   0  0  2  0  0  0  0  0  0  0  0  0
  161.8570  211.9960  141.9210 O   0  0  0  0  0  0  0  0  0  0  0  0
  163.6390  214.4040  143.1380 C   0  0  0  0  0  2  0  0  0  0  0  0
  159.9700  213.1610  141.1460 N   0  0  0  0  0  0  0  0  0  0  0  0
  159.3920  211.0780  139.8680 C   0  0  0  0  0  2  0  0  0  0  0  0
  157.7660  212.9210  140.2050 C   0  0  0  0  0  3  0  0  0  0  0  0
  158.7490  212.2990  139.2400 C   0  0  1  0  0  3  0  0  0  0  0  0
  158.5520  213.3640  141.4180 C   0  0  0  0  0  3  0  0  0  0  0  0
  160.1170  212.4230  139.8800 C   0  0  1  0  0  3  0  0  0  0  0  0
  161.5380  208.5260  152.5320 O   0  0  0  0  0  0  0  0  0  0  0  0
  159.1690  211.0770  153.8780 C   0  0  0  0  0  3  0  0  0  0  0  0
  159.1360  210.7010  155.2250 C   0  0  0  0  0  0  0  0  0  0  0  0
  160.6990  208.9100  154.7570 C   0  0  0  0  0  3  0  0  0  0  0  0
  159.9650  210.3680  152.9750 C   0  0  0  0  0  3  0  0  0  0  0  0
  160.7440  209.2830  153.4090 C   0  0  0  0  0  0  0  0  0  0  0  0
  159.9060  209.6200  155.6640 C   0  0  0  0  0  3  0  0  0  0  0  0
  157.0040  211.5800  155.7060 O   0  0  0  0  0  1  0  0  0  0  0  0
  158.3060  211.4680  156.1910 C   0  0  0  0  0  2  0  0  0  0  0  0
  1  8  1  0  0  0  0
  2 12  1  0  0  0  0
  2 13  1  0  0  0  0
  3 14  1  0  0  0  0
  4 15  1  0  0  0  0
  5  1  2  0  0  0  0
  5  9  1  0  0  0  0
  6  1  1  0  0  0  0
  7  4  1  0  0  0  0
  7 11  1  0  0  0  0
  8  4  2  0  0  0  0
  9  7  2  0  0  0  0
 10 11  1  0  0  0  0
 10  3  2  0  0  0  0
 11  2  2  0  0  0  0
 13 35  1  0  0  0  0
 14 13  2  0  0  0  0
 15 12  2  0  0  0  0
 16  3  1  0  0  0  0
 16 18  2  0  0  0  0
 17 16  1  0  0  0  0
 19 20  2  0  0  0  0
 19 17  1  0  0  0  0
 21 19  1  0  0  0  0
 22 25  1  0  0  0  0
 22 21  1  0  0  0  0
 23 28  1  0  0  0  0
 24 29  1  6  0  0  0
 24 26  1  0  0  0  0
 26 23  1  6  0  0  0
 26 22  1  0  0  0  0
 27 24  1  0  0  0  0
 27 26  1  0  0  0  0
 28 25  1  0  0  0  0
 29 33  1  0  0  0  0
 31 33  2  0  0  0  0
 32 30  1  1  0  0  0
 32 34  1  0  0  0  0
 32 31  1  0  0  0  0
 34 30  1  1  0  0  0
 34 29  1  0  0  0  0
 35 40  1  0  0  0  0
 36 37  1  0  0  0  0
 37 41  2  0  0  0  0
 37 43  1  0  0  0  0
 38 41  1  0  0  0  0
 39 40  1  0  0  0  0
 39 36  2  0  0  0  0
 40 38  2  0  0  0  0
 42 43  1  0  0  0  0
M  END
>  <MODEL>
4

>  <REMARK>
 VINA RESULT:      -8.2      4.948      8.776
  Name = 
  7 active torsions:
  status: ('A' for Active; 'I' for Inactive)
    1  A    between atoms: O_1  and  C_34
    2  A    between atoms: O_1  and  C_35
    3  A    between atoms: C_2  and  C_13
    4  A    between atoms: C_3  and  N_4
    5  A    between atoms: C_3  and  C_12
    6  A    between atoms: N_11  and  C_14
    7  A    between atoms: C_19  and  C_37
                            x       y       z     vdW  Elec       q    Type
                         _______ _______ _______ _____ _____    ______ ____

>  <TORSDO>
F 7

$$$$
=
 OpenBabel11052411363D

 43 50  0  0  1  0  0  0  0  0999 V2000
  160.4880  207.7180  155.3150 C   0  0  0  0  0  0  0  0  0  0  0  0
  162.1310  207.4090  150.5330 C   0  0  0  0  0  0  0  0  0  0  0  0
  161.9740  210.0010  149.4500 C   0  0  0  0  0  0  0  0  0  0  0  0
  161.3420  206.9300  153.1890 C   0  0  0  0  0  0  0  0  0  0  0  0
  160.4170  209.0190  154.8110 C   0  0  0  0  0  3  0  0  0  0  0  0
  160.0990  207.4610  156.6220 O   0  0  0  0  0  1  0  0  0  0  0  0
  161.2720  208.2450  152.6670 C   0  0  0  0  0  0  0  0  0  0  0  0
  160.9500  206.6770  154.5070 C   0  0  0  0  0  3  0  0  0  0  0  0
  160.8060  209.2820  153.4950 C   0  0  0  0  0  3  0  0  0  0  0  0
  161.5940  209.7700  150.7760 C   0  0  0  0  0  3  0  0  0  0  0  0
  161.6640  208.4850  151.3330 C   0  0  0  0  0  0  0  0  0  0  0  0
  162.1920  206.1180  151.0760 C   0  0  0  0  0  3  0  0  0  0  0  0
  162.5300  207.6360  149.2040 C   0  0  0  0  0  0  0  0  0  0  0  0
  162.4360  208.9320  148.6750 C   0  0  0  0  0  3  0  0  0  0  0  0
  161.8000  205.8810  152.3930 C   0  0  0  0  0  3  0  0  0  0  0  0
  161.8800  211.3530  148.8740 C   0  0  0  0  0  0  0  0  0  0  0  0
  160.8000  212.2180  149.2570 N   0  0  0  0  0  2  0  0  0  0  0  0
  162.7470  211.7440  148.0450 O   0  0  0  0  0  0  0  0  0  0  0  0
  160.5710  213.5320  148.7390 C   0  0  0  0  0  0  0  0  0  0  0  0
  161.3270  214.0280  147.8600 O   0  0  0  0  0  0  0  0  0  0  0  0
  159.4340  214.3340  149.2660 C   0  0  0  0  0  2  0  0  0  0  0  0
  158.2820  213.4690  149.4850 N   0  0  0  0  0  0  0  0  0  0  0  0
  156.5460  214.3830  150.9950 C   0  0  0  0  0  2  0  0  0  0  0  0
  158.7500  213.2350  151.9780 C   0  0  2  0  0  3  0  0  0  0  0  0
  157.1950  214.0280  148.6840 C   0  0  0  0  0  2  0  0  0  0  0  0
  157.8460  213.6370  150.8650 C   0  0  2  0  0  0  0  0  0  0  0  0
  157.7410  212.3810  151.4890 O   0  0  0  0  0  0  0  0  0  0  0  0
  156.0050  214.3380  149.5880 C   0  0  0  0  0  2  0  0  0  0  0  0
  158.3220  213.8320  153.2420 N   0  0  0  0  0  0  0  0  0  0  0  0
  157.7440  211.5860  154.2040 C   0  0  0  0  0  2  0  0  0  0  0  0
  159.0960  213.2520  155.4480 C   0  0  0  0  0  3  0  0  0  0  0  0
  157.7170  212.6590  155.2740 C   0  0  1  0  0  3  0  0  0  0  0  0
  159.4750  213.8960  154.1340 C   0  0  0  0  0  3  0  0  0  0  0  0
  157.2780  213.0000  153.8630 C   0  0  1  0  0  3  0  0  0  0  0  0
  162.9800  206.5530  148.4250 O   0  0  0  0  0  0  0  0  0  0  0  0
  160.3140  205.6120  145.9890 C   0  0  0  0  0  3  0  0  0  0  0  0
  160.8900  204.4730  145.4170 C   0  0  0  0  0  0  0  0  0  0  0  0
  162.8210  204.7330  146.8570 C   0  0  0  0  0  3  0  0  0  0  0  0
  160.9940  206.3090  146.9910 C   0  0  0  0  0  3  0  0  0  0  0  0
  162.2510  205.8690  147.4400 C   0  0  0  0  0  0  0  0  0  0  0  0
  162.1420  204.0310  145.8550 C   0  0  0  0  0  3  0  0  0  0  0  0
  159.8980  202.4230  144.8130 O   0  0  0  0  0  1  0  0  0  0  0  0
  160.1590  203.7170  144.3650 C   0  0  0  0  0  2  0  0  0  0  0  0
  1  6  1  0  0  0  0
  2 12  1  0  0  0  0
  2 11  1  0  0  0  0
  3 10  1  0  0  0  0
  4  8  1  0  0  0  0
  5  1  1  0  0  0  0
  7  4  2  0  0  0  0
  7  9  1  0  0  0  0
  8  1  2  0  0  0  0
  9  5  2  0  0  0  0
 10 11  2  0  0  0  0
 11  7  1  0  0  0  0
 12 15  2  0  0  0  0
 13  2  2  0  0  0  0
 14 13  1  0  0  0  0
 14  3  2  0  0  0  0
 15  4  1  0  0  0  0
 16 17  1  0  0  0  0
 16  3  1  0  0  0  0
 18 16  2  0  0  0  0
 19 17  1  0  0  0  0
 19 21  1  0  0  0  0
 20 19  2  0  0  0  0
 21 22  1  0  0  0  0
 22 26  1  0  0  0  0
 24 29  1  1  0  0  0
 25 22  1  0  0  0  0
 25 28  1  0  0  0  0
 26 23  1  1  0  0  0
 26 27  1  0  0  0  0
 26 24  1  0  0  0  0
 27 24  1  0  0  0  0
 28 23  1  0  0  0  0
 29 34  1  0  0  0  0
 29 33  1  0  0  0  0
 32 30  1  6  0  0  0
 32 31  1  0  0  0  0
 33 31  2  0  0  0  0
 34 30  1  6  0  0  0
 34 32  1  0  0  0  0
 35 13  1  0  0  0  0
 36 39  1  0  0  0  0
 37 41  1  0  0  0  0
 37 36  2  0  0  0  0
 38 40  1  0  0  0  0
 39 40  2  0  0  0  0
 40 35  1  0  0  0  0
 41 38  2  0  0  0  0
 43 42  1  0  0  0  0
 43 37  1  0  0  0  0
M  END
>  <MODEL>
5

>  <REMARK>
 VINA RESULT:      -7.7      2.248      7.033
  Name = 
  7 active torsions:
  status: ('A' for Active; 'I' for Inactive)
    1  A    between atoms: O_1  and  C_34
    2  A    between atoms: O_1  and  C_35
    3  A    between atoms: C_2  and  C_13
    4  A    between atoms: C_3  and  N_4
    5  A    between atoms: C_3  and  C_12
    6  A    between atoms: N_11  and  C_14
    7  A    between atoms: C_19  and  C_37
                            x       y       z     vdW  Elec       q    Type
                         _______ _______ _______ _____ _____    ______ ____

>  <TORSDO>
F 7

$$$$
=
 OpenBabel11052411363D

 43 50  0  0  1  0  0  0  0  0999 V2000
  161.3530  204.1110  146.0560 C   0  0  0  0  0  0  0  0  0  0  0  0
  161.4850  206.8820  150.2940 C   0  0  0  0  0  0  0  0  0  0  0  0
  161.7940  209.5650  149.5020 C   0  0  0  0  0  0  0  0  0  0  0  0
  161.3490  204.8400  148.3660 C   0  0  0  0  0  0  0  0  0  0  0  0
  161.4870  205.4350  145.6320 C   0  0  0  0  0  3  0  0  0  0  0  0
  161.2890  203.0880  145.1200 O   0  0  0  0  0  1  0  0  0  0  0  0
  161.4870  206.1860  147.9470 C   0  0  0  0  0  0  0  0  0  0  0  0
  161.2830  203.8140  147.4190 C   0  0  0  0  0  3  0  0  0  0  0  0
  161.5540  206.4680  146.5710 C   0  0  0  0  0  3  0  0  0  0  0  0
  161.7110  208.5540  148.5390 C   0  0  0  0  0  3  0  0  0  0  0  0
  161.5590  207.2110  148.9150 C   0  0  0  0  0  0  0  0  0  0  0  0
  161.3460  205.5420  150.6800 C   0  0  0  0  0  3  0  0  0  0  0  0
  161.5500  207.8950  151.2670 C   0  0  0  0  0  0  0  0  0  0  0  0
  161.7140  209.2260  150.8570 C   0  0  0  0  0  3  0  0  0  0  0  0
  161.2800  204.5300  149.7240 C   0  0  0  0  0  3  0  0  0  0  0  0
  161.9700  210.9680  149.0930 C   0  0  0  0  0  0  0  0  0  0  0  0
  160.8660  211.8800  149.1820 N   0  0  0  0  0  2  0  0  0  0  0  0
  163.0900  211.3620  148.6660 O   0  0  0  0  0  0  0  0  0  0  0  0
  160.8930  213.2530  148.7770 C   0  0  0  0  0  0  0  0  0  0  0  0
  161.9310  213.7650  148.2770 O   0  0  0  0  0  0  0  0  0  0  0  0
  159.6810  214.0940  148.9730 C   0  0  0  0  0  2  0  0  0  0  0  0
  158.5200  213.2400  149.1930 N   0  0  0  0  0  0  0  0  0  0  0  0
  156.6370  214.3070  150.3930 C   0  0  0  0  0  2  0  0  0  0  0  0
  158.7430  213.3460  151.7280 C   0  0  2  0  0  3  0  0  0  0  0  0
  157.5130  213.6660  148.2240 C   0  0  0  0  0  2  0  0  0  0  0  0
  157.9500  213.5790  150.4900 C   0  0  2  0  0  0  0  0  0  0  0  0
  157.7950  212.4140  151.2610 O   0  0  0  0  0  0  0  0  0  0  0  0
  156.2370  214.0660  148.9600 C   0  0  0  0  0  2  0  0  0  0  0  0
  158.1880  214.0940  152.8550 N   0  0  0  0  0  0  0  0  0  0  0  0
  157.8320  211.9940  154.1830 C   0  0  0  0  0  2  0  0  0  0  0  0
  158.9180  214.0040  155.1480 C   0  0  0  0  0  3  0  0  0  0  0  0
  157.6280  213.2240  155.0450 C   0  0  1  0  0  3  0  0  0  0  0  0
  159.2810  214.4530  153.7510 C   0  0  0  0  0  3  0  0  0  0  0  0
  157.2200  213.2590  153.5850 C   0  0  1  0  0  3  0  0  0  0  0  0
  161.4850  207.5460  152.6290 O   0  0  0  0  0  0  0  0  0  0  0  0
  160.6340  210.5600  154.6590 C   0  0  0  0  0  3  0  0  0  0  0  0
  160.9240  210.0870  155.9420 C   0  0  0  0  0  0  0  0  0  0  0  0
  161.5890  207.9560  155.0000 C   0  0  0  0  0  3  0  0  0  0  0  0
  160.8200  209.7310  153.5510 C   0  0  0  0  0  3  0  0  0  0  0  0
  161.3070  208.4230  153.7120 C   0  0  0  0  0  0  0  0  0  0  0  0
  161.4060  208.7860  156.1120 C   0  0  0  0  0  3  0  0  0  0  0  0
  159.5120  211.6200  157.0420 O   0  0  0  0  0  1  0  0  0  0  0  0
  160.7470  210.9760  157.1210 C   0  0  0  0  0  2  0  0  0  0  0  0
  1  8  1  0  0  0  0
  2 12  1  0  0  0  0
  2 13  1  0  0  0  0
  3 14  1  0  0  0  0
  4 15  1  0  0  0  0
  5  1  2  0  0  0  0
  5  9  1  0  0  0  0
  6  1  1  0  0  0  0
  7  4  1  0  0  0  0
  7 11  1  0  0  0  0
  8  4  2  0  0  0  0
  9  7  2  0  0  0  0
 10 11  1  0  0  0  0
 10  3  2  0  0  0  0
 11  2  2  0  0  0  0
 13 35  1  0  0  0  0
 14 13  2  0  0  0  0
 15 12  2  0  0  0  0
 16 17  1  0  0  0  0
 16  3  1  0  0  0  0
 18 16  2  0  0  0  0
 19 21  1  0  0  0  0
 19 17  1  0  0  0  0
 20 19  2  0  0  0  0
 21 22  1  0  0  0  0
 22 26  1  0  0  0  0
 24 29  1  1  0  0  0
 25 28  1  0  0  0  0
 25 22  1  0  0  0  0
 26 23  1  1  0  0  0
 26 27  1  0  0  0  0
 26 24  1  0  0  0  0
 27 24  1  0  0  0  0
 28 23  1  0  0  0  0
 29 34  1  0  0  0  0
 29 33  1  0  0  0  0
 32 30  1  6  0  0  0
 32 31  1  0  0  0  0
 33 31  2  0  0  0  0
 34 30  1  6  0  0  0
 34 32  1  0  0  0  0
 35 40  1  0  0  0  0
 36 37  1  0  0  0  0
 37 41  2  0  0  0  0
 37 43  1  0  0  0  0
 38 41  1  0  0  0  0
 39 40  1  0  0  0  0
 39 36  2  0  0  0  0
 40 38  2  0  0  0  0
 42 43  1  0  0  0  0
M  END
>  <MODEL>
6

>  <REMARK>
 VINA RESULT:      -7.3      2.135      5.512
  Name = 
  7 active torsions:
  status: ('A' for Active; 'I' for Inactive)
    1  A    between atoms: O_1  and  C_34
    2  A    between atoms: O_1  and  C_35
    3  A    between atoms: C_2  and  C_13
    4  A    between atoms: C_3  and  N_4
    5  A    between atoms: C_3  and  C_12
    6  A    between atoms: N_11  and  C_14
    7  A    between atoms: C_19  and  C_37
                            x       y       z     vdW  Elec       q    Type
                         _______ _______ _______ _____ _____    ______ ____

>  <TORSDO>
F 7

$$$$
=
 OpenBabel11052411363D

 43 50  0  0  1  0  0  0  0  0999 V2000
  162.2400  213.3030  146.8310 C   0  0  0  0  0  0  0  0  0  0  0  0
  159.9680  212.7520  151.3260 C   0  0  0  0  0  0  0  0  0  0  0  0
  160.7950  210.2670  152.3550 C   0  0  0  0  0  0  0  0  0  0  0  0
  160.8990  213.6320  148.8220 C   0  0  0  0  0  0  0  0  0  0  0  0
  162.6820  212.0740  147.3250 C   0  0  0  0  0  3  0  0  0  0  0  0
  162.6830  213.7520  145.5960 O   0  0  0  0  0  1  0  0  0  0  0  0
  161.3400  212.3860  149.3320 C   0  0  0  0  0  0  0  0  0  0  0  0
  161.3510  214.0800  147.5780 C   0  0  0  0  0  3  0  0  0  0  0  0
  162.2360  211.6160  148.5680 C   0  0  0  0  0  3  0  0  0  0  0  0
  161.2730  210.7080  151.1170 C   0  0  0  0  0  3  0  0  0  0  0  0
  160.8700  211.9420  150.5860 C   0  0  0  0  0  0  0  0  0  0  0  0
  159.5500  213.9810  150.7990 C   0  0  0  0  0  3  0  0  0  0  0  0
  159.4970  212.3240  152.5790 C   0  0  0  0  0  0  0  0  0  0  0  0
  159.9110  211.0780  153.0750 C   0  0  0  0  0  3  0  0  0  0  0  0
  160.0110  214.4160  149.5570 C   0  0  0  0  0  3  0  0  0  0  0  0
  161.2140  208.9620  152.8920 C   0  0  0  0  0  0  0  0  0  0  0  0
  161.4950  207.8790  151.9940 N   0  0  0  0  0  2  0  0  0  0  0  0
  161.3210  208.8000  154.1390 O   0  0  0  0  0  0  0  0  0  0  0  0
  161.8660  206.5540  152.3880 C   0  0  0  0  0  0  0  0  0  0  0  0
  161.9540  206.2360  153.6050 O   0  0  0  0  0  0  0  0  0  0  0  0
  162.1750  205.5430  151.3410 C   0  0  0  0  0  2  0  0  0  0  0  0
  160.9580  204.8320  150.9690 N   0  0  0  0  0  0  0  0  0  0  0  0
  161.3020  202.7820  149.6250 C   0  0  0  0  0  2  0  0  0  0  0  0
  161.3370  205.1940  148.4760 C   0  0  2  0  0  3  0  0  0  0  0  0
  160.8840  203.6650  151.8460 C   0  0  0  0  0  2  0  0  0  0  0  0
  161.1480  204.2780  149.6350 C   0  0  2  0  0  0  0  0  0  0  0  0
  160.0770  204.6550  148.8050 O   0  0  0  0  0  0  0  0  0  0  0  0
  160.8150  202.3970  150.9990 C   0  0  0  0  0  2  0  0  0  0  0  0
  161.8970  204.4800  147.3300 N   0  0  0  0  0  0  0  0  0  0  0  0
  160.5500  205.8510  145.7140 C   0  0  0  0  0  2  0  0  0  0  0  0
  162.9810  205.4550  145.4120 C   0  0  0  0  0  3  0  0  0  0  0  0
  161.5950  205.0250  144.9890 C   0  0  1  0  0  3  0  0  0  0  0  0
  163.0990  205.1820  146.8950 C   0  0  0  0  0  3  0  0  0  0  0  0
  160.9230  204.4610  146.2260 C   0  0  1  0  0  3  0  0  0  0  0  0
  158.5950  213.1370  153.2910 O   0  0  0  0  0  0  0  0  0  0  0  0
  156.6050  213.0150  156.4460 C   0  0  0  0  0  3  0  0  0  0  0  0
  155.8580  211.8540  156.2240 C   0  0  0  0  0  0  0  0  0  0  0  0
  156.9490  211.5670  154.0800 C   0  0  0  0  0  3  0  0  0  0  0  0
  157.5200  213.4490  155.4840 C   0  0  0  0  0  3  0  0  0  0  0  0
  157.7060  212.7230  154.2950 C   0  0  0  0  0  0  0  0  0  0  0  0
  156.0340  211.1270  155.0430 C   0  0  0  0  0  3  0  0  0  0  0  0
  154.2750  210.2120  156.8150 O   0  0  0  0  0  1  0  0  0  0  0  0
  154.8990  211.3780  157.2560 C   0  0  0  0  0  2  0  0  0  0  0  0
  1  5  2  0  0  0  0
  1  8  1  0  0  0  0
  2 13  1  0  0  0  0
  3 16  1  0  0  0  0
  3 14  1  0  0  0  0
  4  7  1  0  0  0  0
  4 15  1  0  0  0  0
  5  9  1  0  0  0  0
  6  1  1  0  0  0  0
  7 11  1  0  0  0  0
  8  4  2  0  0  0  0
  9  7  2  0  0  0  0
 10  3  2  0  0  0  0
 11 10  1  0  0  0  0
 11  2  2  0  0  0  0
 12  2  1  0  0  0  0
 13 14  2  0  0  0  0
 13 35  1  0  0  0  0
 15 12  2  0  0  0  0
 16 18  2  0  0  0  0
 17 19  1  0  0  0  0
 17 16  1  0  0  0  0
 19 20  2  0  0  0  0
 21 19  1  0  0  0  0
 22 21  1  0  0  0  0
 22 25  1  0  0  0  0
 23 28  1  0  0  0  0
 24 29  1  6  0  0  0
 24 27  1  0  0  0  0
 24 26  1  0  0  0  0
 26 23  1  6  0  0  0
 26 22  1  0  0  0  0
 27 26  1  0  0  0  0
 28 25  1  0  0  0  0
 31 33  2  0  0  0  0
 32 31  1  1  0  0  0
 32 30  1  0  0  0  0
 32 34  1  0  0  0  0
 33 29  1  0  0  0  0
 34 30  1  1  0  0  0
 34 29  1  0  0  0  0
 35 40  1  0  0  0  0
 37 36  1  0  0  0  0
 37 43  1  0  0  0  0
 38 40  2  0  0  0  0
 38 41  1  0  0  0  0
 39 36  2  0  0  0  0
 40 39  1  0  0  0  0
 41 37  2  0  0  0  0
 42 43  1  0  0  0  0
M  END
>  <MODEL>
7

>  <REMARK>
 VINA RESULT:      -7.1      2.475      8.758
  Name = 
  7 active torsions:
  status: ('A' for Active; 'I' for Inactive)
    1  A    between atoms: O_1  and  C_34
    2  A    between atoms: O_1  and  C_35
    3  A    between atoms: C_2  and  C_13
    4  A    between atoms: C_3  and  N_4
    5  A    between atoms: C_3  and  C_12
    6  A    between atoms: N_11  and  C_14
    7  A    between atoms: C_19  and  C_37
                            x       y       z     vdW  Elec       q    Type
                         _______ _______ _______ _____ _____    ______ ____

>  <TORSDO>
F 7

$$$$
=
 OpenBabel11052411363D

 43 50  0  0  1  0  0  0  0  0999 V2000
  160.9190  203.3030  150.4230 C   0  0  0  0  0  0  0  0  0  0  0  0
  161.3560  208.0210  152.2140 C   0  0  0  0  0  0  0  0  0  0  0  0
  161.9630  209.6710  150.0170 C   0  0  0  0  0  0  0  0  0  0  0  0
  160.9940  205.2560  151.8540 C   0  0  0  0  0  0  0  0  0  0  0  0
  161.2010  204.1000  149.3110 C   0  0  0  0  0  3  0  0  0  0  0  0
  160.7430  201.9350  150.2670 O   0  0  0  0  0  1  0  0  0  0  0  0
  161.2830  206.0730  150.7330 C   0  0  0  0  0  0  0  0  0  0  0  0
  160.8160  203.8790  151.6910 C   0  0  0  0  0  3  0  0  0  0  0  0
  161.3820  205.4770  149.4630 C   0  0  0  0  0  3  0  0  0  0  0  0
  161.7690  208.2990  149.8310 C   0  0  0  0  0  3  0  0  0  0  0  0
  161.4680  207.4600  150.9150 C   0  0  0  0  0  0  0  0  0  0  0  0
  161.0680  207.1900  153.3040 C   0  0  0  0  0  3  0  0  0  0  0  0
  161.5330  209.4030  152.4060 C   0  0  0  0  0  0  0  0  0  0  0  0
  161.8450  210.2110  151.3030 C   0  0  0  0  0  3  0  0  0  0  0  0
  160.8900  205.8180  153.1260 C   0  0  0  0  0  3  0  0  0  0  0  0
  162.2950  210.5370  148.8730 C   0  0  0  0  0  0  0  0  0  0  0  0
  161.9080  211.9190  148.8900 N   0  0  0  0  0  2  0  0  0  0  0  0
  162.9160  210.0600  147.8840 O   0  0  0  0  0  0  0  0  0  0  0  0
  162.1310  212.8520  147.8270 C   0  0  0  0  0  0  0  0  0  0  0  0
  162.6890  212.4970  146.7540 O   0  0  0  0  0  0  0  0  0  0  0  0
  161.7160  214.2690  148.0050 C   0  0  0  0  0  2  0  0  0  0  0  0
  160.3290  214.4320  147.5890 N   0  0  0  0  0  0  0  0  0  0  0  0
  159.2800  212.4220  146.5970 C   0  0  0  0  0  2  0  0  0  0  0  0
  160.8630  214.0020  145.1360 C   0  0  2  0  0  3  0  0  0  0  0  0
  159.5180  213.7640  148.6040 C   0  0  0  0  0  2  0  0  0  0  0  0
  160.1250  213.6470  146.3790 C   0  0  2  0  0  0  0  0  0  0  0  0
  159.5500  214.4520  145.3790 O   0  0  0  0  0  0  0  0  0  0  0  0
  158.6530  212.6950  147.9410 C   0  0  0  0  0  2  0  0  0  0  0  0
  160.8380  212.8980  144.1780 N   0  0  0  0  0  0  0  0  0  0  0  0
  160.3090  214.4500  142.2770 C   0  0  0  0  0  2  0  0  0  0  0  0
  162.0960  212.7350  142.1300 C   0  0  0  0  0  3  0  0  0  0  0  0
  160.6670  213.0670  141.7680 C   0  0  1  0  0  3  0  0  0  0  0  0
  162.1830  212.7270  143.6390 C   0  0  0  0  0  3  0  0  0  0  0  0
  159.9130  213.2100  143.0760 C   0  0  1  0  0  3  0  0  0  0  0  0
  161.4280  209.9360  153.7040 O   0  0  0  0  0  0  0  0  0  0  0  0
  158.9060  210.9730  156.2520 C   0  0  0  0  0  3  0  0  0  0  0  0
  157.9540  211.5810  155.4280 C   0  0  0  0  0  0  0  0  0  0  0  0
  159.3160  211.0740  153.4900 C   0  0  0  0  0  3  0  0  0  0  0  0
  160.0600  210.4190  155.6940 C   0  0  0  0  0  3  0  0  0  0  0  0
  160.2710  210.4570  154.3050 C   0  0  0  0  0  0  0  0  0  0  0  0
  158.1580  211.6270  154.0460 C   0  0  0  0  0  3  0  0  0  0  0  0
  155.7300  211.1690  156.0860 O   0  0  0  0  0  1  0  0  0  0  0  0
  156.7150  212.1530  156.0190 C   0  0  0  0  0  2  0  0  0  0  0  0
  1  8  1  0  0  0  0
  2 13  1  0  0  0  0
  2 12  1  0  0  0  0
  3 14  1  0  0  0  0
  4 15  1  0  0  0  0
  5  9  1  0  0  0  0
  5  1  2  0  0  0  0
  6  1  1  0  0  0  0
  7 11  1  0  0  0  0
  7  4  1  0  0  0  0
  8  4  2  0  0  0  0
  9  7  2  0  0  0  0
 10  3  2  0  0  0  0
 10 11  1  0  0  0  0
 11  2  2  0  0  0  0
 13 35  1  0  0  0  0
 14 13  2  0  0  0  0
 15 12  2  0  0  0  0
 16 17  1  0  0  0  0
 16  3  1  0  0  0  0
 18 16  2  0  0  0  0
 19 21  1  0  0  0  0
 19 17  1  0  0  0  0
 20 19  2  0  0  0  0
 22 21  1  0  0  0  0
 22 25  1  0  0  0  0
 23 28  1  0  0  0  0
 24 29  1  6  0  0  0
 24 27  1  0  0  0  0
 24 26  1  0  0  0  0
 26 23  1  1  0  0  0
 26 22  1  0  0  0  0
 27 26  1  0  0  0  0
 28 25  1  0  0  0  0
 31 33  2  0  0  0  0
 32 31  1  1  0  0  0
 32 30  1  0  0  0  0
 32 34  1  0  0  0  0
 33 29  1  0  0  0  0
 34 30  1  1  0  0  0
 34 29  1  0  0  0  0
 35 40  1  0  0  0  0
 37 43  1  0  0  0  0
 37 36  2  0  0  0  0
 38 41  2  0  0  0  0
 38 40  1  0  0  0  0
 39 36  1  0  0  0  0
 40 39  2  0  0  0  0
 41 37  1  0  0  0  0
 43 42  1  0  0  0  0
M  END
>  <MODEL>
8

>  <REMARK>
 VINA RESULT:      -7.1      3.579      7.622
  Name = 
  7 active torsions:
  status: ('A' for Active; 'I' for Inactive)
    1  A    between atoms: O_1  and  C_34
    2  A    between atoms: O_1  and  C_35
    3  A    between atoms: C_2  and  C_13
    4  A    between atoms: C_3  and  N_4
    5  A    between atoms: C_3  and  C_12
    6  A    between atoms: N_11  and  C_14
    7  A    between atoms: C_19  and  C_37
                            x       y       z     vdW  Elec       q    Type
                         _______ _______ _______ _____ _____    ______ ____

>  <TORSDO>
F 7

$$$$
