=
 OpenBabel11052409353D

 44 48  0  0  1  0  0  0  0  0999 V2000
  159.1590  212.7200  153.0600 C   0  0  0  0  0  2  0  0  0  0  0  0
  157.4730  210.7070  155.9160 C   0  0  0  0  0  3  0  0  0  0  0  0
  161.5820  213.2130  149.6790 O   0  0  0  0  0  0  0  0  0  0  0  0
  160.2500  211.8490  151.0280 N   0  0  0  0  0  2  0  0  0  0  0  0
  161.1370  207.3790  151.6800 C   0  0  0  0  0  0  0  0  0  0  0  0
  162.8180  210.1590  149.9310 C   0  0  0  0  0  2  0  0  0  0  0  0
  162.9380  210.8080  154.9580 C   0  0  1  0  0  3  0  0  0  0  0  0
  163.4800  209.9220  152.8980 C   0  0  0  0  0  2  0  0  0  0  0  0
  161.1910  212.0520  149.9700 C   0  0  0  0  0  0  0  0  0  0  0  0
  159.4830  212.9550  151.5880 C   0  0  1  0  0  3  0  0  0  0  0  0
  158.4720  211.3840  153.3070 C   0  0  1  0  0  3  0  0  0  0  0  0
  158.2170  213.1800  150.7790 C   0  0  0  0  0  1  0  0  0  0  0  0
  160.4270  208.3870  156.0030 C   0  0  0  0  0  2  0  0  0  0  0  0
  159.7160  209.6350  156.5310 C   0  0  0  0  0  2  0  0  0  0  0  0
  162.6050  209.0140  152.1630 N   0  0  0  0  0  0  0  0  0  0  0  0
  162.7010  210.8860  153.5620 O   0  0  0  0  0  0  0  0  0  0  0  0
  161.8940  207.5820  154.1220 C   0  0  0  0  0  2  0  0  0  0  0  0
  161.9010  207.9790  152.6760 C   0  0  0  0  0  0  0  0  0  0  0  0
  158.8240  210.2950  155.5160 C   0  0  0  0  0  0  0  0  0  0  0  0
  159.2860  210.6140  154.3030 C   0  0  0  0  0  3  0  0  0  0  0  0
  161.4750  208.7650  154.9680 C   0  0  2  0  0  3  0  0  0  0  0  0
  162.6960  209.4270  155.5830 C   0  0  0  0  0  2  0  0  0  0  0  0
  161.7060  210.8900  149.1900 C   0  0  0  0  0  2  0  0  0  0  0  0
  162.2680  209.1210  150.8620 C   0  0  0  0  0  0  0  0  0  0  0  0
  157.1240  211.6010  153.7440 O   0  0  0  0  0  0  0  0  0  0  0  0
  161.3710  208.1230  150.5270 C   0  0  0  0  0  0  0  0  0  0  0  0
  156.6760  211.3370  155.0490 C   0  0  0  0  0  0  0  0  0  0  0  0
  155.3440  212.5160  156.5890 F   0  0  0  0  0  0  0  0  0  0  0  0
  154.6760  212.4320  154.4350 F   0  0  0  0  0  0  0  0  0  0  0  0
  154.5410  210.5950  155.7310 F   0  0  0  0  0  0  0  0  0  0  0  0
  155.2890  211.7250  155.4550 C   0  0  0  0  0  0  0  0  0  0  0  0
  160.4020  205.2930  150.8240 O   0  0  0  0  0  0  0  0  0  0  0  0
  160.9040  204.9550  152.0910 C   0  0  0  0  0  2  0  0  0  0  0  0
  160.1860  206.2310  151.8520 C   0  0  1  0  0  3  0  0  0  0  0  0
  160.8110  207.9620  149.2530 O   0  0  0  0  0  0  0  0  0  0  0  0
  161.4890  207.3510  148.1660 C   0  0  0  0  0  2  0  0  0  0  0  0
  160.6110  206.2790  147.5500 C   0  0  0  0  0  2  0  0  0  0  0  0
  161.2890  205.6590  146.5010 O   0  0  0  0  0  1  0  0  0  0  0  0
  164.3050  211.3620  155.3510 C   0  0  0  0  0  2  0  0  0  0  0  0
  164.3820  211.6270  156.8490 C   0  0  0  0  0  2  0  0  0  0  0  0
  165.7710  212.1070  157.2600 C   0  0  0  0  0  2  0  0  0  0  0  0
  166.4500  212.9040  156.1550 C   0  0  0  0  0  2  0  0  0  0  0  0
  167.8740  212.4200  155.9190 C   0  0  0  0  0  2  0  0  0  0  0  0
  168.4630  211.8650  157.2030 C   0  0  0  0  0  1  0  0  0  0  0  0
  3  9  2  0  0  0  0
  4 10  1  0  0  0  0
  5 18  2  0  0  0  0
  6 24  1  0  0  0  0
  7 39  1  6  0  0  0
  7 22  1  0  0  0  0
  8 16  1  0  0  0  0
  9  4  1  0  0  0  0
 10 12  1  6  0  0  0
 10  1  1  0  0  0  0
 11  1  1  1  0  0  0
 11 25  1  0  0  0  0
 11 20  1  0  0  0  0
 13 14  1  0  0  0  0
 15 18  1  0  0  0  0
 15  8  1  0  0  0  0
 16  7  1  0  0  0  0
 18 17  1  0  0  0  0
 19  2  1  0  0  0  0
 19 14  1  0  0  0  0
 20 19  2  0  0  0  0
 21 17  1  1  0  0  0
 21 22  1  0  0  0  0
 21 13  1  0  0  0  0
 23  6  1  0  0  0  0
 23  9  1  0  0  0  0
 24 15  1  0  0  0  0
 25 27  1  0  0  0  0
 26 24  2  0  0  0  0
 26  5  1  0  0  0  0
 27 31  1  0  0  0  0
 27  2  2  0  0  0  0
 29 31  1  0  0  0  0
 31 30  1  0  0  0  0
 31 28  1  0  0  0  0
 32 34  1  0  0  0  0
 32 33  1  0  0  0  0
 34  5  1  6  0  0  0
 34 33  1  0  0  0  0
 35 26  1  0  0  0  0
 36 35  1  0  0  0  0
 37 36  1  0  0  0  0
 38 37  1  0  0  0  0
 39 40  1  0  0  0  0
 40 41  1  0  0  0  0
 42 41  1  0  0  0  0
 43 42  1  0  0  0  0
 43 44  1  0  0  0  0
M  END
>  <MODEL>
1

>  <REMARK>
 VINA RESULT:       1.2      0.000      0.000
  Name = 
  10 active torsions:
  status: ('A' for Active; 'I' for Inactive)
    1  A    between atoms: C_1  and  C_34
    2  A    between atoms: C_7  and  C_39
    3  A    between atoms: O_9  and  C_34
    4  A    between atoms: O_9  and  C_42
    5  A    between atoms: C_11  and  C_20
    6  A    between atoms: C_14  and  C_15
    7  A    between atoms: C_15  and  C_17
    8  A    between atoms: C_17  and  C_19
    9  A    between atoms: C_19  and  C_39
   10  A    between atoms: C_43  and  C_44
                            x       y       z     vdW  Elec       q    Type
                         _______ _______ _______ _____ _____    ______ ____

>  <TORSDO>
F 10

$$$$
