=
 OpenBabel11052410163D

 25 27  0  0  1  0  0  0  0  0999 V2000
  162.0800  208.5560  150.7440 S   0  0  0  0  0  0  0  0  0  0  0  0
  161.6720  206.0010  152.3310 C   0  0  0  0  0  0  0  0  0  0  0  0
  161.0800  206.1610  153.6370 C   0  0  0  0  0  3  0  0  0  0  0  0
  160.7080  207.4120  154.1710 N   0  0  0  0  0  0  0  0  0  0  0  0
  160.8500  208.6290  153.5170 C   0  0  0  0  0  0  0  0  0  0  0  0
  161.4030  208.4880  152.2900 C   0  0  0  0  0  0  0  0  0  0  0  0
  161.8040  207.2040  151.7180 C   0  0  0  0  0  0  0  0  0  0  0  0
  162.1500  204.4330  151.6140 S   0  0  0  0  0  0  0  0  0  0  0  0
  160.8130  204.4190  150.3580 C   0  0  0  0  0  0  0  0  0  0  0  0
  160.3020  203.1370  150.2570 F   0  0  0  0  0  0  0  0  0  0  0  0
  159.7940  205.2680  150.7530 F   0  0  0  0  0  0  0  0  0  0  0  0
  161.3210  204.8540  148.9740 C   0  0  2  0  0  3  0  0  0  0  0  0
  160.5720  206.0530  148.4060 C   0  0  0  0  0  1  0  0  0  0  0  0
  161.4420  203.7120  147.9620 C   0  0  0  0  0  2  0  0  0  0  0  0
  162.0320  204.1670  146.7140 N   0  0  0  0  0  2  0  0  0  0  0  0
  161.5870  203.2890  145.7150 N   0  0  0  0  0  2  0  0  0  0  0  0
  160.7010  204.0480  144.8460 C   0  0  0  0  0  2  0  0  0  0  0  0
  161.2310  205.4600  144.6520 C   0  0  0  0  0  2  0  0  0  0  0  0
  160.2420  206.3880  144.9780 O   0  0  0  0  0  1  0  0  0  0  0  0
  160.4930  209.9360  154.1360 C   0  0  0  0  0  2  0  0  0  0  0  0
  161.6290  209.8810  156.4290 C   0  0  2  0  0  3  0  0  0  0  0  0
  162.8610  210.7190  154.4620 F   0  0  0  0  0  0  0  0  0  0  0  0
  161.2120  211.3240  156.1670 C   0  0  0  0  0  2  0  0  0  0  0  0
  162.9290  209.8600  156.9380 O   0  0  0  0  0  1  0  0  0  0  0  0
  161.6250  210.4360  155.0190 C   0  0  1  0  0  0  0  0  0  0  0  0
  1  7  1  0  0  0  0
  1  6  1  0  0  0  0
  2  3  1  0  0  0  0
  3  4  2  0  0  0  0
  5 20  1  0  0  0  0
  5  4  1  0  0  0  0
  6  5  2  0  0  0  0
  7  6  1  0  0  0  0
  7  2  2  0  0  0  0
  8  2  1  0  0  0  0
  9 11  1  0  0  0  0
  9  8  1  0  0  0  0
 10  9  1  0  0  0  0
 12 13  1  6  0  0  0
 12  9  1  0  0  0  0
 14 12  1  0  0  0  0
 15 14  1  0  0  0  0
 16 15  1  0  0  0  0
 17 16  1  0  0  0  0
 18 17  1  0  0  0  0
 18 19  1  0  0  0  0
 20 25  1  0  0  0  0
 21 24  1  1  0  0  0
 23 21  1  0  0  0  0
 25 22  1  6  0  0  0
 25 23  1  0  0  0  0
 25 21  1  0  0  0  0
M  END
>  <MODEL>
1

>  <REMARK>
 VINA RESULT:      -6.5      0.000      0.000
  Name = 
  10 active torsions:
  status: ('A' for Active; 'I' for Inactive)
    1  A    between atoms: C_1  and  N_6
    2  A    between atoms: C_1  and  C_7
    3  A    between atoms: C_3  and  C_4
    4  A    between atoms: C_3  and  N_24
    5  A    between atoms: C_5  and  C_7
    6  A    between atoms: C_5  and  S_8
    7  A    between atoms: N_6  and  N_24
    8  A    between atoms: S_8  and  C_13
    9  A    between atoms: C_12  and  C_17
   10  A    between atoms: C_12  and  C_20
                            x       y       z     vdW  Elec       q    Type
                         _______ _______ _______ _____ _____    ______ ____

>  <TORSDO>
F 10

$$$$
=
 OpenBabel11052410163D

 25 27  0  0  1  0  0  0  0  0999 V2000
  160.6310  203.8480  151.1360 S   0  0  0  0  0  0  0  0  0  0  0  0
  160.7700  206.3850  149.4750 C   0  0  0  0  0  0  0  0  0  0  0  0
  161.1840  207.5740  150.1780 C   0  0  0  0  0  3  0  0  0  0  0  0
  161.5070  207.5890  151.5510 N   0  0  0  0  0  0  0  0  0  0  0  0
  161.4800  206.4800  152.3860 C   0  0  0  0  0  0  0  0  0  0  0  0
  161.0930  205.3590  151.7340 C   0  0  0  0  0  0  0  0  0  0  0  0
  160.7460  205.3190  150.3150 C   0  0  0  0  0  0  0  0  0  0  0  0
  160.3590  206.3210  147.7350 S   0  0  0  0  0  0  0  0  0  0  0  0
  161.9420  205.5450  147.2270 C   0  0  0  0  0  0  0  0  0  0  0  0
  162.9640  206.4660  147.3760 F   0  0  0  0  0  0  0  0  0  0  0  0
  162.2090  204.4570  148.0400 F   0  0  0  0  0  0  0  0  0  0  0  0
  161.9110  205.0810  145.7620 C   0  0  2  0  0  3  0  0  0  0  0  0
  160.7590  205.6780  144.9640 C   0  0  0  0  0  1  0  0  0  0  0  0
  162.0190  203.5650  145.5810 C   0  0  0  0  0  2  0  0  0  0  0  0
  160.7460  202.9830  145.1910 N   0  0  0  0  0  2  0  0  0  0  0  0
  160.6920  201.7080  145.7710 N   0  0  0  0  0  2  0  0  0  0  0  0
  160.7620  201.8920  147.2120 C   0  0  0  0  0  2  0  0  0  0  0  0
  161.3170  200.6440  147.8790 C   0  0  0  0  0  2  0  0  0  0  0  0
  161.2790  200.7890  149.2660 O   0  0  0  0  0  1  0  0  0  0  0  0
  161.7770  206.5470  153.8440 C   0  0  0  0  0  2  0  0  0  0  0  0
  161.4170  208.0290  155.9000 C   0  0  2  0  0  3  0  0  0  0  0  0
  160.4060  208.6530  153.7370 F   0  0  0  0  0  0  0  0  0  0  0  0
  160.1410  207.2160  155.7010 C   0  0  0  0  0  2  0  0  0  0  0  0
  161.0820  209.3560  156.1710 O   0  0  0  0  0  1  0  0  0  0  0  0
  160.9600  207.6440  154.5070 C   0  0  1  0  0  0  0  0  0  0  0  0
  1  6  1  0  0  0  0
  2  3  2  0  0  0  0
  2  7  1  0  0  0  0
  3  4  1  0  0  0  0
  4  5  2  0  0  0  0
  5 20  1  0  0  0  0
  6  5  1  0  0  0  0
  7  1  1  0  0  0  0
  7  6  2  0  0  0  0
  8  2  1  0  0  0  0
  9 10  1  0  0  0  0
  9  8  1  0  0  0  0
  9 11  1  0  0  0  0
 12 13  1  1  0  0  0
 12  9  1  0  0  0  0
 14 12  1  0  0  0  0
 15 14  1  0  0  0  0
 15 16  1  0  0  0  0
 16 17  1  0  0  0  0
 17 18  1  0  0  0  0
 18 19  1  0  0  0  0
 20 25  1  0  0  0  0
 21 24  1  6  0  0  0
 23 21  1  0  0  0  0
 25 22  1  6  0  0  0
 25 23  1  0  0  0  0
 25 21  1  0  0  0  0
M  END
>  <MODEL>
2

>  <REMARK>
 VINA RESULT:      -6.4      2.622      3.707
  Name = 
  10 active torsions:
  status: ('A' for Active; 'I' for Inactive)
    1  A    between atoms: C_1  and  N_6
    2  A    between atoms: C_1  and  C_7
    3  A    between atoms: C_3  and  C_4
    4  A    between atoms: C_3  and  N_24
    5  A    between atoms: C_5  and  C_7
    6  A    between atoms: C_5  and  S_8
    7  A    between atoms: N_6  and  N_24
    8  A    between atoms: S_8  and  C_13
    9  A    between atoms: C_12  and  C_17
   10  A    between atoms: C_12  and  C_20
                            x       y       z     vdW  Elec       q    Type
                         _______ _______ _______ _____ _____    ______ ____

>  <TORSDO>
F 10

$$$$
=
 OpenBabel11052410163D

 25 27  0  0  1  0  0  0  0  0999 V2000
  160.5340  207.0400  154.7250 S   0  0  0  0  0  0  0  0  0  0  0  0
  161.7530  206.5310  151.9920 C   0  0  0  0  0  0  0  0  0  0  0  0
  162.1620  207.7030  151.2580 C   0  0  0  0  0  3  0  0  0  0  0  0
  162.0130  209.0160  151.7510 N   0  0  0  0  0  0  0  0  0  0  0  0
  161.4750  209.3440  152.9880 C   0  0  0  0  0  0  0  0  0  0  0  0
  161.0900  208.2500  153.6850 C   0  0  0  0  0  0  0  0  0  0  0  0
  161.2270  206.8800  153.1920 C   0  0  0  0  0  0  0  0  0  0  0  0
  161.9320  204.8490  151.4070 S   0  0  0  0  0  0  0  0  0  0  0  0
  161.1180  205.1560  149.7910 C   0  0  0  0  0  0  0  0  0  0  0  0
  159.9170  205.8080  150.0080 F   0  0  0  0  0  0  0  0  0  0  0  0
  161.9230  205.9670  149.0110 F   0  0  0  0  0  0  0  0  0  0  0  0
  160.8360  203.8500  149.0320 C   0  0  2  0  0  3  0  0  0  0  0  0
  160.9380  202.6080  149.9080 C   0  0  0  0  0  1  0  0  0  0  0  0
  161.6160  203.7030  147.7240 C   0  0  0  0  0  2  0  0  0  0  0  0
  161.0800  202.6310  146.9010 N   0  0  0  0  0  2  0  0  0  0  0  0
  161.2580  203.0210  145.5660 N   0  0  0  0  0  2  0  0  0  0  0  0
  161.7980  204.3710  145.5850 C   0  0  0  0  0  2  0  0  0  0  0  0
  161.1280  205.2250  144.5210 C   0  0  0  0  0  2  0  0  0  0  0  0
  160.3080  206.1790  145.1230 O   0  0  0  0  0  1  0  0  0  0  0  0
  161.2860  210.7470  153.4510 C   0  0  0  0  0  2  0  0  0  0  0  0
  159.4910  212.3800  154.2650 C   0  0  2  0  0  3  0  0  0  0  0  0
  158.9530  210.7290  152.5110 F   0  0  0  0  0  0  0  0  0  0  0  0
  159.2090  211.0340  154.9260 C   0  0  0  0  0  2  0  0  0  0  0  0
  158.2950  212.9210  153.7910 O   0  0  0  0  0  1  0  0  0  0  0  0
  159.8070  211.0860  153.5410 C   0  0  1  0  0  0  0  0  0  0  0  0
  2  7  1  0  0  0  0
  3  4  1  0  0  0  0
  3  2  2  0  0  0  0
  4  5  2  0  0  0  0
  5 20  1  0  0  0  0
  5  6  1  0  0  0  0
  6  1  1  0  0  0  0
  7  6  2  0  0  0  0
  7  1  1  0  0  0  0
  8  2  1  0  0  0  0
  9 10  1  0  0  0  0
  9  8  1  0  0  0  0
 11  9  1  0  0  0  0
 12  9  1  0  0  0  0
 12 13  1  1  0  0  0
 14 12  1  0  0  0  0
 15 14  1  0  0  0  0
 16 17  1  0  0  0  0
 16 15  1  0  0  0  0
 18 19  1  0  0  0  0
 18 17  1  0  0  0  0
 20 25  1  0  0  0  0
 21 24  1  6  0  0  0
 21 23  1  0  0  0  0
 25 22  1  6  0  0  0
 25 21  1  0  0  0  0
 25 23  1  0  0  0  0
M  END
>  <MODEL>
3

>  <REMARK>
 VINA RESULT:      -6.3      2.242      2.627
  Name = 
  10 active torsions:
  status: ('A' for Active; 'I' for Inactive)
    1  A    between atoms: C_1  and  N_6
    2  A    between atoms: C_1  and  C_7
    3  A    between atoms: C_3  and  C_4
    4  A    between atoms: C_3  and  N_24
    5  A    between atoms: C_5  and  C_7
    6  A    between atoms: C_5  and  S_8
    7  A    between atoms: N_6  and  N_24
    8  A    between atoms: S_8  and  C_13
    9  A    between atoms: C_12  and  C_17
   10  A    between atoms: C_12  and  C_20
                            x       y       z     vdW  Elec       q    Type
                         _______ _______ _______ _____ _____    ______ ____

>  <TORSDO>
F 10

$$$$
=
 OpenBabel11052410163D

 25 27  0  0  1  0  0  0  0  0999 V2000
  162.0560  208.9410  149.2380 S   0  0  0  0  0  0  0  0  0  0  0  0
  160.9660  206.3540  148.0830 C   0  0  0  0  0  0  0  0  0  0  0  0
  160.8110  205.2650  149.0160 C   0  0  0  0  0  3  0  0  0  0  0  0
  161.1410  205.3650  150.3840 N   0  0  0  0  0  0  0  0  0  0  0  0
  161.6370  206.5060  151.0000 C   0  0  0  0  0  0  0  0  0  0  0  0
  161.7840  207.5330  150.1330 C   0  0  0  0  0  0  0  0  0  0  0  0
  161.4560  207.4530  148.7100 C   0  0  0  0  0  0  0  0  0  0  0  0
  160.5520  206.2720  146.3440 S   0  0  0  0  0  0  0  0  0  0  0  0
  162.0250  205.2820  145.8780 C   0  0  0  0  0  0  0  0  0  0  0  0
  162.7010  205.9310  144.8600 F   0  0  0  0  0  0  0  0  0  0  0  0
  162.8730  205.1680  146.9650 F   0  0  0  0  0  0  0  0  0  0  0  0
  161.6420  203.8750  145.3920 C   0  0  2  0  0  3  0  0  0  0  0  0
  160.3970  203.8570  144.5150 C   0  0  0  0  0  1  0  0  0  0  0  0
  161.5870  202.8220  146.5000 C   0  0  0  0  0  2  0  0  0  0  0  0
  160.7360  201.7030  146.1300 N   0  0  0  0  0  2  0  0  0  0  0  0
  160.9810  200.6850  147.0620 N   0  0  0  0  0  2  0  0  0  0  0  0
  161.5240  201.3190  148.2530 C   0  0  0  0  0  2  0  0  0  0  0  0
  160.7000  200.9460  149.4750 C   0  0  0  0  0  2  0  0  0  0  0  0
  159.4280  201.5110  149.3820 O   0  0  0  0  0  1  0  0  0  0  0  0
  162.0240  206.5560  152.4380 C   0  0  0  0  0  2  0  0  0  0  0  0
  161.5220  207.8320  154.5990 C   0  0  2  0  0  3  0  0  0  0  0  0
  160.1960  208.2780  152.5660 F   0  0  0  0  0  0  0  0  0  0  0  0
  160.4580  206.7480  154.4580 C   0  0  0  0  0  2  0  0  0  0  0  0
  160.9130  209.0310  154.9730 O   0  0  0  0  0  1  0  0  0  0  0  0
  161.0390  207.4010  153.2280 C   0  0  1  0  0  0  0  0  0  0  0  0
  1  6  1  0  0  0  0
  2  7  2  0  0  0  0
  2  3  1  0  0  0  0
  3  4  2  0  0  0  0
  4  5  1  0  0  0  0
  5 20  1  0  0  0  0
  6  5  2  0  0  0  0
  7  1  1  0  0  0  0
  7  6  1  0  0  0  0
  8  2  1  0  0  0  0
  9  8  1  0  0  0  0
  9 11  1  0  0  0  0
 10  9  1  0  0  0  0
 12 13  1  1  0  0  0
 12  9  1  0  0  0  0
 12 14  1  0  0  0  0
 15 14  1  0  0  0  0
 15 16  1  0  0  0  0
 16 17  1  0  0  0  0
 17 18  1  0  0  0  0
 19 18  1  0  0  0  0
 20 25  1  0  0  0  0
 21 24  1  1  0  0  0
 23 21  1  0  0  0  0
 25 22  1  6  0  0  0
 25 23  1  0  0  0  0
 25 21  1  0  0  0  0
M  END
>  <MODEL>
4

>  <REMARK>
 VINA RESULT:      -6.2      2.983      4.285
  Name = 
  10 active torsions:
  status: ('A' for Active; 'I' for Inactive)
    1  A    between atoms: C_1  and  N_6
    2  A    between atoms: C_1  and  C_7
    3  A    between atoms: C_3  and  C_4
    4  A    between atoms: C_3  and  N_24
    5  A    between atoms: C_5  and  C_7
    6  A    between atoms: C_5  and  S_8
    7  A    between atoms: N_6  and  N_24
    8  A    between atoms: S_8  and  C_13
    9  A    between atoms: C_12  and  C_17
   10  A    between atoms: C_12  and  C_20
                            x       y       z     vdW  Elec       q    Type
                         _______ _______ _______ _____ _____    ______ ____

>  <TORSDO>
F 10

$$$$
=
 OpenBabel11052410163D

 25 27  0  0  1  0  0  0  0  0999 V2000
  160.6850  209.8600  152.2580 S   0  0  0  0  0  0  0  0  0  0  0  0
  161.8710  207.4230  150.8920 C   0  0  0  0  0  0  0  0  0  0  0  0
  161.9410  206.2260  151.6930 C   0  0  0  0  0  3  0  0  0  0  0  0
  161.4980  206.1620  153.0310 N   0  0  0  0  0  0  0  0  0  0  0  0
  160.9370  207.2200  153.7330 C   0  0  0  0  0  0  0  0  0  0  0  0
  160.8660  208.3480  152.9880 C   0  0  0  0  0  0  0  0  0  0  0  0
  161.3250  208.4410  151.6030 C   0  0  0  0  0  0  0  0  0  0  0  0
  162.4140  207.5440  149.1910 S   0  0  0  0  0  0  0  0  0  0  0  0
  161.3780  206.1530  148.5940 C   0  0  0  0  0  0  0  0  0  0  0  0
  161.6160  205.0410  149.3830 F   0  0  0  0  0  0  0  0  0  0  0  0
  160.0390  206.4890  148.7040 F   0  0  0  0  0  0  0  0  0  0  0  0
  161.6860  205.7920  147.1320 C   0  0  2  0  0  3  0  0  0  0  0  0
  160.5810  206.1950  146.1650 C   0  0  0  0  0  1  0  0  0  0  0  0
  162.1410  204.3450  146.9250 C   0  0  0  0  0  2  0  0  0  0  0  0
  161.2640  203.6370  146.0070 N   0  0  0  0  0  2  0  0  0  0  0  0
  161.2650  202.2930  146.4050 N   0  0  0  0  0  2  0  0  0  0  0  0
  160.8950  202.2650  147.8110 C   0  0  0  0  0  2  0  0  0  0  0  0
  161.1380  200.8830  148.3950 C   0  0  0  0  0  2  0  0  0  0  0  0
  161.2560  200.9660  149.7830 O   0  0  0  0  0  1  0  0  0  0  0  0
  160.5300  207.1280  155.1630 C   0  0  0  0  0  2  0  0  0  0  0  0
  161.8550  209.1060  156.1020 C   0  0  2  0  0  3  0  0  0  0  0  0
  159.4880  209.3970  155.4670 F   0  0  0  0  0  0  0  0  0  0  0  0
  160.9750  208.5770  157.2300 C   0  0  0  0  0  2  0  0  0  0  0  0
  161.7870  210.5000  156.0770 O   0  0  0  0  0  1  0  0  0  0  0  0
  160.4960  208.5070  155.8000 C   0  0  1  0  0  0  0  0  0  0  0  0
  1  6  1  0  0  0  0
  2  7  2  0  0  0  0
  2  3  1  0  0  0  0
  3  4  2  0  0  0  0
  4  5  1  0  0  0  0
  5 20  1  0  0  0  0
  6  5  2  0  0  0  0
  7  1  1  0  0  0  0
  7  6  1  0  0  0  0
  8  2  1  0  0  0  0
  9 11  1  0  0  0  0
  9  8  1  0  0  0  0
  9 10  1  0  0  0  0
 12 13  1  6  0  0  0
 12  9  1  0  0  0  0
 14 12  1  0  0  0  0
 15 16  1  0  0  0  0
 15 14  1  0  0  0  0
 16 17  1  0  0  0  0
 17 18  1  0  0  0  0
 18 19  1  0  0  0  0
 20 25  1  0  0  0  0
 21 24  1  1  0  0  0
 21 23  1  0  0  0  0
 25 22  1  6  0  0  0
 25 21  1  0  0  0  0
 25 23  1  0  0  0  0
M  END
>  <MODEL>
5

>  <REMARK>
 VINA RESULT:      -6.2      2.388      2.913
  Name = 
  10 active torsions:
  status: ('A' for Active; 'I' for Inactive)
    1  A    between atoms: C_1  and  N_6
    2  A    between atoms: C_1  and  C_7
    3  A    between atoms: C_3  and  C_4
    4  A    between atoms: C_3  and  N_24
    5  A    between atoms: C_5  and  C_7
    6  A    between atoms: C_5  and  S_8
    7  A    between atoms: N_6  and  N_24
    8  A    between atoms: S_8  and  C_13
    9  A    between atoms: C_12  and  C_17
   10  A    between atoms: C_12  and  C_20
                            x       y       z     vdW  Elec       q    Type
                         _______ _______ _______ _____ _____    ______ ____

>  <TORSDO>
F 10

$$$$
=
 OpenBabel11052410163D

 25 27  0  0  1  0  0  0  0  0999 V2000
  162.0060  208.2950  150.2030 S   0  0  0  0  0  0  0  0  0  0  0  0
  161.5400  205.8680  151.9650 C   0  0  0  0  0  0  0  0  0  0  0  0
  161.0440  206.1410  153.2920 C   0  0  0  0  0  3  0  0  0  0  0  0
  160.7870  207.4430  153.7700 N   0  0  0  0  0  0  0  0  0  0  0  0
  160.9630  208.6080  153.0350 C   0  0  0  0  0  0  0  0  0  0  0  0
  161.4260  208.3610  151.7880 C   0  0  0  0  0  0  0  0  0  0  0  0
  161.7080  207.0220  151.2720 C   0  0  0  0  0  0  0  0  0  0  0  0
  161.8710  204.2330  151.3180 S   0  0  0  0  0  0  0  0  0  0  0  0
  160.9890  204.5080  149.7330 C   0  0  0  0  0  0  0  0  0  0  0  0
  159.7830  205.1350  149.9910 F   0  0  0  0  0  0  0  0  0  0  0  0
  161.7450  205.3310  148.9160 F   0  0  0  0  0  0  0  0  0  0  0  0
  160.7080  203.1900  148.9950 C   0  0  2  0  0  3  0  0  0  0  0  0
  160.7510  201.9680  149.9030 C   0  0  0  0  0  1  0  0  0  0  0  0
  161.5330  202.9950  147.7210 C   0  0  0  0  0  2  0  0  0  0  0  0
  160.9050  202.0440  146.8190 N   0  0  0  0  0  2  0  0  0  0  0  0
  160.8570  202.6550  145.5580 N   0  0  0  0  0  2  0  0  0  0  0  0
  161.7140  203.8290  145.6210 C   0  0  0  0  0  2  0  0  0  0  0  0
  161.3340  204.8210  144.5350 C   0  0  0  0  0  2  0  0  0  0  0  0
  160.2780  205.6220  144.9700 O   0  0  0  0  0  1  0  0  0  0  0  0
  160.7300  209.9690  153.5940 C   0  0  0  0  0  2  0  0  0  0  0  0
  159.8100  209.8650  155.9800 C   0  0  2  0  0  3  0  0  0  0  0  0
  162.2060  209.4490  155.5630 F   0  0  0  0  0  0  0  0  0  0  0  0
  160.5220  211.2060  155.8300 C   0  0  0  0  0  2  0  0  0  0  0  0
  160.1640  209.2870  157.2000 O   0  0  0  0  0  1  0  0  0  0  0  0
  161.0260  209.9930  155.0840 C   0  0  1  0  0  0  0  0  0  0  0  0
  1  7  1  0  0  0  0
  1  6  1  0  0  0  0
  2  3  1  0  0  0  0
  3  4  2  0  0  0  0
  5 20  1  0  0  0  0
  5  4  1  0  0  0  0
  6  5  2  0  0  0  0
  7  6  1  0  0  0  0
  7  2  2  0  0  0  0
  8  2  1  0  0  0  0
  9 10  1  0  0  0  0
  9  8  1  0  0  0  0
 11  9  1  0  0  0  0
 12  9  1  0  0  0  0
 12 13  1  1  0  0  0
 14 12  1  0  0  0  0
 15 14  1  0  0  0  0
 16 17  1  0  0  0  0
 16 15  1  0  0  0  0
 18 19  1  0  0  0  0
 18 17  1  0  0  0  0
 20 25  1  0  0  0  0
 21 24  1  1  0  0  0
 23 21  1  0  0  0  0
 25 22  1  1  0  0  0
 25 23  1  0  0  0  0
 25 21  1  0  0  0  0
M  END
>  <MODEL>
6

>  <REMARK>
 VINA RESULT:      -6.2      1.294      1.577
  Name = 
  10 active torsions:
  status: ('A' for Active; 'I' for Inactive)
    1  A    between atoms: C_1  and  N_6
    2  A    between atoms: C_1  and  C_7
    3  A    between atoms: C_3  and  C_4
    4  A    between atoms: C_3  and  N_24
    5  A    between atoms: C_5  and  C_7
    6  A    between atoms: C_5  and  S_8
    7  A    between atoms: N_6  and  N_24
    8  A    between atoms: S_8  and  C_13
    9  A    between atoms: C_12  and  C_17
   10  A    between atoms: C_12  and  C_20
                            x       y       z     vdW  Elec       q    Type
                         _______ _______ _______ _____ _____    ______ ____

>  <TORSDO>
F 10

$$$$
=
 OpenBabel11052410163D

 25 27  0  0  1  0  0  0  0  0999 V2000
  160.5760  205.8200  148.7740 S   0  0  0  0  0  0  0  0  0  0  0  0
  160.4480  203.1090  150.1330 C   0  0  0  0  0  0  0  0  0  0  0  0
  160.9730  203.0540  151.4760 C   0  0  0  0  0  3  0  0  0  0  0  0
  161.5210  204.1710  152.1390 N   0  0  0  0  0  0  0  0  0  0  0  0
  161.6150  205.4480  151.6010 C   0  0  0  0  0  0  0  0  0  0  0  0
  161.1230  205.5090  150.3420 C   0  0  0  0  0  0  0  0  0  0  0  0
  160.5570  204.3640  149.6300 C   0  0  0  0  0  0  0  0  0  0  0  0
  159.7370  201.7180  149.2600 S   0  0  0  0  0  0  0  0  0  0  0  0
  161.1920  201.4520  148.1750 C   0  0  0  0  0  0  0  0  0  0  0  0
  161.9650  202.5990  148.1660 F   0  0  0  0  0  0  0  0  0  0  0  0
  161.9580  200.4110  148.6710 F   0  0  0  0  0  0  0  0  0  0  0  0
  160.7810  201.1270  146.7300 C   0  0  2  0  0  3  0  0  0  0  0  0
  161.1990  199.7330  146.2820 C   0  0  0  0  0  1  0  0  0  0  0  0
  161.1630  202.2030  145.7120 C   0  0  0  0  0  2  0  0  0  0  0  0
  160.0220  202.6000  144.9030 N   0  0  0  0  0  2  0  0  0  0  0  0
  160.2400  203.9330  144.5260 N   0  0  0  0  0  2  0  0  0  0  0  0
  161.5460  204.3130  145.0410 C   0  0  0  0  0  2  0  0  0  0  0  0
  161.6220  205.8190  145.2330 C   0  0  0  0  0  2  0  0  0  0  0  0
  160.3380  206.3630  145.2450 O   0  0  0  0  0  1  0  0  0  0  0  0
  162.2500  206.5910  152.3140 C   0  0  0  0  0  2  0  0  0  0  0  0
  161.5530  207.6950  154.5160 C   0  0  2  0  0  3  0  0  0  0  0  0
  160.4540  208.3490  152.4050 F   0  0  0  0  0  0  0  0  0  0  0  0
  160.4880  206.6580  154.1750 C   0  0  0  0  0  2  0  0  0  0  0  0
  160.9340  208.8760  154.9290 O   0  0  0  0  0  1  0  0  0  0  0  0
  161.2060  207.3950  153.0710 C   0  0  1  0  0  0  0  0  0  0  0  0
  1  7  1  0  0  0  0
  1  6  1  0  0  0  0
  2  3  1  0  0  0  0
  3  4  2  0  0  0  0
  5  4  1  0  0  0  0
  5 20  1  0  0  0  0
  6  5  2  0  0  0  0
  7  2  2  0  0  0  0
  7  6  1  0  0  0  0
  8  2  1  0  0  0  0
  9 11  1  0  0  0  0
  9  8  1  0  0  0  0
 10  9  1  0  0  0  0
 12 13  1  6  0  0  0
 12  9  1  0  0  0  0
 14 12  1  0  0  0  0
 15 14  1  0  0  0  0
 16 15  1  0  0  0  0
 16 17  1  0  0  0  0
 17 18  1  0  0  0  0
 18 19  1  0  0  0  0
 20 25  1  0  0  0  0
 21 24  1  1  0  0  0
 23 21  1  0  0  0  0
 25 22  1  6  0  0  0
 25 23  1  0  0  0  0
 25 21  1  0  0  0  0
M  END
>  <MODEL>
7

>  <REMARK>
 VINA RESULT:      -6.2      2.483      3.731
  Name = 
  10 active torsions:
  status: ('A' for Active; 'I' for Inactive)
    1  A    between atoms: C_1  and  N_6
    2  A    between atoms: C_1  and  C_7
    3  A    between atoms: C_3  and  C_4
    4  A    between atoms: C_3  and  N_24
    5  A    between atoms: C_5  and  C_7
    6  A    between atoms: C_5  and  S_8
    7  A    between atoms: N_6  and  N_24
    8  A    between atoms: S_8  and  C_13
    9  A    between atoms: C_12  and  C_17
   10  A    between atoms: C_12  and  C_20
                            x       y       z     vdW  Elec       q    Type
                         _______ _______ _______ _____ _____    ______ ____

>  <TORSDO>
F 10

$$$$
=
 OpenBabel11052410163D

 25 27  0  0  1  0  0  0  0  0999 V2000
  161.5030  205.9840  153.2560 S   0  0  0  0  0  0  0  0  0  0  0  0
  161.7340  207.6230  150.7110 C   0  0  0  0  0  0  0  0  0  0  0  0
  161.4260  209.0270  150.8380 C   0  0  0  0  0  3  0  0  0  0  0  0
  161.0350  209.6270  152.0530 N   0  0  0  0  0  0  0  0  0  0  0  0
  160.9100  208.9600  153.2640 C   0  0  0  0  0  0  0  0  0  0  0  0
  161.1990  207.6430  153.1550 C   0  0  0  0  0  0  0  0  0  0  0  0
  161.5990  206.9960  151.9070 C   0  0  0  0  0  0  0  0  0  0  0  0
  162.2410  206.8240  149.1930 S   0  0  0  0  0  0  0  0  0  0  0  0
  160.6590  205.9280  148.9490 C   0  0  0  0  0  0  0  0  0  0  0  0
  159.8200  206.1960  150.0160 F   0  0  0  0  0  0  0  0  0  0  0  0
  160.0480  206.3700  147.7880 F   0  0  0  0  0  0  0  0  0  0  0  0
  160.8670  204.4080  148.8590 C   0  0  2  0  0  3  0  0  0  0  0  0
  161.2610  203.7730  150.1860 C   0  0  0  0  0  1  0  0  0  0  0  0
  161.7770  203.9660  147.7110 C   0  0  0  0  0  2  0  0  0  0  0  0
  161.1750  202.8930  146.9360 N   0  0  0  0  0  2  0  0  0  0  0  0
  161.3670  203.2150  145.5860 N   0  0  0  0  0  2  0  0  0  0  0  0
  162.1690  204.4280  145.5470 C   0  0  0  0  0  2  0  0  0  0  0  0
  161.5690  205.4290  144.5720 C   0  0  0  0  0  2  0  0  0  0  0  0
  160.2310  205.6590  144.8900 O   0  0  0  0  0  1  0  0  0  0  0  0
  160.4420  209.6200  154.5150 C   0  0  0  0  0  2  0  0  0  0  0  0
  161.8150  209.9100  156.6560 C   0  0  2  0  0  3  0  0  0  0  0  0
  162.7230  210.6790  154.4940 F   0  0  0  0  0  0  0  0  0  0  0  0
  161.2070  211.2690  156.3230 C   0  0  0  0  0  2  0  0  0  0  0  0
  163.1550  210.0770  157.0090 O   0  0  0  0  0  1  0  0  0  0  0  0
  161.5950  210.3210  155.2140 C   0  0  1  0  0  0  0  0  0  0  0  0
  2  3  2  0  0  0  0
  2  7  1  0  0  0  0
  3  4  1  0  0  0  0
  4  5  2  0  0  0  0
  5 20  1  0  0  0  0
  6  1  1  0  0  0  0
  6  5  1  0  0  0  0
  7  6  2  0  0  0  0
  7  1  1  0  0  0  0
  8  2  1  0  0  0  0
  9  8  1  0  0  0  0
  9 10  1  0  0  0  0
 11  9  1  0  0  0  0
 12  9  1  0  0  0  0
 12 13  1  1  0  0  0
 14 12  1  0  0  0  0
 15 14  1  0  0  0  0
 16 15  1  0  0  0  0
 17 16  1  0  0  0  0
 18 19  1  0  0  0  0
 18 17  1  0  0  0  0
 20 25  1  0  0  0  0
 21 24  1  6  0  0  0
 23 21  1  0  0  0  0
 25 22  1  6  0  0  0
 25 23  1  0  0  0  0
 25 21  1  0  0  0  0
M  END
>  <MODEL>
8

>  <REMARK>
 VINA RESULT:      -6.2      1.340      1.975
  Name = 
  10 active torsions:
  status: ('A' for Active; 'I' for Inactive)
    1  A    between atoms: C_1  and  N_6
    2  A    between atoms: C_1  and  C_7
    3  A    between atoms: C_3  and  C_4
    4  A    between atoms: C_3  and  N_24
    5  A    between atoms: C_5  and  C_7
    6  A    between atoms: C_5  and  S_8
    7  A    between atoms: N_6  and  N_24
    8  A    between atoms: S_8  and  C_13
    9  A    between atoms: C_12  and  C_17
   10  A    between atoms: C_12  and  C_20
                            x       y       z     vdW  Elec       q    Type
                         _______ _______ _______ _____ _____    ______ ____

>  <TORSDO>
F 10

$$$$
=
 OpenBabel11052410163D

 25 27  0  0  1  0  0  0  0  0999 V2000
  160.8480  205.8910  150.9600 S   0  0  0  0  0  0  0  0  0  0  0  0
  161.0470  207.2530  148.2550 C   0  0  0  0  0  0  0  0  0  0  0  0
  161.5820  208.5920  148.2640 C   0  0  0  0  0  3  0  0  0  0  0  0
  161.9910  209.2550  149.4400 N   0  0  0  0  0  0  0  0  0  0  0  0
  161.9440  208.7100  150.7160 C   0  0  0  0  0  0  0  0  0  0  0  0
  161.4450  207.4530  150.7170 C   0  0  0  0  0  0  0  0  0  0  0  0
  161.0070  206.7470  149.5130 C   0  0  0  0  0  0  0  0  0  0  0  0
  160.5250  206.3740  146.7860 S   0  0  0  0  0  0  0  0  0  0  0  0
  162.1610  205.6070  146.4700 C   0  0  0  0  0  0  0  0  0  0  0  0
  162.7070  206.1640  145.3270 F   0  0  0  0  0  0  0  0  0  0  0  0
  163.0090  205.8640  147.5330 F   0  0  0  0  0  0  0  0  0  0  0  0
  162.0540  204.0860  146.2710 C   0  0  2  0  0  3  0  0  0  0  0  0
  161.2800  203.6940  145.0190 C   0  0  0  0  0  1  0  0  0  0  0  0
  161.5810  203.3230  147.5100 C   0  0  0  0  0  2  0  0  0  0  0  0
  160.9030  202.0890  147.1480 N   0  0  0  0  0  2  0  0  0  0  0  0
  160.7250  201.3650  148.3350 N   0  0  0  0  0  2  0  0  0  0  0  0
  160.7540  202.3250  149.4280 C   0  0  0  0  0  2  0  0  0  0  0  0
  161.1380  201.6360  150.7280 C   0  0  0  0  0  2  0  0  0  0  0  0
  161.5860  202.5800  151.6520 O   0  0  0  0  0  1  0  0  0  0  0  0
  162.3360  209.4630  151.9400 C   0  0  0  0  0  2  0  0  0  0  0  0
  161.4320  210.3720  154.1550 C   0  0  2  0  0  3  0  0  0  0  0  0
  159.9030  210.0180  152.2510 F   0  0  0  0  0  0  0  0  0  0  0  0
  161.0620  208.8930  154.0900 C   0  0  0  0  0  2  0  0  0  0  0  0
  160.3300  211.1050  154.5980 O   0  0  0  0  0  1  0  0  0  0  0  0
  161.1260  209.7130  152.8250 C   0  0  1  0  0  0  0  0  0  0  0  0
  2  3  2  0  0  0  0
  2  7  1  0  0  0  0
  3  4  1  0  0  0  0
  4  5  2  0  0  0  0
  5  6  1  0  0  0  0
  5 20  1  0  0  0  0
  6  1  1  0  0  0  0
  7  6  2  0  0  0  0
  7  1  1  0  0  0  0
  8  2  1  0  0  0  0
  9  8  1  0  0  0  0
  9 11  1  0  0  0  0
 10  9  1  0  0  0  0
 12 13  1  6  0  0  0
 12  9  1  0  0  0  0
 12 14  1  0  0  0  0
 15 14  1  0  0  0  0
 15 16  1  0  0  0  0
 16 17  1  0  0  0  0
 17 18  1  0  0  0  0
 18 19  1  0  0  0  0
 20 25  1  0  0  0  0
 21 24  1  1  0  0  0
 23 21  1  0  0  0  0
 25 22  1  6  0  0  0
 25 23  1  0  0  0  0
 25 21  1  0  0  0  0
M  END
>  <MODEL>
9

>  <REMARK>
 VINA RESULT:      -6.1      3.221      4.261
  Name = 
  10 active torsions:
  status: ('A' for Active; 'I' for Inactive)
    1  A    between atoms: C_1  and  N_6
    2  A    between atoms: C_1  and  C_7
    3  A    between atoms: C_3  and  C_4
    4  A    between atoms: C_3  and  N_24
    5  A    between atoms: C_5  and  C_7
    6  A    between atoms: C_5  and  S_8
    7  A    between atoms: N_6  and  N_24
    8  A    between atoms: S_8  and  C_13
    9  A    between atoms: C_12  and  C_17
   10  A    between atoms: C_12  and  C_20
                            x       y       z     vdW  Elec       q    Type
                         _______ _______ _______ _____ _____    ______ ____

>  <TORSDO>
F 10

$$$$
