=
 OpenBabel11042420113D

 30 32  0  0  1  0  0  0  0  0999 V2000
  162.2140  208.6930  149.8110 C   0  0  1  0  0  3  0  0  0  0  0  0
  161.2020  208.0790  150.6530 N   0  0  0  0  0  2  0  0  0  0  0  0
  161.8460  207.6500  151.8810 C   0  0  0  0  0  2  0  0  0  0  0  0
  160.9680  208.0180  153.0580 C   0  0  0  0  0  2  0  0  0  0  0  0
  161.2830  205.5840  153.3690 C   0  0  0  0  0  1  0  0  0  0  0  0
  160.9710  206.8890  154.0700 C   0  0  0  0  0  2  0  0  0  0  0  0
  162.2050  208.0240  148.4400 C   0  0  0  0  0  2  0  0  0  0  0  0
  161.1620  207.0580  148.3610 O   0  0  0  0  0  0  0  0  0  0  0  0
  161.1120  204.5630  148.4980 C   0  0  0  0  0  0  0  0  0  0  0  0
  160.8050  204.5180  149.8670 C   0  0  0  0  0  3  0  0  0  0  0  0
  161.5010  203.3460  146.4580 N   0  0  0  0  0  0  0  0  0  0  0  0
  161.0810  202.1220  148.4570 C   0  0  0  0  0  3  0  0  0  0  0  0
  160.7970  202.1000  149.8240 C   0  0  0  0  0  3  0  0  0  0  0  0
  161.5420  205.7320  146.4200 C   0  0  0  0  0  3  0  0  0  0  0  0
  161.2320  203.3410  147.7900 C   0  0  0  0  0  0  0  0  0  0  0  0
  161.6550  204.5040  145.7680 C   0  0  0  0  0  3  0  0  0  0  0  0
  160.6540  203.2980  150.5270 C   0  0  0  0  0  3  0  0  0  0  0  0
  161.2730  205.7820  147.7890 C   0  0  0  0  0  0  0  0  0  0  0  0
  161.9520  210.1910  149.6900 C   0  0  0  0  0  2  0  0  0  0  0  0
  161.9390  210.5740  148.3470 O   0  0  0  0  0  0  0  0  0  0  0  0
  162.2560  211.9340  148.3600 C   0  0  0  0  0  2  0  0  0  0  0  0
  161.1240  212.7320  147.7400 C   0  0  0  0  0  2  0  0  0  0  0  0
  161.3940  212.9630  146.3280 N   0  0  0  0  0  0  0  0  0  0  0  0
  160.4580  212.5510  145.3130 C   0  0  0  0  0  0  0  0  0  0  0  0
  162.6460  213.6230  145.9620 C   0  0  0  0  0  2  0  0  0  0  0  0
  159.9530  212.1890  142.8780 C   0  0  0  0  0  1  0  0  0  0  0  0
  159.3610  212.0170  145.6360 O   0  0  0  0  0  0  0  0  0  0  0  0
  160.7970  212.7310  143.9310 N   0  0  0  0  0  0  0  0  0  0  0  0
  163.1160  213.1830  144.5780 C   0  0  0  0  0  2  0  0  0  0  0  0
  162.0110  213.4520  143.5620 C   0  0  0  0  0  2  0  0  0  0  0  0
  1  7  1  6  0  0  0
  1  2  1  0  0  0  0
  2  3  1  0  0  0  0
  3  4  1  0  0  0  0
  4  6  1  0  0  0  0
  5  6  1  0  0  0  0
  8  7  1  0  0  0  0
  9 10  2  0  0  0  0
 10 17  1  0  0  0  0
 11 15  1  0  0  0  0
 12 13  1  0  0  0  0
 13 17  2  0  0  0  0
 14 18  2  0  0  0  0
 15 12  2  0  0  0  0
 15  9  1  0  0  0  0
 16 14  1  0  0  0  0
 16 11  2  0  0  0  0
 18  8  1  0  0  0  0
 18  9  1  0  0  0  0
 19  1  1  0  0  0  0
 20 21  1  0  0  0  0
 20 19  1  0  0  0  0
 22 21  1  0  0  0  0
 23 22  1  0  0  0  0
 24 27  2  0  0  0  0
 24 23  1  0  0  0  0
 25 23  1  0  0  0  0
 26 28  1  0  0  0  0
 28 24  1  0  0  0  0
 29 25  1  0  0  0  0
 30 28  1  0  0  0  0
 30 29  1  0  0  0  0
M  END
>  <MODEL>
1

>  <REMARK>
 VINA RESULT:      -7.8      0.000      0.000
  Name = 
  12 active torsions:
  status: ('A' for Active; 'I' for Inactive)
    1  A    between atoms: C_3  and  N_19
    2  A    between atoms: C_3  and  C_20
    3  A    between atoms: N_4  and  C_24
    4  A    between atoms: O_5  and  C_13
    5  A    between atoms: O_5  and  C_26
    6  A    between atoms: C_10  and  N_19
    7  A    between atoms: C_10  and  C_22
    8  A    between atoms: C_10  and  C_26
    9  A    between atoms: C_13  and  C_24
   10  A    between atoms: C_18  and  C_20
   11  A    between atoms: C_22  and  O_29
   12  A    between atoms: O_29  and  C_30
                            x       y       z     vdW  Elec       q    Type
                         _______ _______ _______ _____ _____    ______ ____

>  <TORSDO>
F 12

$$$$
=
 OpenBabel11042420113D

 30 32  0  0  1  0  0  0  0  0999 V2000
  161.1980  207.6640  148.2180 C   0  0  1  0  0  3  0  0  0  0  0  0
  161.6210  207.0270  146.9820 N   0  0  0  0  0  2  0  0  0  0  0  0
  160.4870  206.2940  146.4500 C   0  0  0  0  0  2  0  0  0  0  0  0
  160.7470  205.9620  144.9960 C   0  0  0  0  0  2  0  0  0  0  0  0
  162.5910  204.3370  145.2820 C   0  0  0  0  0  1  0  0  0  0  0  0
  161.1440  204.5050  144.8680 C   0  0  0  0  0  2  0  0  0  0  0  0
  160.4960  206.6390  149.1020 C   0  0  0  0  0  2  0  0  0  0  0  0
  161.4450  205.9110  149.8750 O   0  0  0  0  0  0  0  0  0  0  0  0
  161.1240  203.4340  149.7970 C   0  0  0  0  0  0  0  0  0  0  0  0
  161.2660  203.3320  148.4040 C   0  0  0  0  0  3  0  0  0  0  0  0
  160.7950  202.3040  151.8970 N   0  0  0  0  0  0  0  0  0  0  0  0
  160.8110  201.0130  149.8950 C   0  0  0  0  0  3  0  0  0  0  0  0
  160.9340  200.9390  148.5070 C   0  0  0  0  0  3  0  0  0  0  0  0
  161.0980  204.6710  151.8790 C   0  0  0  0  0  3  0  0  0  0  0  0
  160.9100  202.2480  150.5440 C   0  0  0  0  0  0  0  0  0  0  0  0
  160.8850  203.4780  152.5710 C   0  0  0  0  0  3  0  0  0  0  0  0
  161.1670  202.0970  147.7620 C   0  0  0  0  0  3  0  0  0  0  0  0
  161.2170  204.6700  150.4880 C   0  0  0  0  0  0  0  0  0  0  0  0
  162.4050  208.2650  148.9320 C   0  0  0  0  0  2  0  0  0  0  0  0
  162.0170  209.3660  149.6990 O   0  0  0  0  0  0  0  0  0  0  0  0
  162.2500  208.9820  151.0210 C   0  0  0  0  0  2  0  0  0  0  0  0
  161.7050  210.0360  151.9660 C   0  0  0  0  0  2  0  0  0  0  0  0
  161.1720  209.4020  153.1640 N   0  0  0  0  0  0  0  0  0  0  0  0
  160.8180  210.1790  154.3240 C   0  0  0  0  0  0  0  0  0  0  0  0
  161.0090  207.9490  153.1640 C   0  0  0  0  0  2  0  0  0  0  0  0
  160.1500  210.2400  156.7460 C   0  0  0  0  0  1  0  0  0  0  0  0
  160.9230  211.4360  154.3050 O   0  0  0  0  0  0  0  0  0  0  0  0
  160.3670  209.5070  155.5090 N   0  0  0  0  0  0  0  0  0  0  0  0
  161.1420  207.3800  154.5750 C   0  0  0  0  0  2  0  0  0  0  0  0
  160.1360  208.0670  155.4920 C   0  0  0  0  0  2  0  0  0  0  0  0
  1 19  1  1  0  0  0
  1  7  1  0  0  0  0
  2  1  1  0  0  0  0
  3  2  1  0  0  0  0
  4  3  1  0  0  0  0
  6  4  1  0  0  0  0
  6  5  1  0  0  0  0
  7  8  1  0  0  0  0
  8 18  1  0  0  0  0
  9 18  2  0  0  0  0
  9 15  1  0  0  0  0
 10  9  1  0  0  0  0
 11 16  1  0  0  0  0
 12 15  1  0  0  0  0
 13 12  2  0  0  0  0
 14 16  2  0  0  0  0
 15 11  2  0  0  0  0
 17 10  2  0  0  0  0
 17 13  1  0  0  0  0
 18 14  1  0  0  0  0
 19 20  1  0  0  0  0
 20 21  1  0  0  0  0
 21 22  1  0  0  0  0
 22 23  1  0  0  0  0
 23 25  1  0  0  0  0
 23 24  1  0  0  0  0
 24 28  1  0  0  0  0
 25 29  1  0  0  0  0
 27 24  2  0  0  0  0
 28 26  1  0  0  0  0
 29 30  1  0  0  0  0
 30 28  1  0  0  0  0
M  END
>  <MODEL>
2

>  <REMARK>
 VINA RESULT:      -7.5      3.691      6.960
  Name = 
  12 active torsions:
  status: ('A' for Active; 'I' for Inactive)
    1  A    between atoms: C_3  and  N_19
    2  A    between atoms: C_3  and  C_20
    3  A    between atoms: N_4  and  C_24
    4  A    between atoms: O_5  and  C_13
    5  A    between atoms: O_5  and  C_26
    6  A    between atoms: C_10  and  N_19
    7  A    between atoms: C_10  and  C_22
    8  A    between atoms: C_10  and  C_26
    9  A    between atoms: C_13  and  C_24
   10  A    between atoms: C_18  and  C_20
   11  A    between atoms: C_22  and  O_29
   12  A    between atoms: O_29  and  C_30
                            x       y       z     vdW  Elec       q    Type
                         _______ _______ _______ _____ _____    ______ ____

>  <TORSDO>
F 12

$$$$
=
 OpenBabel11042420113D

 30 32  0  0  1  0  0  0  0  0999 V2000
  162.1340  208.3900  149.6350 C   0  0  1  0  0  3  0  0  0  0  0  0
  162.0150  208.9020  150.9900 N   0  0  0  0  0  2  0  0  0  0  0  0
  161.9980  207.7670  151.8940 C   0  0  0  0  0  2  0  0  0  0  0  0
  161.1070  208.0850  153.0760 C   0  0  0  0  0  2  0  0  0  0  0  0
  160.3170  207.2220  155.2550 C   0  0  0  0  0  1  0  0  0  0  0  0
  160.9050  206.8390  153.9140 C   0  0  0  0  0  2  0  0  0  0  0  0
  161.0710  207.3210  149.4030 C   0  0  0  0  0  2  0  0  0  0  0  0
  161.6410  206.1780  148.7720 O   0  0  0  0  0  0  0  0  0  0  0  0
  161.2010  203.8130  148.0950 C   0  0  0  0  0  0  0  0  0  0  0  0
  161.4030  204.0350  146.7230 C   0  0  0  0  0  3  0  0  0  0  0  0
  160.7200  202.2410  149.8530 N   0  0  0  0  0  0  0  0  0  0  0  0
  160.7640  201.4610  147.6030 C   0  0  0  0  0  3  0  0  0  0  0  0
  160.9490  201.7090  146.2420 C   0  0  0  0  0  3  0  0  0  0  0  0
  161.1410  204.5230  150.4100 C   0  0  0  0  0  3  0  0  0  0  0  0
  160.8950  202.4990  148.5310 C   0  0  0  0  0  0  0  0  0  0  0  0
  160.8370  203.2160  150.7900 C   0  0  0  0  0  3  0  0  0  0  0  0
  161.2730  202.9940  145.8030 C   0  0  0  0  0  3  0  0  0  0  0  0
  161.3240  204.8430  149.0630 C   0  0  0  0  0  0  0  0  0  0  0  0
  161.9890  209.5320  148.6330 C   0  0  0  0  0  2  0  0  0  0  0  0
  162.0420  210.7630  149.2900 O   0  0  0  0  0  0  0  0  0  0  0  0
  162.4020  211.6810  148.3020 C   0  0  0  0  0  2  0  0  0  0  0  0
  161.1720  212.4300  147.8230 C   0  0  0  0  0  2  0  0  0  0  0  0
  161.3470  212.8390  146.4370 N   0  0  0  0  0  0  0  0  0  0  0  0
  160.2960  212.6600  145.4690 C   0  0  0  0  0  0  0  0  0  0  0  0
  162.6230  213.4370  146.0470 C   0  0  0  0  0  2  0  0  0  0  0  0
  159.5600  212.6980  143.0650 C   0  0  0  0  0  1  0  0  0  0  0  0
  159.1820  212.1800  145.8180 O   0  0  0  0  0  0  0  0  0  0  0  0
  160.5360  213.0090  144.0980 N   0  0  0  0  0  0  0  0  0  0  0  0
  162.9330  213.1640  144.5780 C   0  0  0  0  0  2  0  0  0  0  0  0
  161.7800  213.6700  143.7170 C   0  0  0  0  0  2  0  0  0  0  0  0
  1 19  1  6  0  0  0
  1  2  1  0  0  0  0
  2  3  1  0  0  0  0
  3  4  1  0  0  0  0
  4  6  1  0  0  0  0
  6  5  1  0  0  0  0
  7  1  1  0  0  0  0
  8 18  1  0  0  0  0
  8  7  1  0  0  0  0
  9 15  2  0  0  0  0
  9 18  1  0  0  0  0
 10  9  1  0  0  0  0
 11 16  2  0  0  0  0
 12 15  1  0  0  0  0
 13 12  2  0  0  0  0
 14 16  1  0  0  0  0
 15 11  1  0  0  0  0
 17 13  1  0  0  0  0
 17 10  2  0  0  0  0
 18 14  2  0  0  0  0
 19 20  1  0  0  0  0
 21 20  1  0  0  0  0
 22 21  1  0  0  0  0
 23 22  1  0  0  0  0
 24 27  2  0  0  0  0
 24 23  1  0  0  0  0
 25 23  1  0  0  0  0
 26 28  1  0  0  0  0
 28 24  1  0  0  0  0
 29 25  1  0  0  0  0
 30 28  1  0  0  0  0
 30 29  1  0  0  0  0
M  END
>  <MODEL>
3

>  <REMARK>
 VINA RESULT:      -7.4      1.095      2.058
  Name = 
  12 active torsions:
  status: ('A' for Active; 'I' for Inactive)
    1  A    between atoms: C_3  and  N_19
    2  A    between atoms: C_3  and  C_20
    3  A    between atoms: N_4  and  C_24
    4  A    between atoms: O_5  and  C_13
    5  A    between atoms: O_5  and  C_26
    6  A    between atoms: C_10  and  N_19
    7  A    between atoms: C_10  and  C_22
    8  A    between atoms: C_10  and  C_26
    9  A    between atoms: C_13  and  C_24
   10  A    between atoms: C_18  and  C_20
   11  A    between atoms: C_22  and  O_29
   12  A    between atoms: O_29  and  C_30
                            x       y       z     vdW  Elec       q    Type
                         _______ _______ _______ _____ _____    ______ ____

>  <TORSDO>
F 12

$$$$
=
 OpenBabel11042420113D

 30 32  0  0  1  0  0  0  0  0999 V2000
  162.2840  207.7920  150.7770 C   0  0  1  0  0  3  0  0  0  0  0  0
  161.3110  207.0190  151.5310 N   0  0  0  0  0  2  0  0  0  0  0  0
  162.0390  206.1770  152.4620 C   0  0  0  0  0  2  0  0  0  0  0  0
  161.2150  206.0000  153.7210 C   0  0  0  0  0  2  0  0  0  0  0  0
  160.1900  207.1620  155.6490 C   0  0  0  0  0  1  0  0  0  0  0  0
  161.0370  207.3400  154.4060 C   0  0  0  0  0  2  0  0  0  0  0  0
  162.2280  207.3800  149.3090 C   0  0  0  0  0  2  0  0  0  0  0  0
  161.1740  206.4470  149.0900 O   0  0  0  0  0  0  0  0  0  0  0  0
  161.1350  203.9680  148.7790 C   0  0  0  0  0  0  0  0  0  0  0  0
  160.9040  203.6750  150.1330 C   0  0  0  0  0  3  0  0  0  0  0  0
  161.4150  203.1390  146.5360 N   0  0  0  0  0  0  0  0  0  0  0  0
  161.1060  201.5720  148.3030 C   0  0  0  0  0  3  0  0  0  0  0  0
  160.8960  201.3030  149.6560 C   0  0  0  0  0  3  0  0  0  0  0  0
  161.4510  205.4940  146.9250 C   0  0  0  0  0  3  0  0  0  0  0  0
  161.2180  202.8930  147.8580 C   0  0  0  0  0  0  0  0  0  0  0  0
  161.5300  204.4040  146.0580 C   0  0  0  0  0  3  0  0  0  0  0  0
  160.7900  202.3540  150.5700 C   0  0  0  0  0  3  0  0  0  0  0  0
  161.2570  205.2950  148.2930 C   0  0  0  0  0  0  0  0  0  0  0  0
  162.0010  209.2820  150.9360 C   0  0  0  0  0  2  0  0  0  0  0  0
  160.8580  209.4780  151.7160 O   0  0  0  0  0  0  0  0  0  0  0  0
  160.9840  210.7750  152.2160 C   0  0  0  0  0  2  0  0  0  0  0  0
  160.2980  210.8750  153.5660 C   0  0  0  0  0  2  0  0  0  0  0  0
  159.2330  211.8650  153.5100 N   0  0  0  0  0  0  0  0  0  0  0  0
  158.1010  211.7930  154.3980 C   0  0  0  0  0  0  0  0  0  0  0  0
  159.3360  212.9390  152.5240 C   0  0  0  0  0  2  0  0  0  0  0  0
  155.8100  212.6140  155.0290 C   0  0  0  0  0  1  0  0  0  0  0  0
  158.0340  210.8870  155.2740 O   0  0  0  0  0  0  0  0  0  0  0  0
  157.0380  212.7460  154.2600 N   0  0  0  0  0  0  0  0  0  0  0  0
  157.9560  213.4280  152.0940 C   0  0  0  0  0  2  0  0  0  0  0  0
  157.1680  213.8600  153.3270 C   0  0  0  0  0  2  0  0  0  0  0  0
  1  7  1  6  0  0  0
  1 19  1  0  0  0  0
  1  2  1  0  0  0  0
  2  3  1  0  0  0  0
  3  4  1  0  0  0  0
  4  6  1  0  0  0  0
  6  5  1  0  0  0  0
  8  7  1  0  0  0  0
  9 10  2  0  0  0  0
 10 17  1  0  0  0  0
 11 15  1  0  0  0  0
 12 13  1  0  0  0  0
 13 17  2  0  0  0  0
 14 18  2  0  0  0  0
 15 12  2  0  0  0  0
 15  9  1  0  0  0  0
 16 11  2  0  0  0  0
 16 14  1  0  0  0  0
 18  9  1  0  0  0  0
 18  8  1  0  0  0  0
 19 20  1  0  0  0  0
 20 21  1  0  0  0  0
 21 22  1  0  0  0  0
 23 22  1  0  0  0  0
 23 24  1  0  0  0  0
 24 27  2  0  0  0  0
 25 23  1  0  0  0  0
 28 24  1  0  0  0  0
 28 26  1  0  0  0  0
 29 25  1  0  0  0  0
 29 30  1  0  0  0  0
 30 28  1  0  0  0  0
M  END
>  <MODEL>
4

>  <REMARK>
 VINA RESULT:      -7.4      4.239      5.425
  Name = 
  12 active torsions:
  status: ('A' for Active; 'I' for Inactive)
    1  A    between atoms: C_3  and  N_19
    2  A    between atoms: C_3  and  C_20
    3  A    between atoms: N_4  and  C_24
    4  A    between atoms: O_5  and  C_13
    5  A    between atoms: O_5  and  C_26
    6  A    between atoms: C_10  and  N_19
    7  A    between atoms: C_10  and  C_22
    8  A    between atoms: C_10  and  C_26
    9  A    between atoms: C_13  and  C_24
   10  A    between atoms: C_18  and  C_20
   11  A    between atoms: C_22  and  O_29
   12  A    between atoms: O_29  and  C_30
                            x       y       z     vdW  Elec       q    Type
                         _______ _______ _______ _____ _____    ______ ____

>  <TORSDO>
F 12

$$$$
=
 OpenBabel11042420113D

 30 32  0  0  1  0  0  0  0  0999 V2000
  162.3250  208.8580  150.5930 C   0  0  1  0  0  3  0  0  0  0  0  0
  161.4790  209.3480  151.6680 N   0  0  0  0  0  2  0  0  0  0  0  0
  160.9140  208.1970  152.3480 C   0  0  0  0  0  2  0  0  0  0  0  0
  160.8950  208.4610  153.8390 C   0  0  0  0  0  2  0  0  0  0  0  0
  161.1870  206.0150  153.6100 C   0  0  0  0  0  1  0  0  0  0  0  0
  160.9600  207.1470  154.5910 C   0  0  0  0  0  2  0  0  0  0  0  0
  162.1040  207.3590  150.4190 C   0  0  0  0  0  2  0  0  0  0  0  0
  161.3060  207.1010  149.2680 O   0  0  0  0  0  0  0  0  0  0  0  0
  161.2390  204.6740  148.6750 C   0  0  0  0  0  0  0  0  0  0  0  0
  160.7650  204.2520  149.9280 C   0  0  0  0  0  3  0  0  0  0  0  0
  161.8790  204.0750  146.4330 N   0  0  0  0  0  0  0  0  0  0  0  0
  161.2140  202.3480  147.9320 C   0  0  0  0  0  3  0  0  0  0  0  0
  160.7630  201.9480  149.1910 C   0  0  0  0  0  3  0  0  0  0  0  0
  161.9240  206.3700  147.0870 C   0  0  0  0  0  3  0  0  0  0  0  0
  161.4460  203.7000  147.6660 C   0  0  0  0  0  0  0  0  0  0  0  0
  162.1180  205.3760  146.1280 C   0  0  0  0  0  3  0  0  0  0  0  0
  160.5330  202.9000  150.1870 C   0  0  0  0  0  3  0  0  0  0  0  0
  161.4880  206.0380  148.3710 C   0  0  0  0  0  0  0  0  0  0  0  0
  162.0140  209.6090  149.3030 C   0  0  0  0  0  2  0  0  0  0  0  0
  162.0230  210.9880  149.5300 O   0  0  0  0  0  0  0  0  0  0  0  0
  162.4360  211.5470  148.3190 C   0  0  0  0  0  2  0  0  0  0  0  0
  161.9710  212.9890  148.2340 C   0  0  0  0  0  2  0  0  0  0  0  0
  160.7560  213.0740  147.4370 N   0  0  0  0  0  0  0  0  0  0  0  0
  159.4810  213.3460  148.0500 C   0  0  0  0  0  0  0  0  0  0  0  0
  160.8580  212.8700  145.9930 C   0  0  0  0  0  2  0  0  0  0  0  0
  156.9780  213.4630  147.8410 C   0  0  0  0  0  1  0  0  0  0  0  0
  159.4030  213.5600  149.2910 O   0  0  0  0  0  0  0  0  0  0  0  0
  158.2980  213.3470  147.2380 N   0  0  0  0  0  0  0  0  0  0  0  0
  159.5630  212.2970  145.4240 C   0  0  0  0  0  2  0  0  0  0  0  0
  158.4020  213.2150  145.7890 C   0  0  0  0  0  2  0  0  0  0  0  0
  1 19  1  6  0  0  0
  1  2  1  0  0  0  0
  2  3  1  0  0  0  0
  3  4  1  0  0  0  0
  4  6  1  0  0  0  0
  5  6  1  0  0  0  0
  7  1  1  0  0  0  0
  8  7  1  0  0  0  0
  9 10  2  0  0  0  0
 10 17  1  0  0  0  0
 11 15  1  0  0  0  0
 12 13  1  0  0  0  0
 13 17  2  0  0  0  0
 14 18  2  0  0  0  0
 15 12  2  0  0  0  0
 15  9  1  0  0  0  0
 16 11  2  0  0  0  0
 16 14  1  0  0  0  0
 18  9  1  0  0  0  0
 18  8  1  0  0  0  0
 19 20  1  0  0  0  0
 21 20  1  0  0  0  0
 22 21  1  0  0  0  0
 23 24  1  0  0  0  0
 23 22  1  0  0  0  0
 24 27  2  0  0  0  0
 25 23  1  0  0  0  0
 28 26  1  0  0  0  0
 28 24  1  0  0  0  0
 29 30  1  0  0  0  0
 29 25  1  0  0  0  0
 30 28  1  0  0  0  0
M  END
>  <MODEL>
5

>  <REMARK>
 VINA RESULT:      -7.4      1.562      2.116
  Name = 
  12 active torsions:
  status: ('A' for Active; 'I' for Inactive)
    1  A    between atoms: C_3  and  N_19
    2  A    between atoms: C_3  and  C_20
    3  A    between atoms: N_4  and  C_24
    4  A    between atoms: O_5  and  C_13
    5  A    between atoms: O_5  and  C_26
    6  A    between atoms: C_10  and  N_19
    7  A    between atoms: C_10  and  C_22
    8  A    between atoms: C_10  and  C_26
    9  A    between atoms: C_13  and  C_24
   10  A    between atoms: C_18  and  C_20
   11  A    between atoms: C_22  and  O_29
   12  A    between atoms: O_29  and  C_30
                            x       y       z     vdW  Elec       q    Type
                         _______ _______ _______ _____ _____    ______ ____

>  <TORSDO>
F 12

$$$$
=
 OpenBabel11042420113D

 30 32  0  0  1  0  0  0  0  0999 V2000
  161.4950  208.0190  149.7260 C   0  0  1  0  0  3  0  0  0  0  0  0
  162.1080  209.0010  148.8470 N   0  0  0  0  0  2  0  0  0  0  0  0
  162.0490  210.2900  149.5120 C   0  0  0  0  0  2  0  0  0  0  0  0
  162.4230  211.3750  148.5250 C   0  0  0  0  0  2  0  0  0  0  0  0
  160.5830  212.4590  147.2760 C   0  0  0  0  0  1  0  0  0  0  0  0
  161.3850  212.4780  148.5610 C   0  0  0  0  0  2  0  0  0  0  0  0
  160.8490  206.9210  148.8860 C   0  0  0  0  0  2  0  0  0  0  0  0
  161.8450  206.1170  148.2620 O   0  0  0  0  0  0  0  0  0  0  0  0
  161.3410  203.6810  148.5010 C   0  0  0  0  0  0  0  0  0  0  0  0
  161.2010  203.7170  149.8970 C   0  0  0  0  0  3  0  0  0  0  0  0
  161.2400  202.3790  146.4780 N   0  0  0  0  0  0  0  0  0  0  0  0
  160.8440  201.2900  148.5590 C   0  0  0  0  0  3  0  0  0  0  0  0
  160.7300  201.3450  149.9490 C   0  0  0  0  0  3  0  0  0  0  0  0
  161.7270  204.7110  146.3430 C   0  0  0  0  0  3  0  0  0  0  0  0
  161.1400  202.4470  147.8310 C   0  0  0  0  0  0  0  0  0  0  0  0
  161.5250  203.4750  145.7300 C   0  0  0  0  0  3  0  0  0  0  0  0
  160.9030  202.5590  150.6180 C   0  0  0  0  0  3  0  0  0  0  0  0
  161.6430  204.8340  147.7310 C   0  0  0  0  0  0  0  0  0  0  0  0
  162.5450  207.4390  150.6680 C   0  0  0  0  0  2  0  0  0  0  0  0
  161.9320  206.6990  151.6810 O   0  0  0  0  0  0  0  0  0  0  0  0
  160.9640  207.5530  152.2130 C   0  0  0  0  0  2  0  0  0  0  0  0
  161.0050  207.4960  153.7290 C   0  0  0  0  0  2  0  0  0  0  0  0
  160.9020  208.8400  154.2800 N   0  0  0  0  0  0  0  0  0  0  0  0
  160.3000  209.0730  155.5670 C   0  0  0  0  0  0  0  0  0  0  0  0
  161.4240  209.9540  153.4900 C   0  0  0  0  0  2  0  0  0  0  0  0
  159.4110  210.7070  157.2580 C   0  0  0  0  0  1  0  0  0  0  0  0
  159.8860  208.1050  156.2630 O   0  0  0  0  0  0  0  0  0  0  0  0
  160.1520  210.4200  156.0400 N   0  0  0  0  0  0  0  0  0  0  0  0
  160.6680  211.2450  153.7920 C   0  0  0  0  0  2  0  0  0  0  0  0
  160.7330  211.5280  155.2900 C   0  0  0  0  0  2  0  0  0  0  0  0
  1  7  1  6  0  0  0
  1 19  1  0  0  0  0
  2  3  1  0  0  0  0
  2  1  1  0  0  0  0
  4  6  1  0  0  0  0
  4  3  1  0  0  0  0
  5  6  1  0  0  0  0
  8  7  1  0  0  0  0
  9 10  2  0  0  0  0
 10 17  1  0  0  0  0
 11 15  1  0  0  0  0
 12 13  1  0  0  0  0
 13 17  2  0  0  0  0
 14 18  2  0  0  0  0
 15  9  1  0  0  0  0
 15 12  2  0  0  0  0
 16 14  1  0  0  0  0
 16 11  2  0  0  0  0
 18  8  1  0  0  0  0
 18  9  1  0  0  0  0
 19 20  1  0  0  0  0
 20 21  1  0  0  0  0
 21 22  1  0  0  0  0
 22 23  1  0  0  0  0
 23 24  1  0  0  0  0
 24 28  1  0  0  0  0
 24 27  2  0  0  0  0
 25 29  1  0  0  0  0
 25 23  1  0  0  0  0
 28 26  1  0  0  0  0
 29 30  1  0  0  0  0
 30 28  1  0  0  0  0
M  END
>  <MODEL>
6

>  <REMARK>
 VINA RESULT:      -7.4      2.684      6.692
  Name = 
  12 active torsions:
  status: ('A' for Active; 'I' for Inactive)
    1  A    between atoms: C_3  and  N_19
    2  A    between atoms: C_3  and  C_20
    3  A    between atoms: N_4  and  C_24
    4  A    between atoms: O_5  and  C_13
    5  A    between atoms: O_5  and  C_26
    6  A    between atoms: C_10  and  N_19
    7  A    between atoms: C_10  and  C_22
    8  A    between atoms: C_10  and  C_26
    9  A    between atoms: C_13  and  C_24
   10  A    between atoms: C_18  and  C_20
   11  A    between atoms: C_22  and  O_29
   12  A    between atoms: O_29  and  C_30
                            x       y       z     vdW  Elec       q    Type
                         _______ _______ _______ _____ _____    ______ ____

>  <TORSDO>
F 12

$$$$
=
 OpenBabel11042420113D

 30 32  0  0  1  0  0  0  0  0999 V2000
  161.8160  208.9610  149.9390 C   0  0  1  0  0  3  0  0  0  0  0  0
  162.0740  209.7850  148.7710 N   0  0  0  0  0  2  0  0  0  0  0  0
  162.0910  211.1710  149.2000 C   0  0  0  0  0  2  0  0  0  0  0  0
  162.6400  212.0310  148.0810 C   0  0  0  0  0  2  0  0  0  0  0  0
  160.6480  213.4250  148.5400 C   0  0  0  0  0  1  0  0  0  0  0  0
  161.5150  212.8280  147.4510 C   0  0  0  0  0  2  0  0  0  0  0  0
  162.4240  207.5780  149.7280 C   0  0  0  0  0  2  0  0  0  0  0  0
  161.4010  206.6030  149.5500 O   0  0  0  0  0  0  0  0  0  0  0  0
  161.1100  204.1340  149.8080 C   0  0  0  0  0  0  0  0  0  0  0  0
  161.1640  203.8570  148.4320 C   0  0  0  0  0  3  0  0  0  0  0  0
  160.9320  203.2800  152.0510 N   0  0  0  0  0  0  0  0  0  0  0  0
  160.8370  201.7450  150.2330 C   0  0  0  0  0  3  0  0  0  0  0  0
  160.8730  201.4940  148.8600 C   0  0  0  0  0  3  0  0  0  0  0  0
  161.2010  205.6270  151.7130 C   0  0  0  0  0  3  0  0  0  0  0  0
  160.9610  203.0520  150.7120 C   0  0  0  0  0  0  0  0  0  0  0  0
  161.0480  204.5310  152.5630 C   0  0  0  0  0  3  0  0  0  0  0  0
  161.0420  202.5490  147.9600 C   0  0  0  0  0  3  0  0  0  0  0  0
  161.2300  205.4490  150.3290 C   0  0  0  0  0  0  0  0  0  0  0  0
  162.3950  209.6280  151.1830 C   0  0  0  0  0  2  0  0  0  0  0  0
  161.8280  209.0790  152.3360 O   0  0  0  0  0  0  0  0  0  0  0  0
  161.6030  210.1690  153.1790 C   0  0  0  0  0  2  0  0  0  0  0  0
  160.2370  210.0440  153.8270 C   0  0  0  0  0  2  0  0  0  0  0  0
  159.4250  211.2080  153.5030 N   0  0  0  0  0  0  0  0  0  0  0  0
  158.2380  211.5220  154.2560 C   0  0  0  0  0  0  0  0  0  0  0  0
  159.8420  212.0540  152.3860 C   0  0  0  0  0  2  0  0  0  0  0  0
  156.1430  212.8910  154.4920 C   0  0  0  0  0  1  0  0  0  0  0  0
  157.9040  210.8120  155.2440 O   0  0  0  0  0  0  0  0  0  0  0  0
  157.4260  212.6360  153.8570 N   0  0  0  0  0  0  0  0  0  0  0  0
  158.6420  212.7360  151.7330 C   0  0  0  0  0  2  0  0  0  0  0  0
  157.8740  213.5230  152.7890 C   0  0  0  0  0  2  0  0  0  0  0  0
  1  7  1  6  0  0  0
  1 19  1  0  0  0  0
  2  3  1  0  0  0  0
  2  1  1  0  0  0  0
  4  3  1  0  0  0  0
  6  4  1  0  0  0  0
  6  5  1  0  0  0  0
  8  7  1  0  0  0  0
  8 18  1  0  0  0  0
  9 18  2  0  0  0  0
  9 15  1  0  0  0  0
 10  9  1  0  0  0  0
 11 16  1  0  0  0  0
 12 15  1  0  0  0  0
 13 12  2  0  0  0  0
 14 16  2  0  0  0  0
 15 11  2  0  0  0  0
 17 10  2  0  0  0  0
 17 13  1  0  0  0  0
 18 14  1  0  0  0  0
 19 20  1  0  0  0  0
 20 21  1  0  0  0  0
 21 22  1  0  0  0  0
 23 22  1  0  0  0  0
 23 24  1  0  0  0  0
 24 27  2  0  0  0  0
 25 23  1  0  0  0  0
 28 24  1  0  0  0  0
 28 26  1  0  0  0  0
 29 25  1  0  0  0  0
 29 30  1  0  0  0  0
 30 28  1  0  0  0  0
M  END
>  <MODEL>
7

>  <REMARK>
 VINA RESULT:      -7.1      3.424      6.312
  Name = 
  12 active torsions:
  status: ('A' for Active; 'I' for Inactive)
    1  A    between atoms: C_3  and  N_19
    2  A    between atoms: C_3  and  C_20
    3  A    between atoms: N_4  and  C_24
    4  A    between atoms: O_5  and  C_13
    5  A    between atoms: O_5  and  C_26
    6  A    between atoms: C_10  and  N_19
    7  A    between atoms: C_10  and  C_22
    8  A    between atoms: C_10  and  C_26
    9  A    between atoms: C_13  and  C_24
   10  A    between atoms: C_18  and  C_20
   11  A    between atoms: C_22  and  O_29
   12  A    between atoms: O_29  and  C_30
                            x       y       z     vdW  Elec       q    Type
                         _______ _______ _______ _____ _____    ______ ____

>  <TORSDO>
F 12

$$$$
=
 OpenBabel11042420113D

 30 32  0  0  1  0  0  0  0  0999 V2000
  161.7110  208.4280  150.3080 C   0  0  1  0  0  3  0  0  0  0  0  0
  162.2810  207.2940  151.0170 N   0  0  0  0  0  2  0  0  0  0  0  0
  161.2140  206.6600  151.7710 C   0  0  0  0  0  2  0  0  0  0  0  0
  160.9630  205.2760  151.2090 C   0  0  0  0  0  2  0  0  0  0  0  0
  161.3850  202.8990  151.7500 C   0  0  0  0  0  1  0  0  0  0  0  0
  161.0260  204.2530  152.3250 C   0  0  0  0  0  2  0  0  0  0  0  0
  162.2710  209.7210  150.8910 C   0  0  0  0  0  2  0  0  0  0  0  0
  162.2510  209.6790  152.3140 O   0  0  0  0  0  0  0  0  0  0  0  0
  160.8760  209.7020  154.4010 C   0  0  0  0  0  0  0  0  0  0  0  0
  161.4990  208.5820  154.9750 C   0  0  0  0  0  3  0  0  0  0  0  0
  159.2480  211.4610  154.6220 N   0  0  0  0  0  0  0  0  0  0  0  0
  159.4620  209.8750  156.3850 C   0  0  0  0  0  3  0  0  0  0  0  0
  160.0820  208.7480  156.9280 C   0  0  0  0  0  3  0  0  0  0  0  0
  160.5960  211.3580  152.6560 C   0  0  0  0  0  3  0  0  0  0  0  0
  159.8550  210.3590  155.1340 C   0  0  0  0  0  0  0  0  0  0  0  0
  159.5950  211.9680  153.4120 C   0  0  0  0  0  3  0  0  0  0  0  0
  161.1040  208.1050  156.2260 C   0  0  0  0  0  3  0  0  0  0  0  0
  161.2480  210.2190  153.1330 C   0  0  0  0  0  0  0  0  0  0  0  0
  162.0230  208.3190  148.8190 C   0  0  0  0  0  2  0  0  0  0  0  0
  161.2530  207.3120  148.2340 O   0  0  0  0  0  0  0  0  0  0  0  0
  162.1630  206.5400  147.5100 C   0  0  0  0  0  2  0  0  0  0  0  0
  161.4590  205.8760  146.3410 C   0  0  0  0  0  2  0  0  0  0  0  0
  161.3590  204.4420  146.5710 N   0  0  0  0  0  0  0  0  0  0  0  0
  160.8690  203.5550  145.5460 C   0  0  0  0  0  0  0  0  0  0  0  0
  161.7640  203.9190  147.8740 C   0  0  0  0  0  2  0  0  0  0  0  0
  160.0810  201.2610  144.8870 C   0  0  0  0  0  1  0  0  0  0  0  0
  160.5570  204.0060  144.4090 O   0  0  0  0  0  0  0  0  0  0  0  0
  160.7160  202.1590  145.8390 N   0  0  0  0  0  0  0  0  0  0  0  0
  160.9930  202.6480  148.2230 C   0  0  0  0  0  2  0  0  0  0  0  0
  161.1850  201.6220  147.1110 C   0  0  0  0  0  2  0  0  0  0  0  0
  1 19  1  6  0  0  0
  1  7  1  0  0  0  0
  1  2  1  0  0  0  0
  2  3  1  0  0  0  0
  4  3  1  0  0  0  0
  4  6  1  0  0  0  0
  5  6  1  0  0  0  0
  7  8  1  0  0  0  0
  8 18  1  0  0  0  0
  9 10  2  0  0  0  0
  9 15  1  0  0  0  0
 10 17  1  0  0  0  0
 11 15  1  0  0  0  0
 12 13  1  0  0  0  0
 14 18  2  0  0  0  0
 14 16  1  0  0  0  0
 15 12  2  0  0  0  0
 16 11  2  0  0  0  0
 17 13  2  0  0  0  0
 18  9  1  0  0  0  0
 20 19  1  0  0  0  0
 21 20  1  0  0  0  0
 22 23  1  0  0  0  0
 22 21  1  0  0  0  0
 23 25  1  0  0  0  0
 24 28  1  0  0  0  0
 24 23  1  0  0  0  0
 25 29  1  0  0  0  0
 26 28  1  0  0  0  0
 27 24  2  0  0  0  0
 28 30  1  0  0  0  0
 30 29  1  0  0  0  0
M  END
>  <MODEL>
8

>  <REMARK>
 VINA RESULT:      -7.0      3.902      7.882
  Name = 
  12 active torsions:
  status: ('A' for Active; 'I' for Inactive)
    1  A    between atoms: C_3  and  N_19
    2  A    between atoms: C_3  and  C_20
    3  A    between atoms: N_4  and  C_24
    4  A    between atoms: O_5  and  C_13
    5  A    between atoms: O_5  and  C_26
    6  A    between atoms: C_10  and  N_19
    7  A    between atoms: C_10  and  C_22
    8  A    between atoms: C_10  and  C_26
    9  A    between atoms: C_13  and  C_24
   10  A    between atoms: C_18  and  C_20
   11  A    between atoms: C_22  and  O_29
   12  A    between atoms: O_29  and  C_30
                            x       y       z     vdW  Elec       q    Type
                         _______ _______ _______ _____ _____    ______ ____

>  <TORSDO>
F 12

$$$$
=
 OpenBabel11042420113D

 30 32  0  0  1  0  0  0  0  0999 V2000
  161.3510  206.0640  152.0050 C   0  0  1  0  0  3  0  0  0  0  0  0
  162.5790  206.8110  151.7900 N   0  0  0  0  0  2  0  0  0  0  0  0
  162.2350  208.0370  151.0920 C   0  0  0  0  0  2  0  0  0  0  0  0
  161.4490  207.6940  149.8440 C   0  0  0  0  0  2  0  0  0  0  0  0
  161.9580  209.9850  149.0610 C   0  0  0  0  0  1  0  0  0  0  0  0
  161.9560  208.5200  148.6790 C   0  0  0  0  0  2  0  0  0  0  0  0
  161.5800  204.6000  151.6420 C   0  0  0  0  0  2  0  0  0  0  0  0
  160.5810  204.1480  150.7330 O   0  0  0  0  0  0  0  0  0  0  0  0
  161.0810  203.6570  148.3340 C   0  0  0  0  0  0  0  0  0  0  0  0
  161.2010  205.0030  147.9530 C   0  0  0  0  0  3  0  0  0  0  0  0
  161.2100  201.3410  147.6920 N   0  0  0  0  0  0  0  0  0  0  0  0
  161.5770  203.0090  146.0320 C   0  0  0  0  0  3  0  0  0  0  0  0
  161.6700  204.3540  145.6710 C   0  0  0  0  0  3  0  0  0  0  0  0
  160.7260  201.8990  149.9610 C   0  0  0  0  0  3  0  0  0  0  0  0
  161.2910  202.6540  147.3540 C   0  0  0  0  0  0  0  0  0  0  0  0
  160.9360  200.9490  148.9620 C   0  0  0  0  0  3  0  0  0  0  0  0
  161.4880  205.3510  146.6320 C   0  0  0  0  0  3  0  0  0  0  0  0
  160.7910  203.2620  149.6660 C   0  0  0  0  0  0  0  0  0  0  0  0
  160.9050  206.2030  153.4570 C   0  0  0  0  0  2  0  0  0  0  0  0
  161.6190  207.2240  154.0880 O   0  0  0  0  0  0  0  0  0  0  0  0
  160.7530  207.7140  155.0670 C   0  0  0  0  0  2  0  0  0  0  0  0
  161.2180  209.0840  155.5260 C   0  0  0  0  0  2  0  0  0  0  0  0
  160.6350  210.1160  154.6810 N   0  0  0  0  0  0  0  0  0  0  0  0
  159.3460  210.6860  154.9820 C   0  0  0  0  0  0  0  0  0  0  0  0
  161.3890  210.5600  153.5100 C   0  0  0  0  0  2  0  0  0  0  0  0
  157.4150  212.1270  154.2670 C   0  0  0  0  0  1  0  0  0  0  0  0
  158.7160  210.3280  156.0150 O   0  0  0  0  0  0  0  0  0  0  0  0
  158.7760  211.6470  154.0820 N   0  0  0  0  0  0  0  0  0  0  0  0
  160.4550  211.0440  152.4040 C   0  0  0  0  0  2  0  0  0  0  0  0
  159.5530  212.1450  152.9530 C   0  0  0  0  0  2  0  0  0  0  0  0
  1  7  1  1  0  0  0
  1 19  1  0  0  0  0
  2  1  1  0  0  0  0
  3  2  1  0  0  0  0
  4  3  1  0  0  0  0
  6  5  1  0  0  0  0
  6  4  1  0  0  0  0
  8  7  1  0  0  0  0
  9 18  1  0  0  0  0
 10  9  1  0  0  0  0
 11 16  2  0  0  0  0
 12 15  1  0  0  0  0
 13 12  2  0  0  0  0
 13 17  1  0  0  0  0
 15 11  1  0  0  0  0
 15  9  2  0  0  0  0
 16 14  1  0  0  0  0
 17 10  2  0  0  0  0
 18 14  2  0  0  0  0
 18  8  1  0  0  0  0
 19 20  1  0  0  0  0
 20 21  1  0  0  0  0
 21 22  1  0  0  0  0
 23 24  1  0  0  0  0
 23 22  1  0  0  0  0
 24 27  2  0  0  0  0
 25 23  1  0  0  0  0
 28 26  1  0  0  0  0
 28 24  1  0  0  0  0
 29 30  1  0  0  0  0
 29 25  1  0  0  0  0
 30 28  1  0  0  0  0
M  END
>  <MODEL>
9

>  <REMARK>
 VINA RESULT:      -7.0      4.174      6.436
  Name = 
  12 active torsions:
  status: ('A' for Active; 'I' for Inactive)
    1  A    between atoms: C_3  and  N_19
    2  A    between atoms: C_3  and  C_20
    3  A    between atoms: N_4  and  C_24
    4  A    between atoms: O_5  and  C_13
    5  A    between atoms: O_5  and  C_26
    6  A    between atoms: C_10  and  N_19
    7  A    between atoms: C_10  and  C_22
    8  A    between atoms: C_10  and  C_26
    9  A    between atoms: C_13  and  C_24
   10  A    between atoms: C_18  and  C_20
   11  A    between atoms: C_22  and  O_29
   12  A    between atoms: O_29  and  C_30
                            x       y       z     vdW  Elec       q    Type
                         _______ _______ _______ _____ _____    ______ ____

>  <TORSDO>
F 12

$$$$
