=
 OpenBabel11042420313D

 49 51  0  0  1  0  0  0  0  0999 V2000
  161.0750  207.1290  154.6570 C   0  0  0  0  0  3  0  0  0  0  0  0
  160.9770  206.8140  148.9300 C   0  0  0  0  0  3  0  0  0  0  0  0
  157.6420  214.4530  155.9070 O   0  0  0  0  0  0  0  0  0  0  0  0
  161.9550  206.5640  152.5220 O   0  0  0  0  0  0  0  0  0  0  0  0
  158.2070  213.3870  155.5470 C   0  0  0  0  0  0  0  0  0  0  0  0
  159.8850  210.9630  153.3950 C   0  0  0  0  0  3  0  0  0  0  0  0
  161.3620  209.3260  151.5770 C   0  0  0  0  0  3  0  0  0  0  0  0
  159.0450  211.3330  155.6130 C   0  0  0  0  0  0  0  0  0  0  0  0
  160.4470  207.9930  155.5500 C   0  0  0  0  0  3  0  0  0  0  0  0
  161.5840  208.6780  150.4330 C   0  0  0  0  0  0  0  0  0  0  0  0
  159.4370  210.0990  156.0150 N   0  0  0  0  0  0  0  0  0  0  0  0
  160.2990  209.6730  153.7900 C   0  0  0  0  0  0  0  0  0  0  0  0
  160.0510  209.2600  155.1310 C   0  0  0  0  0  0  0  0  0  0  0  0
  161.1130  204.4980  149.5970 C   0  0  0  0  0  0  0  0  0  0  0  0
  161.3170  207.5050  153.3320 C   0  0  0  0  0  0  0  0  0  0  0  0
  158.4020  212.2880  156.4360 N   0  0  0  0  0  2  0  0  0  0  0  0
  161.4860  204.8990  150.8810 C   0  0  0  0  0  3  0  0  0  0  0  0
  160.9430  208.7940  152.8860 C   0  0  0  0  0  0  0  0  0  0  0  0
  158.7270  213.1550  154.1600 C   0  0  0  0  0  2  0  0  0  0  0  0
  161.3450  207.2340  150.2210 C   0  0  0  0  0  0  0  0  0  0  0  0
  159.2520  211.7740  154.3320 C   0  0  0  0  0  0  0  0  0  0  0  0
  160.8480  205.4590  148.6230 C   0  0  0  0  0  3  0  0  0  0  0  0
  161.5870  206.2560  151.2120 C   0  0  0  0  0  0  0  0  0  0  0  0
  161.0010  203.0510  149.2650 C   0  0  0  0  0  2  0  0  0  0  0  0
  161.5800  202.7960  148.0190 O   0  0  0  0  0  0  0  0  0  0  0  0
  160.4540  201.6940  145.6240 C   0  0  0  0  0  1  0  0  0  0  0  0
  161.5640  200.2040  147.6090 O   0  0  0  0  0  0  0  0  0  0  0  0
  159.2450  201.2900  148.1790 O   0  0  0  0  0  1  0  0  0  0  0  0
  160.7410  201.4570  147.4020 P   0  0  1  0  0  0  0  0  0  0  0  0
  162.0520  209.5210  149.2880 C   0  0  0  0  0  2  0  0  0  0  0  0
  161.9570  210.9980  149.6440 C   0  0  0  0  0  2  0  0  0  0  0  0
  162.3110  211.8630  148.4420 C   0  0  0  0  0  2  0  0  0  0  0  0
  161.1390  212.3740  147.8670 O   0  0  0  0  0  0  0  0  0  0  0  0
  161.3460  213.7140  147.7780 N   0  0  0  0  0  0  0  0  0  0  0  0
  160.3080  214.3740  148.5820 C   0  0  2  0  0  3  0  0  0  0  0  0
  160.5420  214.2200  149.9540 O   0  0  0  0  0  1  0  0  0  0  0  0
  157.9290  214.2070  149.3030 C   0  0  0  0  0  1  0  0  0  0  0  0
  158.9220  213.8640  148.2070 C   0  0  0  0  0  2  0  0  0  0  0  0
  161.2030  214.0840  146.3710 C   0  0  0  0  0  2  0  0  0  0  0  0
  160.9970  212.8390  145.5150 C   0  0  0  0  0  1  0  0  0  0  0  0
  161.6600  213.0330  144.1580 O   0  0  0  0  0  1  0  0  0  0  0  0
  161.3780  212.3240  143.9900 O   0  0  0  0  0  0  0  0  0  0  0  0
  160.8940  212.8580  142.9540 C   0  0  0  0  0  1  0  0  0  0  0  0
  161.5730  212.8130  141.6300 C   0  0  0  0  0  1  0  0  0  0  0  0
  160.7090  212.2580  140.6850 O   0  0  0  0  0  0  0  0  0  0  0  0
  161.3640  211.1090  140.2350 C   0  0  2  0  0  3  0  0  0  0  0  0
  162.7270  211.2030  140.5190 O   0  0  0  0  0  1  0  0  0  0  0  0
  162.3530  210.5000  138.1560 O   0  0  0  0  0  1  0  0  0  0  0  0
  161.1690  210.9530  138.7410 C   0  0  0  0  0  2  0  0  0  0  0  0
  1  9  1  0  0  0  0
  2 20  1  0  0  0  0
  4 15  1  0  0  0  0
  5  3  2  0  0  0  0
  5 16  1  0  0  0  0
  6 12  1  0  0  0  0
  6 21  2  0  0  0  0
  7 18  1  0  0  0  0
  8 11  2  0  0  0  0
  8 16  1  0  0  0  0
 10  7  2  0  0  0  0
 12 13  1  0  0  0  0
 13  9  2  0  0  0  0
 13 11  1  0  0  0  0
 14 17  2  0  0  0  0
 15  1  2  0  0  0  0
 17 23  1  0  0  0  0
 18 15  1  0  0  0  0
 18 12  2  0  0  0  0
 19 21  1  0  0  0  0
 19  5  1  0  0  0  0
 20 10  1  0  0  0  0
 20 23  2  0  0  0  0
 21  8  1  0  0  0  0
 22  2  2  0  0  0  0
 22 14  1  0  0  0  0
 23  4  1  0  0  0  0
 24 14  1  0  0  0  0
 25 24  1  0  0  0  0
 29 26  1  6  0  0  0
 29 27  2  0  0  0  0
 29 25  1  0  0  0  0
 29 28  1  0  0  0  0
 30 31  1  0  0  0  0
 30 10  1  0  0  0  0
 32 31  1  0  0  0  0
 33 32  1  0  0  0  0
 34 33  1  0  0  0  0
 34 35  1  0  0  0  0
 35 36  1  1  0  0  0
 38 35  1  0  0  0  0
 38 37  1  0  0  0  0
 39 34  1  0  0  0  0
 40 39  1  0  0  0  0
 42 41  1  0  0  0  0
 43 42  1  0  0  0  0
 45 44  1  0  0  0  0
 46 47  1  6  0  0  0
 46 45  1  0  0  0  0
 48 49  1  0  0  0  0
 49 46  1  0  0  0  0
M  END
>  <MODEL>
1

>  <REMARK>
 VINA RESULT:      -7.4      0.000      0.000
  Name = 
  18 active torsions:
  status: ('A' for Active; 'I' for Inactive)
    1  A    between atoms: C_1  and  C_22
    2  A    between atoms: C_1  and  C_45
    3  A    between atoms: C_2  and  C_26
    4  A    between atoms: C_2  and  N_33
    5  A    between atoms: C_3  and  O_21
    6  A    between atoms: C_3  and  C_30
    7  A    between atoms: C_7  and  O_21
    8  A    between atoms: C_7  and  C_32
    9  A    between atoms: C_18  and  C_22
   10  A    between atoms: C_23  and  C_28
   11  A    between atoms: C_23  and  O_48
   12  A    between atoms: C_30  and  O_43
   13  A    between atoms: N_33  and  O_34
   14  A    between atoms: N_33  and  C_44
   15  A    between atoms: O_34  and  C_45
   16  A    between atoms: P_41  and  O_48
   17  A    between atoms: O_43  and  C_47
   18  A    between atoms: C_44  and  C_47
                            x       y       z     vdW  Elec       q    Type
                         _______ _______ _______ _____ _____    ______ ____

>  <TORSDO>
F 18

$$$$
=
 OpenBabel11042420313D

 49 51  0  0  1  0  0  0  0  0999 V2000
  161.7200  205.5370  152.6510 C   0  0  0  0  0  3  0  0  0  0  0  0
  161.1260  207.3070  147.2270 C   0  0  0  0  0  3  0  0  0  0  0  0
  158.7040  211.9460  156.7540 O   0  0  0  0  0  0  0  0  0  0  0  0
  162.3920  205.7730  150.3840 O   0  0  0  0  0  0  0  0  0  0  0  0
  159.1930  211.0760  155.9860 C   0  0  0  0  0  0  0  0  0  0  0  0
  160.5840  209.5770  152.9620 C   0  0  0  0  0  3  0  0  0  0  0  0
  161.8340  208.6940  150.5490 C   0  0  0  0  0  3  0  0  0  0  0  0
  159.9500  209.1300  155.2340 C   0  0  0  0  0  0  0  0  0  0  0  0
  161.2060  206.0270  153.8490 C   0  0  0  0  0  3  0  0  0  0  0  0
  161.9320  208.5000  149.2340 C   0  0  0  0  0  0  0  0  0  0  0  0
  160.3240  207.8310  155.1290 N   0  0  0  0  0  0  0  0  0  0  0  0
  160.9770  208.2280  152.8290 C   0  0  0  0  0  0  0  0  0  0  0  0
  160.8270  207.3620  153.9500 C   0  0  0  0  0  0  0  0  0  0  0  0
  161.2240  204.9050  147.0050 C   0  0  0  0  0  0  0  0  0  0  0  0
  161.8640  206.3630  151.5320 C   0  0  0  0  0  0  0  0  0  0  0  0
  159.4180  209.7290  156.4000 N   0  0  0  0  0  2  0  0  0  0  0  0
  161.7200  204.8140  148.3060 C   0  0  0  0  0  3  0  0  0  0  0  0
  161.5060  207.7290  151.6140 C   0  0  0  0  0  0  0  0  0  0  0  0
  159.5840  211.3550  154.5650 C   0  0  0  0  0  2  0  0  0  0  0  0
  161.6180  207.2310  148.5420 C   0  0  0  0  0  0  0  0  0  0  0  0
  160.0650  210.0010  154.1820 C   0  0  0  0  0  0  0  0  0  0  0  0
  160.9170  206.1540  146.4680 C   0  0  0  0  0  3  0  0  0  0  0  0
  161.9030  205.9600  149.0900 C   0  0  0  0  0  0  0  0  0  0  0  0
  161.0260  203.6750  146.1890 C   0  0  0  0  0  2  0  0  0  0  0  0
  161.8040  202.6300  146.6940 O   0  0  0  0  0  0  0  0  0  0  0  0
  159.9520  201.5280  148.5830 C   0  0  0  0  0  1  0  0  0  0  0  0
  159.6440  201.3780  145.8860 O   0  0  0  0  0  0  0  0  0  0  0  0
  161.5390  199.8660  146.8890 O   0  0  0  0  0  1  0  0  0  0  0  0
  160.7220  201.3500  146.9480 P   0  0  1  0  0  0  0  0  0  0  0  0
  162.3360  209.6950  148.4270 C   0  0  0  0  0  2  0  0  0  0  0  0
  162.1190  210.9710  149.2280 C   0  0  0  0  0  2  0  0  0  0  0  0
  162.1410  212.1880  148.3130 C   0  0  0  0  0  2  0  0  0  0  0  0
  161.0330  212.1530  147.4550 O   0  0  0  0  0  0  0  0  0  0  0  0
  160.5160  213.4080  147.4950 N   0  0  0  0  0  0  0  0  0  0  0  0
  159.1350  213.3010  147.9870 C   0  0  2  0  0  3  0  0  0  0  0  0
  158.2530  214.0680  147.2170 O   0  0  0  0  0  1  0  0  0  0  0  0
  160.2960  214.4530  149.8660 C   0  0  0  0  0  1  0  0  0  0  0  0
  159.0500  213.6880  149.4590 C   0  0  0  0  0  2  0  0  0  0  0  0
  160.5240  213.9260  146.1280 C   0  0  0  0  0  2  0  0  0  0  0  0
  161.5110  213.1420  145.2710 C   0  0  0  0  0  1  0  0  0  0  0  0
  161.2100  213.3750  143.7960 O   0  0  0  0  0  1  0  0  0  0  0  0
  161.8320  212.9020  143.7860 O   0  0  0  0  0  0  0  0  0  0  0  0
  161.2260  212.2680  142.8790 C   0  0  0  0  0  1  0  0  0  0  0  0
  161.4750  212.4960  141.4290 C   0  0  0  0  0  1  0  0  0  0  0  0
  162.5270  211.6820  141.0060 O   0  0  0  0  0  0  0  0  0  0  0  0
  162.0350  211.0220  139.8770 C   0  0  2  0  0  3  0  0  0  0  0  0
  162.1350  209.6420  140.0570 O   0  0  0  0  0  1  0  0  0  0  0  0
  163.8210  212.3410  139.0150 O   0  0  0  0  0  1  0  0  0  0  0  0
  162.8270  211.4300  138.6520 C   0  0  0  0  0  2  0  0  0  0  0  0
  1  9  1  0  0  0  0
  2 20  1  0  0  0  0
  4 15  1  0  0  0  0
  5 16  1  0  0  0  0
  5  3  2  0  0  0  0
  6 21  2  0  0  0  0
  7 18  1  0  0  0  0
  8 16  1  0  0  0  0
  9 13  2  0  0  0  0
 10  7  2  0  0  0  0
 11  8  2  0  0  0  0
 12  6  1  0  0  0  0
 12 13  1  0  0  0  0
 13 11  1  0  0  0  0
 14 17  2  0  0  0  0
 15 18  1  0  0  0  0
 15  1  2  0  0  0  0
 17 23  1  0  0  0  0
 18 12  2  0  0  0  0
 19  5  1  0  0  0  0
 20 23  2  0  0  0  0
 20 10  1  0  0  0  0
 21 19  1  0  0  0  0
 21  8  1  0  0  0  0
 22 14  1  0  0  0  0
 22  2  2  0  0  0  0
 23  4  1  0  0  0  0
 24 25  1  0  0  0  0
 24 14  1  0  0  0  0
 25 29  1  0  0  0  0
 27 29  2  0  0  0  0
 28 29  1  0  0  0  0
 29 26  1  1  0  0  0
 30 31  1  0  0  0  0
 30 10  1  0  0  0  0
 32 31  1  0  0  0  0
 33 34  1  0  0  0  0
 33 32  1  0  0  0  0
 34 35  1  0  0  0  0
 35 36  1  6  0  0  0
 35 38  1  0  0  0  0
 38 37  1  0  0  0  0
 39 34  1  0  0  0  0
 40 39  1  0  0  0  0
 42 41  1  0  0  0  0
 43 42  1  0  0  0  0
 45 44  1  0  0  0  0
 46 47  1  1  0  0  0
 46 45  1  0  0  0  0
 49 48  1  0  0  0  0
 49 46  1  0  0  0  0
M  END
>  <MODEL>
2

>  <REMARK>
 VINA RESULT:      -6.7      1.397      2.007
  Name = 
  18 active torsions:
  status: ('A' for Active; 'I' for Inactive)
    1  A    between atoms: C_1  and  C_22
    2  A    between atoms: C_1  and  C_45
    3  A    between atoms: C_2  and  C_26
    4  A    between atoms: C_2  and  N_33
    5  A    between atoms: C_3  and  O_21
    6  A    between atoms: C_3  and  C_30
    7  A    between atoms: C_7  and  O_21
    8  A    between atoms: C_7  and  C_32
    9  A    between atoms: C_18  and  C_22
   10  A    between atoms: C_23  and  C_28
   11  A    between atoms: C_23  and  O_48
   12  A    between atoms: C_30  and  O_43
   13  A    between atoms: N_33  and  O_34
   14  A    between atoms: N_33  and  C_44
   15  A    between atoms: O_34  and  C_45
   16  A    between atoms: P_41  and  O_48
   17  A    between atoms: O_43  and  C_47
   18  A    between atoms: C_44  and  C_47
                            x       y       z     vdW  Elec       q    Type
                         _______ _______ _______ _____ _____    ______ ____

>  <TORSDO>
F 18

$$$$
=
 OpenBabel11042420313D

 49 51  0  0  1  0  0  0  0  0999 V2000
  160.9850  206.9070  155.0260 C   0  0  0  0  0  3  0  0  0  0  0  0
  161.0800  206.9090  149.2900 C   0  0  0  0  0  3  0  0  0  0  0  0
  157.6290  214.2130  156.5630 O   0  0  0  0  0  0  0  0  0  0  0  0
  161.9290  206.4450  152.8940 O   0  0  0  0  0  0  0  0  0  0  0  0
  158.1880  213.1580  156.1640 C   0  0  0  0  0  0  0  0  0  0  0  0
  159.9010  210.8260  153.9390 C   0  0  0  0  0  3  0  0  0  0  0  0
  161.4130  209.2650  152.0840 C   0  0  0  0  0  3  0  0  0  0  0  0
  158.9910  211.0880  156.1440 C   0  0  0  0  0  0  0  0  0  0  0  0
  160.3410  207.7330  155.9440 C   0  0  0  0  0  3  0  0  0  0  0  0
  161.6640  208.6770  150.9140 C   0  0  0  0  0  0  0  0  0  0  0  0
  159.3480  209.8280  156.4900 N   0  0  0  0  0  0  0  0  0  0  0  0
  160.2800  209.5080  154.2760 C   0  0  0  0  0  0  0  0  0  0  0  0
  159.9800  209.0270  155.5830 C   0  0  0  0  0  0  0  0  0  0  0  0
  161.1560  204.5580  149.8330 C   0  0  0  0  0  0  0  0  0  0  0  0
  161.2780  207.3510  153.7330 C   0  0  0  0  0  0  0  0  0  0  0  0
  158.3350  212.0080  156.9970 N   0  0  0  0  0  2  0  0  0  0  0  0
  161.4910  204.8800  151.1480 C   0  0  0  0  0  3  0  0  0  0  0  0
  160.9410  208.6690  153.3470 C   0  0  0  0  0  0  0  0  0  0  0  0
  158.7520  212.9920  154.7850 C   0  0  0  0  0  2  0  0  0  0  0  0
  161.4100  207.2510  150.6140 C   0  0  0  0  0  0  0  0  0  0  0  0
  159.2480  211.5950  154.8970 C   0  0  0  0  0  0  0  0  0  0  0  0
  160.9400  205.5740  148.9040 C   0  0  0  0  0  3  0  0  0  0  0  0
  161.6010  206.2160  151.5570 C   0  0  0  0  0  0  0  0  0  0  0  0
  161.0320  203.1330  149.4170 C   0  0  0  0  0  2  0  0  0  0  0  0
  161.1920  203.0180  148.0330 O   0  0  0  0  0  0  0  0  0  0  0  0
  161.9340  200.2680  148.3510 C   0  0  0  0  0  1  0  0  0  0  0  0
  159.3630  201.1500  148.2620 O   0  0  0  0  0  1  0  0  0  0  0  0
  160.6570  201.2170  145.9800 O   0  0  0  0  0  0  0  0  0  0  0  0
  160.7230  201.4320  147.6590 P   0  0  1  0  0  0  0  0  0  0  0  0
  162.1850  209.5720  149.8330 C   0  0  0  0  0  2  0  0  0  0  0  0
  162.1680  211.0230  150.2940 C   0  0  0  0  0  2  0  0  0  0  0  0
  160.8820  211.7090  149.8550 C   0  0  0  0  0  2  0  0  0  0  0  0
  161.1830  212.9530  149.2830 O   0  0  0  0  0  0  0  0  0  0  0  0
  160.8710  212.8200  147.9670 N   0  0  0  0  0  0  0  0  0  0  0  0
  162.0740  213.1590  147.1930 C   0  0  2  0  0  3  0  0  0  0  0  0
  163.1860  213.3470  148.0230 O   0  0  0  0  0  1  0  0  0  0  0  0
  162.8670  214.4450  145.2120 C   0  0  0  0  0  1  0  0  0  0  0  0
  161.8330  214.3860  146.3220 C   0  0  0  0  0  2  0  0  0  0  0  0
  159.8010  213.7720  147.6750 C   0  0  0  0  0  2  0  0  0  0  0  0
  158.5000  213.0330  147.3830 C   0  0  0  0  0  1  0  0  0  0  0  0
  157.5490  213.9470  146.6230 O   0  0  0  0  0  1  0  0  0  0  0  0
  157.2270  213.2530  146.4620 O   0  0  0  0  0  0  0  0  0  0  0  0
  157.1980  213.6440  145.2620 C   0  0  0  0  0  1  0  0  0  0  0  0
  158.2550  213.2940  144.2730 C   0  0  0  0  0  1  0  0  0  0  0  0
  158.9400  214.4510  143.8980 O   0  0  0  0  0  0  0  0  0  0  0  0
  160.0090  213.9950  143.1220 C   0  0  2  0  0  3  0  0  0  0  0  0
  159.8670  214.4520  141.8120 O   0  0  0  0  0  1  0  0  0  0  0  0
  161.3540  212.0400  142.9250 O   0  0  0  0  0  1  0  0  0  0  0  0
  160.0450  212.4810  143.1280 C   0  0  0  0  0  2  0  0  0  0  0  0
  1  9  1  0  0  0  0
  2 20  1  0  0  0  0
  4 15  1  0  0  0  0
  5  3  2  0  0  0  0
  5 16  1  0  0  0  0
  6 12  1  0  0  0  0
  6 21  2  0  0  0  0
  7 18  1  0  0  0  0
  8 11  2  0  0  0  0
  8 16  1  0  0  0  0
 10  7  2  0  0  0  0
 12 13  1  0  0  0  0
 13  9  2  0  0  0  0
 13 11  1  0  0  0  0
 14 17  2  0  0  0  0
 15  1  2  0  0  0  0
 17 23  1  0  0  0  0
 18 15  1  0  0  0  0
 18 12  2  0  0  0  0
 19 21  1  0  0  0  0
 19  5  1  0  0  0  0
 20 10  1  0  0  0  0
 20 23  2  0  0  0  0
 21  8  1  0  0  0  0
 22  2  2  0  0  0  0
 22 14  1  0  0  0  0
 23  4  1  0  0  0  0
 24 14  1  0  0  0  0
 25 24  1  0  0  0  0
 28 29  2  0  0  0  0
 29 25  1  0  0  0  0
 29 27  1  0  0  0  0
 29 26  1  1  0  0  0
 30 31  1  0  0  0  0
 30 10  1  0  0  0  0
 32 31  1  0  0  0  0
 33 32  1  0  0  0  0
 34 33  1  0  0  0  0
 35 34  1  0  0  0  0
 35 36  1  1  0  0  0
 37 38  1  0  0  0  0
 38 35  1  0  0  0  0
 39 34  1  0  0  0  0
 40 39  1  0  0  0  0
 42 41  1  0  0  0  0
 43 42  1  0  0  0  0
 45 44  1  0  0  0  0
 46 47  1  6  0  0  0
 46 49  1  0  0  0  0
 46 45  1  0  0  0  0
 48 49  1  0  0  0  0
M  END
>  <MODEL>
3

>  <REMARK>
 VINA RESULT:      -5.9      1.619      2.539
  Name = 
  18 active torsions:
  status: ('A' for Active; 'I' for Inactive)
    1  A    between atoms: C_1  and  C_22
    2  A    between atoms: C_1  and  C_45
    3  A    between atoms: C_2  and  C_26
    4  A    between atoms: C_2  and  N_33
    5  A    between atoms: C_3  and  O_21
    6  A    between atoms: C_3  and  C_30
    7  A    between atoms: C_7  and  O_21
    8  A    between atoms: C_7  and  C_32
    9  A    between atoms: C_18  and  C_22
   10  A    between atoms: C_23  and  C_28
   11  A    between atoms: C_23  and  O_48
   12  A    between atoms: C_30  and  O_43
   13  A    between atoms: N_33  and  O_34
   14  A    between atoms: N_33  and  C_44
   15  A    between atoms: O_34  and  C_45
   16  A    between atoms: P_41  and  O_48
   17  A    between atoms: O_43  and  C_47
   18  A    between atoms: C_44  and  C_47
                            x       y       z     vdW  Elec       q    Type
                         _______ _______ _______ _____ _____    ______ ____

>  <TORSDO>
F 18

$$$$
=
 OpenBabel11042420313D

 49 50  0  0  1  0  0  0  0  0999 V2000
  160.5140  206.8160  156.3570 C   0  0  0  0  0  3  0  0  0  0  0  0
  161.0930  205.8930  150.7260 C   0  0  0  0  0  3  0  0  0  0  0  0
  157.5700  214.4530  156.4220 O   0  0  0  0  0  0  0  0  0  0  0  0
  161.5990  205.9650  154.4220 O   0  0  0  0  0  0  0  0  0  0  0  0
  158.0850  213.3180  156.2460 C   0  0  0  0  0  0  0  0  0  0  0  0
  159.8080  210.5650  154.5810 C   0  0  0  0  0  3  0  0  0  0  0  0
  161.3570  208.6430  153.1400 C   0  0  0  0  0  3  0  0  0  0  0  0
  158.7360  211.2290  156.6230 C   0  0  0  0  0  0  0  0  0  0  0  0
  159.8560  207.8140  157.0720 C   0  0  0  0  0  3  0  0  0  0  0  0
  161.6630  207.8620  152.1040 C   0  0  0  0  0  0  0  0  0  0  0  0
  158.9720  210.0220  157.1910 N   0  0  0  0  0  0  0  0  0  0  0  0
  160.0620  209.2990  155.1510 C   0  0  0  0  0  0  0  0  0  0  0  0
  159.6200  209.0520  156.4830 C   0  0  0  0  0  0  0  0  0  0  0  0
  160.9560  203.6580  151.6300 C   0  0  0  0  0  0  0  0  0  0  0  0
  160.9470  207.0300  155.0450 C   0  0  0  0  0  0  0  0  0  0  0  0
  158.0780  212.3100  157.2560 N   0  0  0  0  0  2  0  0  0  0  0  0
  161.2000  204.1680  152.9050 C   0  0  0  0  0  3  0  0  0  0  0  0
  160.7380  208.2860  154.4300 C   0  0  0  0  0  0  0  0  0  0  0  0
  158.7500  212.9010  154.9690 C   0  0  0  0  0  2  0  0  0  0  0  0
  161.3340  206.4230  152.0060 C   0  0  0  0  0  0  0  0  0  0  0  0
  159.1340  211.5150  155.3420 C   0  0  0  0  0  0  0  0  0  0  0  0
  160.8920  204.5240  150.5390 C   0  0  0  0  0  3  0  0  0  0  0  0
  161.3710  205.5430  153.1120 C   0  0  0  0  0  0  0  0  0  0  0  0
  160.7660  202.1950  151.4290 C   0  0  0  0  0  2  0  0  0  0  0  0
  161.7060  201.7070  150.5170 O   0  0  0  0  0  0  0  0  0  0  0  0
  161.6210  200.2220  148.0670 C   0  0  0  0  0  1  0  0  0  0  0  0
  159.4200  201.1930  149.3340 O   0  0  0  0  0  1  0  0  0  0  0  0
  160.9350  202.9920  148.1710 O   0  0  0  0  0  0  0  0  0  0  0  0
  160.8650  201.5470  149.0530 P   0  0  1  0  0  0  0  0  0  0  0  0
  162.3360  208.5410  150.9530 C   0  0  0  0  0  2  0  0  0  0  0  0
  162.5430  210.0180  151.2570 C   0  0  0  0  0  2  0  0  0  0  0  0
  161.6530  210.8780  150.3700 C   0  0  0  0  0  2  0  0  0  0  0  0
  162.4330  211.8380  149.7100 O   0  0  0  0  0  0  0  0  0  0  0  0
  162.5020  211.4110  148.4220 N   0  0  0  0  0  0  0  0  0  0  0  0
  162.2540  212.5730  147.5580 C   0  0  2  0  0  3  0  0  0  0  0  0
  162.2720  213.7700  148.2850 O   0  0  0  0  0  1  0  0  0  0  0  0
  159.9780  213.5220  147.2020 C   0  0  0  0  0  1  0  0  0  0  0  0
  160.9400  212.4180  146.8010 C   0  0  0  0  0  2  0  0  0  0  0  0
  161.4490  210.4130  148.2380 C   0  0  0  0  0  1  0  0  0  0  0  0
  162.0480  209.0930  147.7660 C   0  0  0  0  0 15  0  0  0  0  0  0
  160.9320  208.1180  147.4150 O   0  0  0  0  0  1  0  0  0  0  0  0
  161.4780  207.9260  147.9390 O   0  0  0  0  0  0  0  0  0  0  0  0
  160.9860  206.7650  147.8950 C   0  0  0  0  0  1  0  0  0  0  0  0
  161.5440  205.6830  147.0360 C   0  0  0  0  0  1  0  0  0  0  0  0
  162.2710  206.2510  145.9890 O   0  0  0  0  0  0  0  0  0  0  0  0
  161.9260  205.4950  144.8660 C   0  0  2  0  0  3  0  0  0  0  0  0
  160.5800  205.6930  144.5590 O   0  0  0  0  0  1  0  0  0  0  0  0
  160.9900  203.3070  144.9410 O   0  0  0  0  0  1  0  0  0  0  0  0
  162.1710  204.0250  145.1370 C   0  0  0  0  0  2  0  0  0  0  0  0
  1  9  1  0  0  0  0
  2 20  1  0  0  0  0
  4 15  1  0  0  0  0
  5  3  2  0  0  0  0
  5 16  1  0  0  0  0
  6 12  1  0  0  0  0
  6 21  2  0  0  0  0
  7 18  1  0  0  0  0
  8 11  2  0  0  0  0
  8 16  1  0  0  0  0
 10  7  2  0  0  0  0
 12 13  1  0  0  0  0
 13  9  2  0  0  0  0
 13 11  1  0  0  0  0
 14 17  2  0  0  0  0
 15  1  2  0  0  0  0
 17 23  1  0  0  0  0
 18 15  1  0  0  0  0
 18 12  2  0  0  0  0
 19 21  1  0  0  0  0
 19  5  1  0  0  0  0
 20 10  1  0  0  0  0
 20 23  2  0  0  0  0
 21  8  1  0  0  0  0
 22  2  2  0  0  0  0
 22 14  1  0  0  0  0
 23  4  1  0  0  0  0
 24 14  1  0  0  0  0
 25 24  1  0  0  0  0
 28 29  2  0  0  0  0
 29 26  1  6  0  0  0
 29 27  1  0  0  0  0
 29 25  1  0  0  0  0
 30 31  1  0  0  0  0
 30 10  1  0  0  0  0
 32 31  1  0  0  0  0
 33 32  1  0  0  0  0
 34 33  1  0  0  0  0
 35 36  1  1  0  0  0
 35 34  1  0  0  0  0
 38 37  1  0  0  0  0
 38 35  1  0  0  0  0
 39 34  1  0  0  0  0
 41 42  1  0  0  0  0
 43 42  1  0  0  0  0
 45 44  1  0  0  0  0
 46 47  1  1  0  0  0
 46 49  1  0  0  0  0
 46 45  1  0  0  0  0
 48 49  1  0  0  0  0
M  END
>  <MODEL>
4

>  <REMARK>
 VINA RESULT:      -4.5      3.067      3.955
  Name = 
  18 active torsions:
  status: ('A' for Active; 'I' for Inactive)
    1  A    between atoms: C_1  and  C_22
    2  A    between atoms: C_1  and  C_45
    3  A    between atoms: C_2  and  C_26
    4  A    between atoms: C_2  and  N_33
    5  A    between atoms: C_3  and  O_21
    6  A    between atoms: C_3  and  C_30
    7  A    between atoms: C_7  and  O_21
    8  A    between atoms: C_7  and  C_32
    9  A    between atoms: C_18  and  C_22
   10  A    between atoms: C_23  and  C_28
   11  A    between atoms: C_23  and  O_48
   12  A    between atoms: C_30  and  O_43
   13  A    between atoms: N_33  and  O_34
   14  A    between atoms: N_33  and  C_44
   15  A    between atoms: O_34  and  C_45
   16  A    between atoms: P_41  and  O_48
   17  A    between atoms: O_43  and  C_47
   18  A    between atoms: C_44  and  C_47
                            x       y       z     vdW  Elec       q    Type
                         _______ _______ _______ _____ _____    ______ ____

>  <TORSDO>
F 18

$$$$
