=
 OpenBabel11052410423D

 68 73  0  0  1  0  0  0  0  0999 V2000
  163.8370  210.7280  149.7700 C   0  0  0  0  0  1  0  0  0  0  0  0
  161.3290  210.1200  149.9430 C   0  0  1  0  0  3  0  0  0  0  0  0
  162.4700  211.0730  150.3610 C   0  0  2  0  0  3  0  0  0  0  0  0
  161.4460  211.5080  149.3180 C   0  0  1  0  0  0  0  0  0  0  0  0
  161.9550  211.6210  148.0100 O   0  0  0  0  0  0  0  0  0  0  0  0
  160.9360  211.9830  147.2560 O   0  0  0  0  0  0  0  0  0  0  0  0
  161.2610  213.2630  146.8070 C   0  0  0  0  0  2  0  0  0  0  0  0
  161.5600  212.8380  143.1910 C   0  0  0  0  0  0  0  0  0  0  0  0
  160.8620  212.8640  144.3130 C   0  0  0  0  0  0  0  0  0  0  0  0
  161.6820  213.2020  145.4180 N   0  0  0  0  0  0  0  0  0  0  0  0
  163.0540  213.3740  144.9770 C   0  0  0  0  0  3  0  0  0  0  0  0
  163.0100  213.1070  143.4670 C   0  0  0  0  0  3  0  0  0  0  0  0
  159.9340  213.4490  141.4360 C   0  0  2  0  0  3  0  0  0  0  0  0
  158.8260  212.6740  140.7170 C   0  0  0  0  0  2  0  0  0  0  0  0
  161.3320  213.4860  140.7970 C   0  0  1  0  0  3  0  0  0  0  0  0
  161.0050  212.4470  141.8550 C   0  0  1  0  0  3  0  0  0  0  0  0
  160.3560  211.9630  138.9140 C   0  0  0  0  0  2  0  0  0  0  0  0
  159.0160  212.6090  139.2070 C   0  0  1  0  0  3  0  0  0  0  0  0
  161.4700  212.8970  139.3750 C   0  0  2  0  0  3  0  0  0  0  0  0
  162.9170  210.8850  138.8400 N   0  0  0  0  0  1  0  0  0  0  0  0
  163.8510  212.9570  139.3160 O   0  0  0  0  0  0  0  0  0  0  0  0
  162.8090  212.2650  139.1770 C   0  0  0  0  0  0  0  0  0  0  0  0
  157.9490  212.1480  137.1190 O   0  0  0  0  0  1  0  0  0  0  0  0
  157.8380  211.9080  138.4930 C   0  0  2  0  0  0  0  0  0  0  0  0
  156.4810  212.4520  138.9810 C   0  0  2  0  0  3  0  0  0  0  0  0
  155.4320  211.8440  138.3150 F   0  0  0  0  0  0  0  0  0  0  0  0
  156.3770  213.9580  138.7930 C   0  0  0  0  0  1  0  0  0  0  0  0
  157.8820  210.4960  138.7310 O   0  0  0  0  0  0  0  0  0  0  0  0
  159.4060  208.8510  137.5490 C   0  0  0  0  0  1  0  0  0  0  0  0
  157.1180  209.1770  137.0170 O   0  0  0  0  0  0  0  0  0  0  0  0
  158.0840  209.5180  137.7460 C   0  0  0  0  0  0  0  0  0  0  0  0
  158.6170  213.8830  144.4880 C   0  0  0  0  0  1  0  0  0  0  0  0
  159.3950  212.5830  144.4190 C   0  0  0  0  0  2  0  0  0  0  0  0
  160.5110  212.5960  149.8270 C   0  0  0  0  0  2  0  0  0  0  0  0
  160.4540  212.5920  151.3440 C   0  0  0  0  0  2  0  0  0  0  0  0
  159.0700  212.5990  151.7850 N   0  0  0  0  0  2  0  0  0  0  0  0
  158.3790  213.6160  151.0100 C   0  0  0  0  0  2  0  0  0  0  0  0
  157.4890  214.4490  151.9180 C   0  0  0  0  0  2  0  0  0  0  0  0
  156.8320  213.5850  152.9820 C   0  0  2  0  0  3  0  0  0  0  0  0
  155.4730  213.4280  152.7000 O   0  0  0  0  0  1  0  0  0  0  0  0
  156.9960  214.2520  154.3360 C   0  0  0  0  0  2  0  0  0  0  0  0
  157.5750  213.3170  155.2910 N   0  0  0  0  0  0  0  0  0  0  0  0
  159.4270  209.7050  155.4860 C   0  0  0  0  0  1  0  0  0  0  0  0
  158.7120  210.8780  156.1340 C   0  0  1  0  0  3  0  0  0  0  0  0
  159.5730  212.1170  156.0940 C   0  0  0  0  0  0  0  0  0  0  0  0
  157.3750  211.1150  155.4070 C   0  0  0  0  0  2  0  0  0  0  0  0
  159.6460  214.4180  155.4760 O   0  0  0  0  0  0  0  0  0  0  0  0
  160.7700  212.0870  156.4860 O   0  0  0  0  0  0  0  0  0  0  0  0
  158.9670  213.3660  155.6250 C   0  0  0  0  0  0  0  0  0  0  0  0
  156.8080  212.3300  155.8360 O   0  0  0  0  0  0  0  0  0  0  0  0
  161.7290  209.0050  148.9730 C   0  0  0  0  0  2  0  0  0  0  0  0
  162.6890  208.0430  149.6540 C   0  0  0  0  0  2  0  0  0  0  0  0
  160.2460  206.6720  149.0910 O   0  0  0  0  0  0  0  0  0  0  0  0
  162.5790  206.7230  149.0520 N   0  0  0  0  0  2  0  0  0  0  0  0
  161.3210  206.1470  148.6960 C   0  0  0  0  0  0  0  0  0  0  0  0
  161.2640  204.9320  147.8200 C   0  0  2  0  0  3  0  0  0  0  0  0
  160.7680  203.6490  149.9530 C   0  0  0  0  0  0  0  0  0  0  0  0
  161.6630  202.3970  148.1910 C   0  0  0  0  0  3  0  0  0  0  0  0
  160.9220  202.3110  150.5530 C   0  0  0  0  0  2  0  0  0  0  0  0
  161.1530  203.6970  148.5970 N   0  0  0  0  0  0  0  0  0  0  0  0
  161.4410  201.4630  149.3880 C   0  0  0  0  0  3  0  0  0  0  0  0
  160.3480  204.6550  150.5850 O   0  0  0  0  0  0  0  0  0  0  0  0
  162.4300  204.8810  146.8330 C   0  0  0  0  0  2  0  0  0  0  0  0
  162.3530  205.9320  145.9100 O   0  0  0  0  0  0  0  0  0  0  0  0
  159.7110  206.2190  145.1150 O   0  0  0  0  0  1  0  0  0  0  0  0
  161.7190  205.8760  143.0940 C   0  0  0  0  0  1  0  0  0  0  0  0
  160.9960  203.9560  144.8650 O   0  0  0  0  0  0  0  0  0  0  0  0
  161.1850  205.4540  144.7770 P   0  0  1  0  0  0  0  0  0  0  0  0
  2 51  1  6  0  0  0
  2  3  1  0  0  0  0
  3  1  1  6  0  0  0
  4 34  1  1  0  0  0
  4  2  1  0  0  0  0
  4  3  1  0  0  0  0
  5  4  1  0  0  0  0
  6  5  1  0  0  0  0
  7  6  1  0  0  0  0
  8 12  1  0  0  0  0
  8  9  2  0  0  0  0
  9 33  1  0  0  0  0
  9 10  1  0  0  0  0
 10  7  1  0  0  0  0
 11 10  1  0  0  0  0
 12 11  2  0  0  0  0
 13 14  1  6  0  0  0
 13 16  1  0  0  0  0
 15 13  1  0  0  0  0
 15 16  1  0  0  0  0
 16  8  1  0  0  0  0
 17 18  1  0  0  0  0
 17 19  1  0  0  0  0
 18 14  1  0  0  0  0
 19 15  1  0  0  0  0
 20 22  1  0  0  0  0
 22 21  2  0  0  0  0
 22 19  1  0  0  0  0
 23 24  1  0  0  0  0
 24 28  1  0  0  0  0
 24 25  1  0  0  0  0
 24 18  1  0  0  0  0
 26 25  1  0  0  0  0
 27 25  1  0  0  0  0
 29 31  1  0  0  0  0
 30 31  2  0  0  0  0
 31 28  1  0  0  0  0
 33 32  1  0  0  0  0
 34 35  1  0  0  0  0
 35 36  1  0  0  0  0
 37 36  1  0  0  0  0
 37 38  1  0  0  0  0
 38 39  1  0  0  0  0
 39 41  1  0  0  0  0
 40 39  1  0  0  0  0
 41 42  1  0  0  0  0
 42 49  1  0  0  0  0
 42 50  1  0  0  0  0
 43 44  1  0  0  0  0
 45 44  1  0  0  0  0
 45 48  2  0  0  0  0
 46 50  1  0  0  0  0
 46 44  1  0  0  0  0
 47 49  2  0  0  0  0
 49 45  1  0  0  0  0
 51 52  1  0  0  0  0
 54 52  1  0  0  0  0
 55 54  1  0  0  0  0
 55 53  2  0  0  0  0
 56 60  1  0  0  0  0
 56 55  1  0  0  0  0
 57 59  1  0  0  0  0
 57 62  2  0  0  0  0
 58 60  1  0  0  0  0
 58 61  2  0  0  0  0
 60 57  1  0  0  0  0
 61 59  1  0  0  0  0
 63 56  1  0  0  0  0
 64 63  1  0  0  0  0
 66 68  1  0  0  0  0
 68 67  2  0  0  0  0
 68 65  1  0  0  0  0
 68 64  1  0  0  0  0
M  END
>  <MODEL>
1

>  <REMARK>
 VINA RESULT:      -3.4      0.000      0.000
  Name = 
  27 active torsions:
  status: ('A' for Active; 'I' for Inactive)
    1  A    between atoms: C_5  and  C_20
    2  A    between atoms: C_5  and  N_47
    3  A    between atoms: C_6  and  N_7
    4  A    between atoms: C_6  and  C_23
    5  A    between atoms: O_10  and  O_52
    6  A    between atoms: O_10  and  C_60
    7  A    between atoms: C_11  and  C_56
    8  A    between atoms: C_16  and  C_24
    9  A    between atoms: C_16  and  O_44
   10  A    between atoms: C_18  and  C_29
   11  A    between atoms: C_20  and  C_35
   12  A    between atoms: C_22  and  N_37
   13  A    between atoms: C_22  and  C_40
   14  A    between atoms: C_23  and  C_40
   15  A    between atoms: C_24  and  N_36
   16  A    between atoms: C_24  and  C_54
   17  A    between atoms: C_31  and  C_56
   18  A    between atoms: C_32  and  C_33
   19  A    between atoms: C_34  and  N_37
   20  A    between atoms: C_34  and  C_57
   21  A    between atoms: O_42  and  C_56
   22  A    between atoms: O_42  and  C_62
   23  A    between atoms: O_44  and  P_65
   24  A    between atoms: N_46  and  C_60
   25  A    between atoms: C_50  and  C_67
   26  A    between atoms: O_52  and  C_63
   27  A    between atoms: C_57  and  C_63
                            x       y       z     vdW  Elec       q    Type
                         _______ _______ _______ _____ _____    ______ ____

>  <TORSDO>
F 27

$$$$
