=
 OpenBabel11042421333D

 27 31  0  0  1  0  0  0  0  0999 V2000
  161.5770  207.6570  155.7700 C   0  0  1  0  0  3  0  0  0  0  0  0
  158.3150  211.0890  152.1750 O   0  0  0  0  0  1  0  0  0  0  0  0
  160.8630  209.7600  153.0010 C   0  0  0  0  0  0  0  0  0  0  0  0
  161.4070  207.5420  151.3640 C   0  0  0  0  0  3  0  0  0  0  0  0
  161.0270  207.3440  152.6860 C   0  0  0  0  0  0  0  0  0  0  0  0
  161.1390  206.7040  156.6920 O   0  0  0  0  0  1  0  0  0  0  0  0
  159.2360  212.1380  152.0940 C   0  0  2  0  0  3  0  0  0  0  0  0
  162.3260  211.3760  149.8290 C   0  0  0  0  0  2  0  0  0  0  0  0
  162.0780  208.9420  149.4420 C   0  0  0  0  0  2  0  0  0  0  0  0
  161.8500  210.3220  148.8440 C   0  0  0  0  0  2  0  0  0  0  0  0
  161.4520  211.3480  151.0860 C   0  0  1  0  0  3  0  0  0  0  0  0
  160.2780  213.2920  150.2970 O   0  0  0  0  0  1  0  0  0  0  0  0
  160.2590  209.0880  157.2610 O   0  0  0  0  0  1  0  0  0  0  0  0
  161.7270  211.0800  154.8700 C   0  0  0  0  0  3  0  0  0  0  0  0
  160.0900  212.0160  150.8320 C   0  0  2  0  0  3  0  0  0  0  0  0
  160.5690  210.9140  153.9430 C   0  0  1  0  0  3  0  0  0  0  0  0
  160.8470  205.6830  153.2360 Cl  0  0  0  0  0  0  0  0  0  0  0  0
  160.0810  212.2560  153.3700 C   0  0  2  0  0  3  0  0  0  0  0  0
  160.3750  208.1770  154.9710 C   0  0  2  0  0  3  0  0  0  0  0  0
  161.2980  209.9520  151.6610 C   0  0  0  0  0  0  0  0  0  0  0  0
  161.9480  210.1740  155.8260 C   0  0  0  0  0  3  0  0  0  0  0  0
  161.5450  208.8240  150.8430 C   0  0  0  0  0  0  0  0  0  0  0  0
  160.7960  208.4450  153.5340 C   0  0  0  0  0  0  0  0  0  0  0  0
  161.0080  209.0250  156.0830 C   0  0  2  0  0  0  0  0  0  0  0  0
  159.0530  212.4670  155.6430 O   0  0  0  0  0  1  0  0  0  0  0  0
  159.3400  213.0350  154.4060 C   0  0  0  0  0  0  0  0  0  0  0  0
  158.9640  214.2090  154.1560 O   0  0  0  0  0  0  0  0  0  0  0  0
  1 24  1  0  0  0  0
  1  6  1  1  0  0  0
  3 23  1  0  0  0  0
  3 16  1  0  0  0  0
  4  5  1  0  0  0  0
  5 17  1  0  0  0  0
  5 23  2  0  0  0  0
  7  2  1  1  0  0  0
  7 18  1  0  0  0  0
  9 22  1  0  0  0  0
 10  9  1  0  0  0  0
 10  8  1  0  0  0  0
 11  8  1  6  0  0  0
 11 20  1  0  0  0  0
 14 21  2  0  0  0  0
 15 12  1  1  0  0  0
 15 11  1  0  0  0  0
 15  7  1  0  0  0  0
 16 14  1  6  0  0  0
 18 16  1  0  0  0  0
 18 26  1  1  0  0  0
 19 23  1  6  0  0  0
 19  1  1  0  0  0  0
 19 24  1  0  0  0  0
 20  3  2  0  0  0  0
 21 24  1  0  0  0  0
 22  4  2  0  0  0  0
 22 20  1  0  0  0  0
 24 13  1  1  0  0  0
 26 25  1  0  0  0  0
 27 26  2  0  0  0  0
M  END
>  <MODEL>
1

>  <REMARK>
 VINA RESULT:      -4.2      0.000      0.000
  Name = 
  1 active torsions:
  status: ('A' for Active; 'I' for Inactive)
    1  A    between atoms: C_18  and  C_23
                            x       y       z     vdW  Elec       q    Type
                         _______ _______ _______ _____ _____    ______ ____

>  <TORSDO>
F 1

$$$$
=
 OpenBabel11042421333D

 27 31  0  0  1  0  0  0  0  0999 V2000
  161.7120  205.2390  153.1460 C   0  0  1  0  0  3  0  0  0  0  0  0
  159.4260  206.7060  147.8580 O   0  0  0  0  0  1  0  0  0  0  0  0
  161.3140  205.1970  149.6200 C   0  0  0  0  0  0  0  0  0  0  0  0
  160.5030  202.5220  149.8900 C   0  0  0  0  0  3  0  0  0  0  0  0
  160.3900  203.3860  150.9720 C   0  0  0  0  0  0  0  0  0  0  0  0
  161.1450  205.4010  154.4120 O   0  0  0  0  0  1  0  0  0  0  0  0
  160.6520  206.9020  147.2160 C   0  0  2  0  0  3  0  0  0  0  0  0
  162.5420  203.5970  146.3420 C   0  0  0  0  0  2  0  0  0  0  0  0
  161.2310  201.9190  147.6070 C   0  0  0  0  0  2  0  0  0  0  0  0
  161.4620  202.5340  146.2350 C   0  0  0  0  0  2  0  0  0  0  0  0
  162.0490  204.7570  147.2110 C   0  0  1  0  0  3  0  0  0  0  0  0
  161.6340  206.0490  145.2260 O   0  0  0  0  0  1  0  0  0  0  0  0
  161.4830  207.6780  153.1950 O   0  0  0  0  0  1  0  0  0  0  0  0
  163.0490  206.7980  150.2600 C   0  0  0  0  0  3  0  0  0  0  0  0
  161.0640  205.6510  146.4380 C   0  0  2  0  0  3  0  0  0  0  0  0
  161.7470  206.6510  149.5470 C   0  0  1  0  0  3  0  0  0  0  0  0
  159.6730  202.7480  152.4460 Cl  0  0  0  0  0  0  0  0  0  0  0  0
  161.7390  207.3770  148.1890 C   0  0  2  0  0  3  0  0  0  0  0  0
  160.6840  205.6290  152.0780 C   0  0  2  0  0  3  0  0  0  0  0  0
  161.4690  204.2920  148.5350 C   0  0  0  0  0  0  0  0  0  0  0  0
  163.0900  206.7090  151.5930 C   0  0  0  0  0  3  0  0  0  0  0  0
  161.0340  202.9540  148.6800 C   0  0  0  0  0  0  0  0  0  0  0  0
  160.8350  204.7190  150.8690 C   0  0  0  0  0  0  0  0  0  0  0  0
  161.8460  206.5660  152.4310 C   0  0  2  0  0  0  0  0  0  0  0  0
  162.0540  209.4380  149.5760 O   0  0  0  0  0  1  0  0  0  0  0  0
  161.6440  208.8550  148.3820 C   0  0  0  0  0  0  0  0  0  0  0  0
  161.1810  209.5770  147.4610 O   0  0  0  0  0  0  0  0  0  0  0  0
  1  6  1  1  0  0  0
  3 23  1  0  0  0  0
  4  5  1  0  0  0  0
  5 17  1  0  0  0  0
  7  2  1  1  0  0  0
  7 18  1  0  0  0  0
  9 22  1  0  0  0  0
 10  8  1  0  0  0  0
 10  9  1  0  0  0  0
 11  8  1  6  0  0  0
 11 20  1  0  0  0  0
 14 21  2  0  0  0  0
 15 12  1  6  0  0  0
 15 11  1  0  0  0  0
 15  7  1  0  0  0  0
 16  3  1  0  0  0  0
 16 14  1  6  0  0  0
 18 26  1  1  0  0  0
 18 16  1  0  0  0  0
 19 23  1  6  0  0  0
 19 24  1  0  0  0  0
 19  1  1  0  0  0  0
 20 22  1  0  0  0  0
 20  3  2  0  0  0  0
 21 24  1  0  0  0  0
 22  4  2  0  0  0  0
 23  5  2  0  0  0  0
 24  1  1  0  0  0  0
 24 13  1  1  0  0  0
 26 25  1  0  0  0  0
 27 26  2  0  0  0  0
M  END
>  <MODEL>
2

>  <REMARK>
 VINA RESULT:      -3.7      4.387      6.391
  Name = 
  1 active torsions:
  status: ('A' for Active; 'I' for Inactive)
    1  A    between atoms: C_18  and  C_23
                            x       y       z     vdW  Elec       q    Type
                         _______ _______ _______ _____ _____    ______ ____

>  <TORSDO>
F 1

$$$$
=
 OpenBabel11042421333D

 27 31  0  0  1  0  0  0  0  0999 V2000
  160.6360  203.7880  145.9840 C   0  0  1  0  0  3  0  0  0  0  0  0
  163.7960  206.4730  150.2450 O   0  0  0  0  0  1  0  0  0  0  0  0
  161.3630  205.0750  149.2110 C   0  0  0  0  0  0  0  0  0  0  0  0
  161.2720  202.4220  150.1290 C   0  0  0  0  0  3  0  0  0  0  0  0
  161.5350  202.6760  148.7890 C   0  0  0  0  0  0  0  0  0  0  0  0
  161.0930  203.2200  144.7920 O   0  0  0  0  0  1  0  0  0  0  0  0
  162.7640  207.3030  150.6940 C   0  0  2  0  0  3  0  0  0  0  0  0
  160.0430  205.4600  152.8060 C   0  0  0  0  0  2  0  0  0  0  0  0
  160.6310  203.0850  152.4220 C   0  0  0  0  0  2  0  0  0  0  0  0
  160.7450  204.2490  153.3950 C   0  0  0  0  0  2  0  0  0  0  0  0
  160.7790  205.9310  151.5490 C   0  0  1  0  0  3  0  0  0  0  0  0
  161.7760  207.7140  152.8160 O   0  0  0  0  0  1  0  0  0  0  0  0
  161.6050  205.7710  144.9190 O   0  0  0  0  0  1  0  0  0  0  0  0
  160.1530  206.7370  147.8850 C   0  0  0  0  0  3  0  0  0  0  0  0
  162.0660  206.6910  151.9100 C   0  0  2  0  0  3  0  0  0  0  0  0
  161.4120  206.4840  148.6460 C   0  0  1  0  0  3  0  0  0  0  0  0
  161.8640  201.2940  147.7530 Cl  0  0  0  0  0  0  0  0  0  0  0  0
  161.7840  207.6590  149.5680 C   0  0  2  0  0  3  0  0  0  0  0  0
  161.8400  204.2260  146.8280 C   0  0  2  0  0  3  0  0  0  0  0  0
  161.0470  204.8010  150.5700 C   0  0  0  0  0  0  0  0  0  0  0  0
  159.9500  206.1260  146.7140 C   0  0  0  0  0  3  0  0  0  0  0  0
  161.0280  203.4610  151.0210 C   0  0  0  0  0  0  0  0  0  0  0  0
  161.5380  203.9980  148.3010 C   0  0  0  0  0  0  0  0  0  0  0  0
  160.9950  205.2560  146.0660 C   0  0  2  0  0  0  0  0  0  0  0  0
  161.9960  210.1150  149.1260 O   0  0  0  0  0  1  0  0  0  0  0  0
  162.3120  208.8070  148.7730 C   0  0  0  0  0  0  0  0  0  0  0  0
  163.0410  208.5900  147.7700 O   0  0  0  0  0  0  0  0  0  0  0  0
  1  6  1  6  0  0  0
  1 24  1  0  0  0  0
  1 19  1  0  0  0  0
  3 20  1  0  0  0  0
  4 22  1  0  0  0  0
  5  4  2  0  0  0  0
  7  2  1  6  0  0  0
  7 15  1  0  0  0  0
  8 10  1  0  0  0  0
  9 10  1  0  0  0  0
 11 15  1  0  0  0  0
 11  8  1  1  0  0  0
 15 12  1  1  0  0  0
 16 14  1  1  0  0  0
 16  3  1  0  0  0  0
 16 18  1  0  0  0  0
 17  5  1  0  0  0  0
 18 26  1  6  0  0  0
 18  7  1  0  0  0  0
 19 23  1  1  0  0  0
 20 22  2  0  0  0  0
 20 11  1  0  0  0  0
 21 14  2  0  0  0  0
 22  9  1  0  0  0  0
 23  5  1  0  0  0  0
 23  3  2  0  0  0  0
 24 13  1  6  0  0  0
 24 21  1  0  0  0  0
 24 19  1  0  0  0  0
 26 25  1  0  0  0  0
 27 26  2  0  0  0  0
M  END
>  <MODEL>
3

>  <REMARK>
 VINA RESULT:      -3.6      4.980      7.933
  Name = 
  1 active torsions:
  status: ('A' for Active; 'I' for Inactive)
    1  A    between atoms: C_18  and  C_23
                            x       y       z     vdW  Elec       q    Type
                         _______ _______ _______ _____ _____    ______ ____

>  <TORSDO>
F 1

$$$$
=
 OpenBabel11042421333D

 27 31  0  0  1  0  0  0  0  0999 V2000
  160.6590  203.5360  149.1380 C   0  0  1  0  0  3  0  0  0  0  0  0
  163.6260  208.2360  151.2480 O   0  0  0  0  0  1  0  0  0  0  0  0
  161.2440  206.4320  151.1040 C   0  0  0  0  0  0  0  0  0  0  0  0
  161.1300  204.7510  153.3510 C   0  0  0  0  0  3  0  0  0  0  0  0
  161.4470  204.2160  152.1090 C   0  0  0  0  0  0  0  0  0  0  0  0
  161.1670  202.4100  148.4860 O   0  0  0  0  0  1  0  0  0  0  0  0
  162.5720  209.1460  151.1220 C   0  0  2  0  0  3  0  0  0  0  0  0
  159.7750  208.7320  153.8180 C   0  0  0  0  0  2  0  0  0  0  0  0
  160.3920  206.5690  154.8540 C   0  0  0  0  0  2  0  0  0  0  0  0
  160.4590  208.0810  155.0070 C   0  0  0  0  0  2  0  0  0  0  0  0
  160.5610  208.4360  152.5380 C   0  0  1  0  0  3  0  0  0  0  0  0
  161.4950  210.6500  152.6140 O   0  0  0  0  0  1  0  0  0  0  0  0
  161.6600  204.6050  147.1730 O   0  0  0  0  0  1  0  0  0  0  0  0
  160.0810  207.0290  149.0360 C   0  0  0  0  0  3  0  0  0  0  0  0
  161.8270  209.3040  152.4490 C   0  0  2  0  0  3  0  0  0  0  0  0
  161.3100  207.2820  149.8460 C   0  0  1  0  0  3  0  0  0  0  0  0
  161.8250  202.5000  152.0390 Cl  0  0  0  0  0  0  0  0  0  0  0  0
  161.6370  208.7820  149.9600 C   0  0  2  0  0  3  0  0  0  0  0  0
  161.8240  204.4060  149.6260 C   0  0  2  0  0  3  0  0  0  0  0  0
  160.8740  206.9600  152.3710 C   0  0  0  0  0  0  0  0  0  0  0  0
  159.9300  205.8620  148.4060 C   0  0  0  0  0  3  0  0  0  0  0  0
  160.8440  206.1040  153.4970 C   0  0  0  0  0  0  0  0  0  0  0  0
  161.4630  205.0360  150.9630 C   0  0  0  0  0  0  0  0  0  0  0  0
  161.0060  204.8060  148.3910 C   0  0  2  0  0  0  0  0  0  0  0  0
  162.0510  210.6410  148.3340 O   0  0  0  0  0  1  0  0  0  0  0  0
  162.1910  209.2990  148.6740 C   0  0  0  0  0  0  0  0  0  0  0  0
  162.7820  208.5140  147.8870 O   0  0  0  0  0  0  0  0  0  0  0  0
  1  6  1  6  0  0  0
  1 19  1  0  0  0  0
  3 20  1  0  0  0  0
  4 22  1  0  0  0  0
  5  4  2  0  0  0  0
  7  2  1  1  0  0  0
  7 15  1  0  0  0  0
  8 10  1  0  0  0  0
  9 10  1  0  0  0  0
 11  8  1  1  0  0  0
 15 11  1  0  0  0  0
 15 12  1  6  0  0  0
 16 14  1  1  0  0  0
 16 18  1  0  0  0  0
 16  3  1  0  0  0  0
 17  5  1  0  0  0  0
 18 26  1  6  0  0  0
 18  7  1  0  0  0  0
 19 23  1  1  0  0  0
 20 11  1  0  0  0  0
 20 22  2  0  0  0  0
 21 14  2  0  0  0  0
 22  9  1  0  0  0  0
 23  3  2  0  0  0  0
 23  5  1  0  0  0  0
 24 13  1  6  0  0  0
 24 21  1  0  0  0  0
 24  1  1  0  0  0  0
 24 19  1  0  0  0  0
 25 26  1  0  0  0  0
 27 26  2  0  0  0  0
M  END
>  <MODEL>
4

>  <REMARK>
 VINA RESULT:      -3.5      3.772      6.351
  Name = 
  1 active torsions:
  status: ('A' for Active; 'I' for Inactive)
    1  A    between atoms: C_18  and  C_23
                            x       y       z     vdW  Elec       q    Type
                         _______ _______ _______ _____ _____    ______ ____

>  <TORSDO>
F 1

$$$$
=
 OpenBabel11042421333D

 27 31  0  0  1  0  0  0  0  0999 V2000
  157.6210  214.4520  148.5590 C   0  0  1  0  0  3  0  0  0  0  0  0
  158.5690  210.3530  152.7600 O   0  0  0  0  0  1  0  0  0  0  0  0
  158.2550  213.1700  151.8080 C   0  0  0  0  0  0  0  0  0  0  0  0
  155.7460  214.1970  152.5430 C   0  0  0  0  0  3  0  0  0  0  0  0
  156.0070  213.9140  151.2080 C   0  0  0  0  0  0  0  0  0  0  0  0
  157.0380  214.2860  147.3010 O   0  0  0  0  0  1  0  0  0  0  0  0
  159.6720  210.9860  153.3390 C   0  0  2  0  0  3  0  0  0  0  0  0
  158.7640  214.1070  155.5060 C   0  0  0  0  0  2  0  0  0  0  0  0
  156.3840  214.4530  154.9160 C   0  0  0  0  0  2  0  0  0  0  0  0
  157.3320  213.8780  155.9570 C   0  0  0  0  0  2  0  0  0  0  0  0
  159.0470  213.3010  154.2350 C   0  0  1  0  0  3  0  0  0  0  0  0
  160.2200  211.6650  155.5500 O   0  0  0  0  0  1  0  0  0  0  0  0
  159.2030  212.8640  147.5680 O   0  0  0  0  0  1  0  0  0  0  0  0
  160.3570  213.7340  150.6910 C   0  0  0  0  0  3  0  0  0  0  0  0
  159.2500  211.8100  154.5560 C   0  0  2  0  0  3  0  0  0  0  0  0
  159.5940  212.6270  151.3400 C   0  0  1  0  0  3  0  0  0  0  0  0
  154.7010  214.1610  150.0560 Cl  0  0  0  0  0  0  0  0  0  0  0  0
  160.4630  211.8100  152.3140 C   0  0  2  0  0  3  0  0  0  0  0  0
  157.5120  213.1380  149.3430 C   0  0  2  0  0  3  0  0  0  0  0  0
  157.9920  213.5090  153.1630 C   0  0  0  0  0  0  0  0  0  0  0  0
  159.9720  214.1960  149.4980 C   0  0  0  0  0  3  0  0  0  0  0  0
  156.7150  214.0030  153.5200 C   0  0  0  0  0  0  0  0  0  0  0  0
  157.2760  213.4420  150.8150 C   0  0  0  0  0  0  0  0  0  0  0  0
  158.8440  213.5730  148.7170 C   0  0  2  0  0  0  0  0  0  0  0  0
  161.6280  211.1250  150.2060 O   0  0  0  0  0  0  0  0  0  0  0  0
  161.4070  210.9290  151.5650 C   0  0  0  0  0  0  0  0  0  0  0  0
  162.0000  209.9950  152.1650 O   0  0  0  0  0  1  0  0  0  0  0  0
  1  6  1  6  0  0  0
  1 24  1  0  0  0  0
  1 19  1  0  0  0  0
  3 20  1  0  0  0  0
  4 22  1  0  0  0  0
  5  4  2  0  0  0  0
  7  2  1  6  0  0  0
  7 15  1  0  0  0  0
  8 10  1  0  0  0  0
  9 10  1  0  0  0  0
 11 15  1  0  0  0  0
 11  8  1  1  0  0  0
 15 12  1  1  0  0  0
 16 14  1  1  0  0  0
 16  3  1  0  0  0  0
 16 18  1  0  0  0  0
 17  5  1  0  0  0  0
 18 26  1  6  0  0  0
 18  7  1  0  0  0  0
 19 23  1  1  0  0  0
 20 22  2  0  0  0  0
 20 11  1  0  0  0  0
 21 14  2  0  0  0  0
 22  9  1  0  0  0  0
 23  5  1  0  0  0  0
 23  3  2  0  0  0  0
 24 13  1  6  0  0  0
 24 19  1  0  0  0  0
 24 21  1  0  0  0  0
 25 26  2  0  0  0  0
 26 27  1  0  0  0  0
M  END
>  <MODEL>
5

>  <REMARK>
 VINA RESULT:      -3.4      3.372      7.270
  Name = 
  1 active torsions:
  status: ('A' for Active; 'I' for Inactive)
    1  A    between atoms: C_18  and  C_23
                            x       y       z     vdW  Elec       q    Type
                         _______ _______ _______ _____ _____    ______ ____

>  <TORSDO>
F 1

$$$$
=
 OpenBabel11042421333D

 27 31  0  0  1  0  0  0  0  0999 V2000
  161.4760  204.0000  149.9090 C   0  0  1  0  0  3  0  0  0  0  0  0
  159.3180  208.8560  152.5760 O   0  0  0  0  0  1  0  0  0  0  0  0
  161.3800  207.3790  150.9910 C   0  0  0  0  0  0  0  0  0  0  0  0
  161.2500  208.0910  148.2770 C   0  0  0  0  0  3  0  0  0  0  0  0
  160.8380  206.8260  148.6760 C   0  0  0  0  0  0  0  0  0  0  0  0
  160.7870  202.8540  149.5050 O   0  0  0  0  0  1  0  0  0  0  0  0
  160.5020  209.2020  153.2340 C   0  0  2  0  0  3  0  0  0  0  0  0
  163.2260  210.7550  150.9040 C   0  0  0  0  0  2  0  0  0  0  0  0
  162.2840  210.3030  148.6580 C   0  0  0  0  0  2  0  0  0  0  0  0
  162.4600  211.3590  149.7390 C   0  0  0  0  0  2  0  0  0  0  0  0
  162.3900  209.6570  151.5660 C   0  0  1  0  0  3  0  0  0  0  0  0
  161.8210  211.1770  153.3400 O   0  0  0  0  0  1  0  0  0  0  0  0
  160.6360  203.2280  152.0780 O   0  0  0  0  0  1  0  0  0  0  0  0
  162.6010  206.0040  152.6050 C   0  0  0  0  0  3  0  0  0  0  0  0
  161.2770  210.2570  152.4410 C   0  0  2  0  0  3  0  0  0  0  0  0
  161.4370  206.9250  152.4390 C   0  0  1  0  0  3  0  0  0  0  0  0
  160.1900  205.7580  147.4370 Cl  0  0  0  0  0  0  0  0  0  0  0  0
  161.3540  207.9700  153.5660 C   0  0  2  0  0  3  0  0  0  0  0  0
  160.4690  205.0420  150.4140 C   0  0  2  0  0  3  0  0  0  0  0  0
  161.8440  208.6540  150.5650 C   0  0  0  0  0  0  0  0  0  0  0  0
  162.5570  204.7780  152.0770 C   0  0  0  0  0  3  0  0  0  0  0  0
  161.7490  209.0050  149.1980 C   0  0  0  0  0  0  0  0  0  0  0  0
  160.9400  206.4350  150.0250 C   0  0  0  0  0  0  0  0  0  0  0  0
  161.3270  204.2340  151.3980 C   0  0  2  0  0  0  0  0  0  0  0  0
  161.3520  207.7840  156.0640 O   0  0  0  0  0  1  0  0  0  0  0  0
  160.8760  207.3420  154.8340 C   0  0  0  0  0  0  0  0  0  0  0  0
  160.0430  206.4000  154.7890 O   0  0  0  0  0  0  0  0  0  0  0  0
  1  6  1  1  0  0  0
  1 19  1  0  0  0  0
  1 24  1  0  0  0  0
  3 16  1  0  0  0  0
  4  5  2  0  0  0  0
  4 22  1  0  0  0  0
  5 23  1  0  0  0  0
  7  2  1  6  0  0  0
  7 18  1  0  0  0  0
  9 22  1  0  0  0  0
  9 10  1  0  0  0  0
 10  8  1  0  0  0  0
 11  8  1  6  0  0  0
 11 15  1  0  0  0  0
 15  7  1  0  0  0  0
 15 12  1  1  0  0  0
 16 14  1  6  0  0  0
 16 18  1  0  0  0  0
 17  5  1  0  0  0  0
 18 26  1  1  0  0  0
 19 23  1  6  0  0  0
 19 24  1  0  0  0  0
 20  3  1  0  0  0  0
 20 11  1  0  0  0  0
 21 14  2  0  0  0  0
 22 20  2  0  0  0  0
 23  3  2  0  0  0  0
 24 21  1  0  0  0  0
 24 13  1  1  0  0  0
 26 25  1  0  0  0  0
 27 26  2  0  0  0  0
M  END
>  <MODEL>
6

>  <REMARK>
 VINA RESULT:      -3.1      2.906      4.849
  Name = 
  1 active torsions:
  status: ('A' for Active; 'I' for Inactive)
    1  A    between atoms: C_18  and  C_23
                            x       y       z     vdW  Elec       q    Type
                         _______ _______ _______ _____ _____    ______ ____

>  <TORSDO>
F 1

$$$$
=
 OpenBabel11042421333D

 27 31  0  0  1  0  0  0  0  0999 V2000
  160.5560  211.7100  151.1840 C   0  0  1  0  0  3  0  0  0  0  0  0
  163.1680  206.6530  152.9020 O   0  0  0  0  0  1  0  0  0  0  0  0
  161.1530  208.2140  151.3390 C   0  0  0  0  0  0  0  0  0  0  0  0
  161.8910  208.3690  148.6330 C   0  0  0  0  0  3  0  0  0  0  0  0
  161.9610  209.5050  149.4300 C   0  0  0  0  0  0  0  0  0  0  0  0
  161.0540  213.0120  151.2580 O   0  0  0  0  0  1  0  0  0  0  0  0
  161.9850  205.9570  153.1650 C   0  0  2  0  0  3  0  0  0  0  0  0
  160.0790  204.7840  149.9630 C   0  0  0  0  0  2  0  0  0  0  0  0
  161.2810  206.0170  148.1820 C   0  0  0  0  0  2  0  0  0  0  0  0
  161.1410  204.6740  148.8830 C   0  0  0  0  0  2  0  0  0  0  0  0
  160.5460  205.7460  151.0580 C   0  0  1  0  0  3  0  0  0  0  0  0
  161.0990  203.8690  152.4540 O   0  0  0  0  0  1  0  0  0  0  0  0
  160.8330  211.9160  153.6100 O   0  0  0  0  0  1  0  0  0  0  0  0
  159.4170  208.8520  152.9400 C   0  0  0  0  0  3  0  0  0  0  0  0
  161.5910  205.0840  151.9720 C   0  0  2  0  0  3  0  0  0  0  0  0
  160.7550  208.2040  152.8050 C   0  0  1  0  0  3  0  0  0  0  0  0
  162.5800  210.9760  148.6900 Cl  0  0  0  0  0  0  0  0  0  0  0  0
  160.8540  206.8950  153.6080 C   0  0  2  0  0  3  0  0  0  0  0  0
  161.6520  210.7250  151.6110 C   0  0  2  0  0  3  0  0  0  0  0  0
  161.0400  207.0700  150.5020 C   0  0  0  0  0  0  0  0  0  0  0  0
  159.2990  210.1730  152.7750 C   0  0  0  0  0  3  0  0  0  0  0  0
  161.4390  207.1590  149.1480 C   0  0  0  0  0  0  0  0  0  0  0  0
  161.5500  209.4570  150.7770 C   0  0  0  0  0  0  0  0  0  0  0  0
  160.4910  211.0690  152.5540 C   0  0  2  0  0  0  0  0  0  0  0  0
  161.9020  208.0990  155.5380 O   0  0  0  0  0  0  0  0  0  0  0  0
  160.9690  207.1810  155.0700 C   0  0  0  0  0  0  0  0  0  0  0  0
  160.2210  206.5800  155.8840 O   0  0  0  0  0  1  0  0  0  0  0  0
  1  6  1  1  0  0  0
  1 19  1  0  0  0  0
  1 24  1  0  0  0  0
  3 16  1  0  0  0  0
  4 22  2  0  0  0  0
  4  5  1  0  0  0  0
  5 23  2  0  0  0  0
  7  2  1  6  0  0  0
  7 18  1  0  0  0  0
  9 10  1  0  0  0  0
  9 22  1  0  0  0  0
 10  8  1  0  0  0  0
 11  8  1  6  0  0  0
 11 15  1  0  0  0  0
 15 12  1  1  0  0  0
 15  7  1  0  0  0  0
 16 14  1  6  0  0  0
 16 18  1  0  0  0  0
 17  5  1  0  0  0  0
 18 26  1  1  0  0  0
 19 23  1  6  0  0  0
 19 24  1  0  0  0  0
 20 11  1  0  0  0  0
 20  3  2  0  0  0  0
 21 14  2  0  0  0  0
 22 20  1  0  0  0  0
 23  3  1  0  0  0  0
 24 21  1  0  0  0  0
 24 13  1  1  0  0  0
 26 25  2  0  0  0  0
 26 27  1  0  0  0  0
M  END
>  <MODEL>
7

>  <REMARK>
 VINA RESULT:      -3.0      2.570      5.537
  Name = 
  1 active torsions:
  status: ('A' for Active; 'I' for Inactive)
    1  A    between atoms: C_18  and  C_23
                            x       y       z     vdW  Elec       q    Type
                         _______ _______ _______ _____ _____    ______ ____

>  <TORSDO>
F 1

$$$$
=
 OpenBabel11042421333D

 27 31  0  0  1  0  0  0  0  0999 V2000
  157.1360  213.5130  144.0280 C   0  0  1  0  0  3  0  0  0  0  0  0
  162.1330  214.4500  140.9460 O   0  0  0  0  0  1  0  0  0  0  0  0
  159.7580  212.8150  141.7400 C   0  0  0  0  0  0  0  0  0  0  0  0
  157.8060  212.8450  139.7210 C   0  0  0  0  0  3  0  0  0  0  0  0
  157.5730  213.5230  140.9110 C   0  0  0  0  0  0  0  0  0  0  0  0
  156.3140  214.4530  144.6550 O   0  0  0  0  0  1  0  0  0  0  0  0
  162.7060  213.2030  141.2110 C   0  0  2  0  0  3  0  0  0  0  0  0
  161.1110  210.2540  139.2050 C   0  0  0  0  0  2  0  0  0  0  0  0
  159.0910  211.3280  138.2540 C   0  0  0  0  0  2  0  0  0  0  0  0
  160.5190  210.8910  137.9600 C   0  0  0  0  0  2  0  0  0  0  0  0
  161.2450  211.3020  140.3130 C   0  0  1  0  0  3  0  0  0  0  0  0
  163.5990  211.4680  139.8520 O   0  0  0  0  0  1  0  0  0  0  0  0
  158.7250  214.4530  145.6400 O   0  0  0  0  0  1  0  0  0  0  0  0
  160.2880  211.8990  143.9460 C   0  0  0  0  0  3  0  0  0  0  0  0
  162.4460  212.2290  140.0600 C   0  0  2  0  0  3  0  0  0  0  0  0
  160.7640  212.8270  142.8780 C   0  0  1  0  0  3  0  0  0  0  0  0
  156.0700  214.4260  141.0470 Cl  0  0  0  0  0  0  0  0  0  0  0  0
  162.2610  212.6440  142.5690 C   0  0  2  0  0  3  0  0  0  0  0  0
  158.2250  214.2450  143.2330 C   0  0  2  0  0  3  0  0  0  0  0  0
  159.9640  212.0850  140.5370 C   0  0  0  0  0  0  0  0  0  0  0  0
  159.2320  212.2320  144.6930 C   0  0  0  0  0  3  0  0  0  0  0  0
  158.9810  212.1310  139.5210 C   0  0  0  0  0  0  0  0  0  0  0  0
  158.5210  213.4800  141.9530 C   0  0  0  0  0  0  0  0  0  0  0  0
  158.5470  213.5690  144.5730 C   0  0  2  0  0  0  0  0  0  0  0  0
  164.1350  214.1020  143.3650 O   0  0  0  0  0  0  0  0  0  0  0  0
  163.0990  213.2220  143.6610 C   0  0  0  0  0  0  0  0  0  0  0  0
  162.8730  212.9030  144.8580 O   0  0  0  0  0  1  0  0  0  0  0  0
  1 24  1  0  0  0  0
  1  6  1  1  0  0  0
  3 23  1  0  0  0  0
  3 16  1  0  0  0  0
  4  5  1  0  0  0  0
  5 17  1  0  0  0  0
  5 23  2  0  0  0  0
  7  2  1  6  0  0  0
  7 18  1  0  0  0  0
  9 22  1  0  0  0  0
 10  9  1  0  0  0  0
 10  8  1  0  0  0  0
 11  8  1  6  0  0  0
 11 20  1  0  0  0  0
 14 21  2  0  0  0  0
 15 12  1  1  0  0  0
 15 11  1  0  0  0  0
 15  7  1  0  0  0  0
 16 14  1  1  0  0  0
 18 16  1  0  0  0  0
 18 26  1  1  0  0  0
 19 23  1  6  0  0  0
 19  1  1  0  0  0  0
 19 24  1  0  0  0  0
 20  3  2  0  0  0  0
 22  4  2  0  0  0  0
 22 20  1  0  0  0  0
 24 21  1  0  0  0  0
 24 13  1  1  0  0  0
 25 26  2  0  0  0  0
 26 27  1  0  0  0  0
M  END
>  <MODEL>
8

>  <REMARK>
 VINA RESULT:      -2.7      9.561     12.254
  Name = 
  1 active torsions:
  status: ('A' for Active; 'I' for Inactive)
    1  A    between atoms: C_18  and  C_23
                            x       y       z     vdW  Elec       q    Type
                         _______ _______ _______ _____ _____    ______ ____

>  <TORSDO>
F 1

$$$$
=
 OpenBabel11042421333D

 27 31  0  0  1  0  0  0  0  0999 V2000
  161.8160  205.8760  145.4480 C   0  0  1  0  0  3  0  0  0  0  0  0
  158.9190  203.9960  150.2880 O   0  0  0  0  0  1  0  0  0  0  0  0
  161.2880  205.1650  148.8850 C   0  0  0  0  0  0  0  0  0  0  0  0
  161.4450  207.9340  149.3310 C   0  0  0  0  0  3  0  0  0  0  0  0
  161.0970  207.4600  148.0720 C   0  0  0  0  0  0  0  0  0  0  0  0
  161.2880  206.2380  144.2070 O   0  0  0  0  0  1  0  0  0  0  0  0
  159.9750  203.2410  150.8090 C   0  0  2  0  0  3  0  0  0  0  0  0
  162.8280  205.3780  152.4060 C   0  0  0  0  0  2  0  0  0  0  0  0
  162.2250  207.6620  151.6600 C   0  0  0  0  0  2  0  0  0  0  0  0
  162.1680  206.6810  152.8220 C   0  0  0  0  0  2  0  0  0  0  0  0
  162.0130  204.7110  151.2950 C   0  0  1  0  0  3  0  0  0  0  0  0
  161.0920  203.1830  152.9060 O   0  0  0  0  0  1  0  0  0  0  0  0
  160.7760  203.7540  144.7970 O   0  0  0  0  0  1  0  0  0  0  0  0
  162.4080  203.2850  147.7910 C   0  0  0  0  0  3  0  0  0  0  0  0
  160.7490  204.0410  151.8580 C   0  0  2  0  0  3  0  0  0  0  0  0
  161.1990  203.6810  148.5720 C   0  0  1  0  0  3  0  0  0  0  0  0
  160.7090  208.6500  146.8370 Cl  0  0  0  0  0  0  0  0  0  0  0  0
  160.8820  202.6860  149.7030 C   0  0  2  0  0  3  0  0  0  0  0  0
  160.6660  205.6030  146.4260 C   0  0  2  0  0  3  0  0  0  0  0  0
  161.6890  205.6610  150.1560 C   0  0  0  0  0  0  0  0  0  0  0  0
  162.5390  203.6860  146.5230 C   0  0  0  0  0  3  0  0  0  0  0  0
  161.7400  207.0590  150.3700 C   0  0  0  0  0  0  0  0  0  0  0  0
  161.0590  206.0740  147.8180 C   0  0  0  0  0  0  0  0  0  0  0  0
  161.4580  204.4470  145.8000 C   0  0  2  0  0  0  0  0  0  0  0  0
  161.1170  200.4890  148.5230 O   0  0  0  0  0  0  0  0  0  0  0  0
  160.3010  201.4260  149.1480 C   0  0  0  0  0  0  0  0  0  0  0  0
  159.0640  201.2150  149.2390 O   0  0  0  0  0  1  0  0  0  0  0  0
  1  6  1  6  0  0  0
  1 24  1  0  0  0  0
  1 19  1  0  0  0  0
  3 20  1  0  0  0  0
  4 22  1  0  0  0  0
  5  4  2  0  0  0  0
  7  2  1  6  0  0  0
  7 15  1  0  0  0  0
  8 10  1  0  0  0  0
  9 10  1  0  0  0  0
 11 15  1  0  0  0  0
 11  8  1  1  0  0  0
 15 12  1  1  0  0  0
 16 14  1  1  0  0  0
 16  3  1  0  0  0  0
 16 18  1  0  0  0  0
 17  5  1  0  0  0  0
 18 26  1  6  0  0  0
 18  7  1  0  0  0  0
 19 23  1  1  0  0  0
 20 22  2  0  0  0  0
 20 11  1  0  0  0  0
 21 14  2  0  0  0  0
 22  9  1  0  0  0  0
 23  5  1  0  0  0  0
 23  3  2  0  0  0  0
 24 13  1  6  0  0  0
 24 19  1  0  0  0  0
 24 21  1  0  0  0  0
 25 26  2  0  0  0  0
 26 27  1  0  0  0  0
M  END
>  <MODEL>
9

>  <REMARK>
 VINA RESULT:      -2.1      5.634      9.126
  Name = 
  1 active torsions:
  status: ('A' for Active; 'I' for Inactive)
    1  A    between atoms: C_18  and  C_23
                            x       y       z     vdW  Elec       q    Type
                         _______ _______ _______ _____ _____    ______ ____

>  <TORSDO>
F 1

$$$$
