=
 OpenBabel11042422323D

 26 29  0  0  1  0  0  0  0  0999 V2000
  161.3500  205.1270  152.7530 C   0  0  0  0  0  3  0  0  0  0  0  0
  159.4990  210.7990  156.3750 C   0  0  0  0  0  0  0  0  0  0  0  0
  160.5770  208.2550  154.8250 C   0  0  2  0  0  3  0  0  0  0  0  0
  162.2740  210.6050  156.6260 O   0  0  0  0  0  1  0  0  0  0  0  0
  160.8980  206.0520  153.8100 C   0  0  0  0  0  3  0  0  0  0  0  0
  161.0280  207.3780  153.6900 C   0  0  0  0  0  0  0  0  0  0  0  0
  161.2750  210.2420  153.4310 C   0  0  1  0  0  3  0  0  0  0  0  0
  160.6090  211.5240  152.9770 C   0  0  0  0  0  2  0  0  0  0  0  0
  161.6550  207.9750  152.4580 C   0  0  0  0  0  0  0  0  0  0  0  0
  159.3210  210.6360  154.8800 C   0  0  1  0  0  3  0  0  0  0  0  0
  159.6910  211.9220  154.1360 C   0  0  2  0  0  3  0  0  0  0  0  0
  162.6620  207.4030  150.3480 O   0  0  0  0  0  0  0  0  0  0  0  0
  161.5600  209.4410  156.9170 C   0  0  2  0  0  3  0  0  0  0  0  0
  160.1630  209.5730  154.1890 C   0  0  2  0  0  3  0  0  0  0  0  0
  161.7450  208.4030  155.8110 C   0  0  0  0  0  2  0  0  0  0  0  0
  162.1160  207.0160  151.4150 C   0  0  0  0  0  0  0  0  0  0  0  0
  161.7760  209.3250  152.3220 C   0  0  0  0  0  0  0  0  0  0  0  0
  161.9210  205.5750  151.6340 C   0  0  0  0  0  3  0  0  0  0  0  0
  160.1010  209.7400  157.2540 C   0  0  0  0  0  2  0  0  0  0  0  0
  159.0710  211.8080  156.9130 O   0  0  0  0  0  0  0  0  0  0  0  0
  161.7850  210.6200  150.1960 C   0  0  0  0  0  1  0  0  0  0  0  0
  162.4320  209.8490  151.1970 O   0  0  0  0  0  0  0  0  0  0  0  0
  158.4360  212.6040  153.6170 C   0  0  0  0  0  2  0  0  0  0  0  0
  158.1860  213.8760  154.3500 C   0  0  0  0  0  0  0  0  0  0  0  0
  159.1300  214.4500  154.9550 O   0  0  0  0  0  1  0  0  0  0  0  0
  156.9220  214.4490  154.3390 O   0  0  0  0  0  0  0  0  0  0  0  0
  1  5  1  0  0  0  0
  2 20  2  0  0  0  0
  2 19  1  0  0  0  0
  3 15  1  1  0  0  0
  6  5  2  0  0  0  0
  6  3  1  0  0  0  0
  7  8  1  6  0  0  0
  7 14  1  0  0  0  0
  8 11  1  0  0  0  0
  9  6  1  0  0  0  0
 10  2  1  1  0  0  0
 11 23  1  6  0  0  0
 11 10  1  0  0  0  0
 12 16  2  0  0  0  0
 13  4  1  6  0  0  0
 13 19  1  0  0  0  0
 14  3  1  0  0  0  0
 14 10  1  0  0  0  0
 15 13  1  0  0  0  0
 16 18  1  0  0  0  0
 16  9  1  0  0  0  0
 17  9  2  0  0  0  0
 17  7  1  0  0  0  0
 18  1  2  0  0  0  0
 21 22  1  0  0  0  0
 22 17  1  0  0  0  0
 23 24  1  0  0  0  0
 24 25  1  0  0  0  0
 26 24  2  0  0  0  0
M  END
>  <MODEL>
1

>  <REMARK>
 VINA RESULT:      -6.6      0.000      0.000
  Name = 
  3 active torsions:
  status: ('A' for Active; 'I' for Inactive)
    1  A    between atoms: C_3  and  C_22
    2  A    between atoms: O_9  and  C_23
    3  A    between atoms: C_14  and  C_22
                            x       y       z     vdW  Elec       q    Type
                         _______ _______ _______ _____ _____    ______ ____

>  <TORSDO>
F 3

$$$$
=
 OpenBabel11042422323D

 26 29  0  0  1  0  0  0  0  0999 V2000
  159.6170  201.5680  148.8700 C   0  0  0  0  0  3  0  0  0  0  0  0
  161.3520  207.7580  151.5900 C   0  0  0  0  0  0  0  0  0  0  0  0
  160.7880  204.8570  150.4470 C   0  0  2  0  0  3  0  0  0  0  0  0
  163.5990  206.1290  151.9030 O   0  0  0  0  0  1  0  0  0  0  0  0
  159.8060  202.7190  149.7740 C   0  0  0  0  0  3  0  0  0  0  0  0
  160.6180  203.7360  149.4600 C   0  0  0  0  0  0  0  0  0  0  0  0
  162.3440  205.9480  148.7840 C   0  0  1  0  0  3  0  0  0  0  0  0
  162.4400  207.3130  148.1370 C   0  0  0  0  0  2  0  0  0  0  0  0
  161.3810  203.7300  148.1620 C   0  0  0  0  0  0  0  0  0  0  0  0
  161.0120  207.5220  150.1340 C   0  0  1  0  0  3  0  0  0  0  0  0
  161.9610  208.2920  149.2120 C   0  0  2  0  0  3  0  0  0  0  0  0
  161.7760  202.4340  146.1730 O   0  0  0  0  0  0  0  0  0  0  0  0
  162.3950  205.5870  152.3540 C   0  0  2  0  0  3  0  0  0  0  0  0
  161.1020  206.0920  149.6180 C   0  0  2  0  0  3  0  0  0  0  0  0
  161.9170  204.4780  151.4160 C   0  0  0  0  0  2  0  0  0  0  0  0
  161.1830  202.5480  147.2780 C   0  0  0  0  0  0  0  0  0  0  0  0
  162.1970  204.7700  147.8300 C   0  0  0  0  0  0  0  0  0  0  0  0
  160.2610  201.4850  147.7050 C   0  0  0  0  0  3  0  0  0  0  0  0
  161.3500  206.6680  152.6230 C   0  0  0  0  0  2  0  0  0  0  0  0
  161.5700  208.8980  151.9670 O   0  0  0  0  0  0  0  0  0  0  0  0
  162.6230  205.4080  145.4620 C   0  0  0  0  0  1  0  0  0  0  0  0
  162.9520  204.7030  146.6490 O   0  0  0  0  0  0  0  0  0  0  0  0
  161.2350  209.4690  148.5820 C   0  0  0  0  0  2  0  0  0  0  0  0
  161.9540  210.7440  148.8620 C   0  0  0  0  0  0  0  0  0  0  0  0
  162.3630  210.9930  150.0260 O   0  0  0  0  0  1  0  0  0  0  0  0
  162.2060  211.6410  147.8330 O   0  0  0  0  0  0  0  0  0  0  0  0
  1  5  1  0  0  0  0
  2 20  2  0  0  0  0
  2 19  1  0  0  0  0
  3 15  1  1  0  0  0
  6  5  2  0  0  0  0
  6  3  1  0  0  0  0
  7  8  1  6  0  0  0
  7 14  1  0  0  0  0
  8 11  1  0  0  0  0
  9  6  1  0  0  0  0
 10  2  1  1  0  0  0
 11 23  1  6  0  0  0
 11 10  1  0  0  0  0
 12 16  2  0  0  0  0
 13  4  1  6  0  0  0
 13 19  1  0  0  0  0
 14 10  1  0  0  0  0
 14  3  1  0  0  0  0
 15 13  1  0  0  0  0
 16 18  1  0  0  0  0
 16  9  1  0  0  0  0
 17  9  2  0  0  0  0
 17  7  1  0  0  0  0
 18  1  2  0  0  0  0
 21 22  1  0  0  0  0
 22 17  1  0  0  0  0
 23 24  1  0  0  0  0
 24 25  1  0  0  0  0
 26 24  2  0  0  0  0
M  END
>  <MODEL>
2

>  <REMARK>
 VINA RESULT:      -6.2      4.298      6.368
  Name = 
  3 active torsions:
  status: ('A' for Active; 'I' for Inactive)
    1  A    between atoms: C_3  and  C_22
    2  A    between atoms: O_9  and  C_23
    3  A    between atoms: C_14  and  C_22
                            x       y       z     vdW  Elec       q    Type
                         _______ _______ _______ _____ _____    ______ ____

>  <TORSDO>
F 3

$$$$
=
 OpenBabel11042422323D

 26 29  0  0  1  0  0  0  0  0999 V2000
  161.2680  205.3920  150.8720 C   0  0  0  0  0  3  0  0  0  0  0  0
  159.5110  210.2170  155.6010 C   0  0  0  0  0  0  0  0  0  0  0  0
  160.5490  208.0360  153.5490 C   0  0  2  0  0  3  0  0  0  0  0  0
  162.2880  209.9590  155.7670 O   0  0  0  0  0  1  0  0  0  0  0  0
  160.8380  206.0840  152.1020 C   0  0  0  0  0  3  0  0  0  0  0  0
  160.9770  207.4070  152.2530 C   0  0  0  0  0  0  0  0  0  0  0  0
  161.2450  210.2620  152.5800 C   0  0  1  0  0  3  0  0  0  0  0  0
  160.5850  211.6130  152.4060 C   0  0  0  0  0  2  0  0  0  0  0  0
  161.5950  208.2390  151.1590 C   0  0  0  0  0  0  0  0  0  0  0  0
  159.3140  210.3630  154.1060 C   0  0  1  0  0  3  0  0  0  0  0  0
  159.6850  211.7710  153.6350 C   0  0  2  0  0  3  0  0  0  0  0  0
  162.5700  208.1030  148.9640 O   0  0  0  0  0  0  0  0  0  0  0  0
  161.5670  208.7650  155.8250 C   0  0  2  0  0  3  0  0  0  0  0  0
  160.1370  209.4580  153.2010 C   0  0  2  0  0  3  0  0  0  0  0  0
  161.7290  207.9730  154.5280 C   0  0  0  0  0  2  0  0  0  0  0  0
  162.0340  207.5100  149.9370 C   0  0  0  0  0  0  0  0  0  0  0  0
  161.7250  209.5880  151.3010 C   0  0  0  0  0  0  0  0  0  0  0  0
  161.8290  206.0560  149.8600 C   0  0  0  0  0  3  0  0  0  0  0  0
  160.1150  208.9970  156.2360 C   0  0  0  0  0  2  0  0  0  0  0  0
  159.0990  211.0970  156.3390 O   0  0  0  0  0  0  0  0  0  0  0  0
  161.7040  211.2320  149.4320 C   0  0  0  0  0  1  0  0  0  0  0  0
  162.3710  210.3260  150.2970 O   0  0  0  0  0  0  0  0  0  0  0  0
  158.4290  212.5520  153.2830 C   0  0  0  0  0  2  0  0  0  0  0  0
  158.0890  213.5170  154.3660 C   0  0  0  0  0  0  0  0  0  0  0  0
  158.8820  214.4530  154.6470 O   0  0  0  0  0  0  0  0  0  0  0  0
  156.8820  213.4060  155.0430 O   0  0  0  0  0  1  0  0  0  0  0  0
  1  5  1  0  0  0  0
  2 19  1  0  0  0  0
  2 20  2  0  0  0  0
  3 15  1  1  0  0  0
  5  6  2  0  0  0  0
  6  3  1  0  0  0  0
  7  8  1  6  0  0  0
  7 14  1  0  0  0  0
  8 11  1  0  0  0  0
  9 17  2  0  0  0  0
  9  6  1  0  0  0  0
 10  2  1  1  0  0  0
 11 23  1  6  0  0  0
 11 10  1  0  0  0  0
 12 16  2  0  0  0  0
 13  4  1  6  0  0  0
 13 19  1  0  0  0  0
 14  3  1  0  0  0  0
 14 10  1  0  0  0  0
 15 13  1  0  0  0  0
 16  9  1  0  0  0  0
 17  7  1  0  0  0  0
 18 16  1  0  0  0  0
 18  1  2  0  0  0  0
 21 22  1  0  0  0  0
 22 17  1  0  0  0  0
 23 24  1  0  0  0  0
 24 25  2  0  0  0  0
 24 26  1  0  0  0  0
M  END
>  <MODEL>
3

>  <REMARK>
 VINA RESULT:      -5.9      1.042      1.183
  Name = 
  3 active torsions:
  status: ('A' for Active; 'I' for Inactive)
    1  A    between atoms: C_3  and  C_22
    2  A    between atoms: O_9  and  C_23
    3  A    between atoms: C_14  and  C_22
                            x       y       z     vdW  Elec       q    Type
                         _______ _______ _______ _____ _____    ______ ____

>  <TORSDO>
F 3

$$$$
=
 OpenBabel11042422323D

 26 29  0  0  1  0  0  0  0  0999 V2000
  157.5910  212.5640  154.2430 C   0  0  0  0  0  3  0  0  0  0  0  0
  161.6440  207.9810  150.8830 C   0  0  0  0  0  0  0  0  0  0  0  0
  160.0130  210.2120  152.4340 C   0  0  2  0  0  3  0  0  0  0  0  0
  163.3670  209.9510  151.8600 O   0  0  0  0  0  1  0  0  0  0  0  0
  158.3450  211.8230  153.2140 C   0  0  0  0  0  3  0  0  0  0  0  0
  159.2590  210.9000  153.5370 C   0  0  0  0  0  0  0  0  0  0  0  0
  161.2120  208.8870  154.2180 C   0  0  1  0  0  3  0  0  0  0  0  0
  161.4600  207.4170  154.4820 C   0  0  0  0  0  2  0  0  0  0  0  0
  159.5560  210.5930  154.9810 C   0  0  0  0  0  0  0  0  0  0  0  0
  160.8230  207.6640  152.1150 C   0  0  1  0  0  3  0  0  0  0  0  0
  161.6110  206.7890  153.0940 C   0  0  2  0  0  3  0  0  0  0  0  0
  158.9640  211.2000  157.2330 O   0  0  0  0  0  0  0  0  0  0  0  0
  162.2610  210.4180  151.1470 C   0  0  2  0  0  3  0  0  0  0  0  0
  160.3710  208.8360  152.9740 C   0  0  2  0  0  3  0  0  0  0  0  0
  161.2430  211.0620  152.0880 C   0  0  0  0  0  2  0  0  0  0  0  0
  158.7920  211.3680  155.9970 C   0  0  0  0  0  0  0  0  0  0  0  0
  160.4740  209.6430  155.3160 C   0  0  0  0  0  0  0  0  0  0  0  0
  157.8000  212.3550  155.5440 C   0  0  0  0  0  3  0  0  0  0  0  0
  161.6730  209.3380  150.2400 C   0  0  0  0  0  2  0  0  0  0  0  0
  162.2600  207.0800  150.3360 O   0  0  0  0  0  0  0  0  0  0  0  0
  162.0710  209.6490  157.2260 C   0  0  0  0  0  1  0  0  0  0  0  0
  160.7840  209.4310  156.6680 O   0  0  0  0  0  0  0  0  0  0  0  0
  161.0630  205.3710  153.0840 C   0  0  0  0  0  2  0  0  0  0  0  0
  161.4300  204.6740  151.8190 C   0  0  0  0  0  0  0  0  0  0  0  0
  162.6130  204.2850  151.6350 O   0  0  0  0  0  1  0  0  0  0  0  0
  160.4610  204.4220  150.8580 O   0  0  0  0  0  0  0  0  0  0  0  0
  1 18  2  0  0  0  0
  3 15  1  1  0  0  0
  3 14  1  0  0  0  0
  3  6  1  0  0  0  0
  5  6  2  0  0  0  0
  5  1  1  0  0  0  0
  6  9  1  0  0  0  0
  7  8  1  1  0  0  0
  7 17  1  0  0  0  0
  9 17  2  0  0  0  0
  9 16  1  0  0  0  0
 10  2  1  6  0  0  0
 10 14  1  0  0  0  0
 10 11  1  0  0  0  0
 11 23  1  1  0  0  0
 11  8  1  0  0  0  0
 13  4  1  1  0  0  0
 13 15  1  0  0  0  0
 14  7  1  0  0  0  0
 16 12  2  0  0  0  0
 17 22  1  0  0  0  0
 18 16  1  0  0  0  0
 19  2  1  0  0  0  0
 19 13  1  0  0  0  0
 20  2  2  0  0  0  0
 22 21  1  0  0  0  0
 24 23  1  0  0  0  0
 25 24  1  0  0  0  0
 26 24  2  0  0  0  0
M  END
>  <MODEL>
4

>  <REMARK>
 VINA RESULT:      -5.4      1.674      6.769
  Name = 
  3 active torsions:
  status: ('A' for Active; 'I' for Inactive)
    1  A    between atoms: C_3  and  C_22
    2  A    between atoms: O_9  and  C_23
    3  A    between atoms: C_14  and  C_22
                            x       y       z     vdW  Elec       q    Type
                         _______ _______ _______ _____ _____    ______ ____

>  <TORSDO>
F 3

$$$$
=
 OpenBabel11042422323D

 26 29  0  0  1  0  0  0  0  0999 V2000
  159.4310  212.6640  146.7270 C   0  0  0  0  0  3  0  0  0  0  0  0
  159.4790  211.6950  139.8140 C   0  0  0  0  0  0  0  0  0  0  0  0
  159.4460  212.3880  142.9070 C   0  0  2  0  0  3  0  0  0  0  0  0
  159.6960  214.4530  140.2010 O   0  0  0  0  0  1  0  0  0  0  0  0
  159.0400  212.4680  145.3180 C   0  0  0  0  0  3  0  0  0  0  0  0
  159.9260  212.5650  144.3200 C   0  0  0  0  0  0  0  0  0  0  0  0
  161.8320  212.7400  142.1600 C   0  0  1  0  0  3  0  0  0  0  0  0
  162.8060  211.9860  141.2800 C   0  0  0  0  0  2  0  0  0  0  0  0
  161.3680  212.8880  144.6090 C   0  0  0  0  0  0  0  0  0  0  0  0
  160.5370  211.1760  140.7640 C   0  0  1  0  0  3  0  0  0  0  0  0
  161.9410  211.3610  140.1820 C   0  0  2  0  0  3  0  0  0  0  0  0
  162.9050  213.3790  146.3950 O   0  0  0  0  0  0  0  0  0  0  0  0
  158.6560  213.8280  140.8920 C   0  0  2  0  0  3  0  0  0  0  0  0
  160.6320  211.8360  142.1330 C   0  0  2  0  0  3  0  0  0  0  0  0
  158.9700  213.7530  142.3860 C   0  0  0  0  0  2  0  0  0  0  0  0
  161.7300  213.0960  146.0380 C   0  0  0  0  0  0  0  0  0  0  0  0
  162.2780  212.9720  143.5980 C   0  0  0  0  0  0  0  0  0  0  0  0
  160.6870  212.9590  147.0660 C   0  0  0  0  0  3  0  0  0  0  0  0
  158.2840  212.4860  140.2660 C   0  0  0  0  0  2  0  0  0  0  0  0
  159.5530  211.4020  138.6320 O   0  0  0  0  0  0  0  0  0  0  0  0
  164.2550  214.4530  143.2870 C   0  0  0  0  0  1  0  0  0  0  0  0
  163.5990  213.3480  143.8900 O   0  0  0  0  0  0  0  0  0  0  0  0
  162.5080  210.0180  139.7500 C   0  0  0  0  0  2  0  0  0  0  0  0
  162.2740  209.7910  138.2960 C   0  0  0  0  0  0  0  0  0  0  0  0
  162.5390  210.6990  137.4660 O   0  0  0  0  0  0  0  0  0  0  0  0
  161.7950  208.5660  137.8520 O   0  0  0  0  0  1  0  0  0  0  0  0
  1 18  2  0  0  0  0
  2 19  1  0  0  0  0
  3 15  1  6  0  0  0
  3  6  1  0  0  0  0
  5  1  1  0  0  0  0
  6  9  1  0  0  0  0
  6  5  2  0  0  0  0
  7  8  1  6  0  0  0
  7 17  1  0  0  0  0
  9 16  1  0  0  0  0
 10  2  1  6  0  0  0
 10 14  1  0  0  0  0
 11 23  1  1  0  0  0
 11 10  1  0  0  0  0
 11  8  1  0  0  0  0
 13  4  1  6  0  0  0
 13 15  1  0  0  0  0
 14  7  1  0  0  0  0
 14  3  1  0  0  0  0
 16 12  2  0  0  0  0
 16 18  1  0  0  0  0
 17 22  1  0  0  0  0
 17  9  2  0  0  0  0
 19 13  1  0  0  0  0
 20  2  2  0  0  0  0
 21 22  1  0  0  0  0
 24 23  1  0  0  0  0
 25 24  2  0  0  0  0
 26 24  1  0  0  0  0
M  END
>  <MODEL>
5

>  <REMARK>
 VINA RESULT:      -5.1      9.161     13.434
  Name = 
  3 active torsions:
  status: ('A' for Active; 'I' for Inactive)
    1  A    between atoms: C_3  and  C_22
    2  A    between atoms: O_9  and  C_23
    3  A    between atoms: C_14  and  C_22
                            x       y       z     vdW  Elec       q    Type
                         _______ _______ _______ _____ _____    ______ ____

>  <TORSDO>
F 3

$$$$
=
 OpenBabel11042422323D

 26 29  0  0  1  0  0  0  0  0999 V2000
  159.0430  211.5530  153.8190 C   0  0  0  0  0  3  0  0  0  0  0  0
  161.1880  206.2640  149.8000 C   0  0  0  0  0  0  0  0  0  0  0  0
  160.4540  208.7590  151.6110 C   0  0  2  0  0  3  0  0  0  0  0  0
  163.4860  207.7180  150.4390 O   0  0  0  0  0  1  0  0  0  0  0  0
  159.3980  210.6930  152.6730 C   0  0  0  0  0  3  0  0  0  0  0  0
  160.1000  209.5640  152.8290 C   0  0  0  0  0  0  0  0  0  0  0  0
  161.5890  207.1130  153.1540 C   0  0  1  0  0  3  0  0  0  0  0  0
  161.5120  205.6180  153.3750 C   0  0  0  0  0  2  0  0  0  0  0  0
  160.5630  209.1370  154.1970 C   0  0  0  0  0  0  0  0  0  0  0  0
  160.5460  206.1060  151.1620 C   0  0  1  0  0  3  0  0  0  0  0  0
  161.2560  205.0280  151.9850 C   0  0  2  0  0  3  0  0  0  0  0  0
  160.5470  209.7780  156.5160 O   0  0  0  0  0  0  0  0  0  0  0  0
  162.4190  208.4670  149.9360 C   0  0  2  0  0  3  0  0  0  0  0  0
  160.5540  207.3170  152.0830 C   0  0  2  0  0  3  0  0  0  0  0  0
  161.7750  209.3000  151.0430 C   0  0  0  0  0  2  0  0  0  0  0  0
  160.2050  210.0330  155.3310 C   0  0  0  0  0  0  0  0  0  0  0  0
  161.2650  207.9810  154.3640 C   0  0  0  0  0  0  0  0  0  0  0  0
  159.4210  211.2470  155.0610 C   0  0  0  0  0  3  0  0  0  0  0  0
  161.4350  207.5990  149.1560 C   0  0  0  0  0  2  0  0  0  0  0  0
  161.4570  205.2640  149.1550 O   0  0  0  0  0  0  0  0  0  0  0  0
  160.9880  206.9400  156.6080 C   0  0  0  0  0  1  0  0  0  0  0  0
  161.7470  207.6460  155.6380 O   0  0  0  0  0  0  0  0  0  0  0  0
  160.3840  203.7860  152.0820 C   0  0  0  0  0  2  0  0  0  0  0  0
  160.9980  202.6530  151.3330 C   0  0  0  0  0  0  0  0  0  0  0  0
  160.3800  202.1250  150.3730 O   0  0  0  0  0  0  0  0  0  0  0  0
  162.2660  202.2020  151.6710 O   0  0  0  0  0  1  0  0  0  0  0  0
  1 18  2  0  0  0  0
  3 15  1  1  0  0  0
  3 14  1  0  0  0  0
  3  6  1  0  0  0  0
  5  6  2  0  0  0  0
  5  1  1  0  0  0  0
  6  9  1  0  0  0  0
  7  8  1  1  0  0  0
  7 17  1  0  0  0  0
  9 17  2  0  0  0  0
  9 16  1  0  0  0  0
 10  2  1  6  0  0  0
 10 11  1  0  0  0  0
 10 14  1  0  0  0  0
 11 23  1  1  0  0  0
 11  8  1  0  0  0  0
 13  4  1  1  0  0  0
 13 15  1  0  0  0  0
 14  7  1  0  0  0  0
 16 12  2  0  0  0  0
 17 22  1  0  0  0  0
 18 16  1  0  0  0  0
 19  2  1  0  0  0  0
 19 13  1  0  0  0  0
 20  2  2  0  0  0  0
 22 21  1  0  0  0  0
 24 26  1  0  0  0  0
 24 23  1  0  0  0  0
 25 24  2  0  0  0  0
M  END
>  <MODEL>
6

>  <REMARK>
 VINA RESULT:      -4.9      2.245      7.366
  Name = 
  3 active torsions:
  status: ('A' for Active; 'I' for Inactive)
    1  A    between atoms: C_3  and  C_22
    2  A    between atoms: O_9  and  C_23
    3  A    between atoms: C_14  and  C_22
                            x       y       z     vdW  Elec       q    Type
                         _______ _______ _______ _____ _____    ______ ____

>  <TORSDO>
F 3

$$$$
=
 OpenBabel11042422323D

 26 29  0  0  1  0  0  0  0  0999 V2000
  162.1780  210.3070  149.2550 C   0  0  0  0  0  3  0  0  0  0  0  0
  159.4680  212.8440  155.1660 C   0  0  0  0  0  0  0  0  0  0  0  0
  160.4580  211.6340  152.4100 C   0  0  2  0  0  3  0  0  0  0  0  0
  157.3500  211.6210  153.8180 O   0  0  0  0  0  1  0  0  0  0  0  0
  161.5740  211.1790  150.2800 C   0  0  0  0  0  3  0  0  0  0  0  0
  161.0920  210.6880  151.4290 C   0  0  0  0  0  0  0  0  0  0  0  0
  160.0760  209.6480  153.9220 C   0  0  1  0  0  3  0  0  0  0  0  0
  160.3890  209.3200  155.3660 C   0  0  0  0  0  2  0  0  0  0  0  0
  161.1460  209.2100  151.7090 C   0  0  0  0  0  0  0  0  0  0  0  0
  160.5290  211.7650  155.0980 C   0  0  1  0  0  3  0  0  0  0  0  0
  160.2490  210.6500  156.1100 C   0  0  2  0  0  3  0  0  0  0  0  0
  161.8360  207.1030  150.7720 O   0  0  0  0  0  0  0  0  0  0  0  0
  158.1050  212.5210  153.0640 C   0  0  2  0  0  3  0  0  0  0  0  0
  160.6800  211.0170  153.7810 C   0  0  2  0  0  3  0  0  0  0  0  0
  158.9730  211.7790  152.0480 C   0  0  0  0  0  2  0  0  0  0  0  0
  161.7460  208.3530  150.6490 C   0  0  0  0  0  0  0  0  0  0  0  0
  160.6710  208.7060  152.8830 C   0  0  0  0  0  0  0  0  0  0  0  0
  162.2580  208.9860  149.4240 C   0  0  0  0  0  3  0  0  0  0  0  0
  158.8780  213.4960  153.9490 C   0  0  0  0  0  2  0  0  0  0  0  0
  159.1210  213.2610  156.2600 O   0  0  0  0  0  0  0  0  0  0  0  0
  161.4940  206.6550  154.0290 C   0  0  0  0  0  1  0  0  0  0  0  0
  160.6670  207.3170  153.0840 O   0  0  0  0  0  0  0  0  0  0  0  0
  161.2400  210.7290  157.2600 C   0  0  0  0  0  2  0  0  0  0  0  0
  162.5140  210.0420  156.9050 C   0  0  0  0  0  0  0  0  0  0  0  0
  162.7060  208.8500  157.2600 O   0  0  0  0  0  1  0  0  0  0  0  0
  163.4750  210.7030  156.1530 O   0  0  0  0  0  0  0  0  0  0  0  0
  1 18  2  0  0  0  0
  1  5  1  0  0  0  0
  2 20  2  0  0  0  0
  3 15  1  6  0  0  0
  3 14  1  0  0  0  0
  5  6  2  0  0  0  0
  6  9  1  0  0  0  0
  6  3  1  0  0  0  0
  7  8  1  1  0  0  0
  8 11  1  0  0  0  0
  9 17  2  0  0  0  0
 10  2  1  6  0  0  0
 10 11  1  0  0  0  0
 11 23  1  1  0  0  0
 13  4  1  1  0  0  0
 13 19  1  0  0  0  0
 14  7  1  0  0  0  0
 14 10  1  0  0  0  0
 15 13  1  0  0  0  0
 16 12  2  0  0  0  0
 16  9  1  0  0  0  0
 17 22  1  0  0  0  0
 17  7  1  0  0  0  0
 18 16  1  0  0  0  0
 19  2  1  0  0  0  0
 22 21  1  0  0  0  0
 24 23  1  0  0  0  0
 24 25  1  0  0  0  0
 26 24  2  0  0  0  0
M  END
>  <MODEL>
7

>  <REMARK>
 VINA RESULT:      -4.8      1.494      4.454
  Name = 
  3 active torsions:
  status: ('A' for Active; 'I' for Inactive)
    1  A    between atoms: C_3  and  C_22
    2  A    between atoms: O_9  and  C_23
    3  A    between atoms: C_14  and  C_22
                            x       y       z     vdW  Elec       q    Type
                         _______ _______ _______ _____ _____    ______ ____

>  <TORSDO>
F 3

$$$$
=
 OpenBabel11042422323D

 26 29  0  0  1  0  0  0  0  0999 V2000
  162.2400  207.2270  151.4660 C   0  0  0  0  0  3  0  0  0  0  0  0
  158.9140  210.7880  156.4650 C   0  0  0  0  0  0  0  0  0  0  0  0
  160.6410  209.2910  154.2690 C   0  0  2  0  0  3  0  0  0  0  0  0
  161.5020  211.8340  156.3750 O   0  0  0  0  0  1  0  0  0  0  0  0
  161.6560  207.6650  152.7490 C   0  0  0  0  0  3  0  0  0  0  0  0
  161.1880  208.9070  152.9230 C   0  0  0  0  0  0  0  0  0  0  0  0
  160.1480  211.5720  153.3030 C   0  0  1  0  0  3  0  0  0  0  0  0
  158.9300  212.4670  153.2270 C   0  0  0  0  0  2  0  0  0  0  0  0
  161.2520  209.9110  151.8020 C   0  0  0  0  0  0  0  0  0  0  0  0
  158.5350  210.8020  154.9990 C   0  0  1  0  0  3  0  0  0  0  0  0
  158.1750  212.2160  154.5350 C   0  0  2  0  0  3  0  0  0  0  0  0
  161.9740  210.2010  149.5250 O   0  0  0  0  0  0  0  0  0  0  0  0
  161.4180  210.4440  156.4640 C   0  0  2  0  0  3  0  0  0  0  0  0
  159.5940  210.3600  153.9990 C   0  0  2  0  0  3  0  0  0  0  0  0
  161.8040  209.7920  155.1360 C   0  0  0  0  0  2  0  0  0  0  0  0
  161.8610  209.4450  150.5250 C   0  0  0  0  0  0  0  0  0  0  0  0
  160.7630  211.1720  151.9680 C   0  0  0  0  0  0  0  0  0  0  0  0
  162.3390  208.0570  150.4270 C   0  0  0  0  0  3  0  0  0  0  0  0
  160.0650  209.9910  157.0090 C   0  0  0  0  0  2  0  0  0  0  0  0
  158.2140  211.3930  157.2610 O   0  0  0  0  0  0  0  0  0  0  0  0
  159.9370  213.1040  150.6330 C   0  0  0  0  0  1  0  0  0  0  0  0
  160.9030  212.1070  150.9320 O   0  0  0  0  0  0  0  0  0  0  0  0
  156.6740  212.3280  154.3190 C   0  0  0  0  0  2  0  0  0  0  0  0
  156.1350  213.5440  154.9910 C   0  0  0  0  0  0  0  0  0  0  0  0
  155.3510  214.3090  154.3730 O   0  0  0  0  0  0  0  0  0  0  0  0
  156.4700  213.8140  156.3110 O   0  0  0  0  0  1  0  0  0  0  0  0
  1  5  1  0  0  0  0
  2 19  1  0  0  0  0
  2 20  2  0  0  0  0
  3 15  1  1  0  0  0
  5  6  2  0  0  0  0
  6  3  1  0  0  0  0
  7  8  1  6  0  0  0
  7 14  1  0  0  0  0
  8 11  1  0  0  0  0
  9 17  2  0  0  0  0
  9  6  1  0  0  0  0
 10  2  1  1  0  0  0
 11 23  1  6  0  0  0
 11 10  1  0  0  0  0
 12 16  2  0  0  0  0
 13  4  1  6  0  0  0
 13 19  1  0  0  0  0
 14  3  1  0  0  0  0
 14 10  1  0  0  0  0
 15 13  1  0  0  0  0
 16  9  1  0  0  0  0
 17  7  1  0  0  0  0
 18 16  1  0  0  0  0
 18  1  2  0  0  0  0
 21 22  1  0  0  0  0
 22 17  1  0  0  0  0
 23 24  1  0  0  0  0
 24 26  1  0  0  0  0
 25 24  2  0  0  0  0
M  END
>  <MODEL>
8

>  <REMARK>
 VINA RESULT:      -4.8      1.491      2.067
  Name = 
  3 active torsions:
  status: ('A' for Active; 'I' for Inactive)
    1  A    between atoms: C_3  and  C_22
    2  A    between atoms: O_9  and  C_23
    3  A    between atoms: C_14  and  C_22
                            x       y       z     vdW  Elec       q    Type
                         _______ _______ _______ _____ _____    ______ ____

>  <TORSDO>
F 3

$$$$
=
 OpenBabel11042422323D

 26 29  0  0  1  0  0  0  0  0999 V2000
  160.6530  208.1990  151.5920 C   0  0  0  0  0  3  0  0  0  0  0  0
  161.3970  204.5040  145.7170 C   0  0  0  0  0  0  0  0  0  0  0  0
  161.3160  206.2010  148.3920 C   0  0  2  0  0  3  0  0  0  0  0  0
  163.9790  204.8820  146.7140 O   0  0  0  0  0  1  0  0  0  0  0  0
  160.8050  207.7870  150.1830 C   0  0  0  0  0  3  0  0  0  0  0  0
  161.1450  206.5370  149.8470 C   0  0  0  0  0  0  0  0  0  0  0  0
  161.8510  203.8390  149.1060 C   0  0  1  0  0  3  0  0  0  0  0  0
  161.3380  202.4630  148.7390 C   0  0  0  0  0  2  0  0  0  0  0  0
  161.3960  205.5020  150.9110 C   0  0  0  0  0  0  0  0  0  0  0  0
  160.6670  204.0200  146.9520 C   0  0  1  0  0  3  0  0  0  0  0  0
  160.9950  202.5550  147.2500 C   0  0  2  0  0  3  0  0  0  0  0  0
  161.4440  205.1720  153.2950 O   0  0  0  0  0  0  0  0  0  0  0  0
  163.1990  206.0350  146.6080 C   0  0  2  0  0  3  0  0  0  0  0  0
  160.9740  204.7250  148.2660 C   0  0  2  0  0  3  0  0  0  0  0  0
  162.7640  206.5210  147.9910 C   0  0  0  0  0  2  0  0  0  0  0  0
  161.2510  205.9510  152.3240 C   0  0  0  0  0  0  0  0  0  0  0  0
  161.7270  204.2240  150.5740 C   0  0  0  0  0  0  0  0  0  0  0  0
  160.8630  207.3430  152.5940 C   0  0  0  0  0  3  0  0  0  0  0  0
  162.0480  205.8540  145.6210 C   0  0  0  0  0  2  0  0  0  0  0  0
  161.4010  203.7990  144.7210 O   0  0  0  0  0  0  0  0  0  0  0  0
  161.1720  202.2290  151.9560 C   0  0  0  0  0  1  0  0  0  0  0  0
  162.0270  203.3010  151.5880 O   0  0  0  0  0  0  0  0  0  0  0  0
  159.8010  201.6750  146.9180 C   0  0  0  0  0  2  0  0  0  0  0  0
  160.0930  200.8140  145.7370 C   0  0  0  0  0  0  0  0  0  0  0  0
  160.8520  199.8180  145.8570 O   0  0  0  0  0  1  0  0  0  0  0  0
  159.5010  201.0900  144.5120 O   0  0  0  0  0  0  0  0  0  0  0  0
  1 18  2  0  0  0  0
  3 15  1  1  0  0  0
  3  6  1  0  0  0  0
  5  1  1  0  0  0  0
  6  5  2  0  0  0  0
  6  9  1  0  0  0  0
  7  8  1  1  0  0  0
  7 17  1  0  0  0  0
  9 16  1  0  0  0  0
 10  2  1  6  0  0  0
 10 11  1  0  0  0  0
 10 14  1  0  0  0  0
 11 23  1  1  0  0  0
 11  8  1  0  0  0  0
 13  4  1  1  0  0  0
 13 15  1  0  0  0  0
 14  3  1  0  0  0  0
 14  7  1  0  0  0  0
 16 18  1  0  0  0  0
 16 12  2  0  0  0  0
 17  9  2  0  0  0  0
 17 22  1  0  0  0  0
 19  2  1  0  0  0  0
 19 13  1  0  0  0  0
 20  2  2  0  0  0  0
 22 21  1  0  0  0  0
 24 25  1  0  0  0  0
 24 23  1  0  0  0  0
 26 24  2  0  0  0  0
M  END
>  <MODEL>
9

>  <REMARK>
 VINA RESULT:      -4.5      4.844      9.957
  Name = 
  3 active torsions:
  status: ('A' for Active; 'I' for Inactive)
    1  A    between atoms: C_3  and  C_22
    2  A    between atoms: O_9  and  C_23
    3  A    between atoms: C_14  and  C_22
                            x       y       z     vdW  Elec       q    Type
                         _______ _______ _______ _____ _____    ______ ____

>  <TORSDO>
F 3

$$$$
