=
 OpenBabel11042421383D

 45 50  0  0  1  0  0  0  0  0999 V2000
  160.8180  205.8840  150.1460 C   0  0  0  0  0  0  0  0  0  0  0  0
  160.5850  203.4860  149.3190 C   0  0  1  0  0  3  0  0  0  0  0  0
  161.5160  208.9020  148.2410 O   0  0  0  0  0  0  0  0  0  0  0  0
  161.0830  200.1810  146.7350 C   0  0  0  0  0  2  0  0  0  0  0  0
  162.3550  201.8880  149.9910 C   0  0  0  0  0  2  0  0  0  0  0  0
  161.3500  206.6660  147.4330 C   0  0  0  0  0  2  0  0  0  0  0  0
  160.3500  202.5280  147.0770 N   0  0  0  0  0  0  0  0  0  0  0  0
  160.1260  205.6140  151.3450 O   0  0  0  0  0  0  0  0  0  0  0  0
  161.1780  202.7070  150.5110 C   0  0  1  0  0  3  0  0  0  0  0  0
  161.5840  203.5630  151.5480 O   0  0  0  0  0  0  0  0  0  0  0  0
  162.1250  201.6980  148.4980 C   0  0  2  0  0  3  0  0  0  0  0  0
  161.0960  204.9270  149.2150 C   0  0  0  0  0  0  0  0  0  0  0  0
  161.3560  207.6840  148.5240 C   0  0  0  0  0  0  0  0  0  0  0  0
  161.0150  202.6370  148.1740 C   0  0  0  0  0  0  0  0  0  0  0  0
  160.7610  201.5500  146.0860 C   0  0  2  0  0  3  0  0  0  0  0  0
  161.1970  207.2570  149.8870 N   0  0  0  0  0  0  0  0  0  0  0  0
  161.8700  205.3380  147.9770 C   0  0  2  0  0  3  0  0  0  0  0  0
  161.6530  200.2800  148.1660 C   0  0  0  0  0  2  0  0  0  0  0  0
  159.6060  204.4140  151.6480 O   0  0  0  0  0  0  0  0  0  0  0  0
  160.5290  203.7480  152.3410 O   0  0  0  0  0  0  0  0  0  0  0  0
  159.3150  202.5750  144.1770 C   0  0  0  0  0  2  0  0  0  0  0  0
  158.5210  202.0350  145.2160 O   0  0  0  0  0  0  0  0  0  0  0  0
  159.5510  200.0470  144.2890 C   0  0  0  0  0  1  0  0  0  0  0  0
  159.7430  201.3950  144.9530 C   0  0  2  0  0  0  0  0  0  0  0  0
  161.5460  208.0440  152.1840 C   0  0  0  0  0  0  0  0  0  0  0  0
  161.1320  208.2500  150.9240 C   0  0  0  0  0  3  0  0  0  0  0  0
  161.3450  209.0380  153.2000 N   0  0  0  0  0  2  0  0  0  0  0  0
  159.5850  210.2480  152.2380 O   0  0  0  0  0  0  0  0  0  0  0  0
  160.2670  209.9790  153.2590 C   0  0  0  0  0  0  0  0  0  0  0  0
  161.4270  211.0720  155.4990 S   0  0  0  0  0  0  0  0  0  0  0  0
  159.6490  212.9090  153.7400 O   0  0  0  0  0  1  0  0  0  0  0  0
  158.3320  212.2790  155.7190 C   0  0  0  0  0  0  0  0  0  0  0  0
  158.9780  211.8500  154.3710 C   0  0  2  0  0  3  0  0  0  0  0  0
  159.9180  210.6480  154.5450 C   0  0  1  0  0  3  0  0  0  0  0  0
  158.1570  213.7930  155.8210 C   0  0  0  0  0  1  0  0  0  0  0  0
  160.6230  212.1060  156.7860 C   0  0  0  0  0  2  0  0  0  0  0  0
  156.9500  211.6570  155.8010 C   0  0  0  0  0  1  0  0  0  0  0  0
  159.1360  211.7940  156.9390 C   0  0  0  0  0  2  0  0  0  0  0  0
  162.2150  206.7680  152.5760 C   0  0  0  0  0  2  0  0  0  0  0  0
  162.2650  206.6370  154.0880 C   0  0  0  0  0  2  0  0  0  0  0  0
  159.7820  206.7250  155.0640 C   0  0  0  0  0  3  0  0  0  0  0  0
  160.9040  206.6830  154.6210 C   0  0  0  0  0  0  0  0  0  0  0  0
  163.2310  205.4430  148.2810 O   0  0  0  0  0  0  0  0  0  0  0  0
  162.8750  204.6780  146.0560 C   0  0  0  0  0  1  0  0  0  0  0  0
  163.8900  205.0780  147.1070 C   0  0  0  0  0  2  0  0  0  0  0  0
  1  8  1  0  0  0  0
  2 14  1  6  0  0  0
  2  9  1  0  0  0  0
  3 13  2  0  0  0  0
  4 18  1  0  0  0  0
  6 17  1  0  0  0  0
  6 13  1  0  0  0  0
  7 14  2  0  0  0  0
  8 19  1  0  0  0  0
  9  5  1  6  0  0  0
  9 10  1  0  0  0  0
 10 20  1  0  0  0  0
 11 18  1  1  0  0  0
 11  5  1  0  0  0  0
 12  2  1  0  0  0  0
 12  1  2  0  0  0  0
 13 16  1  0  0  0  0
 14 11  1  0  0  0  0
 15  4  1  1  0  0  0
 15  7  1  0  0  0  0
 16  1  1  0  0  0  0
 16 26  1  0  0  0  0
 17 43  1  1  0  0  0
 17 12  1  0  0  0  0
 19 20  1  0  0  0  0
 21 24  1  0  0  0  0
 21 22  1  0  0  0  0
 24 23  1  6  0  0  0
 24 22  1  0  0  0  0
 24 15  1  0  0  0  0
 25 39  1  0  0  0  0
 25 27  1  0  0  0  0
 26 25  2  0  0  0  0
 27 29  1  0  0  0  0
 28 29  2  0  0  0  0
 30 36  1  0  0  0  0
 32 37  1  0  0  0  0
 32 35  1  0  0  0  0
 32 38  1  0  0  0  0
 33 31  1  1  0  0  0
 33 34  1  0  0  0  0
 33 32  1  0  0  0  0
 34 29  1  6  0  0  0
 34 30  1  0  0  0  0
 36 38  1  0  0  0  0
 39 40  1  0  0  0  0
 40 42  1  0  0  0  0
 42 41  3  0  0  0  0
 44 45  1  0  0  0  0
 45 43  1  0  0  0  0
M  END
>  <MODEL>
1

>  <REMARK>
 VINA RESULT:      -1.1      0.000      0.000
  Name = 
  9 active torsions:
  status: ('A' for Active; 'I' for Inactive)
    1  A    between atoms: C_6  and  N_7
    2  A    between atoms: C_6  and  C_10
    3  A    between atoms: C_8  and  C_10
    4  A    between atoms: C_8  and  C_36
    5  A    between atoms: C_23  and  C_31
    6  A    between atoms: C_26  and  C_34
    7  A    between atoms: C_29  and  O_41
    8  A    between atoms: N_37  and  C_45
    9  A    between atoms: C_39  and  O_41
                            x       y       z     vdW  Elec       q    Type
                         _______ _______ _______ _____ _____    ______ ____

>  <TORSDO>
F 9

$$$$
=
 OpenBabel11042421383D

 45 50  0  0  1  0  0  0  0  0999 V2000
  160.7740  205.6200  150.1330 C   0  0  0  0  0  0  0  0  0  0  0  0
  160.6310  203.2240  149.2820 C   0  0  1  0  0  3  0  0  0  0  0  0
  161.2120  208.6960  148.2420 O   0  0  0  0  0  0  0  0  0  0  0  0
  161.1790  199.9840  146.6270 C   0  0  0  0  0  2  0  0  0  0  0  0
  162.5170  201.7170  149.8420 C   0  0  0  0  0  2  0  0  0  0  0  0
  161.1270  206.4650  147.4090 C   0  0  0  0  0  2  0  0  0  0  0  0
  160.3370  202.2820  147.0400 N   0  0  0  0  0  0  0  0  0  0  0  0
  160.1590  205.2970  151.3610 O   0  0  0  0  0  0  0  0  0  0  0  0
  161.3240  202.4630  150.4320 C   0  0  1  0  0  3  0  0  0  0  0  0
  161.7340  203.3280  151.4600 O   0  0  0  0  0  0  0  0  0  0  0  0
  162.2240  201.5330  148.3590 C   0  0  2  0  0  3  0  0  0  0  0  0
  161.0580  204.6920  149.1750 C   0  0  0  0  0  0  0  0  0  0  0  0
  161.1320  207.4670  148.5140 C   0  0  0  0  0  0  0  0  0  0  0  0
  161.0490  202.4140  148.1050 C   0  0  0  0  0  0  0  0  0  0  0  0
  160.7510  201.3410  146.0150 C   0  0  2  0  0  3  0  0  0  0  0  0
  161.0640  207.0150  149.8760 N   0  0  0  0  0  0  0  0  0  0  0  0
  161.7450  205.1600  147.9070 C   0  0  2  0  0  3  0  0  0  0  0  0
  161.8130  200.0960  148.0290 C   0  0  0  0  0  2  0  0  0  0  0  0
  159.7200  204.0670  151.6700 O   0  0  0  0  0  0  0  0  0  0  0  0
  160.7120  203.4450  152.3070 O   0  0  0  0  0  0  0  0  0  0  0  0
  159.2790  202.2800  144.0830 C   0  0  0  0  0  2  0  0  0  0  0  0
  158.5020  201.8520  145.1850 O   0  0  0  0  0  0  0  0  0  0  0  0
  159.4210  199.7600  144.3770 C   0  0  0  0  0  1  0  0  0  0  0  0
  159.6890  201.1440  144.9310 C   0  0  2  0  0  0  0  0  0  0  0  0
  161.5760  209.2000  150.8690 C   0  0  0  0  0  0  0  0  0  0  0  0
  160.9970  207.9900  150.9310 C   0  0  0  0  0  3  0  0  0  0  0  0
  161.5700  210.0800  152.0020 N   0  0  0  0  0  2  0  0  0  0  0  0
  159.8380  211.5280  151.3790 O   0  0  0  0  0  0  0  0  0  0  0  0
  160.5930  211.0890  152.2830 C   0  0  0  0  0  0  0  0  0  0  0  0
  158.9190  212.6480  153.8070 S   0  0  0  0  0  0  0  0  0  0  0  0
  159.3940  209.7180  154.7090 O   0  0  0  0  0  1  0  0  0  0  0  0
  160.7470  211.1680  156.1630 C   0  0  0  0  0  0  0  0  0  0  0  0
  160.5230  210.5500  154.7530 C   0  0  2  0  0  3  0  0  0  0  0  0
  160.4380  211.6280  153.6640 C   0  0  1  0  0  3  0  0  0  0  0  0
  160.0160  210.3920  157.2570 C   0  0  0  0  0  1  0  0  0  0  0  0
  158.9270  212.8480  155.6320 C   0  0  0  0  0  2  0  0  0  0  0  0
  162.2300  211.1060  156.4770 C   0  0  0  0  0  1  0  0  0  0  0  0
  160.3150  212.6430  156.2350 C   0  0  0  0  0  2  0  0  0  0  0  0
  162.2600  209.6640  149.6260 C   0  0  0  0  0  2  0  0  0  0  0  0
  162.6120  211.1370  149.7320 C   0  0  0  0  0  2  0  0  0  0  0  0
  161.5570  212.4410  147.6560 C   0  0  0  0  0  3  0  0  0  0  0  0
  162.0360  211.8530  148.5940 C   0  0  0  0  0  0  0  0  0  0  0  0
  163.1120  205.3360  148.1460 O   0  0  0  0  0  0  0  0  0  0  0  0
  162.7240  204.6940  145.8880 C   0  0  0  0  0  1  0  0  0  0  0  0
  163.7410  204.8530  146.9980 C   0  0  0  0  0  2  0  0  0  0  0  0
  1  8  1  0  0  0  0
  2 14  1  6  0  0  0
  2  9  1  0  0  0  0
  3 13  2  0  0  0  0
  4 18  1  0  0  0  0
  6 17  1  0  0  0  0
  6 13  1  0  0  0  0
  7 14  2  0  0  0  0
  8 19  1  0  0  0  0
  9  5  1  6  0  0  0
  9 10  1  0  0  0  0
 10 20  1  0  0  0  0
 11 18  1  1  0  0  0
 11  5  1  0  0  0  0
 12  2  1  0  0  0  0
 12  1  2  0  0  0  0
 13 16  1  0  0  0  0
 14 11  1  0  0  0  0
 15  4  1  1  0  0  0
 15  7  1  0  0  0  0
 16  1  1  0  0  0  0
 16 26  1  0  0  0  0
 17 43  1  1  0  0  0
 17 12  1  0  0  0  0
 19 20  1  0  0  0  0
 21 24  1  0  0  0  0
 21 22  1  0  0  0  0
 24 23  1  6  0  0  0
 24 22  1  0  0  0  0
 24 15  1  0  0  0  0
 25 26  2  0  0  0  0
 25 27  1  0  0  0  0
 27 29  1  0  0  0  0
 28 29  2  0  0  0  0
 30 36  1  0  0  0  0
 32 38  1  0  0  0  0
 32 37  1  0  0  0  0
 32 35  1  0  0  0  0
 33 31  1  1  0  0  0
 33 32  1  0  0  0  0
 34 29  1  6  0  0  0
 34 30  1  0  0  0  0
 34 33  1  0  0  0  0
 36 38  1  0  0  0  0
 39 40  1  0  0  0  0
 39 25  1  0  0  0  0
 41 42  3  0  0  0  0
 42 40  1  0  0  0  0
 44 45  1  0  0  0  0
 45 43  1  0  0  0  0
M  END
>  <MODEL>
2

>  <REMARK>
 VINA RESULT:       0.3      1.479      2.639
  Name = 
  9 active torsions:
  status: ('A' for Active; 'I' for Inactive)
    1  A    between atoms: C_6  and  N_7
    2  A    between atoms: C_6  and  C_10
    3  A    between atoms: C_8  and  C_10
    4  A    between atoms: C_8  and  C_36
    5  A    between atoms: C_23  and  C_31
    6  A    between atoms: C_26  and  C_34
    7  A    between atoms: C_29  and  O_41
    8  A    between atoms: N_37  and  C_45
    9  A    between atoms: C_39  and  O_41
                            x       y       z     vdW  Elec       q    Type
                         _______ _______ _______ _____ _____    ______ ____

>  <TORSDO>
F 9

$$$$
=
 OpenBabel11042421383D

 45 50  0  0  1  0  0  0  0  0999 V2000
  160.9760  207.7070  152.7800 C   0  0  0  0  0  0  0  0  0  0  0  0
  160.4770  210.0320  153.6910 C   0  0  1  0  0  3  0  0  0  0  0  0
  160.0320  204.4680  154.1370 O   0  0  0  0  0  0  0  0  0  0  0  0
  159.4900  212.9740  156.5580 C   0  0  0  0  0  2  0  0  0  0  0  0
  162.3960  211.3380  154.5560 C   0  0  0  0  0  2  0  0  0  0  0  0
  159.5810  206.6240  155.0460 C   0  0  0  0  0  2  0  0  0  0  0  0
  158.9460  210.8320  155.4280 N   0  0  0  0  0  0  0  0  0  0  0  0
  161.2380  208.1930  151.4820 O   0  0  0  0  0  0  0  0  0  0  0  0
  161.7580  210.7880  153.2840 C   0  0  1  0  0  3  0  0  0  0  0  0
  162.6580  209.9590  152.5920 O   0  0  0  0  0  0  0  0  0  0  0  0
  161.2830  211.4440  155.5890 C   0  0  2  0  0  3  0  0  0  0  0  0
  160.6760  208.5190  153.8330 C   0  0  0  0  0  0  0  0  0  0  0  0
  160.1950  205.7140  154.0360 C   0  0  0  0  0  0  0  0  0  0  0  0
  160.1460  210.6950  154.9820 C   0  0  0  0  0  0  0  0  0  0  0  0
  158.7110  211.6360  156.6140 C   0  0  2  0  0  3  0  0  0  0  0  0
  160.9820  206.2720  152.9710 N   0  0  0  0  0  0  0  0  0  0  0  0
  160.4410  207.8780  155.1870 C   0  0  2  0  0  3  0  0  0  0  0  0
  160.8320  212.8910  155.8000 C   0  0  0  0  0  2  0  0  0  0  0  0
  161.1370  209.4870  151.1390 O   0  0  0  0  0  0  0  0  0  0  0  0
  162.3430  210.0310  151.2990 O   0  0  0  0  0  0  0  0  0  0  0  0
  156.3440  210.7500  157.2420 C   0  0  0  0  0  2  0  0  0  0  0  0
  156.3870  211.2680  155.9260 O   0  0  0  0  0  0  0  0  0  0  0  0
  156.7380  213.2610  157.2610 C   0  0  0  0  0  1  0  0  0  0  0  0
  157.2230  211.8780  156.8760 C   0  0  2  0  0  0  0  0  0  0  0  0
  161.0190  205.3070  150.7150 C   0  0  0  0  0  0  0  0  0  0  0  0
  161.5090  205.3940  151.9620 C   0  0  0  0  0  3  0  0  0  0  0  0
  161.5160  204.3260  149.7930 N   0  0  0  0  0  2  0  0  0  0  0  0
  160.5010  202.4030  150.6610 O   0  0  0  0  0  0  0  0  0  0  0  0
  161.0970  202.9600  149.7050 C   0  0  0  0  0  0  0  0  0  0  0  0
  161.5980  200.3960  148.8520 S   0  0  0  0  0  0  0  0  0  0  0  0
  159.0580  201.8140  147.7730 O   0  0  0  0  0  1  0  0  0  0  0  0
  160.7520  201.8740  145.9920 C   0  0  0  0  0  0  0  0  0  0  0  0
  160.2770  202.3870  147.3810 C   0  0  2  0  0  3  0  0  0  0  0  0
  161.3440  202.1710  148.4640 C   0  0  1  0  0  3  0  0  0  0  0  0
  159.6110  201.2660  145.1790 C   0  0  0  0  0  1  0  0  0  0  0  0
  161.5550  199.7580  147.1300 C   0  0  0  0  0  2  0  0  0  0  0  0
  161.2860  203.0590  145.2070 C   0  0  0  0  0  1  0  0  0  0  0  0
  161.8840  200.8380  146.1010 C   0  0  0  0  0  2  0  0  0  0  0  0
  159.9300  206.2160  150.2500 C   0  0  0  0  0  2  0  0  0  0  0  0
  160.0380  206.4530  148.7540 C   0  0  0  0  0  2  0  0  0  0  0  0
  162.3480  207.6800  148.2230 C   0  0  0  0  0  3  0  0  0  0  0  0
  161.3040  207.1220  148.4620 C   0  0  0  0  0  0  0  0  0  0  0  0
  161.6660  207.5560  155.7790 O   0  0  0  0  0  0  0  0  0  0  0  0
  162.6590  209.1330  157.2580 C   0  0  0  0  0  1  0  0  0  0  0  0
  161.5880  208.0800  157.0700 C   0  0  0  0  0  2  0  0  0  0  0  0
  1 16  1  0  0  0  0
  1 12  2  0  0  0  0
  2 12  1  1  0  0  0
  2 14  1  0  0  0  0
  6 17  1  0  0  0  0
  7 15  1  0  0  0  0
  8  1  1  0  0  0  0
  9  2  1  0  0  0  0
  9  5  1  1  0  0  0
 10  9  1  0  0  0  0
 11  5  1  6  0  0  0
 11 18  1  0  0  0  0
 12 17  1  0  0  0  0
 13  3  2  0  0  0  0
 13  6  1  0  0  0  0
 14  7  2  0  0  0  0
 14 11  1  0  0  0  0
 15  4  1  6  0  0  0
 15 24  1  0  0  0  0
 16 13  1  0  0  0  0
 17 43  1  6  0  0  0
 18  4  1  0  0  0  0
 19 20  1  0  0  0  0
 19  8  1  0  0  0  0
 20 10  1  0  0  0  0
 22 24  1  0  0  0  0
 22 21  1  0  0  0  0
 24 21  1  0  0  0  0
 24 23  1  1  0  0  0
 25 26  2  0  0  0  0
 26 16  1  0  0  0  0
 27 25  1  0  0  0  0
 29 27  1  0  0  0  0
 29 28  2  0  0  0  0
 32 38  1  0  0  0  0
 32 33  1  0  0  0  0
 33 31  1  1  0  0  0
 33 34  1  0  0  0  0
 34 30  1  0  0  0  0
 34 29  1  1  0  0  0
 35 32  1  0  0  0  0
 36 30  1  0  0  0  0
 37 32  1  0  0  0  0
 38 36  1  0  0  0  0
 39 25  1  0  0  0  0
 40 39  1  0  0  0  0
 41 42  3  0  0  0  0
 42 40  1  0  0  0  0
 43 45  1  0  0  0  0
 45 44  1  0  0  0  0
M  END
>  <MODEL>
3

>  <REMARK>
 VINA RESULT:       0.5      2.769     10.728
  Name = 
  9 active torsions:
  status: ('A' for Active; 'I' for Inactive)
    1  A    between atoms: C_6  and  N_7
    2  A    between atoms: C_6  and  C_10
    3  A    between atoms: C_8  and  C_10
    4  A    between atoms: C_8  and  C_36
    5  A    between atoms: C_23  and  C_31
    6  A    between atoms: C_26  and  C_34
    7  A    between atoms: C_29  and  O_41
    8  A    between atoms: N_37  and  C_45
    9  A    between atoms: C_39  and  O_41
                            x       y       z     vdW  Elec       q    Type
                         _______ _______ _______ _____ _____    ______ ____

>  <TORSDO>
F 9

$$$$
=
 OpenBabel11042421383D

 45 50  0  0  1  0  0  0  0  0999 V2000
  161.4740  208.3020  152.2040 C   0  0  0  0  0  0  0  0  0  0  0  0
  162.1740  209.2490  154.4630 C   0  0  1  0  0  3  0  0  0  0  0  0
  162.3080  209.4890  148.8690 O   0  0  0  0  0  0  0  0  0  0  0  0
  163.5280  212.1330  157.2380 C   0  0  0  0  0  2  0  0  0  0  0  0
  160.3990  210.2860  155.8470 C   0  0  0  0  0  2  0  0  0  0  0  0
  162.9500  210.4320  150.9610 C   0  0  0  0  0  2  0  0  0  0  0  0
  163.8630  210.9010  155.1090 N   0  0  0  0  0  0  0  0  0  0  0  0
  161.1560  207.0410  152.7500 O   0  0  0  0  0  0  0  0  0  0  0  0
  160.9160  208.9560  155.3060 C   0  0  1  0  0  3  0  0  0  0  0  0
  159.9230  208.3020  154.5560 O   0  0  0  0  0  0  0  0  0  0  0  0
  161.5840  211.2420  155.8510 C   0  0  2  0  0  3  0  0  0  0  0  0
  161.8930  209.3580  152.9600 C   0  0  0  0  0  0  0  0  0  0  0  0
  162.2150  209.4390  150.1260 C   0  0  0  0  0  0  0  0  0  0  0  0
  162.6300  210.5350  155.0590 C   0  0  0  0  0  0  0  0  0  0  0  0
  164.2260  212.0920  155.8550 C   0  0  2  0  0  3  0  0  0  0  0  0
  161.3940  208.4480  150.7660 N   0  0  0  0  0  0  0  0  0  0  0  0
  162.1790  210.6710  152.2580 C   0  0  2  0  0  3  0  0  0  0  0  0
  162.1360  211.4670  157.2610 C   0  0  0  0  0  2  0  0  0  0  0  0
  161.3120  206.7330  154.0480 O   0  0  0  0  0  0  0  0  0  0  0  0
  160.1550  206.9940  154.6550 O   0  0  0  0  0  0  0  0  0  0  0  0
  166.4450  213.3040  155.2340 C   0  0  0  0  0  2  0  0  0  0  0  0
  166.4460  211.9490  154.8260 O   0  0  0  0  0  0  0  0  0  0  0  0
  166.4420  211.7460  157.2410 C   0  0  0  0  0  1  0  0  0  0  0  0
  165.7400  212.2590  156.0010 C   0  0  2  0  0  0  0  0  0  0  0  0
  161.1660  206.1800  149.8600 C   0  0  0  0  0  0  0  0  0  0  0  0
  160.7470  207.4510  149.9570 C   0  0  0  0  0  3  0  0  0  0  0  0
  160.5460  205.2650  148.9440 N   0  0  0  0  0  2  0  0  0  0  0  0
  161.6340  205.8780  146.9620 O   0  0  0  0  0  0  0  0  0  0  0  0
  160.9320  205.0400  147.5840 C   0  0  0  0  0  0  0  0  0  0  0  0
  160.7680  203.9480  145.0670 S   0  0  0  0  0  0  0  0  0  0  0  0
  162.5500  202.5090  147.1600 O   0  0  0  0  0  1  0  0  0  0  0  0
  160.4560  201.2350  146.9690 C   0  0  0  0  0  0  0  0  0  0  0  0
  161.1780  202.5260  147.4500 C   0  0  2  0  0  3  0  0  0  0  0  0
  160.5230  203.7920  146.8780 C   0  0  1  0  0  3  0  0  0  0  0  0
  161.4290  200.0800  146.7380 C   0  0  0  0  0  1  0  0  0  0  0  0
  160.4670  202.1920  144.6240 C   0  0  0  0  0  2  0  0  0  0  0  0
  159.4880  200.8010  148.0550 C   0  0  0  0  0  1  0  0  0  0  0  0
  159.6450  201.4570  145.6810 C   0  0  0  0  0  2  0  0  0  0  0  0
  162.3000  205.6760  150.6900 C   0  0  0  0  0  2  0  0  0  0  0  0
  162.2110  204.1700  150.8550 C   0  0  0  0  0  2  0  0  0  0  0  0
  160.4230  203.5960  152.7520 C   0  0  0  0  0  3  0  0  0  0  0  0
  161.2290  203.8560  151.8920 C   0  0  0  0  0  0  0  0  0  0  0  0
  160.9790  211.3360  151.9880 O   0  0  0  0  0  0  0  0  0  0  0  0
  160.1030  213.0940  150.6450 C   0  0  0  0  0  1  0  0  0  0  0  0
  161.2580  212.1460  150.8860 C   0  0  0  0  0  2  0  0  0  0  0  0
  1  8  1  0  0  0  0
  1 12  2  0  0  0  0
  2 12  1  6  0  0  0
  2 14  1  0  0  0  0
  2  9  1  0  0  0  0
  3 13  2  0  0  0  0
  4 18  1  0  0  0  0
  6 17  1  0  0  0  0
  7 15  1  0  0  0  0
  8 19  1  0  0  0  0
  9  5  1  6  0  0  0
 10 20  1  0  0  0  0
 10  9  1  0  0  0  0
 11  5  1  1  0  0  0
 11 18  1  0  0  0  0
 13 16  1  0  0  0  0
 13  6  1  0  0  0  0
 14  7  2  0  0  0  0
 14 11  1  0  0  0  0
 15 24  1  0  0  0  0
 15  4  1  1  0  0  0
 16  1  1  0  0  0  0
 17 43  1  6  0  0  0
 17 12  1  0  0  0  0
 19 20  1  0  0  0  0
 21 24  1  0  0  0  0
 22 21  1  0  0  0  0
 22 24  1  0  0  0  0
 24 23  1  1  0  0  0
 25 26  2  0  0  0  0
 25 39  1  0  0  0  0
 26 16  1  0  0  0  0
 27 25  1  0  0  0  0
 28 29  2  0  0  0  0
 29 27  1  0  0  0  0
 30 34  1  0  0  0  0
 32 33  1  0  0  0  0
 32 37  1  0  0  0  0
 33 31  1  6  0  0  0
 34 33  1  0  0  0  0
 34 29  1  1  0  0  0
 35 32  1  0  0  0  0
 36 30  1  0  0  0  0
 36 38  1  0  0  0  0
 38 32  1  0  0  0  0
 39 40  1  0  0  0  0
 40 42  1  0  0  0  0
 42 41  3  0  0  0  0
 44 45  1  0  0  0  0
 45 43  1  0  0  0  0
M  END
>  <MODEL>
4

>  <REMARK>
 VINA RESULT:       0.8      3.364     10.367
  Name = 
  9 active torsions:
  status: ('A' for Active; 'I' for Inactive)
    1  A    between atoms: C_6  and  N_7
    2  A    between atoms: C_6  and  C_10
    3  A    between atoms: C_8  and  C_10
    4  A    between atoms: C_8  and  C_36
    5  A    between atoms: C_23  and  C_31
    6  A    between atoms: C_26  and  C_34
    7  A    between atoms: C_29  and  O_41
    8  A    between atoms: N_37  and  C_45
    9  A    between atoms: C_39  and  O_41
                            x       y       z     vdW  Elec       q    Type
                         _______ _______ _______ _____ _____    ______ ____

>  <TORSDO>
F 9

$$$$
