=
 OpenBabel11042422383D

 33 36  0  0  1  0  0  0  0  0999 V2000
  161.4880  207.5100  149.9750 C   0  0  0  0  0  0  0  0  0  0  0  0
  161.7800  205.0320  146.6230 C   0  0  0  0  0  3  0  0  0  0  0  0
  161.1500  203.8300  149.0850 C   0  0  0  0  0  0  0  0  0  0  0  0
  161.8980  207.1540  147.6440 N   0  0  0  0  0  0  0  0  0  0  0  0
  162.0620  209.3630  148.5030 C   0  0  0  0  0  3  0  0  0  0  0  0
  160.7760  201.0260  149.1270 C   0  0  0  0  0  3  0  0  0  0  0  0
  161.4110  208.4140  151.0480 C   0  0  0  0  0  3  0  0  0  0  0  0
  161.8190  208.0000  148.6950 C   0  0  0  0  0  0  0  0  0  0  0  0
  161.9830  210.2550  149.5750 C   0  0  0  0  0  0  0  0  0  0  0  0
  161.6570  209.7750  150.8500 C   0  0  0  0  0  3  0  0  0  0  0  0
  161.0750  201.6700  147.9270 C   0  0  0  0  0  3  0  0  0  0  0  0
  161.2430  206.1300  150.1500 C   0  0  0  0  0  0  0  0  0  0  0  0
  161.6770  205.8220  147.7670 C   0  0  0  0  0  0  0  0  0  0  0  0
  160.6680  201.7650  150.3040 C   0  0  0  0  0  3  0  0  0  0  0  0
  161.5750  203.6610  146.6850 C   0  0  0  0  0  3  0  0  0  0  0  0
  161.2650  203.0560  147.8980 C   0  0  0  0  0  0  0  0  0  0  0  0
  160.8550  203.1480  150.2790 C   0  0  0  0  0  3  0  0  0  0  0  0
  161.3470  205.2470  149.0280 C   0  0  0  0  0  0  0  0  0  0  0  0
  160.8370  205.6530  151.5180 C   0  0  0  0  0  2  0  0  0  0  0  0
  161.9740  205.8610  152.5050 C   0  0  0  0  0  2  0  0  0  0  0  0
  161.4460  205.8460  153.9270 C   0  0  0  0  0  2  0  0  0  0  0  0
  160.6270  207.0970  154.2000 C   0  0  0  0  0  2  0  0  0  0  0  0
  160.1790  209.9180  154.0860 O   0  0  0  0  0  0  0  0  0  0  0  0
  161.4590  208.1100  154.8340 N   0  0  0  0  0  2  0  0  0  0  0  0
  162.0510  210.4830  155.4370 C   0  0  0  0  0  1  0  0  0  0  0  0
  161.1700  209.5060  154.7450 C   0  0  0  0  0  0  0  0  0  0  0  0
  162.2390  211.6430  149.3480 N   0  0  0  0  0  2  0  0  0  0  0  0
  162.4760  212.1950  148.0220 C   0  0  0  0  0  2  0  0  0  0  0  0
  160.5530  213.4470  148.7140 O   0  0  0  0  0  1  0  0  0  0  0  0
  161.2920  213.0480  147.5980 C   0  0  2  0  0  3  0  0  0  0  0  0
  160.4040  212.3020  146.6070 C   0  0  0  0  0  2  0  0  0  0  0  0
  160.3810  212.9730  145.2410 C   0  0  0  0  0  2  0  0  0  0  0  0
  161.6590  212.9370  144.6860 O   0  0  0  0  0  1  0  0  0  0  0  0
  1 12  1  0  0  0  0
  1  7  2  0  0  0  0
  2 15  2  0  0  0  0
  2 13  1  0  0  0  0
  3 17  1  0  0  0  0
  4 13  2  0  0  0  0
  4  8  1  0  0  0  0
  5  8  2  0  0  0  0
  5  9  1  0  0  0  0
  6 14  1  0  0  0  0
  8  1  1  0  0  0  0
  9 10  2  0  0  0  0
 10  7  1  0  0  0  0
 11  6  2  0  0  0  0
 12 19  1  0  0  0  0
 13 18  1  0  0  0  0
 15 16  1  0  0  0  0
 16 11  1  0  0  0  0
 16  3  2  0  0  0  0
 17 14  2  0  0  0  0
 18  3  1  0  0  0  0
 18 12  2  0  0  0  0
 19 20  1  0  0  0  0
 20 21  1  0  0  0  0
 21 22  1  0  0  0  0
 22 24  1  0  0  0  0
 23 26  2  0  0  0  0
 26 24  1  0  0  0  0
 26 25  1  0  0  0  0
 27  9  1  0  0  0  0
 28 27  1  0  0  0  0
 30 28  1  0  0  0  0
 30 29  1  1  0  0  0
 31 30  1  0  0  0  0
 32 31  1  0  0  0  0
 33 32  1  0  0  0  0
M  END
>  <MODEL>
1

>  <REMARK>
 VINA RESULT:      -9.2      0.000      0.000
  Name = 
  10 active torsions:
  status: ('A' for Active; 'I' for Inactive)
    1  A    between atoms: C_1  and  C_19
    2  A    between atoms: C_1  and  C_26
    3  A    between atoms: C_2  and  C_12
    4  A    between atoms: C_5  and  N_24
    5  A    between atoms: C_5  and  C_30
    6  A    between atoms: N_6  and  C_25
    7  A    between atoms: C_12  and  C_30
    8  A    between atoms: C_14  and  C_19
    9  A    between atoms: C_14  and  C_25
   10  A    between atoms: C_18  and  N_24
                            x       y       z     vdW  Elec       q    Type
                         _______ _______ _______ _____ _____    ______ ____

>  <TORSDO>
F 10

$$$$
=
 OpenBabel11042422383D

 33 36  0  0  1  0  0  0  0  0999 V2000
  161.1070  206.1240  151.2870 C   0  0  0  0  0  0  0  0  0  0  0  0
  161.0400  202.0000  150.6160 C   0  0  0  0  0  3  0  0  0  0  0  0
  161.0690  203.6880  148.3690 C   0  0  0  0  0  0  0  0  0  0  0  0
  161.0520  203.8610  152.0640 N   0  0  0  0  0  0  0  0  0  0  0  0
  161.0580  205.6130  153.6680 C   0  0  0  0  0  3  0  0  0  0  0  0
  161.0310  202.4810  145.8110 C   0  0  0  0  0  3  0  0  0  0  0  0
  161.1300  207.4930  151.6030 C   0  0  0  0  0  3  0  0  0  0  0  0
  161.0710  205.1840  152.3380 C   0  0  0  0  0  0  0  0  0  0  0  0
  161.0800  206.9770  153.9730 C   0  0  0  0  0  0  0  0  0  0  0  0
  161.1150  207.9160  152.9340 C   0  0  0  0  0  3  0  0  0  0  0  0
  161.0340  201.6860  146.9560 C   0  0  0  0  0  3  0  0  0  0  0  0
  161.1230  205.6720  149.9490 C   0  0  0  0  0  0  0  0  0  0  0  0
  161.0590  203.3820  150.7960 C   0  0  0  0  0  0  0  0  0  0  0  0
  161.0420  203.8710  145.9300 C   0  0  0  0  0  3  0  0  0  0  0  0
  161.0370  201.4490  149.3430 C   0  0  0  0  0  3  0  0  0  0  0  0
  161.0490  202.2740  148.2240 C   0  0  0  0  0  0  0  0  0  0  0  0
  161.0580  204.4620  147.1940 C   0  0  0  0  0  3  0  0  0  0  0  0
  161.0860  204.2660  149.6790 C   0  0  0  0  0  0  0  0  0  0  0  0
  161.2210  206.7020  148.8570 C   0  0  0  0  0  2  0  0  0  0  0  0
  162.4430  207.5810  149.0720 C   0  0  0  0  0  2  0  0  0  0  0  0
  162.3050  208.8740  148.2920 C   0  0  0  0  0  2  0  0  0  0  0  0
  161.9230  210.0140  149.2210 C   0  0  0  0  0  2  0  0  0  0  0  0
  160.7600  211.8380  147.3530 O   0  0  0  0  0  0  0  0  0  0  0  0
  162.5300  211.2550  148.7650 N   0  0  0  0  0  2  0  0  0  0  0  0
  162.5560  213.3920  147.4300 C   0  0  0  0  0  1  0  0  0  0  0  0
  161.8870  212.1290  147.8350 C   0  0  0  0  0  0  0  0  0  0  0  0
  161.0640  207.3850  155.3430 N   0  0  0  0  0  2  0  0  0  0  0  0
  159.9710  208.1470  155.9270 C   0  0  0  0  0  2  0  0  0  0  0  0
  159.8250  210.3130  156.9430 O   0  0  0  0  0  1  0  0  0  0  0  0
  160.5080  209.0950  156.9860 C   0  0  2  0  0  3  0  0  0  0  0  0
  162.0080  209.3170  156.8170 C   0  0  0  0  0  2  0  0  0  0  0  0
  162.3220  210.6940  156.2520 C   0  0  0  0  0  2  0  0  0  0  0  0
  162.3620  210.6270  154.8610 O   0  0  0  0  0  1  0  0  0  0  0  0
  1  7  2  0  0  0  0
  1  8  1  0  0  0  0
  2 13  1  0  0  0  0
  3 18  1  0  0  0  0
  4  8  1  0  0  0  0
  5  9  1  0  0  0  0
  6 14  2  0  0  0  0
  6 11  1  0  0  0  0
  7 10  1  0  0  0  0
  8  5  2  0  0  0  0
  9 27  1  0  0  0  0
 10  9  2  0  0  0  0
 11 16  2  0  0  0  0
 12  1  1  0  0  0  0
 13  4  2  0  0  0  0
 14 17  1  0  0  0  0
 15  2  2  0  0  0  0
 16  3  1  0  0  0  0
 16 15  1  0  0  0  0
 17  3  2  0  0  0  0
 18 12  2  0  0  0  0
 18 13  1  0  0  0  0
 19 20  1  0  0  0  0
 19 12  1  0  0  0  0
 21 20  1  0  0  0  0
 21 22  1  0  0  0  0
 23 26  2  0  0  0  0
 24 22  1  0  0  0  0
 25 26  1  0  0  0  0
 26 24  1  0  0  0  0
 27 28  1  0  0  0  0
 28 30  1  0  0  0  0
 30 29  1  6  0  0  0
 31 30  1  0  0  0  0
 32 31  1  0  0  0  0
 33 32  1  0  0  0  0
M  END
>  <MODEL>
2

>  <REMARK>
 VINA RESULT:      -9.0      1.552      6.149
  Name = 
  10 active torsions:
  status: ('A' for Active; 'I' for Inactive)
    1  A    between atoms: C_1  and  C_19
    2  A    between atoms: C_1  and  C_26
    3  A    between atoms: C_2  and  C_12
    4  A    between atoms: C_5  and  N_24
    5  A    between atoms: C_5  and  C_30
    6  A    between atoms: N_6  and  C_25
    7  A    between atoms: C_12  and  C_30
    8  A    between atoms: C_14  and  C_19
    9  A    between atoms: C_14  and  C_25
   10  A    between atoms: C_18  and  N_24
                            x       y       z     vdW  Elec       q    Type
                         _______ _______ _______ _____ _____    ______ ____

>  <TORSDO>
F 10

$$$$
=
 OpenBabel11042422383D

 33 36  0  0  1  0  0  0  0  0999 V2000
  161.4400  206.4230  150.1920 C   0  0  0  0  0  0  0  0  0  0  0  0
  162.0630  210.1120  152.0550 C   0  0  0  0  0  3  0  0  0  0  0  0
  161.0540  208.0100  153.6250 C   0  0  0  0  0  0  0  0  0  0  0  0
  162.1080  208.7210  150.1510 N   0  0  0  0  0  0  0  0  0  0  0  0
  162.2170  207.4690  148.1350 C   0  0  0  0  0  3  0  0  0  0  0  0
  160.5120  208.5410  156.3500 C   0  0  0  0  0  3  0  0  0  0  0  0
  161.2610  205.2200  149.4880 C   0  0  0  0  0  3  0  0  0  0  0  0
  161.9230  207.5520  149.4990 C   0  0  0  0  0  0  0  0  0  0  0  0
  162.0350  206.2690  147.4420 C   0  0  0  0  0  0  0  0  0  0  0  0
  161.5550  205.1440  148.1240 C   0  0  0  0  0  3  0  0  0  0  0  0
  161.0280  209.5470  155.5340 C   0  0  0  0  0  3  0  0  0  0  0  0
  161.1510  206.5240  151.5720 C   0  0  0  0  0  0  0  0  0  0  0  0
  161.8370  208.8660  151.4710 C   0  0  0  0  0  0  0  0  0  0  0  0
  160.2590  207.2770  155.8190 C   0  0  0  0  0  3  0  0  0  0  0  0
  161.7970  210.3250  153.4000 C   0  0  0  0  0  3  0  0  0  0  0  0
  161.2950  209.2940  154.1850 C   0  0  0  0  0  0  0  0  0  0  0  0
  160.5260  207.0190  154.4730 C   0  0  0  0  0  3  0  0  0  0  0  0
  161.3380  207.7760  152.2410 C   0  0  0  0  0  0  0  0  0  0  0  0
  160.6930  205.2840  152.2890 C   0  0  0  0  0  2  0  0  0  0  0  0
  161.7800  204.2220  152.2480 C   0  0  0  0  0  2  0  0  0  0  0  0
  161.1660  202.8370  152.3240 C   0  0  0  0  0  2  0  0  0  0  0  0
  160.3930  202.5310  151.0520 C   0  0  0  0  0  2  0  0  0  0  0  0
  159.7010  201.7610  148.3880 O   0  0  0  0  0  0  0  0  0  0  0  0
  161.1490  201.6110  150.2170 N   0  0  0  0  0  2  0  0  0  0  0  0
  161.5860  200.3470  148.0820 C   0  0  0  0  0  1  0  0  0  0  0  0
  160.7520  201.2770  148.8860 C   0  0  0  0  0  0  0  0  0  0  0  0
  162.3430  206.2160  146.0470 N   0  0  0  0  0  2  0  0  0  0  0  0
  162.1610  205.0160  145.2430 C   0  0  0  0  0  2  0  0  0  0  0  0
  160.0690  206.1500  144.9570 O   0  0  0  0  0  1  0  0  0  0  0  0
  160.8590  205.1080  144.4650 C   0  0  2  0  0  3  0  0  0  0  0  0
  160.0950  203.7890  144.5140 C   0  0  0  0  0  2  0  0  0  0  0  0
  160.8680  202.7060  145.2520 C   0  0  0  0  0  2  0  0  0  0  0  0
  160.1980  201.4910  145.1270 O   0  0  0  0  0  1  0  0  0  0  0  0
  1 12  2  0  0  0  0
  2 15  1  0  0  0  0
  3 16  1  0  0  0  0
  3 17  1  0  0  0  0
  4 13  1  0  0  0  0
  5  8  1  0  0  0  0
  7  1  1  0  0  0  0
  8  4  2  0  0  0  0
  8  1  1  0  0  0  0
  9 10  1  0  0  0  0
  9  5  2  0  0  0  0
 10  7  2  0  0  0  0
 11  6  2  0  0  0  0
 12 18  1  0  0  0  0
 12 19  1  0  0  0  0
 13  2  2  0  0  0  0
 13 18  1  0  0  0  0
 14  6  1  0  0  0  0
 15 16  2  0  0  0  0
 16 11  1  0  0  0  0
 17 14  2  0  0  0  0
 18  3  2  0  0  0  0
 20 19  1  0  0  0  0
 20 21  1  0  0  0  0
 22 21  1  0  0  0  0
 23 26  2  0  0  0  0
 24 22  1  0  0  0  0
 25 26  1  0  0  0  0
 26 24  1  0  0  0  0
 27  9  1  0  0  0  0
 28 27  1  0  0  0  0
 30 31  1  0  0  0  0
 30 29  1  1  0  0  0
 30 28  1  0  0  0  0
 31 32  1  0  0  0  0
 33 32  1  0  0  0  0
M  END
>  <MODEL>
3

>  <REMARK>
 VINA RESULT:      -8.8      3.510      7.234
  Name = 
  10 active torsions:
  status: ('A' for Active; 'I' for Inactive)
    1  A    between atoms: C_1  and  C_19
    2  A    between atoms: C_1  and  C_26
    3  A    between atoms: C_2  and  C_12
    4  A    between atoms: C_5  and  N_24
    5  A    between atoms: C_5  and  C_30
    6  A    between atoms: N_6  and  C_25
    7  A    between atoms: C_12  and  C_30
    8  A    between atoms: C_14  and  C_19
    9  A    between atoms: C_14  and  C_25
   10  A    between atoms: C_18  and  N_24
                            x       y       z     vdW  Elec       q    Type
                         _______ _______ _______ _____ _____    ______ ____

>  <TORSDO>
F 10

$$$$
=
 OpenBabel11042422383D

 33 36  0  0  1  0  0  0  0  0999 V2000
  161.2520  207.1510  150.5930 C   0  0  0  0  0  0  0  0  0  0  0  0
  161.1700  203.4240  152.4830 C   0  0  0  0  0  3  0  0  0  0  0  0
  161.0080  203.4700  149.6760 C   0  0  0  0  0  0  0  0  0  0  0  0
  161.2790  205.7790  152.5540 N   0  0  0  0  0  0  0  0  0  0  0  0
  161.3940  208.1370  152.8160 C   0  0  0  0  0  3  0  0  0  0  0  0
  160.7810  200.9940  148.3270 C   0  0  0  0  0  3  0  0  0  0  0  0
  161.2870  208.4430  150.0410 C   0  0  0  0  0  3  0  0  0  0  0  0
  161.3060  207.0090  151.9950 C   0  0  0  0  0  0  0  0  0  0  0  0
  161.4270  209.4180  152.2580 C   0  0  0  0  0  0  0  0  0  0  0  0
  161.3720  209.5670  150.8660 C   0  0  0  0  0  3  0  0  0  0  0  0
  160.8800  201.0230  149.7170 C   0  0  0  0  0  3  0  0  0  0  0  0
  161.1670  205.9990  149.7790 C   0  0  0  0  0  0  0  0  0  0  0  0
  161.1910  204.6470  151.8130 C   0  0  0  0  0  0  0  0  0  0  0  0
  160.7890  202.1870  147.6060 C   0  0  0  0  0  3  0  0  0  0  0  0
  161.0720  202.2310  151.7800 C   0  0  0  0  0  3  0  0  0  0  0  0
  160.9890  202.2420  150.3930 C   0  0  0  0  0  0  0  0  0  0  0  0
  160.8990  203.4070  148.2750 C   0  0  0  0  0  3  0  0  0  0  0  0
  161.1220  204.7050  150.3910 C   0  0  0  0  0  0  0  0  0  0  0  0
  161.1700  206.1880  148.2870 C   0  0  0  0  0  2  0  0  0  0  0  0
  162.5790  206.4820  147.7980 C   0  0  0  0  0  2  0  0  0  0  0  0
  163.1070  205.3170  146.9820 C   0  0  0  0  0  2  0  0  0  0  0  0
  162.8080  205.5260  145.5070 C   0  0  0  0  0  2  0  0  0  0  0  0
  160.0130  205.8680  145.0190 O   0  0  0  0  0  0  0  0  0  0  0  0
  161.9020  204.4920  145.0300 N   0  0  0  0  0  2  0  0  0  0  0  0
  159.6530  203.6370  144.2860 C   0  0  0  0  0  1  0  0  0  0  0  0
  160.5140  204.7350  144.7960 C   0  0  0  0  0  0  0  0  0  0  0  0
  161.5150  210.5530  153.1230 N   0  0  0  0  0  2  0  0  0  0  0  0
  161.9660  210.4600  154.5040 C   0  0  0  0  0  2  0  0  0  0  0  0
  161.4730  211.4130  156.6470 O   0  0  0  0  0  1  0  0  0  0  0  0
  160.9020  211.0200  155.4340 C   0  0  2  0  0  3  0  0  0  0  0  0
  159.7890  210.0040  155.6720 C   0  0  0  0  0  2  0  0  0  0  0  0
  160.2830  208.7800  156.4280 C   0  0  0  0  0  2  0  0  0  0  0  0
  159.6360  207.6440  155.9440 O   0  0  0  0  0  1  0  0  0  0  0  0
  1  8  1  0  0  0  0
  3 18  1  0  0  0  0
  3 16  1  0  0  0  0
  6 11  1  0  0  0  0
  7  1  2  0  0  0  0
  7 10  1  0  0  0  0
  8  4  1  0  0  0  0
  8  5  2  0  0  0  0
  9  5  1  0  0  0  0
  9 27  1  0  0  0  0
 10  9  2  0  0  0  0
 11 16  2  0  0  0  0
 12 18  2  0  0  0  0
 12  1  1  0  0  0  0
 13  2  1  0  0  0  0
 13  4  2  0  0  0  0
 14 17  1  0  0  0  0
 14  6  2  0  0  0  0
 15  2  2  0  0  0  0
 16 15  1  0  0  0  0
 17  3  2  0  0  0  0
 18 13  1  0  0  0  0
 19 12  1  0  0  0  0
 20 19  1  0  0  0  0
 21 20  1  0  0  0  0
 22 21  1  0  0  0  0
 24 22  1  0  0  0  0
 25 26  1  0  0  0  0
 26 23  2  0  0  0  0
 26 24  1  0  0  0  0
 27 28  1  0  0  0  0
 28 30  1  0  0  0  0
 30 31  1  0  0  0  0
 30 29  1  1  0  0  0
 31 32  1  0  0  0  0
 33 32  1  0  0  0  0
M  END
>  <MODEL>
4

>  <REMARK>
 VINA RESULT:      -8.5      3.077      6.600
  Name = 
  10 active torsions:
  status: ('A' for Active; 'I' for Inactive)
    1  A    between atoms: C_1  and  C_19
    2  A    between atoms: C_1  and  C_26
    3  A    between atoms: C_2  and  C_12
    4  A    between atoms: C_5  and  N_24
    5  A    between atoms: C_5  and  C_30
    6  A    between atoms: N_6  and  C_25
    7  A    between atoms: C_12  and  C_30
    8  A    between atoms: C_14  and  C_19
    9  A    between atoms: C_14  and  C_25
   10  A    between atoms: C_18  and  N_24
                            x       y       z     vdW  Elec       q    Type
                         _______ _______ _______ _____ _____    ______ ____

>  <TORSDO>
F 10

$$$$
=
 OpenBabel11042422383D

 33 36  0  0  1  0  0  0  0  0999 V2000
  161.5490  207.4060  149.0800 C   0  0  0  0  0  0  0  0  0  0  0  0
  161.2880  204.9690  152.4640 C   0  0  0  0  0  3  0  0  0  0  0  0
  161.0060  203.7450  149.9490 C   0  0  0  0  0  0  0  0  0  0  0  0
  161.5650  207.0800  151.4500 N   0  0  0  0  0  0  0  0  0  0  0  0
  161.8570  209.2800  150.6040 C   0  0  0  0  0  3  0  0  0  0  0  0
  160.5470  200.9550  149.8830 C   0  0  0  0  0  3  0  0  0  0  0  0
  161.6500  208.2970  147.9970 C   0  0  0  0  0  3  0  0  0  0  0  0
  161.6550  207.9140  150.3910 C   0  0  0  0  0  0  0  0  0  0  0  0
  161.9560  210.1590  149.5220 C   0  0  0  0  0  0  0  0  0  0  0  0
  161.8500  209.6620  148.2170 C   0  0  0  0  0  3  0  0  0  0  0  0
  160.7090  201.6050  151.1050 C   0  0  0  0  0  3  0  0  0  0  0  0
  161.3470  206.0220  148.8830 C   0  0  0  0  0  0  0  0  0  0  0  0
  161.3650  205.7470  151.3100 C   0  0  0  0  0  0  0  0  0  0  0  0
  160.6060  201.6840  148.6950 C   0  0  0  0  0  3  0  0  0  0  0  0
  161.0760  203.6000  152.3860 C   0  0  0  0  0  3  0  0  0  0  0  0
  160.9330  202.9850  151.1480 C   0  0  0  0  0  0  0  0  0  0  0  0
  160.8310  203.0610  148.7330 C   0  0  0  0  0  3  0  0  0  0  0  0
  161.2390  205.1570  150.0190 C   0  0  0  0  0  0  0  0  0  0  0  0
  161.2970  205.5100  147.4690 C   0  0  0  0  0  2  0  0  0  0  0  0
  162.7060  205.3210  146.9290 C   0  0  0  0  0  2  0  0  0  0  0  0
  162.6680  205.0860  145.4310 C   0  0  0  0  0  2  0  0  0  0  0  0
  161.3060  204.5590  145.0130 C   0  0  0  0  0  2  0  0  0  0  0  0
  159.1360  202.8570  144.2610 O   0  0  0  0  0  0  0  0  0  0  0  0
  161.2110  203.1360  145.3020 N   0  0  0  0  0  2  0  0  0  0  0  0
  160.0810  200.8870  145.1960 C   0  0  0  0  0  1  0  0  0  0  0  0
  160.1000  202.3400  144.8860 C   0  0  0  0  0  0  0  0  0  0  0  0
  162.1610  211.5520  149.7720 N   0  0  0  0  0  2  0  0  0  0  0  0
  162.2780  212.5360  148.7060 C   0  0  0  0  0  2  0  0  0  0  0  0
  160.2700  213.2110  149.8250 O   0  0  0  0  0  1  0  0  0  0  0  0
  161.2070  213.6020  148.8660 C   0  0  2  0  0  3  0  0  0  0  0  0
  160.5210  213.8980  147.5370 C   0  0  0  0  0  2  0  0  0  0  0  0
  160.4490  212.6670  146.6440 C   0  0  0  0  0  2  0  0  0  0  0  0
  161.0420  212.9520  145.4150 O   0  0  0  0  0  1  0  0  0  0  0  0
  1  8  1  0  0  0  0
  3 18  2  0  0  0  0
  3 16  1  0  0  0  0
  6 11  2  0  0  0  0
  7 10  2  0  0  0  0
  7  1  1  0  0  0  0
  8  5  1  0  0  0  0
  8  4  2  0  0  0  0
  9 27  1  0  0  0  0
  9  5  2  0  0  0  0
 10  9  1  0  0  0  0
 11 16  1  0  0  0  0
 12  1  2  0  0  0  0
 12 18  1  0  0  0  0
 13  4  1  0  0  0  0
 13  2  2  0  0  0  0
 14 17  2  0  0  0  0
 14  6  1  0  0  0  0
 15  2  1  0  0  0  0
 16 15  2  0  0  0  0
 17  3  1  0  0  0  0
 18 13  1  0  0  0  0
 19 12  1  0  0  0  0
 20 19  1  0  0  0  0
 21 20  1  0  0  0  0
 22 24  1  0  0  0  0
 22 21  1  0  0  0  0
 23 26  2  0  0  0  0
 26 25  1  0  0  0  0
 26 24  1  0  0  0  0
 28 30  1  0  0  0  0
 28 27  1  0  0  0  0
 30 29  1  1  0  0  0
 31 30  1  0  0  0  0
 32 31  1  0  0  0  0
 33 32  1  0  0  0  0
M  END
>  <MODEL>
5

>  <REMARK>
 VINA RESULT:      -8.3      2.375      5.469
  Name = 
  10 active torsions:
  status: ('A' for Active; 'I' for Inactive)
    1  A    between atoms: C_1  and  C_19
    2  A    between atoms: C_1  and  C_26
    3  A    between atoms: C_2  and  C_12
    4  A    between atoms: C_5  and  N_24
    5  A    between atoms: C_5  and  C_30
    6  A    between atoms: N_6  and  C_25
    7  A    between atoms: C_12  and  C_30
    8  A    between atoms: C_14  and  C_19
    9  A    between atoms: C_14  and  C_25
   10  A    between atoms: C_18  and  N_24
                            x       y       z     vdW  Elec       q    Type
                         _______ _______ _______ _____ _____    ______ ____

>  <TORSDO>
F 10

$$$$
=
 OpenBabel11042422383D

 33 36  0  0  1  0  0  0  0  0999 V2000
  161.0390  206.9780  152.6030 C   0  0  0  0  0  0  0  0  0  0  0  0
  161.9610  208.9070  149.0130 C   0  0  0  0  0  3  0  0  0  0  0  0
  161.5420  206.1280  148.9330 C   0  0  0  0  0  0  0  0  0  0  0  0
  161.5810  208.9370  151.3400 N   0  0  0  0  0  0  0  0  0  0  0  0
  161.2330  209.1550  153.6790 C   0  0  0  0  0  3  0  0  0  0  0  0
  161.7920  204.8270  146.4340 C   0  0  0  0  0  3  0  0  0  0  0  0
  160.7350  206.4110  153.8530 C   0  0  0  0  0  3  0  0  0  0  0  0
  161.2890  208.3640  152.5280 C   0  0  0  0  0  0  0  0  0  0  0  0
  160.9300  208.5820  154.9180 C   0  0  0  0  0  0  0  0  0  0  0  0
  160.6820  207.2060  155.0010 C   0  0  0  0  0  3  0  0  0  0  0  0
  161.9750  206.2060  146.5210 C   0  0  0  0  0  3  0  0  0  0  0  0
  161.0980  206.1950  151.4290 C   0  0  0  0  0  0  0  0  0  0  0  0
  161.6550  208.2240  150.1890 C   0  0  0  0  0  0  0  0  0  0  0  0
  161.4910  204.0920  147.5790 C   0  0  0  0  0  3  0  0  0  0  0  0
  162.0600  208.2310  147.8040 C   0  0  0  0  0  3  0  0  0  0  0  0
  161.8570  206.8570  147.7540 C   0  0  0  0  0  0  0  0  0  0  0  0
  161.3710  204.7370  148.8110 C   0  0  0  0  0  3  0  0  0  0  0  0
  161.4250  206.8180  150.1820 C   0  0  0  0  0  0  0  0  0  0  0  0
  160.7680  204.7310  151.5400 C   0  0  0  0  0  2  0  0  0  0  0  0
  161.9990  203.9470  151.9650 C   0  0  0  0  0  2  0  0  0  0  0  0
  161.6870  202.4630  152.0120 C   0  0  0  0  0  2  0  0  0  0  0  0
  160.7200  202.0910  150.9010 C   0  0  0  0  0  2  0  0  0  0  0  0
  159.6670  201.4180  148.3300 O   0  0  0  0  0  0  0  0  0  0  0  0
  161.4010  201.2930  149.8930 N   0  0  0  0  0  2  0  0  0  0  0  0
  161.5840  200.2000  147.6300 C   0  0  0  0  0  1  0  0  0  0  0  0
  160.8200  201.0030  148.6200 C   0  0  0  0  0  0  0  0  0  0  0  0
  160.8810  209.4160  156.0780 N   0  0  0  0  0  2  0  0  0  0  0  0
  161.2340  210.8280  156.0510 C   0  0  0  0  0  2  0  0  0  0  0  0
  158.8930  210.9220  156.5520 O   0  0  0  0  0  1  0  0  0  0  0  0
  159.9740  211.6770  156.0920 C   0  0  2  0  0  3  0  0  0  0  0  0
  159.6670  212.2720  154.7210 C   0  0  0  0  0  2  0  0  0  0  0  0
  158.4140  211.6670  154.1030 C   0  0  0  0  0  2  0  0  0  0  0  0
  158.6730  211.3220  152.7780 O   0  0  0  0  0  1  0  0  0  0  0  0
  1  7  2  0  0  0  0
  2 13  1  0  0  0  0
  3 18  1  0  0  0  0
  4  8  1  0  0  0  0
  5  9  1  0  0  0  0
  6 11  2  0  0  0  0
  6 14  1  0  0  0  0
  7 10  1  0  0  0  0
  8  1  1  0  0  0  0
  8  5  2  0  0  0  0
  9 10  2  0  0  0  0
  9 27  1  0  0  0  0
 11 16  1  0  0  0  0
 12 19  1  0  0  0  0
 12  1  1  0  0  0  0
 13  4  2  0  0  0  0
 14 17  2  0  0  0  0
 15  2  2  0  0  0  0
 16 15  1  0  0  0  0
 16  3  2  0  0  0  0
 17  3  1  0  0  0  0
 18 13  1  0  0  0  0
 18 12  2  0  0  0  0
 19 20  1  0  0  0  0
 20 21  1  0  0  0  0
 22 21  1  0  0  0  0
 23 26  2  0  0  0  0
 24 22  1  0  0  0  0
 25 26  1  0  0  0  0
 26 24  1  0  0  0  0
 28 27  1  0  0  0  0
 28 30  1  0  0  0  0
 30 29  1  6  0  0  0
 31 30  1  0  0  0  0
 32 31  1  0  0  0  0
 33 32  1  0  0  0  0
M  END
>  <MODEL>
6

>  <REMARK>
 VINA RESULT:      -8.2      2.725      6.239
  Name = 
  10 active torsions:
  status: ('A' for Active; 'I' for Inactive)
    1  A    between atoms: C_1  and  C_19
    2  A    between atoms: C_1  and  C_26
    3  A    between atoms: C_2  and  C_12
    4  A    between atoms: C_5  and  N_24
    5  A    between atoms: C_5  and  C_30
    6  A    between atoms: N_6  and  C_25
    7  A    between atoms: C_12  and  C_30
    8  A    between atoms: C_14  and  C_19
    9  A    between atoms: C_14  and  C_25
   10  A    between atoms: C_18  and  N_24
                            x       y       z     vdW  Elec       q    Type
                         _______ _______ _______ _____ _____    ______ ____

>  <TORSDO>
F 10

$$$$
=
 OpenBabel11042422383D

 33 36  0  0  1  0  0  0  0  0999 V2000
  160.9900  205.9950  151.5130 C   0  0  0  0  0  0  0  0  0  0  0  0
  160.7390  206.6380  155.6350 C   0  0  0  0  0  3  0  0  0  0  0  0
  160.8550  208.8970  153.9640 C   0  0  0  0  0  0  0  0  0  0  0  0
  160.8640  205.2030  153.7680 N   0  0  0  0  0  0  0  0  0  0  0  0
  160.9860  203.6100  152.0090 C   0  0  0  0  0  3  0  0  0  0  0  0
  160.8140  211.4460  155.1890 C   0  0  0  0  0  3  0  0  0  0  0  0
  161.0730  205.6880  150.1440 C   0  0  0  0  0  3  0  0  0  0  0  0
  160.9470  204.9380  152.4450 C   0  0  0  0  0  0  0  0  0  0  0  0
  161.0690  203.3150  150.6460 C   0  0  0  0  0  0  0  0  0  0  0  0
  161.1140  204.3590  149.7140 C   0  0  0  0  0  3  0  0  0  0  0  0
  160.7420  210.2970  155.9740 C   0  0  0  0  0  3  0  0  0  0  0  0
  160.9470  207.3300  151.9720 C   0  0  0  0  0  0  0  0  0  0  0  0
  160.8270  206.4680  154.2540 C   0  0  0  0  0  0  0  0  0  0  0  0
  160.9100  211.3360  153.8020 C   0  0  0  0  0  3  0  0  0  0  0  0
  160.7070  207.9080  156.1930 C   0  0  0  0  0  3  0  0  0  0  0  0
  160.7660  209.0320  155.3770 C   0  0  0  0  0  0  0  0  0  0  0  0
  160.9330  210.0760  153.2020 C   0  0  0  0  0  3  0  0  0  0  0  0
  160.8760  207.5910  153.3780 C   0  0  0  0  0  0  0  0  0  0  0  0
  160.9370  208.4290  150.9450 C   0  0  0  0  0  2  0  0  0  0  0  0
  162.3290  208.6170  150.3620 C   0  0  0  0  0  2  0  0  0  0  0  0
  162.2390  209.0090  148.9000 C   0  0  0  0  0  2  0  0  0  0  0  0
  161.4420  207.9740  148.1230 C   0  0  0  0  0  2  0  0  0  0  0  0
  160.7140  206.0240  146.1640 O   0  0  0  0  0  0  0  0  0  0  0  0
  162.3380  206.9850  147.5440 N   0  0  0  0  0  2  0  0  0  0  0  0
  162.8870  205.0760  145.9940 C   0  0  0  0  0  1  0  0  0  0  0  0
  161.9110  206.0440  146.5580 C   0  0  0  0  0  0  0  0  0  0  0  0
  161.1090  201.9470  150.2310 N   0  0  0  0  0  2  0  0  0  0  0  0
  160.0980  201.3540  149.3670 C   0  0  0  0  0  2  0  0  0  0  0  0
  161.9560  200.2520  148.3300 O   0  0  0  0  0  1  0  0  0  0  0  0
  160.7360  200.8830  148.0710 C   0  0  2  0  0  3  0  0  0  0  0  0
  160.9290  202.0420  147.0990 C   0  0  0  0  0  2  0  0  0  0  0  0
  160.4550  201.6950  145.6950 C   0  0  0  0  0  2  0  0  0  0  0  0
  160.4570  202.8450  144.9080 O   0  0  0  0  0  1  0  0  0  0  0  0
  1 12  2  0  0  0  0
  1  8  1  0  0  0  0
  2 15  1  0  0  0  0
  3 16  1  0  0  0  0
  4 13  1  0  0  0  0
  5  8  1  0  0  0  0
  6 11  2  0  0  0  0
  7  1  1  0  0  0  0
  8  4  2  0  0  0  0
  9  5  2  0  0  0  0
 10  7  2  0  0  0  0
 10  9  1  0  0  0  0
 12 18  1  0  0  0  0
 13  2  2  0  0  0  0
 14  6  1  0  0  0  0
 16 11  1  0  0  0  0
 16 15  2  0  0  0  0
 17 14  2  0  0  0  0
 17  3  1  0  0  0  0
 18  3  2  0  0  0  0
 18 13  1  0  0  0  0
 19 12  1  0  0  0  0
 20 19  1  0  0  0  0
 21 20  1  0  0  0  0
 22 21  1  0  0  0  0
 23 26  2  0  0  0  0
 24 22  1  0  0  0  0
 25 26  1  0  0  0  0
 26 24  1  0  0  0  0
 27  9  1  0  0  0  0
 28 27  1  0  0  0  0
 30 29  1  1  0  0  0
 30 28  1  0  0  0  0
 31 30  1  0  0  0  0
 32 31  1  0  0  0  0
 33 32  1  0  0  0  0
M  END
>  <MODEL>
7

>  <REMARK>
 VINA RESULT:      -8.2      3.353      8.474
  Name = 
  10 active torsions:
  status: ('A' for Active; 'I' for Inactive)
    1  A    between atoms: C_1  and  C_19
    2  A    between atoms: C_1  and  C_26
    3  A    between atoms: C_2  and  C_12
    4  A    between atoms: C_5  and  N_24
    5  A    between atoms: C_5  and  C_30
    6  A    between atoms: N_6  and  C_25
    7  A    between atoms: C_12  and  C_30
    8  A    between atoms: C_14  and  C_19
    9  A    between atoms: C_14  and  C_25
   10  A    between atoms: C_18  and  N_24
                            x       y       z     vdW  Elec       q    Type
                         _______ _______ _______ _____ _____    ______ ____

>  <TORSDO>
F 10

$$$$
=
 OpenBabel11042422383D

 33 36  0  0  1  0  0  0  0  0999 V2000
  161.0190  206.3770  151.4240 C   0  0  0  0  0  0  0  0  0  0  0  0
  160.7420  206.5910  155.5880 C   0  0  0  0  0  3  0  0  0  0  0  0
  160.8290  209.0100  154.1590 C   0  0  0  0  0  0  0  0  0  0  0  0
  160.8970  205.3560  153.5850 N   0  0  0  0  0  0  0  0  0  0  0  0
  161.0510  203.9550  151.6730 C   0  0  0  0  0  3  0  0  0  0  0  0
  160.7430  211.4200  155.6380 C   0  0  0  0  0  3  0  0  0  0  0  0
  161.1130  206.2140  150.0310 C   0  0  0  0  0  3  0  0  0  0  0  0
  160.9890  205.2300  152.2430 C   0  0  0  0  0  0  0  0  0  0  0  0
  161.1430  203.8020  150.2870 C   0  0  0  0  0  0  0  0  0  0  0  0
  161.1760  204.9370  149.4680 C   0  0  0  0  0  3  0  0  0  0  0  0
  160.6860  210.1950  156.3010 C   0  0  0  0  0  3  0  0  0  0  0  0
  160.9540  207.6580  152.0170 C   0  0  0  0  0  0  0  0  0  0  0  0
  160.8380  206.5640  154.1980 C   0  0  0  0  0  0  0  0  0  0  0  0
  160.8460  211.4540  154.2480 C   0  0  0  0  0  3  0  0  0  0  0  0
  160.6870  207.7960  156.2740 C   0  0  0  0  0  3  0  0  0  0  0  0
  160.7320  208.9980  155.5780 C   0  0  0  0  0  0  0  0  0  0  0  0
  160.8910  210.2630  153.5220 C   0  0  0  0  0  3  0  0  0  0  0  0
  160.8720  207.7720  153.4420 C   0  0  0  0  0  0  0  0  0  0  0  0
  160.9300  208.8560  151.1080 C   0  0  0  0  0  2  0  0  0  0  0  0
  162.3220  209.1270  150.5600 C   0  0  0  0  0  2  0  0  0  0  0  0
  162.2320  209.7800  149.1940 C   0  0  0  0  0  2  0  0  0  0  0  0
  161.9580  211.2680  149.3360 C   0  0  0  0  0  2  0  0  0  0  0  0
  160.3910  212.5030  147.2890 O   0  0  0  0  0  0  0  0  0  0  0  0
  162.4870  211.9850  148.1850 N   0  0  0  0  0  2  0  0  0  0  0  0
  162.2550  213.3260  146.0660 C   0  0  0  0  0  1  0  0  0  0  0  0
  161.6450  212.5900  147.2030 C   0  0  0  0  0  0  0  0  0  0  0  0
  161.2060  202.4850  149.7340 N   0  0  0  0  0  2  0  0  0  0  0  0
  160.1060  201.8860  148.9940 C   0  0  0  0  0  2  0  0  0  0  0  0
  161.5800  200.2780  148.0040 O   0  0  0  0  0  1  0  0  0  0  0  0
  160.6260  201.2550  147.7130 C   0  0  2  0  0  3  0  0  0  0  0  0
  161.2090  202.3100  146.7770 C   0  0  0  0  0  2  0  0  0  0  0  0
  160.4580  202.3790  145.4550 C   0  0  0  0  0  2  0  0  0  0  0  0
  160.0920  201.0930  145.0630 O   0  0  0  0  0  1  0  0  0  0  0  0
  1 12  2  0  0  0  0
  1  8  1  0  0  0  0
  2 15  1  0  0  0  0
  3 16  1  0  0  0  0
  4 13  1  0  0  0  0
  5  8  1  0  0  0  0
  6 11  2  0  0  0  0
  7  1  1  0  0  0  0
  8  4  2  0  0  0  0
  9  5  2  0  0  0  0
 10  7  2  0  0  0  0
 10  9  1  0  0  0  0
 12 18  1  0  0  0  0
 13  2  2  0  0  0  0
 14  6  1  0  0  0  0
 16 15  2  0  0  0  0
 16 11  1  0  0  0  0
 17  3  1  0  0  0  0
 17 14  2  0  0  0  0
 18  3  2  0  0  0  0
 18 13  1  0  0  0  0
 19 12  1  0  0  0  0
 20 19  1  0  0  0  0
 21 22  1  0  0  0  0
 21 20  1  0  0  0  0
 24 22  1  0  0  0  0
 25 26  1  0  0  0  0
 26 23  2  0  0  0  0
 26 24  1  0  0  0  0
 27  9  1  0  0  0  0
 28 27  1  0  0  0  0
 30 29  1  1  0  0  0
 30 28  1  0  0  0  0
 31 30  1  0  0  0  0
 32 31  1  0  0  0  0
 33 32  1  0  0  0  0
M  END
>  <MODEL>
8

>  <REMARK>
 VINA RESULT:      -7.6      3.293      8.364
  Name = 
  10 active torsions:
  status: ('A' for Active; 'I' for Inactive)
    1  A    between atoms: C_1  and  C_19
    2  A    between atoms: C_1  and  C_26
    3  A    between atoms: C_2  and  C_12
    4  A    between atoms: C_5  and  N_24
    5  A    between atoms: C_5  and  C_30
    6  A    between atoms: N_6  and  C_25
    7  A    between atoms: C_12  and  C_30
    8  A    between atoms: C_14  and  C_19
    9  A    between atoms: C_14  and  C_25
   10  A    between atoms: C_18  and  N_24
                            x       y       z     vdW  Elec       q    Type
                         _______ _______ _______ _____ _____    ______ ____

>  <TORSDO>
F 10

$$$$
=
 OpenBabel11042422383D

 33 36  0  0  1  0  0  0  0  0999 V2000
  161.6040  207.2090  150.0130 C   0  0  0  0  0  0  0  0  0  0  0  0
  160.5800  203.8740  152.3130 C   0  0  0  0  0  3  0  0  0  0  0  0
  161.2100  203.4500  149.6060 C   0  0  0  0  0  0  0  0  0  0  0  0
  160.9300  206.1930  152.0720 N   0  0  0  0  0  0  0  0  0  0  0  0
  161.2340  208.5480  152.0130 C   0  0  0  0  0  3  0  0  0  0  0  0
  161.0880  200.8010  148.6220 C   0  0  0  0  0  3  0  0  0  0  0  0
  161.9370  208.3820  149.3150 C   0  0  0  0  0  3  0  0  0  0  0  0
  161.2510  207.3050  151.3750 C   0  0  0  0  0  0  0  0  0  0  0  0
  161.5660  209.7100  151.3110 C   0  0  0  0  0  0  0  0  0  0  0  0
  161.9160  209.6230  149.9570 C   0  0  0  0  0  3  0  0  0  0  0  0
  160.8000  201.0600  149.9610 C   0  0  0  0  0  3  0  0  0  0  0  0
  161.6190  205.9430  149.3850 C   0  0  0  0  0  0  0  0  0  0  0  0
  160.9240  204.9600  151.5100 C   0  0  0  0  0  0  0  0  0  0  0  0
  161.4310  201.8500  147.7700 C   0  0  0  0  0  3  0  0  0  0  0  0
  160.5470  202.5880  151.7930 C   0  0  0  0  0  3  0  0  0  0  0  0
  160.8540  202.3670  150.4550 C   0  0  0  0  0  0  0  0  0  0  0  0
  161.4870  203.1560  148.2590 C   0  0  0  0  0  3  0  0  0  0  0  0
  161.2600  204.7790  150.1370 C   0  0  0  0  0  0  0  0  0  0  0  0
  162.0570  205.8740  147.9480 C   0  0  0  0  0  2  0  0  0  0  0  0
  160.8790  206.1470  147.0260 C   0  0  0  0  0  2  0  0  0  0  0  0
  161.3440  206.2110  145.5830 C   0  0  0  0  0  2  0  0  0  0  0  0
  160.4470  205.3570  144.7010 C   0  0  0  0  0  2  0  0  0  0  0  0
  158.6440  203.2240  144.0970 O   0  0  0  0  0  0  0  0  0  0  0  0
  160.6950  203.9460  144.9560 N   0  0  0  0  0  2  0  0  0  0  0  0
  160.0810  201.5040  144.8860 C   0  0  0  0  0  1  0  0  0  0  0  0
  159.7520  202.9270  144.6180 C   0  0  0  0  0  0  0  0  0  0  0  0
  161.5370  210.9680  151.9900 N   0  0  0  0  0  2  0  0  0  0  0  0
  160.8110  211.1770  153.2340 C   0  0  0  0  0  2  0  0  0  0  0  0
  158.4320  211.3950  153.0530 O   0  0  0  0  0  1  0  0  0  0  0  0
  159.6330  212.1060  152.9960 C   0  0  2  0  0  3  0  0  0  0  0  0
  159.7640  212.8300  151.6590 C   0  0  0  0  0  2  0  0  0  0  0  0
  158.5910  213.7620  151.3960 C   0  0  0  0  0  2  0  0  0  0  0  0
  157.8730  213.9480  152.5760 O   0  0  0  0  0  1  0  0  0  0  0  0
  1  8  1  0  0  0  0
  3 18  2  0  0  0  0
  3 16  1  0  0  0  0
  6 11  2  0  0  0  0
  7 10  2  0  0  0  0
  7  1  1  0  0  0  0
  8  5  1  0  0  0  0
  8  4  2  0  0  0  0
  9 27  1  0  0  0  0
  9  5  2  0  0  0  0
 10  9  1  0  0  0  0
 11 16  1  0  0  0  0
 12  1  2  0  0  0  0
 12 18  1  0  0  0  0
 13  4  1  0  0  0  0
 13  2  2  0  0  0  0
 14 17  2  0  0  0  0
 14  6  1  0  0  0  0
 15  2  1  0  0  0  0
 16 15  2  0  0  0  0
 17  3  1  0  0  0  0
 18 13  1  0  0  0  0
 19 12  1  0  0  0  0
 20 19  1  0  0  0  0
 21 20  1  0  0  0  0
 22 24  1  0  0  0  0
 22 21  1  0  0  0  0
 23 26  2  0  0  0  0
 26 25  1  0  0  0  0
 26 24  1  0  0  0  0
 27 28  1  0  0  0  0
 30 29  1  6  0  0  0
 30 28  1  0  0  0  0
 31 30  1  0  0  0  0
 32 31  1  0  0  0  0
 32 33  1  0  0  0  0
M  END
>  <MODEL>
9

>  <REMARK>
 VINA RESULT:      -7.6      2.872      6.069
  Name = 
  10 active torsions:
  status: ('A' for Active; 'I' for Inactive)
    1  A    between atoms: C_1  and  C_19
    2  A    between atoms: C_1  and  C_26
    3  A    between atoms: C_2  and  C_12
    4  A    between atoms: C_5  and  N_24
    5  A    between atoms: C_5  and  C_30
    6  A    between atoms: N_6  and  C_25
    7  A    between atoms: C_12  and  C_30
    8  A    between atoms: C_14  and  C_19
    9  A    between atoms: C_14  and  C_25
   10  A    between atoms: C_18  and  N_24
                            x       y       z     vdW  Elec       q    Type
                         _______ _______ _______ _____ _____    ______ ____

>  <TORSDO>
F 10

$$$$
