=
 OpenBabel11042422233D

 58 69  0  0  1  0  0  0  0  0999 V2000
  159.9790  204.4270  152.1880 C   0  0  0  0  0  3  0  0  0  0  0  0
  160.3070  210.4590  149.3790 C   0  0  0  0  0  2  0  0  0  0  0  0
  161.1150  208.2280  149.2870 C   0  0  0  0  0  2  0  0  0  0  0  0
  162.0530  209.7860  151.5440 O   0  0  0  0  0  0  0  0  0  0  0  0
  161.6040  199.8520  147.8590 O   0  0  0  0  0  0  0  0  0  0  0  0
  160.9830  204.0490  150.0040 C   0  0  0  0  0  0  0  0  0  0  0  0
  160.8080  206.3040  150.8940 C   0  0  0  0  0  0  0  0  0  0  0  0
  162.0120  208.3810  151.6890 C   0  0  1  0  0  3  0  0  0  0  0  0
  161.8910  208.0780  153.1740 C   0  0  2  0  0  3  0  0  0  0  0  0
  162.5890  210.0630  150.2700 C   0  0  2  0  0  3  0  0  0  0  0  0
  161.2020  205.4230  149.8720 C   0  0  0  0  0  3  0  0  0  0  0  0
  160.6870  207.5220  155.2730 C   0  0  0  0  0  2  0  0  0  0  0  0
  160.8540  207.4430  153.7830 C   0  0  2  0  0  3  0  0  0  0  0  0
  162.2590  202.0640  147.0440 C   0  0  2  0  0  3  0  0  0  0  0  0
  160.4910  201.2790  150.2870 C   0  0  0  0  0  3  0  0  0  0  0  0
  160.2320  205.7990  152.0610 C   0  0  0  0  0  0  0  0  0  0  0  0
  162.5090  209.9710  154.6690 C   0  0  0  0  0  2  0  0  0  0  0  0
  161.6280  201.1030  148.0040 C   0  0  0  0  0  0  0  0  0  0  0  0
  162.4940  211.4880  149.8820 N   0  0  0  0  0  0  0  0  0  0  0  0
  160.4220  208.9550  155.7180 C   0  0  0  0  0  2  0  0  0  0  0  0
  161.1160  201.8020  149.1520 C   0  0  0  0  0  0  0  0  0  0  0  0
  161.7320  209.7020  155.9620 C   0  0  2  0  0  3  0  0  0  0  0  0
  162.0640  203.4420  147.7180 C   0  0  0  0  0  2  0  0  0  0  0  0
  161.6020  209.6640  149.2140 C   0  0  2  0  0  0  0  0  0  0  0  0
  161.3620  203.1440  149.0050 C   0  0  0  0  0  0  0  0  0  0  0  0
  159.9090  206.6490  153.1190 O   0  0  0  0  0  0  0  0  0  0  0  0
  160.1040  202.1680  151.3020 C   0  0  0  0  0  3  0  0  0  0  0  0
  160.3460  203.5470  151.1680 C   0  0  0  0  0  0  0  0  0  0  0  0
  161.5230  211.1320  148.8270 C   0  0  1  0  0  3  0  0  0  0  0  0
  162.9830  208.6810  154.0140 C   0  0  0  0  0  2  0  0  0  0  0  0
  160.9250  207.7910  150.7580 C   0  0  1  0  0  3  0  0  0  0  0  0
  161.4770  210.9960  156.7410 C   0  0  1  0  0  3  0  0  0  0  0  0
  162.5600  211.8680  156.6050 O   0  0  0  0  0  1  0  0  0  0  0  0
  156.1500  213.3000  155.7730 N   0  0  0  0  0  0  0  0  0  0  0  0
  156.7520  213.8960  154.6950 C   0  0  0  0  0  3  0  0  0  0  0  0
  160.0910  212.4940  155.2720 N   0  0  0  0  0  0  0  0  0  0  0  0
  158.8000  212.8490  155.3080 C   0  0  0  0  0  0  0  0  0  0  0  0
  158.1180  213.6810  154.4290 C   0  0  0  0  0  3  0  0  0  0  0  0
  158.1850  212.2670  156.3670 C   0  0  0  0  0  0  0  0  0  0  0  0
  156.8370  212.4820  156.6240 C   0  0  0  0  0  3  0  0  0  0  0  0
  159.0490  211.5120  157.0570 N   0  0  0  0  0  2  0  0  0  0  0  0
  160.2010  211.6820  156.3570 C   0  0  0  0  0  0  0  0  0  0  0  0
  161.8520  212.3300  150.8980 C   0  0  0  0  0  2  0  0  0  0  0  0
  159.4630  213.0680  150.9310 C   0  0  0  0  0  3  0  0  0  0  0  0
  159.8060  214.4530  148.5260 C   0  0  0  0  0  3  0  0  0  0  0  0
  158.3850  213.7490  150.3590 C   0  0  0  0  0  3  0  0  0  0  0  0
  160.7130  213.0760  150.3000 C   0  0  0  0  0  0  0  0  0  0  0  0
  160.8820  213.7690  149.0950 C   0  0  0  0  0  3  0  0  0  0  0  0
  158.5560  214.4420  149.1560 C   0  0  0  0  0  3  0  0  0  0  0  0
  161.5640  202.0330  145.6740 C   0  0  1  0  0  3  0  0  0  0  0  0
  160.1900  201.6990  145.7600 O   0  0  0  0  0  0  0  0  0  0  0  0
  159.9170  200.6410  144.8740 C   0  0  0  0  0  1  0  0  0  0  0  0
  161.7740  203.2810  144.9400 N   0  0  0  0  0  2  0  0  0  0  0  0
  160.6090  205.0940  144.1100 C   0  0  0  0  0  2  0  0  0  0  0  0
  160.6820  204.1200  145.2190 N   0  0  0  0  0  0  0  0  0  0  0  0
  160.2070  206.3530  146.2350 C   0  0  0  0  0  1  0  0  0  0  0  0
  162.6440  205.7790  145.4370 C   0  0  0  0  0  1  0  0  0  0  0  0
  161.1430  205.5160  145.3910 C   0  0  0  0  0  0  0  0  0  0  0  0
  5 18  2  0  0  0  0
  6 28  1  0  0  0  0
  7 16  2  0  0  0  0
  8  4  1  1  0  0  0
  8  9  1  0  0  0  0
  9 13  1  0  0  0  0
  9 30  1  1  0  0  0
 10  4  1  1  0  0  0
 11  6  2  0  0  0  0
 11  7  1  0  0  0  0
 12 20  1  0  0  0  0
 13 12  1  1  0  0  0
 14 50  1  6  0  0  0
 14 23  1  0  0  0  0
 14 18  1  0  0  0  0
 15 27  2  0  0  0  0
 16  1  1  0  0  0  0
 16 26  1  0  0  0  0
 17 22  1  0  0  0  0
 18 21  1  0  0  0  0
 19 10  1  0  0  0  0
 19 43  1  0  0  0  0
 20 22  1  0  0  0  0
 21 15  1  0  0  0  0
 22 32  1  6  0  0  0
 23 25  1  0  0  0  0
 24  3  1  6  0  0  0
 24  2  1  0  0  0  0
 24 10  1  0  0  0  0
 25 21  2  0  0  0  0
 25  6  1  0  0  0  0
 26 13  1  0  0  0  0
 28 27  1  0  0  0  0
 28  1  2  0  0  0  0
 29 24  1  0  0  0  0
 29  2  1  1  0  0  0
 29 19  1  0  0  0  0
 30 17  1  0  0  0  0
 31  3  1  6  0  0  0
 31  7  1  0  0  0  0
 31  8  1  0  0  0  0
 32 33  1  6  0  0  0
 34 40  1  0  0  0  0
 35 34  2  0  0  0  0
 36 37  1  0  0  0  0
 36 42  2  0  0  0  0
 37 39  1  0  0  0  0
 38 35  1  0  0  0  0
 38 37  2  0  0  0  0
 39 40  2  0  0  0  0
 39 41  1  0  0  0  0
 42 32  1  0  0  0  0
 42 41  1  0  0  0  0
 45 48  2  0  0  0  0
 45 49  1  0  0  0  0
 46 44  1  0  0  0  0
 47 43  1  0  0  0  0
 47 44  2  0  0  0  0
 48 47  1  0  0  0  0
 49 46  2  0  0  0  0
 50 53  1  1  0  0  0
 50 51  1  0  0  0  0
 52 51  1  0  0  0  0
 53 55  1  0  0  0  0
 54 55  1  0  0  0  0
 54 58  1  0  0  0  0
 55 58  1  0  0  0  0
 58 57  1  0  0  0  0
 58 56  1  0  0  0  0
M  END
>  <MODEL>
1

>  <REMARK>
 VINA RESULT:       2.1      0.000      0.000
  Name = 
  8 active torsions:
  status: ('A' for Active; 'I' for Inactive)
    1  A    between atoms: C_5  and  N_34
    2  A    between atoms: C_5  and  C_36
    3  A    between atoms: O_8  and  C_37
    4  A    between atoms: C_21  and  C_40
    5  A    between atoms: C_21  and  C_58
    6  A    between atoms: N_26  and  N_54
    7  A    between atoms: C_27  and  C_37
    8  A    between atoms: C_37  and  N_54
                            x       y       z     vdW  Elec       q    Type
                         _______ _______ _______ _____ _____    ______ ____

>  <TORSDO>
F 8

$$$$
