=
 OpenBabel11052410043D

 68 74  0  0  1  0  0  0  0  0999 V2000
  162.9840  208.5850  150.5200 C   0  0  0  0  0  2  0  0  0  0  0  0
  160.4140  206.1000  147.2190 C   0  0  0  0  0  3  0  0  0  0  0  0
  162.8220  207.2370  148.5210 C   0  0  0  0  0  0  0  0  0  0  0  0
  159.7840  206.5680  148.4860 C   0  0  0  0  0  3  0  0  0  0  0  0
  162.7940  207.0040  147.2520 C   0  0  0  0  0  3  0  0  0  0  0  0
  162.6340  207.3150  149.7970 C   0  0  0  0  0  0  0  0  0  0  0  0
  161.6440  206.2750  146.6880 C   0  0  0  0  0  3  0  0  0  0  0  0
  161.5990  206.3400  150.2870 C   0  0  2  0  0  3  0  0  0  0  0  0
  160.2380  206.6880  149.7450 C   0  0  0  0  0  3  0  0  0  0  0  0
  159.5220  207.5680  154.5350 N   0  0  0  0  0  2  0  0  0  0  0  0
  160.5540  206.8850  152.5370 N   0  0  0  0  0  2  0  0  0  0  0  0
  160.5680  207.0730  153.9560 C   0  0  0  0  0  0  0  0  0  0  0  0
  162.3230  205.3620  152.3690 O   0  0  0  0  0  0  0  0  0  0  0  0
  161.5510  206.1740  151.7880 C   0  0  0  0  0  0  0  0  0  0  0  0
  161.8140  206.8510  154.7610 C   0  0  0  0  0  2  0  0  0  0  0  0
  161.1430  208.0890  156.7400 C   0  0  0  0  0  0  0  0  0  0  0  0
  161.5380  206.9640  156.2240 C   0  0  0  0  0  3  0  0  0  0  0  0
  160.7340  209.2160  157.2540 C   0  0  0  0  0  3  0  0  0  0  0  0
  159.5670  209.9450  156.6750 C   0  0  0  0  0  2  0  0  0  0  0  0
  160.0290  211.1290  155.8110 C   0  0  1  0  0  3  0  0  0  0  0  0
  157.5550  211.2450  155.3240 C   0  0  0  0  0  2  0  0  0  0  0  0
  157.0430  214.0820  153.5500 C   0  0  0  0  0  2  0  0  0  0  0  0
  156.3690  211.8990  154.6020 C   0  0  0  0  0  2  0  0  0  0  0  0
  158.5740  214.0250  153.6680 C   0  0  0  0  0  2  0  0  0  0  0  0
  159.0620  213.3110  154.9390 C   0  0  2  0  0  3  0  0  0  0  0  0
  158.9460  211.7520  154.8920 C   0  0  1  0  0  0  0  0  0  0  0  0
  156.8430  213.9510  156.0740 C   0  0  0  0  0  2  0  0  0  0  0  0
  159.2210  211.2490  153.4720 C   0  0  0  0  0  1  0  0  0  0  0  0
  156.3170  213.4260  154.7250 C   0  0  1  0  0  3  0  0  0  0  0  0
  158.3810  213.9410  156.1710 C   0  0  0  0  0  2  0  0  0  0  0  0
  160.8180  212.0580  156.5230 O   0  0  0  0  0  0  0  0  0  0  0  0
  161.7600  211.3540  157.2040 N   0  0  0  0  0  2  0  0  0  0  0  0
  162.9560  212.1790  157.2570 C   0  0  0  0  0  2  0  0  0  0  0  0
  164.1910  211.2970  157.1990 C   0  0  0  0  0  1  0  0  0  0  0  0
  161.0790  212.0330  148.7650 C   0  0  0  0  0  0  0  0  0  0  0  0
  160.9650  211.7840  150.1430 C   0  0  0  0  0  3  0  0  0  0  0  0
  162.4540  210.0410  148.5540 C   0  0  0  0  0  3  0  0  0  0  0  0
  162.3110  209.7820  149.9210 C   0  0  0  0  0  0  0  0  0  0  0  0
  161.4300  210.4430  152.0870 O   0  0  0  0  0  1  0  0  0  0  0  0
  161.5670  210.6640  150.7200 C   0  0  0  0  0  0  0  0  0  0  0  0
  161.8580  211.1670  147.9830 C   0  0  0  0  0  3  0  0  0  0  0  0
  160.8690  213.5820  146.7870 N   0  0  0  0  0  0  0  0  0  0  0  0
  158.6070  214.1610  147.0980 O   0  0  0  0  0  0  0  0  0  0  0  0
  159.7790  214.4490  146.3630 C   0  0  0  0  0  2  0  0  0  0  0  0
  159.0120  213.4350  148.2310 C   0  0  1  0  0  3  0  0  0  0  0  0
  160.5130  213.3080  148.1720 C   0  0  1  0  0  3  0  0  0  0  0  0
  160.7560  212.4100  146.0150 N   0  0  0  0  0  2  0  0  0  0  0  0
  160.4370  212.8350  144.6610 C   0  0  0  0  0  2  0  0  0  0  0  0
  161.6230  212.5720  143.7450 C   0  0  2  0  0  3  0  0  0  0  0  0
  162.2620  213.7770  143.4550 O   0  0  0  0  0  1  0  0  0  0  0  0
  161.2080  211.8820  142.4440 C   0  0  1  0  0  3  0  0  0  0  0  0
  160.1170  212.8840  140.1040 C   0  0  2  0  0  3  0  0  0  0  0  0
  160.8150  211.6810  139.4530 C   0  0  2  0  0  3  0  0  0  0  0  0
  161.8970  211.0590  140.3460 C   0  0  0  0  0  2  0  0  0  0  0  0
  159.5950  212.5240  141.8300 S   0  0  0  0  0  0  0  0  0  0  0  0
  162.2690  211.9560  141.4370 N   0  0  0  0  0  2  0  0  0  0  0  0
  161.3850  212.0650  138.2350 O   0  0  0  0  0  1  0  0  0  0  0  0
  157.7890  213.8490  140.1280 C   0  0  0  0  0  2  0  0  0  0  0  0
  154.0010  213.4830  138.7300 O   0  0  0  0  0  0  0  0  0  0  0  0
  157.3280  212.8460  137.3940 C   0  0  0  0  0  2  0  0  0  0  0  0
  156.6420  214.3720  139.2690 C   0  0  0  0  0  2  0  0  0  0  0  0
  156.2890  213.3740  138.2670 N   0  0  0  0  0  0  0  0  0  0  0  0
  158.9490  213.3790  139.2430 C   0  0  0  0  0  3  0  0  0  0  0  0
  158.4830  212.3150  138.2390 C   0  0  0  0  0  2  0  0  0  0  0  0
  154.9280  213.0380  138.0040 C   0  0  0  0  0  3  0  0  0  0  0  0
  158.6040  214.1780  149.4990 C   0  0  0  0  0  2  0  0  0  0  0  0
  156.6910  212.7280  149.1200 N   0  0  0  0  0  1  0  0  0  0  0  0
  157.1490  213.9070  149.8320 C   0  0  0  0  0  2  0  0  0  0  0  0
  2  4  1  0  0  0  0
  3  6  2  0  0  0  0
  4  9  2  0  0  0  0
  5  3  2  0  0  0  0
  6  8  1  0  0  0  0
  6  1  1  0  0  0  0
  7  2  2  0  0  0  0
  7  5  1  0  0  0  0
  8 14  1  1  0  0  0
  9  8  1  0  0  0  0
 11 12  1  0  0  0  0
 12 10  2  0  0  0  0
 12 15  1  0  0  0  0
 14 13  2  0  0  0  0
 14 11  1  0  0  0  0
 15 17  1  0  0  0  0
 16 18  2  0  0  0  0
 17 16  2  0  0  0  0
 19 18  1  0  0  0  0
 20 31  1  0  0  0  0
 20 19  1  1  0  0  0
 22 24  1  0  0  0  0
 23 29  1  0  0  0  0
 23 21  1  0  0  0  0
 25 24  1  6  0  0  0
 25 30  1  0  0  0  0
 26 28  1  6  0  0  0
 26 25  1  0  0  0  0
 26 21  1  0  0  0  0
 26 20  1  0  0  0  0
 27 30  1  0  0  0  0
 29 22  1  6  0  0  0
 29 27  1  0  0  0  0
 31 32  1  0  0  0  0
 32 33  1  0  0  0  0
 34 33  1  0  0  0  0
 35 36  1  0  0  0  0
 36 40  2  0  0  0  0
 37 38  2  0  0  0  0
 38  1  1  0  0  0  0
 38 40  1  0  0  0  0
 40 39  1  0  0  0  0
 41 37  1  0  0  0  0
 41 35  2  0  0  0  0
 42 46  1  0  0  0  0
 43 45  1  0  0  0  0
 44 42  1  0  0  0  0
 44 43  1  0  0  0  0
 45 66  1  1  0  0  0
 46 45  1  0  0  0  0
 46 35  1  6  0  0  0
 47 42  1  0  0  0  0
 48 47  1  0  0  0  0
 49 50  1  6  0  0  0
 49 48  1  0  0  0  0
 51 49  1  1  0  0  0
 52 63  1  6  0  0  0
 52 55  1  0  0  0  0
 53 57  1  6  0  0  0
 53 52  1  0  0  0  0
 53 54  1  0  0  0  0
 54 56  1  0  0  0  0
 55 51  1  0  0  0  0
 56 51  1  0  0  0  0
 60 64  1  0  0  0  0
 60 62  1  0  0  0  0
 61 58  1  0  0  0  0
 62 61  1  0  0  0  0
 63 58  1  0  0  0  0
 64 63  1  0  0  0  0
 65 62  1  0  0  0  0
 65 59  2  0  0  0  0
 66 68  1  0  0  0  0
 67 68  1  0  0  0  0
M  END
>  <MODEL>
1

>  <REMARK>
 VINA RESULT:      -2.8      0.000      0.000
  Name = 
  19 active torsions:
  status: ('A' for Active; 'I' for Inactive)
    1  A    between atoms: C_1  and  C_26
    2  A    between atoms: C_1  and  C_61
    3  A    between atoms: N_2  and  N_19
    4  A    between atoms: C_7  and  C_45
    5  A    between atoms: C_11  and  C_52
    6  A    between atoms: N_12  and  C_32
    7  A    between atoms: N_12  and  O_59
    8  A    between atoms: C_13  and  C_41
    9  A    between atoms: C_13  and  C_62
   10  A    between atoms: C_17  and  C_53
   11  A    between atoms: N_19  and  C_38
   12  A    between atoms: C_20  and  C_26
   13  A    between atoms: C_22  and  C_30
   14  A    between atoms: C_22  and  C_56
   15  A    between atoms: C_24  and  C_44
   16  A    between atoms: C_24  and  C_49
   17  A    between atoms: C_26  and  O_59
   18  A    between atoms: C_38  and  C_45
   19  A    between atoms: C_63  and  C_64
                            x       y       z     vdW  Elec       q    Type
                         _______ _______ _______ _____ _____    ______ ____

>  <TORSDO>
F 19

$$$$
=
 OpenBabel11052410043D

 68 74  0  0  1  0  0  0  0  0999 V2000
  162.2920  205.6060  148.9520 C   0  0  0  0  0  2  0  0  0  0  0  0
  160.3300  201.3640  150.3080 C   0  0  0  0  0  3  0  0  0  0  0  0
  160.6370  204.3080  150.1410 C   0  0  0  0  0  0  0  0  0  0  0  0
  161.3660  201.4210  149.2370 C   0  0  0  0  0  3  0  0  0  0  0  0
  160.0860  203.7480  151.1660 C   0  0  0  0  0  3  0  0  0  0  0  0
  161.1500  204.6300  149.0000 C   0  0  0  0  0  0  0  0  0  0  0  0
  159.7980  202.3040  151.1180 C   0  0  0  0  0  3  0  0  0  0  0  0
  160.9040  203.5900  147.9430 C   0  0  2  0  0  3  0  0  0  0  0  0
  161.6330  202.3140  148.2680 C   0  0  0  0  0  3  0  0  0  0  0  0
  163.4740  206.5050  144.9850 N   0  0  0  0  0  2  0  0  0  0  0  0
  162.2230  205.0340  146.3250 N   0  0  0  0  0  2  0  0  0  0  0  0
  162.4160  205.7730  145.1130 C   0  0  0  0  0  0  0  0  0  0  0  0
  160.6460  203.4910  145.5470 O   0  0  0  0  0  0  0  0  0  0  0  0
  161.2120  204.0380  146.5340 C   0  0  0  0  0  0  0  0  0  0  0  0
  161.3510  205.8320  144.0570 C   0  0  0  0  0  2  0  0  0  0  0  0
  161.7740  206.1720  141.6900 C   0  0  0  0  0  0  0  0  0  0  0  0
  161.8830  205.4020  142.7310 C   0  0  0  0  0  3  0  0  0  0  0  0
  161.6750  206.9520  140.6490 C   0  0  0  0  0  3  0  0  0  0  0  0
  162.1350  208.3710  140.7070 C   0  0  0  0  0  2  0  0  0  0  0  0
  161.6660  209.1540  139.4710 C   0  0  1  0  0  3  0  0  0  0  0  0
  162.2320  211.1290  140.9390 C   0  0  0  0  0  2  0  0  0  0  0  0
  161.7140  213.9070  139.0770 C   0  0  0  0  0  2  0  0  0  0  0  0
  162.2530  212.6430  141.1840 C   0  0  0  0  0  2  0  0  0  0  0  0
  161.2080  212.7840  138.1600 C   0  0  0  0  0  2  0  0  0  0  0  0
  161.9200  211.4400  138.3900 C   0  0  2  0  0  3  0  0  0  0  0  0
  161.4650  210.6780  139.6790 C   0  0  1  0  0  0  0  0  0  0  0  0
  163.9590  212.7430  139.2660 C   0  0  0  0  0  2  0  0  0  0  0  0
  159.9700  210.9040  139.9200 C   0  0  0  0  0  1  0  0  0  0  0  0
  162.8290  213.4640  140.0240 C   0  0  1  0  0  3  0  0  0  0  0  0
  163.4450  211.6510  138.3070 C   0  0  0  0  0  2  0  0  0  0  0  0
  162.3560  208.7960  138.2940 O   0  0  0  0  0  0  0  0  0  0  0  0
  161.5850  207.8950  137.6290 N   0  0  0  0  0  2  0  0  0  0  0  0
  162.4840  206.9180  137.0360 C   0  0  0  0  0  2  0  0  0  0  0  0
  162.3770  205.6010  137.7850 C   0  0  0  0  0  1  0  0  0  0  0  0
  161.9450  208.6140  152.0240 C   0  0  0  0  0  0  0  0  0  0  0  0
  161.8820  208.9750  150.6670 C   0  0  0  0  0  3  0  0  0  0  0  0
  162.2120  206.2920  151.3590 C   0  0  0  0  0  3  0  0  0  0  0  0
  162.1790  206.6610  150.0100 C   0  0  0  0  0  0  0  0  0  0  0  0
  161.9450  208.4010  148.3310 O   0  0  0  0  0  1  0  0  0  0  0  0
  162.0060  208.0110  149.6650 C   0  0  0  0  0  0  0  0  0  0  0  0
  162.0780  207.2570  152.3580 C   0  0  0  0  0  3  0  0  0  0  0  0
  161.5370  211.0240  152.6410 N   0  0  0  0  0  0  0  0  0  0  0  0
  159.9860  210.6310  154.3700 O   0  0  0  0  0  0  0  0  0  0  0  0
  160.7720  211.6150  153.7310 C   0  0  0  0  0  2  0  0  0  0  0  0
  160.5180  209.3850  153.9960 C   0  0  1  0  0  3  0  0  0  0  0  0
  161.7010  209.6530  153.1010 C   0  0  1  0  0  3  0  0  0  0  0  0
  160.6950  211.0610  151.5130 N   0  0  0  0  0  2  0  0  0  0  0  0
  159.7470  212.1400  151.7390 C   0  0  0  0  0  2  0  0  0  0  0  0
  160.0500  213.2990  150.8020 C   0  0  2  0  0  3  0  0  0  0  0  0
  158.8760  214.0050  150.5410 O   0  0  0  0  0  1  0  0  0  0  0  0
  160.6760  212.8330  149.4860 C   0  0  1  0  0  3  0  0  0  0  0  0
  160.0390  213.3990  146.8510 C   0  0  2  0  0  3  0  0  0  0  0  0
  161.5300  213.1300  146.6010 C   0  0  2  0  0  3  0  0  0  0  0  0
  162.3710  213.1710  147.8840 C   0  0  0  0  0  2  0  0  0  0  0  0
  159.3840  212.3980  148.2470 S   0  0  0  0  0  0  0  0  0  0  0  0
  161.6440  213.8080  148.9780 N   0  0  0  0  0  2  0  0  0  0  0  0
  162.0330  214.0610  145.6870 O   0  0  0  0  0  1  0  0  0  0  0  0
  160.1410  212.9560  144.3720 C   0  0  0  0  0  2  0  0  0  0  0  0
  158.9370  214.1860  140.7010 O   0  0  0  0  0  0  0  0  0  0  0  0
  157.4670  214.1500  144.0330 C   0  0  0  0  0  2  0  0  0  0  0  0
  159.3200  212.7280  143.1070 C   0  0  0  0  0  2  0  0  0  0  0  0
  158.3700  213.8210  142.9390 N   0  0  0  0  0  0  0  0  0  0  0  0
  159.2180  213.2040  145.5710 C   0  0  0  0  0  3  0  0  0  0  0  0
  158.2730  214.3850  145.3070 C   0  0  0  0  0  2  0  0  0  0  0  0
  158.1830  214.4520  141.6730 C   0  0  0  0  0  3  0  0  0  0  0  0
  160.9670  208.6160  155.2340 C   0  0  0  0  0  2  0  0  0  0  0  0
  159.4390  206.9840  156.1860 N   0  0  0  0  0  1  0  0  0  0  0  0
  159.7980  208.3900  156.1750 C   0  0  0  0  0  2  0  0  0  0  0  0
  1  6  1  0  0  0  0
  1 38  1  0  0  0  0
  2  7  2  0  0  0  0
  3  5  2  0  0  0  0
  4  2  1  0  0  0  0
  6  3  2  0  0  0  0
  7  5  1  0  0  0  0
  8 14  1  6  0  0  0
  8  9  1  0  0  0  0
  8  6  1  0  0  0  0
  9  4  2  0  0  0  0
 10 12  2  0  0  0  0
 11 14  1  0  0  0  0
 12 11  1  0  0  0  0
 13 14  2  0  0  0  0
 15 12  1  0  0  0  0
 16 17  2  0  0  0  0
 17 15  1  0  0  0  0
 18 19  1  0  0  0  0
 18 16  2  0  0  0  0
 20 26  1  0  0  0  0
 20 19  1  1  0  0  0
 21 23  1  0  0  0  0
 24 22  1  0  0  0  0
 25 24  1  1  0  0  0
 25 26  1  0  0  0  0
 26 28  1  1  0  0  0
 26 21  1  0  0  0  0
 27 29  1  0  0  0  0
 29 22  1  6  0  0  0
 29 23  1  0  0  0  0
 30 25  1  0  0  0  0
 30 27  1  0  0  0  0
 31 20  1  0  0  0  0
 32 31  1  0  0  0  0
 33 32  1  0  0  0  0
 33 34  1  0  0  0  0
 35 41  1  0  0  0  0
 36 35  2  0  0  0  0
 37 41  2  0  0  0  0
 38 37  1  0  0  0  0
 39 40  1  0  0  0  0
 40 38  2  0  0  0  0
 40 36  1  0  0  0  0
 42 46  1  0  0  0  0
 42 44  1  0  0  0  0
 44 43  1  0  0  0  0
 45 43  1  0  0  0  0
 45 66  1  1  0  0  0
 46 35  1  6  0  0  0
 46 45  1  0  0  0  0
 47 48  1  0  0  0  0
 47 42  1  0  0  0  0
 49 50  1  6  0  0  0
 49 48  1  0  0  0  0
 51 49  1  1  0  0  0
 52 63  1  6  0  0  0
 52 55  1  0  0  0  0
 53 57  1  6  0  0  0
 53 52  1  0  0  0  0
 53 54  1  0  0  0  0
 54 56  1  0  0  0  0
 55 51  1  0  0  0  0
 56 51  1  0  0  0  0
 58 63  1  0  0  0  0
 59 65  2  0  0  0  0
 60 64  1  0  0  0  0
 61 58  1  0  0  0  0
 62 61  1  0  0  0  0
 62 60  1  0  0  0  0
 64 63  1  0  0  0  0
 65 62  1  0  0  0  0
 66 68  1  0  0  0  0
 68 67  1  0  0  0  0
M  END
>  <MODEL>
2

>  <REMARK>
 VINA RESULT:      -2.7      3.255     10.511
  Name = 
  19 active torsions:
  status: ('A' for Active; 'I' for Inactive)
    1  A    between atoms: C_1  and  C_26
    2  A    between atoms: C_1  and  C_61
    3  A    between atoms: N_2  and  N_19
    4  A    between atoms: C_7  and  C_45
    5  A    between atoms: C_11  and  C_52
    6  A    between atoms: N_12  and  C_32
    7  A    between atoms: N_12  and  O_59
    8  A    between atoms: C_13  and  C_41
    9  A    between atoms: C_13  and  C_62
   10  A    between atoms: C_17  and  C_53
   11  A    between atoms: N_19  and  C_38
   12  A    between atoms: C_20  and  C_26
   13  A    between atoms: C_22  and  C_30
   14  A    between atoms: C_22  and  C_56
   15  A    between atoms: C_24  and  C_44
   16  A    between atoms: C_24  and  C_49
   17  A    between atoms: C_26  and  O_59
   18  A    between atoms: C_38  and  C_45
   19  A    between atoms: C_63  and  C_64
                            x       y       z     vdW  Elec       q    Type
                         _______ _______ _______ _____ _____    ______ ____

>  <TORSDO>
F 19

$$$$
=
 OpenBabel11052410043D

 68 74  0  0  1  0  0  0  0  0999 V2000
  162.3760  212.3370  141.3620 C   0  0  0  0  0  2  0  0  0  0  0  0
  158.9190  212.7650  137.9640 C   0  0  0  0  0  3  0  0  0  0  0  0
  161.4240  213.4050  139.4140 C   0  0  0  0  0  0  0  0  0  0  0  0
  158.9730  211.5710  138.8550 C   0  0  0  0  0  3  0  0  0  0  0  0
  160.7780  214.3110  138.7610 C   0  0  0  0  0  3  0  0  0  0  0  0
  161.9170  212.3280  139.9310 C   0  0  0  0  0  0  0  0  0  0  0  0
  159.6430  213.9040  137.9140 C   0  0  0  0  0  3  0  0  0  0  0  0
  161.4690  211.0860  139.2110 C   0  0  2  0  0  3  0  0  0  0  0  0
  159.9890  210.8710  139.3880 C   0  0  0  0  0  3  0  0  0  0  0  0
  162.3500  206.3600  138.3460 N   0  0  0  0  0  2  0  0  0  0  0  0
  162.0240  208.6410  138.8080 N   0  0  0  0  0  2  0  0  0  0  0  0
  162.4320  207.3270  139.2020 C   0  0  0  0  0  0  0  0  0  0  0  0
  163.1140  209.8620  140.4810 O   0  0  0  0  0  0  0  0  0  0  0  0
  162.2380  209.8370  139.5720 C   0  0  0  0  0  0  0  0  0  0  0  0
  162.8080  207.0190  140.6210 C   0  0  0  0  0  2  0  0  0  0  0  0
  161.4640  206.1920  142.4670 C   0  0  0  0  0  0  0  0  0  0  0  0
  161.6150  207.0640  141.5170 C   0  0  0  0  0  3  0  0  0  0  0  0
  161.3220  205.3220  143.4300 C   0  0  0  0  0  3  0  0  0  0  0  0
  162.4190  205.0770  144.4120 C   0  0  0  0  0  2  0  0  0  0  0  0
  161.9430  204.1700  145.5570 C   0  0  1  0  0  3  0  0  0  0  0  0
  163.1310  205.8380  147.0330 C   0  0  0  0  0  2  0  0  0  0  0  0
  161.0190  206.5690  149.5750 C   0  0  0  0  0  2  0  0  0  0  0  0
  163.2040  206.6540  148.3310 C   0  0  0  0  0  2  0  0  0  0  0  0
  160.2760  205.4530  148.8250 C   0  0  0  0  0  2  0  0  0  0  0  0
  160.5970  205.4090  147.3220 C   0  0  2  0  0  3  0  0  0  0  0  0
  161.9950  204.7970  146.9750 C   0  0  1  0  0  0  0  0  0  0  0  0
  161.1560  207.9180  147.4320 C   0  0  0  0  0  2  0  0  0  0  0  0
  162.3290  203.6670  147.9520 C   0  0  0  0  0  1  0  0  0  0  0  0
  161.9180  207.4150  148.6720 C   0  0  1  0  0  3  0  0  0  0  0  0
  160.3690  206.8060  146.7110 C   0  0  0  0  0  2  0  0  0  0  0  0
  160.7540  203.4740  145.2530 O   0  0  0  0  0  0  0  0  0  0  0  0
  161.0020  202.1490  145.4310 N   0  0  0  0  0  2  0  0  0  0  0  0
  159.7620  201.4410  145.1550 C   0  0  0  0  0  2  0  0  0  0  0  0
  160.0700  200.0160  144.7260 C   0  0  0  0  0  1  0  0  0  0  0  0
  159.1090  212.7740  144.1440 C   0  0  0  0  0  0  0  0  0  0  0  0
  159.4280  211.5120  143.6170 C   0  0  0  0  0  3  0  0  0  0  0  0
  160.9410  213.7320  142.8660 C   0  0  0  0  0  3  0  0  0  0  0  0
  161.2330  212.4780  142.3210 C   0  0  0  0  0  0  0  0  0  0  0  0
  160.7620  210.0970  142.1980 O   0  0  0  0  0  1  0  0  0  0  0  0
  160.4750  211.3610  142.7060 C   0  0  0  0  0  0  0  0  0  0  0  0
  159.8990  213.8770  143.7830 C   0  0  0  0  0  3  0  0  0  0  0  0
  158.4300  212.5060  146.5570 N   0  0  0  0  0  0  0  0  0  0  0  0
  157.1140  214.4530  146.7160 O   0  0  0  0  0  0  0  0  0  0  0  0
  157.4960  213.2640  147.3770 C   0  0  0  0  0  2  0  0  0  0  0  0
  157.4490  214.2850  145.3610 C   0  0  1  0  0  3  0  0  0  0  0  0
  158.0420  212.9070  145.2130 C   0  0  1  0  0  3  0  0  0  0  0  0
  159.7100  213.0060  146.8630 N   0  0  0  0  0  2  0  0  0  0  0  0
  159.8760  212.8650  148.3010 C   0  0  0  0  0  2  0  0  0  0  0  0
  161.3520  212.9460  148.6610 C   0  0  2  0  0  3  0  0  0  0  0  0
  162.1150  212.4380  147.6090 O   0  0  0  0  0  1  0  0  0  0  0  0
  161.6770  212.1870  149.9490 C   0  0  1  0  0  3  0  0  0  0  0  0
  160.0520  211.2450  151.9830 C   0  0  2  0  0  3  0  0  0  0  0  0
  161.1570  210.1940  152.1610 C   0  0  2  0  0  3  0  0  0  0  0  0
  162.0920  210.0940  150.9480 C   0  0  0  0  0  2  0  0  0  0  0  0
  160.7190  212.8470  151.3770 S   0  0  0  0  0  0  0  0  0  0  0  0
  161.5140  210.7420  149.7740 N   0  0  0  0  0  2  0  0  0  0  0  0
  160.5860  208.9420  152.4090 O   0  0  0  0  0  1  0  0  0  0  0  0
  157.7390  211.5020  152.9510 C   0  0  0  0  0  2  0  0  0  0  0  0
  155.3570  213.7040  155.3820 O   0  0  0  0  0  0  0  0  0  0  0  0
  158.8730  212.7580  155.3660 C   0  0  0  0  0  2  0  0  0  0  0  0
  156.9290  211.6370  154.2360 C   0  0  0  0  0  2  0  0  0  0  0  0
  157.4560  212.7380  155.0320 N   0  0  0  0  0  0  0  0  0  0  0  0
  159.2370  211.4140  153.2700 C   0  0  0  0  0  3  0  0  0  0  0  0
  159.7000  212.6270  154.0900 C   0  0  0  0  0  2  0  0  0  0  0  0
  156.5890  213.6950  155.6390 C   0  0  0  0  0  3  0  0  0  0  0  0
  156.1990  214.4080  144.4960 C   0  0  0  0  0  2  0  0  0  0  0  0
  153.8210  213.9240  144.6230 N   0  0  0  0  0  1  0  0  0  0  0  0
  154.9530  214.4530  145.3610 C   0  0  0  0  0  2  0  0  0  0  0  0
  1 38  1  0  0  0  0
  2  4  1  0  0  0  0
  3  6  2  0  0  0  0
  4  9  2  0  0  0  0
  5  3  2  0  0  0  0
  6  1  1  0  0  0  0
  7  2  2  0  0  0  0
  7  5  1  0  0  0  0
  8  9  1  0  0  0  0
  8 14  1  1  0  0  0
  8  6  1  0  0  0  0
 10 12  2  0  0  0  0
 11 12  1  0  0  0  0
 11 14  1  0  0  0  0
 12 15  1  0  0  0  0
 14 13  2  0  0  0  0
 15 17  1  0  0  0  0
 16 18  2  0  0  0  0
 17 16  2  0  0  0  0
 18 19  1  0  0  0  0
 20 19  1  6  0  0  0
 20 26  1  0  0  0  0
 21 23  1  0  0  0  0
 23 29  1  0  0  0  0
 24 22  1  0  0  0  0
 25 30  1  1  0  0  0
 25 24  1  0  0  0  0
 26 21  1  0  0  0  0
 26 25  1  0  0  0  0
 26 28  1  1  0  0  0
 29 27  1  6  0  0  0
 29 22  1  0  0  0  0
 30 27  1  0  0  0  0
 31 32  1  0  0  0  0
 31 20  1  0  0  0  0
 33 32  1  0  0  0  0
 34 33  1  0  0  0  0
 36 35  2  0  0  0  0
 37 41  2  0  0  0  0
 38 40  2  0  0  0  0
 38 37  1  0  0  0  0
 39 40  1  0  0  0  0
 40 36  1  0  0  0  0
 41 35  1  0  0  0  0
 42 47  1  0  0  0  0
 42 44  1  0  0  0  0
 43 44  1  0  0  0  0
 45 66  1  6  0  0  0
 45 43  1  0  0  0  0
 46 35  1  6  0  0  0
 46 45  1  0  0  0  0
 46 42  1  0  0  0  0
 47 48  1  0  0  0  0
 48 49  1  0  0  0  0
 49 50  1  6  0  0  0
 51 49  1  6  0  0  0
 51 55  1  0  0  0  0
 52 53  1  0  0  0  0
 52 63  1  1  0  0  0
 53 57  1  6  0  0  0
 54 53  1  0  0  0  0
 55 52  1  0  0  0  0
 56 51  1  0  0  0  0
 56 54  1  0  0  0  0
 58 63  1  0  0  0  0
 58 61  1  0  0  0  0
 59 65  2  0  0  0  0
 61 62  1  0  0  0  0
 62 60  1  0  0  0  0
 62 65  1  0  0  0  0
 63 64  1  0  0  0  0
 64 60  1  0  0  0  0
 66 68  1  0  0  0  0
 67 68  1  0  0  0  0
M  END
>  <MODEL>
3

>  <REMARK>
 VINA RESULT:      -2.7      3.280     11.465
  Name = 
  19 active torsions:
  status: ('A' for Active; 'I' for Inactive)
    1  A    between atoms: C_1  and  C_26
    2  A    between atoms: C_1  and  C_61
    3  A    between atoms: N_2  and  N_19
    4  A    between atoms: C_7  and  C_45
    5  A    between atoms: C_11  and  C_52
    6  A    between atoms: N_12  and  C_32
    7  A    between atoms: N_12  and  O_59
    8  A    between atoms: C_13  and  C_41
    9  A    between atoms: C_13  and  C_62
   10  A    between atoms: C_17  and  C_53
   11  A    between atoms: N_19  and  C_38
   12  A    between atoms: C_20  and  C_26
   13  A    between atoms: C_22  and  C_30
   14  A    between atoms: C_22  and  C_56
   15  A    between atoms: C_24  and  C_44
   16  A    between atoms: C_24  and  C_49
   17  A    between atoms: C_26  and  O_59
   18  A    between atoms: C_38  and  C_45
   19  A    between atoms: C_63  and  C_64
                            x       y       z     vdW  Elec       q    Type
                         _______ _______ _______ _____ _____    ______ ____

>  <TORSDO>
F 19

$$$$
=
 OpenBabel11052410043D

 68 74  0  0  1  0  0  0  0  0999 V2000
  161.8330  209.6240  151.2150 C   0  0  0  0  0  2  0  0  0  0  0  0
  160.9100  210.7610  155.8560 C   0  0  0  0  0  3  0  0  0  0  0  0
  160.5700  210.7940  152.9110 C   0  0  0  0  0  0  0  0  0  0  0  0
  161.8400  209.6490  155.5110 C   0  0  0  0  0  3  0  0  0  0  0  0
  160.2170  211.8000  153.6370 C   0  0  0  0  0  3  0  0  0  0  0  0
  160.9310  209.6560  152.4170 C   0  0  0  0  0  0  0  0  0  0  0  0
  160.2410  211.6620  155.1040 C   0  0  0  0  0  3  0  0  0  0  0  0
  160.8460  208.5390  153.4200 C   0  0  2  0  0  3  0  0  0  0  0  0
  161.8500  208.7360  154.5240 C   0  0  0  0  0  3  0  0  0  0  0  0
  163.7010  204.7480  152.2630 N   0  0  0  0  0  2  0  0  0  0  0  0
  162.2430  206.5050  152.8220 N   0  0  0  0  0  2  0  0  0  0  0  0
  162.5770  205.3500  152.0450 C   0  0  0  0  0  0  0  0  0  0  0  0
  159.9370  206.5400  152.4240 O   0  0  0  0  0  0  0  0  0  0  0  0
  160.9630  207.1530  152.8310 C   0  0  0  0  0  0  0  0  0  0  0  0
  161.7250  204.9140  150.8890 C   0  0  0  0  0  2  0  0  0  0  0  0
  160.6990  202.8350  150.1650 C   0  0  0  0  0  0  0  0  0  0  0  0
  161.1070  203.5800  151.1470 C   0  0  0  0  0  3  0  0  0  0  0  0
  160.3020  202.0830  149.1750 C   0  0  0  0  0  3  0  0  0  0  0  0
  161.2130  201.7700  148.0350 C   0  0  0  0  0  2  0  0  0  0  0  0
  160.6150  202.2500  146.7040 C   0  0  1  0  0  3  0  0  0  0  0  0
  160.2500  204.2840  145.2540 C   0  0  0  0  0  2  0  0  0  0  0  0
  162.7730  206.4340  145.9380 C   0  0  0  0  0  2  0  0  0  0  0  0
  160.7400  205.6280  144.6970 C   0  0  0  0  0  2  0  0  0  0  0  0
  163.1600  205.1870  146.7470 C   0  0  0  0  0  2  0  0  0  0  0  0
  161.9500  204.3550  147.2020 C   0  0  2  0  0  3  0  0  0  0  0  0
  161.2920  203.4950  146.0730 C   0  0  1  0  0  0  0  0  0  0  0  0
  160.5240  206.4940  147.1060 C   0  0  0  0  0  2  0  0  0  0  0  0
  162.3680  202.9810  145.1120 C   0  0  0  0  0  1  0  0  0  0  0  0
  161.2640  206.6000  145.7600 C   0  0  1  0  0  3  0  0  0  0  0  0
  160.9510  205.2700  147.9390 C   0  0  0  0  0  2  0  0  0  0  0  0
  160.3460  201.1950  145.8060 O   0  0  0  0  0  0  0  0  0  0  0  0
  159.7110  201.7290  144.7290 N   0  0  0  0  0  2  0  0  0  0  0  0
  158.5250  202.4090  145.2260 C   0  0  0  0  0  2  0  0  0  0  0  0
  157.9170  203.2540  144.1200 C   0  0  0  0  0  1  0  0  0  0  0  0
  160.7460  212.6420  148.3330 C   0  0  0  0  0  0  0  0  0  0  0  0
  160.9970  211.3240  147.9180 C   0  0  0  0  0  3  0  0  0  0  0  0
  161.1850  211.9690  150.6260 C   0  0  0  0  0  3  0  0  0  0  0  0
  161.4650  210.6660  150.2030 C   0  0  0  0  0  0  0  0  0  0  0  0
  161.6110  209.0460  148.3980 O   0  0  0  0  0  1  0  0  0  0  0  0
  161.3630  210.3420  148.8410 C   0  0  0  0  0  0  0  0  0  0  0  0
  160.8110  212.9460  149.7020 C   0  0  0  0  0  3  0  0  0  0  0  0
  161.1210  213.9490  146.2100 N   0  0  0  0  0  0  0  0  0  0  0  0
  158.9000  213.8950  145.4280 O   0  0  0  0  0  0  0  0  0  0  0  0
  160.1810  214.4520  145.2180 C   0  0  0  0  0  2  0  0  0  0  0  0
  158.8950  213.3800  146.7350 C   0  0  1  0  0  3  0  0  0  0  0  0
  160.2450  213.6720  147.3390 C   0  0  1  0  0  3  0  0  0  0  0  0
  161.6330  212.7480  145.6850 N   0  0  0  0  0  2  0  0  0  0  0  0
  161.3640  212.7710  144.2560 C   0  0  0  0  0  2  0  0  0  0  0  0
  162.6120  212.3660  143.4880 C   0  0  2  0  0  3  0  0  0  0  0  0
  163.7200  213.0240  144.0210 O   0  0  0  0  0  1  0  0  0  0  0  0
  162.4990  212.6730  141.9930 C   0  0  1  0  0  3  0  0  0  0  0  0
  160.3910  212.3960  140.2180 C   0  0  2  0  0  3  0  0  0  0  0  0
  161.0740  213.5550  139.4770 C   0  0  2  0  0  3  0  0  0  0  0  0
  162.0910  214.3070  140.3460 C   0  0  0  0  0  2  0  0  0  0  0  0
  161.6060  211.3330  141.0990 S   0  0  0  0  0  0  0  0  0  0  0  0
  161.9160  213.9970  141.7620 N   0  0  0  0  0  2  0  0  0  0  0  0
  160.1090  214.4530  139.0100 O   0  0  0  0  0  1  0  0  0  0  0  0
  158.0320  212.0090  139.4200 C   0  0  0  0  0  2  0  0  0  0  0  0
  155.1310  209.2530  138.7700 O   0  0  0  0  0  0  0  0  0  0  0  0
  158.7640  209.2970  138.5250 C   0  0  0  0  0  2  0  0  0  0  0  0
  157.1510  211.2220  138.4560 C   0  0  0  0  0  2  0  0  0  0  0  0
  157.3990  209.7960  138.6210 N   0  0  0  0  0  0  0  0  0  0  0  0
  159.4980  211.5840  139.2740 C   0  0  0  0  0  3  0  0  0  0  0  0
  159.6600  210.0720  139.4870 C   0  0  0  0  0  2  0  0  0  0  0  0
  156.3250  208.8610  138.6950 C   0  0  0  0  0  3  0  0  0  0  0  0
  157.8030  214.0560  147.5570 C   0  0  0  0  0  2  0  0  0  0  0  0
  156.2270  213.7220  149.3770 N   0  0  0  0  0  1  0  0  0  0  0  0
  157.4320  213.2030  148.7570 C   0  0  0  0  0  2  0  0  0  0  0  0
  1  6  1  0  0  0  0
  3  5  2  0  0  0  0
  4  2  1  0  0  0  0
  5  7  1  0  0  0  0
  6  3  2  0  0  0  0
  6  8  1  0  0  0  0
  7  2  2  0  0  0  0
  8 14  1  6  0  0  0
  8  9  1  0  0  0  0
  9  4  2  0  0  0  0
 11 14  1  0  0  0  0
 12 10  2  0  0  0  0
 12 11  1  0  0  0  0
 13 14  2  0  0  0  0
 15 17  1  0  0  0  0
 15 12  1  0  0  0  0
 16 17  2  0  0  0  0
 18 16  2  0  0  0  0
 19 18  1  0  0  0  0
 20 19  1  1  0  0  0
 21 26  1  0  0  0  0
 22 24  1  0  0  0  0
 23 21  1  0  0  0  0
 25 24  1  6  0  0  0
 25 30  1  0  0  0  0
 26 28  1  6  0  0  0
 26 20  1  0  0  0  0
 26 25  1  0  0  0  0
 27 30  1  0  0  0  0
 29 23  1  6  0  0  0
 29 22  1  0  0  0  0
 29 27  1  0  0  0  0
 31 20  1  0  0  0  0
 32 33  1  0  0  0  0
 32 31  1  0  0  0  0
 34 33  1  0  0  0  0
 35 41  1  0  0  0  0
 36 35  2  0  0  0  0
 36 40  1  0  0  0  0
 38 37  1  0  0  0  0
 38  1  1  0  0  0  0
 39 40  1  0  0  0  0
 40 38  2  0  0  0  0
 41 37  2  0  0  0  0
 42 46  1  0  0  0  0
 43 45  1  0  0  0  0
 44 43  1  0  0  0  0
 44 42  1  0  0  0  0
 45 46  1  0  0  0  0
 45 66  1  1  0  0  0
 46 35  1  6  0  0  0
 47 42  1  0  0  0  0
 48 47  1  0  0  0  0
 49 50  1  1  0  0  0
 49 48  1  0  0  0  0
 51 49  1  1  0  0  0
 52 63  1  6  0  0  0
 52 55  1  0  0  0  0
 53 57  1  1  0  0  0
 53 52  1  0  0  0  0
 53 54  1  0  0  0  0
 54 56  1  0  0  0  0
 55 51  1  0  0  0  0
 56 51  1  0  0  0  0
 60 62  1  0  0  0  0
 60 64  1  0  0  0  0
 61 62  1  0  0  0  0
 61 58  1  0  0  0  0
 62 65  1  0  0  0  0
 63 58  1  0  0  0  0
 63 64  1  0  0  0  0
 65 59  2  0  0  0  0
 66 68  1  0  0  0  0
 68 67  1  0  0  0  0
M  END
>  <MODEL>
4

>  <REMARK>
 VINA RESULT:      -0.4      2.738      7.436
  Name = 
  19 active torsions:
  status: ('A' for Active; 'I' for Inactive)
    1  A    between atoms: C_1  and  C_26
    2  A    between atoms: C_1  and  C_61
    3  A    between atoms: N_2  and  N_19
    4  A    between atoms: C_7  and  C_45
    5  A    between atoms: C_11  and  C_52
    6  A    between atoms: N_12  and  C_32
    7  A    between atoms: N_12  and  O_59
    8  A    between atoms: C_13  and  C_41
    9  A    between atoms: C_13  and  C_62
   10  A    between atoms: C_17  and  C_53
   11  A    between atoms: N_19  and  C_38
   12  A    between atoms: C_20  and  C_26
   13  A    between atoms: C_22  and  C_30
   14  A    between atoms: C_22  and  C_56
   15  A    between atoms: C_24  and  C_44
   16  A    between atoms: C_24  and  C_49
   17  A    between atoms: C_26  and  O_59
   18  A    between atoms: C_38  and  C_45
   19  A    between atoms: C_63  and  C_64
                            x       y       z     vdW  Elec       q    Type
                         _______ _______ _______ _____ _____    ______ ____

>  <TORSDO>
F 19

$$$$
