=
 OpenBabel11042420243D

 36 39  0  0  1  0  0  0  0  0999 V2000
  163.0750  205.3520  146.8360 C   0  0  0  0  0  3  0  0  0  0  0  0
  161.9070  206.2970  146.7310 C   0  0  1  0  0  3  0  0  0  0  0  0
  162.6240  204.6930  144.5180 C   0  0  0  0  0  2  0  0  0  0  0  0
  160.7240  205.6090  146.0240 C   0  0  0  0  0  2  0  0  0  0  0  0
  163.4170  204.5970  145.7890 C   0  0  0  0  0  3  0  0  0  0  0  0
  161.1140  204.7430  144.8070 C   0  0  2  0  0  3  0  0  0  0  0  0
  161.4870  206.7890  148.1180 C   0  0  2  0  0  3  0  0  0  0  0  0
  160.0500  206.6360  148.2820 N   0  0  0  0  0  1  0  0  0  0  0  0
  161.8250  208.1390  148.2850 O   0  0  0  0  0  0  0  0  0  0  0  0
  161.6450  208.4050  149.6500 C   0  0  1  0  0  3  0  0  0  0  0  0
  162.7140  207.6910  150.4560 C   0  0  0  0  0  1  0  0  0  0  0  0
  161.7070  209.9060  149.9400 C   0  0  1  0  0  3  0  0  0  0  0  0
  162.3460  210.1800  151.2210 N   0  0  0  0  0  2  0  0  0  0  0  0
  161.2900  210.5470  152.1490 C   0  0  0  0  0  2  0  0  0  0  0  0
  160.2990  209.7920  154.2960 C   0  0  0  0  0  2  0  0  0  0  0  0
  161.6030  207.7710  154.6180 F   0  0  0  0  0  0  0  0  0  0  0  0
  160.3180  208.0240  152.6230 F   0  0  0  0  0  0  0  0  0  0  0  0
  160.9900  208.5930  153.6920 C   0  0  0  0  0  0  0  0  0  0  0  0
  161.5990  209.9730  153.5190 C   0  0  1  0  0  3  0  0  0  0  0  0
  162.3800  210.6860  148.8170 C   0  0  0  0  0  2  0  0  0  0  0  0
  162.1270  212.0530  148.9340 O   0  0  0  0  0  0  0  0  0  0  0  0
  162.7840  212.6240  147.8430 C   0  0  0  0  0  1  0  0  0  0  0  0
  160.5130  203.3420  144.9310 C   0  0  0  0  0  2  0  0  0  0  0  0
  161.3480  202.4970  145.6720 O   0  0  0  0  0  0  0  0  0  0  0  0
  160.5020  201.5160  146.2010 C   0  0  0  0  0  2  0  0  0  0  0  0
  160.9200  204.8430  151.5280 C   0  0  0  0  0  3  0  0  0  0  0  0
  160.8090  204.5390  150.1590 C   0  0  0  0  0  3  0  0  0  0  0  0
  161.1000  203.6630  152.3440 C   0  0  0  0  0  0  0  0  0  0  0  0
  161.3190  200.6990  148.4120 C   0  0  0  0  0  2  0  0  0  0  0  0
  161.0620  200.7540  149.9170 C   0  0  0  0  0  2  0  0  0  0  0  0
  160.4000  201.6850  147.7080 C   0  0  1  0  0  3  0  0  0  0  0  0
  160.8430  203.2600  149.6080 C   0  0  0  0  0  0  0  0  0  0  0  0
  161.1710  202.3650  151.7760 N   0  0  0  0  0  0  0  0  0  0  0  0
  161.0610  202.1630  150.4450 C   0  0  0  0  0  0  0  0  0  0  0  0
  161.0480  204.4400  152.9820 C   0  0  0  0  0  1  0  0  0  0  0  0
  160.7670  203.1100  148.1160 C   0  0  0  0  0  2  0  0  0  0  0  0
  2  1  1  0  0  0  0
  2  7  1  1  0  0  0
  3  6  1  0  0  0  0
  3  5  1  0  0  0  0
  4  2  1  0  0  0  0
  5  1  2  0  0  0  0
  6 23  1  1  0  0  0
  6  4  1  0  0  0  0
  7  8  1  6  0  0  0
  7  9  1  0  0  0  0
  9 10  1  0  0  0  0
 10 12  1  0  0  0  0
 10 11  1  1  0  0  0
 12 20  1  6  0  0  0
 12 13  1  0  0  0  0
 13 14  1  0  0  0  0
 17 18  1  0  0  0  0
 18 15  1  0  0  0  0
 18 16  1  0  0  0  0
 19 14  1  6  0  0  0
 19 18  1  0  0  0  0
 19 15  1  0  0  0  0
 20 21  1  0  0  0  0
 22 21  1  0  0  0  0
 23 24  1  0  0  0  0
 24 25  1  0  0  0  0
 26 28  1  0  0  0  0
 27 26  2  0  0  0  0
 28 35  1  0  0  0  0
 29 30  1  0  0  0  0
 30 34  1  0  0  0  0
 31 25  1  6  0  0  0
 31 36  1  0  0  0  0
 31 29  1  0  0  0  0
 32 27  1  0  0  0  0
 32 34  2  0  0  0  0
 33 28  2  0  0  0  0
 34 33  1  0  0  0  0
 36 32  1  0  0  0  0
M  END
>  <MODEL>
1

>  <REMARK>
 VINA RESULT:      -7.7      0.000      0.000
  Name = 
  13 active torsions:
  status: ('A' for Active; 'I' for Inactive)
    1  A    between atoms: O_1  and  C_21
    2  A    between atoms: O_2  and  C_12
    3  A    between atoms: O_2  and  C_25
    4  A    between atoms: C_6  and  C_12
    5  A    between atoms: C_7  and  C_17
    6  A    between atoms: C_7  and  O_22
    7  A    between atoms: C_9  and  O_22
    8  A    between atoms: C_9  and  C_35
    9  A    between atoms: N_13  and  C_20
   10  A    between atoms: N_13  and  C_33
   11  A    between atoms: C_20  and  C_36
   12  A    between atoms: C_21  and  C_33
   13  A    between atoms: C_25  and  C_33
                            x       y       z     vdW  Elec       q    Type
                         _______ _______ _______ _____ _____    ______ ____

>  <TORSDO>
F 13

$$$$
=
 OpenBabel11042420243D

 36 39  0  0  1  0  0  0  0  0999 V2000
  160.6890  206.3930  154.2110 C   0  0  0  0  0  3  0  0  0  0  0  0
  161.2370  207.7170  154.6750 C   0  0  1  0  0  3  0  0  0  0  0  0
  162.3820  206.4270  152.4380 C   0  0  0  0  0  2  0  0  0  0  0  0
  161.5060  208.6370  153.4700 C   0  0  0  0  0  2  0  0  0  0  0  0
  161.2330  205.7800  153.1560 C   0  0  0  0  0  3  0  0  0  0  0  0
  162.1430  207.9350  152.2510 C   0  0  2  0  0  3  0  0  0  0  0  0
  160.2670  208.3860  155.6520 C   0  0  2  0  0  3  0  0  0  0  0  0
  159.2140  207.4530  156.0210 N   0  0  0  0  0  1  0  0  0  0  0  0
  159.6870  209.5220  155.0700 O   0  0  0  0  0  0  0  0  0  0  0  0
  159.4360  210.4020  156.1320 C   0  0  1  0  0  3  0  0  0  0  0  0
  160.7320  211.0590  156.5690 C   0  0  0  0  0  1  0  0  0  0  0  0
  158.4260  211.4820  155.7370 C   0  0  1  0  0  3  0  0  0  0  0  0
  157.8740  211.2430  154.4100 N   0  0  0  0  0  2  0  0  0  0  0  0
  158.0600  212.4670  153.6500 C   0  0  0  0  0  2  0  0  0  0  0  0
  159.5570  213.2660  151.8380 C   0  0  0  0  0  2  0  0  0  0  0  0
  160.7210  211.1890  151.3720 F   0  0  0  0  0  0  0  0  0  0  0  0
  160.7780  212.0870  153.5820 F   0  0  0  0  0  0  0  0  0  0  0  0
  160.1490  211.9770  152.3520 C   0  0  0  0  0  0  0  0  0  0  0  0
  158.6420  212.1330  152.2880 C   0  0  1  0  0  3  0  0  0  0  0  0
  157.3160  211.6410  156.7690 C   0  0  0  0  0  2  0  0  0  0  0  0
  156.0690  211.3500  156.2140 O   0  0  0  0  0  0  0  0  0  0  0  0
  155.1610  211.6030  157.2420 C   0  0  0  0  0  1  0  0  0  0  0  0
  161.3430  208.2310  150.9830 C   0  0  0  0  0  2  0  0  0  0  0  0
  162.1440  208.1110  149.8400 O   0  0  0  0  0  0  0  0  0  0  0  0
  161.2500  208.1040  148.7640 C   0  0  0  0  0  2  0  0  0  0  0  0
  160.7800  201.8770  149.5550 C   0  0  0  0  0  3  0  0  0  0  0  0
  160.7820  203.2540  149.8410 C   0  0  0  0  0  3  0  0  0  0  0  0
  161.1710  201.5950  148.1920 C   0  0  0  0  0  0  0  0  0  0  0  0
  162.1410  206.3340  147.2470 C   0  0  0  0  0  2  0  0  0  0  0  0
  161.8240  204.9780  146.6190 C   0  0  0  0  0  2  0  0  0  0  0  0
  161.0620  206.6820  148.2610 C   0  0  1  0  0  3  0  0  0  0  0  0
  161.1000  204.2680  148.9410 C   0  0  0  0  0  0  0  0  0  0  0  0
  161.5310  202.6270  147.2890 N   0  0  0  0  0  0  0  0  0  0  0  0
  161.5120  203.9290  147.6500 C   0  0  0  0  0  0  0  0  0  0  0  0
  160.9370  200.7070  148.6060 C   0  0  0  0  0  1  0  0  0  0  0  0
  161.1100  205.6910  149.4220 C   0  0  0  0  0  2  0  0  0  0  0  0
  1  2  1  0  0  0  0
  2  7  1  1  0  0  0
  3  5  1  0  0  0  0
  4  2  1  0  0  0  0
  5  1  2  0  0  0  0
  6 23  1  6  0  0  0
  6  3  1  0  0  0  0
  6  4  1  0  0  0  0
  7  8  1  6  0  0  0
  9  7  1  0  0  0  0
  9 10  1  0  0  0  0
 10 11  1  6  0  0  0
 12 10  1  0  0  0  0
 12 20  1  1  0  0  0
 13 12  1  0  0  0  0
 14 13  1  0  0  0  0
 15 19  1  0  0  0  0
 15 18  1  0  0  0  0
 16 18  1  0  0  0  0
 18 17  1  0  0  0  0
 19 18  1  0  0  0  0
 19 14  1  1  0  0  0
 21 20  1  0  0  0  0
 21 22  1  0  0  0  0
 24 23  1  0  0  0  0
 25 24  1  0  0  0  0
 26 27  1  0  0  0  0
 28 35  1  0  0  0  0
 28 26  2  0  0  0  0
 29 31  1  0  0  0  0
 30 29  1  0  0  0  0
 30 34  1  0  0  0  0
 31 25  1  1  0  0  0
 31 36  1  0  0  0  0
 32 36  1  0  0  0  0
 32 27  2  0  0  0  0
 33 34  2  0  0  0  0
 33 28  1  0  0  0  0
 34 32  1  0  0  0  0
M  END
>  <MODEL>
2

>  <REMARK>
 VINA RESULT:      -7.7      3.374      6.527
  Name = 
  13 active torsions:
  status: ('A' for Active; 'I' for Inactive)
    1  A    between atoms: O_1  and  C_21
    2  A    between atoms: O_2  and  C_12
    3  A    between atoms: O_2  and  C_25
    4  A    between atoms: C_6  and  C_12
    5  A    between atoms: C_7  and  C_17
    6  A    between atoms: C_7  and  O_22
    7  A    between atoms: C_9  and  O_22
    8  A    between atoms: C_9  and  C_35
    9  A    between atoms: N_13  and  C_20
   10  A    between atoms: N_13  and  C_33
   11  A    between atoms: C_20  and  C_36
   12  A    between atoms: C_21  and  C_33
   13  A    between atoms: C_25  and  C_33
                            x       y       z     vdW  Elec       q    Type
                         _______ _______ _______ _____ _____    ______ ____

>  <TORSDO>
F 13

$$$$
=
 OpenBabel11042420243D

 36 39  0  0  1  0  0  0  0  0999 V2000
  161.2610  210.5430  154.2740 C   0  0  0  0  0  3  0  0  0  0  0  0
  160.5460  209.7080  153.2470 C   0  0  1  0  0  3  0  0  0  0  0  0
  159.2490  211.9380  154.3970 C   0  0  0  0  0  2  0  0  0  0  0  0
  159.8070  210.6110  152.2420 C   0  0  0  0  0  2  0  0  0  0  0  0
  160.6470  211.5950  154.8220 C   0  0  0  0  0  3  0  0  0  0  0  0
  159.0880  211.8240  152.8720 C   0  0  2  0  0  3  0  0  0  0  0  0
  161.5320  208.7930  152.5160 C   0  0  2  0  0  3  0  0  0  0  0  0
  162.2660  209.5540  151.5170 N   0  0  0  0  0  1  0  0  0  0  0  0
  160.8540  207.7430  151.8830 O   0  0  0  0  0  0  0  0  0  0  0  0
  161.6900  206.6240  152.0100 C   0  0  1  0  0  3  0  0  0  0  0  0
  161.2900  205.8230  153.2350 C   0  0  0  0  0  1  0  0  0  0  0  0
  161.6190  205.7290  150.7720 C   0  0  1  0  0  3  0  0  0  0  0  0
  161.0090  204.4410  151.0740 N   0  0  0  0  0  2  0  0  0  0  0  0
  160.6930  203.8150  149.8020 C   0  0  0  0  0  2  0  0  0  0  0  0
  159.7550  201.5950  149.2040 C   0  0  0  0  0  2  0  0  0  0  0  0
  161.8080  200.4900  148.5350 F   0  0  0  0  0  0  0  0  0  0  0  0
  161.1560  202.5040  147.4350 F   0  0  0  0  0  0  0  0  0  0  0  0
  161.1110  201.6830  148.5490 C   0  0  0  0  0  0  0  0  0  0  0  0
  160.8980  202.3150  149.9120 C   0  0  1  0  0  3  0  0  0  0  0  0
  160.9120  206.4080  149.6060 C   0  0  0  0  0  2  0  0  0  0  0  0
  161.7980  207.1990  148.8720 O   0  0  0  0  0  0  0  0  0  0  0  0
  161.8750  206.5740  147.6280 C   0  0  0  0  0  1  0  0  0  0  0  0
  159.4890  213.1150  152.1590 C   0  0  0  0  0  2  0  0  0  0  0  0
  160.0460  212.8490  150.9020 O   0  0  0  0  0  0  0  0  0  0  0  0
  159.2600  213.5630  149.9930 C   0  0  0  0  0  2  0  0  0  0  0  0
  160.3630  212.4200  143.9020 C   0  0  0  0  0  3  0  0  0  0  0  0
  159.6960  212.4940  145.1380 C   0  0  0  0  0  3  0  0  0  0  0  0
  161.7470  212.8260  143.9950 C   0  0  0  0  0  0  0  0  0  0  0  0
  161.4890  213.3980  148.8840 C   0  0  0  0  0  2  0  0  0  0  0  0
  162.2690  213.7740  147.6260 C   0  0  0  0  0  2  0  0  0  0  0  0
  160.0230  213.7540  148.6920 C   0  0  1  0  0  3  0  0  0  0  0  0
  160.2590  212.9220  146.3380 C   0  0  0  0  0  0  0  0  0  0  0  0
  162.3280  213.2260  145.2270 N   0  0  0  0  0  0  0  0  0  0  0  0
  161.6150  213.2610  146.3730 C   0  0  0  0  0  0  0  0  0  0  0  0
  161.5790  212.6270  143.0230 C   0  0  0  0  0  1  0  0  0  0  0  0
  159.4250  212.8870  147.5860 C   0  0  0  0  0  2  0  0  0  0  0  0
  1  5  2  0  0  0  0
  2  7  1  6  0  0  0
  2  1  1  0  0  0  0
  3  5  1  0  0  0  0
  4  6  1  0  0  0  0
  4  2  1  0  0  0  0
  6 23  1  6  0  0  0
  6  3  1  0  0  0  0
  7  8  1  6  0  0  0
  9 10  1  0  0  0  0
  9  7  1  0  0  0  0
 10 11  1  1  0  0  0
 12 20  1  6  0  0  0
 12 13  1  0  0  0  0
 12 10  1  0  0  0  0
 14 13  1  0  0  0  0
 15 19  1  0  0  0  0
 16 18  1  0  0  0  0
 17 18  1  0  0  0  0
 18 15  1  0  0  0  0
 18 19  1  0  0  0  0
 19 14  1  6  0  0  0
 21 20  1  0  0  0  0
 22 21  1  0  0  0  0
 24 23  1  0  0  0  0
 25 24  1  0  0  0  0
 26 28  2  0  0  0  0
 26 27  1  0  0  0  0
 27 32  2  0  0  0  0
 28 33  1  0  0  0  0
 30 29  1  0  0  0  0
 31 29  1  0  0  0  0
 31 25  1  1  0  0  0
 32 34  1  0  0  0  0
 32 36  1  0  0  0  0
 33 34  2  0  0  0  0
 34 30  1  0  0  0  0
 35 28  1  0  0  0  0
 36 31  1  0  0  0  0
M  END
>  <MODEL>
3

>  <REMARK>
 VINA RESULT:      -7.5      3.298      9.492
  Name = 
  13 active torsions:
  status: ('A' for Active; 'I' for Inactive)
    1  A    between atoms: O_1  and  C_21
    2  A    between atoms: O_2  and  C_12
    3  A    between atoms: O_2  and  C_25
    4  A    between atoms: C_6  and  C_12
    5  A    between atoms: C_7  and  C_17
    6  A    between atoms: C_7  and  O_22
    7  A    between atoms: C_9  and  O_22
    8  A    between atoms: C_9  and  C_35
    9  A    between atoms: N_13  and  C_20
   10  A    between atoms: N_13  and  C_33
   11  A    between atoms: C_20  and  C_36
   12  A    between atoms: C_21  and  C_33
   13  A    between atoms: C_25  and  C_33
                            x       y       z     vdW  Elec       q    Type
                         _______ _______ _______ _____ _____    ______ ____

>  <TORSDO>
F 13

$$$$
=
 OpenBabel11042420243D

 36 39  0  0  1  0  0  0  0  0999 V2000
  162.1000  206.2450  151.9070 C   0  0  0  0  0  3  0  0  0  0  0  0
  161.1310  207.2170  151.2870 C   0  0  1  0  0  3  0  0  0  0  0  0
  160.7590  206.3660  153.9550 C   0  0  0  0  0  2  0  0  0  0  0  0
  160.7940  208.3440  152.2810 C   0  0  0  0  0  2  0  0  0  0  0  0
  161.9230  205.8390  153.1660 C   0  0  0  0  0  3  0  0  0  0  0  0
  160.5790  207.8780  153.7370 C   0  0  2  0  0  3  0  0  0  0  0  0
  161.7070  207.8000  149.9940 C   0  0  2  0  0  3  0  0  0  0  0  0
  161.8550  209.2410  150.1250 N   0  0  0  0  0  1  0  0  0  0  0  0
  160.8620  207.5240  148.9110 O   0  0  0  0  0  0  0  0  0  0  0  0
  161.7120  207.1710  147.8520 C   0  0  1  0  0  3  0  0  0  0  0  0
  163.1390  207.0630  148.3570 C   0  0  0  0  0  1  0  0  0  0  0  0
  161.2950  205.8420  147.2180 C   0  0  1  0  0  3  0  0  0  0  0  0
  160.8480  204.8850  148.2220 N   0  0  0  0  0  2  0  0  0  0  0  0
  161.6250  203.6730  148.0240 C   0  0  0  0  0  2  0  0  0  0  0  0
  161.3460  201.2700  148.5800 C   0  0  0  0  0  2  0  0  0  0  0  0
  159.0500  201.3310  149.3610 F   0  0  0  0  0  0  0  0  0  0  0  0
  160.6790  202.7190  150.4170 F   0  0  0  0  0  0  0  0  0  0  0  0
  160.2510  202.0120  149.3060 C   0  0  0  0  0  0  0  0  0  0  0  0
  160.6880  202.4820  147.9310 C   0  0  1  0  0  3  0  0  0  0  0  0
  160.2440  206.0240  146.1310 C   0  0  0  0  0  2  0  0  0  0  0  0
  160.8320  206.0730  144.8660 O   0  0  0  0  0  0  0  0  0  0  0  0
  161.0410  204.7360  144.5270 C   0  0  0  0  0  1  0  0  0  0  0  0
  161.4420  208.6980  154.6960 C   0  0  0  0  0  2  0  0  0  0  0  0
  160.7110  209.7480  155.2650 O   0  0  0  0  0  0  0  0  0  0  0  0
  161.3460  210.9160  154.8300 C   0  0  0  0  0  2  0  0  0  0  0  0
  155.5070  213.2350  154.4510 C   0  0  0  0  0  3  0  0  0  0  0  0
  156.6210  212.5180  154.9220 C   0  0  0  0  0  3  0  0  0  0  0  0
  155.7630  213.8870  153.1860 C   0  0  0  0  0  0  0  0  0  0  0  0
  160.2580  211.8990  152.8120 C   0  0  0  0  0  2  0  0  0  0  0  0
  159.3530  213.0310  152.3300 C   0  0  0  0  0  2  0  0  0  0  0  0
  160.3100  211.9100  154.3320 C   0  0  1  0  0  3  0  0  0  0  0  0
  157.8580  212.4320  154.2860 C   0  0  0  0  0  0  0  0  0  0  0  0
  157.0110  213.7660  152.5220 N   0  0  0  0  0  0  0  0  0  0  0  0
  158.0300  213.0490  153.0440 C   0  0  0  0  0  0  0  0  0  0  0  0
  154.8300  214.1540  153.4550 C   0  0  0  0  0  1  0  0  0  0  0  0
  158.9300  211.5750  154.8940 C   0  0  0  0  0  2  0  0  0  0  0  0
  1  5  2  0  0  0  0
  2  7  1  6  0  0  0
  2  1  1  0  0  0  0
  2  4  1  0  0  0  0
  4  6  1  0  0  0  0
  5  3  1  0  0  0  0
  6  3  1  0  0  0  0
  6 23  1  1  0  0  0
  7  8  1  1  0  0  0
  9  7  1  0  0  0  0
 10 11  1  1  0  0  0
 10  9  1  0  0  0  0
 12 20  1  6  0  0  0
 12 10  1  0  0  0  0
 12 13  1  0  0  0  0
 14 13  1  0  0  0  0
 15 18  1  0  0  0  0
 18 16  1  0  0  0  0
 18 17  1  0  0  0  0
 19 14  1  1  0  0  0
 19 15  1  0  0  0  0
 19 18  1  0  0  0  0
 21 20  1  0  0  0  0
 22 21  1  0  0  0  0
 23 24  1  0  0  0  0
 25 24  1  0  0  0  0
 26 27  1  0  0  0  0
 28 35  1  0  0  0  0
 28 26  2  0  0  0  0
 29 31  1  0  0  0  0
 30 29  1  0  0  0  0
 30 34  1  0  0  0  0
 31 25  1  6  0  0  0
 31 36  1  0  0  0  0
 32 36  1  0  0  0  0
 32 27  2  0  0  0  0
 33 34  2  0  0  0  0
 33 28  1  0  0  0  0
 34 32  1  0  0  0  0
M  END
>  <MODEL>
4

>  <REMARK>
 VINA RESULT:      -7.4      3.455      8.993
  Name = 
  13 active torsions:
  status: ('A' for Active; 'I' for Inactive)
    1  A    between atoms: O_1  and  C_21
    2  A    between atoms: O_2  and  C_12
    3  A    between atoms: O_2  and  C_25
    4  A    between atoms: C_6  and  C_12
    5  A    between atoms: C_7  and  C_17
    6  A    between atoms: C_7  and  O_22
    7  A    between atoms: C_9  and  O_22
    8  A    between atoms: C_9  and  C_35
    9  A    between atoms: N_13  and  C_20
   10  A    between atoms: N_13  and  C_33
   11  A    between atoms: C_20  and  C_36
   12  A    between atoms: C_21  and  C_33
   13  A    between atoms: C_25  and  C_33
                            x       y       z     vdW  Elec       q    Type
                         _______ _______ _______ _____ _____    ______ ____

>  <TORSDO>
F 13

$$$$
=
 OpenBabel11042420243D

 36 39  0  0  1  0  0  0  0  0999 V2000
  161.2730  201.4280  150.2790 C   0  0  0  0  0  3  0  0  0  0  0  0
  160.4760  202.2350  149.2890 C   0  0  1  0  0  3  0  0  0  0  0  0
  160.3310  202.8460  152.0430 C   0  0  0  0  0  2  0  0  0  0  0  0
  160.5720  203.7360  149.6200 C   0  0  0  0  0  2  0  0  0  0  0  0
  161.2010  201.7130  151.5820 C   0  0  0  0  0  3  0  0  0  0  0  0
  160.4800  204.0710  151.1250 C   0  0  2  0  0  3  0  0  0  0  0  0
  160.9660  201.9710  147.8620 C   0  0  2  0  0  3  0  0  0  0  0  0
  161.5710  200.6510  147.7840 N   0  0  0  0  0  1  0  0  0  0  0  0
  161.9130  202.9310  147.4820 O   0  0  0  0  0  0  0  0  0  0  0  0
  161.5860  203.2810  146.1640 C   0  0  1  0  0  3  0  0  0  0  0  0
  160.5390  202.3220  145.6260 C   0  0  0  0  0  1  0  0  0  0  0  0
  161.0540  204.7130  146.0800 C   0  0  1  0  0  3  0  0  0  0  0  0
  162.0480  205.6820  146.5200 N   0  0  0  0  0  2  0  0  0  0  0  0
  161.4020  206.5290  147.5090 C   0  0  0  0  0  2  0  0  0  0  0  0
  161.9500  208.7950  148.3620 C   0  0  0  0  0  2  0  0  0  0  0  0
  162.8990  208.1680  150.5050 F   0  0  0  0  0  0  0  0  0  0  0  0
  160.6730  207.4930  149.9740 F   0  0  0  0  0  0  0  0  0  0  0  0
  161.9380  207.8730  149.5570 C   0  0  0  0  0  0  0  0  0  0  0  0
  162.4510  207.3620  148.2240 C   0  0  1  0  0  3  0  0  0  0  0  0
  160.5350  205.0570  144.6890 C   0  0  0  0  0  2  0  0  0  0  0  0
  161.1610  206.2000  144.1890 O   0  0  0  0  0  0  0  0  0  0  0  0
  161.5950  205.8310  142.9150 C   0  0  0  0  0  1  0  0  0  0  0  0
  161.6500  204.9600  151.5480 C   0  0  0  0  0  2  0  0  0  0  0  0
  161.5820  205.2700  152.9120 O   0  0  0  0  0  0  0  0  0  0  0  0
  162.0650  206.5780  153.0160 C   0  0  0  0  0  2  0  0  0  0  0  0
  159.0240  212.0310  153.8180 C   0  0  0  0  0  3  0  0  0  0  0  0
  159.8180  211.0280  153.2320 C   0  0  0  0  0  3  0  0  0  0  0  0
  158.5990  211.6880  155.1570 C   0  0  0  0  0  0  0  0  0  0  0  0
  161.2320  207.5210  155.1710 C   0  0  0  0  0  2  0  0  0  0  0  0
  160.0620  208.2570  155.8220 C   0  0  0  0  0  2  0  0  0  0  0  0
  161.0150  207.4640  153.6670 C   0  0  1  0  0  3  0  0  0  0  0  0
  160.1650  209.8180  153.8280 C   0  0  0  0  0  0  0  0  0  0  0  0
  158.9860  210.4710  155.7750 N   0  0  0  0  0  0  0  0  0  0  0  0
  159.7590  209.5630  155.1410 C   0  0  0  0  0  0  0  0  0  0  0  0
  158.1680  212.5720  154.9440 C   0  0  0  0  0  1  0  0  0  0  0  0
  161.0700  208.8760  153.0870 C   0  0  0  0  0  2  0  0  0  0  0  0
  1  5  2  0  0  0  0
  2  7  1  6  0  0  0
  2  4  1  0  0  0  0
  2  1  1  0  0  0  0
  4  6  1  0  0  0  0
  5  3  1  0  0  0  0
  6 23  1  1  0  0  0
  6  3  1  0  0  0  0
  7  8  1  1  0  0  0
  9  7  1  0  0  0  0
 10 11  1  1  0  0  0
 10  9  1  0  0  0  0
 12 20  1  6  0  0  0
 12 10  1  0  0  0  0
 12 13  1  0  0  0  0
 13 14  1  0  0  0  0
 15 18  1  0  0  0  0
 18 17  1  0  0  0  0
 18 16  1  0  0  0  0
 19 14  1  6  0  0  0
 19 15  1  0  0  0  0
 19 18  1  0  0  0  0
 21 20  1  0  0  0  0
 22 21  1  0  0  0  0
 23 24  1  0  0  0  0
 24 25  1  0  0  0  0
 26 28  1  0  0  0  0
 27 26  2  0  0  0  0
 27 32  1  0  0  0  0
 28 33  2  0  0  0  0
 29 30  1  0  0  0  0
 31 25  1  6  0  0  0
 31 29  1  0  0  0  0
 32 34  2  0  0  0  0
 34 33  1  0  0  0  0
 34 30  1  0  0  0  0
 35 28  1  0  0  0  0
 36 31  1  0  0  0  0
 36 32  1  0  0  0  0
M  END
>  <MODEL>
5

>  <REMARK>
 VINA RESULT:      -7.3      2.525      7.117
  Name = 
  13 active torsions:
  status: ('A' for Active; 'I' for Inactive)
    1  A    between atoms: O_1  and  C_21
    2  A    between atoms: O_2  and  C_12
    3  A    between atoms: O_2  and  C_25
    4  A    between atoms: C_6  and  C_12
    5  A    between atoms: C_7  and  C_17
    6  A    between atoms: C_7  and  O_22
    7  A    between atoms: C_9  and  O_22
    8  A    between atoms: C_9  and  C_35
    9  A    between atoms: N_13  and  C_20
   10  A    between atoms: N_13  and  C_33
   11  A    between atoms: C_20  and  C_36
   12  A    between atoms: C_21  and  C_33
   13  A    between atoms: C_25  and  C_33
                            x       y       z     vdW  Elec       q    Type
                         _______ _______ _______ _____ _____    ______ ____

>  <TORSDO>
F 13

$$$$
=
 OpenBabel11042420243D

 36 39  0  0  1  0  0  0  0  0999 V2000
  161.7490  210.1260  154.0390 C   0  0  0  0  0  3  0  0  0  0  0  0
  160.8280  209.3930  153.1000 C   0  0  1  0  0  3  0  0  0  0  0  0
  159.7750  211.2930  154.9050 C   0  0  0  0  0  2  0  0  0  0  0  0
  159.8040  210.3650  152.4850 C   0  0  0  0  0  2  0  0  0  0  0  0
  161.2510  211.0220  154.8960 C   0  0  0  0  0  3  0  0  0  0  0  0
  159.2190  211.3970  153.4740 C   0  0  2  0  0  3  0  0  0  0  0  0
  161.6290  208.6950  151.9980 C   0  0  2  0  0  3  0  0  0  0  0  0
  162.3100  209.6850  151.1790 N   0  0  0  0  0  1  0  0  0  0  0  0
  160.7820  207.9310  151.1830 O   0  0  0  0  0  0  0  0  0  0  0  0
  161.5400  206.8170  150.7940 C   0  0  1  0  0  3  0  0  0  0  0  0
  162.2450  206.2310  152.0040 C   0  0  0  0  0  1  0  0  0  0  0  0
  160.6640  205.7420  150.1480 C   0  0  1  0  0  3  0  0  0  0  0  0
  160.4350  206.0130  148.7350 N   0  0  0  0  0  2  0  0  0  0  0  0
  161.7140  205.8570  148.0630 C   0  0  0  0  0  2  0  0  0  0  0  0
  162.7620  205.0300  145.9710 C   0  0  0  0  0  2  0  0  0  0  0  0
  160.9360  203.6530  145.1590 F   0  0  0  0  0  0  0  0  0  0  0  0
  161.8530  203.2190  147.3180 F   0  0  0  0  0  0  0  0  0  0  0  0
  161.6130  204.1000  146.2770 C   0  0  0  0  0  0  0  0  0  0  0  0
  161.4810  205.5790  146.5900 C   0  0  1  0  0  3  0  0  0  0  0  0
  161.2240  204.3390  150.3510 C   0  0  0  0  0  2  0  0  0  0  0  0
  160.2250  203.3750  150.2100 O   0  0  0  0  0  0  0  0  0  0  0  0
  160.8980  202.1570  150.3150 C   0  0  0  0  0  1  0  0  0  0  0  0
  159.3510  212.8130  152.9140 C   0  0  0  0  0  2  0  0  0  0  0  0
  160.0070  212.8090  151.6770 O   0  0  0  0  0  0  0  0  0  0  0  0
  159.4510  213.8750  150.9630 C   0  0  0  0  0  2  0  0  0  0  0  0
  158.5910  212.7460  144.8300 C   0  0  0  0  0  3  0  0  0  0  0  0
  158.3090  213.0090  146.1830 C   0  0  0  0  0  3  0  0  0  0  0  0
  160.0030  212.5560  144.5860 C   0  0  0  0  0  0  0  0  0  0  0  0
  161.1090  212.8930  149.3770 C   0  0  0  0  0  2  0  0  0  0  0  0
  161.6690  212.9980  147.9600 C   0  0  0  0  0  2  0  0  0  0  0  0
  159.9110  213.8190  149.5150 C   0  0  1  0  0  3  0  0  0  0  0  0
  159.2520  213.1030  147.2030 C   0  0  0  0  0  0  0  0  0  0  0  0
  160.9580  212.6140  145.6340 N   0  0  0  0  0  0  0  0  0  0  0  0
  160.5980  212.8660  146.9120 C   0  0  0  0  0  0  0  0  0  0  0  0
  159.5540  212.4990  143.6870 C   0  0  0  0  0  1  0  0  0  0  0  0
  158.7810  213.3330  148.6100 C   0  0  0  0  0  2  0  0  0  0  0  0
  1  5  2  0  0  0  0
  2  7  1  6  0  0  0
  2  1  1  0  0  0  0
  4  2  1  0  0  0  0
  4  6  1  0  0  0  0
  5  3  1  0  0  0  0
  6 23  1  6  0  0  0
  6  3  1  0  0  0  0
  7  8  1  6  0  0  0
  9  7  1  0  0  0  0
 10  9  1  0  0  0  0
 10 11  1  1  0  0  0
 12 20  1  6  0  0  0
 12 10  1  0  0  0  0
 13 12  1  0  0  0  0
 14 13  1  0  0  0  0
 15 18  1  0  0  0  0
 15 19  1  0  0  0  0
 16 18  1  0  0  0  0
 18 19  1  0  0  0  0
 18 17  1  0  0  0  0
 19 14  1  1  0  0  0
 21 22  1  0  0  0  0
 21 20  1  0  0  0  0
 24 23  1  0  0  0  0
 25 24  1  0  0  0  0
 26 27  1  0  0  0  0
 27 32  2  0  0  0  0
 28 26  2  0  0  0  0
 28 33  1  0  0  0  0
 29 31  1  0  0  0  0
 30 29  1  0  0  0  0
 31 25  1  1  0  0  0
 32 36  1  0  0  0  0
 33 34  2  0  0  0  0
 34 32  1  0  0  0  0
 34 30  1  0  0  0  0
 35 28  1  0  0  0  0
 36 31  1  0  0  0  0
M  END
>  <MODEL>
6

>  <REMARK>
 VINA RESULT:      -7.2      3.415      9.586
  Name = 
  13 active torsions:
  status: ('A' for Active; 'I' for Inactive)
    1  A    between atoms: O_1  and  C_21
    2  A    between atoms: O_2  and  C_12
    3  A    between atoms: O_2  and  C_25
    4  A    between atoms: C_6  and  C_12
    5  A    between atoms: C_7  and  C_17
    6  A    between atoms: C_7  and  O_22
    7  A    between atoms: C_9  and  O_22
    8  A    between atoms: C_9  and  C_35
    9  A    between atoms: N_13  and  C_20
   10  A    between atoms: N_13  and  C_33
   11  A    between atoms: C_20  and  C_36
   12  A    between atoms: C_21  and  C_33
   13  A    between atoms: C_25  and  C_33
                            x       y       z     vdW  Elec       q    Type
                         _______ _______ _______ _____ _____    ______ ____

>  <TORSDO>
F 13

$$$$
=
 OpenBabel11042420243D

 36 39  0  0  1  0  0  0  0  0999 V2000
  160.8940  205.7050  150.3700 C   0  0  0  0  0  3  0  0  0  0  0  0
  161.4810  204.6210  151.2330 C   0  0  1  0  0  3  0  0  0  0  0  0
  162.2460  207.3100  151.6360 C   0  0  0  0  0  2  0  0  0  0  0  0
  161.5120  205.0670  152.7070 C   0  0  0  0  0  2  0  0  0  0  0  0
  161.2580  206.9760  150.5570 C   0  0  0  0  0  3  0  0  0  0  0  0
  161.9420  206.5330  152.9290 C   0  0  2  0  0  3  0  0  0  0  0  0
  160.6830  203.3230  151.0850 C   0  0  2  0  0  3  0  0  0  0  0  0
  161.5630  202.1790  151.2610 N   0  0  0  0  0  1  0  0  0  0  0  0
  160.0890  203.2530  149.8170 O   0  0  0  0  0  0  0  0  0  0  0  0
  160.3300  201.9490  149.3610 C   0  0  1  0  0  3  0  0  0  0  0  0
  159.0550  201.1310  149.4540 C   0  0  0  0  0  1  0  0  0  0  0  0
  160.8320  201.9450  147.9160 C   0  0  1  0  0  3  0  0  0  0  0  0
  161.9350  202.8780  147.7280 N   0  0  0  0  0  2  0  0  0  0  0  0
  161.5870  203.7190  146.5950 C   0  0  0  0  0  2  0  0  0  0  0  0
  162.1060  205.8370  145.4090 C   0  0  0  0  0  2  0  0  0  0  0  0
  162.6180  207.2260  147.3310 F   0  0  0  0  0  0  0  0  0  0  0  0
  160.4870  206.1610  147.1970 F   0  0  0  0  0  0  0  0  0  0  0  0
  161.8270  206.2030  146.8460 C   0  0  0  0  0  0  0  0  0  0  0  0
  162.5380  204.9000  146.5310 C   0  0  1  0  0  3  0  0  0  0  0  0
  161.2110  200.5480  147.4390 C   0  0  0  0  0  2  0  0  0  0  0  0
  161.0390  200.4250  146.0600 O   0  0  0  0  0  0  0  0  0  0  0  0
  161.2460  199.0700  145.8020 C   0  0  0  0  0  1  0  0  0  0  0  0
  160.9240  207.2640  153.8050 C   0  0  0  0  0  2  0  0  0  0  0  0
  160.7410  208.5840  153.3750 O   0  0  0  0  0  0  0  0  0  0  0  0
  160.8850  209.3690  154.5230 C   0  0  0  0  0  2  0  0  0  0  0  0
  155.9320  212.9440  156.0440 C   0  0  0  0  0  3  0  0  0  0  0  0
  156.9260  211.9510  156.1220 C   0  0  0  0  0  3  0  0  0  0  0  0
  155.9630  213.6590  154.7880 C   0  0  0  0  0  0  0  0  0  0  0  0
  159.5340  210.7860  152.9760 C   0  0  0  0  0  2  0  0  0  0  0  0
  158.8330  212.1360  152.8400 C   0  0  0  0  0  2  0  0  0  0  0  0
  160.0240  210.6150  154.4060 C   0  0  1  0  0  3  0  0  0  0  0  0
  157.8660  211.6660  155.1350 C   0  0  0  0  0  0  0  0  0  0  0  0
  156.8980  213.3420  153.7700 N   0  0  0  0  0  0  0  0  0  0  0  0
  157.8180  212.3650  153.9250 C   0  0  0  0  0  0  0  0  0  0  0  0
  155.2430  214.0940  155.3410 C   0  0  0  0  0  1  0  0  0  0  0  0
  158.8270  210.5320  155.3510 C   0  0  0  0  0  2  0  0  0  0  0  0
  1  5  2  0  0  0  0
  1  2  1  0  0  0  0
  2  7  1  1  0  0  0
  2  4  1  0  0  0  0
  3  6  1  0  0  0  0
  4  6  1  0  0  0  0
  5  3  1  0  0  0  0
  6 23  1  6  0  0  0
  7  8  1  6  0  0  0
  9  7  1  0  0  0  0
 10 11  1  6  0  0  0
 10  9  1  0  0  0  0
 12 20  1  1  0  0  0
 12 10  1  0  0  0  0
 13 12  1  0  0  0  0
 14 13  1  0  0  0  0
 15 19  1  0  0  0  0
 15 18  1  0  0  0  0
 18 17  1  0  0  0  0
 18 16  1  0  0  0  0
 19 14  1  6  0  0  0
 19 18  1  0  0  0  0
 21 20  1  0  0  0  0
 22 21  1  0  0  0  0
 24 23  1  0  0  0  0
 24 25  1  0  0  0  0
 26 27  1  0  0  0  0
 28 35  1  0  0  0  0
 28 26  2  0  0  0  0
 29 31  1  0  0  0  0
 30 29  1  0  0  0  0
 30 34  1  0  0  0  0
 31 25  1  6  0  0  0
 31 36  1  0  0  0  0
 32 36  1  0  0  0  0
 32 27  2  0  0  0  0
 33 34  2  0  0  0  0
 33 28  1  0  0  0  0
 34 32  1  0  0  0  0
M  END
>  <MODEL>
7

>  <REMARK>
 VINA RESULT:      -7.2      3.287      9.255
  Name = 
  13 active torsions:
  status: ('A' for Active; 'I' for Inactive)
    1  A    between atoms: O_1  and  C_21
    2  A    between atoms: O_2  and  C_12
    3  A    between atoms: O_2  and  C_25
    4  A    between atoms: C_6  and  C_12
    5  A    between atoms: C_7  and  C_17
    6  A    between atoms: C_7  and  O_22
    7  A    between atoms: C_9  and  O_22
    8  A    between atoms: C_9  and  C_35
    9  A    between atoms: N_13  and  C_20
   10  A    between atoms: N_13  and  C_33
   11  A    between atoms: C_20  and  C_36
   12  A    between atoms: C_21  and  C_33
   13  A    between atoms: C_25  and  C_33
                            x       y       z     vdW  Elec       q    Type
                         _______ _______ _______ _____ _____    ______ ____

>  <TORSDO>
F 13

$$$$
=
 OpenBabel11042420243D

 36 39  0  0  1  0  0  0  0  0999 V2000
  161.3490  207.5100  153.6000 C   0  0  0  0  0  3  0  0  0  0  0  0
  160.7960  207.0310  152.2840 C   0  0  1  0  0  3  0  0  0  0  0  0
  160.5880  209.7580  152.9880 C   0  0  0  0  0  2  0  0  0  0  0  0
  161.1630  208.0160  151.1580 C   0  0  0  0  0  2  0  0  0  0  0  0
  161.2470  208.7990  153.9350 C   0  0  0  0  0  3  0  0  0  0  0  0
  161.0370  209.5070  151.5390 C   0  0  2  0  0  3  0  0  0  0  0  0
  161.3200  205.6300  151.9590 C   0  0  2  0  0  3  0  0  0  0  0  0
  162.6680  205.7190  151.4210 N   0  0  0  0  0  1  0  0  0  0  0  0
  160.4930  205.0010  151.0180 O   0  0  0  0  0  0  0  0  0  0  0  0
  161.2720  203.9800  150.4550 C   0  0  1  0  0  3  0  0  0  0  0  0
  161.1020  202.7040  151.2590 C   0  0  0  0  0  1  0  0  0  0  0  0
  160.8860  203.7190  148.9980 C   0  0  1  0  0  3  0  0  0  0  0  0
  161.9510  204.1020  148.0820 N   0  0  0  0  0  2  0  0  0  0  0  0
  161.3860  205.0720  147.1590 C   0  0  0  0  0  2  0  0  0  0  0  0
  160.8390  203.9560  145.0100 C   0  0  0  0  0  2  0  0  0  0  0  0
  161.5830  205.6920  143.4880 F   0  0  0  0  0  0  0  0  0  0  0  0
  159.9300  206.2100  145.1290 F   0  0  0  0  0  0  0  0  0  0  0  0
  160.9920  205.4260  144.7080 C   0  0  0  0  0  0  0  0  0  0  0  0
  161.8820  204.7820  145.7540 C   0  0  1  0  0  3  0  0  0  0  0  0
  160.4570  202.2750  148.7630 C   0  0  0  0  0  2  0  0  0  0  0  0
  161.2040  201.6910  147.7390 O   0  0  0  0  0  0  0  0  0  0  0  0
  161.5810  200.4480  148.2490 C   0  0  0  0  0  1  0  0  0  0  0  0
  162.3280  210.2560  151.2050 C   0  0  0  0  0  2  0  0  0  0  0  0
  162.3230  210.7080  149.8800 O   0  0  0  0  0  0  0  0  0  0  0  0
  161.4970  211.8360  149.8790 C   0  0  0  0  0  2  0  0  0  0  0  0
  159.7120  212.6020  143.8910 C   0  0  0  0  0  3  0  0  0  0  0  0
  159.6920  212.2080  145.2420 C   0  0  0  0  0  3  0  0  0  0  0  0
  160.9550  213.2390  143.5200 C   0  0  0  0  0  0  0  0  0  0  0  0
  162.9620  212.4240  147.9470 C   0  0  0  0  0  2  0  0  0  0  0  0
  163.0460  213.2720  146.6790 C   0  0  0  0  0  2  0  0  0  0  0  0
  161.5570  212.5160  148.5210 C   0  0  1  0  0  3  0  0  0  0  0  0
  160.7220  212.4060  146.1590 C   0  0  0  0  0  0  0  0  0  0  0  0
  162.0170  213.4050  144.4460 N   0  0  0  0  0  0  0  0  0  0  0  0
  161.9160  212.9900  145.7270 C   0  0  0  0  0  0  0  0  0  0  0  0
  160.3670  213.2770  142.7040 C   0  0  0  0  0  1  0  0  0  0  0  0
  160.5660  211.8730  147.5530 C   0  0  0  0  0  2  0  0  0  0  0  0
  1  5  2  0  0  0  0
  2  7  1  6  0  0  0
  2  1  1  0  0  0  0
  3  5  1  0  0  0  0
  4  6  1  0  0  0  0
  4  2  1  0  0  0  0
  6 23  1  1  0  0  0
  6  3  1  0  0  0  0
  7  8  1  6  0  0  0
  9  7  1  0  0  0  0
 10  9  1  0  0  0  0
 10 11  1  1  0  0  0
 12 20  1  1  0  0  0
 12 10  1  0  0  0  0
 13 12  1  0  0  0  0
 14 13  1  0  0  0  0
 15 19  1  0  0  0  0
 16 18  1  0  0  0  0
 18 15  1  0  0  0  0
 18 17  1  0  0  0  0
 18 19  1  0  0  0  0
 19 14  1  1  0  0  0
 21 22  1  0  0  0  0
 21 20  1  0  0  0  0
 24 23  1  0  0  0  0
 25 24  1  0  0  0  0
 26 27  1  0  0  0  0
 27 32  2  0  0  0  0
 28 26  2  0  0  0  0
 28 33  1  0  0  0  0
 29 31  1  0  0  0  0
 30 29  1  0  0  0  0
 31 25  1  1  0  0  0
 32 36  1  0  0  0  0
 33 34  2  0  0  0  0
 34 32  1  0  0  0  0
 34 30  1  0  0  0  0
 35 28  1  0  0  0  0
 36 31  1  0  0  0  0
M  END
>  <MODEL>
8

>  <REMARK>
 VINA RESULT:      -7.1      3.339      9.451
  Name = 
  13 active torsions:
  status: ('A' for Active; 'I' for Inactive)
    1  A    between atoms: O_1  and  C_21
    2  A    between atoms: O_2  and  C_12
    3  A    between atoms: O_2  and  C_25
    4  A    between atoms: C_6  and  C_12
    5  A    between atoms: C_7  and  C_17
    6  A    between atoms: C_7  and  O_22
    7  A    between atoms: C_9  and  O_22
    8  A    between atoms: C_9  and  C_35
    9  A    between atoms: N_13  and  C_20
   10  A    between atoms: N_13  and  C_33
   11  A    between atoms: C_20  and  C_36
   12  A    between atoms: C_21  and  C_33
   13  A    between atoms: C_25  and  C_33
                            x       y       z     vdW  Elec       q    Type
                         _______ _______ _______ _____ _____    ______ ____

>  <TORSDO>
F 13

$$$$
=
 OpenBabel11042420243D

 36 39  0  0  1  0  0  0  0  0999 V2000
  160.8360  206.1650  153.7440 C   0  0  0  0  0  3  0  0  0  0  0  0
  161.5720  207.4290  154.1020 C   0  0  1  0  0  3  0  0  0  0  0  0
  162.3950  205.9050  151.8700 C   0  0  0  0  0  2  0  0  0  0  0  0
  161.8700  208.2530  152.8350 C   0  0  0  0  0  2  0  0  0  0  0  0
  161.2280  205.4420  152.6920 C   0  0  0  0  0  3  0  0  0  0  0  0
  162.3320  207.4220  151.6180 C   0  0  2  0  0  3  0  0  0  0  0  0
  160.7610  208.2590  155.1000 C   0  0  2  0  0  3  0  0  0  0  0  0
  159.8550  207.3950  155.8400 N   0  0  0  0  0  1  0  0  0  0  0  0
  160.0140  209.2390  154.4320 O   0  0  0  0  0  0  0  0  0  0  0  0
  159.9160  210.3130  155.3290 C   0  0  1  0  0  3  0  0  0  0  0  0
  161.2680  210.9870  155.4690 C   0  0  0  0  0  1  0  0  0  0  0  0
  158.8820  211.3400  154.8630 C   0  0  1  0  0  3  0  0  0  0  0  0
  158.8640  212.5140  155.7260 N   0  0  0  0  0  2  0  0  0  0  0  0
  157.4750  212.7600  156.0740 C   0  0  0  0  0  2  0  0  0  0  0  0
  155.3160  211.6940  156.6770 C   0  0  0  0  0  2  0  0  0  0  0  0
  155.2330  210.0070  154.9360 F   0  0  0  0  0  0  0  0  0  0  0  0
  155.4090  212.3060  154.3240 F   0  0  0  0  0  0  0  0  0  0  0  0
  155.6110  211.2970  155.2510 C   0  0  0  0  0  0  0  0  0  0  0  0
  156.7540  211.4350  156.2410 C   0  0  1  0  0  3  0  0  0  0  0  0
  159.0780  211.7370  153.4050 C   0  0  0  0  0  2  0  0  0  0  0  0
  159.2340  213.1180  153.2780 O   0  0  0  0  0  0  0  0  0  0  0  0
  158.3430  213.4780  152.2670 C   0  0  0  0  0  1  0  0  0  0  0  0
  161.4900  207.7580  150.3880 C   0  0  0  0  0  2  0  0  0  0  0  0
  162.1520  207.3980  149.2070 O   0  0  0  0  0  0  0  0  0  0  0  0
  161.1910  207.5140  148.1970 C   0  0  0  0  0  2  0  0  0  0  0  0
  161.1760  201.2190  148.2700 C   0  0  0  0  0  3  0  0  0  0  0  0
  161.2050  202.5510  148.7210 C   0  0  0  0  0  3  0  0  0  0  0  0
  161.1960  201.1240  146.8270 C   0  0  0  0  0  0  0  0  0  0  0  0
  161.7040  205.9960  146.2840 C   0  0  0  0  0  2  0  0  0  0  0  0
  161.2800  204.7040  145.5900 C   0  0  0  0  0  2  0  0  0  0  0  0
  160.9260  206.1490  147.5820 C   0  0  1  0  0  3  0  0  0  0  0  0
  161.2330  203.6820  147.9080 C   0  0  0  0  0  0  0  0  0  0  0  0
  161.2630  202.2770  146.0020 N   0  0  0  0  0  0  0  0  0  0  0  0
  161.2950  203.5230  146.5210 C   0  0  0  0  0  0  0  0  0  0  0  0
  161.1140  200.1810  147.1690 C   0  0  0  0  0  1  0  0  0  0  0  0
  161.3210  205.0370  148.5500 C   0  0  0  0  0  2  0  0  0  0  0  0
  1  2  1  0  0  0  0
  2  7  1  1  0  0  0
  3  5  1  0  0  0  0
  4  2  1  0  0  0  0
  5  1  2  0  0  0  0
  6 23  1  6  0  0  0
  6  3  1  0  0  0  0
  6  4  1  0  0  0  0
  7  8  1  6  0  0  0
  9  7  1  0  0  0  0
  9 10  1  0  0  0  0
 10 11  1  6  0  0  0
 12 20  1  6  0  0  0
 12 10  1  0  0  0  0
 12 13  1  0  0  0  0
 13 14  1  0  0  0  0
 16 18  1  0  0  0  0
 17 18  1  0  0  0  0
 18 19  1  0  0  0  0
 18 15  1  0  0  0  0
 19 14  1  6  0  0  0
 19 15  1  0  0  0  0
 21 20  1  0  0  0  0
 22 21  1  0  0  0  0
 24 23  1  0  0  0  0
 25 24  1  0  0  0  0
 26 27  1  0  0  0  0
 28 35  1  0  0  0  0
 28 26  2  0  0  0  0
 29 31  1  0  0  0  0
 30 29  1  0  0  0  0
 30 34  1  0  0  0  0
 31 25  1  1  0  0  0
 31 36  1  0  0  0  0
 32 36  1  0  0  0  0
 32 27  2  0  0  0  0
 33 34  2  0  0  0  0
 33 28  1  0  0  0  0
 34 32  1  0  0  0  0
M  END
>  <MODEL>
9

>  <REMARK>
 VINA RESULT:      -7.1      3.386      6.131
  Name = 
  13 active torsions:
  status: ('A' for Active; 'I' for Inactive)
    1  A    between atoms: O_1  and  C_21
    2  A    between atoms: O_2  and  C_12
    3  A    between atoms: O_2  and  C_25
    4  A    between atoms: C_6  and  C_12
    5  A    between atoms: C_7  and  C_17
    6  A    between atoms: C_7  and  O_22
    7  A    between atoms: C_9  and  O_22
    8  A    between atoms: C_9  and  C_35
    9  A    between atoms: N_13  and  C_20
   10  A    between atoms: N_13  and  C_33
   11  A    between atoms: C_20  and  C_36
   12  A    between atoms: C_21  and  C_33
   13  A    between atoms: C_25  and  C_33
                            x       y       z     vdW  Elec       q    Type
                         _______ _______ _______ _____ _____    ______ ____

>  <TORSDO>
F 13

$$$$
