=
 OpenBabel11042422343D

 60 69  0  0  1  0  0  0  0  0999 V2000
  161.4640  210.2970  150.8140 C   0  0  0  0  0  3  0  0  0  0  0  0
  161.5160  207.5130  150.4640 C   0  0  0  0  0  0  0  0  0  0  0  0
  162.2150  209.7430  149.7700 C   0  0  0  0  0  0  0  0  0  0  0  0
  160.7590  208.0860  151.4930 C   0  0  0  0  0  3  0  0  0  0  0  0
  162.9670  207.8000  148.5370 O   0  0  0  0  0  1  0  0  0  0  0  0
  162.2420  208.3480  149.5930 C   0  0  0  0  0  0  0  0  0  0  0  0
  160.7240  209.4730  151.6680 C   0  0  0  0  0  0  0  0  0  0  0  0
  160.9730  207.0050  147.1800 C   0  0  0  0  0  3  0  0  0  0  0  0
  161.3820  203.4610  147.1100 C   0  0  0  0  0  0  0  0  0  0  0  0
  161.4840  205.3680  149.1470 N   0  0  0  0  0  0  0  0  0  0  0  0
  160.8050  206.8380  145.9010 N   0  0  0  0  0  0  0  0  0  0  0  0
  160.3170  204.6880  144.7250 C   0  0  0  0  0  3  0  0  0  0  0  0
  161.5650  204.0620  149.4770 C   0  0  0  0  0  0  0  0  0  0  0  0
  161.5160  205.7880  147.7730 C   0  0  0  0  0  0  0  0  0  0  0  0
  160.7250  202.7210  146.2020 C   0  0  0  0  0  0  0  0  0  0  0  0
  161.5960  204.8890  146.8160 C   0  0  0  0  0  0  0  0  0  0  0  0
  161.3030  205.5170  145.5100 C   0  0  2  0  0  3  0  0  0  0  0  0
  161.6490  203.8430  150.8020 N   0  0  0  0  0  0  0  0  0  0  0  0
  161.5240  203.0300  148.4780 N   0  0  0  0  0  2  0  0  0  0  0  0
  160.1110  203.3910  145.0130 C   0  0  0  0  0  3  0  0  0  0  0  0
  161.6360  205.0960  151.3280 C   0  0  0  0  0  0  0  0  0  0  0  0
  161.5410  206.0430  150.3120 C   0  0  0  0  0  0  0  0  0  0  0  0
  160.8610  206.6390  153.0920 C   0  0  1  0  0  3  0  0  0  0  0  0
  162.3710  206.7290  153.0630 C   0  0  0  0  0  2  0  0  0  0  0  0
  161.6820  205.3960  152.7990 C   0  0  2  0  0  3  0  0  0  0  0  0
  160.4040  206.6500  154.5360 C   0  0  0  0  0  2  0  0  0  0  0  0
  159.9600  209.5330  156.8000 C   0  0  0  0  0  2  0  0  0  0  0  0
  162.2320  209.1600  156.6420 C   0  0  0  0  0  2  0  0  0  0  0  0
  161.5250  207.8670  156.3210 C   0  0  2  0  0  3  0  0  0  0  0  0
  161.2500  210.0520  157.2300 N   0  0  0  0  0  2  0  0  0  0  0  0
  160.6810  208.0200  155.1390 C   0  0  2  0  0  3  0  0  0  0  0  0
  160.0860  208.1130  156.4850 N   0  0  2  0  0  0  0  0  0  0  0  0
  160.4460  201.3430  146.4680 N   0  0  0  0  0  2  0  0  0  0  0  0
  160.2380  200.3800  145.3980 C   0  0  0  0  0  2  0  0  0  0  0  0
  161.8080  199.2900  146.8150 O   0  0  0  0  0  1  0  0  0  0  0  0
  161.0440  199.1220  145.6580 C   0  0  0  0  0  2  0  0  0  0  0  0
  159.8900  210.0590  152.7580 C   0  0  0  0  0  2  0  0  0  0  0  0
  160.0050  211.5760  152.7390 C   0  0  0  0  0  2  0  0  0  0  0  0
  159.0290  213.5200  151.5120 C   0  0  0  0  0  0  0  0  0  0  0  0
  160.1610  214.0600  151.3910 O   0  0  0  0  0  0  0  0  0  0  0  0
  158.9510  212.1510  151.9230 N   0  0  0  0  0  2  0  0  0  0  0  0
  156.5880  213.9000  152.0800 C   0  0  2  0  0  3  0  0  0  0  0  0
  157.7790  214.3040  151.1740 C   0  0  2  0  0  3  0  0  0  0  0  0
  156.0030  213.9350  149.3360 C   0  0  1  0  0  0  0  0  0  0  0  0
  157.0760  212.8890  149.1660 C   0  0  0  0  0  2  0  0  0  0  0  0
  155.0310  213.6770  150.4810 C   0  0  0  0  0  2  0  0  0  0  0  0
  157.4550  214.2900  149.6560 C   0  0  2  0  0  3  0  0  0  0  0  0
  155.3890  214.4500  151.5920 O   0  0  0  0  0  0  0  0  0  0  0  0
  155.5150  214.4460  148.1340 O   0  0  0  0  0  1  0  0  0  0  0  0
  156.8140  214.3780  153.3790 O   0  0  0  0  0  0  0  0  0  0  0  0
  157.1590  213.2570  154.1470 C   0  0  1  0  0  3  0  0  0  0  0  0
  158.2680  213.5580  154.9440 O   0  0  0  0  0  1  0  0  0  0  0  0
  155.9700  212.8480  155.0170 C   0  0  2  0  0  3  0  0  0  0  0  0
  154.8470  212.4360  154.1870 N   0  0  0  0  0  1  0  0  0  0  0  0
  155.5550  214.0030  155.9150 C   0  0  0  0  0  2  0  0  0  0  0  0
  155.5640  213.6050  157.2520 O   0  0  0  0  0  1  0  0  0  0  0  0
  162.9450  210.6480  148.8390 C   0  0  0  0  0  2  0  0  0  0  0  0
  162.2620  212.0000  148.7560 C   0  0  0  0  0  2  0  0  0  0  0  0
  160.9360  212.6070  146.7620 C   0  0  0  0  0  1  0  0  0  0  0  0
  162.3300  212.5040  147.3330 C   0  0  0  0  0  2  0  0  0  0  0  0
  1  7  1  0  0  0  0
  2  4  1  0  0  0  0
  3  1  2  0  0  0  0
  4  7  2  0  0  0  0
  5  6  1  0  0  0  0
  6  3  1  0  0  0  0
  6  2  2  0  0  0  0
  7 37  1  0  0  0  0
  8 14  1  0  0  0  0
  9 19  1  0  0  0  0
 10 13  1  0  0  0  0
 10 22  1  0  0  0  0
 11  8  2  0  0  0  0
 12 20  2  0  0  0  0
 13 18  2  0  0  0  0
 14 10  1  0  0  0  0
 15 33  1  0  0  0  0
 15  9  2  0  0  0  0
 16  9  1  0  0  0  0
 16 14  2  0  0  0  0
 17 12  1  1  0  0  0
 17 11  1  0  0  0  0
 17 16  1  0  0  0  0
 18 21  1  0  0  0  0
 19 13  1  0  0  0  0
 20 15  1  0  0  0  0
 22  2  1  0  0  0  0
 22 21  2  0  0  0  0
 23 26  1  1  0  0  0
 24 23  1  0  0  0  0
 25 21  1  6  0  0  0
 25 24  1  0  0  0  0
 25 23  1  0  0  0  0
 27 30  1  0  0  0  0
 28 30  1  0  0  0  0
 29 32  1  0  0  0  0
 29 28  1  1  0  0  0
 31 26  1  6  0  0  0
 31 29  1  0  0  0  0
 31 32  1  0  0  0  0
 32 27  1  1  0  0  0
 34 36  1  0  0  0  0
 34 33  1  0  0  0  0
 36 35  1  0  0  0  0
 38 37  1  0  0  0  0
 39 41  1  0  0  0  0
 40 39  2  0  0  0  0
 41 38  1  0  0  0  0
 42 50  1  1  0  0  0
 43 39  1  6  0  0  0
 43 42  1  0  0  0  0
 44 49  1  6  0  0  0
 44 47  1  0  0  0  0
 44 46  1  0  0  0  0
 45 44  1  0  0  0  0
 46 48  1  0  0  0  0
 47 45  1  6  0  0  0
 47 43  1  0  0  0  0
 48 42  1  0  0  0  0
 50 51  1  0  0  0  0
 51 52  1  1  0  0  0
 51 53  1  0  0  0  0
 53 54  1  6  0  0  0
 53 55  1  0  0  0  0
 55 56  1  0  0  0  0
 57  3  1  0  0  0  0
 58 57  1  0  0  0  0
 59 60  1  0  0  0  0
 60 58  1  0  0  0  0
M  END
>  <MODEL>
1

>  <REMARK>
 VINA RESULT:      -6.2      0.000      0.000
  Name = 
  18 active torsions:
  status: ('A' for Active; 'I' for Inactive)
    1  A    between atoms: C_2  and  C_11
    2  A    between atoms: C_6  and  C_51
    3  A    between atoms: C_9  and  O_27
    4  A    between atoms: C_12  and  C_54
    5  A    between atoms: C_13  and  C_52
    6  A    between atoms: C_13  and  C_54
    7  A    between atoms: N_20  and  C_24
    8  A    between atoms: N_20  and  C_35
    9  A    between atoms: C_21  and  C_38
   10  A    between atoms: C_21  and  C_58
   11  A    between atoms: O_27  and  C_41
   12  A    between atoms: C_30  and  CA_49
   13  A    between atoms: C_31  and  C_33
   14  A    between atoms: C_33  and  C_45
   15  A    between atoms: C_35  and  C_44
   16  A    between atoms: C_36  and  C_47
   17  A    between atoms: C_38  and  N_57
   18  A    between atoms: C_41  and  CA_49
                            x       y       z     vdW  Elec       q    Type
                         _______ _______ _______ _____ _____    ______ ____

>  <TORSDO>
F 18

$$$$
=
 OpenBabel11042422343D

 60 69  0  0  1  0  0  0  0  0999 V2000
  161.3920  213.0140  145.6090 C   0  0  0  0  0  3  0  0  0  0  0  0
  161.3700  211.6820  148.0800 C   0  0  0  0  0  0  0  0  0  0  0  0
  162.5370  213.0260  146.4130 C   0  0  0  0  0  0  0  0  0  0  0  0
  160.2390  211.6680  147.2550 C   0  0  0  0  0  3  0  0  0  0  0  0
  163.6790  212.3480  148.4380 O   0  0  0  0  0  1  0  0  0  0  0  0
  162.5290  212.3590  147.6520 C   0  0  0  0  0  0  0  0  0  0  0  0
  160.2460  212.3250  146.0210 C   0  0  0  0  0  0  0  0  0  0  0  0
  161.6400  208.4180  147.2970 C   0  0  0  0  0  3  0  0  0  0  0  0
  161.7970  207.0840  150.6020 C   0  0  0  0  0  0  0  0  0  0  0  0
  161.5190  209.6690  149.5840 N   0  0  0  0  0  0  0  0  0  0  0  0
  161.7890  207.1670  146.9710 N   0  0  0  0  0  0  0  0  0  0  0  0
  161.4610  205.1850  148.4550 C   0  0  0  0  0  3  0  0  0  0  0  0
  161.4190  209.4830  150.9160 C   0  0  0  0  0  0  0  0  0  0  0  0
  161.9270  208.5990  148.7150 C   0  0  0  0  0  0  0  0  0  0  0  0
  161.3400  205.8480  150.8570 C   0  0  0  0  0  0  0  0  0  0  0  0
  162.1810  207.4100  149.2170 C   0  0  0  0  0  0  0  0  0  0  0  0
  162.2740  206.4140  148.1290 C   0  0  2  0  0  3  0  0  0  0  0  0
  161.1500  210.6100  151.6020 N   0  0  0  0  0  0  0  0  0  0  0  0
  161.5570  208.1810  151.5070 N   0  0  0  0  0  2  0  0  0  0  0  0
  161.0960  204.9060  149.7190 C   0  0  0  0  0  3  0  0  0  0  0  0
  161.0940  211.5600  150.6320 C   0  0  0  0  0  0  0  0  0  0  0  0
  161.3270  210.9880  149.3840 C   0  0  0  0  0  0  0  0  0  0  0  0
  159.3420  213.1580  151.3180 C   0  0  1  0  0  3  0  0  0  0  0  0
  159.7400  213.5240  149.9060 C   0  0  0  0  0  2  0  0  0  0  0  0
  160.7880  213.0090  150.8830 C   0  0  2  0  0  3  0  0  0  0  0  0
  159.1500  214.4330  152.1120 C   0  0  0  0  0  2  0  0  0  0  0  0
  156.7180  212.7470  154.3200 C   0  0  0  0  0  2  0  0  0  0  0  0
  158.6890  212.9090  155.5090 C   0  0  0  0  0  2  0  0  0  0  0  0
  159.0270  212.9530  154.0400 C   0  0  2  0  0  3  0  0  0  0  0  0
  157.3100  212.4680  155.6190 N   0  0  0  0  0  2  0  0  0  0  0  0
  158.4090  214.1130  153.4030 C   0  0  2  0  0  3  0  0  0  0  0  0
  157.7660  212.7890  153.3040 N   0  0  2  0  0  0  0  0  0  0  0  0
  160.9040  205.5020  152.1750 N   0  0  0  0  0  2  0  0  0  0  0  0
  161.7160  205.7780  153.3500 C   0  0  0  0  0  2  0  0  0  0  0  0
  160.4620  206.5650  155.2110 O   0  0  0  0  0  1  0  0  0  0  0  0
  161.1770  206.9870  154.0890 C   0  0  0  0  0  2  0  0  0  0  0  0
  159.0350  212.2740  145.1500 C   0  0  0  0  0  2  0  0  0  0  0  0
  159.1170  213.3560  144.0840 C   0  0  0  0  0  2  0  0  0  0  0  0
  159.6730  212.2850  141.8970 C   0  0  0  0  0  0  0  0  0  0  0  0
  160.7340  211.7920  142.3660 O   0  0  0  0  0  0  0  0  0  0  0  0
  158.7010  212.8290  142.7970 N   0  0  0  0  0  2  0  0  0  0  0  0
  160.2030  213.3640  139.6660 C   0  0  2  0  0  3  0  0  0  0  0  0
  159.4190  212.2500  140.4060 C   0  0  2  0  0  3  0  0  0  0  0  0
  157.4810  213.2180  139.0010 C   0  0  1  0  0  0  0  0  0  0  0  0
  157.1840  213.4850  140.4550 C   0  0  0  0  0  2  0  0  0  0  0  0
  158.5320  214.1310  138.3820 C   0  0  0  0  0  2  0  0  0  0  0  0
  157.9090  212.1960  140.0550 C   0  0  2  0  0  3  0  0  0  0  0  0
  159.7660  213.4730  138.3340 O   0  0  0  0  0  0  0  0  0  0  0  0
  156.3600  212.8660  138.2500 O   0  0  0  0  0  1  0  0  0  0  0  0
  161.5690  213.0510  139.6740 O   0  0  0  0  0  0  0  0  0  0  0  0
  161.9230  212.8360  138.3350 C   0  0  1  0  0  3  0  0  0  0  0  0
  162.8300  213.8200  137.9250 O   0  0  0  0  0  1  0  0  0  0  0  0
  162.5410  211.4450  138.1870 C   0  0  2  0  0  3  0  0  0  0  0  0
  161.5260  210.4720  137.8080 N   0  0  0  0  0  1  0  0  0  0  0  0
  163.2030  211.0230  139.4890 C   0  0  0  0  0  2  0  0  0  0  0  0
  162.4620  210.0150  140.1050 O   0  0  0  0  0  1  0  0  0  0  0  0
  163.7630  213.7160  145.9240 C   0  0  0  0  0  2  0  0  0  0  0  0
  163.4850  214.4530  144.6280 C   0  0  0  0  0  2  0  0  0  0  0  0
  163.1600  214.1800  142.1940 C   0  0  0  0  0  1  0  0  0  0  0  0
  163.4460  213.4600  143.4900 C   0  0  0  0  0  2  0  0  0  0  0  0
  1  7  2  0  0  0  0
  1  3  1  0  0  0  0
  2 22  1  0  0  0  0
  3  6  2  0  0  0  0
  4  2  2  0  0  0  0
  6  2  1  0  0  0  0
  6  5  1  0  0  0  0
  7  4  1  0  0  0  0
  8 14  1  0  0  0  0
  9 15  2  0  0  0  0
  9 19  1  0  0  0  0
 10 13  1  0  0  0  0
 11  8  2  0  0  0  0
 11 17  1  0  0  0  0
 12 20  2  0  0  0  0
 13 19  1  0  0  0  0
 13 18  2  0  0  0  0
 14 16  2  0  0  0  0
 14 10  1  0  0  0  0
 15 33  1  0  0  0  0
 16  9  1  0  0  0  0
 17 12  1  1  0  0  0
 17 16  1  0  0  0  0
 20 15  1  0  0  0  0
 21 18  1  0  0  0  0
 22 10  1  0  0  0  0
 22 21  2  0  0  0  0
 23 26  1  1  0  0  0
 24 25  1  0  0  0  0
 24 23  1  0  0  0  0
 25 21  1  6  0  0  0
 25 23  1  0  0  0  0
 27 30  1  0  0  0  0
 28 30  1  0  0  0  0
 29 28  1  1  0  0  0
 31 26  1  6  0  0  0
 31 29  1  0  0  0  0
 32 31  1  0  0  0  0
 32 29  1  0  0  0  0
 32 27  1  1  0  0  0
 33 34  1  0  0  0  0
 34 36  1  0  0  0  0
 36 35  1  0  0  0  0
 37  7  1  0  0  0  0
 38 37  1  0  0  0  0
 39 40  2  0  0  0  0
 39 41  1  0  0  0  0
 41 38  1  0  0  0  0
 42 50  1  6  0  0  0
 42 43  1  0  0  0  0
 43 39  1  1  0  0  0
 44 49  1  6  0  0  0
 44 47  1  0  0  0  0
 44 45  1  0  0  0  0
 46 44  1  0  0  0  0
 47 43  1  0  0  0  0
 47 45  1  1  0  0  0
 48 46  1  0  0  0  0
 48 42  1  0  0  0  0
 51 52  1  1  0  0  0
 51 50  1  0  0  0  0
 53 54  1  1  0  0  0
 53 51  1  0  0  0  0
 53 55  1  0  0  0  0
 55 56  1  0  0  0  0
 57  3  1  0  0  0  0
 58 57  1  0  0  0  0
 59 60  1  0  0  0  0
 60 58  1  0  0  0  0
M  END
>  <MODEL>
2

>  <REMARK>
 VINA RESULT:      -6.1      5.131      9.152
  Name = 
  18 active torsions:
  status: ('A' for Active; 'I' for Inactive)
    1  A    between atoms: C_2  and  C_11
    2  A    between atoms: C_6  and  C_51
    3  A    between atoms: C_9  and  O_27
    4  A    between atoms: C_12  and  C_54
    5  A    between atoms: C_13  and  C_52
    6  A    between atoms: C_13  and  C_54
    7  A    between atoms: N_20  and  C_24
    8  A    between atoms: N_20  and  C_35
    9  A    between atoms: C_21  and  C_38
   10  A    between atoms: C_21  and  C_58
   11  A    between atoms: O_27  and  C_41
   12  A    between atoms: C_30  and  CA_49
   13  A    between atoms: C_31  and  C_33
   14  A    between atoms: C_33  and  C_45
   15  A    between atoms: C_35  and  C_44
   16  A    between atoms: C_36  and  C_47
   17  A    between atoms: C_38  and  N_57
   18  A    between atoms: C_41  and  CA_49
                            x       y       z     vdW  Elec       q    Type
                         _______ _______ _______ _____ _____    ______ ____

>  <TORSDO>
F 18

$$$$
=
 OpenBabel11042422343D

 60 69  0  0  1  0  0  0  0  0999 V2000
  161.1880  213.1840  145.5280 C   0  0  0  0  0  3  0  0  0  0  0  0
  161.1990  211.8190  147.9790 C   0  0  0  0  0  0  0  0  0  0  0  0
  162.3190  213.2450  146.3490 C   0  0  0  0  0  0  0  0  0  0  0  0
  160.0820  211.7580  147.1370 C   0  0  0  0  0  3  0  0  0  0  0  0
  163.4640  212.5980  148.3820 O   0  0  0  0  0  1  0  0  0  0  0  0
  162.3280  212.5610  147.5790 C   0  0  0  0  0  0  0  0  0  0  0  0
  160.0730  212.4310  145.9120 C   0  0  0  0  0  0  0  0  0  0  0  0
  161.5740  208.5770  147.1520 C   0  0  0  0  0  3  0  0  0  0  0  0
  161.7620  207.2020  150.4390 C   0  0  0  0  0  0  0  0  0  0  0  0
  161.4060  209.7900  149.4560 N   0  0  0  0  0  0  0  0  0  0  0  0
  161.7640  207.3360  146.8080 N   0  0  0  0  0  0  0  0  0  0  0  0
  161.4940  205.3240  148.2630 C   0  0  0  0  0  3  0  0  0  0  0  0
  161.3070  209.5830  150.7850 C   0  0  0  0  0  0  0  0  0  0  0  0
  161.8500  208.7460  148.5730 C   0  0  0  0  0  0  0  0  0  0  0  0
  161.3430  205.9480  150.6740 C   0  0  0  0  0  0  0  0  0  0  0  0
  162.1400  207.5590  149.0600 C   0  0  0  0  0  0  0  0  0  0  0  0
  162.2680  206.5820  147.9580 C   0  0  2  0  0  3  0  0  0  0  0  0
  161.0000  210.6900  151.4850 N   0  0  0  0  0  0  0  0  0  0  0  0
  161.4840  208.2770  151.3580 N   0  0  0  0  0  2  0  0  0  0  0  0
  161.1330  205.0150  149.5220 C   0  0  0  0  0  3  0  0  0  0  0  0
  160.9180  211.6520  150.5280 C   0  0  0  0  0  0  0  0  0  0  0  0
  161.1730  211.1060  149.2740 C   0  0  0  0  0  0  0  0  0  0  0  0
  159.0950  213.1920  151.1600 C   0  0  1  0  0  3  0  0  0  0  0  0
  159.5570  213.6040  149.7800 C   0  0  0  0  0  2  0  0  0  0  0  0
  160.5650  213.0870  150.7990 C   0  0  2  0  0  3  0  0  0  0  0  0
  158.8320  214.4430  151.9740 C   0  0  0  0  0  2  0  0  0  0  0  0
  157.1680  213.9350  155.2310 C   0  0  0  0  0  2  0  0  0  0  0  0
  158.5410  212.1100  154.8990 C   0  0  0  0  0  2  0  0  0  0  0  0
  158.2080  212.6940  153.5490 C   0  0  2  0  0  3  0  0  0  0  0  0
  157.6330  212.7080  155.8610 N   0  0  0  0  0  2  0  0  0  0  0  0
  158.7020  214.0650  153.4430 C   0  0  2  0  0  3  0  0  0  0  0  0
  157.2880  213.8160  153.7810 N   0  0  2  0  0  0  0  0  0  0  0  0
  160.9130  205.5700  151.9850 N   0  0  0  0  0  2  0  0  0  0  0  0
  161.8570  205.3610  153.0720 C   0  0  0  0  0  2  0  0  0  0  0  0
  160.2700  206.5580  154.3800 O   0  0  0  0  0  1  0  0  0  0  0  0
  161.6390  206.3930  154.1630 C   0  0  0  0  0  2  0  0  0  0  0  0
  158.8790  212.3310  145.0220 C   0  0  0  0  0  2  0  0  0  0  0  0
  158.6740  213.6420  144.2790 C   0  0  0  0  0  2  0  0  0  0  0  0
  159.0080  212.6860  141.9960 C   0  0  0  0  0  0  0  0  0  0  0  0
  159.8650  211.8660  142.4240 O   0  0  0  0  0  0  0  0  0  0  0  0
  158.1880  213.3890  142.9350 N   0  0  0  0  0  2  0  0  0  0  0  0
  158.7540  211.5200  139.7600 C   0  0  2  0  0  3  0  0  0  0  0  0
  158.8250  212.8770  140.5060 C   0  0  2  0  0  3  0  0  0  0  0  0
  160.5470  213.3670  138.6450 C   0  0  1  0  0  0  0  0  0  0  0  0
  161.2770  213.3470  139.9640 C   0  0  0  0  0  2  0  0  0  0  0  0
  160.1790  211.9950  138.0950 C   0  0  0  0  0  2  0  0  0  0  0  0
  159.8430  213.8810  139.9000 C   0  0  2  0  0  3  0  0  0  0  0  0
  158.8350  211.7170  138.3700 O   0  0  0  0  0  0  0  0  0  0  0  0
  160.9940  214.3530  137.7660 O   0  0  0  0  0  1  0  0  0  0  0  0
  157.5370  210.8920  140.0610 O   0  0  0  0  0  0  0  0  0  0  0  0
  156.9270  210.6220  138.8290 C   0  0  1  0  0  3  0  0  0  0  0  0
  157.2630  209.3310  138.4090 O   0  0  0  0  0  1  0  0  0  0  0  0
  155.4100  210.7600  138.9690 C   0  0  2  0  0  3  0  0  0  0  0  0
  154.7290  209.9750  137.9490 N   0  0  0  0  0  1  0  0  0  0  0  0
  155.0030  212.2210  138.8560 C   0  0  0  0  0  2  0  0  0  0  0  0
  154.7150  212.7420  140.1170 O   0  0  0  0  0  1  0  0  0  0  0  0
  163.5140  214.0040  145.8870 C   0  0  0  0  0  2  0  0  0  0  0  0
  163.9640  213.5220  144.5220 C   0  0  0  0  0  2  0  0  0  0  0  0
  163.0300  213.3270  142.2430 C   0  0  0  0  0  1  0  0  0  0  0  0
  163.1500  214.2180  143.4560 C   0  0  0  0  0  2  0  0  0  0  0  0
  1  7  2  0  0  0  0
  1  3  1  0  0  0  0
  2 22  1  0  0  0  0
  3  6  2  0  0  0  0
  4  2  2  0  0  0  0
  6  2  1  0  0  0  0
  6  5  1  0  0  0  0
  7  4  1  0  0  0  0
  8 14  1  0  0  0  0
  9 15  2  0  0  0  0
  9 19  1  0  0  0  0
 10 13  1  0  0  0  0
 11  8  2  0  0  0  0
 11 17  1  0  0  0  0
 12 20  2  0  0  0  0
 13 19  1  0  0  0  0
 13 18  2  0  0  0  0
 14 16  2  0  0  0  0
 14 10  1  0  0  0  0
 15 33  1  0  0  0  0
 16  9  1  0  0  0  0
 17 12  1  1  0  0  0
 17 16  1  0  0  0  0
 20 15  1  0  0  0  0
 21 18  1  0  0  0  0
 22 10  1  0  0  0  0
 22 21  2  0  0  0  0
 23 26  1  1  0  0  0
 24 25  1  0  0  0  0
 24 23  1  0  0  0  0
 25 21  1  6  0  0  0
 25 23  1  0  0  0  0
 27 30  1  0  0  0  0
 28 30  1  0  0  0  0
 29 32  1  0  0  0  0
 29 28  1  1  0  0  0
 31 26  1  6  0  0  0
 31 29  1  0  0  0  0
 31 32  1  0  0  0  0
 32 27  1  1  0  0  0
 33 34  1  0  0  0  0
 34 36  1  0  0  0  0
 36 35  1  0  0  0  0
 37  7  1  0  0  0  0
 38 37  1  0  0  0  0
 39 40  2  0  0  0  0
 39 41  1  0  0  0  0
 41 38  1  0  0  0  0
 42 50  1  6  0  0  0
 42 43  1  0  0  0  0
 43 39  1  1  0  0  0
 44 49  1  6  0  0  0
 44 47  1  0  0  0  0
 44 45  1  0  0  0  0
 46 48  1  0  0  0  0
 46 44  1  0  0  0  0
 47 45  1  1  0  0  0
 47 43  1  0  0  0  0
 48 42  1  0  0  0  0
 51 52  1  1  0  0  0
 51 53  1  0  0  0  0
 51 50  1  0  0  0  0
 53 54  1  6  0  0  0
 55 53  1  0  0  0  0
 55 56  1  0  0  0  0
 57  3  1  0  0  0  0
 58 57  1  0  0  0  0
 59 60  1  0  0  0  0
 60 58  1  0  0  0  0
M  END
>  <MODEL>
3

>  <REMARK>
 VINA RESULT:      -5.1      5.229      8.983
  Name = 
  18 active torsions:
  status: ('A' for Active; 'I' for Inactive)
    1  A    between atoms: C_2  and  C_11
    2  A    between atoms: C_6  and  C_51
    3  A    between atoms: C_9  and  O_27
    4  A    between atoms: C_12  and  C_54
    5  A    between atoms: C_13  and  C_52
    6  A    between atoms: C_13  and  C_54
    7  A    between atoms: N_20  and  C_24
    8  A    between atoms: N_20  and  C_35
    9  A    between atoms: C_21  and  C_38
   10  A    between atoms: C_21  and  C_58
   11  A    between atoms: O_27  and  C_41
   12  A    between atoms: C_30  and  CA_49
   13  A    between atoms: C_31  and  C_33
   14  A    between atoms: C_33  and  C_45
   15  A    between atoms: C_35  and  C_44
   16  A    between atoms: C_36  and  C_47
   17  A    between atoms: C_38  and  N_57
   18  A    between atoms: C_41  and  CA_49
                            x       y       z     vdW  Elec       q    Type
                         _______ _______ _______ _____ _____    ______ ____

>  <TORSDO>
F 18

$$$$
=
 OpenBabel11042422343D

 60 69  0  0  1  0  0  0  0  0999 V2000
  160.7710  208.6100  154.5820 C   0  0  0  0  0  3  0  0  0  0  0  0
  161.1790  208.2460  151.8290 C   0  0  0  0  0  0  0  0  0  0  0  0
  161.4730  207.4880  154.1280 C   0  0  0  0  0  0  0  0  0  0  0  0
  160.4920  209.3700  152.3030 C   0  0  0  0  0  3  0  0  0  0  0  0
  162.4030  206.2010  152.2990 O   0  0  0  0  0  1  0  0  0  0  0  0
  161.6790  207.3030  152.7480 C   0  0  0  0  0  0  0  0  0  0  0  0
  160.2910  209.5600  153.6740 C   0  0  0  0  0  0  0  0  0  0  0  0
  160.8270  204.9330  151.3430 C   0  0  0  0  0  3  0  0  0  0  0  0
  161.0310  204.8880  147.7810 C   0  0  0  0  0  0  0  0  0  0  0  0
  161.1960  206.9180  149.6900 N   0  0  0  0  0  0  0  0  0  0  0  0
  160.6440  203.6550  151.1770 N   0  0  0  0  0  0  0  0  0  0  0  0
  161.1320  202.3310  149.1160 C   0  0  0  0  0  2  0  0  0  0  0  0
  161.4400  207.2220  148.3990 C   0  0  0  0  0  0  0  0  0  0  0  0
  160.6960  205.6240  150.0660 C   0  0  0  0  0  0  0  0  0  0  0  0
  161.5140  203.8090  147.1430 C   0  0  0  0  0  0  0  0  0  0  0  0
  160.4980  204.7070  149.1430 C   0  0  0  0  0  0  0  0  0  0  0  0
  160.2880  203.3900  149.7810 C   0  0  0  0  0  0  0  0  0  0  0  0
  161.7820  208.5080  148.2000 N   0  0  0  0  0  0  0  0  0  0  0  0
  161.3680  206.2260  147.3650 N   0  0  0  0  0  2  0  0  0  0  0  0
  161.6330  202.5120  147.8810 C   0  0  0  0  0  3  0  0  0  0  0  0
  161.7320  209.0420  149.4490 C   0  0  0  0  0  0  0  0  0  0  0  0
  161.3640  208.0680  150.3740 C   0  0  0  0  0  0  0  0  0  0  0  0
  162.0020  211.3080  148.5080 C   0  0  1  0  0  3  0  0  0  0  0  0
  163.3450  210.9060  149.0750 C   0  0  0  0  0  2  0  0  0  0  0  0
  162.0630  210.4710  149.7730 C   0  0  2  0  0  3  0  0  0  0  0  0
  161.7520  212.7640  148.8430 C   0  0  0  0  0  2  0  0  0  0  0  0
  160.1580  213.8480  145.6940 C   0  0  0  0  0  2  0  0  0  0  0  0
  158.5770  212.6280  146.8490 C   0  0  0  0  0  2  0  0  0  0  0  0
  159.9400  212.1910  147.3230 C   0  0  2  0  0  3  0  0  0  0  0  0
  158.7730  213.4080  145.6410 N   0  0  0  0  0  2  0  0  0  0  0  0
  160.6570  213.3060  147.9350 C   0  0  2  0  0  3  0  0  0  0  0  0
  160.9290  212.9360  146.5340 N   0  0  2  0  0  0  0  0  0  0  0  0
  162.0910  203.9450  145.8410 N   0  0  0  0  0  2  0  0  0  0  0  0
  161.2800  203.9150  144.6340 C   0  0  0  0  0  2  0  0  0  0  0  0
  161.3140  206.2860  144.4460 O   0  0  0  0  0  1  0  0  0  0  0  0
  161.6010  205.1080  143.7550 C   0  0  0  0  0  2  0  0  0  0  0  0
  159.5760  210.7780  154.1540 C   0  0  0  0  0  2  0  0  0  0  0  0
  160.2150  212.0230  153.5590 C   0  0  0  0  0  2  0  0  0  0  0  0
  158.5530  213.8100  154.0920 C   0  0  0  0  0  0  0  0  0  0  0  0
  159.1770  214.1300  155.1390 O   0  0  0  0  0  0  0  0  0  0  0  0
  159.1920  212.9610  153.1330 N   0  0  0  0  0  2  0  0  0  0  0  0
  156.0970  213.6330  154.6940 C   0  0  2  0  0  3  0  0  0  0  0  0
  157.1660  214.3630  153.8410 C   0  0  2  0  0  3  0  0  0  0  0  0
  155.4610  213.8540  151.9700 C   0  0  1  0  0  0  0  0  0  0  0  0
  156.7150  213.0670  151.6860 C   0  0  0  0  0  2  0  0  0  0  0  0
  154.5820  213.2840  153.0770 C   0  0  0  0  0  2  0  0  0  0  0  0
  156.8200  214.4520  152.3310 C   0  0  2  0  0  3  0  0  0  0  0  0
  154.8030  213.9850  154.2680 O   0  0  0  0  0  0  0  0  0  0  0  0
  154.8580  214.3870  150.8320 O   0  0  0  0  0  1  0  0  0  0  0  0
  156.2500  214.0000  156.0380 O   0  0  0  0  0  0  0  0  0  0  0  0
  155.8580  212.8840  156.7900 C   0  0  1  0  0  3  0  0  0  0  0  0
  154.5530  213.0690  157.2600 O   0  0  0  0  0  1  0  0  0  0  0  0
  155.9390  211.6290  155.9200 C   0  0  2  0  0  3  0  0  0  0  0  0
  154.8370  210.7260  156.2210 N   0  0  0  0  0  1  0  0  0  0  0  0
  157.2660  210.9200  156.1450 C   0  0  0  0  0  2  0  0  0  0  0  0
  158.1260  211.7280  156.8890 O   0  0  0  0  0  1  0  0  0  0  0  0
  162.0260  206.5240  155.1200 C   0  0  0  0  0  2  0  0  0  0  0  0
  162.5250  207.2490  156.3550 C   0  0  0  0  0  2  0  0  0  0  0  0
  161.5930  209.3510  157.2600 C   0  0  0  0  0  1  0  0  0  0  0  0
  161.3510  207.8720  157.0730 C   0  0  0  0  0  2  0  0  0  0  0  0
  2  4  2  0  0  0  0
  2  6  1  0  0  0  0
  3  1  1  0  0  0  0
  3 57  1  0  0  0  0
  4  7  1  0  0  0  0
  5  6  1  0  0  0  0
  6  3  2  0  0  0  0
  7 37  1  0  0  0  0
  7  1  2  0  0  0  0
  9 16  2  0  0  0  0
 10 14  1  0  0  0  0
 10 22  1  0  0  0  0
 11  8  1  0  0  0  0
 12 17  1  0  0  0  0
 13 10  1  0  0  0  0
 14  8  2  0  0  0  0
 15  9  1  0  0  0  0
 15 20  2  0  0  0  0
 16 17  1  0  0  0  0
 16 14  1  0  0  0  0
 17 11  2  0  0  0  0
 18 13  2  0  0  0  0
 18 21  1  0  0  0  0
 19  9  1  0  0  0  0
 19 13  1  0  0  0  0
 20 12  1  0  0  0  0
 21 22  2  0  0  0  0
 22  2  1  0  0  0  0
 23 26  1  1  0  0  0
 23 24  1  0  0  0  0
 23 25  1  0  0  0  0
 24 25  1  0  0  0  0
 25 21  1  6  0  0  0
 29 28  1  6  0  0  0
 29 31  1  0  0  0  0
 30 27  1  0  0  0  0
 30 28  1  0  0  0  0
 31 26  1  1  0  0  0
 32 27  1  6  0  0  0
 32 29  1  0  0  0  0
 32 31  1  0  0  0  0
 33 15  1  0  0  0  0
 34 33  1  0  0  0  0
 36 35  1  0  0  0  0
 36 34  1  0  0  0  0
 38 37  1  0  0  0  0
 39 40  2  0  0  0  0
 41 38  1  0  0  0  0
 41 39  1  0  0  0  0
 42 50  1  1  0  0  0
 43 39  1  6  0  0  0
 43 42  1  0  0  0  0
 44 49  1  6  0  0  0
 44 47  1  0  0  0  0
 44 46  1  0  0  0  0
 45 44  1  0  0  0  0
 46 48  1  0  0  0  0
 47 45  1  6  0  0  0
 47 43  1  0  0  0  0
 48 42  1  0  0  0  0
 50 51  1  0  0  0  0
 51 52  1  6  0  0  0
 53 55  1  0  0  0  0
 53 54  1  1  0  0  0
 53 51  1  0  0  0  0
 55 56  1  0  0  0  0
 57 58  1  0  0  0  0
 58 60  1  0  0  0  0
 60 59  1  0  0  0  0
M  END
>  <MODEL>
4

>  <REMARK>
 VINA RESULT:      -4.7      2.252      5.551
  Name = 
  18 active torsions:
  status: ('A' for Active; 'I' for Inactive)
    1  A    between atoms: C_2  and  C_11
    2  A    between atoms: C_6  and  C_51
    3  A    between atoms: C_9  and  O_27
    4  A    between atoms: C_12  and  C_54
    5  A    between atoms: C_13  and  C_52
    6  A    between atoms: C_13  and  C_54
    7  A    between atoms: N_20  and  C_24
    8  A    between atoms: N_20  and  C_35
    9  A    between atoms: C_21  and  C_38
   10  A    between atoms: C_21  and  C_58
   11  A    between atoms: O_27  and  C_41
   12  A    between atoms: C_30  and  CA_49
   13  A    between atoms: C_31  and  C_33
   14  A    between atoms: C_33  and  C_45
   15  A    between atoms: C_35  and  C_44
   16  A    between atoms: C_36  and  C_47
   17  A    between atoms: C_38  and  N_57
   18  A    between atoms: C_41  and  CA_49
                            x       y       z     vdW  Elec       q    Type
                         _______ _______ _______ _____ _____    ______ ____

>  <TORSDO>
F 18

$$$$
=
 OpenBabel11042422343D

 60 70  0  0  1  0  0  0  0  0999 V2000
  160.8880  208.9480  154.2720 C   0  0  0  0  0  3  0  0  0  0  0  0
  161.2930  208.4720  151.5360 C   0  0  0  0  0  0  0  0  0  0  0  0
  161.2880  207.6780  153.8410 C   0  0  0  0  0  0  0  0  0  0  0  0
  160.9070  209.7400  151.9870 C   0  0  0  0  0  3  0  0  0  0  0  0
  161.9180  206.1810  152.0450 O   0  0  0  0  0  0  0  0  0  0  0  0
  161.4920  207.4370  152.4690 C   0  0  0  0  0  0  0  0  0  0  0  0
  160.7090  209.9850  153.3490 C   0  0  0  0  0  0  0  0  0  0  0  0
  160.8990  205.1490  151.1600 C   0  0  0  0  0  0  0  0  0  0  0  0
  161.1160  204.9810  147.6030 C   0  0  0  0  0  0  0  0  0  0  0  0
  161.3010  207.0730  149.4430 N   0  0  0  0  0  0  0  0  0  0  0  0
  160.7000  203.8700  151.0360 N   0  0  0  0  0  0  0  0  0  0  0  0
  161.1780  202.4700  149.0240 C   0  0  0  0  0  3  0  0  0  0  0  0
  161.5540  207.3290  148.1430 C   0  0  0  0  0  0  0  0  0  0  0  0
  160.7830  205.7980  149.8600 C   0  0  1  0  0  3  0  0  0  0  0  0
  161.5880  203.8750  147.0040 C   0  0  0  0  0  0  0  0  0  0  0  0
  160.5760  204.8530  148.9680 C   0  0  0  0  0  0  0  0  0  0  0  0
  160.3460  203.5620  149.6490 C   0  0  0  0  0  0  0  0  0  0  0  0
  161.9140  208.6030  147.9020 N   0  0  0  0  0  0  0  0  0  0  0  0
  161.4730  206.3000  147.1430 N   0  0  0  0  0  2  0  0  0  0  0  0
  161.6860  202.6020  147.7850 C   0  0  0  0  0  3  0  0  0  0  0  0
  161.8650  209.1800  149.1320 C   0  0  0  0  0  0  0  0  0  0  0  0
  161.4810  208.2430  150.0880 C   0  0  0  0  0  0  0  0  0  0  0  0
  161.8260  211.4730  148.2190 C   0  0  1  0  0  3  0  0  0  0  0  0
  163.2780  211.1150  148.4410 C   0  0  0  0  0  2  0  0  0  0  0  0
  162.2140  210.6140  149.4090 C   0  0  2  0  0  3  0  0  0  0  0  0
  161.6130  212.9110  148.6450 C   0  0  0  0  0  2  0  0  0  0  0  0
  159.8670  214.4520  145.7790 C   0  0  0  0  0  2  0  0  0  0  0  0
  158.4600  212.8240  146.6110 C   0  0  0  0  0  2  0  0  0  0  0  0
  159.8720  212.4650  147.0030 C   0  0  2  0  0  3  0  0  0  0  0  0
  158.5470  213.8670  145.6060 N   0  0  0  0  0  2  0  0  0  0  0  0
  160.4500  213.4990  147.8570 C   0  0  2  0  0  3  0  0  0  0  0  0
  160.7530  213.4810  146.4140 N   0  0  2  0  0  0  0  0  0  0  0  0
  162.1720  203.9600  145.7000 N   0  0  0  0  0  2  0  0  0  0  0  0
  161.8600  205.0490  144.7880 C   0  0  0  0  0  2  0  0  0  0  0  0
  159.9660  203.6830  144.3290 O   0  0  0  0  0  1  0  0  0  0  0  0
  160.8530  204.5920  143.7490 C   0  0  0  0  0  2  0  0  0  0  0  0
  160.3210  211.3510  153.8070 C   0  0  0  0  0  2  0  0  0  0  0  0
  159.1230  211.8440  153.0090 C   0  0  0  0  0  2  0  0  0  0  0  0
  157.4150  213.5300  153.7000 C   0  0  0  0  0  0  0  0  0  0  0  0
  157.3670  214.0140  152.5360 O   0  0  0  0  0  0  0  0  0  0  0  0
  158.0630  212.2700  153.9040 N   0  0  0  0  0  2  0  0  0  0  0  0
  157.2380  213.7320  156.2200 C   0  0  2  0  0  3  0  0  0  0  0  0
  156.7490  214.2590  154.8470 C   0  0  2  0  0  3  0  0  0  0  0  0
  154.4490  213.8990  155.9640 C   0  0  1  0  0  0  0  0  0  0  0  0
  154.5670  212.9300  154.8140 C   0  0  0  0  0  2  0  0  0  0  0  0
  155.2370  213.5160  157.2100 C   0  0  0  0  0  2  0  0  0  0  0  0
  155.2050  214.3190  154.7030 C   0  0  2  0  0  3  0  0  0  0  0  0
  156.4340  214.2390  157.2570 O   0  0  0  0  0  0  0  0  0  0  0  0
  153.1770  214.4530  156.1080 O   0  0  0  0  0  1  0  0  0  0  0  0
  158.5620  214.1420  156.4270 O   0  0  0  0  0  0  0  0  0  0  0  0
  159.1490  213.1580  157.2350 C   0  0  1  0  0  3  0  0  0  0  0  0
  158.4900  211.9390  157.0450 O   0  0  0  0  0  1  0  0  0  0  0  0
  160.6310  213.0240  156.8820 C   0  0  2  0  0  3  0  0  0  0  0  0
  160.8790  213.5000  155.5280 N   0  0  0  0  0  1  0  0  0  0  0  0
  161.0730  211.5750  157.0120 C   0  0  0  0  0  2  0  0  0  0  0  0
  162.3090  211.3890  156.3940 O   0  0  0  0  0  1  0  0  0  0  0  0
  161.5300  206.6090  154.8500 C   0  0  0  0  0  2  0  0  0  0  0  0
  161.6160  207.1960  156.2460 C   0  0  0  0  0  2  0  0  0  0  0  0
  159.3060  206.3300  156.1240 C   0  0  0  0  0  1  0  0  0  0  0  0
  160.2270  207.2970  156.8290 C   0  0  0  0  0  2  0  0  0  0  0  0
  2  4  2  0  0  0  0
  2  6  1  0  0  0  0
  3  1  1  0  0  0  0
  3 57  1  0  0  0  0
  4  7  1  0  0  0  0
  5  6  1  0  0  0  0
  6  3  2  0  0  0  0
  7 37  1  0  0  0  0
  7  1  2  0  0  0  0
  8  5  1  0  0  0  0
  9 16  1  0  0  0  0
 10 14  1  0  0  0  0
 10 22  1  0  0  0  0
 11  8  2  0  0  0  0
 12 17  1  0  0  0  0
 13 10  1  0  0  0  0
 14 16  1  6  0  0  0
 14  8  1  0  0  0  0
 15  9  2  0  0  0  0
 15 20  1  0  0  0  0
 16 17  2  0  0  0  0
 17 11  1  0  0  0  0
 18 13  2  0  0  0  0
 18 21  1  0  0  0  0
 19  9  1  0  0  0  0
 19 13  1  0  0  0  0
 20 12  2  0  0  0  0
 21 22  2  0  0  0  0
 22  2  1  0  0  0  0
 23 24  1  0  0  0  0
 23 26  1  1  0  0  0
 23 25  1  0  0  0  0
 24 25  1  0  0  0  0
 25 21  1  6  0  0  0
 29 28  1  6  0  0  0
 29 31  1  0  0  0  0
 30 27  1  0  0  0  0
 30 28  1  0  0  0  0
 31 26  1  1  0  0  0
 32 27  1  6  0  0  0
 32 29  1  0  0  0  0
 32 31  1  0  0  0  0
 33 15  1  0  0  0  0
 34 33  1  0  0  0  0
 36 35  1  0  0  0  0
 36 34  1  0  0  0  0
 38 37  1  0  0  0  0
 38 41  1  0  0  0  0
 39 41  1  0  0  0  0
 40 39  2  0  0  0  0
 42 50  1  1  0  0  0
 42 48  1  0  0  0  0
 43 39  1  6  0  0  0
 43 42  1  0  0  0  0
 44 49  1  1  0  0  0
 44 46  1  0  0  0  0
 45 44  1  0  0  0  0
 46 48  1  0  0  0  0
 47 45  1  6  0  0  0
 47 43  1  0  0  0  0
 47 44  1  0  0  0  0
 50 51  1  0  0  0  0
 51 52  1  6  0  0  0
 53 54  1  6  0  0  0
 53 55  1  0  0  0  0
 53 51  1  0  0  0  0
 56 55  1  0  0  0  0
 57 58  1  0  0  0  0
 58 60  1  0  0  0  0
 59 60  1  0  0  0  0
M  END
>  <MODEL>
5

>  <REMARK>
 VINA RESULT:      -3.7      2.296      6.098
  Name = 
  18 active torsions:
  status: ('A' for Active; 'I' for Inactive)
    1  A    between atoms: C_2  and  C_11
    2  A    between atoms: C_6  and  C_51
    3  A    between atoms: C_9  and  O_27
    4  A    between atoms: C_12  and  C_54
    5  A    between atoms: C_13  and  C_52
    6  A    between atoms: C_13  and  C_54
    7  A    between atoms: N_20  and  C_24
    8  A    between atoms: N_20  and  C_35
    9  A    between atoms: C_21  and  C_38
   10  A    between atoms: C_21  and  C_58
   11  A    between atoms: O_27  and  C_41
   12  A    between atoms: C_30  and  CA_49
   13  A    between atoms: C_31  and  C_33
   14  A    between atoms: C_33  and  C_45
   15  A    between atoms: C_35  and  C_44
   16  A    between atoms: C_36  and  C_47
   17  A    between atoms: C_38  and  N_57
   18  A    between atoms: C_41  and  CA_49
                            x       y       z     vdW  Elec       q    Type
                         _______ _______ _______ _____ _____    ______ ____

>  <TORSDO>
F 18

$$$$
=
 OpenBabel11042422343D

 60 69  0  0  1  0  0  0  0  0999 V2000
  162.1770  207.3850  153.4840 C   0  0  0  0  0  3  0  0  0  0  0  0
  160.8820  209.8120  152.9300 C   0  0  0  0  0  0  0  0  0  0  0  0
  161.9040  208.2780  154.5250 C   0  0  0  0  0  0  0  0  0  0  0  0
  161.1500  208.8990  151.9020 C   0  0  0  0  0  3  0  0  0  0  0  0
  160.9570  210.3710  155.2920 O   0  0  0  0  0  1  0  0  0  0  0  0
  161.2540  209.4960  154.2510 C   0  0  0  0  0  0  0  0  0  0  0  0
  161.7900  207.6860  152.1730 C   0  0  0  0  0  0  0  0  0  0  0  0
  158.1450  209.8410  154.8920 C   0  0  0  0  0  3  0  0  0  0  0  0
  156.9550  213.1110  154.1050 C   0  0  0  0  0  0  0  0  0  0  0  0
  159.1340  211.5980  153.2350 N   0  0  0  0  0  0  0  0  0  0  0  0
  157.1190  209.8470  155.6910 N   0  0  0  0  0  0  0  0  0  0  0  0
  155.1770  211.4160  155.6190 C   0  0  0  0  0  3  0  0  0  0  0  0
  158.8890  212.7830  152.6390 C   0  0  0  0  0  0  0  0  0  0  0  0
  158.4030  211.1910  154.4030 C   0  0  0  0  0  0  0  0  0  0  0  0
  155.6420  213.3870  154.1630 C   0  0  0  0  0  0  0  0  0  0  0  0
  157.4590  211.9690  154.8880 C   0  0  2  0  0  3  0  0  0  0  0  0
  156.6510  211.2230  155.8750 C   0  0  0  0  0  0  0  0  0  0  0  0
  159.7400  213.0730  151.6370 N   0  0  0  0  0  0  0  0  0  0  0  0
  157.7880  213.6140  153.0410 N   0  0  0  0  0  2  0  0  0  0  0  0
  154.7260  212.4490  154.8860 C   0  0  0  0  0  3  0  0  0  0  0  0
  160.5780  212.0030  151.6210 C   0  0  0  0  0  0  0  0  0  0  0  0
  160.2150  211.0920  152.6080 C   0  0  0  0  0  0  0  0  0  0  0  0
  161.4100  212.6010  149.3750 C   0  0  1  0  0  3  0  0  0  0  0  0
  161.2420  211.0980  149.3940 C   0  0  0  0  0  2  0  0  0  0  0  0
  161.7080  211.8290  150.6470 C   0  0  2  0  0  3  0  0  0  0  0  0
  162.6910  212.9340  148.6390 C   0  0  0  0  0  2  0  0  0  0  0  0
  162.7250  213.9940  145.1010 C   0  0  0  0  0  2  0  0  0  0  0  0
  160.5540  214.2380  145.8440 C   0  0  0  0  0  2  0  0  0  0  0  0
  161.2290  213.2060  146.7110 C   0  0  2  0  0  3  0  0  0  0  0  0
  161.4080  214.4530  144.6890 N   0  0  0  0  0  2  0  0  0  0  0  0
  162.3620  213.7910  147.4240 C   0  0  2  0  0  3  0  0  0  0  0  0
  162.5880  213.0240  146.1850 N   0  0  2  0  0  0  0  0  0  0  0  0
  155.0990  214.4530  153.3780 N   0  0  0  0  0  2  0  0  0  0  0  0
  154.4010  214.2070  152.1260 C   0  0  0  0  0  2  0  0  0  0  0  0
  154.6960  214.3650  149.7710 O   0  0  0  0  0  1  0  0  0  0  0  0
  155.3850  214.1900  150.9720 C   0  0  0  0  0  2  0  0  0  0  0  0
  162.0420  206.7200  151.0640 C   0  0  0  0  0  2  0  0  0  0  0  0
  162.4300  207.4710  149.8000 C   0  0  0  0  0  2  0  0  0  0  0  0
  161.2200  206.5590  147.8140 C   0  0  0  0  0  0  0  0  0  0  0  0
  160.5020  207.5930  147.7300 O   0  0  0  0  0  0  0  0  0  0  0  0
  162.3800  206.5840  148.6520 N   0  0  0  0  0  2  0  0  0  0  0  0
  161.9910  204.2600  147.0780 C   0  0  2  0  0  3  0  0  0  0  0  0
  160.8760  205.3340  146.9950 C   0  0  2  0  0  3  0  0  0  0  0  0
  161.1460  204.8620  144.4710 C   0  0  1  0  0  0  0  0  0  0  0  0
  161.5870  206.2800  144.7310 C   0  0  0  0  0  2  0  0  0  0  0  0
  162.1460  203.7910  144.8900 C   0  0  0  0  0  2  0  0  0  0  0  0
  160.4370  205.6830  145.5480 C   0  0  2  0  0  3  0  0  0  0  0  0
  161.7720  203.2490  146.1250 O   0  0  0  0  0  0  0  0  0  0  0  0
  160.4360  204.7000  143.2820 O   0  0  0  0  0  1  0  0  0  0  0  0
  161.9870  203.6890  148.3580 O   0  0  0  0  0  0  0  0  0  0  0  0
  161.2820  202.4830  148.2400 C   0  0  1  0  0  3  0  0  0  0  0  0
  162.1700  201.4450  147.9410 O   0  0  0  0  0  1  0  0  0  0  0  0
  160.5440  202.1930  149.5480 C   0  0  2  0  0  3  0  0  0  0  0  0
  159.1140  202.0570  149.3090 N   0  0  0  0  0  1  0  0  0  0  0  0
  160.7980  203.3070  150.5530 C   0  0  0  0  0  2  0  0  0  0  0  0
  161.8000  202.9310  151.4480 O   0  0  0  0  0  1  0  0  0  0  0  0
  162.2730  207.9060  155.9200 C   0  0  0  0  0  2  0  0  0  0  0  0
  161.2660  208.4600  156.9100 C   0  0  0  0  0  2  0  0  0  0  0  0
  160.0210  206.5490  155.9590 C   0  0  0  0  0  1  0  0  0  0  0  0
  160.2120  207.4130  157.1830 C   0  0  0  0  0  2  0  0  0  0  0  0
  1  3  1  0  0  0  0
  2  6  1  0  0  0  0
  3 57  1  0  0  0  0
  4  7  1  0  0  0  0
  4  2  2  0  0  0  0
  6  3  2  0  0  0  0
  6  5  1  0  0  0  0
  7  1  2  0  0  0  0
  8 11  1  0  0  0  0
  9 15  2  0  0  0  0
 10 14  1  0  0  0  0
 11 17  2  0  0  0  0
 12 17  1  0  0  0  0
 13 19  1  0  0  0  0
 13 10  1  0  0  0  0
 14 16  1  0  0  0  0
 14  8  2  0  0  0  0
 15 20  1  0  0  0  0
 16  9  1  6  0  0  0
 16 17  1  0  0  0  0
 18 13  2  0  0  0  0
 19  9  1  0  0  0  0
 20 12  2  0  0  0  0
 21 18  1  0  0  0  0
 21 22  2  0  0  0  0
 22  2  1  0  0  0  0
 22 10  1  0  0  0  0
 23 26  1  6  0  0  0
 23 24  1  0  0  0  0
 23 25  1  0  0  0  0
 24 25  1  0  0  0  0
 25 21  1  1  0  0  0
 29 28  1  6  0  0  0
 29 31  1  0  0  0  0
 30 27  1  0  0  0  0
 30 28  1  0  0  0  0
 31 26  1  1  0  0  0
 32 27  1  6  0  0  0
 32 29  1  0  0  0  0
 32 31  1  0  0  0  0
 33 15  1  0  0  0  0
 34 33  1  0  0  0  0
 35 36  1  0  0  0  0
 36 34  1  0  0  0  0
 37  7  1  0  0  0  0
 38 37  1  0  0  0  0
 39 41  1  0  0  0  0
 40 39  2  0  0  0  0
 41 38  1  0  0  0  0
 42 50  1  1  0  0  0
 43 42  1  0  0  0  0
 43 39  1  6  0  0  0
 44 49  1  6  0  0  0
 44 45  1  0  0  0  0
 44 46  1  0  0  0  0
 44 47  1  0  0  0  0
 46 48  1  0  0  0  0
 47 45  1  6  0  0  0
 47 43  1  0  0  0  0
 48 42  1  0  0  0  0
 51 52  1  1  0  0  0
 51 50  1  0  0  0  0
 51 53  1  0  0  0  0
 53 54  1  6  0  0  0
 53 55  1  0  0  0  0
 55 56  1  0  0  0  0
 57 58  1  0  0  0  0
 58 60  1  0  0  0  0
 59 60  1  0  0  0  0
M  END
>  <MODEL>
6

>  <REMARK>
 VINA RESULT:      -3.6      2.485     10.805
  Name = 
  18 active torsions:
  status: ('A' for Active; 'I' for Inactive)
    1  A    between atoms: C_2  and  C_11
    2  A    between atoms: C_6  and  C_51
    3  A    between atoms: C_9  and  O_27
    4  A    between atoms: C_12  and  C_54
    5  A    between atoms: C_13  and  C_52
    6  A    between atoms: C_13  and  C_54
    7  A    between atoms: N_20  and  C_24
    8  A    between atoms: N_20  and  C_35
    9  A    between atoms: C_21  and  C_38
   10  A    between atoms: C_21  and  C_58
   11  A    between atoms: O_27  and  C_41
   12  A    between atoms: C_30  and  CA_49
   13  A    between atoms: C_31  and  C_33
   14  A    between atoms: C_33  and  C_45
   15  A    between atoms: C_35  and  C_44
   16  A    between atoms: C_36  and  C_47
   17  A    between atoms: C_38  and  N_57
   18  A    between atoms: C_41  and  CA_49
                            x       y       z     vdW  Elec       q    Type
                         _______ _______ _______ _____ _____    ______ ____

>  <TORSDO>
F 18

$$$$
=
 OpenBabel11042422343D

 60 69  0  0  1  0  0  0  0  0999 V2000
  162.5990  207.2390  147.2990 C   0  0  0  0  0  3  0  0  0  0  0  0
  161.7510  206.8030  149.9390 C   0  0  0  0  0  0  0  0  0  0  0  0
  162.1070  205.9830  147.6710 C   0  0  0  0  0  0  0  0  0  0  0  0
  162.2310  208.0580  149.5450 C   0  0  0  0  0  3  0  0  0  0  0  0
  161.1660  204.5190  149.3540 O   0  0  0  0  0  1  0  0  0  0  0  0
  161.6810  205.7610  148.9930 C   0  0  0  0  0  0  0  0  0  0  0  0
  162.6500  208.2830  148.2300 C   0  0  0  0  0  0  0  0  0  0  0  0
  161.3040  209.9140  151.1470 C   0  0  0  0  0  3  0  0  0  0  0  0
  160.0320  209.0610  154.3690 C   0  0  0  0  0  0  0  0  0  0  0  0
  160.9200  207.5540  152.1930 N   0  0  0  0  0  0  0  0  0  0  0  0
  161.0970  211.1250  151.5760 N   0  0  0  0  0  0  0  0  0  0  0  0
  160.7270  211.8300  153.9430 C   0  0  0  0  0  3  0  0  0  0  0  0
  160.6070  206.9150  153.3390 C   0  0  0  0  0  0  0  0  0  0  0  0
  160.6460  208.9560  152.0280 C   0  0  0  0  0  0  0  0  0  0  0  0
  160.2350  209.8770  155.4160 C   0  0  0  0  0  0  0  0  0  0  0  0
  160.1080  209.6380  153.0160 C   0  0  0  0  0  0  0  0  0  0  0  0
  160.2070  211.0860  152.7380 C   0  0  2  0  0  3  0  0  0  0  0  0
  160.8090  205.5860  153.2910 N   0  0  0  0  0  0  0  0  0  0  0  0
  160.1400  207.6290  154.4950 N   0  0  0  0  0  2  0  0  0  0  0  0
  160.6740  211.2880  155.1730 C   0  0  0  0  0  3  0  0  0  0  0  0
  161.2630  205.3840  152.0250 C   0  0  0  0  0  0  0  0  0  0  0  0
  161.3280  206.5940  151.3390 C   0  0  0  0  0  0  0  0  0  0  0  0
  161.1770  202.9450  152.3960 C   0  0  1  0  0  3  0  0  0  0  0  0
  162.6370  203.3390  152.4100 C   0  0  0  0  0  2  0  0  0  0  0  0
  161.6660  204.0470  151.4740 C   0  0  2  0  0  3  0  0  0  0  0  0
  161.0360  201.6390  151.6420 C   0  0  0  0  0  2  0  0  0  0  0  0
  161.8630  200.8560  148.1290 C   0  0  0  0  0  2  0  0  0  0  0  0
  159.9880  202.2010  148.0830 C   0  0  0  0  0  2  0  0  0  0  0  0
  160.0370  201.5160  149.4260 C   0  0  2  0  0  3  0  0  0  0  0  0
  160.9430  201.5270  147.2230 N   0  0  0  0  0  2  0  0  0  0  0  0
  161.2440  201.8950  150.1550 C   0  0  2  0  0  3  0  0  0  0  0  0
  161.2030  200.6220  149.4100 N   0  0  2  0  0  0  0  0  0  0  0  0
  160.2250  209.3520  156.7470 N   0  0  0  0  0  2  0  0  0  0  0  0
  161.3110  208.5310  157.2570 C   0  0  0  0  0  2  0  0  0  0  0  0
  163.1890  209.9730  157.0220 O   0  0  0  0  0  1  0  0  0  0  0  0
  162.5920  208.8240  156.5000 C   0  0  0  0  0  2  0  0  0  0  0  0
  163.1350  209.6360  147.8300 C   0  0  0  0  0  2  0  0  0  0  0  0
  162.7460  210.6600  148.8850 C   0  0  0  0  0  2  0  0  0  0  0  0
  161.2040  211.9260  147.3830 C   0  0  0  0  0  0  0  0  0  0  0  0
  160.2860  211.0760  147.5470 O   0  0  0  0  0  0  0  0  0  0  0  0
  162.3380  211.9020  148.2560 N   0  0  0  0  0  2  0  0  0  0  0  0
  159.6120  213.4930  146.1860 C   0  0  2  0  0  3  0  0  0  0  0  0
  161.0700  212.9810  146.3070 C   0  0  2  0  0  3  0  0  0  0  0  0
  160.7920  212.7550  143.7500 C   0  0  1  0  0  0  0  0  0  0  0  0
  160.9510  211.3720  144.3270 C   0  0  0  0  0  2  0  0  0  0  0  0
  159.4190  213.3830  143.9540 C   0  0  0  0  0  2  0  0  0  0  0  0
  161.7040  212.5460  144.9580 C   0  0  2  0  0  3  0  0  0  0  0  0
  159.4600  214.2780  145.0290 O   0  0  0  0  0  0  0  0  0  0  0  0
  161.4480  212.9400  142.5330 O   0  0  0  0  0  1  0  0  0  0  0  0
  159.3020  214.2720  147.3100 O   0  0  0  0  0  0  0  0  0  0  0  0
  157.9280  214.1010  147.5300 C   0  0  1  0  0  3  0  0  0  0  0  0
  157.5690  212.7770  147.2540 O   0  0  0  0  0  1  0  0  0  0  0  0
  157.5960  214.4530  148.9810 C   0  0  2  0  0  3  0  0  0  0  0  0
  158.7880  214.3750  149.8120 N   0  0  0  0  0  1  0  0  0  0  0  0
  156.5260  213.5140  149.5170 C   0  0  0  0  0  2  0  0  0  0  0  0
  155.2590  214.0630  149.3220 O   0  0  0  0  0  1  0  0  0  0  0  0
  162.0080  204.9070  146.6450 C   0  0  0  0  0  2  0  0  0  0  0  0
  162.3540  205.4430  145.2680 C   0  0  0  0  0  2  0  0  0  0  0  0
  159.8920  205.6290  145.1760 C   0  0  0  0  0  1  0  0  0  0  0  0
  161.1400  205.3390  144.3750 C   0  0  0  0  0  2  0  0  0  0  0  0
  1  3  2  0  0  0  0
  1  7  1  0  0  0  0
  2 22  1  0  0  0  0
  3  6  1  0  0  0  0
  4  2  1  0  0  0  0
  6  5  1  0  0  0  0
  6  2  2  0  0  0  0
  7  4  2  0  0  0  0
  8 11  2  0  0  0  0
  8 14  1  0  0  0  0
  9 19  1  0  0  0  0
  9 15  2  0  0  0  0
 10 13  1  0  0  0  0
 11 17  1  0  0  0  0
 12 20  2  0  0  0  0
 13 19  1  0  0  0  0
 14 10  1  0  0  0  0
 14 16  2  0  0  0  0
 15 33  1  0  0  0  0
 16  9  1  0  0  0  0
 17 16  1  0  0  0  0
 17 12  1  1  0  0  0
 18 13  2  0  0  0  0
 20 15  1  0  0  0  0
 21 18  1  0  0  0  0
 22 21  2  0  0  0  0
 22 10  1  0  0  0  0
 23 26  1  6  0  0  0
 23 24  1  0  0  0  0
 25 21  1  1  0  0  0
 25 23  1  0  0  0  0
 25 24  1  0  0  0  0
 29 28  1  6  0  0  0
 29 31  1  0  0  0  0
 30 28  1  0  0  0  0
 30 27  1  0  0  0  0
 31 26  1  1  0  0  0
 32 27  1  6  0  0  0
 32 29  1  0  0  0  0
 32 31  1  0  0  0  0
 33 34  1  0  0  0  0
 36 35  1  0  0  0  0
 36 34  1  0  0  0  0
 37  7  1  0  0  0  0
 37 38  1  0  0  0  0
 39 40  2  0  0  0  0
 39 41  1  0  0  0  0
 41 38  1  0  0  0  0
 42 43  1  0  0  0  0
 42 50  1  1  0  0  0
 43 39  1  1  0  0  0
 44 49  1  6  0  0  0
 44 46  1  0  0  0  0
 44 45  1  0  0  0  0
 44 47  1  0  0  0  0
 46 48  1  0  0  0  0
 47 45  1  1  0  0  0
 47 43  1  0  0  0  0
 48 42  1  0  0  0  0
 50 51  1  0  0  0  0
 51 52  1  1  0  0  0
 51 53  1  0  0  0  0
 53 55  1  0  0  0  0
 53 54  1  1  0  0  0
 56 55  1  0  0  0  0
 57  3  1  0  0  0  0
 58 57  1  0  0  0  0
 60 59  1  0  0  0  0
 60 58  1  0  0  0  0
M  END
>  <MODEL>
7

>  <REMARK>
 VINA RESULT:      -3.6      2.785      7.795
  Name = 
  18 active torsions:
  status: ('A' for Active; 'I' for Inactive)
    1  A    between atoms: C_2  and  C_11
    2  A    between atoms: C_6  and  C_51
    3  A    between atoms: C_9  and  O_27
    4  A    between atoms: C_12  and  C_54
    5  A    between atoms: C_13  and  C_52
    6  A    between atoms: C_13  and  C_54
    7  A    between atoms: N_20  and  C_24
    8  A    between atoms: N_20  and  C_35
    9  A    between atoms: C_21  and  C_38
   10  A    between atoms: C_21  and  C_58
   11  A    between atoms: O_27  and  C_41
   12  A    between atoms: C_30  and  CA_49
   13  A    between atoms: C_31  and  C_33
   14  A    between atoms: C_33  and  C_45
   15  A    between atoms: C_35  and  C_44
   16  A    between atoms: C_36  and  C_47
   17  A    between atoms: C_38  and  N_57
   18  A    between atoms: C_41  and  CA_49
                            x       y       z     vdW  Elec       q    Type
                         _______ _______ _______ _____ _____    ______ ____

>  <TORSDO>
F 18

$$$$
