=
 OpenBabel11042422433D

 66 75  0  0  1  0  0  0  0  0999 V2000
  161.1300  213.0900  143.9110 C   0  0  2  0  0  3  0  0  0  0  0  0
  159.9690  212.4570  144.5050 N   0  0  0  0  0  0  0  0  0  0  0  0
  163.1870  214.4500  144.3510 C   0  0  0  0  0  1  0  0  0  0  0  0
  163.6590  212.5060  147.9820 C   0  0  0  0  0  0  0  0  0  0  0  0
  161.9060  213.8870  144.9700 C   0  0  2  0  0  3  0  0  0  0  0  0
  162.7730  211.5370  148.4590 C   0  0  0  0  0  0  0  0  0  0  0  0
  158.9650  211.3780  146.3070 O   0  0  0  0  0  0  0  0  0  0  0  0
  159.0380  213.9010  143.2020 C   0  0  0  0  0  2  0  0  0  0  0  0
  158.8090  212.6620  143.8410 O   0  0  0  0  0  0  0  0  0  0  0  0
  164.8250  212.7640  148.6210 F   0  0  0  0  0  0  0  0  0  0  0  0
  159.9930  211.9380  145.8390 C   0  0  0  0  0  0  0  0  0  0  0  0
  163.3690  213.2210  146.8660 N   0  0  0  0  0  0  0  0  0  0  0  0
  161.5610  211.2990  147.7600 C   0  0  0  0  0  0  0  0  0  0  0  0
  162.2090  213.0310  146.1760 C   0  0  0  0  0  0  0  0  0  0  0  0
  161.2430  212.1010  146.6430 C   0  0  0  0  0  0  0  0  0  0  0  0
  160.5370  214.0130  142.8860 C   0  0  2  0  0  3  0  0  0  0  0  0
  163.1480  210.7890  149.7040 C   0  0  0  0  0  2  0  0  0  0  0  0
  162.4090  211.3100  150.8460 N   0  0  0  0  0  2  0  0  0  0  0  0
  162.0470  210.1550  151.6340 C   0  0  0  0  0  2  0  0  0  0  0  0
  159.9480  211.4660  151.5290 C   0  0  0  0  0  1  0  0  0  0  0  0
  160.6380  210.3110  152.2270 C   0  0  2  0  0  3  0  0  0  0  0  0
  160.7350  210.6280  153.7110 C   0  0  0  0  0  2  0  0  0  0  0  0
  161.4840  209.5260  154.4370 C   0  0  0  0  0  2  0  0  0  0  0  0
  160.5970  208.8400  155.4740 C   0  0  0  0  0  2  0  0  0  0  0  0
  160.5730  207.3340  155.2570 C   0  0  0  0  0  2  0  0  0  0  0  0
  160.6800  206.9960  153.7730 C   0  0  0  0  0  2  0  0  0  0  0  0
  160.8270  204.6700  153.2020 F   0  0  0  0  0  0  0  0  0  0  0  0
  162.5360  206.0100  152.6230 F   0  0  0  0  0  0  0  0  0  0  0  0
  161.5790  205.7520  153.5910 C   0  0  0  0  0  3  0  0  0  0  0  0
  160.8090  213.4080  141.4960 C   0  0  0  0  0  2  0  0  0  0  0  0
  161.9260  212.3350  141.4790 C   0  0  1  0  0  3  0  0  0  0  0  0
  160.5960  209.9190  138.9910 C   0  0  0  0  0  2  0  0  0  0  0  0
  162.5340  210.2910  140.3160 O   0  0  0  0  0  0  0  0  0  0  0  0
  160.4610  211.1980  139.7660 C   0  0  2  0  0  3  0  0  0  0  0  0
  161.4670  211.0060  140.8760 C   0  0  2  0  0  3  0  0  0  0  0  0
  161.9560  209.3650  139.4160 C   0  0  1  0  0  3  0  0  0  0  0  0
  161.7740  208.0110  140.0910 C   0  0  0  0  0  2  0  0  0  0  0  0
  161.7750  206.9710  139.1660 O   0  0  0  0  0  1  0  0  0  0  0  0
  159.1040  211.3470  140.3070 N   0  0  0  0  0  2  0  0  0  0  0  0
  157.9990  210.9640  138.2670 O   0  0  0  0  0  0  0  0  0  0  0  0
  157.1930  209.9370  138.7980 C   0  0  0  0  0  2  0  0  0  0  0  0
  155.7700  210.4240  138.8870 C   0  0  0  0  0  2  0  0  0  0  0  0
  158.1910  211.9200  139.2840 C   0  0  1  0  0  0  0  0  0  0  0  0
  156.9790  212.3580  139.9240 O   0  0  0  0  0  0  0  0  0  0  0  0
  155.7740  211.8960  139.2930 C   0  0  1  0  0  3  0  0  0  0  0  0
  155.3940  212.7150  138.2500 O   0  0  0  0  0  1  0  0  0  0  0  0
  158.1020  214.3160  138.7120 O   0  0  0  0  0  1  0  0  0  0  0  0
  159.2210  212.9020  137.3240 O   0  0  0  0  0  1  0  0  0  0  0  0
  158.8790  213.1550  138.6530 C   0  0  0  0  0  3  0  0  0  0  0  0
  162.8670  213.7510  139.7820 O   0  0  0  0  0  1  0  0  0  0  0  0
  163.1800  212.8640  140.8090 C   0  0  0  0  0  2  0  0  0  0  0  0
  160.7730  210.0550  148.0650 C   0  0  0  0  0  2  0  0  0  0  0  0
  160.6880  207.6660  147.5190 C   0  0  1  0  0  3  0  0  0  0  0  0
  161.6110  208.7770  148.0390 C   0  0  2  0  0  3  0  0  0  0  0  0
  161.3520  206.3830  149.5770 C   0  0  2  0  0  3  0  0  0  0  0  0
  161.7960  205.3330  148.5620 C   0  0  2  0  0  3  0  0  0  0  0  0
  161.5700  206.7600  146.9220 O   0  0  0  0  0  0  0  0  0  0  0  0
  160.1730  205.9040  150.2050 O   0  0  0  0  0  0  0  0  0  0  0  0
  161.2350  203.7470  150.5460 C   0  0  2  0  0  3  0  0  0  0  0  0
  161.1950  205.5660  147.2980 O   0  0  0  0  0  0  0  0  0  0  0  0
  160.9150  207.7900  149.0340 C   0  0  2  0  0  3  0  0  0  0  0  0
  160.0580  204.5230  149.9480 C   0  0  2  0  0  3  0  0  0  0  0  0
  161.1610  204.0520  149.0580 C   0  0  1  0  0  3  0  0  0  0  0  0
  160.7960  202.3240  150.7220 C   0  0  2  0  0  3  0  0  0  0  0  0
  161.9740  201.4730  150.9590 C   0  0  0  0  0  2  0  0  0  0  0  0
  161.3380  201.4950  149.7150 O   0  0  0  0  0  0  0  0  0  0  0  0
  1  2  1  1  0  0  0
  1  5  1  0  0  0  0
  2 11  1  0  0  0  0
  4  6  1  0  0  0  0
  4 10  1  0  0  0  0
  5  3  1  6  0  0  0
  5 14  1  0  0  0  0
  6 17  1  0  0  0  0
  8  9  1  0  0  0  0
  9  2  1  0  0  0  0
 11  7  2  0  0  0  0
 11 15  1  0  0  0  0
 12  4  2  0  0  0  0
 13 52  1  0  0  0  0
 13  6  2  0  0  0  0
 14 15  2  0  0  0  0
 14 12  1  0  0  0  0
 15 13  1  0  0  0  0
 16 30  1  6  0  0  0
 16  8  1  0  0  0  0
 16  1  1  0  0  0  0
 17 18  1  0  0  0  0
 18 19  1  0  0  0  0
 19 21  1  0  0  0  0
 21 20  1  6  0  0  0
 21 22  1  0  0  0  0
 22 23  1  0  0  0  0
 23 24  1  0  0  0  0
 25 24  1  0  0  0  0
 26 25  1  0  0  0  0
 27 29  1  0  0  0  0
 28 29  1  0  0  0  0
 29 26  1  0  0  0  0
 31 51  1  6  0  0  0
 31 30  1  0  0  0  0
 32 36  1  0  0  0  0
 32 34  1  0  0  0  0
 33 35  1  0  0  0  0
 34 39  1  1  0  0  0
 34 35  1  0  0  0  0
 35 31  1  6  0  0  0
 36 37  1  1  0  0  0
 36 33  1  0  0  0  0
 38 37  1  0  0  0  0
 40 41  1  0  0  0  0
 40 43  1  0  0  0  0
 41 42  1  0  0  0  0
 42 45  1  0  0  0  0
 43 49  1  6  0  0  0
 43 44  1  0  0  0  0
 43 39  1  0  0  0  0
 45 46  1  6  0  0  0
 45 44  1  0  0  0  0
 48 49  1  0  0  0  0
 49 47  1  0  0  0  0
 50 51  1  0  0  0  0
 53 57  1  6  0  0  0
 53 54  1  0  0  0  0
 53 61  1  0  0  0  0
 54 52  1  1  0  0  0
 54 61  1  0  0  0  0
 55 58  1  6  0  0  0
 56 60  1  6  0  0  0
 56 63  1  0  0  0  0
 56 55  1  0  0  0  0
 57 60  1  0  0  0  0
 59 64  1  6  0  0  0
 61 55  1  0  0  0  0
 62 58  1  0  0  0  0
 62 59  1  0  0  0  0
 63 62  1  0  0  0  0
 63 59  1  0  0  0  0
 64 65  1  0  0  0  0
 66 64  1  0  0  0  0
 66 65  1  0  0  0  0
M  END
>  <MODEL>
1

>  <REMARK>
 VINA RESULT:      -2.0      0.000      0.000
  Name = 
  21 active torsions:
  status: ('A' for Active; 'I' for Inactive)
    1  A    between atoms: C_3  and  C_9
    2  A    between atoms: C_3  and  C_66
    3  A    between atoms: C_5  and  C_58
    4  A    between atoms: C_6  and  C_37
    5  A    between atoms: C_6  and  C_46
    6  A    between atoms: C_9  and  C_45
    7  A    between atoms: C_9  and  C_60
    8  A    between atoms: N_10  and  C_28
    9  A    between atoms: N_10  and  C_32
   10  A    between atoms: C_13  and  C_37
   11  A    between atoms: C_13  and  C_38
   12  A    between atoms: C_20  and  C_22
   13  A    between atoms: C_22  and  N_29
   14  A    between atoms: N_29  and  C_61
   15  A    between atoms: C_32  and  C_59
   16  A    between atoms: C_34  and  C_35
   17  A    between atoms: C_36  and  C_38
   18  A    between atoms: C_36  and  C_50
   19  A    between atoms: C_39  and  C_62
   20  A    between atoms: C_50  and  C_61
   21  A    between atoms: C_54  and  C_58
                            x       y       z     vdW  Elec       q    Type
                         _______ _______ _______ _____ _____    ______ ____

>  <TORSDO>
F 21

$$$$
=
 OpenBabel11042422433D

 66 75  0  0  1  0  0  0  0  0999 V2000
  160.9960  213.0890  144.0230 C   0  0  2  0  0  3  0  0  0  0  0  0
  159.8660  212.4780  144.6930 N   0  0  0  0  0  0  0  0  0  0  0  0
  163.0770  214.4520  144.3170 C   0  0  0  0  0  1  0  0  0  0  0  0
  163.7290  212.6110  147.9740 C   0  0  0  0  0  0  0  0  0  0  0  0
  161.8280  213.9130  145.0170 C   0  0  2  0  0  3  0  0  0  0  0  0
  162.8660  211.6600  148.5240 C   0  0  0  0  0  0  0  0  0  0  0  0
  158.9520  211.4570  146.5750 O   0  0  0  0  0  0  0  0  0  0  0  0
  158.8740  213.8880  143.3980 C   0  0  0  0  0  2  0  0  0  0  0  0
  158.6740  212.6690  144.0840 O   0  0  0  0  0  0  0  0  0  0  0  0
  164.9270  212.8820  148.5440 F   0  0  0  0  0  0  0  0  0  0  0  0
  159.9560  211.9980  146.0390 C   0  0  0  0  0  0  0  0  0  0  0  0
  163.3850  213.2950  146.8530 N   0  0  0  0  0  0  0  0  0  0  0  0
  161.6180  211.4080  147.8950 C   0  0  0  0  0  0  0  0  0  0  0  0
  162.1900  213.0910  146.2300 C   0  0  0  0  0  0  0  0  0  0  0  0
  161.2460  212.1790  146.7730 C   0  0  0  0  0  0  0  0  0  0  0  0
  160.3540  213.9850  143.0030 C   0  0  2  0  0  3  0  0  0  0  0  0
  163.3020  210.9470  149.7690 C   0  0  0  0  0  2  0  0  0  0  0  0
  162.4460  211.3180  150.8880 N   0  0  0  0  0  2  0  0  0  0  0  0
  162.4350  210.1710  151.7660 C   0  0  0  0  0  2  0  0  0  0  0  0
  160.9170  208.8420  153.2020 C   0  0  0  0  0  1  0  0  0  0  0  0
  161.2650  210.2490  152.7600 C   0  0  2  0  0  3  0  0  0  0  0  0
  160.0510  210.8600  152.0800 C   0  0  0  0  0  2  0  0  0  0  0  0
  159.5010  212.0030  152.9120 C   0  0  0  0  0  2  0  0  0  0  0  0
  158.2150  211.6000  153.6320 C   0  0  0  0  0  2  0  0  0  0  0  0
  158.5100  211.1360  155.0510 C   0  0  0  0  0  2  0  0  0  0  0  0
  159.1160  212.2660  155.8790 C   0  0  0  0  0  2  0  0  0  0  0  0
  161.2140  211.1110  155.7410 F   0  0  0  0  0  0  0  0  0  0  0  0
  161.0380  212.8110  157.2000 F   0  0  0  0  0  0  0  0  0  0  0  0
  160.3700  211.7470  156.6180 C   0  0  0  0  0  3  0  0  0  0  0  0
  160.5530  213.3380  141.6190 C   0  0  0  0  0  2  0  0  0  0  0  0
  161.6830  212.2790  141.5690 C   0  0  1  0  0  3  0  0  0  0  0  0
  160.4440  209.8750  139.0230 C   0  0  0  0  0  2  0  0  0  0  0  0
  162.3130  210.2180  140.4510 O   0  0  0  0  0  0  0  0  0  0  0  0
  160.2910  211.1610  139.7840 C   0  0  2  0  0  3  0  0  0  0  0  0
  161.2310  210.9550  140.9480 C   0  0  2  0  0  3  0  0  0  0  0  0
  161.7670  209.2980  139.5240 C   0  0  1  0  0  3  0  0  0  0  0  0
  161.5230  207.9510  140.1940 C   0  0  0  0  0  2  0  0  0  0  0  0
  162.7040  207.2300  140.3460 O   0  0  0  0  0  1  0  0  0  0  0  0
  158.9100  211.3390  140.2490 N   0  0  0  0  0  2  0  0  0  0  0  0
  157.7610  210.8300  138.2610 O   0  0  0  0  0  0  0  0  0  0  0  0
  156.8600  209.9580  138.9040 C   0  0  0  0  0  2  0  0  0  0  0  0
  155.4930  210.5930  138.9250 C   0  0  0  0  0  2  0  0  0  0  0  0
  158.0540  211.8750  139.1590 C   0  0  1  0  0  0  0  0  0  0  0  0
  156.8950  212.5040  139.7350 O   0  0  0  0  0  0  0  0  0  0  0  0
  155.6470  212.0940  139.1540 C   0  0  1  0  0  3  0  0  0  0  0  0
  155.3460  212.8180  138.0200 O   0  0  0  0  0  1  0  0  0  0  0  0
  158.6940  214.2420  138.9060 O   0  0  0  0  0  1  0  0  0  0  0  0
  158.5160  212.9520  137.0390 O   0  0  0  0  0  1  0  0  0  0  0  0
  158.8590  212.9510  138.3920 C   0  0  0  0  0  3  0  0  0  0  0  0
  162.6080  213.4340  139.6770 O   0  0  0  0  0  1  0  0  0  0  0  0
  162.9220  212.8340  140.8950 C   0  0  0  0  0  2  0  0  0  0  0  0
  160.8440  210.1770  148.2760 C   0  0  0  0  0  2  0  0  0  0  0  0
  161.8080  208.0330  147.5750 C   0  0  1  0  0  3  0  0  0  0  0  0
  161.7240  209.0190  148.7480 C   0  0  2  0  0  3  0  0  0  0  0  0
  161.0580  206.2800  149.2130 C   0  0  2  0  0  3  0  0  0  0  0  0
  162.3510  205.5890  148.7930 C   0  0  2  0  0  3  0  0  0  0  0  0
  163.0370  207.3950  147.7710 O   0  0  0  0  0  0  0  0  0  0  0  0
  159.9780  205.5620  148.6360 O   0  0  0  0  0  0  0  0  0  0  0  0
  160.9590  203.4770  149.4020 C   0  0  2  0  0  3  0  0  0  0  0  0
  162.8340  206.1200  147.5690 O   0  0  0  0  0  0  0  0  0  0  0  0
  160.8140  207.7480  148.7100 C   0  0  2  0  0  3  0  0  0  0  0  0
  160.4510  204.3030  148.2170 C   0  0  2  0  0  3  0  0  0  0  0  0
  161.9200  204.1780  148.4540 C   0  0  1  0  0  3  0  0  0  0  0  0
  160.9230  202.0340  148.9970 C   0  0  2  0  0  3  0  0  0  0  0  0
  159.6550  201.4320  149.4420 C   0  0  0  0  0  2  0  0  0  0  0  0
  160.8490  201.1890  150.1270 O   0  0  0  0  0  0  0  0  0  0  0  0
  1  2  1  1  0  0  0
  1  5  1  0  0  0  0
  2 11  1  0  0  0  0
  4  6  1  0  0  0  0
  4 10  1  0  0  0  0
  5  3  1  6  0  0  0
  5 14  1  0  0  0  0
  6 17  1  0  0  0  0
  8  9  1  0  0  0  0
  9  2  1  0  0  0  0
 11  7  2  0  0  0  0
 11 15  1  0  0  0  0
 12  4  2  0  0  0  0
 13 52  1  0  0  0  0
 13  6  2  0  0  0  0
 14 15  2  0  0  0  0
 14 12  1  0  0  0  0
 15 13  1  0  0  0  0
 16 30  1  6  0  0  0
 16  8  1  0  0  0  0
 16  1  1  0  0  0  0
 17 18  1  0  0  0  0
 18 19  1  0  0  0  0
 19 21  1  0  0  0  0
 21 20  1  6  0  0  0
 22 21  1  0  0  0  0
 22 23  1  0  0  0  0
 23 24  1  0  0  0  0
 24 25  1  0  0  0  0
 25 26  1  0  0  0  0
 26 29  1  0  0  0  0
 27 29  1  0  0  0  0
 29 28  1  0  0  0  0
 31 51  1  6  0  0  0
 31 30  1  0  0  0  0
 32 36  1  0  0  0  0
 32 34  1  0  0  0  0
 33 35  1  0  0  0  0
 34 39  1  1  0  0  0
 34 35  1  0  0  0  0
 35 31  1  6  0  0  0
 36 37  1  1  0  0  0
 36 33  1  0  0  0  0
 37 38  1  0  0  0  0
 40 41  1  0  0  0  0
 40 43  1  0  0  0  0
 41 42  1  0  0  0  0
 42 45  1  0  0  0  0
 43 49  1  6  0  0  0
 43 44  1  0  0  0  0
 43 39  1  0  0  0  0
 45 46  1  6  0  0  0
 45 44  1  0  0  0  0
 48 49  1  0  0  0  0
 49 47  1  0  0  0  0
 50 51  1  0  0  0  0
 53 57  1  1  0  0  0
 53 61  1  0  0  0  0
 53 54  1  0  0  0  0
 54 52  1  6  0  0  0
 55 58  1  6  0  0  0
 56 60  1  6  0  0  0
 56 55  1  0  0  0  0
 59 64  1  6  0  0  0
 60 57  1  0  0  0  0
 61 54  1  0  0  0  0
 61 55  1  0  0  0  0
 62 63  1  0  0  0  0
 62 58  1  0  0  0  0
 62 59  1  0  0  0  0
 63 56  1  0  0  0  0
 63 59  1  0  0  0  0
 64 65  1  0  0  0  0
 64 66  1  0  0  0  0
 65 66  1  0  0  0  0
M  END
>  <MODEL>
2

>  <REMARK>
 VINA RESULT:      -1.0      1.620      2.115
  Name = 
  21 active torsions:
  status: ('A' for Active; 'I' for Inactive)
    1  A    between atoms: C_3  and  C_9
    2  A    between atoms: C_3  and  C_66
    3  A    between atoms: C_5  and  C_58
    4  A    between atoms: C_6  and  C_37
    5  A    between atoms: C_6  and  C_46
    6  A    between atoms: C_9  and  C_45
    7  A    between atoms: C_9  and  C_60
    8  A    between atoms: N_10  and  C_28
    9  A    between atoms: N_10  and  C_32
   10  A    between atoms: C_13  and  C_37
   11  A    between atoms: C_13  and  C_38
   12  A    between atoms: C_20  and  C_22
   13  A    between atoms: C_22  and  N_29
   14  A    between atoms: N_29  and  C_61
   15  A    between atoms: C_32  and  C_59
   16  A    between atoms: C_34  and  C_35
   17  A    between atoms: C_36  and  C_38
   18  A    between atoms: C_36  and  C_50
   19  A    between atoms: C_39  and  C_62
   20  A    between atoms: C_50  and  C_61
   21  A    between atoms: C_54  and  C_58
                            x       y       z     vdW  Elec       q    Type
                         _______ _______ _______ _____ _____    ______ ____

>  <TORSDO>
F 21

$$$$
=
 OpenBabel11042422433D

 66 75  0  0  1  0  0  0  0  0999 V2000
  161.0970  213.0790  144.1010 C   0  0  2  0  0  3  0  0  0  0  0  0
  159.9510  212.4360  144.7120 N   0  0  0  0  0  0  0  0  0  0  0  0
  163.1540  214.4480  144.5120 C   0  0  0  0  0  1  0  0  0  0  0  0
  163.6990  212.4920  148.1250 C   0  0  0  0  0  0  0  0  0  0  0  0
  161.8880  213.8760  145.1500 C   0  0  2  0  0  3  0  0  0  0  0  0
  162.8270  211.5150  148.6130 C   0  0  0  0  0  0  0  0  0  0  0  0
  158.9840  211.3450  146.5260 O   0  0  0  0  0  0  0  0  0  0  0  0
  158.9900  213.8810  143.4320 C   0  0  0  0  0  2  0  0  0  0  0  0
  158.7780  212.6380  144.0690 O   0  0  0  0  0  0  0  0  0  0  0  0
  164.8750  212.7530  148.7450 F   0  0  0  0  0  0  0  0  0  0  0  0
  160.0000  211.9120  146.0430 C   0  0  0  0  0  0  0  0  0  0  0  0
  163.3870  213.2090  147.0170 N   0  0  0  0  0  0  0  0  0  0  0  0
  161.6040  211.2740  147.9350 C   0  0  0  0  0  0  0  0  0  0  0  0
  162.2160  213.0160  146.3470 C   0  0  0  0  0  0  0  0  0  0  0  0
  161.2630  212.0790  146.8260 C   0  0  0  0  0  0  0  0  0  0  0  0
  160.4820  214.0030  143.0900 C   0  0  2  0  0  3  0  0  0  0  0  0
  163.2280  210.7640  149.8480 C   0  0  0  0  0  2  0  0  0  0  0  0
  162.2720  211.0110  150.9200 N   0  0  0  0  0  2  0  0  0  0  0  0
  162.2280  209.7910  151.6910 C   0  0  0  0  0  2  0  0  0  0  0  0
  161.2270  208.7320  153.6940 C   0  0  0  0  0  1  0  0  0  0  0  0
  161.6860  210.0510  153.1050 C   0  0  2  0  0  3  0  0  0  0  0  0
  160.4950  210.9940  153.0360 C   0  0  0  0  0  2  0  0  0  0  0  0
  159.7020  210.9360  154.3280 C   0  0  0  0  0  2  0  0  0  0  0  0
  158.5420  211.9300  154.3140 C   0  0  0  0  0  2  0  0  0  0  0  0
  158.6450  212.9020  155.4800 C   0  0  0  0  0  2  0  0  0  0  0  0
  157.5080  212.6810  156.4750 C   0  0  0  0  0  2  0  0  0  0  0  0
  155.1790  212.1180  156.5860 F   0  0  0  0  0  0  0  0  0  0  0  0
  155.8720  213.4190  154.8890 F   0  0  0  0  0  0  0  0  0  0  0  0
  156.2080  212.3530  155.7070 C   0  0  0  0  0  3  0  0  0  0  0  0
  160.7340  213.4050  141.6930 C   0  0  0  0  0  2  0  0  0  0  0  0
  161.6810  212.1790  141.6890 C   0  0  1  0  0  3  0  0  0  0  0  0
  160.1030  210.4110  138.8280 C   0  0  0  0  0  2  0  0  0  0  0  0
  162.1630  210.4890  140.0120 O   0  0  0  0  0  0  0  0  0  0  0  0
  160.0500  211.4620  139.9000 C   0  0  2  0  0  3  0  0  0  0  0  0
  161.1590  211.0260  140.8280 C   0  0  2  0  0  3  0  0  0  0  0  0
  161.4960  209.7970  138.9740 C   0  0  1  0  0  3  0  0  0  0  0  0
  161.3750  208.3170  139.3140 C   0  0  0  0  0  2  0  0  0  0  0  0
  162.2320  207.9550  140.3500 O   0  0  0  0  0  1  0  0  0  0  0  0
  158.7530  211.4490  140.5870 N   0  0  0  0  0  2  0  0  0  0  0  0
  157.2670  213.2180  140.1510 O   0  0  0  0  0  0  0  0  0  0  0  0
  158.3020  214.1310  139.8650 C   0  0  0  0  0  2  0  0  0  0  0  0
  158.2910  214.4400  138.3900 C   0  0  0  0  0  2  0  0  0  0  0  0
  157.6790  211.9520  139.6920 C   0  0  1  0  0  0  0  0  0  0  0  0
  158.1530  211.9390  138.3330 O   0  0  0  0  0  0  0  0  0  0  0  0
  157.9440  213.1690  137.6200 C   0  0  1  0  0  3  0  0  0  0  0  0
  156.6810  213.2340  137.0680 O   0  0  0  0  0  1  0  0  0  0  0  0
  156.3810  210.0940  138.7240 O   0  0  0  0  0  1  0  0  0  0  0  0
  155.2770  211.7090  139.8860 O   0  0  0  0  0  1  0  0  0  0  0  0
  156.4710  210.9910  139.7930 C   0  0  0  0  0  3  0  0  0  0  0  0
  163.2090  213.9650  141.1970 O   0  0  0  0  0  1  0  0  0  0  0  0
  163.0930  212.5810  141.3110 C   0  0  0  0  0  2  0  0  0  0  0  0
  160.8280  210.0250  148.2470 C   0  0  0  0  0  2  0  0  0  0  0  0
  160.7590  207.6610  147.5960 C   0  0  1  0  0  3  0  0  0  0  0  0
  161.6690  208.7490  148.1830 C   0  0  2  0  0  3  0  0  0  0  0  0
  161.3810  206.2890  149.6090 C   0  0  2  0  0  3  0  0  0  0  0  0
  161.8480  205.2860  148.5590 C   0  0  2  0  0  3  0  0  0  0  0  0
  161.6550  206.7830  146.9780 O   0  0  0  0  0  0  0  0  0  0  0  0
  160.1890  205.7830  150.1900 O   0  0  0  0  0  0  0  0  0  0  0  0
  161.2470  203.6130  150.4580 C   0  0  2  0  0  3  0  0  0  0  0  0
  161.2730  205.5740  147.2930 O   0  0  0  0  0  0  0  0  0  0  0  0
  160.9530  207.7190  149.1180 C   0  0  2  0  0  3  0  0  0  0  0  0
  160.0820  204.4140  149.8700 C   0  0  2  0  0  3  0  0  0  0  0  0
  161.2040  203.9840  148.9840 C   0  0  1  0  0  3  0  0  0  0  0  0
  160.8060  202.1840  150.5620 C   0  0  2  0  0  3  0  0  0  0  0  0
  161.6630  201.4750  151.5270 C   0  0  0  0  0  2  0  0  0  0  0  0
  161.8310  201.3030  150.1500 O   0  0  0  0  0  0  0  0  0  0  0  0
  1  2  1  1  0  0  0
  1  5  1  0  0  0  0
  2 11  1  0  0  0  0
  4  6  1  0  0  0  0
  4 10  1  0  0  0  0
  5  3  1  6  0  0  0
  5 14  1  0  0  0  0
  6 17  1  0  0  0  0
  8  9  1  0  0  0  0
  9  2  1  0  0  0  0
 11  7  2  0  0  0  0
 11 15  1  0  0  0  0
 12  4  2  0  0  0  0
 13 52  1  0  0  0  0
 13  6  2  0  0  0  0
 14 15  2  0  0  0  0
 14 12  1  0  0  0  0
 15 13  1  0  0  0  0
 16 30  1  6  0  0  0
 16  8  1  0  0  0  0
 16  1  1  0  0  0  0
 17 18  1  0  0  0  0
 18 19  1  0  0  0  0
 19 21  1  0  0  0  0
 21 20  1  6  0  0  0
 22 21  1  0  0  0  0
 22 23  1  0  0  0  0
 24 23  1  0  0  0  0
 24 25  1  0  0  0  0
 25 26  1  0  0  0  0
 28 29  1  0  0  0  0
 29 26  1  0  0  0  0
 29 27  1  0  0  0  0
 31 51  1  6  0  0  0
 31 30  1  0  0  0  0
 32 36  1  0  0  0  0
 32 34  1  0  0  0  0
 33 35  1  0  0  0  0
 34 39  1  1  0  0  0
 34 35  1  0  0  0  0
 35 31  1  6  0  0  0
 36 37  1  1  0  0  0
 36 33  1  0  0  0  0
 37 38  1  0  0  0  0
 41 40  1  0  0  0  0
 42 41  1  0  0  0  0
 43 49  1  1  0  0  0
 43 40  1  0  0  0  0
 43 39  1  0  0  0  0
 44 43  1  0  0  0  0
 45 46  1  1  0  0  0
 45 44  1  0  0  0  0
 45 42  1  0  0  0  0
 47 49  1  0  0  0  0
 49 48  1  0  0  0  0
 50 51  1  0  0  0  0
 53 57  1  6  0  0  0
 53 54  1  0  0  0  0
 53 61  1  0  0  0  0
 54 52  1  1  0  0  0
 54 61  1  0  0  0  0
 55 58  1  6  0  0  0
 56 60  1  6  0  0  0
 56 63  1  0  0  0  0
 56 55  1  0  0  0  0
 57 60  1  0  0  0  0
 59 64  1  6  0  0  0
 61 55  1  0  0  0  0
 62 58  1  0  0  0  0
 62 59  1  0  0  0  0
 63 62  1  0  0  0  0
 63 59  1  0  0  0  0
 64 65  1  0  0  0  0
 66 64  1  0  0  0  0
 66 65  1  0  0  0  0
M  END
>  <MODEL>
3

>  <REMARK>
 VINA RESULT:      -0.4      2.160      2.851
  Name = 
  21 active torsions:
  status: ('A' for Active; 'I' for Inactive)
    1  A    between atoms: C_3  and  C_9
    2  A    between atoms: C_3  and  C_66
    3  A    between atoms: C_5  and  C_58
    4  A    between atoms: C_6  and  C_37
    5  A    between atoms: C_6  and  C_46
    6  A    between atoms: C_9  and  C_45
    7  A    between atoms: C_9  and  C_60
    8  A    between atoms: N_10  and  C_28
    9  A    between atoms: N_10  and  C_32
   10  A    between atoms: C_13  and  C_37
   11  A    between atoms: C_13  and  C_38
   12  A    between atoms: C_20  and  C_22
   13  A    between atoms: C_22  and  N_29
   14  A    between atoms: N_29  and  C_61
   15  A    between atoms: C_32  and  C_59
   16  A    between atoms: C_34  and  C_35
   17  A    between atoms: C_36  and  C_38
   18  A    between atoms: C_36  and  C_50
   19  A    between atoms: C_39  and  C_62
   20  A    between atoms: C_50  and  C_61
   21  A    between atoms: C_54  and  C_58
                            x       y       z     vdW  Elec       q    Type
                         _______ _______ _______ _____ _____    ______ ____

>  <TORSDO>
F 21

$$$$
=
 OpenBabel11042422433D

 66 75  0  0  1  0  0  0  0  0999 V2000
  161.2170  207.6500  149.2300 C   0  0  2  0  0  3  0  0  0  0  0  0
  161.9910  208.6650  148.5430 N   0  0  0  0  0  0  0  0  0  0  0  0
  160.3970  206.8370  151.4530 C   0  0  0  0  0  1  0  0  0  0  0  0
  160.0470  210.7660  152.7270 C   0  0  0  0  0  0  0  0  0  0  0  0
  161.3110  207.8430  150.7510 C   0  0  2  0  0  3  0  0  0  0  0  0
  160.3920  211.8670  151.9390 C   0  0  0  0  0  0  0  0  0  0  0  0
  162.7550  210.8580  148.3950 O   0  0  0  0  0  0  0  0  0  0  0  0
  163.1180  206.8870  148.0730 C   0  0  0  0  0  2  0  0  0  0  0  0
  162.8400  208.1900  147.6030 O   0  0  0  0  0  0  0  0  0  0  0  0
  159.4270  210.9270  153.9200 F   0  0  0  0  0  0  0  0  0  0  0  0
  162.0850  210.0050  149.0370 C   0  0  0  0  0  0  0  0  0  0  0  0
  160.3320  209.5040  152.3190 N   0  0  0  0  0  0  0  0  0  0  0  0
  161.0440  211.6540  150.6960 C   0  0  0  0  0  0  0  0  0  0  0  0
  160.9680  209.2610  151.1380 C   0  0  0  0  0  0  0  0  0  0  0  0
  161.3960  210.3400  150.3200 C   0  0  0  0  0  0  0  0  0  0  0  0
  161.8800  206.3670  148.8190 C   0  0  2  0  0  3  0  0  0  0  0  0
  160.0590  213.2360  152.4520 C   0  0  0  0  0  2  0  0  0  0  0  0
  158.6770  213.2780  152.9130 N   0  0  0  0  0  2  0  0  0  0  0  0
  158.7080  213.9810  154.1740 C   0  0  0  0  0  2  0  0  0  0  0  0
  157.0980  213.3810  155.9580 C   0  0  0  0  0  1  0  0  0  0  0  0
  158.4380  213.0250  155.3460 C   0  0  2  0  0  3  0  0  0  0  0  0
  159.5160  213.1910  156.4060 C   0  0  0  0  0  2  0  0  0  0  0  0
  159.8090  211.8600  157.0720 C   0  0  0  0  0  2  0  0  0  0  0  0
  161.2980  211.5230  157.0100 C   0  0  0  0  0  2  0  0  0  0  0  0
  161.5160  210.1310  156.4340 C   0  0  0  0  0  2  0  0  0  0  0  0
  160.2940  209.2480  156.6680 C   0  0  0  0  0  2  0  0  0  0  0  0
  159.7280  206.9170  156.7420 F   0  0  0  0  0  0  0  0  0  0  0  0
  160.4280  207.7730  154.7850 F   0  0  0  0  0  0  0  0  0  0  0  0
  160.5870  207.8180  156.1600 C   0  0  0  0  0  3  0  0  0  0  0  0
  160.9470  205.6560  147.8200 C   0  0  0  0  0  2  0  0  0  0  0  0
  161.6850  204.9340  146.6660 C   0  0  1  0  0  3  0  0  0  0  0  0
  160.1610  201.6500  147.4960 C   0  0  0  0  0  2  0  0  0  0  0  0
  160.6010  203.0320  145.6130 O   0  0  0  0  0  0  0  0  0  0  0  0
  160.7910  202.9420  147.9320 C   0  0  2  0  0  3  0  0  0  0  0  0
  161.4470  203.4220  146.6600 C   0  0  2  0  0  3  0  0  0  0  0  0
  160.0920  201.7620  145.9730 C   0  0  1  0  0  3  0  0  0  0  0  0
  160.9240  200.6570  145.3350 C   0  0  0  0  0  2  0  0  0  0  0  0
  161.5600  199.8720  146.2930 O   0  0  0  0  0  1  0  0  0  0  0  0
  161.7880  202.7150  148.9850 N   0  0  0  0  0  2  0  0  0  0  0  0
  162.1120  202.2020  151.2570 O   0  0  0  0  0  0  0  0  0  0  0  0
  162.5180  203.5120  151.5830 C   0  0  0  0  0  2  0  0  0  0  0  0
  161.4450  204.1650  152.4140 C   0  0  0  0  0  2  0  0  0  0  0  0
  161.1300  202.3000  150.2510 C   0  0  1  0  0  0  0  0  0  0  0  0
  160.0630  203.2170  150.5520 O   0  0  0  0  0  0  0  0  0  0  0  0
  160.0780  203.7250  151.8960 C   0  0  1  0  0  3  0  0  0  0  0  0
  159.4490  202.8700  152.7750 O   0  0  0  0  0  1  0  0  0  0  0  0
  159.1220  200.8770  150.1280 O   0  0  0  0  0  1  0  0  0  0  0  0
  161.0400  199.9880  150.9690 O   0  0  0  0  0  1  0  0  0  0  0  0
  160.5180  200.8940  150.0440 C   0  0  0  0  0  3  0  0  0  0  0  0
  161.9410  204.8590  144.2780 O   0  0  0  0  0  1  0  0  0  0  0  0
  161.3600  205.5700  145.3270 C   0  0  0  0  0  2  0  0  0  0  0  0
  161.1170  212.7840  149.7060 C   0  0  0  0  0  2  0  0  0  0  0  0
  160.7290  211.9220  147.4430 C   0  0  1  0  0  3  0  0  0  0  0  0
  160.0720  212.6950  148.5940 C   0  0  2  0  0  3  0  0  0  0  0  0
  160.0670  213.8600  145.9850 C   0  0  2  0  0  3  0  0  0  0  0  0
  159.3460  212.7790  145.1840 C   0  0  2  0  0  3  0  0  0  0  0  0
  159.6460  211.3260  146.7890 O   0  0  0  0  0  0  0  0  0  0  0  0
  161.2030  214.2650  145.2370 O   0  0  0  0  0  0  0  0  0  0  0  0
  159.8220  214.4500  143.2470 C   0  0  2  0  0  3  0  0  0  0  0  0
  159.8450  211.4910  145.5070 O   0  0  0  0  0  0  0  0  0  0  0  0
  160.6840  213.4560  147.3720 C   0  0  2  0  0  3  0  0  0  0  0  0
  161.0480  213.8160  143.9100 C   0  0  2  0  0  3  0  0  0  0  0  0
  159.7960  213.0180  143.7590 C   0  0  1  0  0  3  0  0  0  0  0  0
  160.0230  214.3800  141.7630 C   0  0  2  0  0  3  0  0  0  0  0  0
  158.7290  214.1360  141.1040 C   0  0  0  0  0  2  0  0  0  0  0  0
  159.6650  213.1100  141.2600 O   0  0  0  0  0  0  0  0  0  0  0  0
  1  2  1  6  0  0  0
  1  5  1  0  0  0  0
  2 11  1  0  0  0  0
  4 10  1  0  0  0  0
  5 14  1  0  0  0  0
  5  3  1  1  0  0  0
  6 17  1  0  0  0  0
  6  4  2  0  0  0  0
  7 11  2  0  0  0  0
  8 16  1  0  0  0  0
  9  8  1  0  0  0  0
  9  2  1  0  0  0  0
 11 15  1  0  0  0  0
 12  4  1  0  0  0  0
 13  6  1  0  0  0  0
 14 12  2  0  0  0  0
 15 13  2  0  0  0  0
 15 14  1  0  0  0  0
 16 30  1  6  0  0  0
 16  1  1  0  0  0  0
 17 18  1  0  0  0  0
 18 19  1  0  0  0  0
 19 21  1  0  0  0  0
 21 20  1  1  0  0  0
 21 22  1  0  0  0  0
 22 23  1  0  0  0  0
 24 23  1  0  0  0  0
 25 26  1  0  0  0  0
 25 24  1  0  0  0  0
 28 29  1  0  0  0  0
 29 26  1  0  0  0  0
 29 27  1  0  0  0  0
 31 51  1  6  0  0  0
 31 30  1  0  0  0  0
 32 34  1  0  0  0  0
 33 36  1  0  0  0  0
 33 35  1  0  0  0  0
 34 39  1  1  0  0  0
 35 31  1  1  0  0  0
 35 34  1  0  0  0  0
 36 37  1  6  0  0  0
 36 32  1  0  0  0  0
 37 38  1  0  0  0  0
 40 41  1  0  0  0  0
 41 42  1  0  0  0  0
 43 39  1  6  0  0  0
 43 44  1  0  0  0  0
 43 40  1  0  0  0  0
 44 45  1  0  0  0  0
 45 42  1  0  0  0  0
 45 46  1  1  0  0  0
 49 47  1  0  0  0  0
 49 43  1  0  0  0  0
 49 48  1  0  0  0  0
 50 51  1  0  0  0  0
 52 13  1  0  0  0  0
 53 57  1  6  0  0  0
 53 54  1  0  0  0  0
 54 52  1  1  0  0  0
 55 58  1  6  0  0  0
 55 61  1  0  0  0  0
 56 60  1  1  0  0  0
 56 55  1  0  0  0  0
 59 64  1  6  0  0  0
 59 63  1  0  0  0  0
 59 62  1  0  0  0  0
 60 57  1  0  0  0  0
 61 53  1  0  0  0  0
 61 54  1  0  0  0  0
 62 58  1  0  0  0  0
 63 62  1  0  0  0  0
 63 56  1  0  0  0  0
 65 66  1  0  0  0  0
 65 64  1  0  0  0  0
 66 64  1  0  0  0  0
M  END
>  <MODEL>
4

>  <REMARK>
 VINA RESULT:       0.6      3.288      9.901
  Name = 
  21 active torsions:
  status: ('A' for Active; 'I' for Inactive)
    1  A    between atoms: C_3  and  C_9
    2  A    between atoms: C_3  and  C_66
    3  A    between atoms: C_5  and  C_58
    4  A    between atoms: C_6  and  C_37
    5  A    between atoms: C_6  and  C_46
    6  A    between atoms: C_9  and  C_45
    7  A    between atoms: C_9  and  C_60
    8  A    between atoms: N_10  and  C_28
    9  A    between atoms: N_10  and  C_32
   10  A    between atoms: C_13  and  C_37
   11  A    between atoms: C_13  and  C_38
   12  A    between atoms: C_20  and  C_22
   13  A    between atoms: C_22  and  N_29
   14  A    between atoms: N_29  and  C_61
   15  A    between atoms: C_32  and  C_59
   16  A    between atoms: C_34  and  C_35
   17  A    between atoms: C_36  and  C_38
   18  A    between atoms: C_36  and  C_50
   19  A    between atoms: C_39  and  C_62
   20  A    between atoms: C_50  and  C_61
   21  A    between atoms: C_54  and  C_58
                            x       y       z     vdW  Elec       q    Type
                         _______ _______ _______ _____ _____    ______ ____

>  <TORSDO>
F 21

$$$$
