=
 OpenBabel11052411513D

 32 35  0  0  1  0  0  0  0  0999 V2000
  161.6170  208.4770  148.1830 S   0  0  0  0  0  1  0  0  0  0  0  0
  160.8360  206.0010  150.9590 C   0  0  1  0  0  3  0  0  0  0  0  0
  161.6140  206.9940  151.8010 C   0  0  2  0  0  3  0  0  0  0  0  0
  162.3050  207.3240  149.4400 C   0  0  1  0  0  3  0  0  0  0  0  0
  160.7670  207.9540  152.6330 C   0  0  2  0  0  3  0  0  0  0  0  0
  162.6700  210.1860  150.4180 F   0  0  0  0  0  0  0  0  0  0  0  0
  162.2310  207.8790  150.8180 C   0  0  1  0  0  3  0  0  0  0  0  0
  162.2200  209.1440  151.1880 C   0  0  2  0  0  3  0  0  0  0  0  0
  161.3900  206.1020  149.5160 C   0  0  0  0  0  2  0  0  0  0  0  0
  161.3810  209.3420  152.3960 C   0  0  0  0  0  2  0  0  0  0  0  0
  161.0550  204.4290  152.7980 O   0  0  0  0  0  1  0  0  0  0  0  0
  161.0440  204.6280  151.4650 N   0  0  0  0  0  0  0  0  0  0  0  0
  160.9490  202.5940  148.3260 C   0  0  0  0  0  0  0  0  0  0  0  0
  161.1520  202.1880  151.0980 C   0  0  0  0  0  3  0  0  0  0  0  0
  160.9940  203.6730  149.2140 C   0  0  0  0  0  3  0  0  0  0  0  0
  161.0950  201.0940  150.2280 C   0  0  0  0  0  3  0  0  0  0  0  0
  161.1400  203.4860  150.5920 C   0  0  0  0  0  0  0  0  0  0  0  0
  161.0080  201.2890  148.8510 C   0  0  0  0  0  3  0  0  0  0  0  0
  160.8580  201.4810  146.0790 C   0  0  0  0  0  1  0  0  0  0  0  0
  160.7080  202.7850  146.8430 C   0  0  2  0  0  3  0  0  0  0  0  0
  159.9300  204.2510  144.5140 O   0  0  0  0  0  1  0  0  0  0  0  0
  161.5710  203.8490  146.2050 C   0  0  0  0  0  0  0  0  0  0  0  0
  162.7910  204.2460  146.8690 N   0  0  0  0  0  1  0  0  0  0  0  0
  162.0440  205.4690  144.3990 C   0  0  0  0  0  1  0  0  0  0  0  0
  161.1790  204.4690  145.0700 C   0  0  0  0  0  0  0  0  0  0  0  0
  160.8370  207.5990  154.0610 N   0  0  0  0  0  2  0  0  0  0  0  0
  160.9660  208.7510  154.9580 C   0  0  1  0  0  3  0  0  0  0  0  0
  159.7030  209.5350  155.1930 C   0  0  0  0  0  3  0  0  0  0  0  0
  159.6190  210.3360  156.1900 N   0  0  0  0  0  0  0  0  0  0  0  0
  161.7420  208.4840  156.2380 C   0  0  0  0  0  2  0  0  0  0  0  0
  161.9670  209.8110  156.9310 C   0  0  0  0  0  2  0  0  0  0  0  0
  160.6180  210.4630  157.2600 C   0  0  0  0  0  2  0  0  0  0  0  0
  1  4  1  0  0  0  0
  2 12  1  1  0  0  0
  2  3  1  0  0  0  0
  3  5  1  0  0  0  0
  4  9  1  0  0  0  0
  4  7  1  0  0  0  0
  5 26  1  0  0  0  0
  6  8  1  0  0  0  0
  7  8  1  0  0  0  0
  7  3  1  0  0  0  0
  8 10  1  0  0  0  0
  9  2  1  0  0  0  0
 10  5  1  0  0  0  0
 12 11  1  0  0  0  0
 13 18  2  0  0  0  0
 13 15  1  0  0  0  0
 15 17  2  0  0  0  0
 16 14  2  0  0  0  0
 17 14  1  0  0  0  0
 17 12  1  0  0  0  0
 18 16  1  0  0  0  0
 19 20  1  0  0  0  0
 20 13  1  0  0  0  0
 21 25  1  0  0  0  0
 22 20  1  0  0  0  0
 22 23  1  0  0  0  0
 24 25  1  0  0  0  0
 25 22  2  0  0  0  0
 26 27  1  0  0  0  0
 27 28  1  0  0  0  0
 27 30  1  0  0  0  0
 28 29  2  0  0  0  0
 29 32  1  0  0  0  0
 30 31  1  0  0  0  0
 31 32  1  0  0  0  0
M  END
>  <MODEL>
1

>  <REMARK>
 VINA RESULT:      -9.3      0.000      0.000
  Name = 
  6 active torsions:
  status: ('A' for Active; 'I' for Inactive)
    1  A    between atoms: C_1  and  N_27
    2  A    between atoms: C_2  and  C_23
    3  A    between atoms: C_8  and  N_30
    4  A    between atoms: C_9  and  C_23
    5  A    between atoms: C_12  and  N_30
    6  A    between atoms: C_17  and  N_27
                            x       y       z     vdW  Elec       q    Type
                         _______ _______ _______ _____ _____    ______ ____

>  <TORSDO>
F 6

$$$$
=
 OpenBabel11052411513D

 32 35  0  0  1  0  0  0  0  0999 V2000
  160.8320  205.2210  153.8810 S   0  0  0  0  0  1  0  0  0  0  0  0
  160.8980  208.2030  151.5250 C   0  0  1  0  0  3  0  0  0  0  0  0
  161.6290  207.2290  150.6220 C   0  0  2  0  0  3  0  0  0  0  0  0
  161.8830  206.4110  152.9520 C   0  0  1  0  0  3  0  0  0  0  0  0
  160.7800  206.5840  149.5290 C   0  0  2  0  0  3  0  0  0  0  0  0
  161.9340  203.7210  151.5230 F   0  0  0  0  0  0  0  0  0  0  0  0
  161.9370  206.1020  151.4970 C   0  0  1  0  0  3  0  0  0  0  0  0
  161.7810  204.9350  150.9050 C   0  0  2  0  0  3  0  0  0  0  0  0
  161.1980  207.7770  152.9840 C   0  0  0  0  0  2  0  0  0  0  0  0
  161.1200  205.0870  149.5850 C   0  0  0  0  0  2  0  0  0  0  0  0
  162.2900  209.7870  150.3190 O   0  0  0  0  0  1  0  0  0  0  0  0
  161.3990  209.5770  151.3080 N   0  0  0  0  0  0  0  0  0  0  0  0
  160.2170  211.6330  154.2010 C   0  0  0  0  0  0  0  0  0  0  0  0
  160.3110  211.7930  151.3990 C   0  0  0  0  0  3  0  0  0  0  0  0
  160.8080  210.6210  153.4380 C   0  0  0  0  0  3  0  0  0  0  0  0
  159.7030  212.8090  152.1420 C   0  0  0  0  0  3  0  0  0  0  0  0
  160.9020  210.7090  152.0460 C   0  0  0  0  0  0  0  0  0  0  0  0
  159.6650  212.7430  153.5340 C   0  0  0  0  0  3  0  0  0  0  0  0
  160.0940  212.8610  156.3870 C   0  0  0  0  0  1  0  0  0  0  0  0
  160.0370  211.5070  155.7000 C   0  0  2  0  0  3  0  0  0  0  0  0
  159.5260  208.7140  156.0410 O   0  0  0  0  0  1  0  0  0  0  0  0
  161.0090  210.5610  156.3650 C   0  0  0  0  0  0  0  0  0  0  0  0
  162.3180  211.0510  156.7320 N   0  0  0  0  0  1  0  0  0  0  0  0
  161.6080  208.3350  157.2610 C   0  0  0  0  0  1  0  0  0  0  0  0
  160.6910  209.2610  156.5530 C   0  0  0  0  0  0  0  0  0  0  0  0
  161.1270  207.1400  148.2100 N   0  0  0  0  0  2  0  0  0  0  0  0
  161.1810  206.1440  147.1360 C   0  0  1  0  0  3  0  0  0  0  0  0
  160.1670  206.3170  146.0380 C   0  0  0  0  0  3  0  0  0  0  0  0
  160.3290  205.7270  144.9130 N   0  0  0  0  0  0  0  0  0  0  0  0
  162.5750  205.8420  146.6100 C   0  0  0  0  0  2  0  0  0  0  0  0
  162.4740  204.6540  145.6780 C   0  0  0  0  0  2  0  0  0  0  0  0
  161.5320  204.9820  144.5130 C   0  0  0  0  0  2  0  0  0  0  0  0
  2 12  1  1  0  0  0
  2  9  1  0  0  0  0
  3  7  1  0  0  0  0
  3  2  1  0  0  0  0
  4  9  1  0  0  0  0
  4  1  1  0  0  0  0
  5 10  1  0  0  0  0
  5  3  1  0  0  0  0
  7  4  1  0  0  0  0
  8  7  1  0  0  0  0
  8  6  1  0  0  0  0
 10  8  1  0  0  0  0
 11 12  1  0  0  0  0
 12 17  1  0  0  0  0
 13 20  1  0  0  0  0
 14 17  2  0  0  0  0
 14 16  1  0  0  0  0
 15 13  2  0  0  0  0
 16 18  2  0  0  0  0
 17 15  1  0  0  0  0
 18 13  1  0  0  0  0
 20 22  1  0  0  0  0
 20 19  1  0  0  0  0
 21 25  1  0  0  0  0
 22 25  2  0  0  0  0
 22 23  1  0  0  0  0
 25 24  1  0  0  0  0
 26  5  1  0  0  0  0
 27 26  1  0  0  0  0
 28 27  1  0  0  0  0
 29 28  2  0  0  0  0
 30 27  1  0  0  0  0
 31 30  1  0  0  0  0
 32 29  1  0  0  0  0
 32 31  1  0  0  0  0
M  END
>  <MODEL>
2

>  <REMARK>
 VINA RESULT:      -8.3      3.226      9.403
  Name = 
  6 active torsions:
  status: ('A' for Active; 'I' for Inactive)
    1  A    between atoms: C_1  and  N_27
    2  A    between atoms: C_2  and  C_23
    3  A    between atoms: C_8  and  N_30
    4  A    between atoms: C_9  and  C_23
    5  A    between atoms: C_12  and  N_30
    6  A    between atoms: C_17  and  N_27
                            x       y       z     vdW  Elec       q    Type
                         _______ _______ _______ _____ _____    ______ ____

>  <TORSDO>
F 6

$$$$
=
 OpenBabel11052411513D

 32 35  0  0  1  0  0  0  0  0999 V2000
  161.9480  209.1000  157.0670 S   0  0  0  0  0  1  0  0  0  0  0  0
  161.4950  208.2080  153.4000 C   0  0  1  0  0  3  0  0  0  0  0  0
  160.4310  209.2870  153.4690 C   0  0  2  0  0  3  0  0  0  0  0  0
  160.7990  208.4620  155.7810 C   0  0  1  0  0  3  0  0  0  0  0  0
  160.8450  210.6520  152.9230 C   0  0  2  0  0  3  0  0  0  0  0  0
  160.0460  211.3390  156.4440 F   0  0  0  0  0  0  0  0  0  0  0  0
  160.2820  209.5430  154.8970 C   0  0  1  0  0  3  0  0  0  0  0  0
  160.1330  210.8220  155.1770 C   0  0  2  0  0  3  0  0  0  0  0  0
  161.6000  207.5890  154.8160 C   0  0  0  0  0  2  0  0  0  0  0  0
  160.3830  211.6650  153.9810 C   0  0  0  0  0  2  0  0  0  0  0  0
  160.4540  206.0700  152.9050 O   0  0  0  0  0  1  0  0  0  0  0  0
  161.0980  207.1580  152.4390 N   0  0  0  0  0  0  0  0  0  0  0  0
  161.2130  206.2530  148.8110 C   0  0  0  0  0  0  0  0  0  0  0  0
  162.0070  208.3640  150.4840 C   0  0  0  0  0  3  0  0  0  0  0  0
  160.9380  206.2330  150.1810 C   0  0  0  0  0  3  0  0  0  0  0  0
  162.3050  208.3980  149.1180 C   0  0  0  0  0  3  0  0  0  0  0  0
  161.2870  207.2970  151.0170 C   0  0  0  0  0  0  0  0  0  0  0  0
  161.9020  207.3600  148.2790 C   0  0  0  0  0  3  0  0  0  0  0  0
  161.2200  203.7510  148.6020 C   0  0  0  0  0  1  0  0  0  0  0  0
  160.9130  205.0700  147.9130 C   0  0  2  0  0  3  0  0  0  0  0  0
  159.6920  206.1050  145.5440 O   0  0  0  0  0  1  0  0  0  0  0  0
  161.6090  205.1150  146.5720 C   0  0  0  0  0  0  0  0  0  0  0  0
  163.0030  204.7430  146.4990 N   0  0  0  0  0  1  0  0  0  0  0  0
  161.6120  205.5520  144.1390 C   0  0  0  0  0  1  0  0  0  0  0  0
  160.9630  205.5610  145.4720 C   0  0  0  0  0  0  0  0  0  0  0  0
  160.1810  210.9160  151.6350 N   0  0  0  0  0  2  0  0  0  0  0  0
  160.6760  212.1090  150.9410 C   0  0  1  0  0  3  0  0  0  0  0  0
  161.4460  211.8490  149.6740 C   0  0  0  0  0  3  0  0  0  0  0  0
  161.6330  212.7940  148.8290 N   0  0  0  0  0  0  0  0  0  0  0  0
  159.6640  213.2340  150.7960 C   0  0  0  0  0  2  0  0  0  0  0  0
  160.3920  214.4500  150.2640 C   0  0  0  0  0  2  0  0  0  0  0  0
  161.0190  214.1280  148.9020 C   0  0  0  0  0  2  0  0  0  0  0  0
  2 12  1  6  0  0  0
  2  3  1  0  0  0  0
  2  9  1  0  0  0  0
  3  7  1  0  0  0  0
  4  1  1  0  0  0  0
  5  3  1  0  0  0  0
  5 10  1  0  0  0  0
  7  8  1  0  0  0  0
  7  4  1  0  0  0  0
  8  6  1  0  0  0  0
  9  4  1  0  0  0  0
 10  8  1  0  0  0  0
 12 11  1  0  0  0  0
 13 15  1  0  0  0  0
 14 17  1  0  0  0  0
 15 17  2  0  0  0  0
 16 14  2  0  0  0  0
 17 12  1  0  0  0  0
 18 13  2  0  0  0  0
 18 16  1  0  0  0  0
 20 19  1  0  0  0  0
 20 13  1  0  0  0  0
 22 20  1  0  0  0  0
 23 22  1  0  0  0  0
 24 25  1  0  0  0  0
 25 21  1  0  0  0  0
 25 22  2  0  0  0  0
 26  5  1  0  0  0  0
 27 26  1  0  0  0  0
 28 27  1  0  0  0  0
 29 32  1  0  0  0  0
 29 28  2  0  0  0  0
 30 27  1  0  0  0  0
 31 30  1  0  0  0  0
 32 31  1  0  0  0  0
M  END
>  <MODEL>
3

>  <REMARK>
 VINA RESULT:      -8.2      3.264      5.135
  Name = 
  6 active torsions:
  status: ('A' for Active; 'I' for Inactive)
    1  A    between atoms: C_1  and  N_27
    2  A    between atoms: C_2  and  C_23
    3  A    between atoms: C_8  and  N_30
    4  A    between atoms: C_9  and  C_23
    5  A    between atoms: C_12  and  N_30
    6  A    between atoms: C_17  and  N_27
                            x       y       z     vdW  Elec       q    Type
                         _______ _______ _______ _____ _____    ______ ____

>  <TORSDO>
F 6

$$$$
=
 OpenBabel11052411513D

 32 35  0  0  1  0  0  0  0  0999 V2000
  160.8320  205.1340  153.8800 S   0  0  0  0  0  1  0  0  0  0  0  0
  160.8680  208.1610  151.5810 C   0  0  1  0  0  3  0  0  0  0  0  0
  161.6030  207.2090  150.6570 C   0  0  2  0  0  3  0  0  0  0  0  0
  161.8710  206.3490  152.9700 C   0  0  1  0  0  3  0  0  0  0  0  0
  160.7540  206.5790  149.5550 C   0  0  2  0  0  3  0  0  0  0  0  0
  161.9360  203.6870  151.4900 F   0  0  0  0  0  0  0  0  0  0  0  0
  161.9220  206.0680  151.5090 C   0  0  1  0  0  3  0  0  0  0  0  0
  161.7720  204.9120  150.8960 C   0  0  2  0  0  3  0  0  0  0  0  0
  161.1760  207.7090  153.0310 C   0  0  0  0  0  2  0  0  0  0  0  0
  161.1050  205.0840  149.5810 C   0  0  0  0  0  2  0  0  0  0  0  0
  162.3320  209.7580  150.4830 O   0  0  0  0  0  1  0  0  0  0  0  0
  161.3570  209.5420  151.3880 N   0  0  0  0  0  0  0  0  0  0  0  0
  159.6630  211.5490  154.0520 C   0  0  0  0  0  0  0  0  0  0  0  0
  160.4090  211.8230  151.3580 C   0  0  0  0  0  3  0  0  0  0  0  0
  160.3540  210.5330  153.3860 C   0  0  0  0  0  3  0  0  0  0  0  0
  159.7060  212.8460  152.0010 C   0  0  0  0  0  3  0  0  0  0  0  0
  160.7700  210.6740  152.0590 C   0  0  0  0  0  0  0  0  0  0  0  0
  159.3450  212.7230  153.3420 C   0  0  0  0  0  3  0  0  0  0  0  0
  159.3330  209.9510  155.9590 C   0  0  0  0  0  1  0  0  0  0  0  0
  159.1350  211.3720  155.4610 C   0  0  2  0  0  3  0  0  0  0  0  0
  158.3200  213.7150  156.8850 O   0  0  0  0  0  1  0  0  0  0  0  0
  157.6890  211.7750  155.6380 C   0  0  0  0  0  0  0  0  0  0  0  0
  156.6680  211.0220  154.9480 N   0  0  0  0  0  1  0  0  0  0  0  0
  155.9420  213.2320  156.6070 C   0  0  0  0  0  1  0  0  0  0  0  0
  157.3590  212.8610  156.3720 C   0  0  0  0  0  0  0  0  0  0  0  0
  161.0910  207.1630  148.2450 N   0  0  0  0  0  2  0  0  0  0  0  0
  161.1880  206.1830  147.1600 C   0  0  1  0  0  3  0  0  0  0  0  0
  160.2410  206.3920  146.0100 C   0  0  0  0  0  3  0  0  0  0  0  0
  160.4560  205.8160  144.8860 N   0  0  0  0  0  0  0  0  0  0  0  0
  162.6040  205.8620  146.7080 C   0  0  0  0  0  2  0  0  0  0  0  0
  162.5340  204.6900  145.7530 C   0  0  0  0  0  2  0  0  0  0  0  0
  161.6660  205.0550  144.5420 C   0  0  0  0  0  2  0  0  0  0  0  0
  2 12  1  1  0  0  0
  2  9  1  0  0  0  0
  3  7  1  0  0  0  0
  3  2  1  0  0  0  0
  4  9  1  0  0  0  0
  4  1  1  0  0  0  0
  5 10  1  0  0  0  0
  5  3  1  0  0  0  0
  7  4  1  0  0  0  0
  8  6  1  0  0  0  0
  8  7  1  0  0  0  0
 10  8  1  0  0  0  0
 11 12  1  0  0  0  0
 12 17  1  0  0  0  0
 13 20  1  0  0  0  0
 14 16  2  0  0  0  0
 14 17  1  0  0  0  0
 15 13  1  0  0  0  0
 16 18  1  0  0  0  0
 17 15  2  0  0  0  0
 18 13  2  0  0  0  0
 20 22  1  0  0  0  0
 20 19  1  0  0  0  0
 22 25  2  0  0  0  0
 23 22  1  0  0  0  0
 25 24  1  0  0  0  0
 25 21  1  0  0  0  0
 26  5  1  0  0  0  0
 27 26  1  0  0  0  0
 28 27  1  0  0  0  0
 29 28  2  0  0  0  0
 30 27  1  0  0  0  0
 31 30  1  0  0  0  0
 32 29  1  0  0  0  0
 32 31  1  0  0  0  0
M  END
>  <MODEL>
4

>  <REMARK>
 VINA RESULT:      -8.1      3.614      9.675
  Name = 
  6 active torsions:
  status: ('A' for Active; 'I' for Inactive)
    1  A    between atoms: C_1  and  N_27
    2  A    between atoms: C_2  and  C_23
    3  A    between atoms: C_8  and  N_30
    4  A    between atoms: C_9  and  C_23
    5  A    between atoms: C_12  and  N_30
    6  A    between atoms: C_17  and  N_27
                            x       y       z     vdW  Elec       q    Type
                         _______ _______ _______ _____ _____    ______ ____

>  <TORSDO>
F 6

$$$$
=
 OpenBabel11052411513D

 32 35  0  0  1  0  0  0  0  0999 V2000
  161.2150  207.5580  156.9440 S   0  0  0  0  0  1  0  0  0  0  0  0
  161.4170  208.0240  153.1760 C   0  0  1  0  0  3  0  0  0  0  0  0
  160.4730  209.1760  153.4620 C   0  0  2  0  0  3  0  0  0  0  0  0
  160.2880  207.5810  155.3550 C   0  0  1  0  0  3  0  0  0  0  0  0
  161.1210  210.5590  153.5090 C   0  0  2  0  0  3  0  0  0  0  0  0
  159.7060  210.1560  156.8780 F   0  0  0  0  0  0  0  0  0  0  0  0
  160.0680  208.9630  154.8480 C   0  0  1  0  0  3  0  0  0  0  0  0
  159.9930  210.0830  155.5390 C   0  0  2  0  0  3  0  0  0  0  0  0
  161.1750  206.9610  154.2770 C   0  0  0  0  0  2  0  0  0  0  0  0
  160.5600  211.2230  154.7760 C   0  0  0  0  0  2  0  0  0  0  0  0
  160.8330  208.2610  150.8310 O   0  0  0  0  0  1  0  0  0  0  0  0
  161.1180  207.4330  151.8550 N   0  0  0  0  0  0  0  0  0  0  0  0
  161.0050  204.1900  149.9930 C   0  0  0  0  0  0  0  0  0  0  0  0
  161.2350  205.0950  152.6420 C   0  0  0  0  0  3  0  0  0  0  0  0
  161.0530  205.5550  150.2900 C   0  0  0  0  0  3  0  0  0  0  0  0
  161.1750  203.7250  152.3690 C   0  0  0  0  0  3  0  0  0  0  0  0
  161.2120  206.0190  151.5990 C   0  0  0  0  0  0  0  0  0  0  0  0
  161.0750  203.2680  151.0560 C   0  0  0  0  0  3  0  0  0  0  0  0
  160.9300  202.1760  148.4970 C   0  0  0  0  0  1  0  0  0  0  0  0
  160.7500  203.6810  148.5890 C   0  0  2  0  0  3  0  0  0  0  0  0
  160.0800  206.2170  147.4490 O   0  0  0  0  0  1  0  0  0  0  0  0
  161.5810  204.3570  147.5230 C   0  0  0  0  0  0  0  0  0  0  0  0
  162.8450  203.7680  147.1490 N   0  0  0  0  0  1  0  0  0  0  0  0
  161.9570  206.1710  145.8860 C   0  0  0  0  0  1  0  0  0  0  0  0
  161.1850  205.5280  146.9770 C   0  0  0  0  0  0  0  0  0  0  0  0
  160.7570  211.3400  152.3150 N   0  0  0  0  0  2  0  0  0  0  0  0
  159.7360  212.3630  152.5580 C   0  0  1  0  0  3  0  0  0  0  0  0
  159.7820  213.5570  151.6430 C   0  0  0  0  0  3  0  0  0  0  0  0
  158.7670  214.3310  151.5430 N   0  0  0  0  0  0  0  0  0  0  0  0
  158.3270  211.8280  152.7590 C   0  0  0  0  0  2  0  0  0  0  0  0
  157.4520  212.9780  153.2100 C   0  0  0  0  0  2  0  0  0  0  0  0
  157.4490  214.0810  152.1440 C   0  0  0  0  0  2  0  0  0  0  0  0
  2 12  1  6  0  0  0
  2  3  1  0  0  0  0
  2  9  1  0  0  0  0
  3  5  1  0  0  0  0
  3  7  1  0  0  0  0
  4  1  1  0  0  0  0
  5 10  1  0  0  0  0
  7  4  1  0  0  0  0
  7  8  1  0  0  0  0
  8  6  1  0  0  0  0
  9  4  1  0  0  0  0
 10  8  1  0  0  0  0
 11 12  1  0  0  0  0
 13 15  2  0  0  0  0
 13 18  1  0  0  0  0
 15 17  1  0  0  0  0
 16 14  1  0  0  0  0
 17 12  1  0  0  0  0
 17 14  2  0  0  0  0
 18 16  2  0  0  0  0
 19 20  1  0  0  0  0
 20 13  1  0  0  0  0
 22 20  1  0  0  0  0
 23 22  1  0  0  0  0
 24 25  1  0  0  0  0
 25 21  1  0  0  0  0
 25 22  2  0  0  0  0
 26 27  1  0  0  0  0
 26  5  1  0  0  0  0
 27 30  1  0  0  0  0
 28 27  1  0  0  0  0
 29 28  2  0  0  0  0
 29 32  1  0  0  0  0
 30 31  1  0  0  0  0
 32 31  1  0  0  0  0
M  END
>  <MODEL>
5

>  <REMARK>
 VINA RESULT:      -8.0      3.336      4.381
  Name = 
  6 active torsions:
  status: ('A' for Active; 'I' for Inactive)
    1  A    between atoms: C_1  and  N_27
    2  A    between atoms: C_2  and  C_23
    3  A    between atoms: C_8  and  N_30
    4  A    between atoms: C_9  and  C_23
    5  A    between atoms: C_12  and  N_30
    6  A    between atoms: C_17  and  N_27
                            x       y       z     vdW  Elec       q    Type
                         _______ _______ _______ _____ _____    ______ ____

>  <TORSDO>
F 6

$$$$
=
 OpenBabel11052411513D

 32 35  0  0  1  0  0  0  0  0999 V2000
  160.5540  204.2260  153.5110 S   0  0  0  0  0  1  0  0  0  0  0  0
  160.7870  207.4850  151.5680 C   0  0  1  0  0  3  0  0  0  0  0  0
  161.4610  206.5980  150.5380 C   0  0  2  0  0  3  0  0  0  0  0  0
  161.6690  205.4680  152.7380 C   0  0  1  0  0  3  0  0  0  0  0  0
  160.5760  206.1520  149.3760 C   0  0  2  0  0  3  0  0  0  0  0  0
  161.5680  202.9900  150.9670 F   0  0  0  0  0  0  0  0  0  0  0  0
  161.7050  205.3510  151.2550 C   0  0  1  0  0  3  0  0  0  0  0  0
  161.4840  204.2820  150.5160 C   0  0  2  0  0  3  0  0  0  0  0  0
  161.0630  206.8530  152.9550 C   0  0  0  0  0  2  0  0  0  0  0  0
  160.8310  204.6440  149.2320 C   0  0  0  0  0  2  0  0  0  0  0  0
  162.3680  209.0920  150.6650 O   0  0  0  0  0  1  0  0  0  0  0  0
  161.3640  208.8450  151.5290 N   0  0  0  0  0  0  0  0  0  0  0  0
  160.0450  212.2450  152.3610 C   0  0  0  0  0  0  0  0  0  0  0  0
  160.9050  209.9310  153.6990 C   0  0  0  0  0  3  0  0  0  0  0  0
  160.4470  211.1080  151.6540 C   0  0  0  0  0  3  0  0  0  0  0  0
  160.5210  211.0620  154.4260 C   0  0  0  0  0  3  0  0  0  0  0  0
  160.8340  209.9340  152.3080 C   0  0  0  0  0  0  0  0  0  0  0  0
  160.0800  212.2100  153.7680 C   0  0  0  0  0  3  0  0  0  0  0  0
  158.8160  214.4280  152.5240 C   0  0  0  0  0  1  0  0  0  0  0  0
  159.7040  213.5460  151.6630 C   0  0  2  0  0  3  0  0  0  0  0  0
  161.2040  213.5880  149.2290 O   0  0  0  0  0  1  0  0  0  0  0  0
  159.0780  213.3730  150.2990 C   0  0  0  0  0  0  0  0  0  0  0  0
  157.6750  213.0380  150.2150 N   0  0  0  0  0  1  0  0  0  0  0  0
  159.2150  213.3570  147.8310 C   0  0  0  0  0  1  0  0  0  0  0  0
  159.8270  213.4610  149.1780 C   0  0  0  0  0  0  0  0  0  0  0  0
  160.9530  206.8580  148.1390 N   0  0  0  0  0  2  0  0  0  0  0  0
  161.1360  205.9770  146.9820 C   0  0  1  0  0  3  0  0  0  0  0  0
  160.1860  206.2050  145.8370 C   0  0  0  0  0  3  0  0  0  0  0  0
  160.4550  205.7390  144.6740 N   0  0  0  0  0  0  0  0  0  0  0  0
  162.5770  205.8050  146.5270 C   0  0  0  0  0  2  0  0  0  0  0  0
  162.6070  204.7120  145.4810 C   0  0  0  0  0  2  0  0  0  0  0  0
  161.7240  205.1040  144.2900 C   0  0  0  0  0  2  0  0  0  0  0  0
  2 12  1  1  0  0  0
  2  9  1  0  0  0  0
  3  7  1  0  0  0  0
  3  2  1  0  0  0  0
  4  9  1  0  0  0  0
  4  1  1  0  0  0  0
  5  3  1  0  0  0  0
  7  4  1  0  0  0  0
  8  6  1  0  0  0  0
  8  7  1  0  0  0  0
 10  5  1  0  0  0  0
 10  8  1  0  0  0  0
 11 12  1  0  0  0  0
 12 17  1  0  0  0  0
 13 18  1  0  0  0  0
 14 16  1  0  0  0  0
 15 17  1  0  0  0  0
 15 13  2  0  0  0  0
 17 14  2  0  0  0  0
 18 16  2  0  0  0  0
 20 13  1  0  0  0  0
 20 19  1  0  0  0  0
 22 20  1  0  0  0  0
 23 22  1  0  0  0  0
 24 25  1  0  0  0  0
 25 21  1  0  0  0  0
 25 22  2  0  0  0  0
 26  5  1  0  0  0  0
 27 26  1  0  0  0  0
 28 27  1  0  0  0  0
 29 28  2  0  0  0  0
 30 27  1  0  0  0  0
 31 30  1  0  0  0  0
 32 29  1  0  0  0  0
 32 31  1  0  0  0  0
M  END
>  <MODEL>
6

>  <REMARK>
 VINA RESULT:      -7.8      3.985      8.827
  Name = 
  6 active torsions:
  status: ('A' for Active; 'I' for Inactive)
    1  A    between atoms: C_1  and  N_27
    2  A    between atoms: C_2  and  C_23
    3  A    between atoms: C_8  and  N_30
    4  A    between atoms: C_9  and  C_23
    5  A    between atoms: C_12  and  N_30
    6  A    between atoms: C_17  and  N_27
                            x       y       z     vdW  Elec       q    Type
                         _______ _______ _______ _____ _____    ______ ____

>  <TORSDO>
F 6

$$$$
=
 OpenBabel11052411513D

 32 35  0  0  1  0  0  0  0  0999 V2000
  160.3950  203.6020  153.1550 S   0  0  0  0  0  1  0  0  0  0  0  0
  160.8050  207.0160  151.5350 C   0  0  1  0  0  3  0  0  0  0  0  0
  161.4420  206.2000  150.4270 C   0  0  2  0  0  3  0  0  0  0  0  0
  161.5770  204.8540  152.5080 C   0  0  1  0  0  3  0  0  0  0  0  0
  160.5440  205.9120  149.2250 C   0  0  2  0  0  3  0  0  0  0  0  0
  161.3650  202.5670  150.5070 F   0  0  0  0  0  0  0  0  0  0  0  0
  161.6180  204.8790  151.0200 C   0  0  1  0  0  3  0  0  0  0  0  0
  161.3490  203.8990  150.1820 C   0  0  2  0  0  3  0  0  0  0  0  0
  161.0390  206.2410  152.8560 C   0  0  0  0  0  2  0  0  0  0  0  0
  160.7250  204.4140  148.9370 C   0  0  0  0  0  2  0  0  0  0  0  0
  162.3580  208.6830  150.6940 O   0  0  0  0  0  1  0  0  0  0  0  0
  161.4500  208.3430  151.6290 N   0  0  0  0  0  0  0  0  0  0  0  0
  159.6340  211.1880  153.2430 C   0  0  0  0  0  0  0  0  0  0  0  0
  161.9110  209.6090  153.6990 C   0  0  0  0  0  3  0  0  0  0  0  0
  159.9720  210.1400  152.3820 C   0  0  0  0  0  3  0  0  0  0  0  0
  161.6000  210.6610  154.5650 C   0  0  0  0  0  3  0  0  0  0  0  0
  161.0770  209.3180  152.6210 C   0  0  0  0  0  0  0  0  0  0  0  0
  160.4630  211.4400  154.3520 C   0  0  0  0  0  3  0  0  0  0  0  0
  158.8190  213.0720  151.7980 C   0  0  0  0  0  1  0  0  0  0  0  0
  158.4880  212.1340  152.9460 C   0  0  2  0  0  3  0  0  0  0  0  0
  156.6000  211.1550  154.8570 O   0  0  0  0  0  1  0  0  0  0  0  0
  158.0220  212.9370  154.1380 C   0  0  0  0  0  0  0  0  0  0  0  0
  158.6500  214.2090  154.4100 N   0  0  0  0  0  1  0  0  0  0  0  0
  156.5690  213.2490  156.1140 C   0  0  0  0  0  1  0  0  0  0  0  0
  157.0830  212.4470  154.9770 C   0  0  0  0  0  0  0  0  0  0  0  0
  160.9650  206.7130  148.0630 N   0  0  0  0  0  2  0  0  0  0  0  0
  161.1690  205.9310  146.8400 C   0  0  1  0  0  3  0  0  0  0  0  0
  160.1940  206.2020  145.7260 C   0  0  0  0  0  3  0  0  0  0  0  0
  160.4660  205.8370  144.5290 N   0  0  0  0  0  0  0  0  0  0  0  0
  162.6090  205.8550  146.3590 C   0  0  0  0  0  2  0  0  0  0  0  0
  162.6700  204.8450  145.2330 C   0  0  0  0  0  2  0  0  0  0  0  0
  161.7550  205.2870  144.0840 C   0  0  0  0  0  2  0  0  0  0  0  0
  2 12  1  1  0  0  0
  2  9  1  0  0  0  0
  3  7  1  0  0  0  0
  3  2  1  0  0  0  0
  4  9  1  0  0  0  0
  4  1  1  0  0  0  0
  5  3  1  0  0  0  0
  7  4  1  0  0  0  0
  8  6  1  0  0  0  0
  8  7  1  0  0  0  0
 10  5  1  0  0  0  0
 10  8  1  0  0  0  0
 11 12  1  0  0  0  0
 12 17  1  0  0  0  0
 13 18  1  0  0  0  0
 14 16  1  0  0  0  0
 15 17  1  0  0  0  0
 15 13  2  0  0  0  0
 17 14  2  0  0  0  0
 18 16  2  0  0  0  0
 19 20  1  0  0  0  0
 20 13  1  0  0  0  0
 20 22  1  0  0  0  0
 21 25  1  0  0  0  0
 22 23  1  0  0  0  0
 22 25  2  0  0  0  0
 25 24  1  0  0  0  0
 26  5  1  0  0  0  0
 27 26  1  0  0  0  0
 28 27  1  0  0  0  0
 29 28  2  0  0  0  0
 30 27  1  0  0  0  0
 31 30  1  0  0  0  0
 32 29  1  0  0  0  0
 32 31  1  0  0  0  0
M  END
>  <MODEL>
7

>  <REMARK>
 VINA RESULT:      -7.8      3.492      9.370
  Name = 
  6 active torsions:
  status: ('A' for Active; 'I' for Inactive)
    1  A    between atoms: C_1  and  N_27
    2  A    between atoms: C_2  and  C_23
    3  A    between atoms: C_8  and  N_30
    4  A    between atoms: C_9  and  C_23
    5  A    between atoms: C_12  and  N_30
    6  A    between atoms: C_17  and  N_27
                            x       y       z     vdW  Elec       q    Type
                         _______ _______ _______ _____ _____    ______ ____

>  <TORSDO>
F 6

$$$$
=
 OpenBabel11052411513D

 32 35  0  0  1  0  0  0  0  0999 V2000
  159.4580  202.2730  149.4410 S   0  0  0  0  0  1  0  0  0  0  0  0
  161.0440  205.4000  150.9090 C   0  0  1  0  0  3  0  0  0  0  0  0
  161.9030  205.3170  149.6620 C   0  0  2  0  0  3  0  0  0  0  0  0
  160.9960  203.0460  150.0900 C   0  0  1  0  0  3  0  0  0  0  0  0
  161.4960  206.2490  148.5220 C   0  0  2  0  0  3  0  0  0  0  0  0
  161.1690  202.8960  147.0510 F   0  0  0  0  0  0  0  0  0  0  0  0
  161.6060  203.9950  149.1190 C   0  0  1  0  0  3  0  0  0  0  0  0
  161.5110  203.9900  147.8050 C   0  0  2  0  0  3  0  0  0  0  0  0
  160.6160  203.9530  151.2590 C   0  0  0  0  0  2  0  0  0  0  0  0
  161.5090  205.3710  147.2610 C   0  0  0  0  0  2  0  0  0  0  0  0
  163.1690  205.9030  151.9720 O   0  0  0  0  0  1  0  0  0  0  0  0
  161.8240  205.9620  152.0320 N   0  0  0  0  0  0  0  0  0  0  0  0
  160.7870  208.7700  154.2760 C   0  0  0  0  0  0  0  0  0  0  0  0
  160.7700  205.9620  154.2660 C   0  0  0  0  0  3  0  0  0  0  0  0
  161.2510  208.0480  153.1730 C   0  0  0  0  0  3  0  0  0  0  0  0
  160.3130  206.6640  155.3850 C   0  0  0  0  0  3  0  0  0  0  0  0
  161.2080  206.6510  153.1360 C   0  0  0  0  0  0  0  0  0  0  0  0
  160.3050  208.0580  155.3910 C   0  0  0  0  0  3  0  0  0  0  0  0
  161.9910  210.7020  155.3340 C   0  0  0  0  0  1  0  0  0  0  0  0
  160.9070  210.2780  154.3570 C   0  0  2  0  0  3  0  0  0  0  0  0
  159.0060  211.1010  152.3860 O   0  0  0  0  0  1  0  0  0  0  0  0
  159.6160  210.9870  154.6940 C   0  0  0  0  0  0  0  0  0  0  0  0
  159.2500  211.1440  156.0830 N   0  0  0  0  0  1  0  0  0  0  0  0
  157.5420  212.1590  154.0310 C   0  0  0  0  0  1  0  0  0  0  0  0
  158.7810  211.4060  153.7170 C   0  0  0  0  0  0  0  0  0  0  0  0
  162.4610  207.3530  148.3900 N   0  0  0  0  0  2  0  0  0  0  0  0
  161.9380  208.6580  148.8060 C   0  0  1  0  0  3  0  0  0  0  0  0
  162.0680  208.9710  150.2720 C   0  0  0  0  0  3  0  0  0  0  0  0
  161.9560  210.1790  150.6840 N   0  0  0  0  0  0  0  0  0  0  0  0
  162.3360  209.8240  147.9150 C   0  0  0  0  0  2  0  0  0  0  0  0
  161.5440  211.0370  148.3530 C   0  0  0  0  0  2  0  0  0  0  0  0
  161.8570  211.3640  149.8190 C   0  0  0  0  0  2  0  0  0  0  0  0
  1  4  1  0  0  0  0
  2  9  1  0  0  0  0
  2 12  1  1  0  0  0
  3  2  1  0  0  0  0
  4  9  1  0  0  0  0
  5  3  1  0  0  0  0
  6  8  1  0  0  0  0
  7  3  1  0  0  0  0
  7  4  1  0  0  0  0
  8  7  1  0  0  0  0
 10  8  1  0  0  0  0
 10  5  1  0  0  0  0
 11 12  1  0  0  0  0
 12 17  1  0  0  0  0
 13 20  1  0  0  0  0
 13 18  1  0  0  0  0
 14 16  1  0  0  0  0
 15 13  2  0  0  0  0
 16 18  2  0  0  0  0
 17 15  1  0  0  0  0
 17 14  2  0  0  0  0
 20 22  1  0  0  0  0
 20 19  1  0  0  0  0
 21 25  1  0  0  0  0
 22 23  1  0  0  0  0
 25 24  1  0  0  0  0
 25 22  2  0  0  0  0
 26  5  1  0  0  0  0
 26 27  1  0  0  0  0
 27 28  1  0  0  0  0
 28 29  2  0  0  0  0
 30 31  1  0  0  0  0
 30 27  1  0  0  0  0
 31 32  1  0  0  0  0
 32 29  1  0  0  0  0
M  END
>  <MODEL>
8

>  <REMARK>
 VINA RESULT:      -7.6      2.995      7.646
  Name = 
  6 active torsions:
  status: ('A' for Active; 'I' for Inactive)
    1  A    between atoms: C_1  and  N_27
    2  A    between atoms: C_2  and  C_23
    3  A    between atoms: C_8  and  N_30
    4  A    between atoms: C_9  and  C_23
    5  A    between atoms: C_12  and  N_30
    6  A    between atoms: C_17  and  N_27
                            x       y       z     vdW  Elec       q    Type
                         _______ _______ _______ _____ _____    ______ ____

>  <TORSDO>
F 6

$$$$
=
 OpenBabel11052411513D

 32 35  0  0  1  0  0  0  0  0999 V2000
  162.3340  208.9950  148.6380 S   0  0  0  0  0  1  0  0  0  0  0  0
  161.6880  206.0570  150.9610 C   0  0  1  0  0  3  0  0  0  0  0  0
  160.8390  205.5750  149.8010 C   0  0  2  0  0  3  0  0  0  0  0  0
  161.0740  208.0350  149.5740 C   0  0  1  0  0  3  0  0  0  0  0  0
  161.4880  204.5210  148.9060 C   0  0  2  0  0  3  0  0  0  0  0  0
  160.8630  207.3290  146.6170 F   0  0  0  0  0  0  0  0  0  0  0  0
  160.7540  206.7360  148.9220 C   0  0  1  0  0  3  0  0  0  0  0  0
  160.8420  206.4210  147.6450 C   0  0  2  0  0  3  0  0  0  0  0  0
  161.6940  207.6050  150.9020 C   0  0  0  0  0  2  0  0  0  0  0  0
  161.2290  204.9990  147.4690 C   0  0  0  0  0  2  0  0  0  0  0  0
  160.8680  204.3070  152.4320 O   0  0  0  0  0  1  0  0  0  0  0  0
  161.0970  205.6210  152.2440 N   0  0  0  0  0  0  0  0  0  0  0  0
  161.1120  208.7800  154.2480 C   0  0  0  0  0  0  0  0  0  0  0  0
  160.4610  206.0700  154.5880 C   0  0  0  0  0  3  0  0  0  0  0  0
  161.2100  207.8740  153.1880 C   0  0  0  0  0  3  0  0  0  0  0  0
  160.3680  206.9560  155.6650 C   0  0  0  0  0  3  0  0  0  0  0  0
  160.8470  206.5320  153.3310 C   0  0  0  0  0  0  0  0  0  0  0  0
  160.6770  208.3060  155.5000 C   0  0  0  0  0  3  0  0  0  0  0  0
  162.2370  210.7030  155.4040 C   0  0  0  0  0  1  0  0  0  0  0  0
  161.5820  210.2150  154.1240 C   0  0  2  0  0  3  0  0  0  0  0  0
  161.1790  211.0430  151.4160 O   0  0  0  0  0  1  0  0  0  0  0  0
  160.5030  211.1870  153.7040 C   0  0  0  0  0  0  0  0  0  0  0  0
  159.5400  211.6250  154.6880 N   0  0  0  0  0  1  0  0  0  0  0  0
  159.3840  212.5910  152.0050 C   0  0  0  0  0  1  0  0  0  0  0  0
  160.3960  211.5890  152.4190 C   0  0  0  0  0  0  0  0  0  0  0  0
  160.8700  203.2030  149.1280 N   0  0  0  0  0  2  0  0  0  0  0  0
  161.2020  202.2070  148.1050 C   0  0  1  0  0  3  0  0  0  0  0  0
  161.5950  200.8500  148.6240 C   0  0  0  0  0  3  0  0  0  0  0  0
  161.5820  199.8340  147.8440 N   0  0  0  0  0  0  0  0  0  0  0  0
  160.2280  202.1340  146.9400 C   0  0  0  0  0  2  0  0  0  0  0  0
  160.8290  201.2270  145.8870 C   0  0  0  0  0  2  0  0  0  0  0  0
  161.0570  199.8270  146.4710 C   0  0  0  0  0  2  0  0  0  0  0  0
  1  4  1  0  0  0  0
  2 12  1  1  0  0  0
  3  2  1  0  0  0  0
  4  9  1  0  0  0  0
  5 26  1  0  0  0  0
  5  3  1  0  0  0  0
  6  8  1  0  0  0  0
  7  4  1  0  0  0  0
  7  3  1  0  0  0  0
  8  7  1  0  0  0  0
  9  2  1  0  0  0  0
 10  8  1  0  0  0  0
 10  5  1  0  0  0  0
 12 11  1  0  0  0  0
 12 17  1  0  0  0  0
 13 18  1  0  0  0  0
 14 16  1  0  0  0  0
 15 17  1  0  0  0  0
 15 13  2  0  0  0  0
 17 14  2  0  0  0  0
 18 16  2  0  0  0  0
 20 13  1  0  0  0  0
 20 19  1  0  0  0  0
 21 25  1  0  0  0  0
 22 20  1  0  0  0  0
 22 23  1  0  0  0  0
 24 25  1  0  0  0  0
 25 22  2  0  0  0  0
 27 28  1  0  0  0  0
 27 26  1  0  0  0  0
 29 28  2  0  0  0  0
 30 27  1  0  0  0  0
 31 32  1  0  0  0  0
 31 30  1  0  0  0  0
 32 29  1  0  0  0  0
M  END
>  <MODEL>
9

>  <REMARK>
 VINA RESULT:      -7.6      2.342      8.444
  Name = 
  6 active torsions:
  status: ('A' for Active; 'I' for Inactive)
    1  A    between atoms: C_1  and  N_27
    2  A    between atoms: C_2  and  C_23
    3  A    between atoms: C_8  and  N_30
    4  A    between atoms: C_9  and  C_23
    5  A    between atoms: C_12  and  N_30
    6  A    between atoms: C_17  and  N_27
                            x       y       z     vdW  Elec       q    Type
                         _______ _______ _______ _____ _____    ______ ____

>  <TORSDO>
F 6

$$$$
