=
 OpenBabel11042420213D

 51 53  0  0  1  0  0  0  0  0999 V2000
  161.0770  204.8720  152.7130 C   0  0  0  0  0  3  0  0  0  0  0  0
  160.3950  208.1590  153.6790 C   0  0  1  0  0  3  0  0  0  0  0  0
  161.4010  208.5270  152.5870 C   0  0  0  0  0  0  0  0  0  0  0  0
  160.7980  205.7850  153.6050 C   0  0  0  0  0  0  0  0  0  0  0  0
  162.0720  206.6010  151.1440 C   0  0  0  0  0  2  0  0  0  0  0  0
  162.1190  205.1500  151.6630 C   0  0  2  0  0  3  0  0  0  0  0  0
  162.5360  207.6100  152.1990 C   0  0  0  0  0  2  0  0  0  0  0  0
  161.1980  209.6640  151.9000 C   0  0  0  0  0  3  0  0  0  0  0  0
  160.6020  206.8310  154.3540 C   0  0  0  0  0  3  0  0  0  0  0  0
  158.8380  211.1860  155.5760 C   0  0  1  0  0  3  0  0  0  0  0  0
  159.1000  210.0580  154.6090 C   0  0  0  0  0  3  0  0  0  0  0  0
  163.1710  210.8070  155.4700 O   0  0  0  0  0  0  0  0  0  0  0  0
  161.9200  210.7930  155.5740 C   0  0  0  0  0  0  0  0  0  0  0  0
  161.2020  212.0820  155.5410 C   0  0  0  0  0  3  0  0  0  0  0  0
  162.1070  208.4340  155.8470 F   0  0  0  0  0  0  0  0  0  0  0  0
  158.6060  210.6910  156.9930 C   0  0  0  0  0  1  0  0  0  0  0  0
  159.8670  212.2880  155.5300 C   0  0  0  0  0  0  0  0  0  0  0  0
  161.2070  209.4870  155.7680 C   0  0  2  0  0  3  0  0  0  0  0  0
  160.1840  209.2610  154.6860 C   0  0  0  0  0  0  0  0  0  0  0  0
  159.3750  213.6320  155.5990 N   0  0  0  0  0  2  0  0  0  0  0  0
  155.9830  214.4520  154.0450 C   0  0  0  0  0  1  0  0  0  0  0  0
  157.4300  214.1160  154.1640 C   0  0  0  0  0  0  0  0  0  0  0  0
  158.1310  213.9890  153.1210 O   0  0  0  0  0  0  0  0  0  0  0  0
  158.0060  213.9240  155.4560 N   0  0  0  0  0  2  0  0  0  0  0  0
  161.6260  211.3710  150.1210 C   0  0  1  0  0  0  0  0  0  0  0  0
  162.6810  212.1570  149.3600 C   0  0  0  0  0  1  0  0  0  0  0  0
  161.4130  210.0920  149.5700 O   0  0  0  0  0  0  0  0  0  0  0  0
  162.1080  210.1400  150.8000 C   0  0  2  0  0  3  0  0  0  0  0  0
  159.8710  213.1800  150.0300 C   0  0  0  0  0  3  0  0  0  0  0  0
  160.3500  212.0460  150.5590 C   0  0  0  0  0  3  0  0  0  0  0  0
  160.5390  213.9370  148.9320 C   0  0  0  0  0  2  0  0  0  0  0  0
  159.6580  214.0690  147.8270 O   0  0  0  0  0  0  0  0  0  0  0  0
  159.7950  213.2780  146.6830 C   0  0  0  0  0  0  0  0  0  0  0  0
  160.4850  212.2200  146.7170 O   0  0  0  0  0  0  0  0  0  0  0  0
  159.1690  213.6750  145.4970 O   0  0  0  0  0  0  0  0  0  0  0  0
  157.7510  213.6760  145.3560 C   0  0  0  0  0  2  0  0  0  0  0  0
  157.1620  212.4650  146.0570 C   0  0  0  0  0  1  0  0  0  0  0  0
  161.8720  204.1960  150.5040 C   0  0  0  0  0  2  0  0  0  0  0  0
  160.6640  203.4140  150.7350 N   0  0  0  0  0  2  0  0  0  0  0  0
  159.3170  201.8400  149.0830 O   0  0  0  0  0  0  0  0  0  0  0  0
  160.7000  202.0660  149.6440 S   0  0  0  0  0  0  0  0  0  0  0  0
  161.1350  200.8240  150.3890 O   0  0  0  0  0  0  0  0  0  0  0  0
  161.8590  202.3810  148.3010 C   0  0  0  0  0  2  0  0  0  0  0  0
  160.2050  204.0550  147.7510 O   0  0  0  0  0  1  0  0  0  0  0  0
  161.3580  203.4110  147.2630 C   0  0  2  0  0  0  0  0  0  0  0  0
  161.0120  202.6550  146.0020 C   0  0  0  0  0  0  0  0  0  0  0  0
  160.7560  201.2810  146.0490 O   0  0  0  0  0  1  0  0  0  0  0  0
  160.8830  203.2770  144.9040 O   0  0  0  0  0  0  0  0  0  0  0  0
  162.4540  204.4550  147.0040 C   0  0  0  0  0  2  0  0  0  0  0  0
  162.3910  206.8400  147.6700 C   0  0  0  0  0  1  0  0  0  0  0  0
  161.8960  205.8240  146.6550 C   0  0  0  0  0  2  0  0  0  0  0  0
  1  4  2  0  0  0  0
  2  9  1  0  0  0  0
  2 19  1  1  0  0  0
  3  2  1  0  0  0  0
  4  9  2  0  0  0  0
  5  6  1  0  0  0  0
  5  7  1  0  0  0  0
  6 38  1  6  0  0  0
  6  1  1  0  0  0  0
  7  3  1  0  0  0  0
  8  3  2  0  0  0  0
 10 16  1  1  0  0  0
 11 19  2  0  0  0  0
 11 10  1  0  0  0  0
 12 13  2  0  0  0  0
 13 18  1  0  0  0  0
 14 13  1  0  0  0  0
 17 14  2  0  0  0  0
 17 10  1  0  0  0  0
 17 20  1  0  0  0  0
 18 15  1  6  0  0  0
 19 18  1  0  0  0  0
 21 22  1  0  0  0  0
 22 24  1  0  0  0  0
 23 22  2  0  0  0  0
 24 20  1  0  0  0  0
 25 26  1  6  0  0  0
 25 30  1  0  0  0  0
 25 28  1  0  0  0  0
 27 25  1  0  0  0  0
 27 28  1  0  0  0  0
 28  8  1  1  0  0  0
 29 30  2  0  0  0  0
 31 29  1  0  0  0  0
 32 31  1  0  0  0  0
 33 34  2  0  0  0  0
 33 32  1  0  0  0  0
 35 33  1  0  0  0  0
 36 35  1  0  0  0  0
 36 37  1  0  0  0  0
 38 39  1  0  0  0  0
 40 41  2  0  0  0  0
 41 42  2  0  0  0  0
 41 39  1  0  0  0  0
 43 41  1  0  0  0  0
 45 44  1  1  0  0  0
 45 43  1  0  0  0  0
 46 47  1  0  0  0  0
 46 45  1  0  0  0  0
 48 46  2  0  0  0  0
 49 45  1  0  0  0  0
 51 49  1  0  0  0  0
 51 50  1  0  0  0  0
M  END
>  <MODEL>
1

>  <REMARK>
 VINA RESULT:      -4.2      0.000      0.000
  Name = 
  18 active torsions:
  status: ('A' for Active; 'I' for Inactive)
    1  A    between atoms: C_3  and  C_51
    2  A    between atoms: C_8  and  C_32
    3  A    between atoms: C_10  and  C_12
    4  A    between atoms: C_11  and  O_27
    5  A    between atoms: C_12  and  N_36
    6  A    between atoms: C_13  and  C_44
    7  A    between atoms: C_13  and  C_45
    8  A    between atoms: S_16  and  C_18
    9  A    between atoms: S_16  and  N_36
   10  A    between atoms: O_17  and  C_46
   11  A    between atoms: O_17  and  C_47
   12  A    between atoms: C_18  and  C_45
   13  A    between atoms: C_21  and  C_39
   14  A    between atoms: C_24  and  C_45
   15  A    between atoms: N_25  and  N_43
   16  A    between atoms: O_27  and  C_46
   17  A    between atoms: C_29  and  C_47
   18  A    between atoms: N_43  and  C_48
                            x       y       z     vdW  Elec       q    Type
                         _______ _______ _______ _____ _____    ______ ____

>  <TORSDO>
F 18

$$$$
=
 OpenBabel11042420213D

 51 53  0  0  1  0  0  0  0  0999 V2000
  161.2050  208.1990  155.2370 C   0  0  0  0  0  3  0  0  0  0  0  0
  161.8090  207.8890  151.8100 C   0  0  1  0  0  3  0  0  0  0  0  0
  161.0420  209.2080  151.7110 C   0  0  0  0  0  0  0  0  0  0  0  0
  161.3440  207.5000  154.1420 C   0  0  0  0  0  0  0  0  0  0  0  0
  160.5870  210.2790  153.9210 C   0  0  0  0  0  2  0  0  0  0  0  0
  160.3900  209.4640  155.2160 C   0  0  2  0  0  3  0  0  0  0  0  0
  159.9680  209.5880  152.7010 C   0  0  0  0  0  2  0  0  0  0  0  0
  161.4110  210.0820  150.7590 C   0  0  0  0  0  3  0  0  0  0  0  0
  161.4320  206.9830  152.9510 C   0  0  0  0  0  3  0  0  0  0  0  0
  161.5920  207.0540  148.0100 C   0  0  1  0  0  3  0  0  0  0  0  0
  161.5690  207.7540  149.3460 C   0  0  0  0  0  3  0  0  0  0  0  0
  160.6570  203.9220  150.8820 O   0  0  0  0  0  0  0  0  0  0  0  0
  161.0600  204.8250  150.1070 C   0  0  0  0  0  0  0  0  0  0  0  0
  160.3800  204.9830  148.8070 C   0  0  0  0  0  3  0  0  0  0  0  0
  162.7430  205.2760  151.7310 F   0  0  0  0  0  0  0  0  0  0  0  0
  162.9870  206.5920  147.6240 C   0  0  0  0  0  1  0  0  0  0  0  0
  160.5790  205.9440  147.8790 C   0  0  0  0  0  0  0  0  0  0  0  0
  162.2310  205.6750  150.5050 C   0  0  2  0  0  3  0  0  0  0  0  0
  161.8660  207.1350  150.5050 C   0  0  0  0  0  0  0  0  0  0  0  0
  159.8790  205.8550  146.6320 N   0  0  0  0  0  2  0  0  0  0  0  0
  161.7590  205.7500  143.3070 C   0  0  0  0  0  1  0  0  0  0  0  0
  161.1090  205.2960  144.5690 C   0  0  0  0  0  0  0  0  0  0  0  0
  161.1080  204.0690  144.8670 O   0  0  0  0  0  0  0  0  0  0  0  0
  160.4770  206.2520  145.4210 N   0  0  0  0  0  2  0  0  0  0  0  0
  161.3870  212.2490  149.5070 C   0  0  1  0  0  0  0  0  0  0  0  0
  160.5230  213.3550  148.9250 C   0  0  0  0  0  1  0  0  0  0  0  0
  161.6550  212.4440  150.8770 O   0  0  0  0  0  0  0  0  0  0  0  0
  160.7420  211.4140  150.5550 C   0  0  2  0  0  3  0  0  0  0  0  0
  163.0610  212.2990  147.6210 C   0  0  0  0  0  3  0  0  0  0  0  0
  162.5810  211.7380  148.7390 C   0  0  0  0  0  3  0  0  0  0  0  0
  162.4760  213.5120  146.9780 C   0  0  0  0  0  2  0  0  0  0  0  0
  161.7750  213.1450  145.8000 O   0  0  0  0  0  0  0  0  0  0  0  0
  162.2330  213.5140  144.5310 C   0  0  0  0  0  0  0  0  0  0  0  0
  163.4680  213.6810  144.3220 O   0  0  0  0  0  0  0  0  0  0  0  0
  161.3100  213.7050  143.4990 O   0  0  0  0  0  0  0  0  0  0  0  0
  159.9320  213.9650  143.7560 C   0  0  0  0  0  2  0  0  0  0  0  0
  159.1220  212.6980  143.5550 C   0  0  0  0  0  1  0  0  0  0  0  0
  160.8180  210.3080  156.4060 C   0  0  0  0  0  2  0  0  0  0  0  0
  161.1310  211.6670  155.9840 N   0  0  0  0  0  2  0  0  0  0  0  0
  160.2920  213.8370  157.2510 O   0  0  0  0  0  0  0  0  0  0  0  0
  159.7910  212.6740  156.4300 S   0  0  0  0  0  0  0  0  0  0  0  0
  158.8120  211.8750  157.2600 O   0  0  0  0  0  0  0  0  0  0  0  0
  158.9510  213.2830  154.9570 C   0  0  0  0  0  2  0  0  0  0  0  0
  157.1980  214.2710  156.2940 O   0  0  0  0  0  1  0  0  0  0  0  0
  157.4320  213.5000  155.1400 C   0  0  2  0  0  0  0  0  0  0  0  0
  156.7960  212.1400  155.3120 C   0  0  0  0  0  0  0  0  0  0  0  0
  155.9830  211.8740  156.4170 O   0  0  0  0  0  1  0  0  0  0  0  0
  156.9420  211.2540  154.4150 O   0  0  0  0  0  0  0  0  0  0  0  0
  156.8650  214.2300  153.9150 C   0  0  0  0  0  2  0  0  0  0  0  0
  157.6520  213.4750  151.6910 C   0  0  0  0  0  1  0  0  0  0  0  0
  157.9020  214.4520  152.8270 C   0  0  0  0  0  2  0  0  0  0  0  0
  2 19  1  6  0  0  0
  2  9  1  0  0  0  0
  3  2  1  0  0  0  0
  3  7  1  0  0  0  0
  4  1  2  0  0  0  0
  5  6  1  0  0  0  0
  6  1  1  0  0  0  0
  6 38  1  1  0  0  0
  7  5  1  0  0  0  0
  8  3  2  0  0  0  0
  9  4  2  0  0  0  0
 10 16  1  1  0  0  0
 10 11  1  0  0  0  0
 11 19  2  0  0  0  0
 13 18  1  0  0  0  0
 13 12  2  0  0  0  0
 14 13  1  0  0  0  0
 17 10  1  0  0  0  0
 17 14  2  0  0  0  0
 18 19  1  0  0  0  0
 18 15  1  1  0  0  0
 20 17  1  0  0  0  0
 21 22  1  0  0  0  0
 22 23  2  0  0  0  0
 22 24  1  0  0  0  0
 24 20  1  0  0  0  0
 25 26  1  6  0  0  0
 25 28  1  0  0  0  0
 25 27  1  0  0  0  0
 28  8  1  6  0  0  0
 28 27  1  0  0  0  0
 29 30  2  0  0  0  0
 30 25  1  0  0  0  0
 31 29  1  0  0  0  0
 32 31  1  0  0  0  0
 33 32  1  0  0  0  0
 34 33  2  0  0  0  0
 35 36  1  0  0  0  0
 35 33  1  0  0  0  0
 37 36  1  0  0  0  0
 39 38  1  0  0  0  0
 39 41  1  0  0  0  0
 41 40  2  0  0  0  0
 41 42  2  0  0  0  0
 43 45  1  0  0  0  0
 43 41  1  0  0  0  0
 45 46  1  0  0  0  0
 45 44  1  1  0  0  0
 46 47  1  0  0  0  0
 48 46  2  0  0  0  0
 49 45  1  0  0  0  0
 50 51  1  0  0  0  0
 51 49  1  0  0  0  0
M  END
>  <MODEL>
2

>  <REMARK>
 VINA RESULT:      -3.9      3.085      8.885
  Name = 
  18 active torsions:
  status: ('A' for Active; 'I' for Inactive)
    1  A    between atoms: C_3  and  C_51
    2  A    between atoms: C_8  and  C_32
    3  A    between atoms: C_10  and  C_12
    4  A    between atoms: C_11  and  O_27
    5  A    between atoms: C_12  and  N_36
    6  A    between atoms: C_13  and  C_44
    7  A    between atoms: C_13  and  C_45
    8  A    between atoms: S_16  and  C_18
    9  A    between atoms: S_16  and  N_36
   10  A    between atoms: O_17  and  C_46
   11  A    between atoms: O_17  and  C_47
   12  A    between atoms: C_18  and  C_45
   13  A    between atoms: C_21  and  C_39
   14  A    between atoms: C_24  and  C_45
   15  A    between atoms: N_25  and  N_43
   16  A    between atoms: O_27  and  C_46
   17  A    between atoms: C_29  and  C_47
   18  A    between atoms: N_43  and  C_48
                            x       y       z     vdW  Elec       q    Type
                         _______ _______ _______ _____ _____    ______ ____

>  <TORSDO>
F 18

$$$$
=
 OpenBabel11042420213D

 51 53  0  0  1  0  0  0  0  0999 V2000
  160.8950  205.1110  151.5170 C   0  0  0  0  0  3  0  0  0  0  0  0
  160.8110  208.4180  152.6380 C   0  0  1  0  0  3  0  0  0  0  0  0
  161.7180  208.6870  151.4370 C   0  0  0  0  0  0  0  0  0  0  0  0
  160.8590  206.0160  152.4580 C   0  0  0  0  0  0  0  0  0  0  0  0
  161.9270  206.7480  149.8760 C   0  0  0  0  0  2  0  0  0  0  0  0
  161.8310  205.2840  150.3510 C   0  0  2  0  0  3  0  0  0  0  0  0
  162.6550  207.6390  150.8880 C   0  0  0  0  0  2  0  0  0  0  0  0
  161.5970  209.8690  150.8080 C   0  0  0  0  0  3  0  0  0  0  0  0
  160.9070  207.0470  153.2500 C   0  0  0  0  0  3  0  0  0  0  0  0
  160.6220  210.2530  156.0710 C   0  0  1  0  0  3  0  0  0  0  0  0
  160.5840  209.2180  154.9740 C   0  0  0  0  0  3  0  0  0  0  0  0
  159.7130  212.5020  152.4580 O   0  0  0  0  0  0  0  0  0  0  0  0
  160.1070  211.8380  153.4490 C   0  0  0  0  0  0  0  0  0  0  0  0
  159.4320  212.0470  154.7440 C   0  0  0  0  0  3  0  0  0  0  0  0
  161.7770  210.9420  152.0060 F   0  0  0  0  0  0  0  0  0  0  0  0
  162.0240  210.7840  156.3160 C   0  0  0  0  0  1  0  0  0  0  0  0
  159.6230  211.3700  155.8970 C   0  0  0  0  0  0  0  0  0  0  0  0
  161.2660  210.8970  153.2950 C   0  0  2  0  0  3  0  0  0  0  0  0
  160.8830  209.4960  153.6900 C   0  0  0  0  0  0  0  0  0  0  0  0
  158.9300  211.8030  157.0750 N   0  0  0  0  0  2  0  0  0  0  0  0
  155.6780  213.7820  156.7460 C   0  0  0  0  0  1  0  0  0  0  0  0
  156.6230  212.6310  156.8070 C   0  0  0  0  0  0  0  0  0  0  0  0
  156.1860  211.4540  156.6690 O   0  0  0  0  0  0  0  0  0  0  0  0
  158.0110  212.8690  157.0390 N   0  0  0  0  0  2  0  0  0  0  0  0
  162.0010  211.5400  148.9900 C   0  0  1  0  0  0  0  0  0  0  0  0
  163.0420  212.2210  148.1160 C   0  0  0  0  0  1  0  0  0  0  0  0
  161.5970  210.2950  148.4690 O   0  0  0  0  0  0  0  0  0  0  0  0
  162.4250  210.2590  149.6140 C   0  0  2  0  0  3  0  0  0  0  0  0
  160.3860  213.4770  149.0380 C   0  0  0  0  0  3  0  0  0  0  0  0
  160.8580  212.3390  149.5650 C   0  0  0  0  0  3  0  0  0  0  0  0
  160.9330  214.1160  147.8060 C   0  0  0  0  0  2  0  0  0  0  0  0
  160.0630  213.8790  146.7100 O   0  0  0  0  0  0  0  0  0  0  0  0
  160.4300  213.0440  145.6510 C   0  0  0  0  0  0  0  0  0  0  0  0
  159.8070  211.9640  145.4440 O   0  0  0  0  0  0  0  0  0  0  0  0
  161.5000  213.4100  144.8280 O   0  0  0  0  0  0  0  0  0  0  0  0
  161.3700  213.4900  143.4110 C   0  0  0  0  0  2  0  0  0  0  0  0
  162.2920  212.4810  142.7520 C   0  0  0  0  0  1  0  0  0  0  0  0
  161.3110  204.4230  149.2100 C   0  0  0  0  0  2  0  0  0  0  0  0
  160.1520  203.6510  149.6400 N   0  0  0  0  0  2  0  0  0  0  0  0
  159.2330  201.2170  149.1390 O   0  0  0  0  0  0  0  0  0  0  0  0
  160.5160  201.9750  149.3770 S   0  0  0  0  0  0  0  0  0  0  0  0
  161.1990  201.4080  150.6020 O   0  0  0  0  0  0  0  0  0  0  0  0
  161.6080  201.7890  147.9560 C   0  0  0  0  0  2  0  0  0  0  0  0
  159.6440  202.6080  146.8100 O   0  0  0  0  0  1  0  0  0  0  0  0
  160.9290  202.0740  146.5980 C   0  0  2  0  0  0  0  0  0  0  0  0
  160.8060  200.7570  145.8660 C   0  0  0  0  0  0  0  0  0  0  0  0
  161.4070  199.6040  146.3790 O   0  0  0  0  0  1  0  0  0  0  0  0
  160.0980  200.6780  144.8160 O   0  0  0  0  0  0  0  0  0  0  0  0
  161.7740  203.0780  145.8010 C   0  0  0  0  0  2  0  0  0  0  0  0
  161.9850  205.5430  145.6830 C   0  0  0  0  0  1  0  0  0  0  0  0
  161.0340  204.3720  145.5070 C   0  0  0  0  0  2  0  0  0  0  0  0
  1  4  2  0  0  0  0
  2  9  1  0  0  0  0
  2 19  1  1  0  0  0
  3  2  1  0  0  0  0
  4  9  2  0  0  0  0
  5  6  1  0  0  0  0
  5  7  1  0  0  0  0
  6 38  1  6  0  0  0
  6  1  1  0  0  0  0
  7  3  1  0  0  0  0
  8  3  2  0  0  0  0
 10 16  1  6  0  0  0
 11 10  1  0  0  0  0
 12 13  2  0  0  0  0
 13 14  1  0  0  0  0
 14 17  2  0  0  0  0
 17 10  1  0  0  0  0
 17 20  1  0  0  0  0
 18 15  1  6  0  0  0
 18 13  1  0  0  0  0
 18 19  1  0  0  0  0
 19 11  2  0  0  0  0
 21 22  1  0  0  0  0
 22 24  1  0  0  0  0
 23 22  2  0  0  0  0
 24 20  1  0  0  0  0
 25 26  1  6  0  0  0
 25 30  1  0  0  0  0
 25 28  1  0  0  0  0
 27 25  1  0  0  0  0
 27 28  1  0  0  0  0
 28  8  1  1  0  0  0
 29 30  2  0  0  0  0
 31 29  1  0  0  0  0
 32 31  1  0  0  0  0
 33 32  1  0  0  0  0
 34 33  2  0  0  0  0
 35 33  1  0  0  0  0
 36 35  1  0  0  0  0
 37 36  1  0  0  0  0
 38 39  1  0  0  0  0
 40 41  2  0  0  0  0
 41 39  1  0  0  0  0
 41 42  2  0  0  0  0
 43 41  1  0  0  0  0
 45 44  1  1  0  0  0
 45 43  1  0  0  0  0
 46 47  1  0  0  0  0
 46 45  1  0  0  0  0
 48 46  2  0  0  0  0
 49 45  1  0  0  0  0
 51 50  1  0  0  0  0
 51 49  1  0  0  0  0
M  END
>  <MODEL>
3

>  <REMARK>
 VINA RESULT:      -3.8      1.859      2.282
  Name = 
  18 active torsions:
  status: ('A' for Active; 'I' for Inactive)
    1  A    between atoms: C_3  and  C_51
    2  A    between atoms: C_8  and  C_32
    3  A    between atoms: C_10  and  C_12
    4  A    between atoms: C_11  and  O_27
    5  A    between atoms: C_12  and  N_36
    6  A    between atoms: C_13  and  C_44
    7  A    between atoms: C_13  and  C_45
    8  A    between atoms: S_16  and  C_18
    9  A    between atoms: S_16  and  N_36
   10  A    between atoms: O_17  and  C_46
   11  A    between atoms: O_17  and  C_47
   12  A    between atoms: C_18  and  C_45
   13  A    between atoms: C_21  and  C_39
   14  A    between atoms: C_24  and  C_45
   15  A    between atoms: N_25  and  N_43
   16  A    between atoms: O_27  and  C_46
   17  A    between atoms: C_29  and  C_47
   18  A    between atoms: N_43  and  C_48
                            x       y       z     vdW  Elec       q    Type
                         _______ _______ _______ _____ _____    ______ ____

>  <TORSDO>
F 18

$$$$
=
 OpenBabel11042420213D

 51 53  0  0  1  0  0  0  0  0999 V2000
  161.8140  206.5370  150.0750 C   0  0  0  0  0  3  0  0  0  0  0  0
  161.9140  210.0120  150.4230 C   0  0  1  0  0  3  0  0  0  0  0  0
  161.3340  209.7360  151.8110 C   0  0  0  0  0  0  0  0  0  0  0  0
  161.7070  207.7530  149.6100 C   0  0  0  0  0  0  0  0  0  0  0  0
  161.3300  207.3190  152.4410 C   0  0  0  0  0  2  0  0  0  0  0  0
  161.1900  206.1890  151.4000 C   0  0  2  0  0  3  0  0  0  0  0  0
  160.4650  208.5360  152.0940 C   0  0  0  0  0  2  0  0  0  0  0  0
  161.6970  210.5500  152.8180 C   0  0  0  0  0  3  0  0  0  0  0  0
  161.5640  209.0200  149.3470 C   0  0  0  0  0  3  0  0  0  0  0  0
  160.1910  213.4160  149.6310 C   0  0  1  0  0  3  0  0  0  0  0  0
  160.4820  212.0090  150.0890 C   0  0  0  0  0  3  0  0  0  0  0  0
  163.3710  212.0350  147.0020 O   0  0  0  0  0  0  0  0  0  0  0  0
  162.5520  212.4390  147.8640 C   0  0  0  0  0  0  0  0  0  0  0  0
  161.3660  213.1880  147.4040 C   0  0  0  0  0  3  0  0  0  0  0  0
  164.0370  211.5400  149.4940 F   0  0  0  0  0  0  0  0  0  0  0  0
  160.9810  214.4530  150.4100 C   0  0  0  0  0  1  0  0  0  0  0  0
  160.3200  213.6180  148.1420 C   0  0  0  0  0  0  0  0  0  0  0  0
  162.8230  212.1880  149.3190 C   0  0  2  0  0  3  0  0  0  0  0  0
  161.6920  211.4290  149.9580 C   0  0  0  0  0  0  0  0  0  0  0  0
  159.3140  214.4210  147.5110 N   0  0  0  0  0  2  0  0  0  0  0  0
  156.5560  212.4470  145.7520 C   0  0  0  0  0  1  0  0  0  0  0  0
  157.4100  213.0070  146.8370 C   0  0  0  0  0  0  0  0  0  0  0  0
  157.1740  212.7010  148.0400 O   0  0  0  0  0  0  0  0  0  0  0  0
  158.4750  213.8980  146.5080 N   0  0  0  0  0  2  0  0  0  0  0  0
  159.8940  211.0490  154.4800 C   0  0  1  0  0  0  0  0  0  0  0  0
  159.1250  210.5460  155.6910 C   0  0  0  0  0  1  0  0  0  0  0  0
  161.1110  211.6630  154.8370 O   0  0  0  0  0  0  0  0  0  0  0  0
  161.2020  210.3890  154.2300 C   0  0  2  0  0  3  0  0  0  0  0  0
  158.5410  212.9470  153.5180 C   0  0  0  0  0  3  0  0  0  0  0  0
  159.1690  211.7740  153.3730 C   0  0  0  0  0  3  0  0  0  0  0  0
  158.4680  213.7020  154.8020 C   0  0  0  0  0  2  0  0  0  0  0  0
  157.2290  213.4480  155.4450 O   0  0  0  0  0  0  0  0  0  0  0  0
  156.1550  212.8700  154.7620 C   0  0  0  0  0  0  0  0  0  0  0  0
  155.2640  213.5990  154.2410 O   0  0  0  0  0  0  0  0  0  0  0  0
  156.0700  211.4780  154.6710 O   0  0  0  0  0  0  0  0  0  0  0  0
  155.3490  210.7010  155.6240 C   0  0  0  0  0  2  0  0  0  0  0  0
  155.3360  211.4110  156.9650 C   0  0  0  0  0  1  0  0  0  0  0  0
  161.8860  204.9410  151.9230 C   0  0  0  0  0  2  0  0  0  0  0  0
  162.2350  204.0520  150.8220 N   0  0  0  0  0  2  0  0  0  0  0  0
  160.0480  202.7370  151.5350 O   0  0  0  0  0  0  0  0  0  0  0  0
  161.4860  202.5180  151.1340 S   0  0  0  0  0  0  0  0  0  0  0  0
  162.2090  201.8220  152.2650 O   0  0  0  0  0  0  0  0  0  0  0  0
  161.5580  201.4790  149.6630 C   0  0  0  0  0  2  0  0  0  0  0  0
  159.2570  201.6670  148.9490 O   0  0  0  0  0  1  0  0  0  0  0  0
  160.5840  201.9040  148.5420 C   0  0  2  0  0  0  0  0  0  0  0  0
  160.8920  201.0600  147.3270 C   0  0  0  0  0  0  0  0  0  0  0  0
  160.4410  201.4490  146.0620 O   0  0  0  0  0  0  0  0  0  0  0  0
  161.6210  200.0280  147.4400 O   0  0  0  0  0  1  0  0  0  0  0  0
  160.7650  203.3990  148.2420 C   0  0  0  0  0  2  0  0  0  0  0  0
  161.8690  205.1090  146.8300 C   0  0  0  0  0  1  0  0  0  0  0  0
  161.9570  203.6820  147.3430 C   0  0  0  0  0  2  0  0  0  0  0  0
  1  6  1  0  0  0  0
  2 19  1  6  0  0  0
  2  3  1  0  0  0  0
  3  7  1  0  0  0  0
  3  8  2  0  0  0  0
  4  1  2  0  0  0  0
  6 38  1  1  0  0  0
  6  5  1  0  0  0  0
  7  5  1  0  0  0  0
  9  4  2  0  0  0  0
  9  2  1  0  0  0  0
 10 11  1  0  0  0  0
 10 16  1  1  0  0  0
 12 13  2  0  0  0  0
 13 18  1  0  0  0  0
 14 13  1  0  0  0  0
 14 17  2  0  0  0  0
 17 10  1  0  0  0  0
 18 15  1  6  0  0  0
 18 19  1  0  0  0  0
 19 11  2  0  0  0  0
 20 17  1  0  0  0  0
 21 22  1  0  0  0  0
 22 23  2  0  0  0  0
 24 22  1  0  0  0  0
 24 20  1  0  0  0  0
 25 27  1  0  0  0  0
 25 26  1  1  0  0  0
 28  8  1  6  0  0  0
 28 25  1  0  0  0  0
 28 27  1  0  0  0  0
 29 31  1  0  0  0  0
 30 29  2  0  0  0  0
 30 25  1  0  0  0  0
 31 32  1  0  0  0  0
 33 32  1  0  0  0  0
 34 33  2  0  0  0  0
 35 33  1  0  0  0  0
 35 36  1  0  0  0  0
 36 37  1  0  0  0  0
 39 41  1  0  0  0  0
 39 38  1  0  0  0  0
 41 40  2  0  0  0  0
 41 42  2  0  0  0  0
 43 41  1  0  0  0  0
 45 44  1  1  0  0  0
 45 43  1  0  0  0  0
 46 48  1  0  0  0  0
 46 45  1  0  0  0  0
 47 46  2  0  0  0  0
 49 45  1  0  0  0  0
 50 51  1  0  0  0  0
 51 49  1  0  0  0  0
M  END
>  <MODEL>
4

>  <REMARK>
 VINA RESULT:      -3.7      2.615      5.853
  Name = 
  18 active torsions:
  status: ('A' for Active; 'I' for Inactive)
    1  A    between atoms: C_3  and  C_51
    2  A    between atoms: C_8  and  C_32
    3  A    between atoms: C_10  and  C_12
    4  A    between atoms: C_11  and  O_27
    5  A    between atoms: C_12  and  N_36
    6  A    between atoms: C_13  and  C_44
    7  A    between atoms: C_13  and  C_45
    8  A    between atoms: S_16  and  C_18
    9  A    between atoms: S_16  and  N_36
   10  A    between atoms: O_17  and  C_46
   11  A    between atoms: O_17  and  C_47
   12  A    between atoms: C_18  and  C_45
   13  A    between atoms: C_21  and  C_39
   14  A    between atoms: C_24  and  C_45
   15  A    between atoms: N_25  and  N_43
   16  A    between atoms: O_27  and  C_46
   17  A    between atoms: C_29  and  C_47
   18  A    between atoms: N_43  and  C_48
                            x       y       z     vdW  Elec       q    Type
                         _______ _______ _______ _____ _____    ______ ____

>  <TORSDO>
F 18

$$$$
=
 OpenBabel11042420213D

 51 53  0  0  1  0  0  0  0  0999 V2000
  160.8210  205.4030  150.7080 C   0  0  0  0  0  3  0  0  0  0  0  0
  160.7300  208.6140  152.0810 C   0  0  1  0  0  3  0  0  0  0  0  0
  161.6950  208.9600  150.9460 C   0  0  0  0  0  0  0  0  0  0  0  0
  160.7550  206.2320  151.7150 C   0  0  0  0  0  0  0  0  0  0  0  0
  161.9490  207.1460  149.2480 C   0  0  0  0  0  2  0  0  0  0  0  0
  161.8110  205.6510  149.6020 C   0  0  2  0  0  3  0  0  0  0  0  0
  162.6420  207.9430  150.3590 C   0  0  0  0  0  2  0  0  0  0  0  0
  161.6180  210.1900  150.4070 C   0  0  0  0  0  3  0  0  0  0  0  0
  160.7800  207.1970  152.5870 C   0  0  0  0  0  3  0  0  0  0  0  0
  160.7070  210.1240  155.6740 C   0  0  1  0  0  3  0  0  0  0  0  0
  160.6890  209.1830  154.4940 C   0  0  0  0  0  3  0  0  0  0  0  0
  158.9830  212.4540  152.4290 O   0  0  0  0  0  0  0  0  0  0  0  0
  159.6060  211.7930  153.2970 C   0  0  0  0  0  0  0  0  0  0  0  0
  159.0830  211.7850  154.6760 C   0  0  0  0  0  3  0  0  0  0  0  0
  161.1910  211.3060  151.5870 F   0  0  0  0  0  0  0  0  0  0  0  0
  162.0270  210.8640  155.8020 C   0  0  0  0  0  1  0  0  0  0  0  0
  159.5300  211.0650  155.7280 C   0  0  0  0  0  0  0  0  0  0  0  0
  160.8690  211.0770  152.9160 C   0  0  2  0  0  3  0  0  0  0  0  0
  160.7690  209.6050  153.2170 C   0  0  0  0  0  0  0  0  0  0  0  0
  158.9390  211.2830  157.0150 N   0  0  0  0  0  2  0  0  0  0  0  0
  155.8200  213.4800  157.2350 C   0  0  0  0  0  1  0  0  0  0  0  0
  156.6900  212.2940  156.9930 C   0  0  0  0  0  0  0  0  0  0  0  0
  156.1800  211.2190  156.5690 O   0  0  0  0  0  0  0  0  0  0  0  0
  158.0900  212.3790  157.2600 N   0  0  0  0  0  2  0  0  0  0  0  0
  162.0530  211.9300  148.6630 C   0  0  1  0  0  0  0  0  0  0  0  0
  163.1120  212.6910  147.8820 C   0  0  0  0  0  1  0  0  0  0  0  0
  161.7590  210.6790  148.0850 O   0  0  0  0  0  0  0  0  0  0  0  0
  162.5050  210.6580  149.2860 C   0  0  2  0  0  3  0  0  0  0  0  0
  159.8610  213.1480  148.3920 C   0  0  0  0  0  3  0  0  0  0  0  0
  160.8280  212.6480  149.1730 C   0  0  0  0  0  3  0  0  0  0  0  0
  159.8650  213.0660  146.9020 C   0  0  0  0  0  2  0  0  0  0  0  0
  158.5420  212.8850  146.4230 O   0  0  0  0  0  0  0  0  0  0  0  0
  158.0390  213.6390  145.3590 C   0  0  0  0  0  0  0  0  0  0  0  0
  157.0920  214.4530  145.5460 O   0  0  0  0  0  0  0  0  0  0  0  0
  158.5880  213.4750  144.0830 O   0  0  0  0  0  0  0  0  0  0  0  0
  159.9820  213.2580  143.8830 C   0  0  0  0  0  2  0  0  0  0  0  0
  160.1950  212.0020  143.0570 C   0  0  0  0  0  1  0  0  0  0  0  0
  161.3320  204.8900  148.3750 C   0  0  0  0  0  2  0  0  0  0  0  0
  162.1710  205.1970  147.2230 N   0  0  0  0  0  2  0  0  0  0  0  0
  162.5340  203.7740  145.0180 O   0  0  0  0  0  0  0  0  0  0  0  0
  161.4540  204.4360  145.8390 S   0  0  0  0  0  0  0  0  0  0  0  0
  160.7640  205.4790  144.9890 O   0  0  0  0  0  0  0  0  0  0  0  0
  160.2440  203.2070  146.3600 C   0  0  0  0  0  2  0  0  0  0  0  0
  162.2530  201.9440  146.8150 O   0  0  0  0  0  1  0  0  0  0  0  0
  160.8530  201.8330  146.7170 C   0  0  2  0  0  0  0  0  0  0  0  0
  160.5050  200.8770  145.5990 C   0  0  0  0  0  0  0  0  0  0  0  0
  159.7920  201.3230  144.4830 O   0  0  0  0  0  0  0  0  0  0  0  0
  160.9210  199.6790  145.6370 O   0  0  0  0  0  1  0  0  0  0  0  0
  160.2840  201.3510  148.0590 C   0  0  0  0  0  2  0  0  0  0  0  0
  160.4100  201.7470  150.5010 C   0  0  0  0  0  1  0  0  0  0  0  0
  161.2230  201.6080  149.2260 C   0  0  0  0  0  2  0  0  0  0  0  0
  1  4  2  0  0  0  0
  2  9  1  0  0  0  0
  2 19  1  1  0  0  0
  3  2  1  0  0  0  0
  4  9  2  0  0  0  0
  5  6  1  0  0  0  0
  5  7  1  0  0  0  0
  6 38  1  6  0  0  0
  6  1  1  0  0  0  0
  7  3  1  0  0  0  0
  8  3  2  0  0  0  0
 10 17  1  0  0  0  0
 10 16  1  6  0  0  0
 11 10  1  0  0  0  0
 12 13  2  0  0  0  0
 13 14  1  0  0  0  0
 14 17  2  0  0  0  0
 17 20  1  0  0  0  0
 18 15  1  6  0  0  0
 18 19  1  0  0  0  0
 18 13  1  0  0  0  0
 19 11  2  0  0  0  0
 20 24  1  0  0  0  0
 22 21  1  0  0  0  0
 22 24  1  0  0  0  0
 23 22  2  0  0  0  0
 25 26  1  6  0  0  0
 25 30  1  0  0  0  0
 25 28  1  0  0  0  0
 27 25  1  0  0  0  0
 27 28  1  0  0  0  0
 28  8  1  1  0  0  0
 29 30  2  0  0  0  0
 31 29  1  0  0  0  0
 32 31  1  0  0  0  0
 33 34  2  0  0  0  0
 33 32  1  0  0  0  0
 35 33  1  0  0  0  0
 36 35  1  0  0  0  0
 37 36  1  0  0  0  0
 39 38  1  0  0  0  0
 40 41  2  0  0  0  0
 41 43  1  0  0  0  0
 41 39  1  0  0  0  0
 42 41  2  0  0  0  0
 43 45  1  0  0  0  0
 45 44  1  1  0  0  0
 45 49  1  0  0  0  0
 46 48  1  0  0  0  0
 46 45  1  0  0  0  0
 47 46  2  0  0  0  0
 49 51  1  0  0  0  0
 51 50  1  0  0  0  0
M  END
>  <MODEL>
5

>  <REMARK>
 VINA RESULT:      -3.5      2.209      3.198
  Name = 
  18 active torsions:
  status: ('A' for Active; 'I' for Inactive)
    1  A    between atoms: C_3  and  C_51
    2  A    between atoms: C_8  and  C_32
    3  A    between atoms: C_10  and  C_12
    4  A    between atoms: C_11  and  O_27
    5  A    between atoms: C_12  and  N_36
    6  A    between atoms: C_13  and  C_44
    7  A    between atoms: C_13  and  C_45
    8  A    between atoms: S_16  and  C_18
    9  A    between atoms: S_16  and  N_36
   10  A    between atoms: O_17  and  C_46
   11  A    between atoms: O_17  and  C_47
   12  A    between atoms: C_18  and  C_45
   13  A    between atoms: C_21  and  C_39
   14  A    between atoms: C_24  and  C_45
   15  A    between atoms: N_25  and  N_43
   16  A    between atoms: O_27  and  C_46
   17  A    between atoms: C_29  and  C_47
   18  A    between atoms: N_43  and  C_48
                            x       y       z     vdW  Elec       q    Type
                         _______ _______ _______ _____ _____    ______ ____

>  <TORSDO>
F 18

$$$$
=
 OpenBabel11042420213D

 51 53  0  0  1  0  0  0  0  0999 V2000
  161.9340  209.9600  150.1200 C   0  0  0  0  0  3  0  0  0  0  0  0
  161.4320  207.0560  148.2440 C   0  0  1  0  0  3  0  0  0  0  0  0
  161.8450  206.3380  149.5300 C   0  0  0  0  0  0  0  0  0  0  0  0
  161.9770  209.2750  149.0080 C   0  0  0  0  0  0  0  0  0  0  0  0
  162.0130  207.8430  151.5170 C   0  0  0  0  0  2  0  0  0  0  0  0
  162.4060  209.3300  151.4030 C   0  0  2  0  0  3  0  0  0  0  0  0
  162.7870  206.9610  150.5310 C   0  0  0  0  0  2  0  0  0  0  0  0
  161.2690  205.1540  149.8030 C   0  0  0  0  0  3  0  0  0  0  0  0
  162.0230  208.4220  148.0270 C   0  0  0  0  0  3  0  0  0  0  0  0
  162.8400  205.4880  144.9660 C   0  0  1  0  0  3  0  0  0  0  0  0
  162.6500  206.3070  146.2190 C   0  0  0  0  0  3  0  0  0  0  0  0
  158.5260  205.8280  145.4220 O   0  0  0  0  0  0  0  0  0  0  0  0
  159.7680  205.6400  145.4020 C   0  0  0  0  0  0  0  0  0  0  0  0
  160.4790  205.8000  144.1190 C   0  0  0  0  0  3  0  0  0  0  0  0
  159.5760  205.0630  147.7050 F   0  0  0  0  0  0  0  0  0  0  0  0
  162.9780  204.0040  145.2630 C   0  0  0  0  0  1  0  0  0  0  0  0
  161.8100  205.7510  143.8970 C   0  0  0  0  0  0  0  0  0  0  0  0
  160.4740  205.2240  146.6600 C   0  0  2  0  0  3  0  0  0  0  0  0
  161.5680  206.1950  147.0140 C   0  0  0  0  0  0  0  0  0  0  0  0
  162.2880  205.8320  142.5480 N   0  0  0  0  0  2  0  0  0  0  0  0
  161.4820  207.8140  139.3830 C   0  0  0  0  0  1  0  0  0  0  0  0
  162.2500  207.0440  140.4020 C   0  0  0  0  0  0  0  0  0  0  0  0
  163.4830  206.8310  140.2260 O   0  0  0  0  0  0  0  0  0  0  0  0
  161.5810  206.5390  141.5570 N   0  0  0  0  0  2  0  0  0  0  0  0
  160.8800  203.0370  151.0800 C   0  0  1  0  0  0  0  0  0  0  0  0
  161.4880  201.9980  152.0070 C   0  0  0  0  0  1  0  0  0  0  0  0
  160.3980  204.1610  151.7800 O   0  0  0  0  0  0  0  0  0  0  0  0
  161.5840  204.3460  151.0330 C   0  0  2  0  0  3  0  0  0  0  0  0
  160.3150  201.7480  148.9870 C   0  0  0  0  0  3  0  0  0  0  0  0
  159.9710  202.6080  149.9550 C   0  0  0  0  0  3  0  0  0  0  0  0
  161.6530  201.0950  148.8880 C   0  0  0  0  0  2  0  0  0  0  0  0
  161.5500  199.8880  148.1480 O   0  0  0  0  0  0  0  0  0  0  0  0
  161.3400  199.8920  146.7660 C   0  0  0  0  0  0  0  0  0  0  0  0
  161.5880  198.8600  146.0810 O   0  0  0  0  0  0  0  0  0  0  0  0
  160.8630  201.0520  146.1490 O   0  0  0  0  0  0  0  0  0  0  0  0
  160.0790  201.0070  144.9600 C   0  0  0  0  0  2  0  0  0  0  0  0
  159.3360  202.3190  144.7810 C   0  0  0  0  0  1  0  0  0  0  0  0
  161.7790  210.1010  152.5540 C   0  0  0  0  0  2  0  0  0  0  0  0
  160.3250  210.0470  152.4730 N   0  0  0  0  0  2  0  0  0  0  0  0
  158.3050  211.0030  153.8960 O   0  0  0  0  0  0  0  0  0  0  0  0
  159.7000  211.3470  153.4370 S   0  0  0  0  0  0  0  0  0  0  0  0
  159.6440  212.6100  152.6070 O   0  0  0  0  0  0  0  0  0  0  0  0
  160.7620  211.6300  154.8650 C   0  0  0  0  0  2  0  0  0  0  0  0
  159.9980  211.0410  157.0810 O   0  0  0  0  0  1  0  0  0  0  0  0
  160.6650  210.5340  155.9500 C   0  0  2  0  0  0  0  0  0  0  0  0
  162.0750  210.1480  156.3330 C   0  0  0  0  0  0  0  0  0  0  0  0
  162.3010  209.1240  157.2580 O   0  0  0  0  0  1  0  0  0  0  0  0
  163.0630  210.7050  155.7640 O   0  0  0  0  0  0  0  0  0  0  0  0
  159.8890  209.3300  155.3970 C   0  0  0  0  0  2  0  0  0  0  0  0
  159.7160  206.9540  156.0730 C   0  0  0  0  0  1  0  0  0  0  0  0
  160.6500  208.0220  155.5320 C   0  0  0  0  0  2  0  0  0  0  0  0
  1  6  1  0  0  0  0
  2 19  1  6  0  0  0
  2  3  1  0  0  0  0
  3  8  2  0  0  0  0
  3  7  1  0  0  0  0
  4  1  2  0  0  0  0
  6  5  1  0  0  0  0
  6 38  1  1  0  0  0
  7  5  1  0  0  0  0
  9  2  1  0  0  0  0
  9  4  2  0  0  0  0
 10 16  1  1  0  0  0
 10 11  1  0  0  0  0
 11 19  2  0  0  0  0
 13 12  2  0  0  0  0
 13 18  1  0  0  0  0
 14 13  1  0  0  0  0
 17 14  2  0  0  0  0
 17 10  1  0  0  0  0
 18 19  1  0  0  0  0
 18 15  1  1  0  0  0
 20 17  1  0  0  0  0
 21 22  1  0  0  0  0
 22 24  1  0  0  0  0
 23 22  2  0  0  0  0
 24 20  1  0  0  0  0
 25 27  1  0  0  0  0
 25 26  1  1  0  0  0
 28  8  1  6  0  0  0
 28 25  1  0  0  0  0
 28 27  1  0  0  0  0
 29 30  2  0  0  0  0
 30 25  1  0  0  0  0
 31 29  1  0  0  0  0
 32 31  1  0  0  0  0
 33 32  1  0  0  0  0
 34 33  2  0  0  0  0
 35 33  1  0  0  0  0
 36 35  1  0  0  0  0
 37 36  1  0  0  0  0
 39 38  1  0  0  0  0
 39 41  1  0  0  0  0
 41 40  2  0  0  0  0
 41 43  1  0  0  0  0
 42 41  2  0  0  0  0
 43 45  1  0  0  0  0
 45 46  1  0  0  0  0
 45 44  1  1  0  0  0
 46 47  1  0  0  0  0
 48 46  2  0  0  0  0
 49 51  1  0  0  0  0
 49 45  1  0  0  0  0
 51 50  1  0  0  0  0
M  END
>  <MODEL>
6

>  <REMARK>
 VINA RESULT:      -3.4      3.783     10.966
  Name = 
  18 active torsions:
  status: ('A' for Active; 'I' for Inactive)
    1  A    between atoms: C_3  and  C_51
    2  A    between atoms: C_8  and  C_32
    3  A    between atoms: C_10  and  C_12
    4  A    between atoms: C_11  and  O_27
    5  A    between atoms: C_12  and  N_36
    6  A    between atoms: C_13  and  C_44
    7  A    between atoms: C_13  and  C_45
    8  A    between atoms: S_16  and  C_18
    9  A    between atoms: S_16  and  N_36
   10  A    between atoms: O_17  and  C_46
   11  A    between atoms: O_17  and  C_47
   12  A    between atoms: C_18  and  C_45
   13  A    between atoms: C_21  and  C_39
   14  A    between atoms: C_24  and  C_45
   15  A    between atoms: N_25  and  N_43
   16  A    between atoms: O_27  and  C_46
   17  A    between atoms: C_29  and  C_47
   18  A    between atoms: N_43  and  C_48
                            x       y       z     vdW  Elec       q    Type
                         _______ _______ _______ _____ _____    ______ ____

>  <TORSDO>
F 18

$$$$
=
 OpenBabel11042420213D

 51 53  0  0  1  0  0  0  0  0999 V2000
  161.9030  209.8490  150.2610 C   0  0  0  0  0  3  0  0  0  0  0  0
  161.4340  206.9730  148.3350 C   0  0  1  0  0  3  0  0  0  0  0  0
  161.8490  206.2370  149.6090 C   0  0  0  0  0  0  0  0  0  0  0  0
  161.9560  209.1830  149.1380 C   0  0  0  0  0  0  0  0  0  0  0  0
  161.9970  207.7090  151.6220 C   0  0  0  0  0  2  0  0  0  0  0  0
  162.3770  209.2020  151.5340 C   0  0  2  0  0  3  0  0  0  0  0  0
  162.7820  206.8520  150.6230 C   0  0  0  0  0  2  0  0  0  0  0  0
  161.2840  205.0430  149.8610 C   0  0  0  0  0  3  0  0  0  0  0  0
  162.0130  208.3480  148.1420 C   0  0  0  0  0  3  0  0  0  0  0  0
  162.9150  205.3940  145.0940 C   0  0  1  0  0  3  0  0  0  0  0  0
  162.7100  206.1950  146.3570 C   0  0  0  0  0  3  0  0  0  0  0  0
  158.6130  206.0030  145.3310 O   0  0  0  0  0  0  0  0  0  0  0  0
  159.8400  205.7360  145.3720 C   0  0  0  0  0  0  0  0  0  0  0  0
  160.6280  205.8790  144.1330 C   0  0  0  0  0  3  0  0  0  0  0  0
  159.4870  205.1180  147.6450 F   0  0  0  0  0  0  0  0  0  0  0  0
  162.9420  203.8980  145.3570 C   0  0  0  0  0  1  0  0  0  0  0  0
  161.9630  205.7480  143.9800 C   0  0  0  0  0  0  0  0  0  0  0  0
  160.4480  205.2450  146.6530 C   0  0  2  0  0  3  0  0  0  0  0  0
  161.5810  206.1340  147.0900 C   0  0  0  0  0  0  0  0  0  0  0  0
  162.5180  205.8300  142.6610 N   0  0  0  0  0  2  0  0  0  0  0  0
  161.4190  207.6180  139.4680 C   0  0  0  0  0  1  0  0  0  0  0  0
  162.2700  207.1710  140.6060 C   0  0  0  0  0  0  0  0  0  0  0  0
  163.4540  207.5980  140.7090 O   0  0  0  0  0  0  0  0  0  0  0  0
  161.7450  206.2490  141.5610 N   0  0  0  0  0  2  0  0  0  0  0  0
  160.8800  202.9180  151.1200 C   0  0  1  0  0  0  0  0  0  0  0  0
  161.4850  201.8600  152.0280 C   0  0  0  0  0  1  0  0  0  0  0  0
  160.4220  204.0410  151.8380 O   0  0  0  0  0  0  0  0  0  0  0  0
  161.6020  204.2180  151.0780 C   0  0  2  0  0  3  0  0  0  0  0  0
  160.3030  201.7430  148.9630 C   0  0  0  0  0  3  0  0  0  0  0  0
  159.9520  202.5140  150.0010 C   0  0  0  0  0  3  0  0  0  0  0  0
  161.6710  201.1790  148.7690 C   0  0  0  0  0  2  0  0  0  0  0  0
  161.5930  199.9530  148.0570 O   0  0  0  0  0  0  0  0  0  0  0  0
  161.3730  199.9210  146.6770 C   0  0  0  0  0  0  0  0  0  0  0  0
  161.5740  198.8580  146.0240 O   0  0  0  0  0  0  0  0  0  0  0  0
  160.9380  201.0780  146.0250 O   0  0  0  0  0  0  0  0  0  0  0  0
  160.0600  201.0290  144.9040 C   0  0  0  0  0  2  0  0  0  0  0  0
  159.6520  202.4350  144.5060 C   0  0  0  0  0  1  0  0  0  0  0  0
  161.7390  209.9480  152.6960 C   0  0  0  0  0  2  0  0  0  0  0  0
  160.3530  210.2790  152.3920 N   0  0  0  0  0  2  0  0  0  0  0  0
  160.0450  212.9030  152.5790 O   0  0  0  0  0  0  0  0  0  0  0  0
  159.9110  211.6330  153.3820 S   0  0  0  0  0  0  0  0  0  0  0  0
  160.8360  211.7090  154.5770 O   0  0  0  0  0  0  0  0  0  0  0  0
  158.2150  211.4530  153.9620 C   0  0  0  0  0  2  0  0  0  0  0  0
  158.7410  213.5840  154.9740 O   0  0  0  0  0  1  0  0  0  0  0  0
  157.7360  212.6040  154.8760 C   0  0  2  0  0  0  0  0  0  0  0  0
  157.4730  212.0190  156.2440 C   0  0  0  0  0  0  0  0  0  0  0  0
  156.2230  211.4740  156.5530 O   0  0  0  0  0  0  0  0  0  0  0  0
  158.4100  211.9570  157.0980 O   0  0  0  0  0  1  0  0  0  0  0  0
  156.4660  213.2340  154.2860 C   0  0  0  0  0  2  0  0  0  0  0  0
  155.5130  214.4440  152.3460 C   0  0  0  0  0  1  0  0  0  0  0  0
  156.5390  213.4110  152.7790 C   0  0  0  0  0  2  0  0  0  0  0  0
  1  6  1  0  0  0  0
  2 19  1  6  0  0  0
  2  3  1  0  0  0  0
  3  8  2  0  0  0  0
  3  7  1  0  0  0  0
  4  1  2  0  0  0  0
  6  5  1  0  0  0  0
  6 38  1  1  0  0  0
  7  5  1  0  0  0  0
  9  2  1  0  0  0  0
  9  4  2  0  0  0  0
 10 16  1  1  0  0  0
 10 11  1  0  0  0  0
 11 19  2  0  0  0  0
 12 13  2  0  0  0  0
 13 18  1  0  0  0  0
 14 13  1  0  0  0  0
 17 14  2  0  0  0  0
 17 10  1  0  0  0  0
 18 19  1  0  0  0  0
 18 15  1  1  0  0  0
 20 17  1  0  0  0  0
 21 22  1  0  0  0  0
 22 23  2  0  0  0  0
 22 24  1  0  0  0  0
 24 20  1  0  0  0  0
 25 27  1  0  0  0  0
 25 26  1  1  0  0  0
 28  8  1  6  0  0  0
 28 25  1  0  0  0  0
 28 27  1  0  0  0  0
 29 30  2  0  0  0  0
 30 25  1  0  0  0  0
 31 29  1  0  0  0  0
 32 31  1  0  0  0  0
 33 32  1  0  0  0  0
 34 33  2  0  0  0  0
 35 33  1  0  0  0  0
 36 35  1  0  0  0  0
 37 36  1  0  0  0  0
 39 38  1  0  0  0  0
 39 41  1  0  0  0  0
 40 41  2  0  0  0  0
 41 43  1  0  0  0  0
 41 42  2  0  0  0  0
 43 45  1  0  0  0  0
 45 44  1  1  0  0  0
 45 46  1  0  0  0  0
 46 47  2  0  0  0  0
 46 48  1  0  0  0  0
 49 45  1  0  0  0  0
 50 51  1  0  0  0  0
 51 49  1  0  0  0  0
M  END
>  <MODEL>
7

>  <REMARK>
 VINA RESULT:      -3.1      3.831     11.244
  Name = 
  18 active torsions:
  status: ('A' for Active; 'I' for Inactive)
    1  A    between atoms: C_3  and  C_51
    2  A    between atoms: C_8  and  C_32
    3  A    between atoms: C_10  and  C_12
    4  A    between atoms: C_11  and  O_27
    5  A    between atoms: C_12  and  N_36
    6  A    between atoms: C_13  and  C_44
    7  A    between atoms: C_13  and  C_45
    8  A    between atoms: S_16  and  C_18
    9  A    between atoms: S_16  and  N_36
   10  A    between atoms: O_17  and  C_46
   11  A    between atoms: O_17  and  C_47
   12  A    between atoms: C_18  and  C_45
   13  A    between atoms: C_21  and  C_39
   14  A    between atoms: C_24  and  C_45
   15  A    between atoms: N_25  and  N_43
   16  A    between atoms: O_27  and  C_46
   17  A    between atoms: C_29  and  C_47
   18  A    between atoms: N_43  and  C_48
                            x       y       z     vdW  Elec       q    Type
                         _______ _______ _______ _____ _____    ______ ____

>  <TORSDO>
F 18

$$$$
=
 OpenBabel11042420213D

 51 53  0  0  1  0  0  0  0  0999 V2000
  160.5440  211.4520  152.6570 C   0  0  0  0  0  3  0  0  0  0  0  0
  160.5240  211.6890  149.1720 C   0  0  1  0  0  3  0  0  0  0  0  0
  161.6270  210.6330  149.2470 C   0  0  0  0  0  0  0  0  0  0  0  0
  160.4250  212.1190  151.5410 C   0  0  0  0  0  0  0  0  0  0  0  0
  161.9400  209.6590  151.5260 C   0  0  0  0  0  2  0  0  0  0  0  0
  161.6630  210.4570  152.8160 C   0  0  2  0  0  3  0  0  0  0  0  0
  162.5610  210.5300  150.4280 C   0  0  0  0  0  2  0  0  0  0  0  0
  161.6930  209.7210  148.2620 C   0  0  0  0  0  3  0  0  0  0  0  0
  160.4210  212.6280  150.3440 C   0  0  0  0  0  3  0  0  0  0  0  0
  159.4390  212.9500  145.6480 C   0  0  1  0  0  3  0  0  0  0  0  0
  159.5080  212.2440  146.9800 C   0  0  0  0  0  3  0  0  0  0  0  0
  163.6890  212.7040  146.5500 O   0  0  0  0  0  0  0  0  0  0  0  0
  162.4540  212.8740  146.3930 C   0  0  0  0  0  0  0  0  0  0  0  0
  161.8730  212.5950  145.0660 C   0  0  0  0  0  3  0  0  0  0  0  0
  162.4160  213.6500  148.6450 F   0  0  0  0  0  0  0  0  0  0  0  0
  159.2670  214.4520  145.7990 C   0  0  0  0  0  1  0  0  0  0  0  0
  160.5700  212.6090  144.7110 C   0  0  0  0  0  0  0  0  0  0  0  0
  161.6260  213.3880  147.5350 C   0  0  2  0  0  3  0  0  0  0  0  0
  160.5060  212.4380  147.8640 C   0  0  0  0  0  0  0  0  0  0  0  0
  160.2270  212.4050  143.3350 N   0  0  0  0  0  0  0  0  0  0  0  0
  161.5200  210.4840  140.2960 C   0  0  0  0  0  1  0  0  0  0  0  0
  160.8110  211.5080  141.1130 C   0  0  0  0  0  0  0  0  0  0  0  0
  160.1430  212.4140  140.5400 O   0  0  0  0  0  0  0  0  0  0  0  0
  160.9080  211.4660  142.5370 N   0  0  0  0  0  0  0  0  0  0  0  0
  162.1490  207.2600  148.2840 C   0  0  1  0  0  0  0  0  0  0  0  0
  163.0440  206.1420  147.7770 C   0  0  0  0  0  1  0  0  0  0  0  0
  162.6800  207.8960  149.4240 O   0  0  0  0  0  0  0  0  0  0  0  0
  162.7270  208.6280  148.2150 C   0  0  2  0  0  3  0  0  0  0  0  0
  160.0490  206.2240  149.2230 C   0  0  0  0  0  3  0  0  0  0  0  0
  160.6560  207.0550  148.3650 C   0  0  0  0  0  3  0  0  0  0  0  0
  160.7710  205.3810  150.2200 C   0  0  0  0  0  2  0  0  0  0  0  0
  160.2920  204.0460  150.1640 O   0  0  0  0  0  0  0  0  0  0  0  0
  160.8860  203.0230  150.9080 C   0  0  0  0  0  0  0  0  0  0  0  0
  161.5810  203.2970  151.9270 O   0  0  0  0  0  0  0  0  0  0  0  0
  160.7140  201.6950  150.5070 O   0  0  0  0  0  0  0  0  0  0  0  0
  161.2340  201.2040  149.2740 C   0  0  0  0  0  2  0  0  0  0  0  0
  160.4270  201.7610  148.1150 C   0  0  0  0  0  1  0  0  0  0  0  0
  161.2700  209.4930  153.9250 C   0  0  0  0  0  2  0  0  0  0  0  0
  159.9690  209.8510  154.4760 N   0  0  0  0  0  2  0  0  0  0  0  0
  161.4360  211.1880  156.2320 O   0  0  0  0  0  0  0  0  0  0  0  0
  160.2140  210.3080  156.1320 S   0  0  0  0  0  0  0  0  0  0  0  0
  160.4330  209.0690  156.9710 O   0  0  0  0  0  0  0  0  0  0  0  0
  158.7720  211.1920  156.7540 C   0  0  0  0  0  2  0  0  0  0  0  0
  158.1580  211.4600  154.4330 O   0  0  0  0  0  1  0  0  0  0  0  0
  158.0660  212.0700  155.6970 C   0  0  2  0  0  0  0  0  0  0  0  0
  158.7790  213.4020  155.6620 C   0  0  0  0  0  0  0  0  0  0  0  0
  158.7580  214.1860  154.5050 O   0  0  0  0  0  0  0  0  0  0  0  0
  159.3440  213.8470  156.7080 O   0  0  0  0  0  1  0  0  0  0  0  0
  156.5870  212.2400  156.0750 C   0  0  0  0  0  2  0  0  0  0  0  0
  155.1020  210.2900  155.7220 C   0  0  0  0  0  1  0  0  0  0  0  0
  155.6450  211.5620  155.0950 C   0  0  0  0  0  2  0  0  0  0  0  0
  1  6  1  0  0  0  0
  2 19  1  6  0  0  0
  2  3  1  0  0  0  0
  2  9  1  0  0  0  0
  3  7  1  0  0  0  0
  4  1  2  0  0  0  0
  5  6  1  0  0  0  0
  6 38  1  1  0  0  0
  7  5  1  0  0  0  0
  8  3  2  0  0  0  0
  9  4  2  0  0  0  0
 10 16  1  1  0  0  0
 10 11  1  0  0  0  0
 11 19  2  0  0  0  0
 13 12  2  0  0  0  0
 13 18  1  0  0  0  0
 14 13  1  0  0  0  0
 17 14  2  0  0  0  0
 17 10  1  0  0  0  0
 18 19  1  0  0  0  0
 18 15  1  1  0  0  0
 20 17  1  0  0  0  0
 21 22  1  0  0  0  0
 22 24  1  0  0  0  0
 23 22  2  0  0  0  0
 24 20  2  0  0  0  0
 25 26  1  6  0  0  0
 25 30  1  0  0  0  0
 25 27  1  0  0  0  0
 28  8  1  1  0  0  0
 28 25  1  0  0  0  0
 28 27  1  0  0  0  0
 29 31  1  0  0  0  0
 30 29  2  0  0  0  0
 32 31  1  0  0  0  0
 32 33  1  0  0  0  0
 33 34  2  0  0  0  0
 35 33  1  0  0  0  0
 36 35  1  0  0  0  0
 37 36  1  0  0  0  0
 38 39  1  0  0  0  0
 39 41  1  0  0  0  0
 41 40  2  0  0  0  0
 41 43  1  0  0  0  0
 41 42  2  0  0  0  0
 45 44  1  6  0  0  0
 45 49  1  0  0  0  0
 45 43  1  0  0  0  0
 46 45  1  0  0  0  0
 46 48  1  0  0  0  0
 47 46  2  0  0  0  0
 51 50  1  0  0  0  0
 51 49  1  0  0  0  0
M  END
>  <MODEL>
8

>  <REMARK>
 VINA RESULT:      -3.1      3.880     10.087
  Name = 
  18 active torsions:
  status: ('A' for Active; 'I' for Inactive)
    1  A    between atoms: C_3  and  C_51
    2  A    between atoms: C_8  and  C_32
    3  A    between atoms: C_10  and  C_12
    4  A    between atoms: C_11  and  O_27
    5  A    between atoms: C_12  and  N_36
    6  A    between atoms: C_13  and  C_44
    7  A    between atoms: C_13  and  C_45
    8  A    between atoms: S_16  and  C_18
    9  A    between atoms: S_16  and  N_36
   10  A    between atoms: O_17  and  C_46
   11  A    between atoms: O_17  and  C_47
   12  A    between atoms: C_18  and  C_45
   13  A    between atoms: C_21  and  C_39
   14  A    between atoms: C_24  and  C_45
   15  A    between atoms: N_25  and  N_43
   16  A    between atoms: O_27  and  C_46
   17  A    between atoms: C_29  and  C_47
   18  A    between atoms: N_43  and  C_48
                            x       y       z     vdW  Elec       q    Type
                         _______ _______ _______ _____ _____    ______ ____

>  <TORSDO>
F 18

$$$$
=
 OpenBabel11042420213D

 51 53  0  0  1  0  0  0  0  0999 V2000
  160.3780  211.7810  152.6170 C   0  0  0  0  0  3  0  0  0  0  0  0
  160.5570  211.8550  149.1290 C   0  0  1  0  0  3  0  0  0  0  0  0
  161.6620  210.8140  149.3160 C   0  0  0  0  0  0  0  0  0  0  0  0
  160.3200  212.3940  151.4650 C   0  0  0  0  0  0  0  0  0  0  0  0
  161.8490  209.9510  151.6520 C   0  0  0  0  0  2  0  0  0  0  0  0
  161.4930  210.8060  152.8860 C   0  0  2  0  0  3  0  0  0  0  0  0
  162.5260  210.7750  150.5520 C   0  0  0  0  0  2  0  0  0  0  0  0
  161.7910  209.8570  148.3800 C   0  0  0  0  0  3  0  0  0  0  0  0
  160.3810  212.8460  150.2460 C   0  0  0  0  0  3  0  0  0  0  0  0
  159.9120  212.7000  145.3790 C   0  0  1  0  0  3  0  0  0  0  0  0
  159.8920  212.0680  146.7490 C   0  0  0  0  0  3  0  0  0  0  0  0
  163.8140  213.6150  147.0740 O   0  0  0  0  0  0  0  0  0  0  0  0
  162.6340  213.4460  146.6780 C   0  0  0  0  0  0  0  0  0  0  0  0
  162.4210  212.9910  145.2900 C   0  0  0  0  0  3  0  0  0  0  0  0
  161.9490  214.2360  148.8180 F   0  0  0  0  0  0  0  0  0  0  0  0
  159.3340  214.1050  145.3820 C   0  0  0  0  0  1  0  0  0  0  0  0
  161.2570  212.6500  144.6980 C   0  0  0  0  0  0  0  0  0  0  0  0
  161.4910  213.7480  147.6030 C   0  0  2  0  0  3  0  0  0  0  0  0
  160.6100  212.5420  147.7870 C   0  0  0  0  0  0  0  0  0  0  0  0
  161.2600  212.3300  143.3010 N   0  0  0  0  0  0  0  0  0  0  0  0
  162.8150  213.6100  140.0550 C   0  0  0  0  0  1  0  0  0  0  0  0
  162.1300  212.7110  141.0260 C   0  0  0  0  0  0  0  0  0  0  0  0
  161.7600  211.5600  140.6610 O   0  0  0  0  0  0  0  0  0  0  0  0
  161.8810  213.1680  142.3550 N   0  0  0  0  0  0  0  0  0  0  0  0
  162.2890  207.4110  148.2010 C   0  0  1  0  0  0  0  0  0  0  0  0
  163.3070  206.3620  147.7860 C   0  0  0  0  0  1  0  0  0  0  0  0
  162.5190  207.8930  149.5050 O   0  0  0  0  0  0  0  0  0  0  0  0
  162.8330  208.7730  148.4450 C   0  0  2  0  0  3  0  0  0  0  0  0
  160.1280  206.1100  148.2230 C   0  0  0  0  0  3  0  0  0  0  0  0
  160.8250  207.2060  147.8970 C   0  0  0  0  0  3  0  0  0  0  0  0
  160.7080  204.9330  148.9350 C   0  0  0  0  0  2  0  0  0  0  0  0
  160.2140  204.8780  150.2640 O   0  0  0  0  0  0  0  0  0  0  0  0
  161.0610  204.6440  151.3510 C   0  0  0  0  0  0  0  0  0  0  0  0
  161.3450  203.4620  151.6950 O   0  0  0  0  0  0  0  0  0  0  0  0
  161.5830  205.7310  152.0590 O   0  0  0  0  0  0  0  0  0  0  0  0
  160.7450  206.6650  152.7350 C   0  0  0  0  0  2  0  0  0  0  0  0
  160.9830  206.5820  154.2320 C   0  0  0  0  0  1  0  0  0  0  0  0
  161.0430  209.8900  154.0140 C   0  0  0  0  0  2  0  0  0  0  0  0
  159.6530  210.1540  154.3630 N   0  0  0  0  0  2  0  0  0  0  0  0
  160.7030  211.4860  156.3990 O   0  0  0  0  0  0  0  0  0  0  0  0
  159.6010  210.5120  156.0590 S   0  0  0  0  0  0  0  0  0  0  0  0
  159.8100  209.2410  156.8520 O   0  0  0  0  0  0  0  0  0  0  0  0
  158.0030  211.2210  156.4980 C   0  0  0  0  0  2  0  0  0  0  0  0
  158.9540  213.3080  157.2600 O   0  0  0  0  0  1  0  0  0  0  0  0
  157.9570  212.7640  156.4280 C   0  0  2  0  0  0  0  0  0  0  0  0
  156.5990  213.2020  156.9250 C   0  0  0  0  0  0  0  0  0  0  0  0
  155.6280  212.2530  157.2580 O   0  0  0  0  0  1  0  0  0  0  0  0
  156.3570  214.4340  157.1090 O   0  0  0  0  0  0  0  0  0  0  0  0
  158.1950  213.2210  154.9820 C   0  0  0  0  0  2  0  0  0  0  0  0
  157.1750  214.2370  152.9670 C   0  0  0  0  0  1  0  0  0  0  0  0
  156.9070  213.3830  154.1930 C   0  0  0  0  0  2  0  0  0  0  0  0
  1  6  1  0  0  0  0
  2 19  1  6  0  0  0
  2  3  1  0  0  0  0
  2  9  1  0  0  0  0
  3  7  1  0  0  0  0
  4  1  2  0  0  0  0
  5  6  1  0  0  0  0
  6 38  1  1  0  0  0
  7  5  1  0  0  0  0
  8  3  2  0  0  0  0
  9  4  2  0  0  0  0
 10 16  1  1  0  0  0
 10 11  1  0  0  0  0
 11 19  2  0  0  0  0
 13 12  2  0  0  0  0
 13 18  1  0  0  0  0
 14 13  1  0  0  0  0
 17 14  2  0  0  0  0
 17 10  1  0  0  0  0
 18 19  1  0  0  0  0
 18 15  1  1  0  0  0
 20 17  1  0  0  0  0
 21 22  1  0  0  0  0
 22 24  1  0  0  0  0
 23 22  2  0  0  0  0
 24 20  2  0  0  0  0
 25 26  1  6  0  0  0
 25 28  1  0  0  0  0
 25 27  1  0  0  0  0
 28  8  1  1  0  0  0
 28 27  1  0  0  0  0
 29 31  1  0  0  0  0
 30 25  1  0  0  0  0
 30 29  2  0  0  0  0
 31 32  1  0  0  0  0
 32 33  1  0  0  0  0
 33 34  2  0  0  0  0
 33 35  1  0  0  0  0
 35 36  1  0  0  0  0
 36 37  1  0  0  0  0
 38 39  1  0  0  0  0
 39 41  1  0  0  0  0
 41 40  2  0  0  0  0
 41 43  1  0  0  0  0
 41 42  2  0  0  0  0
 45 43  1  0  0  0  0
 45 46  1  0  0  0  0
 45 44  1  1  0  0  0
 46 48  2  0  0  0  0
 46 47  1  0  0  0  0
 49 45  1  0  0  0  0
 50 51  1  0  0  0  0
 51 49  1  0  0  0  0
M  END
>  <MODEL>
9

>  <REMARK>
 VINA RESULT:      -3.0      4.148     10.157
  Name = 
  18 active torsions:
  status: ('A' for Active; 'I' for Inactive)
    1  A    between atoms: C_3  and  C_51
    2  A    between atoms: C_8  and  C_32
    3  A    between atoms: C_10  and  C_12
    4  A    between atoms: C_11  and  O_27
    5  A    between atoms: C_12  and  N_36
    6  A    between atoms: C_13  and  C_44
    7  A    between atoms: C_13  and  C_45
    8  A    between atoms: S_16  and  C_18
    9  A    between atoms: S_16  and  N_36
   10  A    between atoms: O_17  and  C_46
   11  A    between atoms: O_17  and  C_47
   12  A    between atoms: C_18  and  C_45
   13  A    between atoms: C_21  and  C_39
   14  A    between atoms: C_24  and  C_45
   15  A    between atoms: N_25  and  N_43
   16  A    between atoms: O_27  and  C_46
   17  A    between atoms: C_29  and  C_47
   18  A    between atoms: N_43  and  C_48
                            x       y       z     vdW  Elec       q    Type
                         _______ _______ _______ _____ _____    ______ ____

>  <TORSDO>
F 18

$$$$
