=
 OpenBabel11042420133D

 25 27  0  0  1  0  0  0  0  0999 V2000
  160.8260  207.0680  149.2140 C   0  0  0  0  0  2  0  0  0  0  0  0
  161.0210  207.7700  153.8530 O   0  0  0  0  0  0  0  0  0  0  0  0
  161.8280  206.0630  151.7710 C   0  0  0  0  0  2  0  0  0  0  0  0
  161.4360  205.6650  149.3250 C   0  0  0  0  0  3  0  0  0  0  0  0
  161.4760  208.0070  150.2240 C   0  0  0  0  0  2  0  0  0  0  0  0
  161.1730  205.1450  150.7440 C   0  0  0  0  0  2  0  0  0  0  0  0
  161.0170  208.2540  152.6890 C   0  0  0  0  0  0  0  0  0  0  0  0
  161.3730  207.4350  151.5660 N   0  0  0  0  0  0  0  0  0  0  0  0
  160.5460  201.3740  149.5480 C   0  0  0  0  0  0  0  0  0  0  0  0
  160.5050  202.6810  149.5600 N   0  0  0  0  0  0  0  0  0  0  0  0
  160.8520  204.7750  148.2990 N   0  0  1  0  0  0  0  0  0  0  0  0
  159.9640  200.6680  150.5490 F   0  0  0  0  0  0  0  0  0  0  0  0
  161.5350  203.6630  146.2160 C   0  0  1  0  0  3  0  0  0  0  0  0
  161.4190  201.3080  147.3200 C   0  0  0  0  0  3  0  0  0  0  0  0
  160.9350  202.7190  147.2100 C   0  0  1  0  0  3  0  0  0  0  0  0
  160.7270  203.6430  144.9340 C   0  0  0  0  0  1  0  0  0  0  0  0
  161.1730  200.6800  148.4400 N   0  0  0  0  0  0  0  0  0  0  0  0
  162.7340  205.7240  146.8620 C   0  0  0  0  0  1  0  0  0  0  0  0
  161.3750  205.0220  146.9180 C   0  0  2  0  0  3  0  0  0  0  0  0
  161.2370  203.3860  148.5070 C   0  0  2  0  0  3  0  0  0  0  0  0
  160.5920  209.6720  152.5030 C   0  0  0  0  0  2  0  0  0  0  0  0
  161.4820  210.5510  153.2430 N   0  0  0  0  0  2  0  0  0  0  0  0
  160.6690  211.2720  154.2070 C   0  0  0  0  0  2  0  0  0  0  0  0
  162.3270  210.6670  155.5290 C   0  0  0  0  0  1  0  0  0  0  0  0
  160.9410  210.8060  155.4940 O   0  0  0  0  0  0  0  0  0  0  0  0
  1  4  1  0  0  0  0
  1  5  1  0  0  0  0
  4  6  1  0  0  0  0
  5  8  1  0  0  0  0
  6  3  1  0  0  0  0
  7  2  2  0  0  0  0
  8  3  1  0  0  0  0
  8  7  1  0  0  0  0
  9 10  2  0  0  0  0
  9 12  1  0  0  0  0
 11 20  1  0  0  0  0
 11  4  1  1  0  0  0
 13 16  1  6  0  0  0
 13 19  1  0  0  0  0
 13 15  1  0  0  0  0
 14 17  2  0  0  0  0
 15 14  1  1  0  0  0
 15 20  1  0  0  0  0
 17  9  1  0  0  0  0
 19 18  1  1  0  0  0
 19 11  1  0  0  0  0
 20 10  1  1  0  0  0
 21  7  1  0  0  0  0
 21 22  1  0  0  0  0
 22 23  1  0  0  0  0
 23 25  1  0  0  0  0
 25 24  1  0  0  0  0
M  END
>  <MODEL>
1

>  <REMARK>
 VINA RESULT:      -7.9      0.000      0.000
  Name = 
  5 active torsions:
  status: ('A' for Active; 'I' for Inactive)
    1  A    between atoms: N_4  and  C_15
    2  A    between atoms: O_8  and  C_16
    3  A    between atoms: C_10  and  N_12
    4  A    between atoms: C_10  and  C_23
    5  A    between atoms: N_12  and  C_16
                            x       y       z     vdW  Elec       q    Type
                         _______ _______ _______ _____ _____    ______ ____

>  <TORSDO>
F 5

$$$$
=
 OpenBabel11042420133D

 25 27  0  0  1  0  0  0  0  0999 V2000
  160.9150  207.7020  150.8340 C   0  0  0  0  0  2  0  0  0  0  0  0
  160.6740  206.9000  155.4550 O   0  0  0  0  0  0  0  0  0  0  0  0
  161.5320  205.8360  152.9990 C   0  0  0  0  0  2  0  0  0  0  0  0
  161.3710  206.2690  150.5330 C   0  0  0  0  0  3  0  0  0  0  0  0
  161.5390  208.1910  152.1360 C   0  0  0  0  0  2  0  0  0  0  0  0
  160.9060  205.3720  151.6870 C   0  0  0  0  0  2  0  0  0  0  0  0
  160.8420  207.7180  154.5110 C   0  0  0  0  0  0  0  0  0  0  0  0
  161.2360  207.2500  153.2130 N   0  0  0  0  0  0  0  0  0  0  0  0
  160.6600  202.1930  149.0700 C   0  0  0  0  0  0  0  0  0  0  0  0
  160.5650  203.3910  149.5860 N   0  0  0  0  0  0  0  0  0  0  0  0
  160.8180  205.8220  149.2370 N   0  0  1  0  0  0  0  0  0  0  0  0
  160.1140  201.1320  149.7140 F   0  0  0  0  0  0  0  0  0  0  0  0
  161.5330  205.6310  146.8930 C   0  0  1  0  0  3  0  0  0  0  0  0
  161.5210  203.0300  146.9990 C   0  0  0  0  0  3  0  0  0  0  0  0
  160.9790  204.3530  147.4380 C   0  0  1  0  0  3  0  0  0  0  0  0
  160.7190  206.0760  145.6950 C   0  0  0  0  0  1  0  0  0  0  0  0
  161.3090  202.0080  147.7860 N   0  0  0  0  0  0  0  0  0  0  0  0
  162.6500  207.3290  148.2980 C   0  0  0  0  0  1  0  0  0  0  0  0
  161.3210  206.6060  148.0640 C   0  0  2  0  0  3  0  0  0  0  0  0
  161.2610  204.4780  148.8960 C   0  0  2  0  0  3  0  0  0  0  0  0
  160.5790  209.1650  154.7590 C   0  0  0  0  0  2  0  0  0  0  0  0
  161.4410  209.6440  155.8270 N   0  0  0  0  0  2  0  0  0  0  0  0
  162.3080  210.6590  155.2550 C   0  0  0  0  0  2  0  0  0  0  0  0
  163.1020  210.1960  157.2600 C   0  0  0  0  0  1  0  0  0  0  0  0
  163.4370  210.8210  156.0600 O   0  0  0  0  0  0  0  0  0  0  0  0
  1  5  1  0  0  0  0
  3  8  1  0  0  0  0
  4  1  1  0  0  0  0
  4  6  1  0  0  0  0
  5  8  1  0  0  0  0
  6  3  1  0  0  0  0
  7 21  1  0  0  0  0
  7  2  2  0  0  0  0
  8  7  1  0  0  0  0
  9 10  2  0  0  0  0
  9 12  1  0  0  0  0
 11  4  1  1  0  0  0
 13 16  1  6  0  0  0
 13 15  1  0  0  0  0
 13 19  1  0  0  0  0
 14 17  2  0  0  0  0
 15 14  1  6  0  0  0
 15 20  1  0  0  0  0
 17  9  1  0  0  0  0
 19 18  1  1  0  0  0
 19 11  1  0  0  0  0
 20 11  1  0  0  0  0
 20 10  1  1  0  0  0
 21 22  1  0  0  0  0
 23 22  1  0  0  0  0
 23 25  1  0  0  0  0
 25 24  1  0  0  0  0
M  END
>  <MODEL>
2

>  <REMARK>
 VINA RESULT:      -7.8      1.505      1.805
  Name = 
  5 active torsions:
  status: ('A' for Active; 'I' for Inactive)
    1  A    between atoms: N_4  and  C_15
    2  A    between atoms: O_8  and  C_16
    3  A    between atoms: C_10  and  N_12
    4  A    between atoms: C_10  and  C_23
    5  A    between atoms: N_12  and  C_16
                            x       y       z     vdW  Elec       q    Type
                         _______ _______ _______ _____ _____    ______ ____

>  <TORSDO>
F 5

$$$$
=
 OpenBabel11042420133D

 25 27  0  0  1  0  0  0  0  0999 V2000
  160.8600  206.9920  149.1280 C   0  0  0  0  0  2  0  0  0  0  0  0
  161.1050  207.8520  153.7380 O   0  0  0  0  0  0  0  0  0  0  0  0
  161.8730  206.0640  151.7100 C   0  0  0  0  0  2  0  0  0  0  0  0
  161.4540  205.5860  149.2820 C   0  0  0  0  0  3  0  0  0  0  0  0
  161.5310  207.9570  150.1000 C   0  0  0  0  0  2  0  0  0  0  0  0
  161.1970  205.1190  150.7210 C   0  0  0  0  0  2  0  0  0  0  0  0
  161.0960  208.2960  152.5580 C   0  0  0  0  0  0  0  0  0  0  0  0
  161.4320  207.4340  151.4610 N   0  0  0  0  0  0  0  0  0  0  0  0
  160.5810  201.3000  149.6380 C   0  0  0  0  0  0  0  0  0  0  0  0
  160.5360  202.6070  149.6160 N   0  0  0  0  0  0  0  0  0  0  0  0
  160.8510  204.6680  148.2940 N   0  0  1  0  0  0  0  0  0  0  0  0
  160.0230  200.6200  150.6680 F   0  0  0  0  0  0  0  0  0  0  0  0
  161.4910  203.5040  146.2260 C   0  0  1  0  0  3  0  0  0  0  0  0
  161.4050  201.1780  147.3930 C   0  0  0  0  0  3  0  0  0  0  0  0
  160.9160  202.5850  147.2560 C   0  0  1  0  0  3  0  0  0  0  0  0
  160.6550  203.4490  144.9630 C   0  0  0  0  0  1  0  0  0  0  0  0
  161.1860  200.5790  148.5340 N   0  0  0  0  0  0  0  0  0  0  0  0
  162.6990  205.5840  146.7920 C   0  0  0  0  0  1  0  0  0  0  0  0
  161.3420  204.8810  146.8950 C   0  0  2  0  0  3  0  0  0  0  0  0
  161.2430  203.2860  148.5300 C   0  0  2  0  0  3  0  0  0  0  0  0
  160.6870  209.7110  152.3260 C   0  0  0  0  0  2  0  0  0  0  0  0
  160.1270  210.2660  153.5470 N   0  0  0  0  0  2  0  0  0  0  0  0
  159.2970  211.3940  153.1640 C   0  0  0  0  0  2  0  0  0  0  0  0
  159.1340  213.0620  151.7300 C   0  0  0  0  0  1  0  0  0  0  0  0
  160.0640  212.3260  152.4620 O   0  0  0  0  0  0  0  0  0  0  0  0
  1  4  1  0  0  0  0
  1  5  1  0  0  0  0
  4  6  1  0  0  0  0
  5  8  1  0  0  0  0
  6  3  1  0  0  0  0
  7  2  2  0  0  0  0
  8  3  1  0  0  0  0
  8  7  1  0  0  0  0
  9 12  1  0  0  0  0
 10  9  2  0  0  0  0
 11 20  1  0  0  0  0
 11  4  1  1  0  0  0
 13 16  1  6  0  0  0
 13 19  1  0  0  0  0
 13 15  1  0  0  0  0
 14 17  2  0  0  0  0
 15 14  1  1  0  0  0
 15 20  1  0  0  0  0
 17  9  1  0  0  0  0
 19 18  1  1  0  0  0
 19 11  1  0  0  0  0
 20 10  1  1  0  0  0
 21  7  1  0  0  0  0
 21 22  1  0  0  0  0
 23 22  1  0  0  0  0
 24 25  1  0  0  0  0
 25 23  1  0  0  0  0
M  END
>  <MODEL>
3

>  <REMARK>
 VINA RESULT:      -7.6      1.115      1.386
  Name = 
  5 active torsions:
  status: ('A' for Active; 'I' for Inactive)
    1  A    between atoms: N_4  and  C_15
    2  A    between atoms: O_8  and  C_16
    3  A    between atoms: C_10  and  N_12
    4  A    between atoms: C_10  and  C_23
    5  A    between atoms: N_12  and  C_16
                            x       y       z     vdW  Elec       q    Type
                         _______ _______ _______ _____ _____    ______ ____

>  <TORSDO>
F 5

$$$$
=
 OpenBabel11042420133D

 25 27  0  0  1  0  0  0  0  0999 V2000
  160.9100  207.9550  151.0510 C   0  0  0  0  0  2  0  0  0  0  0  0
  160.8710  207.2160  155.6890 O   0  0  0  0  0  0  0  0  0  0  0  0
  161.6770  206.1460  153.2180 C   0  0  0  0  0  2  0  0  0  0  0  0
  161.4080  206.5350  150.7540 C   0  0  0  0  0  3  0  0  0  0  0  0
  161.5630  208.4870  152.3220 C   0  0  0  0  0  2  0  0  0  0  0  0
  161.0210  205.6390  151.9370 C   0  0  0  0  0  2  0  0  0  0  0  0
  160.9730  208.0250  154.7280 C   0  0  0  0  0  0  0  0  0  0  0  0
  161.3360  207.5510  153.4230 N   0  0  0  0  0  0  0  0  0  0  0  0
  160.6990  202.4140  149.4210 C   0  0  0  0  0  0  0  0  0  0  0  0
  160.6060  203.6250  149.9070 N   0  0  0  0  0  0  0  0  0  0  0  0
  160.8240  206.0480  149.4860 N   0  0  1  0  0  0  0  0  0  0  0  0
  160.1810  201.3660  150.1080 F   0  0  0  0  0  0  0  0  0  0  0  0
  161.4780  205.8000  147.1300 C   0  0  1  0  0  3  0  0  0  0  0  0
  161.4950  203.2020  147.3060 C   0  0  0  0  0  3  0  0  0  0  0  0
  160.9520  204.5320  147.7230 C   0  0  1  0  0  3  0  0  0  0  0  0
  160.6270  206.2050  145.9430 C   0  0  0  0  0  1  0  0  0  0  0  0
  161.3140  202.2000  148.1250 N   0  0  0  0  0  0  0  0  0  0  0  0
  162.6160  207.5450  148.4570 C   0  0  0  0  0  1  0  0  0  0  0  0
  161.2880  206.8040  148.2790 C   0  0  2  0  0  3  0  0  0  0  0  0
  161.2710  204.6990  149.1690 C   0  0  2  0  0  3  0  0  0  0  0  0
  160.6650  209.4650  154.9650 C   0  0  0  0  0  2  0  0  0  0  0  0
  159.4570  209.5820  155.7640 N   0  0  0  0  0  2  0  0  0  0  0  0
  158.9320  210.9200  155.5520 C   0  0  0  0  0  2  0  0  0  0  0  0
  157.1160  211.6320  154.5230 C   0  0  0  0  0  1  0  0  0  0  0  0
  157.5380  210.8960  155.6280 O   0  0  0  0  0  0  0  0  0  0  0  0
  1  5  1  0  0  0  0
  3  8  1  0  0  0  0
  4  1  1  0  0  0  0
  4  6  1  0  0  0  0
  5  8  1  0  0  0  0
  6  3  1  0  0  0  0
  7 21  1  0  0  0  0
  7  2  2  0  0  0  0
  8  7  1  0  0  0  0
  9 10  2  0  0  0  0
  9 12  1  0  0  0  0
 11  4  1  1  0  0  0
 13 16  1  6  0  0  0
 13 15  1  0  0  0  0
 13 19  1  0  0  0  0
 14 17  2  0  0  0  0
 15 14  1  6  0  0  0
 15 20  1  0  0  0  0
 17  9  1  0  0  0  0
 19 18  1  1  0  0  0
 19 11  1  0  0  0  0
 20 11  1  0  0  0  0
 20 10  1  1  0  0  0
 21 22  1  0  0  0  0
 23 25  1  0  0  0  0
 23 22  1  0  0  0  0
 24 25  1  0  0  0  0
M  END
>  <MODEL>
4

>  <REMARK>
 VINA RESULT:      -7.6      1.807      2.294
  Name = 
  5 active torsions:
  status: ('A' for Active; 'I' for Inactive)
    1  A    between atoms: N_4  and  C_15
    2  A    between atoms: O_8  and  C_16
    3  A    between atoms: C_10  and  N_12
    4  A    between atoms: C_10  and  C_23
    5  A    between atoms: N_12  and  C_16
                            x       y       z     vdW  Elec       q    Type
                         _______ _______ _______ _____ _____    ______ ____

>  <TORSDO>
F 5

$$$$
=
 OpenBabel11042420133D

 25 27  0  0  1  0  0  0  0  0999 V2000
  161.5040  203.9420  151.2640 C   0  0  0  0  0  2  0  0  0  0  0  0
  161.1680  208.4440  152.5580 O   0  0  0  0  0  0  0  0  0  0  0  0
  160.4160  206.5740  150.5990 C   0  0  0  0  0  2  0  0  0  0  0  0
  160.8810  204.2130  149.8890 C   0  0  0  0  0  3  0  0  0  0  0  0
  160.8290  204.8020  152.3270 C   0  0  0  0  0  2  0  0  0  0  0  0
  161.0960  205.6950  149.5550 C   0  0  0  0  0  2  0  0  0  0  0  0
  161.2130  207.2280  152.8890 C   0  0  0  0  0  0  0  0  0  0  0  0
  160.8860  206.2090  151.9330 N   0  0  0  0  0  0  0  0  0  0  0  0
  162.0510  205.1200  145.7580 C   0  0  0  0  0  0  0  0  0  0  0  0
  162.0080  204.9100  147.0480 N   0  0  0  0  0  0  0  0  0  0  0  0
  161.4910  203.3290  148.8720 N   0  0  1  0  0  0  0  0  0  0  0  0
  162.7050  206.2010  145.2680 F   0  0  0  0  0  0  0  0  0  0  0  0
  160.8200  201.4920  147.3840 C   0  0  1  0  0  3  0  0  0  0  0  0
  161.1190  202.9710  145.2620 C   0  0  0  0  0  3  0  0  0  0  0  0
  161.5080  202.6060  146.6590 C   0  0  1  0  0  3  0  0  0  0  0  0
  161.5900  200.2010  147.1940 C   0  0  0  0  0  1  0  0  0  0  0  0
  161.4370  204.1700  144.8490 N   0  0  0  0  0  0  0  0  0  0  0  0
  159.5100  201.8290  149.4520 C   0  0  0  0  0  1  0  0  0  0  0  0
  160.9130  201.9480  148.8500 C   0  0  2  0  0  3  0  0  0  0  0  0
  161.2020  203.7830  147.5190 C   0  0  2  0  0  3  0  0  0  0  0  0
  161.6520  206.8750  154.2690 C   0  0  0  0  0  2  0  0  0  0  0  0
  160.5220  206.9550  155.1790 N   0  0  0  0  0  2  0  0  0  0  0  0
  160.9450  207.7490  156.3200 C   0  0  0  0  0  2  0  0  0  0  0  0
  162.3250  209.3560  156.9320 C   0  0  0  0  0  1  0  0  0  0  0  0
  161.5140  208.9440  155.8770 O   0  0  0  0  0  0  0  0  0  0  0  0
  1  5  1  0  0  0  0
  2  7  2  0  0  0  0
  3  8  1  0  0  0  0
  4  1  1  0  0  0  0
  6  4  1  0  0  0  0
  6  3  1  0  0  0  0
  7 21  1  0  0  0  0
  8  5  1  0  0  0  0
  8  7  1  0  0  0  0
  9 10  2  0  0  0  0
 11  4  1  1  0  0  0
 12  9  1  0  0  0  0
 13 16  1  1  0  0  0
 13 19  1  0  0  0  0
 15 14  1  6  0  0  0
 15 13  1  0  0  0  0
 15 20  1  0  0  0  0
 17 14  2  0  0  0  0
 17  9  1  0  0  0  0
 19 11  1  0  0  0  0
 19 18  1  6  0  0  0
 20 10  1  6  0  0  0
 20 11  1  0  0  0  0
 21 22  1  0  0  0  0
 22 23  1  0  0  0  0
 25 23  1  0  0  0  0
 25 24  1  0  0  0  0
M  END
>  <MODEL>
5

>  <REMARK>
 VINA RESULT:      -7.3      2.432      3.544
  Name = 
  5 active torsions:
  status: ('A' for Active; 'I' for Inactive)
    1  A    between atoms: N_4  and  C_15
    2  A    between atoms: O_8  and  C_16
    3  A    between atoms: C_10  and  N_12
    4  A    between atoms: C_10  and  C_23
    5  A    between atoms: N_12  and  C_16
                            x       y       z     vdW  Elec       q    Type
                         _______ _______ _______ _____ _____    ______ ____

>  <TORSDO>
F 5

$$$$
=
 OpenBabel11042420133D

 25 27  0  0  1  0  0  0  0  0999 V2000
  161.2490  207.2670  147.9460 C   0  0  0  0  0  2  0  0  0  0  0  0
  162.0780  210.1750  151.5400 O   0  0  0  0  0  0  0  0  0  0  0  0
  162.5290  207.5800  150.5570 C   0  0  0  0  0  2  0  0  0  0  0  0
  161.8040  206.0540  148.7010 C   0  0  0  0  0  3  0  0  0  0  0  0
  162.0660  208.5120  148.2740 C   0  0  0  0  0  2  0  0  0  0  0  0
  161.7050  206.3460  150.2040 C   0  0  0  0  0  2  0  0  0  0  0  0
  161.9430  210.0080  150.2980 C   0  0  0  0  0  0  0  0  0  0  0  0
  162.1130  208.7040  149.7220 N   0  0  0  0  0  0  0  0  0  0  0  0
  160.7490  202.5780  151.1640 C   0  0  0  0  0  0  0  0  0  0  0  0
  160.7710  203.7100  150.5090 N   0  0  0  0  0  0  0  0  0  0  0  0
  161.0520  204.8370  148.3300 N   0  0  1  0  0  0  0  0  0  0  0  0
  160.2680  202.5370  152.4300 F   0  0  0  0  0  0  0  0  0  0  0  0
  161.4090  202.7640  147.0590 C   0  0  1  0  0  3  0  0  0  0  0  0
  161.3250  201.3100  149.2170 C   0  0  0  0  0  3  0  0  0  0  0  0
  160.8980  202.5160  148.4430 C   0  0  1  0  0  3  0  0  0  0  0  0
  160.4430  202.1890  146.0420 C   0  0  0  0  0  1  0  0  0  0  0  0
  161.1960  201.3590  150.5170 N   0  0  0  0  0  0  0  0  0  0  0  0
  162.7770  204.7300  146.4540 C   0  0  0  0  0  1  0  0  0  0  0  0
  161.4050  204.3000  146.9780 C   0  0  2  0  0  3  0  0  0  0  0  0
  161.3950  203.7090  149.1850 C   0  0  2  0  0  3  0  0  0  0  0  0
  161.5620  211.1770  149.4540 C   0  0  0  0  0  2  0  0  0  0  0  0
  162.7400  211.7010  148.7810 N   0  0  0  0  0  2  0  0  0  0  0  0
  162.3570  212.9590  148.1650 C   0  0  0  0  0  2  0  0  0  0  0  0
  161.4840  213.0170  146.1400 C   0  0  0  0  0  1  0  0  0  0  0  0
  162.7030  212.9450  146.8120 O   0  0  0  0  0  0  0  0  0  0  0  0
  1  5  1  0  0  0  0
  1  4  1  0  0  0  0
  4  6  1  0  0  0  0
  5  8  1  0  0  0  0
  6  3  1  0  0  0  0
  7  2  2  0  0  0  0
  8  7  1  0  0  0  0
  8  3  1  0  0  0  0
  9 12  1  0  0  0  0
 10  9  2  0  0  0  0
 11  4  1  1  0  0  0
 11 20  1  0  0  0  0
 13 16  1  6  0  0  0
 13 15  1  0  0  0  0
 14 17  2  0  0  0  0
 15 20  1  0  0  0  0
 15 14  1  1  0  0  0
 17  9  1  0  0  0  0
 19 18  1  1  0  0  0
 19 13  1  0  0  0  0
 19 11  1  0  0  0  0
 20 10  1  1  0  0  0
 21  7  1  0  0  0  0
 22 21  1  0  0  0  0
 23 22  1  0  0  0  0
 24 25  1  0  0  0  0
 25 23  1  0  0  0  0
M  END
>  <MODEL>
6

>  <REMARK>
 VINA RESULT:      -7.0      3.086      3.612
  Name = 
  5 active torsions:
  status: ('A' for Active; 'I' for Inactive)
    1  A    between atoms: N_4  and  C_15
    2  A    between atoms: O_8  and  C_16
    3  A    between atoms: C_10  and  N_12
    4  A    between atoms: C_10  and  C_23
    5  A    between atoms: N_12  and  C_16
                            x       y       z     vdW  Elec       q    Type
                         _______ _______ _______ _____ _____    ______ ____

>  <TORSDO>
F 5

$$$$
=
 OpenBabel11042420133D

 25 27  0  0  1  0  0  0  0  0999 V2000
  161.6230  205.9830  151.0210 C   0  0  0  0  0  2  0  0  0  0  0  0
  162.3330  210.5230  150.0500 O   0  0  0  0  0  0  0  0  0  0  0  0
  161.2450  208.1250  149.0660 C   0  0  0  0  0  2  0  0  0  0  0  0
  161.1550  205.6730  149.5940 C   0  0  0  0  0  3  0  0  0  0  0  0
  161.1270  207.3590  151.4520 C   0  0  0  0  0  2  0  0  0  0  0  0
  161.7420  206.7400  148.6610 C   0  0  0  0  0  2  0  0  0  0  0  0
  162.0630  209.6320  150.9000 C   0  0  0  0  0  0  0  0  0  0  0  0
  161.5460  208.3630  150.4750 N   0  0  0  0  0  0  0  0  0  0  0  0
  161.5950  203.9390  145.5870 C   0  0  0  0  0  0  0  0  0  0  0  0
  161.7750  204.5080  146.7510 N   0  0  0  0  0  0  0  0  0  0  0  0
  161.5800  204.3120  149.2040 N   0  0  1  0  0  0  0  0  0  0  0  0
  162.1550  204.4750  144.4760 F   0  0  0  0  0  0  0  0  0  0  0  0
  160.6630  202.0330  149.1680 C   0  0  1  0  0  3  0  0  0  0  0  0
  160.5920  201.9980  146.5650 C   0  0  0  0  0  3  0  0  0  0  0  0
  161.2160  202.4580  147.8440 C   0  0  1  0  0  3  0  0  0  0  0  0
  161.3890  200.7940  149.6550 C   0  0  0  0  0  1  0  0  0  0  0  0
  160.8340  202.7070  145.4950 N   0  0  0  0  0  0  0  0  0  0  0  0
  159.7300  203.6180  150.8170 C   0  0  0  0  0  1  0  0  0  0  0  0
  161.0080  203.2320  150.0680 C   0  0  2  0  0  3  0  0  0  0  0  0
  161.0630  203.9390  147.8950 C   0  0  2  0  0  3  0  0  0  0  0  0
  162.3340  209.9090  152.3400 C   0  0  0  0  0  2  0  0  0  0  0  0
  161.2450  210.6910  152.9020 N   0  0  0  0  0  2  0  0  0  0  0  0
  161.1450  210.3390  154.3080 C   0  0  0  0  0  2  0  0  0  0  0  0
  161.2290  208.5470  155.5910 C   0  0  0  0  0  1  0  0  0  0  0  0
  160.6330  209.0470  154.4340 O   0  0  0  0  0  0  0  0  0  0  0  0
  1  5  1  0  0  0  0
  2  7  2  0  0  0  0
  3  8  1  0  0  0  0
  4  1  1  0  0  0  0
  6  3  1  0  0  0  0
  6  4  1  0  0  0  0
  7 21  1  0  0  0  0
  8  7  1  0  0  0  0
  8  5  1  0  0  0  0
  9 10  2  0  0  0  0
 11  4  1  1  0  0  0
 11 19  1  0  0  0  0
 12  9  1  0  0  0  0
 13 16  1  1  0  0  0
 13 19  1  0  0  0  0
 15 14  1  6  0  0  0
 15 20  1  0  0  0  0
 15 13  1  0  0  0  0
 17  9  1  0  0  0  0
 17 14  2  0  0  0  0
 19 18  1  6  0  0  0
 20 10  1  6  0  0  0
 20 11  1  0  0  0  0
 21 22  1  0  0  0  0
 22 23  1  0  0  0  0
 23 25  1  0  0  0  0
 25 24  1  0  0  0  0
M  END
>  <MODEL>
7

>  <REMARK>
 VINA RESULT:      -6.8      2.293      3.274
  Name = 
  5 active torsions:
  status: ('A' for Active; 'I' for Inactive)
    1  A    between atoms: N_4  and  C_15
    2  A    between atoms: O_8  and  C_16
    3  A    between atoms: C_10  and  N_12
    4  A    between atoms: C_10  and  C_23
    5  A    between atoms: N_12  and  C_16
                            x       y       z     vdW  Elec       q    Type
                         _______ _______ _______ _____ _____    ______ ____

>  <TORSDO>
F 5

$$$$
=
 OpenBabel11042420133D

 25 27  0  0  1  0  0  0  0  0999 V2000
  161.5910  205.5950  149.8280 C   0  0  0  0  0  2  0  0  0  0  0  0
  161.0840  200.9260  149.8810 O   0  0  0  0  0  0  0  0  0  0  0  0
  160.4670  203.3020  151.2520 C   0  0  0  0  0  2  0  0  0  0  0  0
  161.0240  205.7480  151.2440 C   0  0  0  0  0  3  0  0  0  0  0  0
  160.8470  204.4950  149.0780 C   0  0  0  0  0  2  0  0  0  0  0  0
  161.2160  204.4150  151.9780 C   0  0  0  0  0  2  0  0  0  0  0  0
  161.1440  201.9960  149.2170 C   0  0  0  0  0  0  0  0  0  0  0  0
  160.8870  203.2560  149.8540 N   0  0  0  0  0  0  0  0  0  0  0  0
  160.3930  207.2650  155.3140 C   0  0  0  0  0  0  0  0  0  0  0  0
  160.8140  206.6490  154.2400 N   0  0  0  0  0  0  0  0  0  0  0  0
  161.7000  206.8600  151.9450 N   0  0  1  0  0  0  0  0  0  0  0  0
  160.2360  206.5780  156.4720 F   0  0  0  0  0  0  0  0  0  0  0  0
  161.7000  209.3180  151.9380 C   0  0  1  0  0  3  0  0  0  0  0  0
  160.6080  209.4220  154.2990 C   0  0  0  0  0  3  0  0  0  0  0  0
  161.4900  208.7410  153.3020 C   0  0  1  0  0  3  0  0  0  0  0  0
  162.9400  210.1890  151.9320 C   0  0  0  0  0  1  0  0  0  0  0  0
  160.1380  208.6920  155.2760 N   0  0  0  0  0  0  0  0  0  0  0  0
  161.0190  208.1650  149.8610 C   0  0  0  0  0  1  0  0  0  0  0  0
  161.9360  208.0610  151.0830 C   0  0  2  0  0  3  0  0  0  0  0  0
  160.8670  207.4220  152.9990 C   0  0  2  0  0  3  0  0  0  0  0  0
  161.5310  201.9280  147.7780 C   0  0  0  0  0  2  0  0  0  0  0  0
  160.3560  201.6530  146.9670 N   0  0  0  0  0  2  0  0  0  0  0  0
  160.6820  202.0220  145.6010 C   0  0  0  0  0  2  0  0  0  0  0  0
  160.7950  204.0760  144.8080 C   0  0  0  0  0  1  0  0  0  0  0  0
  161.4860  203.1630  145.6010 O   0  0  0  0  0  0  0  0  0  0  0  0
  1  4  1  0  0  0  0
  3  6  1  0  0  0  0
  4  6  1  0  0  0  0
  5  1  1  0  0  0  0
  5  8  1  0  0  0  0
  7  8  1  0  0  0  0
  7  2  2  0  0  0  0
  8  3  1  0  0  0  0
  9 12  1  0  0  0  0
 10  9  2  0  0  0  0
 11  4  1  6  0  0  0
 11 20  1  0  0  0  0
 13 16  1  1  0  0  0
 13 15  1  0  0  0  0
 14 17  2  0  0  0  0
 15 14  1  1  0  0  0
 17  9  1  0  0  0  0
 19 18  1  6  0  0  0
 19 13  1  0  0  0  0
 19 11  1  0  0  0  0
 20 15  1  0  0  0  0
 20 10  1  1  0  0  0
 21  7  1  0  0  0  0
 22 21  1  0  0  0  0
 23 22  1  0  0  0  0
 24 25  1  0  0  0  0
 25 23  1  0  0  0  0
M  END
>  <MODEL>
8

>  <REMARK>
 VINA RESULT:      -6.3      3.574      7.963
  Name = 
  5 active torsions:
  status: ('A' for Active; 'I' for Inactive)
    1  A    between atoms: N_4  and  C_15
    2  A    between atoms: O_8  and  C_16
    3  A    between atoms: C_10  and  N_12
    4  A    between atoms: C_10  and  C_23
    5  A    between atoms: N_12  and  C_16
                            x       y       z     vdW  Elec       q    Type
                         _______ _______ _______ _____ _____    ______ ____

>  <TORSDO>
F 5

$$$$
=
 OpenBabel11042420133D

 25 27  0  0  1  0  0  0  0  0999 V2000
  160.7930  205.8570  151.1390 C   0  0  0  0  0  2  0  0  0  0  0  0
  161.7060  206.7950  146.6290 O   0  0  0  0  0  0  0  0  0  0  0  0
  162.0800  207.6960  149.2660 C   0  0  0  0  0  2  0  0  0  0  0  0
  161.3120  207.2220  151.6060 C   0  0  0  0  0  3  0  0  0  0  0  0
  161.6470  205.3340  149.9900 C   0  0  0  0  0  2  0  0  0  0  0  0
  161.2200  208.1940  150.4230 C   0  0  0  0  0  2  0  0  0  0  0  0
  161.5680  205.9400  147.5450 C   0  0  0  0  0  0  0  0  0  0  0  0
  161.6990  206.3290  148.9200 N   0  0  0  0  0  0  0  0  0  0  0  0
  160.4520  211.3290  152.8930 C   0  0  0  0  0  0  0  0  0  0  0  0
  160.4250  210.1310  152.3690 N   0  0  0  0  0  0  0  0  0  0  0  0
  160.5240  207.6960  152.7640 N   0  0  1  0  0  0  0  0  0  0  0  0
  160.0810  212.4010  152.1520 F   0  0  0  0  0  0  0  0  0  0  0  0
  160.7590  207.8810  155.2040 C   0  0  1  0  0  3  0  0  0  0  0  0
  160.8520  210.4810  155.0950 C   0  0  0  0  0  3  0  0  0  0  0  0
  160.3670  209.1720  154.5580 C   0  0  1  0  0  3  0  0  0  0  0  0
  159.7070  207.4700  156.2140 C   0  0  0  0  0  1  0  0  0  0  0  0
  160.8350  211.5030  154.2810 N   0  0  0  0  0  0  0  0  0  0  0  0
  162.0820  206.1400  154.0540 C   0  0  0  0  0  1  0  0  0  0  0  0
  160.7560  206.9050  154.0150 C   0  0  2  0  0  3  0  0  0  0  0  0
  160.9320  209.0280  153.1860 C   0  0  2  0  0  3  0  0  0  0  0  0
  161.2220  204.5380  147.1730 C   0  0  0  0  0  2  0  0  0  0  0  0
  162.0150  204.1260  146.0260 N   0  0  0  0  0  2  0  0  0  0  0  0
  161.2060  203.1970  145.2570 C   0  0  0  0  0  2  0  0  0  0  0  0
  160.0780  201.3020  145.2360 C   0  0  0  0  0  1  0  0  0  0  0  0
  160.9590  202.0500  146.0140 O   0  0  0  0  0  0  0  0  0  0  0  0
  1  4  1  0  0  0  0
  2  7  2  0  0  0  0
  3  6  1  0  0  0  0
  5  1  1  0  0  0  0
  6  4  1  0  0  0  0
  7  8  1  0  0  0  0
  8  3  1  0  0  0  0
  8  5  1  0  0  0  0
  9 17  1  0  0  0  0
 10  9  2  0  0  0  0
 11  4  1  6  0  0  0
 11 20  1  0  0  0  0
 11 19  1  0  0  0  0
 12  9  1  0  0  0  0
 13 16  1  1  0  0  0
 15 14  1  1  0  0  0
 15 13  1  0  0  0  0
 17 14  2  0  0  0  0
 19 18  1  6  0  0  0
 19 13  1  0  0  0  0
 20 10  1  6  0  0  0
 20 15  1  0  0  0  0
 21  7  1  0  0  0  0
 22 21  1  0  0  0  0
 23 25  1  0  0  0  0
 23 22  1  0  0  0  0
 24 25  1  0  0  0  0
M  END
>  <MODEL>
9

>  <REMARK>
 VINA RESULT:      -6.3      3.868      8.785
  Name = 
  5 active torsions:
  status: ('A' for Active; 'I' for Inactive)
    1  A    between atoms: N_4  and  C_15
    2  A    between atoms: O_8  and  C_16
    3  A    between atoms: C_10  and  N_12
    4  A    between atoms: C_10  and  C_23
    5  A    between atoms: N_12  and  C_16
                            x       y       z     vdW  Elec       q    Type
                         _______ _______ _______ _____ _____    ______ ____

>  <TORSDO>
F 5

$$$$
