=
 OpenBabel11052410473D

 37 41  0  0  1  0  0  0  0  0999 V2000
  159.9780  212.3550  151.6420 C   0  0  0  0  0  0  0  0  0  0  0  0
  160.5110  210.8890  156.1120 N   0  0  0  0  0  2  0  0  0  0  0  0
  159.1450  212.7910  153.8250 C   0  0  0  0  0  3  0  0  0  0  0  0
  159.0110  213.2550  152.3840 C   0  0  0  0  0  3  0  0  0  0  0  0
  159.9610  211.7580  153.7840 C   0  0  0  0  0  0  0  0  0  0  0  0
  161.5610  210.1800  154.0660 N   0  0  0  0  0  0  0  0  0  0  0  0
  160.4530  211.4930  152.5140 C   0  0  2  0  0  3  0  0  0  0  0  0
  161.5360  210.4720  152.6130 C   0  0  2  0  0  3  0  0  0  0  0  0
  160.6850  210.9100  154.6950 C   0  0  0  0  0  0  0  0  0  0  0  0
  161.7470  207.7400  147.6320 C   0  0  0  0  0  2  0  0  0  0  0  0
  161.2240  209.2800  151.8100 N   0  0  1  0  0  0  0  0  0  0  0  0
  162.8950  207.8820  148.6270 C   0  0  0  0  0  2  0  0  0  0  0  0
  161.2710  206.9360  150.3810 C   0  0  0  0  0  0  0  0  0  0  0  0
  160.8830  206.5690  148.0000 C   0  0  0  0  0  0  0  0  0  0  0  0
  162.1150  209.2890  150.6310 C   0  0  0  0  0  2  0  0  0  0  0  0
  160.2870  205.8230  147.0740 C   0  0  0  0  0  3  0  0  0  0  0  0
  160.7910  206.8560  151.7970 C   0  0  0  0  0  2  0  0  0  0  0  0
  161.3490  208.0360  152.5970 C   0  0  0  0  0  2  0  0  0  0  0  0
  162.4070  207.8850  150.0820 C   0  0  2  0  0  3  0  0  0  0  0  0
  160.5780  206.3290  149.4160 C   0  0  0  0  0  3  0  0  0  0  0  0
  161.4300  205.3810  143.6580 O   0  0  0  0  0  0  0  0  0  0  0  0
  161.9150  204.0200  145.4730 N   0  0  0  0  0  1  0  0  0  0  0  0
  161.2920  205.1580  144.8890 C   0  0  0  0  0  0  0  0  0  0  0  0
  160.5020  206.0450  145.6800 N   0  0  0  0  0  2  0  0  0  0  0  0
  162.0440  212.2330  148.5480 C   0  0  0  0  0  3  0  0  0  0  0  0
  160.3850  212.4850  150.2320 C   0  0  0  0  0  0  0  0  0  0  0  0
  161.6370  212.1210  149.8400 N   0  0  0  0  0  0  0  0  0  0  0  0
  159.4830  212.9840  149.2850 C   0  0  0  0  0  3  0  0  0  0  0  0
  161.1710  212.7320  147.5810 C   0  0  0  0  0  3  0  0  0  0  0  0
  159.8740  213.1160  147.9500 C   0  0  0  0  0  0  0  0  0  0  0  0
  158.9420  213.6200  147.0290 O   0  0  0  0  0  0  0  0  0  0  0  0
  158.2540  212.8760  146.0620 C   0  0  0  0  0  0  0  0  0  0  0  0
  157.0650  212.2190  146.3540 O   0  0  0  0  0  1  0  0  0  0  0  0
  158.7370  212.7850  144.9040 O   0  0  0  0  0  0  0  0  0  0  0  0
  161.2370  210.0540  156.8940 O   0  0  0  0  0  0  0  0  0  0  0  0
  160.3510  209.0400  157.2600 C   0  0  0  0  0  2  0  0  0  0  0  0
  160.7830  207.7360  156.6220 C   0  0  0  0  0  1  0  0  0  0  0  0
  1  4  2  0  0  0  0
  2 35  1  0  0  0  0
  4  3  1  0  0  0  0
  5  3  2  0  0  0  0
  5  9  1  0  0  0  0
  6  9  2  0  0  0  0
  7  1  1  1  0  0  0
  7  8  1  0  0  0  0
  7  5  1  0  0  0  0
  8  6  1  1  0  0  0
  9  2  1  0  0  0  0
 10 14  1  0  0  0  0
 10 12  1  0  0  0  0
 11 15  1  6  0  0  0
 11 18  1  0  0  0  0
 11  8  1  0  0  0  0
 13 17  1  0  0  0  0
 14 20  1  0  0  0  0
 16 14  2  0  0  0  0
 17 18  1  0  0  0  0
 19 12  1  6  0  0  0
 19 13  1  0  0  0  0
 19 15  1  0  0  0  0
 20 13  2  0  0  0  0
 21 23  2  0  0  0  0
 23 22  1  0  0  0  0
 23 24  1  0  0  0  0
 24 16  1  0  0  0  0
 25 27  1  0  0  0  0
 26  1  1  0  0  0  0
 27 26  2  0  0  0  0
 28 26  1  0  0  0  0
 29 30  1  0  0  0  0
 29 25  2  0  0  0  0
 30 28  2  0  0  0  0
 31 30  1  0  0  0  0
 32 33  1  0  0  0  0
 32 31  1  0  0  0  0
 34 32  2  0  0  0  0
 35 36  1  0  0  0  0
 37 36  1  0  0  0  0
M  END
>  <MODEL>
1

>  <REMARK>
 VINA RESULT:      -7.2      0.000      0.000
  Name = 
  7 active torsions:
  status: ('A' for Active; 'I' for Inactive)
    1  A    between atoms: C_1  and  C_13
    2  A    between atoms: N_4  and  C_36
    3  A    between atoms: C_8  and  O_21
    4  A    between atoms: O_9  and  C_22
    5  A    between atoms: O_9  and  C_33
    6  A    between atoms: N_12  and  O_21
    7  A    between atoms: C_20  and  N_25
                            x       y       z     vdW  Elec       q    Type
                         _______ _______ _______ _____ _____    ______ ____

>  <TORSDO>
F 7

$$$$
=
 OpenBabel11052410473D

 37 41  0  0  1  0  0  0  0  0999 V2000
  159.0980  212.8270  151.9020 C   0  0  0  0  0  0  0  0  0  0  0  0
  160.4130  211.7230  156.3140 N   0  0  0  0  0  2  0  0  0  0  0  0
  158.4570  213.2170  154.1570 C   0  0  0  0  0  3  0  0  0  0  0  0
  158.0710  213.5720  152.7310 C   0  0  0  0  0  3  0  0  0  0  0  0
  159.4420  212.3520  154.0470 C   0  0  0  0  0  0  0  0  0  0  0  0
  161.3340  211.1120  154.1770 N   0  0  0  0  0  0  0  0  0  0  0  0
  159.8260  212.1150  152.7340 C   0  0  2  0  0  3  0  0  0  0  0  0
  161.0870  211.3170  152.7290 C   0  0  2  0  0  3  0  0  0  0  0  0
  160.4150  211.7010  154.8870 C   0  0  0  0  0  0  0  0  0  0  0  0
  161.7460  208.2680  147.9770 C   0  0  0  0  0  2  0  0  0  0  0  0
  160.9150  210.0480  152.0070 N   0  0  1  0  0  0  0  0  0  0  0  0
  162.8340  208.5850  148.9990 C   0  0  0  0  0  2  0  0  0  0  0  0
  161.2280  207.6210  150.7610 C   0  0  0  0  0  0  0  0  0  0  0  0
  160.9740  207.0520  148.4010 C   0  0  0  0  0  0  0  0  0  0  0  0
  161.8500  210.0540  150.8630 C   0  0  0  0  0  2  0  0  0  0  0  0
  160.4860  206.1910  147.5140 C   0  0  0  0  0  3  0  0  0  0  0  0
  160.6990  207.5990  152.1600 C   0  0  0  0  0  2  0  0  0  0  0  0
  161.1160  208.8790  152.8890 C   0  0  0  0  0  2  0  0  0  0  0  0
  162.2880  208.6470  150.4310 C   0  0  2  0  0  3  0  0  0  0  0  0
  160.6320  206.8860  149.8200 C   0  0  0  0  0  3  0  0  0  0  0  0
  161.4210  205.4170  144.0930 O   0  0  0  0  0  0  0  0  0  0  0  0
  161.5280  203.9900  145.9210 N   0  0  0  0  0  1  0  0  0  0  0  0
  161.2400  205.2520  145.3280 C   0  0  0  0  0  0  0  0  0  0  0  0
  160.7380  206.3310  146.1160 N   0  0  0  0  0  2  0  0  0  0  0  0
  158.4250  212.9070  148.2420 C   0  0  0  0  0  3  0  0  0  0  0  0
  159.3070  212.9550  150.4490 C   0  0  0  0  0  0  0  0  0  0  0  0
  158.2640  212.7990  149.5870 N   0  0  0  0  0  0  0  0  0  0  0  0
  160.5820  213.2380  149.9460 C   0  0  0  0  0  3  0  0  0  0  0  0
  159.6840  213.1830  147.7090 C   0  0  0  0  0  3  0  0  0  0  0  0
  160.7800  213.3490  148.5680 C   0  0  0  0  0  0  0  0  0  0  0  0
  162.0720  213.6330  148.1000 O   0  0  0  0  0  0  0  0  0  0  0  0
  162.7590  212.9320  147.1000 C   0  0  0  0  0  0  0  0  0  0  0  0
  162.7490  213.3510  145.7750 O   0  0  0  0  0  0  0  0  0  0  0  0
  163.3860  211.8860  147.4090 O   0  0  0  0  0  1  0  0  0  0  0  0
  161.3690  211.0780  157.0260 O   0  0  0  0  0  0  0  0  0  0  0  0
  160.8500  209.8050  157.2600 C   0  0  0  0  0  2  0  0  0  0  0  0
  161.9170  208.7650  156.9910 C   0  0  0  0  0  1  0  0  0  0  0  0
  1  4  2  0  0  0  0
  2 35  1  0  0  0  0
  4  3  1  0  0  0  0
  5  3  2  0  0  0  0
  5  9  1  0  0  0  0
  6  9  2  0  0  0  0
  7  1  1  1  0  0  0
  7  5  1  0  0  0  0
  8  7  1  0  0  0  0
  8  6  1  1  0  0  0
  9  2  1  0  0  0  0
 10 14  1  0  0  0  0
 10 12  1  0  0  0  0
 11 15  1  6  0  0  0
 11  8  1  0  0  0  0
 11 18  1  0  0  0  0
 13 17  1  0  0  0  0
 14 20  1  0  0  0  0
 16 14  2  0  0  0  0
 17 18  1  0  0  0  0
 19 12  1  6  0  0  0
 19 13  1  0  0  0  0
 19 15  1  0  0  0  0
 20 13  2  0  0  0  0
 21 23  2  0  0  0  0
 23 22  1  0  0  0  0
 23 24  1  0  0  0  0
 24 16  1  0  0  0  0
 25 27  1  0  0  0  0
 26  1  1  0  0  0  0
 27 26  2  0  0  0  0
 28 26  1  0  0  0  0
 29 25  2  0  0  0  0
 29 30  1  0  0  0  0
 30 28  2  0  0  0  0
 31 30  1  0  0  0  0
 32 34  1  0  0  0  0
 32 31  1  0  0  0  0
 33 32  2  0  0  0  0
 35 36  1  0  0  0  0
 37 36  1  0  0  0  0
M  END
>  <MODEL>
2

>  <REMARK>
 VINA RESULT:      -6.6      1.621      1.994
  Name = 
  7 active torsions:
  status: ('A' for Active; 'I' for Inactive)
    1  A    between atoms: C_1  and  C_13
    2  A    between atoms: N_4  and  C_36
    3  A    between atoms: C_8  and  O_21
    4  A    between atoms: O_9  and  C_22
    5  A    between atoms: O_9  and  C_33
    6  A    between atoms: N_12  and  O_21
    7  A    between atoms: C_20  and  N_25
                            x       y       z     vdW  Elec       q    Type
                         _______ _______ _______ _____ _____    ______ ____

>  <TORSDO>
F 7

$$$$
=
 OpenBabel11052410473D

 37 41  0  0  1  0  0  0  0  0999 V2000
  160.8030  210.6320  153.4090 C   0  0  0  0  0  0  0  0  0  0  0  0
  157.8410  213.5390  155.6860 N   0  0  0  0  0  2  0  0  0  0  0  0
  160.4880  211.6190  155.5480 C   0  0  0  0  0  3  0  0  0  0  0  0
  161.4100  210.6730  154.7970 C   0  0  0  0  0  2  0  0  0  0  0  0
  159.6330  212.0600  154.6490 C   0  0  0  0  0  0  0  0  0  0  0  0
  157.8530  212.7330  153.4190 N   0  0  0  0  0  0  0  0  0  0  0  0
  159.8070  211.4900  153.3950 C   0  0  0  0  0  0  0  0  0  0  0  0
  158.6570  211.8670  152.5230 C   0  0  2  0  0  3  0  0  0  0  0  0
  158.4090  212.8170  154.5940 C   0  0  0  0  0  0  0  0  0  0  0  0
  157.8130  213.3070  147.0880 C   0  0  0  0  0  2  0  0  0  0  0  0
  159.1090  212.5800  151.3190 N   0  0  1  0  0  0  0  0  0  0  0  0
  157.1240  213.9290  148.2990 C   0  0  0  0  0  2  0  0  0  0  0  0
  159.4870  214.3250  149.2330 C   0  0  0  0  0  0  0  0  0  0  0  0
  159.1350  213.9770  146.8430 C   0  0  0  0  0  0  0  0  0  0  0  0
  157.9370  212.7570  150.4360 C   0  0  0  0  0  2  0  0  0  0  0  0
  159.6120  214.1480  145.6140 C   0  0  0  0  0  3  0  0  0  0  0  0
  160.4180  214.4520  150.3970 C   0  0  0  0  0  2  0  0  0  0  0  0
  159.7600  213.8650  151.6490 C   0  0  0  0  0  2  0  0  0  0  0  0
  158.0440  213.9890  149.5260 C   0  0  2  0  0  3  0  0  0  0  0  0
  159.9800  214.3230  147.9930 C   0  0  0  0  0  3  0  0  0  0  0  0
  158.7790  212.9700  142.2830 O   0  0  0  0  0  0  0  0  0  0  0  0
  160.9050  213.2100  143.1820 N   0  0  0  0  0  1  0  0  0  0  0  0
  159.4880  213.3090  143.2670 C   0  0  0  0  0  0  0  0  0  0  0  0
  158.8590  213.7790  144.4590 N   0  0  0  0  0  2  0  0  0  0  0  0
  162.2830  209.3870  150.2280 C   0  0  0  0  0  3  0  0  0  0  0  0
  161.1910  209.7270  152.3120 C   0  0  0  0  0  0  0  0  0  0  0  0
  161.9130  210.1940  151.2570 N   0  0  0  0  0  0  0  0  0  0  0  0
  160.8180  208.3790  152.3510 C   0  0  0  0  0  3  0  0  0  0  0  0
  161.9220  208.0390  150.2340 C   0  0  0  0  0  3  0  0  0  0  0  0
  161.1790  207.5250  151.3060 C   0  0  0  0  0  0  0  0  0  0  0  0
  160.7870  206.1790  151.3790 O   0  0  0  0  0  0  0  0  0  0  0  0
  161.2830  205.2250  152.2770 C   0  0  0  0  0  0  0  0  0  0  0  0
  161.4290  205.5010  153.6310 O   0  0  0  0  0  1  0  0  0  0  0  0
  161.6230  204.0940  151.8420 O   0  0  0  0  0  0  0  0  0  0  0  0
  156.6830  214.2290  155.5430 O   0  0  0  0  0  0  0  0  0  0  0  0
  156.0660  214.1610  156.7930 C   0  0  0  0  0  2  0  0  0  0  0  0
  155.4310  212.7990  156.9720 C   0  0  0  0  0  1  0  0  0  0  0  0
  1  4  1  0  0  0  0
  4  3  1  0  0  0  0
  5  3  2  0  0  0  0
  6  9  2  0  0  0  0
  7  1  2  0  0  0  0
  7  5  1  0  0  0  0
  8  7  1  1  0  0  0
  8  6  1  0  0  0  0
  9  5  1  0  0  0  0
  9  2  1  0  0  0  0
 10 12  1  0  0  0  0
 11 15  1  6  0  0  0
 11 18  1  0  0  0  0
 11  8  1  0  0  0  0
 13 19  1  0  0  0  0
 13 17  1  0  0  0  0
 14 10  1  0  0  0  0
 14 20  1  0  0  0  0
 16 14  2  0  0  0  0
 17 18  1  0  0  0  0
 19 12  1  6  0  0  0
 19 15  1  0  0  0  0
 20 13  2  0  0  0  0
 21 23  2  0  0  0  0
 22 23  1  0  0  0  0
 23 24  1  0  0  0  0
 24 16  1  0  0  0  0
 25 29  2  0  0  0  0
 25 27  1  0  0  0  0
 26 28  1  0  0  0  0
 26  1  1  0  0  0  0
 27 26  2  0  0  0  0
 29 30  1  0  0  0  0
 30 31  1  0  0  0  0
 30 28  2  0  0  0  0
 31 32  1  0  0  0  0
 32 33  1  0  0  0  0
 34 32  2  0  0  0  0
 35  2  1  0  0  0  0
 35 36  1  0  0  0  0
 36 37  1  0  0  0  0
M  END
>  <MODEL>
3

>  <REMARK>
 VINA RESULT:      -6.1      3.397      6.700
  Name = 
  7 active torsions:
  status: ('A' for Active; 'I' for Inactive)
    1  A    between atoms: C_1  and  C_13
    2  A    between atoms: N_4  and  C_36
    3  A    between atoms: C_8  and  O_21
    4  A    between atoms: O_9  and  C_22
    5  A    between atoms: O_9  and  C_33
    6  A    between atoms: N_12  and  O_21
    7  A    between atoms: C_20  and  N_25
                            x       y       z     vdW  Elec       q    Type
                         _______ _______ _______ _____ _____    ______ ____

>  <TORSDO>
F 7

$$$$
=
 OpenBabel11052410473D

 37 41  0  0  1  0  0  0  0  0999 V2000
  161.0390  207.9510  154.1560 C   0  0  0  0  0  0  0  0  0  0  0  0
  159.4300  211.7940  156.4040 N   0  0  0  0  0  2  0  0  0  0  0  0
  161.1340  209.0020  156.2860 C   0  0  0  0  0  3  0  0  0  0  0  0
  161.6190  207.7680  155.5440 C   0  0  0  0  0  2  0  0  0  0  0  0
  160.5120  209.7300  155.3820 C   0  0  0  0  0  0  0  0  0  0  0  0
  159.1250  211.0250  154.1450 N   0  0  0  0  0  0  0  0  0  0  0  0
  160.4510  209.1270  154.1330 C   0  0  0  0  0  0  0  0  0  0  0  0
  159.5320  209.9100  153.2570 C   0  0  2  0  0  3  0  0  0  0  0  0
  159.6740  210.9000  155.3190 C   0  0  0  0  0  0  0  0  0  0  0  0
  159.7100  213.4250  148.7920 C   0  0  0  0  0  2  0  0  0  0  0  0
  160.2210  210.3830  152.0470 N   0  0  1  0  0  0  0  0  0  0  0  0
  160.0680  213.7820  150.2320 C   0  0  0  0  0  2  0  0  0  0  0  0
  161.6620  211.7660  150.1630 C   0  0  0  0  0  0  0  0  0  0  0  0
  160.8970  212.8200  148.0980 C   0  0  0  0  0  0  0  0  0  0  0  0
  159.7020  211.7310  151.7350 C   0  0  0  0  0  2  0  0  0  0  0  0
  161.1240  213.0190  146.8040 C   0  0  0  0  0  3  0  0  0  0  0  0
  162.3620  210.6420  150.8580 C   0  0  0  0  0  2  0  0  0  0  0  0
  161.6900  210.3710  152.2060 C   0  0  0  0  0  2  0  0  0  0  0  0
  160.7120  212.6090  150.9820 C   0  0  2  0  0  3  0  0  0  0  0  0
  161.7450  211.8740  148.8350 C   0  0  0  0  0  3  0  0  0  0  0  0
  158.8140  214.2010  144.2660 O   0  0  0  0  0  0  0  0  0  0  0  0
  159.6100  212.0370  144.5220 N   0  0  0  0  0  1  0  0  0  0  0  0
  159.5480  213.4050  144.9080 C   0  0  0  0  0  0  0  0  0  0  0  0
  160.3000  213.8840  146.0220 N   0  0  0  0  0  2  0  0  0  0  0  0
  161.2070  204.6910  152.3670 C   0  0  0  0  0  3  0  0  0  0  0  0
  161.0470  206.9570  153.0680 C   0  0  0  0  0  0  0  0  0  0  0  0
  161.1910  205.6320  153.3470 N   0  0  0  0  0  0  0  0  0  0  0  0
  160.9050  207.3710  151.7390 C   0  0  0  0  0  3  0  0  0  0  0  0
  161.0740  205.0720  151.0310 C   0  0  0  0  0  3  0  0  0  0  0  0
  160.9220  206.4280  150.7090 C   0  0  0  0  0  0  0  0  0  0  0  0
  160.7780  206.8810  149.3880 O   0  0  0  0  0  0  0  0  0  0  0  0
  161.8120  207.0520  148.4580 C   0  0  0  0  0  0  0  0  0  0  0  0
  162.1410  206.0620  147.5400 O   0  0  0  0  0  0  0  0  0  0  0  0
  162.4710  208.1240  148.4680 O   0  0  0  0  0  1  0  0  0  0  0  0
  158.6260  212.8750  156.2540 O   0  0  0  0  0  0  0  0  0  0  0  0
  157.4230  212.5170  156.8620 C   0  0  0  0  0  2  0  0  0  0  0  0
  156.2680  212.8840  155.9540 C   0  0  0  0  0  1  0  0  0  0  0  0
  1  4  1  0  0  0  0
  4  3  1  0  0  0  0
  5  3  2  0  0  0  0
  6  9  2  0  0  0  0
  7  1  2  0  0  0  0
  7  5  1  0  0  0  0
  8  7  1  1  0  0  0
  8  6  1  0  0  0  0
  9  5  1  0  0  0  0
  9  2  1  0  0  0  0
 10 12  1  0  0  0  0
 11 15  1  1  0  0  0
 11 18  1  0  0  0  0
 11  8  1  0  0  0  0
 13 17  1  0  0  0  0
 13 19  1  0  0  0  0
 14 10  1  0  0  0  0
 14 20  1  0  0  0  0
 16 14  2  0  0  0  0
 17 18  1  0  0  0  0
 19 12  1  6  0  0  0
 19 15  1  0  0  0  0
 20 13  2  0  0  0  0
 21 23  2  0  0  0  0
 22 23  1  0  0  0  0
 23 24  1  0  0  0  0
 24 16  1  0  0  0  0
 25 27  1  0  0  0  0
 26 27  2  0  0  0  0
 26  1  1  0  0  0  0
 28 26  1  0  0  0  0
 29 25  2  0  0  0  0
 30 29  1  0  0  0  0
 30 28  2  0  0  0  0
 31 30  1  0  0  0  0
 32 34  1  0  0  0  0
 32 31  1  0  0  0  0
 33 32  2  0  0  0  0
 35  2  1  0  0  0  0
 35 36  1  0  0  0  0
 37 36  1  0  0  0  0
M  END
>  <MODEL>
4

>  <REMARK>
 VINA RESULT:      -5.6      2.574      6.029
  Name = 
  7 active torsions:
  status: ('A' for Active; 'I' for Inactive)
    1  A    between atoms: C_1  and  C_13
    2  A    between atoms: N_4  and  C_36
    3  A    between atoms: C_8  and  O_21
    4  A    between atoms: O_9  and  C_22
    5  A    between atoms: O_9  and  C_33
    6  A    between atoms: N_12  and  O_21
    7  A    between atoms: C_20  and  N_25
                            x       y       z     vdW  Elec       q    Type
                         _______ _______ _______ _____ _____    ______ ____

>  <TORSDO>
F 7

$$$$
=
 OpenBabel11052410473D

 37 41  0  0  1  0  0  0  0  0999 V2000
  160.8950  206.5080  153.3040 C   0  0  0  0  0  0  0  0  0  0  0  0
  162.1130  206.5130  148.7290 N   0  0  0  0  0  2  0  0  0  0  0  0
  160.9690  205.0530  151.4260 C   0  0  0  0  0  3  0  0  0  0  0  0
  160.6060  205.0760  152.9010 C   0  0  0  0  0  2  0  0  0  0  0  0
  161.2800  206.2960  151.1240 C   0  0  0  0  0  0  0  0  0  0  0  0
  162.1660  208.2490  150.3940 N   0  0  0  0  0  0  0  0  0  0  0  0
  161.2390  207.1560  152.2130 C   0  0  0  0  0  0  0  0  0  0  0  0
  161.8300  208.4690  151.8210 C   0  0  2  0  0  3  0  0  0  0  0  0
  161.8600  207.0360  150.0330 C   0  0  0  0  0  0  0  0  0  0  0  0
  158.3710  211.4170  155.2370 C   0  0  0  0  0  2  0  0  0  0  0  0
  160.8690  209.5660  152.0050 N   0  0  1  0  0  0  0  0  0  0  0  0
  159.8890  211.5510  155.1630 C   0  0  0  0  0  2  0  0  0  0  0  0
  159.5710  211.9020  152.6360 C   0  0  0  0  0  0  0  0  0  0  0  0
  157.7240  212.2740  154.1870 C   0  0  0  0  0  0  0  0  0  0  0  0
  160.8110  209.8740  153.4490 C   0  0  0  0  0  2  0  0  0  0  0  0
  156.5540  212.8700  154.3980 C   0  0  0  0  0  3  0  0  0  0  0  0
  160.0740  211.7660  151.2340 C   0  0  0  0  0  2  0  0  0  0  0  0
  161.2190  210.7500  151.1930 C   0  0  0  0  0  2  0  0  0  0  0  0
  160.4270  211.3310  153.7430 C   0  0  2  0  0  3  0  0  0  0  0  0
  158.3290  212.3400  152.8510 C   0  0  0  0  0  3  0  0  0  0  0  0
  154.6920  211.5770  157.2320 O   0  0  0  0  0  0  0  0  0  0  0  0
  155.2140  210.4420  155.2770 N   0  0  0  0  0  1  0  0  0  0  0  0
  155.2400  211.6040  156.0990 C   0  0  0  0  0  0  0  0  0  0  0  0
  155.8910  212.7950  155.6590 N   0  0  0  0  0  2  0  0  0  0  0  0
  159.8430  207.2160  156.8040 C   0  0  0  0  0  3  0  0  0  0  0  0
  160.8880  207.0480  154.6750 C   0  0  0  0  0  0  0  0  0  0  0  0
  159.8800  206.7320  155.5340 N   0  0  0  0  0  0  0  0  0  0  0  0
  161.9210  207.8910  155.1010 C   0  0  0  0  0  3  0  0  0  0  0  0
  160.8540  208.0640  157.2580 C   0  0  0  0  0  3  0  0  0  0  0  0
  161.9070  208.4090  156.3980 C   0  0  0  0  0  0  0  0  0  0  0  0
  162.9600  209.2510  156.7910 O   0  0  0  0  0  0  0  0  0  0  0  0
  163.0950  210.6070  156.4650 C   0  0  0  0  0  0  0  0  0  0  0  0
  163.7690  211.0210  155.3220 O   0  0  0  0  0  0  0  0  0  0  0  0
  162.6090  211.4730  157.2370 O   0  0  0  0  0  1  0  0  0  0  0  0
  162.6620  207.2850  147.7590 O   0  0  0  0  0  0  0  0  0  0  0  0
  162.4230  206.5940  146.5710 C   0  0  0  0  0  2  0  0  0  0  0  0
  162.0900  205.1510  146.8810 C   0  0  0  0  0  1  0  0  0  0  0  0
  1 26  1  0  0  0  0
  2  9  1  0  0  0  0
  3  4  1  0  0  0  0
  4  1  1  0  0  0  0
  5  3  2  0  0  0  0
  5  7  1  0  0  0  0
  7  1  2  0  0  0  0
  8  6  1  6  0  0  0
  8 11  1  0  0  0  0
  8  7  1  0  0  0  0
  9  6  2  0  0  0  0
  9  5  1  0  0  0  0
 11 18  1  6  0  0  0
 11 15  1  0  0  0  0
 12 10  1  0  0  0  0
 13 20  2  0  0  0  0
 13 19  1  0  0  0  0
 14 16  2  0  0  0  0
 14 10  1  0  0  0  0
 16 24  1  0  0  0  0
 17 13  1  0  0  0  0
 18 17  1  0  0  0  0
 19 15  1  6  0  0  0
 19 12  1  0  0  0  0
 20 14  1  0  0  0  0
 22 23  1  0  0  0  0
 23 21  2  0  0  0  0
 24 23  1  0  0  0  0
 25 29  1  0  0  0  0
 26 28  2  0  0  0  0
 26 27  1  0  0  0  0
 27 25  2  0  0  0  0
 28 30  1  0  0  0  0
 30 31  1  0  0  0  0
 30 29  2  0  0  0  0
 32 31  1  0  0  0  0
 32 34  1  0  0  0  0
 33 32  2  0  0  0  0
 35  2  1  0  0  0  0
 36 37  1  0  0  0  0
 36 35  1  0  0  0  0
M  END
>  <MODEL>
5

>  <REMARK>
 VINA RESULT:      -5.4      3.158      9.112
  Name = 
  7 active torsions:
  status: ('A' for Active; 'I' for Inactive)
    1  A    between atoms: C_1  and  C_13
    2  A    between atoms: N_4  and  C_36
    3  A    between atoms: C_8  and  O_21
    4  A    between atoms: O_9  and  C_22
    5  A    between atoms: O_9  and  C_33
    6  A    between atoms: N_12  and  O_21
    7  A    between atoms: C_20  and  N_25
                            x       y       z     vdW  Elec       q    Type
                         _______ _______ _______ _____ _____    ______ ____

>  <TORSDO>
F 7

$$$$
=
 OpenBabel11052410473D

 37 41  0  0  1  0  0  0  0  0999 V2000
  161.2790  207.0790  153.0360 C   0  0  0  0  0  0  0  0  0  0  0  0
  160.2180  210.5680  156.0540 N   0  0  0  0  0  2  0  0  0  0  0  0
  161.5830  207.6870  155.3130 C   0  0  0  0  0  3  0  0  0  0  0  0
  161.8910  206.5730  154.3270 C   0  0  0  0  0  2  0  0  0  0  0  0
  161.0120  208.6360  154.6010 C   0  0  0  0  0  0  0  0  0  0  0  0
  159.7330  210.2820  153.7150 N   0  0  0  0  0  0  0  0  0  0  0  0
  160.8290  208.2920  153.2680 C   0  0  0  0  0  0  0  0  0  0  0  0
  159.9710  209.3200  152.6120 C   0  0  2  0  0  3  0  0  0  0  0  0
  160.3120  209.8770  154.8090 C   0  0  0  0  0  0  0  0  0  0  0  0
  160.0830  213.2880  148.5420 C   0  0  0  0  0  2  0  0  0  0  0  0
  160.6580  209.9410  151.4700 N   0  0  1  0  0  0  0  0  0  0  0  0
  160.4080  213.5050  150.0170 C   0  0  0  0  0  2  0  0  0  0  0  0
  162.0740  211.5630  149.7650 C   0  0  0  0  0  0  0  0  0  0  0  0
  161.2990  212.8010  147.8090 C   0  0  0  0  0  0  0  0  0  0  0  0
  160.0960  211.2960  151.2920 C   0  0  0  0  0  2  0  0  0  0  0  0
  161.5360  213.1430  146.5460 C   0  0  0  0  0  3  0  0  0  0  0  0
  162.8040  210.3960  150.3510 C   0  0  0  0  0  2  0  0  0  0  0  0
  162.1240  209.9630  151.6520 C   0  0  0  0  0  2  0  0  0  0  0  0
  161.0840  212.2830  150.6510 C   0  0  2  0  0  3  0  0  0  0  0  0
  162.1710  211.8130  148.4580 C   0  0  0  0  0  3  0  0  0  0  0  0
  158.9850  214.4530  144.3230 O   0  0  0  0  0  0  0  0  0  0  0  0
  159.5810  212.2270  144.5960 N   0  0  0  0  0  1  0  0  0  0  0  0
  159.7250  213.6110  144.8950 C   0  0  0  0  0  0  0  0  0  0  0  0
  160.6920  214.0560  145.8460 N   0  0  0  0  0  2  0  0  0  0  0  0
  161.1970  206.2430  149.4090 C   0  0  0  0  0  3  0  0  0  0  0  0
  161.1260  206.3160  151.7840 C   0  0  0  0  0  0  0  0  0  0  0  0
  161.3340  206.9180  150.5810 N   0  0  0  0  0  0  0  0  0  0  0  0
  160.7660  204.9640  151.8270 C   0  0  0  0  0  3  0  0  0  0  0  0
  160.8330  204.8970  149.4170 C   0  0  0  0  0  3  0  0  0  0  0  0
  160.6120  204.2450  150.6390 C   0  0  0  0  0  0  0  0  0  0  0  0
  160.2490  202.8920  150.7210 O   0  0  0  0  0  0  0  0  0  0  0  0
  160.5460  201.9010  149.7760 C   0  0  0  0  0  0  0  0  0  0  0  0
  159.7330  201.6760  148.6710 O   0  0  0  0  0  0  0  0  0  0  0  0
  161.5670  201.1840  149.9420 O   0  0  0  0  0  1  0  0  0  0  0  0
  159.5390  211.7360  156.1580 O   0  0  0  0  0  0  0  0  0  0  0  0
  160.4060  212.6010  156.8260 C   0  0  0  0  0  2  0  0  0  0  0  0
  159.8340  214.0030  156.8120 C   0  0  0  0  0  1  0  0  0  0  0  0
  1  7  2  0  0  0  0
  1  4  1  0  0  0  0
  2 35  1  0  0  0  0
  4  3  1  0  0  0  0
  5  9  1  0  0  0  0
  5  3  2  0  0  0  0
  6  9  2  0  0  0  0
  7  5  1  0  0  0  0
  8  7  1  1  0  0  0
  8  6  1  0  0  0  0
  9  2  1  0  0  0  0
 10 12  1  0  0  0  0
 11 15  1  1  0  0  0
 11 18  1  0  0  0  0
 11  8  1  0  0  0  0
 13 17  1  0  0  0  0
 13 19  1  0  0  0  0
 14 20  1  0  0  0  0
 14 10  1  0  0  0  0
 16 14  2  0  0  0  0
 17 18  1  0  0  0  0
 19 12  1  6  0  0  0
 19 15  1  0  0  0  0
 20 13  2  0  0  0  0
 21 23  2  0  0  0  0
 22 23  1  0  0  0  0
 23 24  1  0  0  0  0
 24 16  1  0  0  0  0
 25 29  2  0  0  0  0
 25 27  1  0  0  0  0
 26 28  1  0  0  0  0
 26  1  1  0  0  0  0
 27 26  2  0  0  0  0
 29 30  1  0  0  0  0
 30 31  1  0  0  0  0
 30 28  2  0  0  0  0
 32 34  1  0  0  0  0
 32 31  1  0  0  0  0
 33 32  2  0  0  0  0
 35 36  1  0  0  0  0
 37 36  1  0  0  0  0
M  END
>  <MODEL>
6

>  <REMARK>
 VINA RESULT:      -5.0      2.911      6.746
  Name = 
  7 active torsions:
  status: ('A' for Active; 'I' for Inactive)
    1  A    between atoms: C_1  and  C_13
    2  A    between atoms: N_4  and  C_36
    3  A    between atoms: C_8  and  O_21
    4  A    between atoms: O_9  and  C_22
    5  A    between atoms: O_9  and  C_33
    6  A    between atoms: N_12  and  O_21
    7  A    between atoms: C_20  and  N_25
                            x       y       z     vdW  Elec       q    Type
                         _______ _______ _______ _____ _____    ______ ____

>  <TORSDO>
F 7

$$$$
