=
 OpenBabel11042423053D

 48 48  0  0  1  0  0  0  0  0999 V2000
  161.4510  209.0200  151.2910 C   0  0  2  0  0  3  0  0  0  0  0  0
  159.8480  210.5340  152.5000 C   0  0  0  0  0  1  0  0  0  0  0  0
  161.2800  210.0170  152.4460 C   0  0  1  0  0  3  0  0  0  0  0  0
  161.6360  209.4480  153.6760 O   0  0  0  0  0  0  0  0  0  0  0  0
  160.4580  209.4660  154.4250 C   0  0  0  0  0  2  0  0  0  0  0  0
  160.7770  209.6080  155.9050 C   0  0  1  0  0  3  0  0  0  0  0  0
  161.5510  208.3890  156.3680 C   0  0  0  0  0  1  0  0  0  0  0  0
  160.9730  211.9450  156.3370 O   0  0  0  0  0  1  0  0  0  0  0  0
  162.9530  210.7920  156.2760 O   0  0  0  0  0  0  0  0  0  0  0  0
  161.5690  210.8480  156.1670 C   0  0  0  0  0  0  0  0  0  0  0  0
  162.2170  207.7720  151.7200 C   0  0  0  0  0  2  0  0  0  0  0  0
  161.3010  206.5600  151.7020 C   0  0  0  0  0  2  0  0  0  0  0  0
  161.9460  205.4150  150.9350 C   0  0  0  0  0  2  0  0  0  0  0  0
  160.9190  204.3490  150.5580 C   0  0  2  0  0  3  0  0  0  0  0  0
  161.6120  201.9900  151.3360 C   0  0  0  0  0  1  0  0  0  0  0  0
  160.2240  203.3910  152.6140 O   0  0  0  0  0  0  0  0  0  0  0  0
  160.8680  203.2570  151.5840 C   0  0  0  0  0  0  0  0  0  0  0  0
  160.9680  202.5820  148.9350 O   0  0  0  0  0  0  0  0  0  0  0  0
  161.1500  203.8070  149.1820 C   0  0  0  0  0  0  0  0  0  0  0  0
  161.6290  204.6890  148.1650 N   0  0  0  0  0  2  0  0  0  0  0  0
  161.9360  204.2500  146.8120 C   0  0  2  0  0  3  0  0  0  0  0  0
  163.4050  204.4970  146.4960 C   0  0  0  0  0  1  0  0  0  0  0  0
  161.0670  204.9730  145.8330 C   0  0  0  0  0  0  0  0  0  0  0  0
  160.6610  206.0990  146.0780 O   0  0  0  0  0  0  0  0  0  0  0  0
  160.6520  204.2740  144.5720 C   0  0  0  0  0  2  0  0  0  0  0  0
  158.5150  203.4350  143.8570 O   0  0  0  0  0  1  0  0  0  0  0  0
  159.5420  203.2470  144.7840 C   0  0  1  0  0  3  0  0  0  0  0  0
  160.0550  201.8440  144.7200 C   0  0  0  0  0  3  0  0  0  0  0  0
  160.4880  201.3080  145.7270 O   0  0  0  0  0  0  0  0  0  0  0  0
  162.0520  209.6420  150.0160 C   0  0  1  0  0  3  0  0  0  0  0  0
  161.6600  208.8800  148.7550 C   0  0  0  0  0  2  0  0  0  0  0  0
  162.6860  208.0260  148.3500 O   0  0  0  0  0  1  0  0  0  0  0  0
  161.7540  211.0060  149.8880 O   0  0  0  0  0  0  0  0  0  0  0  0
  162.2610  211.3800  148.6430 C   0  0  0  0  0  2  0  0  0  0  0  0
  161.8290  212.8000  148.3370 C   0  0  0  0  0  2  0  0  0  0  0  0
  161.7080  210.9520  139.9700 C   0  0  0  0  0  0  0  0  0  0  0  0
  159.8620  212.8740  144.3800 N   0  0  0  0  0  0  0  0  0  0  0  0
  162.5550  210.4470  139.1930 O   0  0  0  0  0  0  0  0  0  0  0  0
  161.7670  212.8560  145.8120 N   0  0  0  0  0  2  0  0  0  0  0  0
  161.1580  212.8920  144.5140 C   0  0  0  0  0  0  0  0  0  0  0  0
  160.2600  210.7890  139.6540 C   0  0  0  0  0  1  0  0  0  0  0  0
  161.0650  212.8310  147.0620 C   0  0  0  0  0  0  0  0  0  0  0  0
  162.0380  212.9610  143.2970 C   0  0  0  0  0  2  0  0  0  0  0  0
  159.2350  212.9670  143.0640 C   0  0  0  0  0  2  0  0  0  0  0  0
  159.8050  212.8510  147.0990 O   0  0  0  0  0  0  0  0  0  0  0  0
  161.3570  212.2930  142.1340 C   0  0  0  0  0  0  0  0  0  0  0  0
  160.0560  212.2880  142.0610 N   0  0  0  0  0  0  0  0  0  0  0  0
  162.1620  211.6580  141.1330 N   0  0  0  0  0  2  0  0  0  0  0  0
  1 11  1  1  0  0  0
  1  3  1  0  0  0  0
  3  2  1  1  0  0  0
  3  4  1  0  0  0  0
  4  5  1  0  0  0  0
  5  6  1  0  0  0  0
  6 10  1  0  0  0  0
  6  7  1  6  0  0  0
 10  9  2  0  0  0  0
 10  8  1  0  0  0  0
 12 11  1  0  0  0  0
 13 12  1  0  0  0  0
 14 13  1  1  0  0  0
 14 17  1  0  0  0  0
 15 17  1  0  0  0  0
 17 16  2  0  0  0  0
 18 19  2  0  0  0  0
 19 14  1  0  0  0  0
 20 19  1  0  0  0  0
 21 22  1  6  0  0  0
 21 20  1  0  0  0  0
 23 24  2  0  0  0  0
 23 21  1  0  0  0  0
 25 27  1  0  0  0  0
 25 23  1  0  0  0  0
 27 26  1  6  0  0  0
 28 27  1  0  0  0  0
 28 29  2  0  0  0  0
 30 31  1  6  0  0  0
 30  1  1  0  0  0  0
 32 31  1  0  0  0  0
 33 30  1  0  0  0  0
 34 33  1  0  0  0  0
 35 34  1  0  0  0  0
 36 48  1  0  0  0  0
 37 40  2  0  0  0  0
 38 36  2  0  0  0  0
 39 42  1  0  0  0  0
 40 39  1  0  0  0  0
 41 36  1  0  0  0  0
 42 45  2  0  0  0  0
 42 35  1  0  0  0  0
 43 40  1  0  0  0  0
 44 37  1  0  0  0  0
 46 43  1  0  0  0  0
 47 46  2  0  0  0  0
 47 44  1  0  0  0  0
 48 46  1  0  0  0  0
M  END
>  <MODEL>
1

>  <REMARK>
 VINA RESULT:      -6.5      0.000      0.000
  Name = 
  22 active torsions:
  status: ('A' for Active; 'I' for Inactive)
    1  A    between atoms: C_2  and  C_31
    2  A    between atoms: C_2  and  C_32
    3  A    between atoms: C_4  and  C_41
    4  A    between atoms: C_4  and  C_44
    5  A    between atoms: O_6  and  C_19
    6  A    between atoms: O_6  and  C_44
    7  A    between atoms: C_8  and  C_15
    8  A    between atoms: C_8  and  C_19
    9  A    between atoms: C_8  and  C_32
   10  A    between atoms: C_9  and  C_17
   11  A    between atoms: C_9  and  C_30
   12  A    between atoms: C_11  and  C_34
   13  A    between atoms: C_15  and  C_16
   14  A    between atoms: C_15  and  O_18
   15  A    between atoms: C_17  and  N_47
   16  A    between atoms: O_18  and  C_37
   17  A    between atoms: C_21  and  C_38
   18  A    between atoms: C_30  and  C_34
   19  A    between atoms: C_31  and  C_38
   20  A    between atoms: C_35  and  C_40
   21  A    between atoms: C_37  and  C_40
   22  A    between atoms: C_38  and  C_46
                            x       y       z     vdW  Elec       q    Type
                         _______ _______ _______ _____ _____    ______ ____

>  <TORSDO>
F 22

$$$$
=
 OpenBabel11042423053D

 48 48  0  0  1  0  0  0  0  0999 V2000
  161.5740  209.8140  149.6950 C   0  0  2  0  0  3  0  0  0  0  0  0
  162.4540  208.1220  151.3340 C   0  0  0  0  0  1  0  0  0  0  0  0
  161.5760  209.3550  151.1600 C   0  0  1  0  0  3  0  0  0  0  0  0
  162.0000  210.3770  152.0200 O   0  0  0  0  0  0  0  0  0  0  0  0
  160.8390  210.7890  152.6760 C   0  0  0  0  0  2  0  0  0  0  0  0
  160.6850  210.0450  153.9930 C   0  0  1  0  0  3  0  0  0  0  0  0
  161.9360  210.2430  154.8270 C   0  0  0  0  0  1  0  0  0  0  0  0
  158.8040  211.4810  154.2860 O   0  0  0  0  0  0  0  0  0  0  0  0
  159.0880  209.8960  155.9170 O   0  0  0  0  0  1  0  0  0  0  0  0
  159.4860  210.5260  154.7440 C   0  0  0  0  0  0  0  0  0  0  0  0
  162.3120  208.8360  148.7860 C   0  0  0  0  0  2  0  0  0  0  0  0
  161.3740  208.3020  147.7160 C   0  0  0  0  0  2  0  0  0  0  0  0
  161.1390  206.8110  147.9080 C   0  0  0  0  0  2  0  0  0  0  0  0
  161.7430  206.0000  146.7630 C   0  0  2  0  0  3  0  0  0  0  0  0
  161.4120  205.6310  144.2330 C   0  0  0  0  0  1  0  0  0  0  0  0
  159.6740  206.3270  145.6520 O   0  0  0  0  0  0  0  0  0  0  0  0
  160.8500  206.0110  145.5590 C   0  0  0  0  0  0  0  0  0  0  0  0
  163.1630  204.0650  146.7890 O   0  0  0  0  0  0  0  0  0  0  0  0
  162.0910  204.6060  147.1840 C   0  0  0  0  0  0  0  0  0  0  0  0
  161.1680  203.8800  147.9960 N   0  0  0  0  0  2  0  0  0  0  0  0
  161.3870  202.5030  148.4130 C   0  0  2  0  0  3  0  0  0  0  0  0
  160.8220  201.5400  147.3780 C   0  0  0  0  0  1  0  0  0  0  0  0
  160.7490  202.2670  149.7440 C   0  0  0  0  0  0  0  0  0  0  0  0
  160.5960  201.1300  150.1650 O   0  0  0  0  0  0  0  0  0  0  0  0
  160.2490  203.4410  150.5320 C   0  0  0  0  0  2  0  0  0  0  0  0
  162.2400  203.1450  151.8490 O   0  0  0  0  0  1  0  0  0  0  0  0
  160.9150  203.5840  151.8990 C   0  0  1  0  0  3  0  0  0  0  0  0
  160.8470  204.9850  152.4140 C   0  0  0  0  0  3  0  0  0  0  0  0
  161.4790  205.3000  153.4100 O   0  0  0  0  0  0  0  0  0  0  0  0
  162.0750  211.2580  149.4950 C   0  0  1  0  0  3  0  0  0  0  0  0
  162.6560  211.4870  148.1050 C   0  0  0  0  0  2  0  0  0  0  0  0
  163.8520  212.2010  148.1770 O   0  0  0  0  0  1  0  0  0  0  0  0
  161.0940  212.2160  149.7900 O   0  0  0  0  0  0  0  0  0  0  0  0
  161.0140  213.0240  148.6560 C   0  0  0  0  0  2  0  0  0  0  0  0
  159.5900  213.5170  148.4960 C   0  0  0  0  0  2  0  0  0  0  0  0
  160.9710  210.7660  140.4990 C   0  0  0  0  0  0  0  0  0  0  0  0
  158.9280  213.7920  144.1350 N   0  0  0  0  0  0  0  0  0  0  0  0
  161.7270  209.8880  140.0150 O   0  0  0  0  0  0  0  0  0  0  0  0
  160.2240  213.2610  146.0640 N   0  0  0  0  0  2  0  0  0  0  0  0
  160.0430  213.3500  144.6440 C   0  0  0  0  0  0  0  0  0  0  0  0
  159.7140  211.1080  139.7740 C   0  0  0  0  0  1  0  0  0  0  0  0
  159.2640  213.6610  147.0520 C   0  0  0  0  0  0  0  0  0  0  0  0
  161.1680  212.9290  143.7390 C   0  0  0  0  0  2  0  0  0  0  0  0
  158.7590  213.9360  142.6910 C   0  0  0  0  0  2  0  0  0  0  0  0
  158.1510  214.1470  146.7170 O   0  0  0  0  0  0  0  0  0  0  0  0
  160.6130  212.4130  142.4390 C   0  0  0  0  0  0  0  0  0  0  0  0
  159.4830  212.8770  141.9860 N   0  0  0  0  0  0  0  0  0  0  0  0
  161.3400  211.4010  141.7310 N   0  0  0  0  0  2  0  0  0  0  0  0
  1 11  1  6  0  0  0
  1  3  1  0  0  0  0
  3  2  1  6  0  0  0
  3  4  1  0  0  0  0
  4  5  1  0  0  0  0
  5  6  1  0  0  0  0
  6 10  1  0  0  0  0
  6  7  1  1  0  0  0
  8 10  2  0  0  0  0
 10  9  1  0  0  0  0
 12 13  1  0  0  0  0
 12 11  1  0  0  0  0
 14 19  1  0  0  0  0
 14 13  1  1  0  0  0
 15 17  1  0  0  0  0
 17 16  2  0  0  0  0
 17 14  1  0  0  0  0
 18 19  2  0  0  0  0
 19 20  1  0  0  0  0
 20 21  1  0  0  0  0
 21 22  1  6  0  0  0
 21 23  1  0  0  0  0
 23 24  2  0  0  0  0
 23 25  1  0  0  0  0
 25 27  1  0  0  0  0
 27 26  1  6  0  0  0
 27 28  1  0  0  0  0
 28 29  2  0  0  0  0
 30 31  1  6  0  0  0
 30  1  1  0  0  0  0
 30 33  1  0  0  0  0
 31 32  1  0  0  0  0
 34 33  1  0  0  0  0
 35 34  1  0  0  0  0
 36 48  1  0  0  0  0
 37 40  2  0  0  0  0
 38 36  2  0  0  0  0
 39 42  1  0  0  0  0
 40 39  1  0  0  0  0
 41 36  1  0  0  0  0
 42 35  1  0  0  0  0
 43 40  1  0  0  0  0
 44 37  1  0  0  0  0
 45 42  2  0  0  0  0
 46 43  1  0  0  0  0
 47 46  2  0  0  0  0
 47 44  1  0  0  0  0
 48 46  1  0  0  0  0
M  END
>  <MODEL>
2

>  <REMARK>
 VINA RESULT:      -5.8      1.829      4.013
  Name = 
  22 active torsions:
  status: ('A' for Active; 'I' for Inactive)
    1  A    between atoms: C_2  and  C_31
    2  A    between atoms: C_2  and  C_32
    3  A    between atoms: C_4  and  C_41
    4  A    between atoms: C_4  and  C_44
    5  A    between atoms: O_6  and  C_19
    6  A    between atoms: O_6  and  C_44
    7  A    between atoms: C_8  and  C_15
    8  A    between atoms: C_8  and  C_19
    9  A    between atoms: C_8  and  C_32
   10  A    between atoms: C_9  and  C_17
   11  A    between atoms: C_9  and  C_30
   12  A    between atoms: C_11  and  C_34
   13  A    between atoms: C_15  and  C_16
   14  A    between atoms: C_15  and  O_18
   15  A    between atoms: C_17  and  N_47
   16  A    between atoms: O_18  and  C_37
   17  A    between atoms: C_21  and  C_38
   18  A    between atoms: C_30  and  C_34
   19  A    between atoms: C_31  and  C_38
   20  A    between atoms: C_35  and  C_40
   21  A    between atoms: C_37  and  C_40
   22  A    between atoms: C_38  and  C_46
                            x       y       z     vdW  Elec       q    Type
                         _______ _______ _______ _____ _____    ______ ____

>  <TORSDO>
F 22

$$$$
=
 OpenBabel11042423053D

 48 48  0  0  1  0  0  0  0  0999 V2000
  161.4580  209.2170  150.4520 C   0  0  2  0  0  3  0  0  0  0  0  0
  161.2590  207.4870  152.2660 C   0  0  0  0  0  1  0  0  0  0  0  0
  160.8320  208.8770  151.8120 C   0  0  1  0  0  3  0  0  0  0  0  0
  161.1660  209.8280  152.7860 O   0  0  0  0  0  0  0  0  0  0  0  0
  161.2390  209.1010  153.9760 C   0  0  0  0  0  2  0  0  0  0  0  0
  160.4900  209.8260  155.0830 C   0  0  1  0  0  3  0  0  0  0  0  0
  159.9350  208.8080  156.0600 C   0  0  0  0  0  1  0  0  0  0  0  0
  162.6360  210.6620  155.7010 O   0  0  0  0  0  0  0  0  0  0  0  0
  160.8530  211.8430  156.5240 O   0  0  0  0  0  1  0  0  0  0  0  0
  161.3870  210.7860  155.7970 C   0  0  0  0  0  0  0  0  0  0  0  0
  162.7200  208.4030  150.1820 C   0  0  0  0  0  2  0  0  0  0  0  0
  162.9030  208.1970  148.6880 C   0  0  0  0  0  2  0  0  0  0  0  0
  161.6450  207.5990  148.0740 C   0  0  0  0  0  2  0  0  0  0  0  0
  161.7840  206.0910  147.8770 C   0  0  2  0  0  3  0  0  0  0  0  0
  160.2510  206.2700  145.8120 C   0  0  0  0  0  1  0  0  0  0  0  0
  162.1630  204.9040  145.8590 O   0  0  0  0  0  0  0  0  0  0  0  0
  161.4570  205.6930  146.4700 C   0  0  0  0  0  0  0  0  0  0  0  0
  159.9480  205.8270  149.4000 O   0  0  0  0  0  0  0  0  0  0  0  0
  160.9780  205.3180  148.8750 C   0  0  0  0  0  0  0  0  0  0  0  0
  161.4230  204.0170  149.2600 N   0  0  0  0  0  2  0  0  0  0  0  0
  160.7420  203.2080  150.2600 C   0  0  2  0  0  3  0  0  0  0  0  0
  161.3760  203.4120  151.6290 C   0  0  0  0  0  1  0  0  0  0  0  0
  160.7990  201.7650  149.8720 C   0  0  0  0  0  0  0  0  0  0  0  0
  160.3690  200.9030  150.6250 O   0  0  0  0  0  0  0  0  0  0  0  0
  161.4410  201.3840  148.5720 C   0  0  0  0  0  2  0  0  0  0  0  0
  159.2760  201.8160  147.6180 O   0  0  0  0  0  1  0  0  0  0  0  0
  160.4360  201.0520  147.4710 C   0  0  1  0  0  3  0  0  0  0  0  0
  161.0150  201.2370  146.1060 C   0  0  0  0  0  3  0  0  0  0  0  0
  160.5000  202.0230  145.3270 O   0  0  0  0  0  0  0  0  0  0  0  0
  161.7010  210.7240  150.2390 C   0  0  1  0  0  3  0  0  0  0  0  0
  161.8790  211.0840  148.7690 C   0  0  0  0  0  2  0  0  0  0  0  0
  163.0830  211.7590  148.5630 O   0  0  0  0  0  1  0  0  0  0  0  0
  160.7100  211.5200  150.8310 O   0  0  0  0  0  0  0  0  0  0  0  0
  160.9370  212.8100  150.3510 C   0  0  0  0  0  2  0  0  0  0  0  0
  159.6200  213.5590  150.2960 C   0  0  0  0  0  2  0  0  0  0  0  0
  161.3490  212.2130  142.0120 C   0  0  0  0  0  0  0  0  0  0  0  0
  158.5050  213.7490  146.0240 N   0  0  0  0  0  0  0  0  0  0  0  0
  162.3720  211.8090  141.4050 O   0  0  0  0  0  0  0  0  0  0  0  0
  160.0730  213.7620  147.8190 N   0  0  0  0  0  2  0  0  0  0  0  0
  159.7410  213.8390  146.4260 C   0  0  0  0  0  0  0  0  0  0  0  0
  160.0120  211.9800  141.3940 C   0  0  0  0  0  1  0  0  0  0  0  0
  159.1330  213.6190  148.8930 C   0  0  0  0  0  0  0  0  0  0  0  0
  160.8450  214.0350  145.4230 C   0  0  0  0  0  2  0  0  0  0  0  0
  158.1550  213.8820  144.6110 C   0  0  0  0  0  2  0  0  0  0  0  0
  157.8940  213.5600  148.6670 O   0  0  0  0  0  0  0  0  0  0  0  0
  160.4660  213.3980  144.1150 C   0  0  0  0  0  0  0  0  0  0  0  0
  159.2110  213.3160  143.7710 N   0  0  0  0  0  0  0  0  0  0  0  0
  161.5030  212.8740  143.2750 N   0  0  0  0  0  2  0  0  0  0  0  0
  1 11  1  1  0  0  0
  1  3  1  0  0  0  0
  3  2  1  1  0  0  0
  3  4  1  0  0  0  0
  4  5  1  0  0  0  0
  5  6  1  0  0  0  0
  6 10  1  0  0  0  0
  6  7  1  1  0  0  0
  8 10  2  0  0  0  0
 10  9  1  0  0  0  0
 12 11  1  0  0  0  0
 13 12  1  0  0  0  0
 14 13  1  6  0  0  0
 14 19  1  0  0  0  0
 15 17  1  0  0  0  0
 16 17  2  0  0  0  0
 17 14  1  0  0  0  0
 19 20  1  0  0  0  0
 19 18  2  0  0  0  0
 20 21  1  0  0  0  0
 21 22  1  1  0  0  0
 23 21  1  0  0  0  0
 23 24  2  0  0  0  0
 25 23  1  0  0  0  0
 27 26  1  6  0  0  0
 27 25  1  0  0  0  0
 28 27  1  0  0  0  0
 29 28  2  0  0  0  0
 30 31  1  6  0  0  0
 30  1  1  0  0  0  0
 30 33  1  0  0  0  0
 32 31  1  0  0  0  0
 34 33  1  0  0  0  0
 35 34  1  0  0  0  0
 36 48  1  0  0  0  0
 37 40  2  0  0  0  0
 38 36  2  0  0  0  0
 39 42  1  0  0  0  0
 40 39  1  0  0  0  0
 41 36  1  0  0  0  0
 42 35  1  0  0  0  0
 43 40  1  0  0  0  0
 44 37  1  0  0  0  0
 45 42  2  0  0  0  0
 46 43  1  0  0  0  0
 47 46  2  0  0  0  0
 47 44  1  0  0  0  0
 48 46  1  0  0  0  0
M  END
>  <MODEL>
3

>  <REMARK>
 VINA RESULT:      -5.0      1.791      3.292
  Name = 
  22 active torsions:
  status: ('A' for Active; 'I' for Inactive)
    1  A    between atoms: C_2  and  C_31
    2  A    between atoms: C_2  and  C_32
    3  A    between atoms: C_4  and  C_41
    4  A    between atoms: C_4  and  C_44
    5  A    between atoms: O_6  and  C_19
    6  A    between atoms: O_6  and  C_44
    7  A    between atoms: C_8  and  C_15
    8  A    between atoms: C_8  and  C_19
    9  A    between atoms: C_8  and  C_32
   10  A    between atoms: C_9  and  C_17
   11  A    between atoms: C_9  and  C_30
   12  A    between atoms: C_11  and  C_34
   13  A    between atoms: C_15  and  C_16
   14  A    between atoms: C_15  and  O_18
   15  A    between atoms: C_17  and  N_47
   16  A    between atoms: O_18  and  C_37
   17  A    between atoms: C_21  and  C_38
   18  A    between atoms: C_30  and  C_34
   19  A    between atoms: C_31  and  C_38
   20  A    between atoms: C_35  and  C_40
   21  A    between atoms: C_37  and  C_40
   22  A    between atoms: C_38  and  C_46
                            x       y       z     vdW  Elec       q    Type
                         _______ _______ _______ _____ _____    ______ ____

>  <TORSDO>
F 22

$$$$
=
 OpenBabel11042423053D

 48 48  0  0  1  0  0  0  0  0999 V2000
  161.5640  204.6610  146.3430 C   0  0  2  0  0  3  0  0  0  0  0  0
  160.8650  202.4090  145.4680 C   0  0  0  0  0  1  0  0  0  0  0  0
  161.1540  203.2290  146.7180 C   0  0  1  0  0  3  0  0  0  0  0  0
  162.1360  202.5990  147.4950 O   0  0  0  0  0  0  0  0  0  0  0  0
  161.4350  201.6570  148.2500 C   0  0  0  0  0  2  0  0  0  0  0  0
  160.3710  202.3440  149.0920 C   0  0  1  0  0  3  0  0  0  0  0  0
  159.2860  201.3420  149.4380 C   0  0  0  0  0  1  0  0  0  0  0  0
  161.4060  204.0910  150.3410 O   0  0  0  0  0  0  0  0  0  0  0  0
  160.9710  202.1740  151.5180 O   0  0  0  0  0  1  0  0  0  0  0  0
  160.9600  202.9140  150.3420 C   0  0  0  0  0  0  0  0  0  0  0  0
  161.1930  205.6670  147.4280 C   0  0  0  0  0  2  0  0  0  0  0  0
  161.9760  206.9550  147.2420 C   0  0  0  0  0  2  0  0  0  0  0  0
  162.7940  207.2670  148.4870 C   0  0  0  0  0  2  0  0  0  0  0  0
  161.9250  207.8810  149.5840 C   0  0  2  0  0  3  0  0  0  0  0  0
  162.0950  210.1150  150.8610 C   0  0  0  0  0  1  0  0  0  0  0  0
  162.0020  209.9970  148.5160 O   0  0  0  0  0  0  0  0  0  0  0  0
  162.0080  209.3770  149.5690 C   0  0  0  0  0  0  0  0  0  0  0  0
  163.2970  206.6410  151.1140 O   0  0  0  0  0  0  0  0  0  0  0  0
  162.2470  207.3200  150.9350 C   0  0  0  0  0  0  0  0  0  0  0  0
  161.3210  207.5230  152.0030 N   0  0  0  0  0  2  0  0  0  0  0  0
  161.5140  206.9740  153.3370 C   0  0  2  0  0  3  0  0  0  0  0  0
  161.1200  205.5040  153.3660 C   0  0  0  0  0  1  0  0  0  0  0  0
  160.7040  207.7470  154.3280 C   0  0  0  0  0  0  0  0  0  0  0  0
  160.2030  207.1870  155.2910 O   0  0  0  0  0  0  0  0  0  0  0  0
  160.4680  209.2100  154.0930 C   0  0  0  0  0  2  0  0  0  0  0  0
  162.3170  210.6290  154.6850 O   0  0  0  0  0  1  0  0  0  0  0  0
  161.1090  210.1060  155.1500 C   0  0  1  0  0  3  0  0  0  0  0  0
  160.1950  211.2070  155.5840 C   0  0  0  0  0  3  0  0  0  0  0  0
  160.3080  212.3200  155.0970 O   0  0  0  0  0  0  0  0  0  0  0  0
  161.0570  205.1090  144.9590 C   0  0  1  0  0  3  0  0  0  0  0  0
  159.9990  206.2030  145.0510 C   0  0  0  0  0  2  0  0  0  0  0  0
  158.7180  205.6530  145.1010 O   0  0  0  0  0  1  0  0  0  0  0  0
  162.0970  205.4930  144.1010 O   0  0  0  0  0  0  0  0  0  0  0  0
  161.4800  206.1750  143.0520 C   0  0  0  0  0  2  0  0  0  0  0  0
  162.1600  205.8050  141.7500 C   0  0  0  0  0  2  0  0  0  0  0  0
  158.2490  212.5110  138.1220 C   0  0  0  0  0  0  0  0  0  0  0  0
  162.2010  209.3610  139.1260 N   0  0  0  0  0  0  0  0  0  0  0  0
  157.0570  212.9090  138.1200 O   0  0  0  0  0  0  0  0  0  0  0  0
  161.1470  207.4940  140.1680 N   0  0  0  0  0  2  0  0  0  0  0  0
  161.1320  208.6370  139.3000 C   0  0  0  0  0  0  0  0  0  0  0  0
  159.3380  213.5130  137.9390 C   0  0  0  0  0  1  0  0  0  0  0  0
  162.2890  207.0100  140.8880 C   0  0  0  0  0  0  0  0  0  0  0  0
  159.8590  208.9880  138.5810 C   0  0  0  0  0  2  0  0  0  0  0  0
  162.2060  210.4930  138.2020 C   0  0  0  0  0  2  0  0  0  0  0  0
  163.4080  207.5810  140.7900 O   0  0  0  0  0  0  0  0  0  0  0  0
  159.7990  210.4730  138.3460 C   0  0  0  0  0  0  0  0  0  0  0  0
  160.9000  211.1530  138.1980 N   0  0  0  0  0  0  0  0  0  0  0  0
  158.5170  211.1140  138.3080 N   0  0  0  0  0  2  0  0  0  0  0  0
  1  3  1  0  0  0  0
  1 11  1  1  0  0  0
  3  2  1  6  0  0  0
  3  4  1  0  0  0  0
  4  5  1  0  0  0  0
  5  6  1  0  0  0  0
  6  7  1  1  0  0  0
  6 10  1  0  0  0  0
  8 10  2  0  0  0  0
 10  9  1  0  0  0  0
 12 11  1  0  0  0  0
 12 13  1  0  0  0  0
 14 13  1  6  0  0  0
 14 19  1  0  0  0  0
 16 17  2  0  0  0  0
 17 14  1  0  0  0  0
 17 15  1  0  0  0  0
 19 18  2  0  0  0  0
 19 20  1  0  0  0  0
 20 21  1  0  0  0  0
 21 22  1  6  0  0  0
 21 23  1  0  0  0  0
 23 24  2  0  0  0  0
 25 23  1  0  0  0  0
 25 27  1  0  0  0  0
 27 26  1  6  0  0  0
 27 28  1  0  0  0  0
 29 28  2  0  0  0  0
 30 31  1  1  0  0  0
 30  1  1  0  0  0  0
 31 32  1  0  0  0  0
 33 30  1  0  0  0  0
 34 33  1  0  0  0  0
 35 34  1  0  0  0  0
 36 48  1  0  0  0  0
 37 40  2  0  0  0  0
 38 36  2  0  0  0  0
 39 42  1  0  0  0  0
 40 39  1  0  0  0  0
 41 36  1  0  0  0  0
 42 35  1  0  0  0  0
 43 40  1  0  0  0  0
 44 37  1  0  0  0  0
 45 42  2  0  0  0  0
 46 43  1  0  0  0  0
 47 44  1  0  0  0  0
 47 46  2  0  0  0  0
 48 46  1  0  0  0  0
M  END
>  <MODEL>
4

>  <REMARK>
 VINA RESULT:      -4.3      2.949      8.166
  Name = 
  22 active torsions:
  status: ('A' for Active; 'I' for Inactive)
    1  A    between atoms: C_2  and  C_31
    2  A    between atoms: C_2  and  C_32
    3  A    between atoms: C_4  and  C_41
    4  A    between atoms: C_4  and  C_44
    5  A    between atoms: O_6  and  C_19
    6  A    between atoms: O_6  and  C_44
    7  A    between atoms: C_8  and  C_15
    8  A    between atoms: C_8  and  C_19
    9  A    between atoms: C_8  and  C_32
   10  A    between atoms: C_9  and  C_17
   11  A    between atoms: C_9  and  C_30
   12  A    between atoms: C_11  and  C_34
   13  A    between atoms: C_15  and  C_16
   14  A    between atoms: C_15  and  O_18
   15  A    between atoms: C_17  and  N_47
   16  A    between atoms: O_18  and  C_37
   17  A    between atoms: C_21  and  C_38
   18  A    between atoms: C_30  and  C_34
   19  A    between atoms: C_31  and  C_38
   20  A    between atoms: C_35  and  C_40
   21  A    between atoms: C_37  and  C_40
   22  A    between atoms: C_38  and  C_46
                            x       y       z     vdW  Elec       q    Type
                         _______ _______ _______ _____ _____    ______ ____

>  <TORSDO>
F 22

$$$$
=
 OpenBabel11042423053D

 48 48  0  0  1  0  0  0  0  0999 V2000
  162.0380  205.8360  146.5610 C   0  0  2  0  0  3  0  0  0  0  0  0
  161.0770  204.6900  148.5830 C   0  0  0  0  0  1  0  0  0  0  0  0
  162.1040  204.5940  147.4620 C   0  0  1  0  0  3  0  0  0  0  0  0
  161.9120  203.4150  146.7290 O   0  0  0  0  0  0  0  0  0  0  0  0
  161.1400  202.6050  147.5640 C   0  0  0  0  0  2  0  0  0  0  0  0
  160.4880  201.4900  146.7610 C   0  0  1  0  0  3  0  0  0  0  0  0
  160.5090  201.8570  145.2890 C   0  0  0  0  0  1  0  0  0  0  0  0
  161.7040  199.9350  148.0990 O   0  0  0  0  0  1  0  0  0  0  0  0
  161.2510  199.2420  145.9620 O   0  0  0  0  0  0  0  0  0  0  0  0
  161.1950  200.1910  146.9750 C   0  0  0  0  0  0  0  0  0  0  0  0
  161.3840  207.0210  147.2650 C   0  0  0  0  0  2  0  0  0  0  0  0
  162.3270  207.6000  148.3060 C   0  0  0  0  0  2  0  0  0  0  0  0
  161.5410  208.2630  149.4280 C   0  0  0  0  0  2  0  0  0  0  0  0
  162.3290  208.2620  150.7370 C   0  0  2  0  0  3  0  0  0  0  0  0
  160.9900  207.1350  152.6300 C   0  0  0  0  0  1  0  0  0  0  0  0
  162.5990  205.9890  151.3580 O   0  0  0  0  0  0  0  0  0  0  0  0
  162.0190  207.0460  151.5570 C   0  0  0  0  0  0  0  0  0  0  0  0
  163.1170  210.1780  151.9480 O   0  0  0  0  0  0  0  0  0  0  0  0
  162.1260  209.5240  151.5160 C   0  0  0  0  0  0  0  0  0  0  0  0
  160.7940  209.9480  151.8080 N   0  0  0  0  0  2  0  0  0  0  0  0
  160.4910  211.1280  152.6030 C   0  0  2  0  0  3  0  0  0  0  0  0
  159.6820  210.7440  153.8340 C   0  0  0  0  0  1  0  0  0  0  0  0
  159.7380  212.1200  151.7750 C   0  0  0  0  0  0  0  0  0  0  0  0
  160.3070  212.7590  150.9030 O   0  0  0  0  0  0  0  0  0  0  0  0
  158.2870  212.3620  152.0680 C   0  0  0  0  0  2  0  0  0  0  0  0
  157.0700  213.8710  150.6450 O   0  0  0  0  0  1  0  0  0  0  0  0
  157.8450  213.8000  151.8040 C   0  0  1  0  0  3  0  0  0  0  0  0
  157.1050  214.3820  152.9650 C   0  0  0  0  0  3  0  0  0  0  0  0
  157.6400  214.4390  154.0610 O   0  0  0  0  0  0  0  0  0  0  0  0
  161.3980  205.5720  145.1850 C   0  0  1  0  0  3  0  0  0  0  0  0
  160.1050  206.3540  144.9830 C   0  0  0  0  0  2  0  0  0  0  0  0
  158.9930  205.5540  145.2490 O   0  0  0  0  0  1  0  0  0  0  0  0
  162.2870  205.7960  144.1240 O   0  0  0  0  0  0  0  0  0  0  0  0
  161.4940  206.2380  143.0640 C   0  0  0  0  0  2  0  0  0  0  0  0
  162.1510  205.8490  141.7550 C   0  0  0  0  0  2  0  0  0  0  0  0
  158.1040  212.1800  137.6360 C   0  0  0  0  0  0  0  0  0  0  0  0
  162.1660  209.3430  139.0490 N   0  0  0  0  0  0  0  0  0  0  0  0
  156.8920  212.4910  137.5250 O   0  0  0  0  0  0  0  0  0  0  0  0
  161.1600  207.4280  140.0500 N   0  0  0  0  0  2  0  0  0  0  0  0
  161.1390  208.5470  139.1540 C   0  0  0  0  0  0  0  0  0  0  0  0
  159.1320  213.2530  137.5170 C   0  0  0  0  0  1  0  0  0  0  0  0
  162.2680  207.0410  140.8750 C   0  0  0  0  0  0  0  0  0  0  0  0
  159.9110  208.7920  138.3220 C   0  0  0  0  0  2  0  0  0  0  0  0
  162.1710  210.4520  138.0980 C   0  0  0  0  0  2  0  0  0  0  0  0
  163.3500  207.6890  140.8540 O   0  0  0  0  0  0  0  0  0  0  0  0
  159.7670  210.2630  138.0430 C   0  0  0  0  0  0  0  0  0  0  0  0
  160.8270  211.0160  137.9680 N   0  0  0  0  0  0  0  0  0  0  0  0
  158.4520  210.8100  137.8810 N   0  0  0  0  0  2  0  0  0  0  0  0
  1 11  1  1  0  0  0
  1  3  1  0  0  0  0
  3  2  1  1  0  0  0
  4  3  1  0  0  0  0
  4  5  1  0  0  0  0
  6  7  1  6  0  0  0
  6 10  1  0  0  0  0
  6  5  1  0  0  0  0
  9 10  2  0  0  0  0
 10  8  1  0  0  0  0
 11 12  1  0  0  0  0
 12 13  1  0  0  0  0
 14 13  1  6  0  0  0
 14 19  1  0  0  0  0
 14 17  1  0  0  0  0
 16 17  2  0  0  0  0
 17 15  1  0  0  0  0
 19 20  1  0  0  0  0
 19 18  2  0  0  0  0
 20 21  1  0  0  0  0
 21 22  1  1  0  0  0
 23 25  1  0  0  0  0
 23 21  1  0  0  0  0
 24 23  2  0  0  0  0
 27 26  1  6  0  0  0
 27 25  1  0  0  0  0
 27 28  1  0  0  0  0
 28 29  2  0  0  0  0
 30 31  1  6  0  0  0
 30  1  1  0  0  0  0
 31 32  1  0  0  0  0
 33 30  1  0  0  0  0
 34 33  1  0  0  0  0
 35 34  1  0  0  0  0
 36 48  1  0  0  0  0
 37 40  2  0  0  0  0
 38 36  2  0  0  0  0
 39 42  1  0  0  0  0
 40 39  1  0  0  0  0
 41 36  1  0  0  0  0
 42 35  1  0  0  0  0
 43 40  1  0  0  0  0
 44 37  1  0  0  0  0
 45 42  2  0  0  0  0
 46 43  1  0  0  0  0
 47 46  2  0  0  0  0
 47 44  1  0  0  0  0
 48 46  1  0  0  0  0
M  END
>  <MODEL>
5

>  <REMARK>
 VINA RESULT:      -4.2      3.420      8.749
  Name = 
  22 active torsions:
  status: ('A' for Active; 'I' for Inactive)
    1  A    between atoms: C_2  and  C_31
    2  A    between atoms: C_2  and  C_32
    3  A    between atoms: C_4  and  C_41
    4  A    between atoms: C_4  and  C_44
    5  A    between atoms: O_6  and  C_19
    6  A    between atoms: O_6  and  C_44
    7  A    between atoms: C_8  and  C_15
    8  A    between atoms: C_8  and  C_19
    9  A    between atoms: C_8  and  C_32
   10  A    between atoms: C_9  and  C_17
   11  A    between atoms: C_9  and  C_30
   12  A    between atoms: C_11  and  C_34
   13  A    between atoms: C_15  and  C_16
   14  A    between atoms: C_15  and  O_18
   15  A    between atoms: C_17  and  N_47
   16  A    between atoms: O_18  and  C_37
   17  A    between atoms: C_21  and  C_38
   18  A    between atoms: C_30  and  C_34
   19  A    between atoms: C_31  and  C_38
   20  A    between atoms: C_35  and  C_40
   21  A    between atoms: C_37  and  C_40
   22  A    between atoms: C_38  and  C_46
                            x       y       z     vdW  Elec       q    Type
                         _______ _______ _______ _____ _____    ______ ____

>  <TORSDO>
F 22

$$$$
=
 OpenBabel11042423053D

 48 48  0  0  1  0  0  0  0  0999 V2000
  161.7370  207.2650  152.6560 C   0  0  2  0  0  3  0  0  0  0  0  0
  163.4110  205.4020  152.4290 C   0  0  0  0  0  1  0  0  0  0  0  0
  161.9950  205.8560  152.1010 C   0  0  1  0  0  3  0  0  0  0  0  0
  161.0630  204.9310  152.5910 O   0  0  0  0  0  0  0  0  0  0  0  0
  161.3600  203.7440  151.9180 C   0  0  0  0  0  2  0  0  0  0  0  0
  160.4670  203.5940  150.6960 C   0  0  1  0  0  3  0  0  0  0  0  0
  160.8330  204.6560  149.6770 C   0  0  0  0  0  1  0  0  0  0  0  0
  161.4670  201.4350  150.5490 O   0  0  0  0  0  1  0  0  0  0  0  0
  159.7650  201.8270  149.0660 O   0  0  0  0  0  0  0  0  0  0  0  0
  160.6080  202.2350  150.0920 C   0  0  0  0  0  0  0  0  0  0  0  0
  161.3230  207.2360  154.1240 C   0  0  0  0  0  2  0  0  0  0  0  0
  159.8480  207.5740  154.2620 C   0  0  0  0  0  2  0  0  0  0  0  0
  159.6180  208.4710  155.4690 C   0  0  0  0  0  2  0  0  0  0  0  0
  160.7930  209.4220  155.6900 C   0  0  2  0  0  3  0  0  0  0  0  0
  161.5320  207.5140  157.2590 C   0  0  0  0  0  1  0  0  0  0  0  0
  162.6610  209.5710  157.1430 O   0  0  0  0  0  0  0  0  0  0  0  0
  161.7350  208.8910  156.7280 C   0  0  0  0  0  0  0  0  0  0  0  0
  161.1770  211.7480  156.1360 O   0  0  0  0  0  0  0  0  0  0  0  0
  160.3380  210.8120  156.0110 C   0  0  0  0  0  0  0  0  0  0  0  0
  158.9460  211.0500  156.2240 N   0  0  0  0  0  2  0  0  0  0  0  0
  158.4100  212.3520  156.5940 C   0  0  2  0  0  3  0  0  0  0  0  0
  156.9250  212.2420  156.9110 C   0  0  0  0  0  1  0  0  0  0  0  0
  158.6330  213.3280  155.4830 C   0  0  0  0  0  0  0  0  0  0  0  0
  159.0640  214.4470  155.7190 O   0  0  0  0  0  0  0  0  0  0  0  0
  158.2660  212.9360  154.0830 C   0  0  0  0  0  2  0  0  0  0  0  0
  160.1900  212.4330  152.7300 O   0  0  0  0  0  1  0  0  0  0  0  0
  159.2610  213.4290  153.0340 C   0  0  1  0  0  3  0  0  0  0  0  0
  158.5780  213.9050  151.7920 C   0  0  0  0  0  3  0  0  0  0  0  0
  158.6500  213.2460  150.7670 O   0  0  0  0  0  0  0  0  0  0  0  0
  160.7560  208.0970  151.8070 C   0  0  1  0  0  3  0  0  0  0  0  0
  160.7300  209.5640  152.2180 C   0  0  0  0  0  2  0  0  0  0  0  0
  161.9890  209.9840  152.6480 O   0  0  0  0  0  1  0  0  0  0  0  0
  160.9880  207.9680  150.4310 O   0  0  0  0  0  0  0  0  0  0  0  0
  162.3510  208.2110  150.2610 C   0  0  0  0  0  2  0  0  0  0  0  0
  162.5690  208.9180  148.9390 C   0  0  0  0  0  2  0  0  0  0  0  0
  160.6140  201.2650  145.6150 C   0  0  0  0  0  0  0  0  0  0  0  0
  160.7760  206.4130  145.7690 N   0  0  0  0  0  0  0  0  0  0  0  0
  160.8810  200.0880  145.9610 O   0  0  0  0  0  0  0  0  0  0  0  0
  162.3490  206.8470  147.5070 N   0  0  0  0  0  2  0  0  0  0  0  0
  161.7960  206.0160  146.4770 C   0  0  0  0  0  0  0  0  0  0  0  0
  159.3710  201.5150  144.8300 C   0  0  0  0  0  1  0  0  0  0  0  0
  161.8960  208.1650  147.8470 C   0  0  0  0  0  0  0  0  0  0  0  0
  162.4160  204.6720  146.2140 C   0  0  0  0  0  2  0  0  0  0  0  0
  160.2440  205.5940  144.6820 C   0  0  0  0  0  2  0  0  0  0  0  0
  160.9420  208.7050  147.2230 O   0  0  0  0  0  0  0  0  0  0  0  0
  161.3730  203.7200  145.6980 C   0  0  0  0  0  0  0  0  0  0  0  0
  160.3620  204.1730  145.0120 N   0  0  0  0  0  0  0  0  0  0  0  0
  161.5070  202.3230  145.9910 N   0  0  0  0  0  2  0  0  0  0  0  0
  1 11  1  1  0  0  0
  3  2  1  1  0  0  0
  3  4  1  0  0  0  0
  3  1  1  0  0  0  0
  5  4  1  0  0  0  0
  6  7  1  6  0  0  0
  6  5  1  0  0  0  0
  9 10  2  0  0  0  0
 10  8  1  0  0  0  0
 10  6  1  0  0  0  0
 11 12  1  0  0  0  0
 12 13  1  0  0  0  0
 14 13  1  1  0  0  0
 14 19  1  0  0  0  0
 14 17  1  0  0  0  0
 17 16  2  0  0  0  0
 17 15  1  0  0  0  0
 19 18  2  0  0  0  0
 19 20  1  0  0  0  0
 20 21  1  0  0  0  0
 21 22  1  6  0  0  0
 23 24  2  0  0  0  0
 23 21  1  0  0  0  0
 25 23  1  0  0  0  0
 27 26  1  6  0  0  0
 27 25  1  0  0  0  0
 28 27  1  0  0  0  0
 29 28  2  0  0  0  0
 30 31  1  1  0  0  0
 30  1  1  0  0  0  0
 31 32  1  0  0  0  0
 33 30  1  0  0  0  0
 34 33  1  0  0  0  0
 35 34  1  0  0  0  0
 36 38  2  0  0  0  0
 36 48  1  0  0  0  0
 37 40  2  0  0  0  0
 39 42  1  0  0  0  0
 40 39  1  0  0  0  0
 41 36  1  0  0  0  0
 42 35  1  0  0  0  0
 43 40  1  0  0  0  0
 44 47  1  0  0  0  0
 44 37  1  0  0  0  0
 45 42  2  0  0  0  0
 46 48  1  0  0  0  0
 46 43  1  0  0  0  0
 47 46  2  0  0  0  0
M  END
>  <MODEL>
6

>  <REMARK>
 VINA RESULT:      -3.7      3.780      9.058
  Name = 
  22 active torsions:
  status: ('A' for Active; 'I' for Inactive)
    1  A    between atoms: C_2  and  C_31
    2  A    between atoms: C_2  and  C_32
    3  A    between atoms: C_4  and  C_41
    4  A    between atoms: C_4  and  C_44
    5  A    between atoms: O_6  and  C_19
    6  A    between atoms: O_6  and  C_44
    7  A    between atoms: C_8  and  C_15
    8  A    between atoms: C_8  and  C_19
    9  A    between atoms: C_8  and  C_32
   10  A    between atoms: C_9  and  C_17
   11  A    between atoms: C_9  and  C_30
   12  A    between atoms: C_11  and  C_34
   13  A    between atoms: C_15  and  C_16
   14  A    between atoms: C_15  and  O_18
   15  A    between atoms: C_17  and  N_47
   16  A    between atoms: O_18  and  C_37
   17  A    between atoms: C_21  and  C_38
   18  A    between atoms: C_30  and  C_34
   19  A    between atoms: C_31  and  C_38
   20  A    between atoms: C_35  and  C_40
   21  A    between atoms: C_37  and  C_40
   22  A    between atoms: C_38  and  C_46
                            x       y       z     vdW  Elec       q    Type
                         _______ _______ _______ _____ _____    ______ ____

>  <TORSDO>
F 22

$$$$
