=
 OpenBabel11042420193D

 51 57  0  0  1  0  0  0  0  0999 V2000
  161.6050  207.4110  153.7630 C   0  0  2  0  0  3  0  0  0  0  0  0
  161.0040  208.2180  152.7050 N   0  0  0  0  0  2  0  0  0  0  0  0
  162.0180  209.0130  152.1470 N   0  0  0  0  0  0  0  0  0  0  0  0
  162.4160  208.3630  150.9060 C   0  0  0  0  0  2  0  0  0  0  0  0
  161.1890  208.0800  150.0620 C   0  0  0  0  0  1  0  0  0  0  0  0
  161.3980  210.2840  151.7920 C   0  0  0  0  0  2  0  0  0  0  0  0
  162.0230  210.8500  150.5240 C   0  0  0  0  0  2  0  0  0  0  0  0
  161.1580  211.8770  149.9570 N   0  0  0  0  0  2  0  0  0  0  0  0
  161.8140  212.3780  148.7540 C   0  0  2  0  0  3  0  0  0  0  0  0
  161.7740  213.8960  148.7400 C   0  0  0  0  0  1  0  0  0  0  0  0
  161.1170  211.8570  147.5020 C   0  0  0  0  0  2  0  0  0  0  0  0
  160.7170  213.1670  145.4820 N   0  0  0  0  0  0  0  0  0  0  0  0
  159.4900  212.3800  145.7910 C   0  0  0  0  0  2  0  0  0  0  0  0
  162.6420  214.3680  145.0080 O   0  0  0  0  0  0  0  0  0  0  0  0
  160.2050  212.8950  146.8560 C   0  0  1  0  0  3  0  0  0  0  0  0
  161.6700  213.7050  144.5690 C   0  0  0  0  0  0  0  0  0  0  0  0
  160.1570  213.8210  141.0650 C   0  0  0  0  0  2  0  0  0  0  0  0
  162.5720  212.5130  141.0850 C   0  0  0  0  0  2  0  0  0  0  0  0
  161.5440  213.4520  143.1280 C   0  0  0  0  0  0  0  0  0  0  0  0
  160.3220  211.3000  141.5490 C   0  0  0  0  0  2  0  0  0  0  0  0
  160.0710  212.3860  140.5120 C   0  0  2  0  0  3  0  0  0  0  0  0
  162.5030  212.8150  142.5160 N   0  0  0  0  0  0  0  0  0  0  0  0
  160.3740  213.8810  142.4730 O   0  0  0  0  0  0  0  0  0  0  0  0
  161.4120  211.6430  140.5470 C   0  0  1  0  0  3  0  0  0  0  0  0
  161.2100  206.0160  153.6220 N   0  0  0  0  0  2  0  0  0  0  0  0
  161.1490  204.8840  151.2750 C   0  0  0  0  0  0  0  0  0  0  0  0
  161.1770  205.4050  152.3620 C   0  0  0  0  0  0  0  0  0  0  0  0
  162.0370  204.5910  145.2100 C   0  0  0  0  0  2  0  0  0  0  0  0
  161.1190  204.2820  149.9730 C   0  0  0  0  0  0  0  0  0  0  0  0
  161.0770  203.1130  147.4270 C   0  0  0  0  0  0  0  0  0  0  0  0
  161.0600  202.5350  146.0640 C   0  0  0  0  0  0  0  0  0  0  0  0
  161.2660  204.5010  147.5660 C   0  0  0  0  0  0  0  0  0  0  0  0
  161.4520  203.2560  145.0530 N   0  0  0  0  0  0  0  0  0  0  0  0
  161.3590  205.3640  146.3430 C   0  0  0  0  0  2  0  0  0  0  0  0
  160.9330  202.9020  149.8410 C   0  0  0  0  0  3  0  0  0  0  0  0
  160.9100  202.3170  148.5700 C   0  0  0  0  0  3  0  0  0  0  0  0
  161.2760  205.0820  148.8370 C   0  0  0  0  0  3  0  0  0  0  0  0
  159.9560  200.8750  144.7690 O   0  0  0  0  0  0  0  0  0  0  0  0
  160.5520  201.1770  145.8360 C   0  0  0  0  0  3  0  0  0  0  0  0
  161.2130  207.9160  155.0810 N   0  0  0  0  0  2  0  0  0  0  0  0
  160.3270  208.9910  154.9050 N   0  0  0  0  0  2  0  0  0  0  0  0
  160.9170  210.1110  155.5140 N   0  0  0  0  0  2  0  0  0  0  0  0
  157.8720  211.5900  156.9140 C   0  0  0  0  0  3  0  0  0  0  0  0
  158.7600  211.0360  154.7970 C   0  0  2  0  0  3  0  0  0  0  0  0
  159.7460  212.1420  154.7560 N   0  0  0  0  0  2  0  0  0  0  0  0
  159.3170  211.3490  157.1530 C   0  0  0  0  0  2  0  0  0  0  0  0
  157.5830  211.4290  155.6280 C   0  0  0  0  0  0  0  0  0  0  0  0
  159.8530  211.0730  155.7560 C   0  0  2  0  0  0  0  0  0  0  0  0
  156.2650  211.6210  155.0910 N   0  0  0  0  0  0  0  0  0  0  0  0
  155.9200  212.8150  154.3340 C   0  0  0  0  0  1  0  0  0  0  0  0
  155.2670  210.5670  155.1980 C   0  0  0  0  0  1  0  0  0  0  0  0
  1  2  1  6  0  0  0
  1 40  1  0  0  0  0
  3  2  1  0  0  0  0
  4  3  1  0  0  0  0
  5  4  1  0  0  0  0
  6  3  1  0  0  0  0
  7  6  1  0  0  0  0
  8  7  1  0  0  0  0
  9 10  1  1  0  0  0
  9  8  1  0  0  0  0
 11  9  1  0  0  0  0
 12 13  1  0  0  0  0
 12 15  1  0  0  0  0
 13 15  1  0  0  0  0
 15 11  1  1  0  0  0
 16 14  2  0  0  0  0
 16 12  1  0  0  0  0
 17 23  1  0  0  0  0
 18 22  1  0  0  0  0
 19 16  1  0  0  0  0
 21 24  1  0  0  0  0
 21 17  1  1  0  0  0
 21 20  1  0  0  0  0
 22 19  2  0  0  0  0
 23 19  1  0  0  0  0
 24 18  1  1  0  0  0
 24 20  1  0  0  0  0
 25  1  1  0  0  0  0
 26 27  3  0  0  0  0
 27 25  1  0  0  0  0
 28 34  1  0  0  0  0
 29 26  1  0  0  0  0
 30 32  2  0  0  0  0
 30 36  1  0  0  0  0
 31 30  1  0  0  0  0
 32 37  1  0  0  0  0
 33 28  1  0  0  0  0
 33 31  2  0  0  0  0
 34 32  1  0  0  0  0
 35 29  1  0  0  0  0
 36 35  2  0  0  0  0
 37 29  2  0  0  0  0
 38 39  2  0  0  0  0
 39 31  1  0  0  0  0
 41 40  1  0  0  0  0
 41 42  1  0  0  0  0
 43 46  1  0  0  0  0
 44 45  1  6  0  0  0
 44 47  1  0  0  0  0
 44 48  1  0  0  0  0
 45 48  1  0  0  0  0
 47 43  2  0  0  0  0
 48 42  1  6  0  0  0
 48 46  1  0  0  0  0
 49 51  1  0  0  0  0
 49 47  1  0  0  0  0
 50 49  1  0  0  0  0
M  END
>  <MODEL>
1

>  <REMARK>
 VINA RESULT:      -7.6      0.000      0.000
  Name = 
  19 active torsions:
  status: ('A' for Active; 'I' for Inactive)
    1  A    between atoms: N_1  and  C_35
    2  A    between atoms: N_1  and  C_51
    3  A    between atoms: C_7  and  C_30
    4  A    between atoms: N_9  and  C_35
    5  A    between atoms: N_9  and  N_36
    6  A    between atoms: CA_12  and  C_22
    7  A    between atoms: N_13  and  N_21
    8  A    between atoms: N_13  and  N_46
    9  A    between atoms: C_16  and  C_43
   10  A    between atoms: N_21  and  C_48
   11  A    between atoms: C_25  and  C_38
   12  A    between atoms: C_25  and  N_40
   13  A    between atoms: N_27  and  C_47
   14  A    between atoms: C_28  and  C_33
   15  A    between atoms: C_28  and  N_36
   16  A    between atoms: C_33  and  N_40
   17  A    between atoms: C_34  and  N_36
   18  A    between atoms: C_35  and  N_46
   19  A    between atoms: C_38  and  C_42
                            x       y       z     vdW  Elec       q    Type
                         _______ _______ _______ _____ _____    ______ ____

>  <TORSDO>
F 19

$$$$
=
 OpenBabel11042420193D

 51 57  0  0  1  0  0  0  0  0999 V2000
  161.7470  210.6850  149.7130 C   0  0  2  0  0  3  0  0  0  0  0  0
  162.4120  210.0470  150.8460 N   0  0  0  0  0  2  0  0  0  0  0  0
  161.4610  209.8920  151.8680 N   0  0  0  0  0  0  0  0  0  0  0  0
  161.0410  208.4990  151.8330 C   0  0  0  0  0  2  0  0  0  0  0  0
  162.2080  207.6050  152.2000 C   0  0  0  0  0  1  0  0  0  0  0  0
  162.1680  210.1010  153.1250 C   0  0  0  0  0  2  0  0  0  0  0  0
  161.1870  210.1770  154.2860 C   0  0  0  0  0  2  0  0  0  0  0  0
  161.7990  210.8690  155.4140 N   0  0  0  0  0  2  0  0  0  0  0  0
  161.2190  210.3110  156.6300 C   0  0  2  0  0  3  0  0  0  0  0  0
  160.5000  209.0130  156.3100 C   0  0  0  0  0  1  0  0  0  0  0  0
  160.2220  211.2850  157.2480 C   0  0  0  0  0  2  0  0  0  0  0  0
  158.4790  212.1210  155.7570 N   0  0  0  0  0  0  0  0  0  0  0  0
  158.7430  210.6920  155.4290 C   0  0  0  0  0  2  0  0  0  0  0  0
  158.0980  214.3490  156.2710 O   0  0  0  0  0  0  0  0  0  0  0  0
  158.7940  211.0620  156.7600 C   0  0  1  0  0  3  0  0  0  0  0  0
  158.2020  213.4680  155.3820 C   0  0  0  0  0  0  0  0  0  0  0  0
  156.5050  214.3870  152.0880 C   0  0  0  0  0  2  0  0  0  0  0  0
  159.2420  214.4470  151.8710 C   0  0  0  0  0  2  0  0  0  0  0  0
  158.0810  213.8350  153.9660 C   0  0  0  0  0  0  0  0  0  0  0  0
  157.8560  212.2840  151.4840 C   0  0  0  0  0  2  0  0  0  0  0  0
  157.0430  213.4670  150.9760 C   0  0  2  0  0  3  0  0  0  0  0  0
  159.1680  214.0350  153.2730 N   0  0  0  0  0  0  0  0  0  0  0  0
  156.7930  213.9240  153.4060 O   0  0  0  0  0  0  0  0  0  0  0  0
  158.5720  213.4760  150.8700 C   0  0  1  0  0  3  0  0  0  0  0  0
  162.0710  209.9870  148.4770 N   0  0  0  0  0  2  0  0  0  0  0  0
  161.7350  207.4100  148.2760 C   0  0  0  0  0  0  0  0  0  0  0  0
  161.8940  208.6010  148.3680 C   0  0  0  0  0  0  0  0  0  0  0  0
  159.9390  201.8560  150.1670 C   0  0  0  0  0  2  0  0  0  0  0  0
  161.5290  205.9930  148.1760 C   0  0  0  0  0  0  0  0  0  0  0  0
  161.1100  203.2300  147.9870 C   0  0  0  0  0  0  0  0  0  0  0  0
  160.8840  201.7680  147.9300 C   0  0  0  0  0  0  0  0  0  0  0  0
  161.0430  203.8730  149.2370 C   0  0  0  0  0  0  0  0  0  0  0  0
  160.3980  201.1490  148.9680 N   0  0  0  0  0  0  0  0  0  0  0  0
  160.8300  203.0600  150.4790 C   0  0  0  0  0  2  0  0  0  0  0  0
  161.5960  205.3600  146.9300 C   0  0  0  0  0  3  0  0  0  0  0  0
  161.3880  203.9800  146.8340 C   0  0  0  0  0  3  0  0  0  0  0  0
  161.2620  205.2490  149.3290 C   0  0  0  0  0  3  0  0  0  0  0  0
  160.5350  201.0160  145.7010 O   0  0  0  0  0  0  0  0  0  0  0  0
  161.2550  201.0010  146.7340 C   0  0  0  0  0  3  0  0  0  0  0  0
  162.1350  212.0930  149.6150 N   0  0  0  0  0  2  0  0  0  0  0  0
  161.4080  212.6890  148.5710 N   0  0  0  0  0  2  0  0  0  0  0  0
  162.2920  212.8440  147.4920 N   0  0  0  0  0  2  0  0  0  0  0  0
  160.0070  212.3810  144.6670 C   0  0  0  0  0  3  0  0  0  0  0  0
  162.2040  213.1530  145.0600 C   0  0  2  0  0  3  0  0  0  0  0  0
  161.8020  214.4380  145.6780 N   0  0  0  0  0  2  0  0  0  0  0  0
  160.0860  212.5930  146.1340 C   0  0  0  0  0  2  0  0  0  0  0  0
  161.1600  212.7010  144.0920 C   0  0  0  0  0  0  0  0  0  0  0  0
  161.4860  213.1590  146.3240 C   0  0  2  0  0  0  0  0  0  0  0  0
  161.3770  212.6220  142.6740 N   0  0  0  0  0  0  0  0  0  0  0  0
  162.6250  213.0670  142.0720 C   0  0  0  0  0  1  0  0  0  0  0  0
  160.3900  211.9890  141.8130 C   0  0  0  0  0  1  0  0  0  0  0  0
  1 25  1  6  0  0  0
  1  2  1  0  0  0  0
  2  3  1  0  0  0  0
  3  6  1  0  0  0  0
  4  3  1  0  0  0  0
  4  5  1  0  0  0  0
  6  7  1  0  0  0  0
  7  8  1  0  0  0  0
  8  9  1  0  0  0  0
  9 10  1  6  0  0  0
  9 11  1  0  0  0  0
 12 15  1  0  0  0  0
 13 12  1  0  0  0  0
 13 15  1  0  0  0  0
 15 11  1  6  0  0  0
 16 12  1  0  0  0  0
 16 14  2  0  0  0  0
 17 23  1  0  0  0  0
 18 22  1  0  0  0  0
 19 16  1  0  0  0  0
 21 20  1  1  0  0  0
 21 17  1  0  0  0  0
 22 19  2  0  0  0  0
 23 19  1  0  0  0  0
 24 21  1  0  0  0  0
 24 20  1  1  0  0  0
 24 18  1  0  0  0  0
 26 27  3  0  0  0  0
 27 25  1  0  0  0  0
 28 34  1  0  0  0  0
 29 26  1  0  0  0  0
 29 37  1  0  0  0  0
 30 32  1  0  0  0  0
 31 30  1  0  0  0  0
 31 33  2  0  0  0  0
 32 37  2  0  0  0  0
 32 34  1  0  0  0  0
 33 28  1  0  0  0  0
 35 29  2  0  0  0  0
 36 35  1  0  0  0  0
 36 30  2  0  0  0  0
 38 39  2  0  0  0  0
 39 31  1  0  0  0  0
 40  1  1  0  0  0  0
 41 40  1  0  0  0  0
 42 41  1  0  0  0  0
 43 46  1  0  0  0  0
 44 47  1  6  0  0  0
 44 45  1  0  0  0  0
 44 48  1  0  0  0  0
 45 48  1  0  0  0  0
 46 48  1  0  0  0  0
 47 43  2  0  0  0  0
 48 42  1  1  0  0  0
 49 47  1  0  0  0  0
 50 49  1  0  0  0  0
 51 49  1  0  0  0  0
M  END
>  <MODEL>
2

>  <REMARK>
 VINA RESULT:      -5.6      2.911      8.422
  Name = 
  19 active torsions:
  status: ('A' for Active; 'I' for Inactive)
    1  A    between atoms: N_1  and  C_35
    2  A    between atoms: N_1  and  C_51
    3  A    between atoms: C_7  and  C_30
    4  A    between atoms: N_9  and  C_35
    5  A    between atoms: N_9  and  N_36
    6  A    between atoms: CA_12  and  C_22
    7  A    between atoms: N_13  and  N_21
    8  A    between atoms: N_13  and  N_46
    9  A    between atoms: C_16  and  C_43
   10  A    between atoms: N_21  and  C_48
   11  A    between atoms: C_25  and  C_38
   12  A    between atoms: C_25  and  N_40
   13  A    between atoms: N_27  and  C_47
   14  A    between atoms: C_28  and  C_33
   15  A    between atoms: C_28  and  N_36
   16  A    between atoms: C_33  and  N_40
   17  A    between atoms: C_34  and  N_36
   18  A    between atoms: C_35  and  N_46
   19  A    between atoms: C_38  and  C_42
                            x       y       z     vdW  Elec       q    Type
                         _______ _______ _______ _____ _____    ______ ____

>  <TORSDO>
F 19

$$$$
=
 OpenBabel11042420193D

 51 57  0  0  1  0  0  0  0  0999 V2000
  161.9460  210.1420  149.4810 C   0  0  2  0  0  3  0  0  0  0  0  0
  162.4770  209.6930  150.7650 N   0  0  0  0  0  2  0  0  0  0  0  0
  161.3940  209.2710  151.5520 N   0  0  0  0  0  0  0  0  0  0  0  0
  161.2700  207.8350  151.3470 C   0  0  0  0  0  2  0  0  0  0  0  0
  162.6470  207.2030  151.3220 C   0  0  0  0  0  1  0  0  0  0  0  0
  161.7860  209.4800  152.9400 C   0  0  0  0  0  2  0  0  0  0  0  0
  161.0920  208.4770  153.8500 C   0  0  0  0  0  2  0  0  0  0  0  0
  160.3470  209.1760  154.8900 N   0  0  0  0  0  2  0  0  0  0  0  0
  161.2790  209.4510  155.9780 C   0  0  2  0  0  3  0  0  0  0  0  0
  161.6400  208.1570  156.6870 C   0  0  0  0  0  1  0  0  0  0  0  0
  160.6600  210.4090  156.9900 C   0  0  0  0  0  2  0  0  0  0  0  0
  159.9240  212.4080  155.7990 N   0  0  0  0  0  0  0  0  0  0  0  0
  160.0590  212.7380  157.2450 C   0  0  0  0  0  2  0  0  0  0  0  0
  159.7030  211.8700  153.5550 O   0  0  0  0  0  0  0  0  0  0  0  0
  160.9860  211.8700  156.6990 C   0  0  1  0  0  3  0  0  0  0  0  0
  159.2520  212.4980  154.5440 C   0  0  0  0  0  0  0  0  0  0  0  0
  156.1610  214.4530  155.6420 C   0  0  0  0  0  2  0  0  0  0  0  0
  156.4420  214.4480  152.9110 C   0  0  0  0  0  2  0  0  0  0  0  0
  158.0180  213.2830  154.4170 C   0  0  0  0  0  0  0  0  0  0  0  0
  155.1790  212.5710  154.1890 C   0  0  0  0  0  2  0  0  0  0  0  0
  154.9290  213.8890  154.9100 C   0  0  2  0  0  3  0  0  0  0  0  0
  157.6160  213.6330  153.2270 N   0  0  0  0  0  0  0  0  0  0  0  0
  157.3020  213.5980  155.5870 O   0  0  0  0  0  0  0  0  0  0  0  0
  155.0930  213.8590  153.3860 C   0  0  1  0  0  3  0  0  0  0  0  0
  162.5800  209.4180  148.3890 N   0  0  0  0  0  2  0  0  0  0  0  0
  162.0910  206.8850  148.0140 C   0  0  0  0  0  0  0  0  0  0  0  0
  162.3200  208.0560  148.1860 C   0  0  0  0  0  0  0  0  0  0  0  0
  159.9070  201.3520  149.5220 C   0  0  0  0  0  2  0  0  0  0  0  0
  161.8050  205.4910  147.8250 C   0  0  0  0  0  0  0  0  0  0  0  0
  161.2300  202.7740  147.4610 C   0  0  0  0  0  0  0  0  0  0  0  0
  160.9200  201.3340  147.3130 C   0  0  0  0  0  0  0  0  0  0  0  0
  161.1590  203.3480  148.7440 C   0  0  0  0  0  0  0  0  0  0  0  0
  160.3640  200.6880  148.2970 N   0  0  0  0  0  0  0  0  0  0  0  0
  160.8570  202.4800  149.9300 C   0  0  0  0  0  2  0  0  0  0  0  0
  161.8760  204.9270  146.5470 C   0  0  0  0  0  3  0  0  0  0  0  0
  161.5910  203.5690  146.3640 C   0  0  0  0  0  3  0  0  0  0  0  0
  161.4560  204.7010  148.9240 C   0  0  0  0  0  3  0  0  0  0  0  0
  160.4040  200.1950  145.2900 O   0  0  0  0  0  0  0  0  0  0  0  0
  161.2850  200.6150  146.0860 C   0  0  0  0  0  3  0  0  0  0  0  0
  162.1490  211.5830  149.3160 N   0  0  0  0  0  2  0  0  0  0  0  0
  160.8950  212.2000  149.1730 N   0  0  0  0  0  2  0  0  0  0  0  0
  160.3530  211.7500  147.9580 N   0  0  0  0  0  2  0  0  0  0  0  0
  158.7620  214.4360  146.0420 C   0  0  0  0  0  3  0  0  0  0  0  0
  160.2440  212.6350  145.6720 C   0  0  2  0  0  3  0  0  0  0  0  0
  161.4120  213.2670  146.3300 N   0  0  0  0  0  2  0  0  0  0  0  0
  159.2080  214.0190  147.3950 C   0  0  0  0  0  2  0  0  0  0  0  0
  159.3410  213.6850  145.1130 C   0  0  0  0  0  0  0  0  0  0  0  0
  160.2130  212.9150  147.0990 C   0  0  2  0  0  0  0  0  0  0  0  0
  159.1210  213.8700  143.7060 N   0  0  0  0  0  0  0  0  0  0  0  0
  160.1440  213.5350  142.7270 C   0  0  0  0  0  1  0  0  0  0  0  0
  157.8200  214.3000  143.2150 C   0  0  0  0  0  1  0  0  0  0  0  0
  1 25  1  6  0  0  0
  1  2  1  0  0  0  0
  2  3  1  0  0  0  0
  3  6  1  0  0  0  0
  4  3  1  0  0  0  0
  5  4  1  0  0  0  0
  6  7  1  0  0  0  0
  7  8  1  0  0  0  0
  8  9  1  0  0  0  0
  9 10  1  1  0  0  0
  9 11  1  0  0  0  0
 12 15  1  0  0  0  0
 12 13  1  0  0  0  0
 14 16  2  0  0  0  0
 15 11  1  1  0  0  0
 15 13  1  0  0  0  0
 16 12  1  0  0  0  0
 18 22  1  0  0  0  0
 19 16  1  0  0  0  0
 19 23  1  0  0  0  0
 21 20  1  1  0  0  0
 21 17  1  0  0  0  0
 22 19  2  0  0  0  0
 23 17  1  0  0  0  0
 24 18  1  1  0  0  0
 24 20  1  0  0  0  0
 24 21  1  0  0  0  0
 26 27  3  0  0  0  0
 27 25  1  0  0  0  0
 28 34  1  0  0  0  0
 29 26  1  0  0  0  0
 29 37  1  0  0  0  0
 30 32  1  0  0  0  0
 31 30  1  0  0  0  0
 31 33  2  0  0  0  0
 32 37  2  0  0  0  0
 32 34  1  0  0  0  0
 33 28  1  0  0  0  0
 35 29  2  0  0  0  0
 36 35  1  0  0  0  0
 36 30  2  0  0  0  0
 38 39  2  0  0  0  0
 39 31  1  0  0  0  0
 40  1  1  0  0  0  0
 41 40  1  0  0  0  0
 42 41  1  0  0  0  0
 43 46  1  0  0  0  0
 44 47  1  6  0  0  0
 44 45  1  0  0  0  0
 44 48  1  0  0  0  0
 45 48  1  0  0  0  0
 47 43  2  0  0  0  0
 48 46  1  0  0  0  0
 48 42  1  1  0  0  0
 49 47  1  0  0  0  0
 50 49  1  0  0  0  0
 51 49  1  0  0  0  0
M  END
>  <MODEL>
3

>  <REMARK>
 VINA RESULT:      -5.5      2.769      8.601
  Name = 
  19 active torsions:
  status: ('A' for Active; 'I' for Inactive)
    1  A    between atoms: N_1  and  C_35
    2  A    between atoms: N_1  and  C_51
    3  A    between atoms: C_7  and  C_30
    4  A    between atoms: N_9  and  C_35
    5  A    between atoms: N_9  and  N_36
    6  A    between atoms: CA_12  and  C_22
    7  A    between atoms: N_13  and  N_21
    8  A    between atoms: N_13  and  N_46
    9  A    between atoms: C_16  and  C_43
   10  A    between atoms: N_21  and  C_48
   11  A    between atoms: C_25  and  C_38
   12  A    between atoms: C_25  and  N_40
   13  A    between atoms: N_27  and  C_47
   14  A    between atoms: C_28  and  C_33
   15  A    between atoms: C_28  and  N_36
   16  A    between atoms: C_33  and  N_40
   17  A    between atoms: C_34  and  N_36
   18  A    between atoms: C_35  and  N_46
   19  A    between atoms: C_38  and  C_42
                            x       y       z     vdW  Elec       q    Type
                         _______ _______ _______ _____ _____    ______ ____

>  <TORSDO>
F 19

$$$$
=
 OpenBabel11042420193D

 51 57  0  0  1  0  0  0  0  0999 V2000
  160.9700  210.9250  151.8110 C   0  0  2  0  0  3  0  0  0  0  0  0
  160.0020  210.8030  152.8970 N   0  0  0  0  0  2  0  0  0  0  0  0
  160.3710  211.7100  153.9030 N   0  0  0  0  0  0  0  0  0  0  0  0
  159.1430  212.3480  154.3540 C   0  0  0  0  0  2  0  0  0  0  0  0
  157.9620  211.4420  154.0680 C   0  0  0  0  0  1  0  0  0  0  0  0
  160.8790  210.9130  155.0120 C   0  0  0  0  0  2  0  0  0  0  0  0
  161.8160  209.8250  154.5060 C   0  0  0  0  0  2  0  0  0  0  0  0
  161.5720  208.5810  155.2270 N   0  0  0  0  0  2  0  0  0  0  0  0
  160.4030  207.9540  154.6230 C   0  0  2  0  0  3  0  0  0  0  0  0
  159.8430  206.8970  155.5590 C   0  0  0  0  0  1  0  0  0  0  0  0
  160.7680  207.2920  153.2990 C   0  0  0  0  0  2  0  0  0  0  0  0
  161.6320  205.1220  152.5900 N   0  0  0  0  0  0  0  0  0  0  0  0
  162.6300  206.1700  152.2380 C   0  0  0  0  0  2  0  0  0  0  0  0
  160.0580  203.5080  153.1320 O   0  0  0  0  0  0  0  0  0  0  0  0
  161.9380  206.3210  153.4240 C   0  0  1  0  0  3  0  0  0  0  0  0
  160.9070  203.9270  152.3070 C   0  0  0  0  0  0  0  0  0  0  0  0
  161.0210  203.3480  148.5350 C   0  0  0  0  0  2  0  0  0  0  0  0
  161.9160  201.1560  149.9260 C   0  0  0  0  0  2  0  0  0  0  0  0
  161.1190  203.2120  151.0420 C   0  0  0  0  0  0  0  0  0  0  0  0
  159.4070  201.5230  149.3590 C   0  0  0  0  0  2  0  0  0  0  0  0
  160.2390  202.0630  148.2040 C   0  0  2  0  0  3  0  0  0  0  0  0
  161.5990  202.0000  151.0780 N   0  0  0  0  0  0  0  0  0  0  0  0
  160.7630  203.8560  149.8420 O   0  0  0  0  0  0  0  0  0  0  0  0
  160.7170  200.8430  148.9990 C   0  0  1  0  0  3  0  0  0  0  0  0
  160.9110  212.2570  151.2270 N   0  0  0  0  0  2  0  0  0  0  0  0
  161.1800  212.5980  148.6560 C   0  0  0  0  0  0  0  0  0  0  0  0
  161.0590  212.4410  149.8450 C   0  0  0  0  0  0  0  0  0  0  0  0
  159.2000  213.3080  142.8920 C   0  0  0  0  0  2  0  0  0  0  0  0
  161.3080  212.7720  147.2380 C   0  0  0  0  0  0  0  0  0  0  0  0
  161.5440  213.1270  144.4690 C   0  0  0  0  0  0  0  0  0  0  0  0
  161.6280  213.3010  143.0010 C   0  0  0  0  0  0  0  0  0  0  0  0
  160.3170  212.7290  145.0300 C   0  0  0  0  0  0  0  0  0  0  0  0
  160.5370  213.3230  142.2910 N   0  0  0  0  0  0  0  0  0  0  0  0
  159.1580  212.4120  144.1310 C   0  0  0  0  0  2  0  0  0  0  0  0
  162.5300  213.1690  146.6860 C   0  0  0  0  0  3  0  0  0  0  0  0
  162.6510  213.3450  145.3030 C   0  0  0  0  0  3  0  0  0  0  0  0
  160.2050  212.5430  146.4100 C   0  0  0  0  0  3  0  0  0  0  0  0
  163.0700  214.0360  141.2600 O   0  0  0  0  0  0  0  0  0  0  0  0
  162.9320  213.3930  142.3340 C   0  0  0  0  0  3  0  0  0  0  0  0
  160.7210  209.9120  150.7840 N   0  0  0  0  0  2  0  0  0  0  0  0
  161.9150  209.2120  150.5430 N   0  0  0  0  0  2  0  0  0  0  0  0
  162.0820  209.1550  149.1500 N   0  0  0  0  0  2  0  0  0  0  0  0
  162.9970  205.9810  147.5670 C   0  0  0  0  0  3  0  0  0  0  0  0
  161.1510  207.4520  147.6480 C   0  0  2  0  0  3  0  0  0  0  0  0
  160.7360  207.0950  149.0250 N   0  0  0  0  0  2  0  0  0  0  0  0
  163.2700  206.8800  148.7160 C   0  0  0  0  0  2  0  0  0  0  0  0
  161.8370  206.2930  147.0010 C   0  0  0  0  0  0  0  0  0  0  0  0
  162.0240  207.7520  148.7720 C   0  0  2  0  0  0  0  0  0  0  0  0
  161.2940  205.5800  145.8790 N   0  0  0  0  0  0  0  0  0  0  0  0
  160.1190  206.0630  145.1700 C   0  0  0  0  0  1  0  0  0  0  0  0
  161.9770  204.4080  145.3530 C   0  0  0  0  0  1  0  0  0  0  0  0
  1 40  1  6  0  0  0
  1  2  1  0  0  0  0
  2  3  1  0  0  0  0
  3  4  1  0  0  0  0
  3  6  1  0  0  0  0
  5  4  1  0  0  0  0
  7  6  1  0  0  0  0
  7  8  1  0  0  0  0
  9  8  1  0  0  0  0
  9 10  1  1  0  0  0
 11  9  1  0  0  0  0
 12 15  1  0  0  0  0
 13 12  1  0  0  0  0
 13 15  1  0  0  0  0
 15 11  1  6  0  0  0
 16 12  1  0  0  0  0
 16 14  2  0  0  0  0
 17 23  1  0  0  0  0
 18 22  1  0  0  0  0
 19 22  2  0  0  0  0
 19 16  1  0  0  0  0
 21 17  1  1  0  0  0
 21 24  1  0  0  0  0
 21 20  1  0  0  0  0
 23 19  1  0  0  0  0
 24 20  1  1  0  0  0
 24 18  1  0  0  0  0
 25  1  1  0  0  0  0
 26 27  3  0  0  0  0
 27 25  1  0  0  0  0
 28 34  1  0  0  0  0
 29 26  1  0  0  0  0
 30 32  2  0  0  0  0
 30 36  1  0  0  0  0
 31 30  1  0  0  0  0
 32 37  1  0  0  0  0
 33 28  1  0  0  0  0
 33 31  2  0  0  0  0
 34 32  1  0  0  0  0
 35 29  1  0  0  0  0
 36 35  2  0  0  0  0
 37 29  2  0  0  0  0
 38 39  2  0  0  0  0
 39 31  1  0  0  0  0
 41 40  1  0  0  0  0
 42 41  1  0  0  0  0
 43 46  1  0  0  0  0
 44 47  1  6  0  0  0
 44 48  1  0  0  0  0
 44 45  1  0  0  0  0
 46 48  1  0  0  0  0
 47 43  2  0  0  0  0
 48 45  1  0  0  0  0
 48 42  1  1  0  0  0
 49 47  1  0  0  0  0
 50 49  1  0  0  0  0
 51 49  1  0  0  0  0
M  END
>  <MODEL>
4

>  <REMARK>
 VINA RESULT:      -5.4      2.359      9.951
  Name = 
  19 active torsions:
  status: ('A' for Active; 'I' for Inactive)
    1  A    between atoms: N_1  and  C_35
    2  A    between atoms: N_1  and  C_51
    3  A    between atoms: C_7  and  C_30
    4  A    between atoms: N_9  and  C_35
    5  A    between atoms: N_9  and  N_36
    6  A    between atoms: CA_12  and  C_22
    7  A    between atoms: N_13  and  N_21
    8  A    between atoms: N_13  and  N_46
    9  A    between atoms: C_16  and  C_43
   10  A    between atoms: N_21  and  C_48
   11  A    between atoms: C_25  and  C_38
   12  A    between atoms: C_25  and  N_40
   13  A    between atoms: N_27  and  C_47
   14  A    between atoms: C_28  and  C_33
   15  A    between atoms: C_28  and  N_36
   16  A    between atoms: C_33  and  N_40
   17  A    between atoms: C_34  and  N_36
   18  A    between atoms: C_35  and  N_46
   19  A    between atoms: C_38  and  C_42
                            x       y       z     vdW  Elec       q    Type
                         _______ _______ _______ _____ _____    ______ ____

>  <TORSDO>
F 19

$$$$
=
 OpenBabel11042420193D

 51 57  0  0  1  0  0  0  0  0999 V2000
  161.8230  205.7470  146.5040 C   0  0  2  0  0  3  0  0  0  0  0  0
  162.5450  205.5010  145.2580 N   0  0  0  0  0  2  0  0  0  0  0  0
  161.5990  205.1720  144.2740 N   0  0  0  0  0  0  0  0  0  0  0  0
  160.3000  205.1810  144.9310 C   0  0  0  0  0  2  0  0  0  0  0  0
  159.4470  204.0510  144.3920 C   0  0  0  0  0  1  0  0  0  0  0  0
  161.6070  206.2660  143.3120 C   0  0  0  0  0  2  0  0  0  0  0  0
  161.9550  205.7550  141.9210 C   0  0  0  0  0  2  0  0  0  0  0  0
  162.4900  206.8400  141.1090 N   0  0  0  0  0  2  0  0  0  0  0  0
  161.6250  206.9740  139.9420 C   0  0  2  0  0  3  0  0  0  0  0  0
  162.4360  206.7730  138.6730 C   0  0  0  0  0  1  0  0  0  0  0  0
  160.9850  208.3570  139.9010 C   0  0  0  0  0  2  0  0  0  0  0  0
  161.5920  210.7180  139.7800 N   0  0  0  0  0  0  0  0  0  0  0  0
  162.8340  209.9150  139.9550 C   0  0  0  0  0  2  0  0  0  0  0  0
  159.6450  211.9510  139.5250 O   0  0  0  0  0  0  0  0  0  0  0  0
  161.8360  209.3830  139.1600 C   0  0  1  0  0  3  0  0  0  0  0  0
  160.7800  211.8590  140.0520 C   0  0  0  0  0  0  0  0  0  0  0  0
  163.1660  214.3830  141.6380 C   0  0  0  0  0  2  0  0  0  0  0  0
  160.6850  214.4530  142.8140 C   0  0  0  0  0  2  0  0  0  0  0  0
  161.2490  212.8990  140.9760 C   0  0  0  0  0  0  0  0  0  0  0  0
  162.5600  212.8360  143.6020 C   0  0  0  0  0  2  0  0  0  0  0  0
  163.2110  214.1390  143.1580 C   0  0  2  0  0  3  0  0  0  0  0  0
  160.4120  213.3870  141.8490 N   0  0  0  0  0  0  0  0  0  0  0  0
  162.5950  213.3040  140.9010 O   0  0  0  0  0  0  0  0  0  0  0  0
  161.8250  214.1500  143.8140 C   0  0  1  0  0  3  0  0  0  0  0  0
  162.2590  207.0010  147.1020 N   0  0  0  0  0  2  0  0  0  0  0  0
  161.7710  207.5150  149.6110 C   0  0  0  0  0  0  0  0  0  0  0  0
  161.9980  207.2810  148.4510 C   0  0  0  0  0  0  0  0  0  0  0  0
  159.9160  210.8330  154.4280 C   0  0  0  0  0  2  0  0  0  0  0  0
  161.4920  207.7770  150.9940 C   0  0  0  0  0  0  0  0  0  0  0  0
  160.9310  208.2950  153.6890 C   0  0  0  0  0  0  0  0  0  0  0  0
  160.6340  208.6110  155.1050 C   0  0  0  0  0  0  0  0  0  0  0  0
  161.0150  209.3540  152.7670 C   0  0  0  0  0  0  0  0  0  0  0  0
  160.2240  209.8040  155.4270 N   0  0  0  0  0  0  0  0  0  0  0  0
  160.8870  210.7690  153.2480 C   0  0  0  0  0  2  0  0  0  0  0  0
  161.4080  206.7190  151.9060 C   0  0  0  0  0  3  0  0  0  0  0  0
  161.1300  206.9770  153.2530 C   0  0  0  0  0  3  0  0  0  0  0  0
  161.3050  209.0930  151.4250 C   0  0  0  0  0  3  0  0  0  0  0  0
  159.8830  207.0180  156.7020 O   0  0  0  0  0  0  0  0  0  0  0  0
  160.8520  207.6090  156.1550 C   0  0  0  0  0  3  0  0  0  0  0  0
  162.0270  204.6420  147.4430 N   0  0  0  0  0  2  0  0  0  0  0  0
  160.8410  204.4460  148.1700 N   0  0  0  0  0  2  0  0  0  0  0  0
  161.1650  203.6360  149.2700 N   0  0  0  0  0  2  0  0  0  0  0  0
  161.6990  200.1710  148.2100 C   0  0  0  0  0  3  0  0  0  0  0  0
  160.5020  202.0770  147.4960 C   0  0  2  0  0  3  0  0  0  0  0  0
  159.4640  202.0050  148.5510 N   0  0  0  0  0  2  0  0  0  0  0  0
  161.7120  201.0930  149.3730 C   0  0  0  0  0  2  0  0  0  0  0  0
  161.0280  200.7110  147.2000 C   0  0  0  0  0  0  0  0  0  0  0  0
  160.8680  202.2640  148.8900 C   0  0  2  0  0  0  0  0  0  0  0  0
  160.8250  200.0400  145.9460 N   0  0  0  0  0  0  0  0  0  0  0  0
  160.0280  200.6380  144.8860 C   0  0  0  0  0  1  0  0  0  0  0  0
  161.5080  198.7870  145.6630 C   0  0  0  0  0  1  0  0  0  0  0  0
  1  2  1  6  0  0  0
  1 25  1  0  0  0  0
  1 40  1  0  0  0  0
  3  4  1  0  0  0  0
  3  2  1  0  0  0  0
  5  4  1  0  0  0  0
  6  3  1  0  0  0  0
  7  6  1  0  0  0  0
  8  7  1  0  0  0  0
  9 10  1  6  0  0  0
  9  8  1  0  0  0  0
 11  9  1  0  0  0  0
 12 13  1  0  0  0  0
 12 16  1  0  0  0  0
 14 16  2  0  0  0  0
 15 12  1  0  0  0  0
 15 11  1  1  0  0  0
 15 13  1  0  0  0  0
 16 19  1  0  0  0  0
 19 22  2  0  0  0  0
 20 24  1  0  0  0  0
 21 17  1  6  0  0  0
 21 20  1  0  0  0  0
 21 24  1  0  0  0  0
 22 18  1  0  0  0  0
 23 19  1  0  0  0  0
 23 17  1  0  0  0  0
 24 18  1  6  0  0  0
 25 27  1  0  0  0  0
 26 29  1  0  0  0  0
 27 26  3  0  0  0  0
 28 33  1  0  0  0  0
 29 37  2  0  0  0  0
 29 35  1  0  0  0  0
 30 31  1  0  0  0  0
 31 33  2  0  0  0  0
 31 39  1  0  0  0  0
 32 34  1  0  0  0  0
 32 30  2  0  0  0  0
 34 28  1  0  0  0  0
 35 36  2  0  0  0  0
 36 30  1  0  0  0  0
 37 32  1  0  0  0  0
 39 38  2  0  0  0  0
 40 41  1  0  0  0  0
 41 42  1  0  0  0  0
 43 46  1  0  0  0  0
 44 47  1  1  0  0  0
 44 45  1  0  0  0  0
 44 48  1  0  0  0  0
 45 48  1  0  0  0  0
 47 43  2  0  0  0  0
 48 42  1  1  0  0  0
 48 46  1  0  0  0  0
 49 47  1  0  0  0  0
 50 49  1  0  0  0  0
 51 49  1  0  0  0  0
M  END
>  <MODEL>
5

>  <REMARK>
 VINA RESULT:      -5.1      3.176      9.193
  Name = 
  19 active torsions:
  status: ('A' for Active; 'I' for Inactive)
    1  A    between atoms: N_1  and  C_35
    2  A    between atoms: N_1  and  C_51
    3  A    between atoms: C_7  and  C_30
    4  A    between atoms: N_9  and  C_35
    5  A    between atoms: N_9  and  N_36
    6  A    between atoms: CA_12  and  C_22
    7  A    between atoms: N_13  and  N_21
    8  A    between atoms: N_13  and  N_46
    9  A    between atoms: C_16  and  C_43
   10  A    between atoms: N_21  and  C_48
   11  A    between atoms: C_25  and  C_38
   12  A    between atoms: C_25  and  N_40
   13  A    between atoms: N_27  and  C_47
   14  A    between atoms: C_28  and  C_33
   15  A    between atoms: C_28  and  N_36
   16  A    between atoms: C_33  and  N_40
   17  A    between atoms: C_34  and  N_36
   18  A    between atoms: C_35  and  N_46
   19  A    between atoms: C_38  and  C_42
                            x       y       z     vdW  Elec       q    Type
                         _______ _______ _______ _____ _____    ______ ____

>  <TORSDO>
F 19

$$$$
=
 OpenBabel11042420193D

 51 57  0  0  1  0  0  0  0  0999 V2000
  162.1770  210.3810  149.3670 C   0  0  2  0  0  3  0  0  0  0  0  0
  162.7900  209.9760  150.6290 N   0  0  0  0  0  2  0  0  0  0  0  0
  161.8030  210.0460  151.6260 N   0  0  0  0  0  0  0  0  0  0  0  0
  161.0300  211.2500  151.3560 C   0  0  0  0  0  2  0  0  0  0  0  0
  159.6980  211.1730  152.0750 C   0  0  0  0  0  1  0  0  0  0  0  0
  160.9200  208.9070  151.4130 C   0  0  0  0  0  2  0  0  0  0  0  0
  161.6600  207.6000  151.6590 C   0  0  0  0  0  2  0  0  0  0  0  0
  160.9330  206.7880  152.6270 N   0  0  0  0  0  2  0  0  0  0  0  0
  161.1900  207.3530  153.9460 C   0  0  2  0  0  3  0  0  0  0  0  0
  161.5720  206.2480  154.9160 C   0  0  0  0  0  1  0  0  0  0  0  0
  159.9520  208.0660  154.4790 C   0  0  0  0  0  2  0  0  0  0  0  0
  160.1280  210.0940  155.8270 N   0  0  0  0  0  0  0  0  0  0  0  0
  159.0170  209.2590  156.3640 C   0  0  0  0  0  2  0  0  0  0  0  0
  161.8480  211.3860  154.9630 O   0  0  0  0  0  0  0  0  0  0  0  0
  160.1390  208.6030  155.8940 C   0  0  1  0  0  3  0  0  0  0  0  0
  160.7000  211.3500  155.4700 C   0  0  0  0  0  0  0  0  0  0  0  0
  159.2750  214.4070  157.2600 C   0  0  0  0  0  2  0  0  0  0  0  0
  158.5690  214.3630  154.6060 C   0  0  0  0  0  2  0  0  0  0  0  0
  159.9380  212.5920  155.6530 C   0  0  0  0  0  0  0  0  0  0  0  0
  157.1710  213.1720  156.4440 C   0  0  0  0  0  2  0  0  0  0  0  0
  157.7510  214.4480  157.0400 C   0  0  2  0  0  3  0  0  0  0  0  0
  159.3320  213.1150  154.6240 N   0  0  0  0  0  0  0  0  0  0  0  0
  159.8670  213.1490  156.9440 O   0  0  0  0  0  0  0  0  0  0  0  0
  157.3520  214.3960  155.5600 C   0  0  1  0  0  3  0  0  0  0  0  0
  162.7390  209.6170  148.2630 N   0  0  0  0  0  2  0  0  0  0  0  0
  162.1780  207.0880  147.9730 C   0  0  0  0  0  0  0  0  0  0  0  0
  162.4410  208.2570  148.1070 C   0  0  0  0  0  0  0  0  0  0  0  0
  159.9080  201.6410  149.6540 C   0  0  0  0  0  2  0  0  0  0  0  0
  161.8460  205.7010  147.8170 C   0  0  0  0  0  0  0  0  0  0  0  0
  161.1810  202.9960  147.5190 C   0  0  0  0  0  0  0  0  0  0  0  0
  160.8260  201.5630  147.4050 C   0  0  0  0  0  0  0  0  0  0  0  0
  161.1800  203.5890  148.7950 C   0  0  0  0  0  0  0  0  0  0  0  0
  160.2940  200.9470  148.4220 N   0  0  0  0  0  0  0  0  0  0  0  0
  160.9050  202.7470  150.0050 C   0  0  0  0  0  2  0  0  0  0  0  0
  161.8470  205.1170  146.5460 C   0  0  0  0  0  3  0  0  0  0  0  0
  161.5170  203.7650  146.3950 C   0  0  0  0  0  3  0  0  0  0  0  0
  161.5220  204.9360  148.9410 C   0  0  0  0  0  3  0  0  0  0  0  0
  160.2010  200.4910  145.3770 O   0  0  0  0  0  0  0  0  0  0  0  0
  161.1190  200.8170  146.1750 C   0  0  0  0  0  3  0  0  0  0  0  0
  162.3700  211.8150  149.1390 N   0  0  0  0  0  2  0  0  0  0  0  0
  161.5790  212.2070  148.0460 N   0  0  0  0  0  2  0  0  0  0  0  0
  162.3960  212.9830  147.2080 N   0  0  0  0  0  2  0  0  0  0  0  0
  159.6340  213.1090  144.8040 C   0  0  0  0  0  3  0  0  0  0  0  0
  161.9950  213.0410  144.7880 C   0  0  2  0  0  3  0  0  0  0  0  0
  162.1870  214.4410  145.2320 N   0  0  0  0  0  2  0  0  0  0  0  0
  160.0400  213.4310  146.1950 C   0  0  0  0  0  2  0  0  0  0  0  0
  160.7060  212.9110  144.0450 C   0  0  0  0  0  0  0  0  0  0  0  0
  161.5590  213.4500  146.1130 C   0  0  2  0  0  0  0  0  0  0  0  0
  160.6280  212.6050  142.6440 N   0  0  0  0  0  0  0  0  0  0  0  0
  159.3650  212.6610  141.9240 C   0  0  0  0  0  1  0  0  0  0  0  0
  161.8380  212.3370  141.8820 C   0  0  0  0  0  1  0  0  0  0  0  0
  1 25  1  6  0  0  0
  1  2  1  0  0  0  0
  2  3  1  0  0  0  0
  4  3  1  0  0  0  0
  4  5  1  0  0  0  0
  6  3  1  0  0  0  0
  6  7  1  0  0  0  0
  7  8  1  0  0  0  0
  8  9  1  0  0  0  0
  9 11  1  0  0  0  0
  9 10  1  1  0  0  0
 12 15  1  0  0  0  0
 12 13  1  0  0  0  0
 14 16  2  0  0  0  0
 15 11  1  6  0  0  0
 15 13  1  0  0  0  0
 16 19  1  0  0  0  0
 16 12  1  0  0  0  0
 18 22  1  0  0  0  0
 19 23  1  0  0  0  0
 21 20  1  1  0  0  0
 21 17  1  0  0  0  0
 22 19  2  0  0  0  0
 23 17  1  0  0  0  0
 24 18  1  6  0  0  0
 24 20  1  0  0  0  0
 24 21  1  0  0  0  0
 26 27  3  0  0  0  0
 27 25  1  0  0  0  0
 28 34  1  0  0  0  0
 29 26  1  0  0  0  0
 29 37  1  0  0  0  0
 30 32  1  0  0  0  0
 31 30  1  0  0  0  0
 31 33  2  0  0  0  0
 32 37  2  0  0  0  0
 32 34  1  0  0  0  0
 33 28  1  0  0  0  0
 35 29  2  0  0  0  0
 36 35  1  0  0  0  0
 36 30  2  0  0  0  0
 38 39  2  0  0  0  0
 39 31  1  0  0  0  0
 40  1  1  0  0  0  0
 41 40  1  0  0  0  0
 42 41  1  0  0  0  0
 43 46  1  0  0  0  0
 44 47  1  6  0  0  0
 44 45  1  0  0  0  0
 44 48  1  0  0  0  0
 45 48  1  0  0  0  0
 47 43  2  0  0  0  0
 48 46  1  0  0  0  0
 48 42  1  1  0  0  0
 49 47  1  0  0  0  0
 50 49  1  0  0  0  0
 51 49  1  0  0  0  0
M  END
>  <MODEL>
6

>  <REMARK>
 VINA RESULT:      -5.0      2.885      9.240
  Name = 
  19 active torsions:
  status: ('A' for Active; 'I' for Inactive)
    1  A    between atoms: N_1  and  C_35
    2  A    between atoms: N_1  and  C_51
    3  A    between atoms: C_7  and  C_30
    4  A    between atoms: N_9  and  C_35
    5  A    between atoms: N_9  and  N_36
    6  A    between atoms: CA_12  and  C_22
    7  A    between atoms: N_13  and  N_21
    8  A    between atoms: N_13  and  N_46
    9  A    between atoms: C_16  and  C_43
   10  A    between atoms: N_21  and  C_48
   11  A    between atoms: C_25  and  C_38
   12  A    between atoms: C_25  and  N_40
   13  A    between atoms: N_27  and  C_47
   14  A    between atoms: C_28  and  C_33
   15  A    between atoms: C_28  and  N_36
   16  A    between atoms: C_33  and  N_40
   17  A    between atoms: C_34  and  N_36
   18  A    between atoms: C_35  and  N_46
   19  A    between atoms: C_38  and  C_42
                            x       y       z     vdW  Elec       q    Type
                         _______ _______ _______ _____ _____    ______ ____

>  <TORSDO>
F 19

$$$$
=
 OpenBabel11042420193D

 51 57  0  0  1  0  0  0  0  0999 V2000
  161.5730  212.0540  149.0040 C   0  0  2  0  0  3  0  0  0  0  0  0
  161.5900  212.1370  150.4610 N   0  0  0  0  0  2  0  0  0  0  0  0
  160.3000  211.8300  150.9220 N   0  0  0  0  0  0  0  0  0  0  0  0
  160.4710  211.0940  152.1670 C   0  0  0  0  0  2  0  0  0  0  0  0
  160.8880  209.6690  151.8640 C   0  0  0  0  0  1  0  0  0  0  0  0
  159.6660  213.1000  151.2520 C   0  0  0  0  0  2  0  0  0  0  0  0
  158.2070  212.8890  151.6300 C   0  0  0  0  0  2  0  0  0  0  0  0
  157.5300  214.1750  151.7480 N   0  0  0  0  0  2  0  0  0  0  0  0
  157.3710  214.4510  153.1710 C   0  0  2  0  0  3  0  0  0  0  0  0
  158.7290  214.4460  153.8520 C   0  0  0  0  0  1  0  0  0  0  0  0
  156.4890  213.3960  153.8300 C   0  0  0  0  0  2  0  0  0  0  0  0
  157.5450  212.4560  155.8200 N   0  0  0  0  0  0  0  0  0  0  0  0
  157.7410  213.9330  155.8280 C   0  0  0  0  0  2  0  0  0  0  0  0
  157.2440  210.1580  155.7780 O   0  0  0  0  0  0  0  0  0  0  0  0
  156.5360  213.4520  155.3540 C   0  0  1  0  0  3  0  0  0  0  0  0
  158.0040  211.1240  156.0360 C   0  0  0  0  0  0  0  0  0  0  0  0
  161.5330  211.9190  157.2580 C   0  0  0  0  0  2  0  0  0  0  0  0
  161.0420  209.2170  157.2610 C   0  0  0  0  0  2  0  0  0  0  0  0
  159.3690  210.8770  156.5170 C   0  0  0  0  0  0  0  0  0  0  0  0
  161.9470  210.4710  155.1730 C   0  0  0  0  0  2  0  0  0  0  0  0
  162.5440  211.1210  156.4140 C   0  0  2  0  0  3  0  0  0  0  0  0
  159.7440  209.6490  156.7410 N   0  0  0  0  0  0  0  0  0  0  0  0
  160.2280  211.9800  156.6850 O   0  0  0  0  0  0  0  0  0  0  0  0
  162.2570  209.6150  156.3900 C   0  0  1  0  0  3  0  0  0  0  0  0
  162.5580  211.0870  148.5400 N   0  0  0  0  0  2  0  0  0  0  0  0
  162.0710  208.5290  148.6710 C   0  0  0  0  0  0  0  0  0  0  0  0
  162.2990  209.7110  148.6090 C   0  0  0  0  0  0  0  0  0  0  0  0
  160.2400  203.3360  151.3800 C   0  0  0  0  0  2  0  0  0  0  0  0
  161.7850  207.1260  148.7590 C   0  0  0  0  0  0  0  0  0  0  0  0
  161.2100  204.3890  148.9380 C   0  0  0  0  0  0  0  0  0  0  0  0
  160.9080  202.9470  149.0760 C   0  0  0  0  0  0  0  0  0  0  0  0
  161.3240  205.1670  150.1050 C   0  0  0  0  0  0  0  0  0  0  0  0
  160.5190  202.4760  150.2260 N   0  0  0  0  0  0  0  0  0  0  0  0
  161.2210  204.5090  151.4480 C   0  0  0  0  0  2  0  0  0  0  0  0
  161.6720  206.3580  147.5950 C   0  0  0  0  0  3  0  0  0  0  0  0
  161.3870  204.9900  147.6830 C   0  0  0  0  0  3  0  0  0  0  0  0
  161.6210  206.5290  150.0130 C   0  0  0  0  0  3  0  0  0  0  0  0
  161.0550  200.7840  148.0990 O   0  0  0  0  0  0  0  0  0  0  0  0
  161.0960  202.0330  147.9420 C   0  0  0  0  0  3  0  0  0  0  0  0
  161.8370  213.3660  148.4100 N   0  0  0  0  0  2  0  0  0  0  0  0
  161.0350  213.5130  147.2670 N   0  0  0  0  0  2  0  0  0  0  0  0
  161.8200  213.1360  146.1650 N   0  0  0  0  0  2  0  0  0  0  0  0
  159.1630  213.0280  143.6450 C   0  0  0  0  0  3  0  0  0  0  0  0
  161.5120  212.8090  143.7530 C   0  0  2  0  0  3  0  0  0  0  0  0
  161.7860  214.2500  143.9670 N   0  0  0  0  0  2  0  0  0  0  0  0
  159.5400  213.5550  144.9810 C   0  0  0  0  0  2  0  0  0  0  0  0
  160.2450  212.6380  142.9810 C   0  0  0  0  0  0  0  0  0  0  0  0
  161.0590  213.4630  144.9700 C   0  0  2  0  0  0  0  0  0  0  0  0
  160.1970  212.1060  141.6480 N   0  0  0  0  0  0  0  0  0  0  0  0
  161.0540  211.0030  141.2400 C   0  0  0  0  0  1  0  0  0  0  0  0
  159.2060  212.5890  140.6990 C   0  0  0  0  0  1  0  0  0  0  0  0
  1 40  1  6  0  0  0
  1  2  1  0  0  0  0
  2  3  1  0  0  0  0
  3  6  1  0  0  0  0
  3  4  1  0  0  0  0
  5  4  1  0  0  0  0
  6  7  1  0  0  0  0
  7  8  1  0  0  0  0
  8  9  1  0  0  0  0
  9 11  1  0  0  0  0
  9 10  1  1  0  0  0
 12 13  1  0  0  0  0
 12 16  1  0  0  0  0
 14 16  2  0  0  0  0
 15 11  1  6  0  0  0
 15 12  1  0  0  0  0
 15 13  1  0  0  0  0
 16 19  1  0  0  0  0
 19 23  1  0  0  0  0
 19 22  2  0  0  0  0
 21 20  1  6  0  0  0
 21 17  1  0  0  0  0
 22 18  1  0  0  0  0
 23 17  1  0  0  0  0
 24 20  1  6  0  0  0
 24 21  1  0  0  0  0
 24 18  1  0  0  0  0
 25 27  1  0  0  0  0
 25  1  1  0  0  0  0
 26 29  1  0  0  0  0
 27 26  3  0  0  0  0
 28 34  1  0  0  0  0
 29 37  1  0  0  0  0
 30 31  1  0  0  0  0
 30 32  1  0  0  0  0
 31 33  2  0  0  0  0
 32 34  1  0  0  0  0
 33 28  1  0  0  0  0
 35 36  1  0  0  0  0
 35 29  2  0  0  0  0
 36 30  2  0  0  0  0
 37 32  2  0  0  0  0
 39 38  2  0  0  0  0
 39 31  1  0  0  0  0
 41 40  1  0  0  0  0
 42 41  1  0  0  0  0
 43 46  1  0  0  0  0
 44 47  1  6  0  0  0
 44 45  1  0  0  0  0
 44 48  1  0  0  0  0
 45 48  1  0  0  0  0
 47 43  2  0  0  0  0
 48 46  1  0  0  0  0
 48 42  1  1  0  0  0
 49 47  1  0  0  0  0
 50 49  1  0  0  0  0
 51 49  1  0  0  0  0
M  END
>  <MODEL>
7

>  <REMARK>
 VINA RESULT:      -5.0      3.305      9.726
  Name = 
  19 active torsions:
  status: ('A' for Active; 'I' for Inactive)
    1  A    between atoms: N_1  and  C_35
    2  A    between atoms: N_1  and  C_51
    3  A    between atoms: C_7  and  C_30
    4  A    between atoms: N_9  and  C_35
    5  A    between atoms: N_9  and  N_36
    6  A    between atoms: CA_12  and  C_22
    7  A    between atoms: N_13  and  N_21
    8  A    between atoms: N_13  and  N_46
    9  A    between atoms: C_16  and  C_43
   10  A    between atoms: N_21  and  C_48
   11  A    between atoms: C_25  and  C_38
   12  A    between atoms: C_25  and  N_40
   13  A    between atoms: N_27  and  C_47
   14  A    between atoms: C_28  and  C_33
   15  A    between atoms: C_28  and  N_36
   16  A    between atoms: C_33  and  N_40
   17  A    between atoms: C_34  and  N_36
   18  A    between atoms: C_35  and  N_46
   19  A    between atoms: C_38  and  C_42
                            x       y       z     vdW  Elec       q    Type
                         _______ _______ _______ _____ _____    ______ ____

>  <TORSDO>
F 19

$$$$
=
 OpenBabel11042420193D

 51 57  0  0  1  0  0  0  0  0999 V2000
  160.0600  211.5080  151.6990 C   0  0  2  0  0  3  0  0  0  0  0  0
  159.1860  211.0780  152.7860 N   0  0  0  0  0  2  0  0  0  0  0  0
  159.6320  211.6980  153.9640 N   0  0  0  0  0  0  0  0  0  0  0  0
  158.6050  212.6600  154.3390 C   0  0  0  0  0  2  0  0  0  0  0  0
  157.2620  211.9640  154.4250 C   0  0  0  0  0  1  0  0  0  0  0  0
  159.6560  210.6650  154.9910 C   0  0  0  0  0  2  0  0  0  0  0  0
  161.0880  210.3250  155.3780 C   0  0  0  0  0  2  0  0  0  0  0  0
  161.5990  209.2630  154.5210 N   0  0  0  0  0  2  0  0  0  0  0  0
  160.5540  208.2510  154.4180 C   0  0  2  0  0  3  0  0  0  0  0  0
  160.5550  207.3790  155.6610 C   0  0  0  0  0  1  0  0  0  0  0  0
  160.7790  207.3650  153.1970 C   0  0  0  0  0  2  0  0  0  0  0  0
  161.6580  205.1800  152.5570 N   0  0  0  0  0  0  0  0  0  0  0  0
  162.6670  206.2190  152.2110 C   0  0  0  0  0  2  0  0  0  0  0  0
  160.0660  203.5790  153.0870 O   0  0  0  0  0  0  0  0  0  0  0  0
  161.9420  206.3950  153.3750 C   0  0  1  0  0  3  0  0  0  0  0  0
  160.9390  203.9810  152.2780 C   0  0  0  0  0  0  0  0  0  0  0  0
  161.2880  203.3630  148.5260 C   0  0  0  0  0  2  0  0  0  0  0  0
  161.8850  201.1150  149.9850 C   0  0  0  0  0  2  0  0  0  0  0  0
  161.1840  203.2400  151.0340 C   0  0  0  0  0  0  0  0  0  0  0  0
  159.4670  201.6890  149.2280 C   0  0  0  0  0  2  0  0  0  0  0  0
  160.4270  202.1470  148.1390 C   0  0  2  0  0  3  0  0  0  0  0  0
  161.5550  201.9920  151.1090 N   0  0  0  0  0  0  0  0  0  0  0  0
  160.9770  203.9020  149.8090 O   0  0  0  0  0  0  0  0  0  0  0  0
  160.7380  200.8970  148.9700 C   0  0  1  0  0  3  0  0  0  0  0  0
  161.2660  210.6930  151.6660 N   0  0  0  0  0  2  0  0  0  0  0  0
  161.6110  208.8900  149.8150 C   0  0  0  0  0  0  0  0  0  0  0  0
  161.4480  209.7220  150.6710 C   0  0  0  0  0  0  0  0  0  0  0  0
  160.3350  205.7850  144.6780 C   0  0  0  0  0  2  0  0  0  0  0  0
  161.8210  207.9090  148.7890 C   0  0  0  0  0  0  0  0  0  0  0  0
  162.2260  206.0050  146.7740 C   0  0  0  0  0  0  0  0  0  0  0  0
  162.3980  205.0030  145.6980 C   0  0  0  0  0  0  0  0  0  0  0  0
  160.9680  206.6170  146.9270 C   0  0  0  0  0  0  0  0  0  0  0  0
  161.4850  204.8820  144.7770 N   0  0  0  0  0  0  0  0  0  0  0  0
  159.8220  206.1850  146.0630 C   0  0  0  0  0  2  0  0  0  0  0  0
  163.0730  207.3040  148.6410 C   0  0  0  0  0  3  0  0  0  0  0  0
  163.2770  206.3520  147.6360 C   0  0  0  0  0  3  0  0  0  0  0  0
  160.7670  207.5590  147.9400 C   0  0  0  0  0  3  0  0  0  0  0  0
  164.5790  204.3560  146.3910 O   0  0  0  0  0  0  0  0  0  0  0  0
  163.5610  204.1070  145.6910 C   0  0  0  0  0  3  0  0  0  0  0  0
  160.4110  212.9220  151.8490 N   0  0  0  0  0  2  0  0  0  0  0  0
  159.6910  213.6670  150.9000 N   0  0  0  0  0  2  0  0  0  0  0  0
  160.6350  214.2810  150.0610 N   0  0  0  0  0  2  0  0  0  0  0  0
  162.0790  212.5560  147.1690 C   0  0  0  0  0  3  0  0  0  0  0  0
  160.4320  214.1890  147.6170 C   0  0  2  0  0  3  0  0  0  0  0  0
  159.4340  213.2450  148.1740 N   0  0  0  0  0  2  0  0  0  0  0  0
  161.8310  212.4640  148.6300 C   0  0  0  0  0  2  0  0  0  0  0  0
  161.3040  213.4880  146.6270 C   0  0  0  0  0  0  0  0  0  0  0  0
  160.7160  213.4760  148.8520 C   0  0  2  0  0  0  0  0  0  0  0  0
  161.3030  213.7880  145.2220 N   0  0  0  0  0  0  0  0  0  0  0  0
  160.1740  214.4510  144.5880 C   0  0  0  0  0  1  0  0  0  0  0  0
  162.4870  213.5310  144.4160 C   0  0  0  0  0  1  0  0  0  0  0  0
  1 25  1  1  0  0  0
  1 40  1  0  0  0  0
  1  2  1  0  0  0  0
  2  3  1  0  0  0  0
  3  4  1  0  0  0  0
  3  6  1  0  0  0  0
  4  5  1  0  0  0  0
  6  7  1  0  0  0  0
  8  7  1  0  0  0  0
  9  8  1  0  0  0  0
  9 10  1  1  0  0  0
 11  9  1  0  0  0  0
 12 15  1  0  0  0  0
 13 12  1  0  0  0  0
 13 15  1  0  0  0  0
 15 11  1  6  0  0  0
 16 12  1  0  0  0  0
 16 14  2  0  0  0  0
 17 23  1  0  0  0  0
 18 22  1  0  0  0  0
 19 22  2  0  0  0  0
 19 16  1  0  0  0  0
 21 17  1  1  0  0  0
 21 24  1  0  0  0  0
 21 20  1  0  0  0  0
 23 19  1  0  0  0  0
 24 20  1  1  0  0  0
 24 18  1  0  0  0  0
 26 27  3  0  0  0  0
 27 25  1  0  0  0  0
 28 33  1  0  0  0  0
 28 34  1  0  0  0  0
 29 26  1  0  0  0  0
 30 32  2  0  0  0  0
 30 36  1  0  0  0  0
 31 30  1  0  0  0  0
 32 37  1  0  0  0  0
 33 31  2  0  0  0  0
 34 32  1  0  0  0  0
 35 29  1  0  0  0  0
 36 35  2  0  0  0  0
 37 29  2  0  0  0  0
 39 31  1  0  0  0  0
 39 38  2  0  0  0  0
 41 40  1  0  0  0  0
 42 41  1  0  0  0  0
 43 46  1  0  0  0  0
 44 47  1  6  0  0  0
 44 45  1  0  0  0  0
 44 48  1  0  0  0  0
 45 48  1  0  0  0  0
 46 48  1  0  0  0  0
 47 43  2  0  0  0  0
 48 42  1  1  0  0  0
 49 47  1  0  0  0  0
 50 49  1  0  0  0  0
 51 49  1  0  0  0  0
M  END
>  <MODEL>
8

>  <REMARK>
 VINA RESULT:      -5.0      3.032      8.464
  Name = 
  19 active torsions:
  status: ('A' for Active; 'I' for Inactive)
    1  A    between atoms: N_1  and  C_35
    2  A    between atoms: N_1  and  C_51
    3  A    between atoms: C_7  and  C_30
    4  A    between atoms: N_9  and  C_35
    5  A    between atoms: N_9  and  N_36
    6  A    between atoms: CA_12  and  C_22
    7  A    between atoms: N_13  and  N_21
    8  A    between atoms: N_13  and  N_46
    9  A    between atoms: C_16  and  C_43
   10  A    between atoms: N_21  and  C_48
   11  A    between atoms: C_25  and  C_38
   12  A    between atoms: C_25  and  N_40
   13  A    between atoms: N_27  and  C_47
   14  A    between atoms: C_28  and  C_33
   15  A    between atoms: C_28  and  N_36
   16  A    between atoms: C_33  and  N_40
   17  A    between atoms: C_34  and  N_36
   18  A    between atoms: C_35  and  N_46
   19  A    between atoms: C_38  and  C_42
                            x       y       z     vdW  Elec       q    Type
                         _______ _______ _______ _____ _____    ______ ____

>  <TORSDO>
F 19

$$$$
