=
 OpenBabel11052409473D

 26 28  0  0  1  0  0  0  0  0999 V2000
  161.7370  209.2060  150.8120 C   0  0  0  0  0  0  0  0  0  0  0  0
  161.0390  209.2350  152.0610 N   0  0  0  0  0  2  0  0  0  0  0  0
  161.8850  207.9770  150.0980 N   0  0  0  0  0  2  0  0  0  0  0  0
  162.2250  210.2920  150.3090 N   0  0  0  0  0  2  0  0  0  0  0  0
  159.3590  210.7810  152.9010 C   0  0  0  0  0  2  0  0  0  0  0  0
  160.8520  210.4460  152.8460 C   0  0  1  0  0  3  0  0  0  0  0  0
  159.1360  210.7740  155.6650 S   0  0  0  0  0  0  0  0  0  0  0  0
  161.4940  210.2850  154.2310 C   0  0  0  0  0  2  0  0  0  0  0  0
  157.6400  212.2500  153.9140 C   0  0  0  0  0  1  0  0  0  0  0  0
  159.0350  211.6870  154.0790 C   0  0  2  0  0  3  0  0  0  0  0  0
  160.5280  209.6550  155.2310 C   0  0  1  0  0  3  0  0  0  0  0  0
  161.2300  209.2060  156.4300 N   0  0  0  0  0  2  0  0  0  0  0  0
  160.2870  207.2660  156.7090 C   0  0  0  0  0  1  0  0  0  0  0  0
  161.4760  207.8770  156.3160 O   0  0  0  0  0  0  0  0  0  0  0  0
  161.3420  206.7140  150.5760 C   0  0  0  0  0  2  0  0  0  0  0  0
  161.2090  202.3670  146.5840 N   0  0  0  0  0  0  0  0  0  0  0  0
  161.4060  206.0710  148.1550 N   0  0  0  0  0  0  0  0  0  0  0  0
  161.3610  203.4180  145.7070 C   0  0  0  0  0  3  0  0  0  0  0  0
  161.2840  205.7140  149.4660 C   0  0  0  0  0  0  0  0  0  0  0  0
  161.1250  202.5490  147.9100 N   0  0  0  0  0  0  0  0  0  0  0  0
  161.3420  204.9030  147.4940 C   0  0  0  0  0  0  0  0  0  0  0  0
  161.4310  204.7070  146.1620 N   0  0  0  0  0  2  0  0  0  0  0  0
  161.1860  203.8120  148.3770 C   0  0  0  0  0  0  0  0  0  0  0  0
  161.1510  204.3310  149.6400 C   0  0  0  0  0  0  0  0  0  0  0  0
  160.9280  203.0200  151.8690 N   0  0  0  0  0  0  0  0  0  0  0  0
  161.0280  203.6050  150.8760 C   0  0  0  0  0  0  0  0  0  0  0  0
  1  2  1  0  0  0  0
  3 15  1  0  0  0  0
  3  1  1  0  0  0  0
  4  1  2  0  0  0  0
  5 10  1  0  0  0  0
  6  2  1  6  0  0  0
  6  5  1  0  0  0  0
  6  8  1  0  0  0  0
  8 11  1  0  0  0  0
 10  9  1  6  0  0  0
 10  7  1  0  0  0  0
 11  7  1  0  0  0  0
 11 12  1  1  0  0  0
 14 12  1  0  0  0  0
 14 13  1  0  0  0  0
 16 20  1  0  0  0  0
 17 19  1  0  0  0  0
 18 22  1  0  0  0  0
 18 16  2  0  0  0  0
 19 24  2  0  0  0  0
 19 15  1  0  0  0  0
 20 23  2  0  0  0  0
 21 17  2  0  0  0  0
 21 23  1  0  0  0  0
 22 21  1  0  0  0  0
 23 24  1  0  0  0  0
 24 26  1  0  0  0  0
 26 25  3  0  0  0  0
M  END
>  <MODEL>
1

>  <REMARK>
 VINA RESULT:      -7.3      0.000      0.000
  Name = 
  6 active torsions:
  status: ('A' for Active; 'I' for Inactive)
    1  A    between atoms: C_5  and  N_8
    2  A    between atoms: C_7  and  C_16
    3  A    between atoms: C_7  and  N_23
    4  A    between atoms: O_13  and  N_24
    5  A    between atoms: C_21  and  C_22
    6  A    between atoms: N_24  and  C_25
                            x       y       z     vdW  Elec       q    Type
                         _______ _______ _______ _____ _____    ______ ____

>  <TORSDO>
F 6

$$$$
=
 OpenBabel11052409473D

 26 28  0  0  1  0  0  0  0  0999 V2000
  161.6210  208.5940  151.3350 C   0  0  0  0  0  0  0  0  0  0  0  0
  160.8600  208.9280  152.5000 N   0  0  0  0  0  2  0  0  0  0  0  0
  161.6090  207.2580  150.8250 N   0  0  0  0  0  2  0  0  0  0  0  0
  162.3130  209.4980  150.7220 N   0  0  0  0  0  2  0  0  0  0  0  0
  159.4570  210.8910  152.8080 C   0  0  0  0  0  2  0  0  0  0  0  0
  160.8260  210.2630  153.0780 C   0  0  1  0  0  3  0  0  0  0  0  0
  158.8030  211.3760  155.4590 S   0  0  0  0  0  0  0  0  0  0  0  0
  161.1890  210.2040  154.5690 C   0  0  0  0  0  2  0  0  0  0  0  0
  157.9710  212.8160  153.2870 C   0  0  0  0  0  1  0  0  0  0  0  0
  159.1610  212.0220  153.7820 C   0  0  2  0  0  3  0  0  0  0  0  0
  159.9610  209.9480  155.4390 C   0  0  1  0  0  3  0  0  0  0  0  0
  160.3460  209.5700  156.7960 N   0  0  0  0  0  2  0  0  0  0  0  0
  160.1740  207.4020  156.7710 C   0  0  0  0  0  1  0  0  0  0  0  0
  161.0990  208.4430  156.7330 O   0  0  0  0  0  0  0  0  0  0  0  0
  160.8360  206.1860  151.4350 C   0  0  0  0  0  2  0  0  0  0  0  0
  161.0950  201.5800  147.7520 N   0  0  0  0  0  2  0  0  0  0  0  0
  160.9040  203.6950  151.1750 N   0  0  0  0  0  0  0  0  0  0  0  0
  161.0280  200.8700  148.9310 C   0  0  0  0  0  3  0  0  0  0  0  0
  160.9340  204.9390  150.6170 C   0  0  0  0  0  0  0  0  0  0  0  0
  161.1020  202.9200  147.7250 N   0  0  0  0  0  0  0  0  0  0  0  0
  160.9770  202.8640  150.1210 C   0  0  0  0  0  0  0  0  0  0  0  0
  160.9650  201.5150  150.1370 N   0  0  0  0  0  0  0  0  0  0  0  0
  161.0460  203.5750  148.9020 C   0  0  0  0  0  0  0  0  0  0  0  0
  161.0170  204.9030  149.2190 C   0  0  0  0  0  0  0  0  0  0  0  0
  161.0640  206.9100  147.5750 N   0  0  0  0  0  0  0  0  0  0  0  0
  161.0430  206.0150  148.3070 C   0  0  0  0  0  0  0  0  0  0  0  0
  1  2  1  0  0  0  0
  3  1  1  0  0  0  0
  3 15  1  0  0  0  0
  4  1  2  0  0  0  0
  5  6  1  0  0  0  0
  5 10  1  0  0  0  0
  6  2  1  1  0  0  0
  6  8  1  0  0  0  0
  8 11  1  0  0  0  0
 10  9  1  6  0  0  0
 10  7  1  0  0  0  0
 11  7  1  0  0  0  0
 11 12  1  1  0  0  0
 14 13  1  0  0  0  0
 14 12  1  0  0  0  0
 16 18  1  0  0  0  0
 18 22  2  0  0  0  0
 19 17  1  0  0  0  0
 19 15  1  0  0  0  0
 20 16  1  0  0  0  0
 20 23  2  0  0  0  0
 21 22  1  0  0  0  0
 21 17  2  0  0  0  0
 23 24  1  0  0  0  0
 23 21  1  0  0  0  0
 24 19  2  0  0  0  0
 25 26  3  0  0  0  0
 26 24  1  0  0  0  0
M  END
>  <MODEL>
2

>  <REMARK>
 VINA RESULT:      -6.7      1.126      2.225
  Name = 
  6 active torsions:
  status: ('A' for Active; 'I' for Inactive)
    1  A    between atoms: C_5  and  N_8
    2  A    between atoms: C_7  and  C_16
    3  A    between atoms: C_7  and  N_23
    4  A    between atoms: O_13  and  N_24
    5  A    between atoms: C_21  and  C_22
    6  A    between atoms: N_24  and  C_25
                            x       y       z     vdW  Elec       q    Type
                         _______ _______ _______ _____ _____    ______ ____

>  <TORSDO>
F 6

$$$$
=
 OpenBabel11052409473D

 26 28  0  0  1  0  0  0  0  0999 V2000
  162.0320  209.7110  149.8020 C   0  0  0  0  0  0  0  0  0  0  0  0
  161.9490  210.5470  148.6420 N   0  0  0  0  0  2  0  0  0  0  0  0
  161.8100  208.3040  149.6940 N   0  0  0  0  0  2  0  0  0  0  0  0
  162.3250  210.2180  150.9550 N   0  0  0  0  0  2  0  0  0  0  0  0
  162.5380  212.4690  147.2730 C   0  0  0  0  0  2  0  0  0  0  0  0
  162.1600  211.9860  148.6750 C   0  0  1  0  0  3  0  0  0  0  0  0
  160.4780  214.3060  147.0050 S   0  0  0  0  0  0  0  0  0  0  0  0
  160.9230  212.6890  149.2520 C   0  0  0  0  0  2  0  0  0  0  0  0
  162.9520  214.4530  145.8480 C   0  0  0  0  0  1  0  0  0  0  0  0
  162.2750  213.9580  147.1070 C   0  0  2  0  0  3  0  0  0  0  0  0
  159.8970  213.0050  148.1670 C   0  0  1  0  0  3  0  0  0  0  0  0
  158.6080  213.3660  148.7510 N   0  0  0  0  0  2  0  0  0  0  0  0
  157.3620  212.5300  147.1750 C   0  0  0  0  0  1  0  0  0  0  0  0
  157.7670  213.7320  147.7500 O   0  0  0  0  0  0  0  0  0  0  0  0
  161.5040  207.6460  148.4310 C   0  0  0  0  0  2  0  0  0  0  0  0
  160.9670  201.7710  148.6450 N   0  0  0  0  0  2  0  0  0  0  0  0
  160.9610  205.6270  149.8120 N   0  0  0  0  0  0  0  0  0  0  0  0
  160.5960  202.0380  149.9450 C   0  0  0  0  0  3  0  0  0  0  0  0
  161.3670  206.1710  148.6290 C   0  0  0  0  0  0  0  0  0  0  0  0
  161.3190  202.7410  147.7890 N   0  0  0  0  0  0  0  0  0  0  0  0
  160.9310  204.3060  149.5680 C   0  0  0  0  0  0  0  0  0  0  0  0
  160.5730  203.3210  150.4190 N   0  0  0  0  0  0  0  0  0  0  0  0
  161.3080  204.0130  148.2390 C   0  0  0  0  0  0  0  0  0  0  0  0
  161.5860  205.2070  147.6360 C   0  0  0  0  0  0  0  0  0  0  0  0
  162.3180  205.5900  145.1760 N   0  0  0  0  0  0  0  0  0  0  0  0
  161.9910  205.4190  146.2730 C   0  0  0  0  0  0  0  0  0  0  0  0
  1  4  2  0  0  0  0
  2  1  1  0  0  0  0
  3  1  1  0  0  0  0
  5  6  1  0  0  0  0
  6  2  1  6  0  0  0
  6  8  1  0  0  0  0
  7 10  1  0  0  0  0
  7 11  1  0  0  0  0
 10  9  1  6  0  0  0
 10  5  1  0  0  0  0
 11 12  1  1  0  0  0
 11  8  1  0  0  0  0
 13 14  1  0  0  0  0
 14 12  1  0  0  0  0
 15 19  1  0  0  0  0
 15  3  1  0  0  0  0
 16 18  1  0  0  0  0
 18 22  2  0  0  0  0
 19 17  1  0  0  0  0
 20 23  2  0  0  0  0
 20 16  1  0  0  0  0
 21 17  2  0  0  0  0
 21 22  1  0  0  0  0
 23 21  1  0  0  0  0
 24 23  1  0  0  0  0
 24 19  2  0  0  0  0
 25 26  3  0  0  0  0
 26 24  1  0  0  0  0
M  END
>  <MODEL>
3

>  <REMARK>
 VINA RESULT:      -6.7      4.248      5.891
  Name = 
  6 active torsions:
  status: ('A' for Active; 'I' for Inactive)
    1  A    between atoms: C_5  and  N_8
    2  A    between atoms: C_7  and  C_16
    3  A    between atoms: C_7  and  N_23
    4  A    between atoms: O_13  and  N_24
    5  A    between atoms: C_21  and  C_22
    6  A    between atoms: N_24  and  C_25
                            x       y       z     vdW  Elec       q    Type
                         _______ _______ _______ _____ _____    ______ ____

>  <TORSDO>
F 6

$$$$
=
 OpenBabel11052409473D

 26 28  0  0  1  0  0  0  0  0999 V2000
  161.8620  209.5400  152.0770 C   0  0  0  0  0  0  0  0  0  0  0  0
  160.5960  210.0400  152.5200 N   0  0  0  0  0  2  0  0  0  0  0  0
  161.9710  208.2160  151.5510 N   0  0  0  0  0  2  0  0  0  0  0  0
  162.9170  210.2870  152.1330 N   0  0  0  0  0  2  0  0  0  0  0  0
  159.7180  212.2540  152.0250 C   0  0  0  0  0  2  0  0  0  0  0  0
  160.4090  211.3730  153.0700 C   0  0  1  0  0  3  0  0  0  0  0  0
  157.5390  212.9530  153.5910 S   0  0  0  0  0  0  0  0  0  0  0  0
  159.6500  211.2960  154.4020 C   0  0  0  0  0  2  0  0  0  0  0  0
  158.6590  214.4530  151.5970 C   0  0  0  0  0  1  0  0  0  0  0  0
  159.0410  213.4550  152.6680 C   0  0  2  0  0  3  0  0  0  0  0  0
  158.1380  211.3220  154.1930 C   0  0  1  0  0  3  0  0  0  0  0  0
  157.4320  210.9230  155.4070 N   0  0  0  0  0  2  0  0  0  0  0  0
  155.3550  210.3040  155.2180 C   0  0  0  0  0  1  0  0  0  0  0  0
  156.1710  211.4240  155.3590 O   0  0  0  0  0  0  0  0  0  0  0  0
  160.8300  207.3190  151.4240 C   0  0  0  0  0  2  0  0  0  0  0  0
  161.4680  203.5600  146.9180 N   0  0  0  0  0  0  0  0  0  0  0  0
  161.1010  207.0170  148.9520 N   0  0  0  0  0  0  0  0  0  0  0  0
  161.5260  204.7290  146.1920 C   0  0  0  0  0  3  0  0  0  0  0  0
  160.9600  206.4770  150.1960 C   0  0  0  0  0  0  0  0  0  0  0  0
  161.2930  203.5520  148.2470 N   0  0  0  0  0  0  0  0  0  0  0  0
  161.2230  205.9490  148.1460 C   0  0  0  0  0  0  0  0  0  0  0  0
  161.4050  205.9450  146.8090 N   0  0  0  0  0  2  0  0  0  0  0  0
  161.1660  204.7390  148.8730 C   0  0  0  0  0  0  0  0  0  0  0  0
  160.9990  205.0770  150.1860 C   0  0  0  0  0  0  0  0  0  0  0  0
  160.8350  203.4640  152.2130 N   0  0  0  0  0  0  0  0  0  0  0  0
  160.9090  204.1830  151.3090 C   0  0  0  0  0  0  0  0  0  0  0  0
  1  4  2  0  0  0  0
  1  2  1  0  0  0  0
  3  1  1  0  0  0  0
  5 10  1  0  0  0  0
  5  6  1  0  0  0  0
  6  2  1  6  0  0  0
  6  8  1  0  0  0  0
  7 11  1  0  0  0  0
 10  9  1  6  0  0  0
 10  7  1  0  0  0  0
 11  8  1  0  0  0  0
 11 12  1  1  0  0  0
 13 14  1  0  0  0  0
 14 12  1  0  0  0  0
 15  3  1  0  0  0  0
 16 20  1  0  0  0  0
 17 19  1  0  0  0  0
 18 22  1  0  0  0  0
 18 16  2  0  0  0  0
 19 15  1  0  0  0  0
 20 23  2  0  0  0  0
 21 23  1  0  0  0  0
 21 17  2  0  0  0  0
 22 21  1  0  0  0  0
 23 24  1  0  0  0  0
 24 19  2  0  0  0  0
 24 26  1  0  0  0  0
 26 25  3  0  0  0  0
M  END
>  <MODEL>
4

>  <REMARK>
 VINA RESULT:      -6.4      2.208      2.527
  Name = 
  6 active torsions:
  status: ('A' for Active; 'I' for Inactive)
    1  A    between atoms: C_5  and  N_8
    2  A    between atoms: C_7  and  C_16
    3  A    between atoms: C_7  and  N_23
    4  A    between atoms: O_13  and  N_24
    5  A    between atoms: C_21  and  C_22
    6  A    between atoms: N_24  and  C_25
                            x       y       z     vdW  Elec       q    Type
                         _______ _______ _______ _____ _____    ______ ____

>  <TORSDO>
F 6

$$$$
=
 OpenBabel11052409473D

 26 28  0  0  1  0  0  0  0  0999 V2000
  161.8940  208.9540  149.8240 C   0  0  0  0  0  0  0  0  0  0  0  0
  161.2520  207.6800  149.9480 N   0  0  0  0  0  2  0  0  0  0  0  0
  162.3180  209.6630  150.9890 N   0  0  0  0  0  2  0  0  0  0  0  0
  162.1110  209.4660  148.6570 N   0  0  0  0  0  2  0  0  0  0  0  0
  161.9690  206.6410  147.8690 C   0  0  0  0  0  2  0  0  0  0  0  0
  160.7900  206.9010  148.8100 C   0  0  1  0  0  3  0  0  0  0  0  0
  161.7920  203.8740  147.8990 S   0  0  0  0  0  0  0  0  0  0  0  0
  160.0960  205.6190  149.2910 C   0  0  0  0  0  2  0  0  0  0  0  0
  162.7290  205.4230  145.8500 C   0  0  0  0  0  1  0  0  0  0  0  0
  161.7050  205.4470  146.9630 C   0  0  2  0  0  3  0  0  0  0  0  0
  161.0920  204.4790  149.4880 C   0  0  1  0  0  3  0  0  0  0  0  0
  160.4940  203.3830  150.2460 N   0  0  0  0  0  2  0  0  0  0  0  0
  160.8990  203.8250  152.3370 C   0  0  0  0  0  1  0  0  0  0  0  0
  161.3310  203.0520  151.2610 O   0  0  0  0  0  0  0  0  0  0  0  0
  162.1400  209.1470  152.3390 C   0  0  0  0  0  2  0  0  0  0  0  0
  157.7420  211.5480  155.4600 N   0  0  0  0  0  0  0  0  0  0  0  0
  160.2220  210.7580  152.3850 N   0  0  0  0  0  0  0  0  0  0  0  0
  157.5080  212.2080  154.2740 C   0  0  0  0  0  3  0  0  0  0  0  0
  161.0180  209.8550  153.0270 C   0  0  0  0  0  0  0  0  0  0  0  0
  158.7510  210.6770  155.6060 N   0  0  0  0  0  0  0  0  0  0  0  0
  159.3310  211.1280  153.3210 C   0  0  0  0  0  0  0  0  0  0  0  0
  158.3090  211.9990  153.1840 N   0  0  0  0  0  2  0  0  0  0  0  0
  159.5550  210.4610  154.5460 C   0  0  0  0  0  0  0  0  0  0  0  0
  160.6340  209.6440  154.3570 C   0  0  0  0  0  0  0  0  0  0  0  0
  161.7000  208.0280  156.0860 N   0  0  0  0  0  0  0  0  0  0  0  0
  161.2250  208.7490  155.3150 C   0  0  0  0  0  0  0  0  0  0  0  0
  1  2  1  0  0  0  0
  1  3  1  0  0  0  0
  3 15  1  0  0  0  0
  4  1  2  0  0  0  0
  5  6  1  0  0  0  0
  6  8  1  0  0  0  0
  6  2  1  1  0  0  0
  7 11  1  0  0  0  0
  8 11  1  0  0  0  0
 10  9  1  6  0  0  0
 10  5  1  0  0  0  0
 10  7  1  0  0  0  0
 11 12  1  6  0  0  0
 12 14  1  0  0  0  0
 14 13  1  0  0  0  0
 15 19  1  0  0  0  0
 16 20  1  0  0  0  0
 17 19  1  0  0  0  0
 17 21  2  0  0  0  0
 18 16  2  0  0  0  0
 19 24  2  0  0  0  0
 21 23  1  0  0  0  0
 22 21  1  0  0  0  0
 22 18  1  0  0  0  0
 23 20  2  0  0  0  0
 24 23  1  0  0  0  0
 24 26  1  0  0  0  0
 26 25  3  0  0  0  0
M  END
>  <MODEL>
5

>  <REMARK>
 VINA RESULT:      -6.3      3.068      8.015
  Name = 
  6 active torsions:
  status: ('A' for Active; 'I' for Inactive)
    1  A    between atoms: C_5  and  N_8
    2  A    between atoms: C_7  and  C_16
    3  A    between atoms: C_7  and  N_23
    4  A    between atoms: O_13  and  N_24
    5  A    between atoms: C_21  and  C_22
    6  A    between atoms: N_24  and  C_25
                            x       y       z     vdW  Elec       q    Type
                         _______ _______ _______ _____ _____    ______ ____

>  <TORSDO>
F 6

$$$$
=
 OpenBabel11052409473D

 26 28  0  0  1  0  0  0  0  0999 V2000
  161.8210  209.1990  151.9670 C   0  0  0  0  0  0  0  0  0  0  0  0
  160.7690  209.7040  152.7960 N   0  0  0  0  0  2  0  0  0  0  0  0
  161.8900  207.8050  151.6590 N   0  0  0  0  0  2  0  0  0  0  0  0
  162.7080  210.0000  151.4740 N   0  0  0  0  0  2  0  0  0  0  0  0
  159.9440  211.8540  152.0110 C   0  0  0  0  0  2  0  0  0  0  0  0
  160.6350  211.1070  153.1550 C   0  0  1  0  0  3  0  0  0  0  0  0
  157.8280  212.8380  153.5080 S   0  0  0  0  0  0  0  0  0  0  0  0
  159.9090  211.2440  154.5010 C   0  0  0  0  0  2  0  0  0  0  0  0
  158.9400  214.0040  151.2980 C   0  0  0  0  0  1  0  0  0  0  0  0
  159.3200  213.1550  152.4920 C   0  0  2  0  0  3  0  0  0  0  0  0
  158.3940  211.2900  154.3220 C   0  0  1  0  0  3  0  0  0  0  0  0
  157.7080  211.0890  155.5950 N   0  0  0  0  0  2  0  0  0  0  0  0
  155.8890  211.7210  156.6070 C   0  0  0  0  0  1  0  0  0  0  0  0
  156.3730  211.2330  155.3950 O   0  0  0  0  0  0  0  0  0  0  0  0
  160.9170  206.8380  152.1460 C   0  0  0  0  0  2  0  0  0  0  0  0
  160.9810  202.2370  148.4490 N   0  0  0  0  0  2  0  0  0  0  0  0
  160.8670  204.3480  151.8780 N   0  0  0  0  0  0  0  0  0  0  0  0
  160.8710  201.5280  149.6240 C   0  0  0  0  0  3  0  0  0  0  0  0
  160.9610  205.5910  151.3250 C   0  0  0  0  0  0  0  0  0  0  0  0
  161.0520  203.5760  148.4260 N   0  0  0  0  0  0  0  0  0  0  0  0
  160.9080  203.5180  150.8220 C   0  0  0  0  0  0  0  0  0  0  0  0
  160.8310  202.1710  150.8320 N   0  0  0  0  0  0  0  0  0  0  0  0
  161.0200  204.2280  149.6060 C   0  0  0  0  0  0  0  0  0  0  0  0
  161.0520  205.5550  149.9270 C   0  0  0  0  0  0  0  0  0  0  0  0
  161.2070  207.5630  148.2900 N   0  0  0  0  0  0  0  0  0  0  0  0
  161.1380  206.6680  149.0200 C   0  0  0  0  0  0  0  0  0  0  0  0
  1  2  1  0  0  0  0
  3  1  1  0  0  0  0
  3 15  1  0  0  0  0
  4  1  2  0  0  0  0
  5 10  1  0  0  0  0
  5  6  1  0  0  0  0
  6  2  1  6  0  0  0
  6  8  1  0  0  0  0
  7 11  1  0  0  0  0
 10  9  1  6  0  0  0
 10  7  1  0  0  0  0
 11  8  1  0  0  0  0
 11 12  1  1  0  0  0
 14 12  1  0  0  0  0
 14 13  1  0  0  0  0
 16 18  1  0  0  0  0
 18 22  2  0  0  0  0
 19 17  1  0  0  0  0
 19 15  1  0  0  0  0
 20 16  1  0  0  0  0
 20 23  2  0  0  0  0
 21 22  1  0  0  0  0
 21 17  2  0  0  0  0
 23 24  1  0  0  0  0
 23 21  1  0  0  0  0
 24 19  2  0  0  0  0
 25 26  3  0  0  0  0
 26 24  1  0  0  0  0
M  END
>  <MODEL>
6

>  <REMARK>
 VINA RESULT:      -6.3      2.318      3.285
  Name = 
  6 active torsions:
  status: ('A' for Active; 'I' for Inactive)
    1  A    between atoms: C_5  and  N_8
    2  A    between atoms: C_7  and  C_16
    3  A    between atoms: C_7  and  N_23
    4  A    between atoms: O_13  and  N_24
    5  A    between atoms: C_21  and  C_22
    6  A    between atoms: N_24  and  C_25
                            x       y       z     vdW  Elec       q    Type
                         _______ _______ _______ _____ _____    ______ ____

>  <TORSDO>
F 6

$$$$
=
 OpenBabel11052409473D

 26 28  0  0  1  0  0  0  0  0999 V2000
  161.7390  206.2070  152.5000 C   0  0  0  0  0  0  0  0  0  0  0  0
  161.0660  207.4340  152.1980 N   0  0  0  0  0  2  0  0  0  0  0  0
  161.3120  204.9830  151.8990 N   0  0  0  0  0  2  0  0  0  0  0  0
  162.7510  206.1970  153.3060 N   0  0  0  0  0  2  0  0  0  0  0  0
  160.5850  209.8180  152.1430 C   0  0  0  0  0  2  0  0  0  0  0  0
  161.4410  208.7170  152.7720 C   0  0  1  0  0  3  0  0  0  0  0  0
  159.5200  210.7840  154.5140 S   0  0  0  0  0  0  0  0  0  0  0  0
  161.3390  208.6620  154.3030 C   0  0  0  0  0  2  0  0  0  0  0  0
  159.9710  212.2170  152.2280 C   0  0  0  0  0  1  0  0  0  0  0  0
  160.5440  211.0610  153.0190 C   0  0  2  0  0  3  0  0  0  0  0  0
  159.9350  209.0140  154.7880 C   0  0  1  0  0  3  0  0  0  0  0  0
  159.7540  208.6470  156.1900 N   0  0  0  0  0  2  0  0  0  0  0  0
  160.4060  206.8650  157.2540 C   0  0  0  0  0  1  0  0  0  0  0  0
  159.5340  207.3100  156.2620 O   0  0  0  0  0  0  0  0  0  0  0  0
  160.2020  204.9090  150.9590 C   0  0  0  0  0  2  0  0  0  0  0  0
  162.3040  204.2310  145.4850 N   0  0  0  0  0  2  0  0  0  0  0  0
  161.0500  206.0100  148.8750 N   0  0  0  0  0  0  0  0  0  0  0  0
  162.3690  205.6060  145.5390 C   0  0  0  0  0  3  0  0  0  0  0  0
  160.7090  204.8780  149.5530 C   0  0  0  0  0  0  0  0  0  0  0  0
  161.8420  203.4980  146.5070 N   0  0  0  0  0  0  0  0  0  0  0  0
  161.4850  205.5580  147.6860 C   0  0  0  0  0  0  0  0  0  0  0  0
  161.9570  206.2860  146.6530 N   0  0  0  0  0  0  0  0  0  0  0  0
  161.4260  204.1480  147.6120 C   0  0  0  0  0  0  0  0  0  0  0  0
  160.9310  203.7120  148.8080 C   0  0  0  0  0  0  0  0  0  0  0  0
  160.5330  201.2540  149.5400 N   0  0  0  0  0  0  0  0  0  0  0  0
  160.7110  202.3500  149.2140 C   0  0  0  0  0  0  0  0  0  0  0  0
  1  4  2  0  0  0  0
  2  1  1  0  0  0  0
  3  1  1  0  0  0  0
  5  6  1  0  0  0  0
  5 10  1  0  0  0  0
  6  2  1  6  0  0  0
  6  8  1  0  0  0  0
  7 11  1  0  0  0  0
  8 11  1  0  0  0  0
 10  9  1  6  0  0  0
 10  7  1  0  0  0  0
 11 12  1  1  0  0  0
 12 14  1  0  0  0  0
 14 13  1  0  0  0  0
 15  3  1  0  0  0  0
 16 18  1  0  0  0  0
 16 20  1  0  0  0  0
 17 19  1  0  0  0  0
 18 22  2  0  0  0  0
 19 15  1  0  0  0  0
 20 23  2  0  0  0  0
 21 17  2  0  0  0  0
 22 21  1  0  0  0  0
 23 21  1  0  0  0  0
 23 24  1  0  0  0  0
 24 26  1  0  0  0  0
 24 19  2  0  0  0  0
 26 25  3  0  0  0  0
M  END
>  <MODEL>
7

>  <REMARK>
 VINA RESULT:      -6.1      1.705      2.187
  Name = 
  6 active torsions:
  status: ('A' for Active; 'I' for Inactive)
    1  A    between atoms: C_5  and  N_8
    2  A    between atoms: C_7  and  C_16
    3  A    between atoms: C_7  and  N_23
    4  A    between atoms: O_13  and  N_24
    5  A    between atoms: C_21  and  C_22
    6  A    between atoms: N_24  and  C_25
                            x       y       z     vdW  Elec       q    Type
                         _______ _______ _______ _____ _____    ______ ____

>  <TORSDO>
F 6

$$$$
=
 OpenBabel11052409473D

 26 28  0  0  1  0  0  0  0  0999 V2000
  161.1470  206.8770  153.7060 C   0  0  0  0  0  0  0  0  0  0  0  0
  160.7450  208.2160  154.0160 N   0  0  0  0  0  2  0  0  0  0  0  0
  161.1930  206.4350  152.3480 N   0  0  0  0  0  2  0  0  0  0  0  0
  161.4880  206.0610  154.6490 N   0  0  0  0  0  2  0  0  0  0  0  0
  161.9150  209.5810  155.6550 C   0  0  0  0  0  2  0  0  0  0  0  0
  160.6700  208.7360  155.3730 C   0  0  1  0  0  3  0  0  0  0  0  0
  160.5690  211.9160  156.3090 S   0  0  0  0  0  0  0  0  0  0  0  0
  159.3540  209.4980  155.5770 C   0  0  0  0  0  2  0  0  0  0  0  0
  163.0070  211.1210  157.2590 C   0  0  0  0  0  1  0  0  0  0  0  0
  161.6820  210.5470  156.8070 C   0  0  2  0  0  3  0  0  0  0  0  0
  159.4830  210.9640  155.1710 C   0  0  1  0  0  3  0  0  0  0  0  0
  158.1710  211.5950  155.0540 N   0  0  0  0  0  2  0  0  0  0  0  0
  156.0410  211.1550  155.0120 C   0  0  0  0  0  1  0  0  0  0  0  0
  157.2430  210.7700  155.6010 O   0  0  0  0  0  0  0  0  0  0  0  0
  160.8550  207.2960  151.2240 C   0  0  0  0  0  2  0  0  0  0  0  0
  162.1470  205.1450  145.8800 N   0  0  0  0  0  2  0  0  0  0  0  0
  160.9690  205.2880  149.7300 N   0  0  0  0  0  0  0  0  0  0  0  0
  161.7240  203.9680  146.4560 C   0  0  0  0  0  3  0  0  0  0  0  0
  161.1780  206.6210  149.9300 C   0  0  0  0  0  0  0  0  0  0  0  0
  162.1770  206.3010  146.5580 N   0  0  0  0  0  0  0  0  0  0  0  0
  161.3430  205.0890  148.4550 C   0  0  0  0  0  0  0  0  0  0  0  0
  161.3120  203.9320  147.7610 N   0  0  0  0  0  0  0  0  0  0  0  0
  161.7810  206.2860  147.8470 C   0  0  0  0  0  0  0  0  0  0  0  0
  161.6740  207.2680  148.7910 C   0  0  0  0  0  0  0  0  0  0  0  0
  162.2320  209.7870  148.5060 N   0  0  0  0  0  0  0  0  0  0  0  0
  161.9830  208.6640  148.6330 C   0  0  0  0  0  0  0  0  0  0  0  0
  1  2  1  0  0  0  0
  1  4  2  0  0  0  0
  3  1  1  0  0  0  0
  5 10  1  0  0  0  0
  6  2  1  6  0  0  0
  6  8  1  0  0  0  0
  6  5  1  0  0  0  0
  7 10  1  0  0  0  0
 10  9  1  6  0  0  0
 11 12  1  1  0  0  0
 11  8  1  0  0  0  0
 11  7  1  0  0  0  0
 12 14  1  0  0  0  0
 13 14  1  0  0  0  0
 15  3  1  0  0  0  0
 16 18  1  0  0  0  0
 16 20  1  0  0  0  0
 17 19  1  0  0  0  0
 18 22  2  0  0  0  0
 19 15  1  0  0  0  0
 20 23  2  0  0  0  0
 21 17  2  0  0  0  0
 22 21  1  0  0  0  0
 23 21  1  0  0  0  0
 23 24  1  0  0  0  0
 24 19  2  0  0  0  0
 25 26  3  0  0  0  0
 26 24  1  0  0  0  0
M  END
>  <MODEL>
8

>  <REMARK>
 VINA RESULT:      -6.0      2.304      3.838
  Name = 
  6 active torsions:
  status: ('A' for Active; 'I' for Inactive)
    1  A    between atoms: C_5  and  N_8
    2  A    between atoms: C_7  and  C_16
    3  A    between atoms: C_7  and  N_23
    4  A    between atoms: O_13  and  N_24
    5  A    between atoms: C_21  and  C_22
    6  A    between atoms: N_24  and  C_25
                            x       y       z     vdW  Elec       q    Type
                         _______ _______ _______ _____ _____    ______ ____

>  <TORSDO>
F 6

$$$$
=
 OpenBabel11052409473D

 26 28  0  0  1  0  0  0  0  0999 V2000
  161.0710  208.6020  153.4380 C   0  0  0  0  0  0  0  0  0  0  0  0
  161.2000  208.2080  152.0680 N   0  0  0  0  0  2  0  0  0  0  0  0
  160.3610  209.7940  153.7820 N   0  0  0  0  0  2  0  0  0  0  0  0
  161.5790  207.8750  154.3800 N   0  0  0  0  0  2  0  0  0  0  0  0
  161.1190  205.7770  152.0800 C   0  0  0  0  0  2  0  0  0  0  0  0
  161.9100  207.0120  151.6420 C   0  0  1  0  0  3  0  0  0  0  0  0
  160.8360  204.6690  149.5550 S   0  0  0  0  0  0  0  0  0  0  0  0
  162.1750  207.0630  150.1310 C   0  0  0  0  0  2  0  0  0  0  0  0
  160.9470  203.3100  151.9260 C   0  0  0  0  0  1  0  0  0  0  0  0
  161.4970  204.5530  151.2600 C   0  0  2  0  0  3  0  0  0  0  0  0
  161.0090  206.4860  149.3330 C   0  0  1  0  0  3  0  0  0  0  0  0
  161.1160  206.8310  147.9180 N   0  0  0  0  0  2  0  0  0  0  0  0
  162.0520  205.8220  146.2340 C   0  0  0  0  0  1  0  0  0  0  0  0
  162.3260  206.4180  147.4630 O   0  0  0  0  0  0  0  0  0  0  0  0
  159.7330  210.6550  152.7890 C   0  0  0  0  0  2  0  0  0  0  0  0
  155.5440  214.2520  154.8770 N   0  0  0  0  0  2  0  0  0  0  0  0
  158.1200  211.1640  154.6370 N   0  0  0  0  0  0  0  0  0  0  0  0
  155.5810  213.3760  155.9390 C   0  0  0  0  0  3  0  0  0  0  0  0
  158.6410  211.4620  153.4130 C   0  0  0  0  0  0  0  0  0  0  0  0
  156.3230  214.0980  153.7970 N   0  0  0  0  0  0  0  0  0  0  0  0
  157.2100  212.1310  154.8470 C   0  0  0  0  0  0  0  0  0  0  0  0
  156.4250  212.2990  155.9320 N   0  0  0  0  0  0  0  0  0  0  0  0
  157.1580  213.0400  153.7680 C   0  0  0  0  0  0  0  0  0  0  0  0
  158.0750  212.6130  152.8500 C   0  0  0  0  0  0  0  0  0  0  0  0
  158.6590  213.7280  150.5800 N   0  0  0  0  0  0  0  0  0  0  0  0
  158.3990  213.2310  151.5910 C   0  0  0  0  0  0  0  0  0  0  0  0
  1  3  1  0  0  0  0
  1  4  2  0  0  0  0
  2  1  1  0  0  0  0
  6  2  1  6  0  0  0
  6  5  1  0  0  0  0
  7 10  1  0  0  0  0
  8  6  1  0  0  0  0
 10  9  1  1  0  0  0
 10  5  1  0  0  0  0
 11 12  1  6  0  0  0
 11  7  1  0  0  0  0
 11  8  1  0  0  0  0
 13 14  1  0  0  0  0
 14 12  1  0  0  0  0
 15 19  1  0  0  0  0
 15  3  1  0  0  0  0
 16 18  1  0  0  0  0
 17 21  2  0  0  0  0
 19 17  1  0  0  0  0
 20 16  1  0  0  0  0
 21 22  1  0  0  0  0
 22 18  2  0  0  0  0
 23 20  2  0  0  0  0
 23 21  1  0  0  0  0
 24 19  2  0  0  0  0
 24 23  1  0  0  0  0
 25 26  3  0  0  0  0
 26 24  1  0  0  0  0
M  END
>  <MODEL>
9

>  <REMARK>
 VINA RESULT:      -6.0      3.873      9.298
  Name = 
  6 active torsions:
  status: ('A' for Active; 'I' for Inactive)
    1  A    between atoms: C_5  and  N_8
    2  A    between atoms: C_7  and  C_16
    3  A    between atoms: C_7  and  N_23
    4  A    between atoms: O_13  and  N_24
    5  A    between atoms: C_21  and  C_22
    6  A    between atoms: N_24  and  C_25
                            x       y       z     vdW  Elec       q    Type
                         _______ _______ _______ _____ _____    ______ ____

>  <TORSDO>
F 6

$$$$
