=
 OpenBabel11052410423D

 68 76  0  0  1  0  0  0  0  0999 V2000
  159.9330  205.8290  150.2170 C   0  0  0  0  0  1  0  0  0  0  0  0
  162.4740  207.8830  148.3750 O   0  0  0  0  0  0  0  0  0  0  0  0
  161.0180  208.1000  150.7780 C   0  0  2  0  0  3  0  0  0  0  0  0
  160.9250  206.8880  149.8790 C   0  0  0  0  0  0  0  0  0  0  0  0
  161.8410  209.1730  150.2180 N   0  0  0  0  0  0  0  0  0  0  0  0
  161.6310  206.8230  148.7410 C   0  0  0  0  0  0  0  0  0  0  0  0
  162.5200  209.0680  149.1210 C   0  0  0  0  0  0  0  0  0  0  0  0
  163.2700  210.1640  148.6970 O   0  0  0  0  0  0  0  0  0  0  0  0
  162.6940  211.4240  148.3860 C   0  0  0  0  0  2  0  0  0  0  0  0
  161.4090  211.2180  147.5900 C   0  0  0  0  0  2  0  0  0  0  0  0
  161.0540  212.4230  146.7290 C   0  0  0  0  0  2  0  0  0  0  0  0
  158.6540  212.9600  146.1150 C   0  0  1  0  0  0  0  0  0  0  0  0
  159.4110  214.1170  146.3480 O   0  0  0  0  0  0  0  0  0  0  0  0
  159.7120  213.0070  147.1620 C   0  0  2  0  0  3  0  0  0  0  0  0
  157.2160  213.1660  146.6150 C   0  0  1  0  0  0  0  0  0  0  0  0
  157.1050  214.2720  147.4700 O   0  0  0  0  0  0  0  0  0  0  0  0
  156.6770  214.4530  146.1440 C   0  0  2  0  0  3  0  0  0  0  0  0
  156.3120  213.2390  145.5490 O   0  0  0  0  0  0  0  0  0  0  0  0
  158.9400  212.4200  144.7100 C   0  0  0  0  0  2  0  0  0  0  0  0
  160.1630  212.9110  144.2450 O   0  0  0  0  0  0  0  0  0  0  0  0
  161.4960  211.1220  141.7640 C   0  0  0  0  0  2  0  0  0  0  0  0
  161.4260  212.4720  139.8600 C   0  0  0  0  0  2  0  0  0  0  0  0
  160.0750  212.8390  142.8520 C   0  0  1  0  0  3  0  0  0  0  0  0
  159.6430  214.1820  142.2980 C   0  0  0  0  0  2  0  0  0  0  0  0
  161.6050  213.4010  141.0460 C   0  0  1  0  0  3  0  0  0  0  0  0
  161.1980  211.1050  140.3330 N   0  0  2  0  0  0  0  0  0  0  0  0
  160.5020  214.4420  141.0650 C   0  0  0  0  0  2  0  0  0  0  0  0
  161.4440  212.5450  142.2690 C   0  0  2  0  0  3  0  0  0  0  0  0
  158.9530  212.1280  138.2790 C   0  0  0  0  0  3  0  0  0  0  0  0
  159.5850  209.5250  139.1970 C   0  0  2  0  0  3  0  0  0  0  0  0
  160.5060  208.4150  139.3840 N   0  0  0  0  0  0  0  0  0  0  0  0
  159.0300  211.8880  139.5640 N   0  0  0  0  0  0  0  0  0  0  0  0
  160.7960  209.1950  137.2640 N   0  0  0  0  0  0  0  0  0  0  0  0
  159.9080  209.9410  137.8230 C   0  0  0  0  0  0  0  0  0  0  0  0
  161.1310  208.2380  138.2620 C   0  0  0  0  0  3  0  0  0  0  0  0
  159.7770  210.7440  140.1350 C   0  0  2  0  0  3  0  0  0  0  0  0
  159.5210  211.2160  137.3300 N   0  0  0  0  0  2  0  0  0  0  0  0
  161.5420  207.7150  152.1620 C   0  0  0  0  0  2  0  0  0  0  0  0
  160.5220  206.8880  152.9420 C   0  0  0  0  0  2  0  0  0  0  0  0
  160.8260  206.8620  154.4350 C   0  0  2  0  0  3  0  0  0  0  0  0
  159.5520  206.8110  155.2650 C   0  0  0  0  0  1  0  0  0  0  0  0
  161.7380  208.0170  154.8530 C   0  0  0  0  0  2  0  0  0  0  0  0
  161.1760  208.8540  155.9610 C   0  0  0  0  0  0  0  0  0  0  0  0
  160.8610  208.3300  157.0190 O   0  0  0  0  0  0  0  0  0  0  0  0
  162.2980  210.9270  155.8480 O   0  0  0  0  0  1  0  0  0  0  0  0
  161.0400  210.3290  155.7770 C   0  0  1  0  0  3  0  0  0  0  0  0
  160.3670  210.6780  154.4470 C   0  0  1  0  0  3  0  0  0  0  0  0
  159.2550  209.8600  154.2100 O   0  0  0  0  0  1  0  0  0  0  0  0
  159.9860  212.1620  154.3960 C   0  0  2  0  0  3  0  0  0  0  0  0
  158.4150  213.8270  155.1460 O   0  0  0  0  0  1  0  0  0  0  0  0
  158.5630  212.4620  154.8960 C   0  0  2  0  0  3  0  0  0  0  0  0
  158.2390  211.6840  156.1650 C   0  0  0  0  0  2  0  0  0  0  0  0
  156.1200  211.6650  154.8790 C   0  0  0  0  0  1  0  0  0  0  0  0
  156.1100  211.9240  157.2440 O   0  0  0  0  0  1  0  0  0  0  0  0
  156.7730  211.2800  156.1930 C   0  0  2  0  0  3  0  0  0  0  0  0
  160.1690  212.6600  152.9710 C   0  0  0  0  0  2  0  0  0  0  0  0
  158.8530  212.7320  152.2780 C   0  0  0  0  0  0  0  0  0  0  0  0
  158.4320  211.6800  151.4730 O   0  0  0  0  0  0  0  0  0  0  0  0
  158.1000  213.7290  152.4510 O   0  0  0  0  0  1  0  0  0  0  0  0
  161.5180  205.6990  147.9190 O   0  0  0  0  0  0  0  0  0  0  0  0
  160.8330  205.7230  146.6730 C   0  0  0  0  0  2  0  0  0  0  0  0
  160.6610  204.7130  144.4250 C   0  0  0  0  0  2  0  0  0  0  0  0
  161.5790  204.9260  145.6090 C   0  0  2  0  0  3  0  0  0  0  0  0
  160.9900  202.6460  145.2260 C   0  0  1  0  0  3  0  0  0  0  0  0
  160.0600  203.4480  144.5470 O   0  0  0  0  0  0  0  0  0  0  0  0
  161.8500  203.5300  146.0990 C   0  0  0  0  0  2  0  0  0  0  0  0
  160.2680  201.6400  146.1000 C   0  0  0  0  0  2  0  0  0  0  0  0
  160.8060  201.6450  147.3860 O   0  0  0  0  0  1  0  0  0  0  0  0
  2  6  1  0  0  0  0
  2  7  1  0  0  0  0
  3 38  1  1  0  0  0
  4  1  1  0  0  0  0
  4  3  1  0  0  0  0
  5  3  1  0  0  0  0
  6  4  2  0  0  0  0
  7  5  2  0  0  0  0
  8  7  1  0  0  0  0
  9  8  1  0  0  0  0
 10  9  1  0  0  0  0
 11 10  1  0  0  0  0
 12 19  1  6  0  0  0
 12 13  1  0  0  0  0
 12 15  1  0  0  0  0
 12 14  1  0  0  0  0
 13 14  1  0  0  0  0
 14 11  1  6  0  0  0
 15 18  1  1  0  0  0
 15 16  1  0  0  0  0
 17 18  1  1  0  0  0
 17 15  1  0  0  0  0
 17 16  1  0  0  0  0
 20 19  1  0  0  0  0
 23 20  1  1  0  0  0
 24 23  1  0  0  0  0
 25 22  1  6  0  0  0
 25 27  1  0  0  0  0
 25 28  1  0  0  0  0
 26 22  1  1  0  0  0
 26 21  1  0  0  0  0
 27 24  1  0  0  0  0
 28 21  1  6  0  0  0
 28 23  1  0  0  0  0
 29 32  2  0  0  0  0
 30 34  1  6  0  0  0
 30 31  1  0  0  0  0
 30 36  1  0  0  0  0
 33 34  2  0  0  0  0
 33 35  1  0  0  0  0
 35 31  2  0  0  0  0
 36 32  1  6  0  0  0
 36 26  1  0  0  0  0
 37 34  1  0  0  0  0
 37 29  1  0  0  0  0
 38 39  1  0  0  0  0
 39 40  1  0  0  0  0
 40 42  1  0  0  0  0
 40 41  1  1  0  0  0
 42 43  1  0  0  0  0
 43 44  2  0  0  0  0
 46 45  1  6  0  0  0
 46 43  1  0  0  0  0
 47 48  1  1  0  0  0
 47 46  1  0  0  0  0
 49 56  1  6  0  0  0
 49 47  1  0  0  0  0
 49 51  1  0  0  0  0
 51 50  1  1  0  0  0
 51 52  1  0  0  0  0
 52 55  1  0  0  0  0
 55 53  1  6  0  0  0
 55 54  1  0  0  0  0
 57 59  1  0  0  0  0
 57 56  1  0  0  0  0
 58 57  2  0  0  0  0
 60  6  1  0  0  0  0
 61 60  1  0  0  0  0
 62 65  1  0  0  0  0
 62 63  1  0  0  0  0
 63 66  1  0  0  0  0
 63 61  1  1  0  0  0
 64 66  1  0  0  0  0
 64 67  1  1  0  0  0
 65 64  1  0  0  0  0
 67 68  1  0  0  0  0
M  END
>  <MODEL>
1

>  <REMARK>
 VINA RESULT:      -4.1      0.000      0.000
  Name = 
  27 active torsions:
  status: ('A' for Active; 'I' for Inactive)
    1  A    between atoms: C_2  and  C_39
    2  A    between atoms: C_5  and  C_22
    3  A    between atoms: C_5  and  C_42
    4  A    between atoms: C_6  and  C_31
    5  A    between atoms: C_8  and  C_22
    6  A    between atoms: C_8  and  C_59
    7  A    between atoms: C_11  and  C_46
    8  A    between atoms: C_11  and  C_57
    9  A    between atoms: C_15  and  C_63
   10  A    between atoms: C_16  and  C_32
   11  A    between atoms: C_18  and  C_59
   12  A    between atoms: C_21  and  O_66
   13  A    between atoms: C_24  and  C_25
   14  A    between atoms: C_24  and  C_60
   15  A    between atoms: O_26  and  C_53
   16  A    between atoms: O_26  and  C_63
   17  A    between atoms: C_31  and  C_33
   18  A    between atoms: C_33  and  O_66
   19  A    between atoms: O_35  and  C_58
   20  A    between atoms: O_35  and  C_67
   21  A    between atoms: C_39  and  C_65
   22  A    between atoms: N_41  and  C_50
   23  A    between atoms: C_42  and  C_49
   24  A    between atoms: C_45  and  C_49
   25  A    between atoms: C_45  and  C_65
   26  A    between atoms: C_46  and  C_58
   27  A    between atoms: C_60  and  C_65
                            x       y       z     vdW  Elec       q    Type
                         _______ _______ _______ _____ _____    ______ ____

>  <TORSDO>
F 27

$$$$
=
 OpenBabel11052410423D

 68 76  0  0  1  0  0  0  0  0999 V2000
  157.7550  213.4640  149.1410 C   0  0  0  0  0  1  0  0  0  0  0  0
  161.1990  212.2390  149.9810 O   0  0  0  0  0  0  0  0  0  0  0  0
  159.6030  212.4340  147.6670 C   0  0  2  0  0  3  0  0  0  0  0  0
  159.1470  212.9480  149.0130 C   0  0  0  0  0  0  0  0  0  0  0  0
  160.8880  211.7360  147.7200 N   0  0  0  0  0  0  0  0  0  0  0  0
  159.9340  212.8340  150.0930 C   0  0  0  0  0  0  0  0  0  0  0  0
  161.6270  211.6580  148.7810 C   0  0  0  0  0  0  0  0  0  0  0  0
  162.8350  210.9660  148.6990 O   0  0  0  0  0  0  0  0  0  0  0  0
  162.9230  209.5990  148.3250 C   0  0  0  0  0  2  0  0  0  0  0  0
  162.8970  208.7240  149.5750 C   0  0  0  0  0  2  0  0  0  0  0  0
  161.4840  208.4720  150.0840 C   0  0  0  0  0  2  0  0  0  0  0  0
  161.2180  208.3830  152.6030 C   0  0  1  0  0  0  0  0  0  0  0  0
  160.0390  208.7900  151.9620 O   0  0  0  0  0  0  0  0  0  0  0  0
  161.2450  209.2360  151.3830 C   0  0  2  0  0  3  0  0  0  0  0  0
  161.3720  209.1270  153.9380 C   0  0  1  0  0  0  0  0  0  0  0  0
  160.2090  209.0650  154.7180 O   0  0  0  0  0  0  0  0  0  0  0  0
  161.2550  208.1970  155.0730 C   0  0  2  0  0  3  0  0  0  0  0  0
  162.4960  208.6830  154.6430 O   0  0  0  0  0  0  0  0  0  0  0  0
  161.3610  206.8600  152.5190 C   0  0  0  0  0  2  0  0  0  0  0  0
  162.5110  206.5230  151.8000 O   0  0  0  0  0  0  0  0  0  0  0  0
  160.5430  205.3610  149.3680 C   0  0  0  0  0  2  0  0  0  0  0  0
  160.0980  203.1270  149.8840 C   0  0  0  0  0  2  0  0  0  0  0  0
  162.2150  205.2960  151.1990 C   0  0  1  0  0  3  0  0  0  0  0  0
  162.4850  204.1710  152.1780 C   0  0  0  0  0  2  0  0  0  0  0  0
  160.2530  203.8570  151.2050 C   0  0  1  0  0  3  0  0  0  0  0  0
  160.4400  204.0250  148.7800 N   0  0  2  0  0  0  0  0  0  0  0  0
  161.3250  203.1910  152.0470 C   0  0  0  0  0  2  0  0  0  0  0  0
  160.7370  205.2360  150.8600 C   0  0  2  0  0  3  0  0  0  0  0  0
  161.3520  201.6770  146.7920 C   0  0  0  0  0  3  0  0  0  0  0  0
  162.1030  204.4040  146.9150 C   0  0  2  0  0  3  0  0  0  0  0  0
  161.7960  205.8250  146.8990 N   0  0  0  0  0  0  0  0  0  0  0  0
  161.7770  202.1880  147.9200 N   0  0  0  0  0  0  0  0  0  0  0  0
  160.5840  204.8440  145.2390 N   0  0  0  0  0  0  0  0  0  0  0  0
  161.2360  203.9070  145.8350 C   0  0  0  0  0  0  0  0  0  0  0  0
  160.9750  206.0320  145.9160 C   0  0  0  0  0  3  0  0  0  0  0  0
  161.7520  203.6380  148.2160 C   0  0  2  0  0  3  0  0  0  0  0  0
  160.9220  202.5260  145.7200 N   0  0  0  0  0  2  0  0  0  0  0  0
  159.6730  213.5670  146.6430 C   0  0  0  0  0  2  0  0  0  0  0  0
  159.0630  213.1560  145.3050 C   0  0  0  0  0  2  0  0  0  0  0  0
  157.7660  213.9000  145.0120 C   0  0  2  0  0  3  0  0  0  0  0  0
  156.5490  213.0870  145.4250 C   0  0  0  0  0  1  0  0  0  0  0  0
  157.6850  214.3550  143.5540 C   0  0  0  0  0  2  0  0  0  0  0  0
  158.5930  213.5940  142.6370 C   0  0  0  0  0  0  0  0  0  0  0  0
  159.6860  213.2200  143.0370 O   0  0  0  0  0  0  0  0  0  0  0  0
  157.8870  214.4490  140.5540 O   0  0  0  0  0  1  0  0  0  0  0  0
  158.1410  213.2690  141.2520 C   0  0  1  0  0  3  0  0  0  0  0  0
  159.1720  212.4240  140.5000 C   0  0  1  0  0  3  0  0  0  0  0  0
  159.2780  211.1400  141.0490 O   0  0  0  0  0  1  0  0  0  0  0  0
  158.8450  212.3610  139.0030 C   0  0  2  0  0  3  0  0  0  0  0  0
  159.0120  213.7300  137.0270 O   0  0  0  0  0  1  0  0  0  0  0  0
  159.7320  213.2650  138.1290 C   0  0  2  0  0  3  0  0  0  0  0  0
  160.9740  212.5310  137.6400 C   0  0  0  0  0  2  0  0  0  0  0  0
  162.1070  214.4520  138.7200 C   0  0  0  0  0  1  0  0  0  0  0  0
  163.3640  212.7220  137.6790 O   0  0  0  0  0  1  0  0  0  0  0  0
  162.2030  212.9690  138.4200 C   0  0  2  0  0  3  0  0  0  0  0  0
  157.3770  212.7060  138.8130 C   0  0  0  0  0  2  0  0  0  0  0  0
  156.6640  211.5760  138.1560 C   0  0  0  0  0  0  0  0  0  0  0  0
  157.3820  210.4900  137.6670 O   0  0  0  0  0  0  0  0  0  0  0  0
  155.4060  211.5810  138.0770 O   0  0  0  0  0  1  0  0  0  0  0  0
  159.4850  213.3050  151.3290 O   0  0  0  0  0  0  0  0  0  0  0  0
  159.4150  212.4800  152.4870 C   0  0  0  0  0  2  0  0  0  0  0  0
  157.3440  213.4190  153.4530 C   0  0  0  0  0  2  0  0  0  0  0  0
  157.9710  212.1720  152.8670 C   0  0  2  0  0  3  0  0  0  0  0  0
  157.3810  211.9810  155.1700 C   0  0  1  0  0  3  0  0  0  0  0  0
  157.4300  213.3470  154.8540 O   0  0  0  0  0  0  0  0  0  0  0  0
  157.9290  211.1910  154.0050 C   0  0  0  0  0  2  0  0  0  0  0  0
  158.2250  211.7020  156.3980 C   0  0  0  0  0  2  0  0  0  0  0  0
  159.5650  211.9820  156.1360 O   0  0  0  0  0  1  0  0  0  0  0  0
  2  6  1  0  0  0  0
  3 38  1  6  0  0  0
  3  5  1  0  0  0  0
  3  4  1  0  0  0  0
  4  1  1  0  0  0  0
  4  6  2  0  0  0  0
  5  7  2  0  0  0  0
  6 60  1  0  0  0  0
  7  2  1  0  0  0  0
  8  7  1  0  0  0  0
  9  8  1  0  0  0  0
  9 10  1  0  0  0  0
 10 11  1  0  0  0  0
 12 19  1  6  0  0  0
 12 15  1  0  0  0  0
 13 12  1  0  0  0  0
 14 11  1  6  0  0  0
 14 13  1  0  0  0  0
 14 12  1  0  0  0  0
 15 18  1  1  0  0  0
 15 16  1  0  0  0  0
 15 17  1  0  0  0  0
 16 17  1  0  0  0  0
 17 18  1  1  0  0  0
 20 19  1  0  0  0  0
 23 20  1  1  0  0  0
 23 24  1  0  0  0  0
 25 22  1  6  0  0  0
 25 27  1  0  0  0  0
 26 21  1  1  0  0  0
 26 22  1  0  0  0  0
 27 24  1  0  0  0  0
 28 21  1  6  0  0  0
 28 23  1  0  0  0  0
 28 25  1  0  0  0  0
 29 32  2  0  0  0  0
 30 34  1  6  0  0  0
 30 36  1  0  0  0  0
 31 30  1  0  0  0  0
 33 34  2  0  0  0  0
 33 35  1  0  0  0  0
 35 31  2  0  0  0  0
 36 32  1  6  0  0  0
 36 26  1  0  0  0  0
 37 34  1  0  0  0  0
 37 29  1  0  0  0  0
 39 38  1  0  0  0  0
 40 39  1  0  0  0  0
 40 41  1  6  0  0  0
 42 40  1  0  0  0  0
 43 44  2  0  0  0  0
 43 42  1  0  0  0  0
 46 45  1  6  0  0  0
 46 43  1  0  0  0  0
 47 48  1  1  0  0  0
 47 46  1  0  0  0  0
 49 56  1  1  0  0  0
 49 47  1  0  0  0  0
 51 50  1  6  0  0  0
 51 49  1  0  0  0  0
 52 51  1  0  0  0  0
 52 55  1  0  0  0  0
 54 55  1  0  0  0  0
 55 53  1  6  0  0  0
 57 56  1  0  0  0  0
 58 57  2  0  0  0  0
 59 57  1  0  0  0  0
 60 61  1  0  0  0  0
 62 65  1  0  0  0  0
 63 61  1  1  0  0  0
 63 62  1  0  0  0  0
 63 66  1  0  0  0  0
 64 67  1  1  0  0  0
 65 64  1  0  0  0  0
 66 64  1  0  0  0  0
 68 67  1  0  0  0  0
M  END
>  <MODEL>
2

>  <REMARK>
 VINA RESULT:      -3.2      3.291     12.049
  Name = 
  27 active torsions:
  status: ('A' for Active; 'I' for Inactive)
    1  A    between atoms: C_2  and  C_39
    2  A    between atoms: C_5  and  C_22
    3  A    between atoms: C_5  and  C_42
    4  A    between atoms: C_6  and  C_31
    5  A    between atoms: C_8  and  C_22
    6  A    between atoms: C_8  and  C_59
    7  A    between atoms: C_11  and  C_46
    8  A    between atoms: C_11  and  C_57
    9  A    between atoms: C_15  and  C_63
   10  A    between atoms: C_16  and  C_32
   11  A    between atoms: C_18  and  C_59
   12  A    between atoms: C_21  and  O_66
   13  A    between atoms: C_24  and  C_25
   14  A    between atoms: C_24  and  C_60
   15  A    between atoms: O_26  and  C_53
   16  A    between atoms: O_26  and  C_63
   17  A    between atoms: C_31  and  C_33
   18  A    between atoms: C_33  and  O_66
   19  A    between atoms: O_35  and  C_58
   20  A    between atoms: O_35  and  C_67
   21  A    between atoms: C_39  and  C_65
   22  A    between atoms: N_41  and  C_50
   23  A    between atoms: C_42  and  C_49
   24  A    between atoms: C_45  and  C_49
   25  A    between atoms: C_45  and  C_65
   26  A    between atoms: C_46  and  C_58
   27  A    between atoms: C_60  and  C_65
                            x       y       z     vdW  Elec       q    Type
                         _______ _______ _______ _____ _____    ______ ____

>  <TORSDO>
F 27

$$$$
=
 OpenBabel11052410423D

 68 76  0  0  1  0  0  0  0  0999 V2000
  157.8420  213.3410  149.3350 C   0  0  0  0  0  1  0  0  0  0  0  0
  160.9700  212.0000  150.9120 O   0  0  0  0  0  0  0  0  0  0  0  0
  159.9470  212.2700  148.3010 C   0  0  2  0  0  3  0  0  0  0  0  0
  159.2120  212.7830  149.5170 C   0  0  0  0  0  0  0  0  0  0  0  0
  161.1660  211.5310  148.6310 N   0  0  0  0  0  0  0  0  0  0  0  0
  159.7300  212.6340  150.7450 C   0  0  0  0  0  0  0  0  0  0  0  0
  161.6430  211.4180  149.8300 C   0  0  0  0  0  0  0  0  0  0  0  0
  162.8170  210.6900  150.0110 O   0  0  0  0  0  0  0  0  0  0  0  0
  163.0090  209.3830  149.4900 C   0  0  0  0  0  2  0  0  0  0  0  0
  162.6530  208.3500  150.5560 C   0  0  0  0  0  2  0  0  0  0  0  0
  161.1540  208.2680  150.8140 C   0  0  0  0  0  2  0  0  0  0  0  0
  160.8080  207.6840  153.2560 C   0  0  1  0  0  0  0  0  0  0  0  0
  159.6320  208.1540  152.6530 O   0  0  0  0  0  0  0  0  0  0  0  0
  160.8310  208.7560  152.2230 C   0  0  2  0  0  3  0  0  0  0  0  0
  160.8770  208.1640  154.7130 C   0  0  1  0  0  0  0  0  0  0  0  0
  159.7040  207.8720  155.4240 O   0  0  0  0  0  0  0  0  0  0  0  0
  160.8030  207.0250  155.6440 C   0  0  2  0  0  3  0  0  0  0  0  0
  162.0150  207.6680  155.3600 O   0  0  0  0  0  0  0  0  0  0  0  0
  161.0320  206.2140  152.8900 C   0  0  0  0  0  2  0  0  0  0  0  0
  162.2090  206.0760  152.1480 O   0  0  0  0  0  0  0  0  0  0  0  0
  160.4060  205.2720  149.4570 C   0  0  0  0  0  2  0  0  0  0  0  0
  160.0400  202.9680  149.5680 C   0  0  0  0  0  2  0  0  0  0  0  0
  161.9960  204.9600  151.3350 C   0  0  1  0  0  3  0  0  0  0  0  0
  162.2730  203.6950  152.1240 C   0  0  0  0  0  2  0  0  0  0  0  0
  160.1020  203.4680  150.9990 C   0  0  1  0  0  3  0  0  0  0  0  0
  160.3900  204.0530  148.6490 N   0  0  2  0  0  0  0  0  0  0  0  0
  161.1650  202.7090  151.7710 C   0  0  0  0  0  2  0  0  0  0  0  0
  160.5390  204.9030  150.9160 C   0  0  2  0  0  3  0  0  0  0  0  0
  161.5330  201.9580  146.5030 C   0  0  0  0  0  3  0  0  0  0  0  0
  162.0650  204.7140  146.8750 C   0  0  2  0  0  3  0  0  0  0  0  0
  161.6470  206.1040  146.9680 N   0  0  0  0  0  0  0  0  0  0  0  0
  161.8880  202.4020  147.6820 N   0  0  0  0  0  0  0  0  0  0  0  0
  160.5580  205.1780  145.1940 N   0  0  0  0  0  0  0  0  0  0  0  0
  161.2660  204.2460  145.7310 C   0  0  0  0  0  0  0  0  0  0  0  0
  160.8380  206.3310  145.9790 C   0  0  0  0  0  3  0  0  0  0  0  0
  161.7420  203.8160  148.0960 C   0  0  2  0  0  3  0  0  0  0  0  0
  161.0640  202.8600  145.4920 N   0  0  0  0  0  2  0  0  0  0  0  0
  160.2790  213.4110  147.3390 C   0  0  0  0  0  2  0  0  0  0  0  0
  160.0300  213.0140  145.8850 C   0  0  0  0  0  2  0  0  0  0  0  0
  158.8070  213.7120  145.3020 C   0  0  2  0  0  3  0  0  0  0  0  0
  157.5920  212.7970  145.2900 C   0  0  0  0  0  1  0  0  0  0  0  0
  159.0930  214.3040  143.9210 C   0  0  0  0  0  2  0  0  0  0  0  0
  159.6700  213.3180  142.9520 C   0  0  0  0  0  0  0  0  0  0  0  0
  160.4350  212.4520  143.3510 O   0  0  0  0  0  0  0  0  0  0  0  0
  159.9300  214.4460  140.8960 O   0  0  0  0  0  1  0  0  0  0  0  0
  159.2780  213.3780  141.5130 C   0  0  1  0  0  3  0  0  0  0  0  0
  159.5960  212.0730  140.7800 C   0  0  1  0  0  3  0  0  0  0  0  0
  158.4700  211.2440  140.7040 O   0  0  0  0  0  1  0  0  0  0  0  0
  160.1760  212.3510  139.3880 C   0  0  2  0  0  3  0  0  0  0  0  0
  159.7710  212.4470  137.0150 O   0  0  0  0  0  1  0  0  0  0  0  0
  159.1830  212.1190  138.2370 C   0  0  2  0  0  3  0  0  0  0  0  0
  157.9130  212.9410  138.4170 C   0  0  0  0  0  2  0  0  0  0  0  0
  155.6000  213.3370  137.6200 C   0  0  0  0  0  1  0  0  0  0  0  0
  156.4110  211.1270  137.9600 O   0  0  0  0  0  1  0  0  0  0  0  0
  156.7930  212.4050  137.5380 C   0  0  2  0  0  3  0  0  0  0  0  0
  161.4200  211.4980  139.2030 C   0  0  0  0  0  2  0  0  0  0  0  0
  162.4280  212.2280  138.3850 C   0  0  0  0  0  0  0  0  0  0  0  0
  163.1180  211.5650  137.3760 O   0  0  0  0  0  0  0  0  0  0  0  0
  162.6290  213.4580  138.5770 O   0  0  0  0  0  1  0  0  0  0  0  0
  159.0260  213.1050  151.8560 O   0  0  0  0  0  0  0  0  0  0  0  0
  158.0380  212.3300  152.5260 C   0  0  0  0  0  2  0  0  0  0  0  0
  157.8730  214.4530  153.7780 C   0  0  0  0  0  2  0  0  0  0  0  0
  157.1200  213.2050  153.3710 C   0  0  2  0  0  3  0  0  0  0  0  0
  157.5110  213.3910  155.7170 C   0  0  1  0  0  3  0  0  0  0  0  0
  158.4020  214.2570  155.0660 O   0  0  0  0  0  0  0  0  0  0  0  0
  156.8200  212.5330  154.6820 C   0  0  0  0  0  2  0  0  0  0  0  0
  158.2660  212.4950  156.6780 C   0  0  0  0  0  2  0  0  0  0  0  0
  158.5400  211.2670  156.0790 O   0  0  0  0  0  1  0  0  0  0  0  0
  1  4  1  0  0  0  0
  3 38  1  6  0  0  0
  3  5  1  0  0  0  0
  3  4  1  0  0  0  0
  4  6  2  0  0  0  0
  5  7  2  0  0  0  0
  6  2  1  0  0  0  0
  6 60  1  0  0  0  0
  7  8  1  0  0  0  0
  7  2  1  0  0  0  0
  9  8  1  0  0  0  0
  9 10  1  0  0  0  0
 10 11  1  0  0  0  0
 12 19  1  6  0  0  0
 12 15  1  0  0  0  0
 13 12  1  0  0  0  0
 14 11  1  6  0  0  0
 14 13  1  0  0  0  0
 14 12  1  0  0  0  0
 15 18  1  1  0  0  0
 15 16  1  0  0  0  0
 15 17  1  0  0  0  0
 16 17  1  0  0  0  0
 17 18  1  1  0  0  0
 20 19  1  0  0  0  0
 23 24  1  0  0  0  0
 23 20  1  1  0  0  0
 25 22  1  6  0  0  0
 25 27  1  0  0  0  0
 26 21  1  1  0  0  0
 26 22  1  0  0  0  0
 27 24  1  0  0  0  0
 28 21  1  6  0  0  0
 28 25  1  0  0  0  0
 28 23  1  0  0  0  0
 29 32  2  0  0  0  0
 30 34  1  6  0  0  0
 30 31  1  0  0  0  0
 30 36  1  0  0  0  0
 33 34  2  0  0  0  0
 33 35  1  0  0  0  0
 35 31  2  0  0  0  0
 36 32  1  6  0  0  0
 36 26  1  0  0  0  0
 37 34  1  0  0  0  0
 37 29  1  0  0  0  0
 39 38  1  0  0  0  0
 40 41  1  6  0  0  0
 40 39  1  0  0  0  0
 42 40  1  0  0  0  0
 43 44  2  0  0  0  0
 43 42  1  0  0  0  0
 46 45  1  6  0  0  0
 46 43  1  0  0  0  0
 47 48  1  6  0  0  0
 47 46  1  0  0  0  0
 49 56  1  6  0  0  0
 49 47  1  0  0  0  0
 51 50  1  6  0  0  0
 51 52  1  0  0  0  0
 51 49  1  0  0  0  0
 55 53  1  1  0  0  0
 55 54  1  0  0  0  0
 55 52  1  0  0  0  0
 57 59  1  0  0  0  0
 57 56  1  0  0  0  0
 58 57  2  0  0  0  0
 60 61  1  0  0  0  0
 62 65  1  0  0  0  0
 63 61  1  6  0  0  0
 63 62  1  0  0  0  0
 63 66  1  0  0  0  0
 64 67  1  1  0  0  0
 65 64  1  0  0  0  0
 66 64  1  0  0  0  0
 68 67  1  0  0  0  0
M  END
>  <MODEL>
3

>  <REMARK>
 VINA RESULT:      -2.6      3.287     12.085
  Name = 
  27 active torsions:
  status: ('A' for Active; 'I' for Inactive)
    1  A    between atoms: C_2  and  C_39
    2  A    between atoms: C_5  and  C_22
    3  A    between atoms: C_5  and  C_42
    4  A    between atoms: C_6  and  C_31
    5  A    between atoms: C_8  and  C_22
    6  A    between atoms: C_8  and  C_59
    7  A    between atoms: C_11  and  C_46
    8  A    between atoms: C_11  and  C_57
    9  A    between atoms: C_15  and  C_63
   10  A    between atoms: C_16  and  C_32
   11  A    between atoms: C_18  and  C_59
   12  A    between atoms: C_21  and  O_66
   13  A    between atoms: C_24  and  C_25
   14  A    between atoms: C_24  and  C_60
   15  A    between atoms: O_26  and  C_53
   16  A    between atoms: O_26  and  C_63
   17  A    between atoms: C_31  and  C_33
   18  A    between atoms: C_33  and  O_66
   19  A    between atoms: O_35  and  C_58
   20  A    between atoms: O_35  and  C_67
   21  A    between atoms: C_39  and  C_65
   22  A    between atoms: N_41  and  C_50
   23  A    between atoms: C_42  and  C_49
   24  A    between atoms: C_45  and  C_49
   25  A    between atoms: C_45  and  C_65
   26  A    between atoms: C_46  and  C_58
   27  A    between atoms: C_60  and  C_65
                            x       y       z     vdW  Elec       q    Type
                         _______ _______ _______ _____ _____    ______ ____

>  <TORSDO>
F 27

$$$$
