=
 OpenBabel11052410553D

 30 34  0  0  1  0  0  0  0  0999 V2000
  161.9580  209.3080  149.9490 C   0  0  0  0  0  0  0  0  0  0  0  0
  161.6010  208.6720  152.3950 C   0  0  0  0  0  0  0  0  0  0  0  0
  161.6050  210.0690  151.4300 S   0  0  0  0  0  0  0  0  0  0  0  0
  161.7720  206.6870  148.0190 N   0  0  0  0  0  2  0  0  0  0  0  0
  160.8810  204.0740  152.5370 C   0  0  0  0  0  1  0  0  0  0  0  0
  160.8490  208.5130  153.6710 C   0  0  0  0  0  2  0  0  0  0  0  0
  161.3860  206.0500  154.0480 C   0  0  0  0  0  3  0  0  0  0  0  0
  161.7610  206.7470  149.4500 C   0  0  0  0  0  0  0  0  0  0  0  0
  161.8540  207.6300  151.5320 C   0  0  0  0  0  0  0  0  0  0  0  0
  161.4650  206.2430  151.5730 C   0  0  0  0  0  0  0  0  0  0  0  0
  162.0320  207.9550  150.2220 C   0  0  0  0  0  0  0  0  0  0  0  0
  161.2880  207.3190  154.4740 C   0  0  0  0  0  3  0  0  0  0  0  0
  161.4300  205.7500  150.2240 N   0  0  0  0  0  0  0  0  0  0  0  0
  161.2030  205.5220  152.6720 C   0  0  0  0  0  0  0  0  0  0  0  0
  161.3660  213.4420  148.7630 N   0  0  0  0  0  2  0  0  0  0  0  0
  161.1060  214.4530  146.7220 O   0  0  0  0  0  0  0  0  0  0  0  0
  161.2900  213.4210  147.4160 C   0  0  0  0  0  0  0  0  0  0  0  0
  161.6410  211.2600  148.3500 C   0  0  0  0  0  0  0  0  0  0  0  0
  161.5640  212.2340  149.2850 N   0  0  0  0  0  0  0  0  0  0  0  0
  161.8670  209.8780  148.6400 N   0  0  0  0  0  2  0  0  0  0  0  0
  161.4700  211.8700  146.7880 S   0  0  0  0  0  0  0  0  0  0  0  0
  160.6390  204.5310  145.1990 N   0  0  0  0  0  2  0  0  0  0  0  0
  161.1600  203.2060  145.5230 C   0  0  1  0  0  3  0  0  0  0  0  0
  161.2340  203.0300  147.0350 C   0  0  0  0  0  2  0  0  0  0  0  0
  160.9070  205.6700  146.0260 C   0  0  0  0  0  0  0  0  0  0  0  0
  160.4400  206.9500  145.6100 N   0  0  0  0  0  1  0  0  0  0  0  0
  162.0570  204.1710  147.6250 C   0  0  0  0  0  2  0  0  0  0  0  0
  161.5320  205.5250  147.2080 C   0  0  0  0  0  0  0  0  0  0  0  0
  160.4890  200.8980  145.5250 O   0  0  0  0  0  1  0  0  0  0  0  0
  160.3020  202.1250  144.8830 C   0  0  0  0  0  2  0  0  0  0  0  0
  1 11  2  0  0  0  0
  1  3  1  0  0  0  0
  2  6  1  0  0  0  0
  3  2  1  0  0  0  0
  4  8  1  0  0  0  0
  5 14  1  0  0  0  0
  6 12  1  0  0  0  0
  7 12  2  0  0  0  0
  8 11  1  0  0  0  0
  8 13  2  0  0  0  0
  9 10  1  0  0  0  0
  9  2  2  0  0  0  0
 10 14  2  0  0  0  0
 11  9  1  0  0  0  0
 13 10  1  0  0  0  0
 14  7  1  0  0  0  0
 15 19  1  0  0  0  0
 16 17  2  0  0  0  0
 17 15  1  0  0  0  0
 18 20  1  0  0  0  0
 18 19  2  0  0  0  0
 20  1  1  0  0  0  0
 21 17  1  0  0  0  0
 21 18  1  0  0  0  0
 22 23  1  0  0  0  0
 22 25  1  0  0  0  0
 23 30  1  1  0  0  0
 23 24  1  0  0  0  0
 24 27  1  0  0  0  0
 25 28  2  0  0  0  0
 26 25  1  0  0  0  0
 28 27  1  0  0  0  0
 28  4  1  0  0  0  0
 30 29  1  0  0  0  0
M  END
>  <MODEL>
1

>  <REMARK>
 VINA RESULT:      -8.3      0.000      0.000
  Name = 
  3 active torsions:
  status: ('A' for Active; 'I' for Inactive)
    1  A    between atoms: C_1  and  N_25
    2  A    between atoms: N_7  and  C_30
    3  A    between atoms: CA_8  and  C_22
                            x       y       z     vdW  Elec       q    Type
                         _______ _______ _______ _____ _____    ______ ____

>  <TORSDO>
F 3

$$$$
=
 OpenBabel11052410553D

 30 34  0  0  1  0  0  0  0  0999 V2000
  161.7230  208.3160  152.6510 C   0  0  0  0  0  0  0  0  0  0  0  0
  161.3070  206.0420  151.5710 C   0  0  0  0  0  0  0  0  0  0  0  0
  161.1850  206.7660  153.1020 S   0  0  0  0  0  0  0  0  0  0  0  0
  162.0000  210.6510  150.3920 N   0  0  0  0  0  2  0  0  0  0  0  0
  161.1910  206.6980  146.9630 C   0  0  0  0  0  1  0  0  0  0  0  0
  160.5070  204.8720  151.1090 C   0  0  0  0  0  2  0  0  0  0  0  0
  161.3410  204.8540  148.7000 C   0  0  0  0  0  3  0  0  0  0  0  0
  161.8960  209.2340  150.2070 C   0  0  0  0  0  0  0  0  0  0  0  0
  161.7460  207.0370  150.7290 C   0  0  0  0  0  0  0  0  0  0  0  0
  161.5410  207.2500  149.3180 C   0  0  0  0  0  0  0  0  0  0  0  0
  161.9580  208.2590  151.2910 C   0  0  0  0  0  0  0  0  0  0  0  0
  161.0510  204.2380  149.8580 C   0  0  0  0  0  3  0  0  0  0  0  0
  161.6530  208.6600  149.0610 N   0  0  0  0  0  0  0  0  0  0  0  0
  161.3110  206.3070  148.3960 C   0  0  0  0  0  0  0  0  0  0  0  0
  158.4170  211.0950  153.0850 N   0  0  0  0  0  2  0  0  0  0  0  0
  158.1950  213.0890  154.1950 O   0  0  0  0  0  0  0  0  0  0  0  0
  158.8850  212.0900  153.8660 C   0  0  0  0  0  0  0  0  0  0  0  0
  160.5030  210.3900  153.4770 C   0  0  0  0  0  0  0  0  0  0  0  0
  159.3210  210.1430  152.8680 N   0  0  0  0  0  0  0  0  0  0  0  0
  161.6370  209.5200  153.4200 N   0  0  0  0  0  2  0  0  0  0  0  0
  160.4790  211.8350  154.3420 S   0  0  0  0  0  0  0  0  0  0  0  0
  160.9810  213.6500  148.4300 N   0  0  0  0  0  2  0  0  0  0  0  0
  161.9740  213.7410  147.3640 C   0  0  1  0  0  3  0  0  0  0  0  0
  162.4750  212.3490  146.9980 C   0  0  0  0  0  2  0  0  0  0  0  0
  161.0530  212.6400  149.4450 C   0  0  0  0  0  0  0  0  0  0  0  0
  160.1010  212.6580  150.5050 N   0  0  0  0  0  1  0  0  0  0  0  0
  162.9940  211.6640  148.2590 C   0  0  0  0  0  2  0  0  0  0  0  0
  161.9640  211.6540  149.3650 C   0  0  0  0  0  0  0  0  0  0  0  0
  161.2360  213.5670  145.0830 O   0  0  0  0  0  1  0  0  0  0  0  0
  161.3910  214.4530  146.1520 C   0  0  0  0  0  2  0  0  0  0  0  0
  1  3  1  0  0  0  0
  1 20  1  0  0  0  0
  2  3  1  0  0  0  0
  5 14  1  0  0  0  0
  6  2  1  0  0  0  0
  7 12  2  0  0  0  0
  8  4  1  0  0  0  0
  8 11  1  0  0  0  0
  9 11  1  0  0  0  0
  9  2  2  0  0  0  0
 10  9  1  0  0  0  0
 11  1  2  0  0  0  0
 12  6  1  0  0  0  0
 13 10  1  0  0  0  0
 13  8  2  0  0  0  0
 14  7  1  0  0  0  0
 14 10  2  0  0  0  0
 15 17  1  0  0  0  0
 17 16  2  0  0  0  0
 17 21  1  0  0  0  0
 18 21  1  0  0  0  0
 19 15  1  0  0  0  0
 19 18  2  0  0  0  0
 20 18  1  0  0  0  0
 22 25  1  0  0  0  0
 23 30  1  6  0  0  0
 23 22  1  0  0  0  0
 24 23  1  0  0  0  0
 24 27  1  0  0  0  0
 25 26  1  0  0  0  0
 27 28  1  0  0  0  0
 28 25  2  0  0  0  0
 28  4  1  0  0  0  0
 29 30  1  0  0  0  0
M  END
>  <MODEL>
2

>  <REMARK>
 VINA RESULT:      -8.3      3.529      6.643
  Name = 
  3 active torsions:
  status: ('A' for Active; 'I' for Inactive)
    1  A    between atoms: C_1  and  N_25
    2  A    between atoms: N_7  and  C_30
    3  A    between atoms: CA_8  and  C_22
                            x       y       z     vdW  Elec       q    Type
                         _______ _______ _______ _____ _____    ______ ____

>  <TORSDO>
F 3

$$$$
=
 OpenBabel11052410553D

 30 34  0  0  1  0  0  0  0  0999 V2000
  161.8480  208.1090  148.4160 C   0  0  0  0  0  0  0  0  0  0  0  0
  161.6770  205.6480  147.7650 C   0  0  0  0  0  0  0  0  0  0  0  0
  162.3270  207.0880  147.1430 S   0  0  0  0  0  0  0  0  0  0  0  0
  161.1600  208.5340  151.5750 N   0  0  0  0  0  0  0  0  0  0  0  0
  160.4780  203.2830  151.5920 C   0  0  0  0  0  1  0  0  0  0  0  0
  162.1720  204.2780  147.4520 C   0  0  0  0  0  2  0  0  0  0  0  0
  160.6590  203.0200  149.0740 C   0  0  0  0  0  3  0  0  0  0  0  0
  161.0510  207.3420  150.7880 C   0  0  0  0  0  0  0  0  0  0  0  0
  161.1140  205.9920  148.9720 C   0  0  0  0  0  0  0  0  0  0  0  0
  160.9100  205.2300  150.1790 C   0  0  0  0  0  0  0  0  0  0  0  0
  161.2120  207.3000  149.3380 C   0  0  0  0  0  0  0  0  0  0  0  0
  161.2150  203.1930  147.8630 C   0  0  0  0  0  3  0  0  0  0  0  0
  160.8770  206.1480  151.2850 N   0  0  0  0  0  0  0  0  0  0  0  0
  160.7510  203.9020  150.2640 C   0  0  0  0  0  0  0  0  0  0  0  0
  160.3850  211.8550  146.7820 N   0  0  0  0  0  2  0  0  0  0  0  0
  161.0670  214.0300  147.0230 O   0  0  0  0  0  0  0  0  0  0  0  0
  161.1900  212.8080  147.2930 C   0  0  0  0  0  0  0  0  0  0  0  0
  161.7570  210.6250  148.0510 C   0  0  0  0  0  0  0  0  0  0  0  0
  160.7000  210.6340  147.2060 N   0  0  0  0  0  0  0  0  0  0  0  0
  162.2880  209.4480  148.6650 N   0  0  0  0  0  2  0  0  0  0  0  0
  162.3600  212.1740  148.3240 S   0  0  0  0  0  0  0  0  0  0  0  0
  160.6450  209.9920  154.9650 N   0  0  0  0  0  0  0  0  0  0  0  0
  160.5360  208.8340  155.8460 C   0  0  1  0  0  3  0  0  0  0  0  0
  161.3690  207.6820  155.2980 C   0  0  0  0  0  2  0  0  0  0  0  0
  160.8010  209.8500  153.5470 C   0  0  0  0  0  0  0  0  0  0  0  0
  160.8160  211.0210  152.7340 N   0  0  0  0  0  1  0  0  0  0  0  0
  160.9370  207.4000  153.8620 C   0  0  0  0  0  2  0  0  0  0  0  0
  160.9940  208.6380  152.9980 C   0  0  0  0  0  0  0  0  0  0  0  0
  162.2230  209.8000  157.2590 O   0  0  0  0  0  1  0  0  0  0  0  0
  160.9620  209.1990  157.2610 C   0  0  0  0  0  2  0  0  0  0  0  0
  1 20  1  0  0  0  0
  1 11  2  0  0  0  0
  2  9  2  0  0  0  0
  3  2  1  0  0  0  0
  3  1  1  0  0  0  0
  4 28  2  0  0  0  0
  6  2  1  0  0  0  0
  6 12  1  0  0  0  0
  7 14  1  0  0  0  0
  8 13  2  0  0  0  0
  8  4  1  0  0  0  0
  9 11  1  0  0  0  0
  9 10  1  0  0  0  0
 10 14  2  0  0  0  0
 10 13  1  0  0  0  0
 11  8  1  0  0  0  0
 12  7  2  0  0  0  0
 14  5  1  0  0  0  0
 15 19  1  0  0  0  0
 15 17  1  0  0  0  0
 16 17  2  0  0  0  0
 17 21  1  0  0  0  0
 18 21  1  0  0  0  0
 18 20  1  0  0  0  0
 19 18  2  0  0  0  0
 22 23  1  0  0  0  0
 23 30  1  1  0  0  0
 24 23  1  0  0  0  0
 25 22  2  0  0  0  0
 26 25  1  0  0  0  0
 27 24  1  0  0  0  0
 28 25  1  0  0  0  0
 28 27  1  0  0  0  0
 29 30  1  0  0  0  0
M  END
>  <MODEL>
3

>  <REMARK>
 VINA RESULT:      -8.1      3.242      6.569
  Name = 
  3 active torsions:
  status: ('A' for Active; 'I' for Inactive)
    1  A    between atoms: C_1  and  N_25
    2  A    between atoms: N_7  and  C_30
    3  A    between atoms: CA_8  and  C_22
                            x       y       z     vdW  Elec       q    Type
                         _______ _______ _______ _____ _____    ______ ____

>  <TORSDO>
F 3

$$$$
=
 OpenBabel11052410553D

 30 34  0  0  1  0  0  0  0  0999 V2000
  160.2850  210.8910  155.0000 C   0  0  0  0  0  0  0  0  0  0  0  0
  160.8440  208.4180  154.7140 C   0  0  0  0  0  0  0  0  0  0  0  0
  160.2510  209.4590  155.9180 S   0  0  0  0  0  0  0  0  0  0  0  0
  160.0790  212.3870  152.1100 N   0  0  0  0  0  2  0  0  0  0  0  0
  161.2050  207.6010  150.1450 C   0  0  0  0  0  1  0  0  0  0  0  0
  160.5740  206.9540  154.6370 C   0  0  0  0  0  2  0  0  0  0  0  0
  161.7160  206.5430  152.3950 C   0  0  0  0  0  3  0  0  0  0  0  0
  160.4970  211.0470  152.3970 C   0  0  0  0  0  0  0  0  0  0  0  0
  161.0360  209.2110  153.6060 C   0  0  0  0  0  0  0  0  0  0  0  0
  160.9840  208.9080  152.1980 C   0  0  0  0  0  0  0  0  0  0  0  0
  160.7270  210.5310  153.7420 C   0  0  0  0  0  0  0  0  0  0  0  0
  161.4840  206.2330  153.6810 C   0  0  0  0  0  3  0  0  0  0  0  0
  160.6420  210.1150  151.4950 N   0  0  0  0  0  0  0  0  0  0  0  0
  161.2350  207.7210  151.6290 C   0  0  0  0  0  0  0  0  0  0  0  0
  156.1440  212.1390  154.6260 N   0  0  0  0  0  2  0  0  0  0  0  0
  155.0770  214.1300  155.0190 O   0  0  0  0  0  0  0  0  0  0  0  0
  156.1230  213.4320  155.0110 C   0  0  0  0  0  0  0  0  0  0  0  0
  158.2960  212.4710  155.1400 C   0  0  0  0  0  0  0  0  0  0  0  0
  157.3590  211.6010  154.7000 N   0  0  0  0  0  0  0  0  0  0  0  0
  159.6750  212.1440  155.3280 N   0  0  0  0  0  2  0  0  0  0  0  0
  157.6420  213.9870  155.4760 S   0  0  0  0  0  0  0  0  0  0  0  0
  158.4070  214.0890  149.2490 N   0  0  0  0  0  2  0  0  0  0  0  0
  159.4500  214.2060  148.2350 C   0  0  1  0  0  3  0  0  0  0  0  0
  160.4290  213.0450  148.3580 C   0  0  0  0  0  2  0  0  0  0  0  0
  158.6680  213.5250  150.5400 C   0  0  0  0  0  0  0  0  0  0  0  0
  157.6270  213.5170  151.5130 N   0  0  0  0  0  1  0  0  0  0  0  0
  160.9660  213.0010  149.7860 C   0  0  0  0  0  2  0  0  0  0  0  0
  159.8550  212.9540  150.8100 C   0  0  0  0  0  0  0  0  0  0  0  0
  159.1060  213.0930  146.1330 O   0  0  0  0  0  1  0  0  0  0  0  0
  158.8380  214.2660  146.8440 C   0  0  0  0  0  2  0  0  0  0  0  0
  1 20  1  0  0  0  0
  1  3  1  0  0  0  0
  2  3  1  0  0  0  0
  4  8  1  0  0  0  0
  5 14  1  0  0  0  0
  6  2  1  0  0  0  0
  7 12  2  0  0  0  0
  8 11  1  0  0  0  0
  9 11  1  0  0  0  0
  9  2  2  0  0  0  0
 10  9  1  0  0  0  0
 11  1  2  0  0  0  0
 12  6  1  0  0  0  0
 13 10  1  0  0  0  0
 13  8  2  0  0  0  0
 14 10  2  0  0  0  0
 14  7  1  0  0  0  0
 15 19  1  0  0  0  0
 15 17  1  0  0  0  0
 17 16  2  0  0  0  0
 17 21  1  0  0  0  0
 18 20  1  0  0  0  0
 18 21  1  0  0  0  0
 19 18  2  0  0  0  0
 22 25  1  0  0  0  0
 23 30  1  6  0  0  0
 23 24  1  0  0  0  0
 23 22  1  0  0  0  0
 24 27  1  0  0  0  0
 25 28  2  0  0  0  0
 25 26  1  0  0  0  0
 27 28  1  0  0  0  0
 28  4  1  0  0  0  0
 29 30  1  0  0  0  0
M  END
>  <MODEL>
4

>  <REMARK>
 VINA RESULT:      -7.6      4.715      7.566
  Name = 
  3 active torsions:
  status: ('A' for Active; 'I' for Inactive)
    1  A    between atoms: C_1  and  N_25
    2  A    between atoms: N_7  and  C_30
    3  A    between atoms: CA_8  and  C_22
                            x       y       z     vdW  Elec       q    Type
                         _______ _______ _______ _____ _____    ______ ____

>  <TORSDO>
F 3

$$$$
=
 OpenBabel11052410553D

 30 34  0  0  1  0  0  0  0  0999 V2000
  162.0860  207.0230  151.9130 C   0  0  0  0  0  0  0  0  0  0  0  0
  161.6130  205.0150  150.4120 C   0  0  0  0  0  0  0  0  0  0  0  0
  161.6770  205.3790  152.0690 S   0  0  0  0  0  0  0  0  0  0  0  0
  161.9580  209.8060  150.2190 N   0  0  0  0  0  2  0  0  0  0  0  0
  160.8360  206.6460  146.1210 C   0  0  0  0  0  1  0  0  0  0  0  0
  160.8030  203.9210  149.8050 C   0  0  0  0  0  2  0  0  0  0  0  0
  161.2960  204.4830  147.3680 C   0  0  0  0  0  3  0  0  0  0  0  0
  161.8840  208.4600  149.7350 C   0  0  0  0  0  0  0  0  0  0  0  0
  161.8930  206.1970  149.7660 C   0  0  0  0  0  0  0  0  0  0  0  0
  161.4870  206.6970  148.4770 C   0  0  0  0  0  0  0  0  0  0  0  0
  162.1330  207.2800  150.5560 C   0  0  0  0  0  0  0  0  0  0  0  0
  161.1930  203.6130  148.3850 C   0  0  0  0  0  3  0  0  0  0  0  0
  161.5080  208.1330  148.5300 N   0  0  0  0  0  0  0  0  0  0  0  0
  161.1680  205.9620  147.4030 C   0  0  0  0  0  0  0  0  0  0  0  0
  159.8100  207.1470  155.6080 N   0  0  0  0  0  2  0  0  0  0  0  0
  159.6110  208.7230  157.2610 O   0  0  0  0  0  0  0  0  0  0  0  0
  160.1060  208.3360  156.1710 C   0  0  0  0  0  0  0  0  0  0  0  0
  161.2490  207.9860  154.1140 C   0  0  0  0  0  0  0  0  0  0  0  0
  160.4510  206.9490  154.4580 N   0  0  0  0  0  0  0  0  0  0  0  0
  162.0610  208.0230  152.9370 N   0  0  0  0  0  2  0  0  0  0  0  0
  161.2030  209.2250  155.2550 S   0  0  0  0  0  0  0  0  0  0  0  0
  160.8030  213.2190  149.2690 N   0  0  0  0  0  2  0  0  0  0  0  0
  161.4130  213.4590  147.9650 C   0  0  1  0  0  3  0  0  0  0  0  0
  161.5750  212.1430  147.2150 C   0  0  0  0  0  2  0  0  0  0  0  0
  161.0490  212.0160  150.0080 C   0  0  0  0  0  0  0  0  0  0  0  0
  160.4900  211.8790  151.3120 N   0  0  0  0  0  1  0  0  0  0  0  0
  162.3630  211.1700  148.0880 C   0  0  0  0  0  2  0  0  0  0  0  0
  161.7410  211.0040  149.4560 C   0  0  0  0  0  0  0  0  0  0  0  0
  159.2710  213.9990  147.0180 O   0  0  0  0  0  1  0  0  0  0  0  0
  160.5840  214.4530  147.1640 C   0  0  0  0  0  2  0  0  0  0  0  0
  1  3  1  0  0  0  0
  1 20  1  0  0  0  0
  2  3  1  0  0  0  0
  5 14  1  0  0  0  0
  6  2  1  0  0  0  0
  7 14  1  0  0  0  0
  7 12  2  0  0  0  0
  8  4  1  0  0  0  0
  8 11  1  0  0  0  0
  9  2  2  0  0  0  0
  9 11  1  0  0  0  0
 10 13  1  0  0  0  0
 10  9  1  0  0  0  0
 11  1  2  0  0  0  0
 12  6  1  0  0  0  0
 13  8  2  0  0  0  0
 14 10  2  0  0  0  0
 15 17  1  0  0  0  0
 17 16  2  0  0  0  0
 18 19  2  0  0  0  0
 18 21  1  0  0  0  0
 19 15  1  0  0  0  0
 20 18  1  0  0  0  0
 21 17  1  0  0  0  0
 22 25  1  0  0  0  0
 23 30  1  6  0  0  0
 23 22  1  0  0  0  0
 24 23  1  0  0  0  0
 24 27  1  0  0  0  0
 25 26  1  0  0  0  0
 27 28  1  0  0  0  0
 28 25  2  0  0  0  0
 28  4  1  0  0  0  0
 29 30  1  0  0  0  0
M  END
>  <MODEL>
5

>  <REMARK>
 VINA RESULT:      -7.4      3.465      7.430
  Name = 
  3 active torsions:
  status: ('A' for Active; 'I' for Inactive)
    1  A    between atoms: C_1  and  N_25
    2  A    between atoms: N_7  and  C_30
    3  A    between atoms: CA_8  and  C_22
                            x       y       z     vdW  Elec       q    Type
                         _______ _______ _______ _____ _____    ______ ____

>  <TORSDO>
F 3

$$$$
=
 OpenBabel11052410553D

 30 34  0  0  1  0  0  0  0  0999 V2000
  161.1120  210.7010  151.7000 C   0  0  0  0  0  0  0  0  0  0  0  0
  160.3730  211.1150  154.1070 C   0  0  0  0  0  0  0  0  0  0  0  0
  160.4770  211.9670  152.6430 S   0  0  0  0  0  0  0  0  0  0  0  0
  161.3800  207.5080  151.0910 N   0  0  0  0  0  2  0  0  0  0  0  0
  159.8550  206.9540  156.1310 C   0  0  0  0  0  1  0  0  0  0  0  0
  159.4220  211.4220  155.2130 C   0  0  0  0  0  2  0  0  0  0  0  0
  160.0020  209.4260  156.6890 C   0  0  0  0  0  3  0  0  0  0  0  0
  161.1230  208.1630  152.3390 C   0  0  0  0  0  0  0  0  0  0  0  0
  160.8180  209.8440  153.8240 C   0  0  0  0  0  0  0  0  0  0  0  0
  160.4920  208.5680  154.4100 C   0  0  0  0  0  0  0  0  0  0  0  0
  161.2020  209.6060  152.5390 C   0  0  0  0  0  0  0  0  0  0  0  0
  159.7740  210.7360  156.5050 C   0  0  0  0  0  3  0  0  0  0  0  0
  160.7120  207.5530  153.4170 N   0  0  0  0  0  0  0  0  0  0  0  0
  160.0810  208.3520  155.6670 C   0  0  0  0  0  0  0  0  0  0  0  0
  161.2030  213.9460  148.8180 N   0  0  0  0  0  2  0  0  0  0  0  0
  161.2700  213.9920  146.5270 O   0  0  0  0  0  0  0  0  0  0  0  0
  161.2470  213.3500  147.6090 C   0  0  0  0  0  0  0  0  0  0  0  0
  161.2120  211.7860  149.4020 C   0  0  0  0  0  0  0  0  0  0  0  0
  161.1850  213.0720  149.8220 N   0  0  0  0  0  0  0  0  0  0  0  0
  161.2190  210.6530  150.2740 N   0  0  0  0  0  2  0  0  0  0  0  0
  161.2690  211.6710  147.7220 S   0  0  0  0  0  0  0  0  0  0  0  0
  160.8410  204.2520  149.3640 N   0  0  0  0  0  2  0  0  0  0  0  0
  161.3660  203.2560  150.2940 C   0  0  1  0  0  3  0  0  0  0  0  0
  161.1950  203.7420  151.7280 C   0  0  0  0  0  2  0  0  0  0  0  0
  160.9110  205.6560  149.6430 C   0  0  0  0  0  0  0  0  0  0  0  0
  160.4560  206.5780  148.6570 N   0  0  0  0  0  1  0  0  0  0  0  0
  161.8520  205.1120  151.8670 C   0  0  0  0  0  2  0  0  0  0  0  0
  161.3360  206.0950  150.8400 C   0  0  0  0  0  0  0  0  0  0  0  0
  160.0850  201.8580  148.8180 O   0  0  0  0  0  1  0  0  0  0  0  0
  160.6810  201.9140  150.0800 C   0  0  0  0  0  2  0  0  0  0  0  0
  1 11  2  0  0  0  0
  1  3  1  0  0  0  0
  2  6  1  0  0  0  0
  3  2  1  0  0  0  0
  4  8  1  0  0  0  0
  6 12  1  0  0  0  0
  8 11  1  0  0  0  0
  8 13  2  0  0  0  0
  9  2  2  0  0  0  0
  9 10  1  0  0  0  0
 10 14  2  0  0  0  0
 11  9  1  0  0  0  0
 12  7  2  0  0  0  0
 13 10  1  0  0  0  0
 14  5  1  0  0  0  0
 14  7  1  0  0  0  0
 15 19  1  0  0  0  0
 16 17  2  0  0  0  0
 17 21  1  0  0  0  0
 17 15  1  0  0  0  0
 18 19  2  0  0  0  0
 18 20  1  0  0  0  0
 20  1  1  0  0  0  0
 21 18  1  0  0  0  0
 22 25  1  0  0  0  0
 22 23  1  0  0  0  0
 23 30  1  1  0  0  0
 23 24  1  0  0  0  0
 24 27  1  0  0  0  0
 25 28  2  0  0  0  0
 26 25  1  0  0  0  0
 28  4  1  0  0  0  0
 28 27  1  0  0  0  0
 29 30  1  0  0  0  0
M  END
>  <MODEL>
6

>  <REMARK>
 VINA RESULT:      -7.1      2.382      3.408
  Name = 
  3 active torsions:
  status: ('A' for Active; 'I' for Inactive)
    1  A    between atoms: C_1  and  N_25
    2  A    between atoms: N_7  and  C_30
    3  A    between atoms: CA_8  and  C_22
                            x       y       z     vdW  Elec       q    Type
                         _______ _______ _______ _____ _____    ______ ____

>  <TORSDO>
F 3

$$$$
=
 OpenBabel11052410553D

 30 34  0  0  1  0  0  0  0  0999 V2000
  161.3940  209.3620  154.4530 C   0  0  0  0  0  0  0  0  0  0  0  0
  161.2690  206.8730  153.9030 C   0  0  0  0  0  0  0  0  0  0  0  0
  161.1010  207.8890  155.2530 S   0  0  0  0  0  0  0  0  0  0  0  0
  161.2490  211.1680  151.7420 N   0  0  0  0  0  2  0  0  0  0  0  0
  160.8890  206.4950  149.2780 C   0  0  0  0  0  1  0  0  0  0  0  0
  160.6280  205.5360  153.7510 C   0  0  0  0  0  2  0  0  0  0  0  0
  161.3660  205.1070  151.3490 C   0  0  0  0  0  3  0  0  0  0  0  0
  161.3420  209.7440  151.8640 C   0  0  0  0  0  0  0  0  0  0  0  0
  161.5290  207.7120  152.8440 C   0  0  0  0  0  0  0  0  0  0  0  0
  161.2430  207.5850  151.4370 C   0  0  0  0  0  0  0  0  0  0  0  0
  161.5840  209.0430  153.1220 C   0  0  0  0  0  0  0  0  0  0  0  0
  161.2100  204.7240  152.6260 C   0  0  0  0  0  3  0  0  0  0  0  0
  161.1420  208.9080  150.8830 N   0  0  0  0  0  0  0  0  0  0  0  0
  161.1160  206.4420  150.7490 C   0  0  0  0  0  0  0  0  0  0  0  0
  157.6960  211.6200  154.7240 N   0  0  0  0  0  2  0  0  0  0  0  0
  157.2240  213.7550  155.4110 O   0  0  0  0  0  0  0  0  0  0  0  0
  158.0490  212.8270  155.2110 C   0  0  0  0  0  0  0  0  0  0  0  0
  159.9030  211.3550  154.9780 C   0  0  0  0  0  0  0  0  0  0  0  0
  158.7330  210.7950  154.5950 N   0  0  0  0  0  0  0  0  0  0  0  0
  161.1650  210.6810  154.9570 N   0  0  0  0  0  2  0  0  0  0  0  0
  159.7000  212.9380  155.5160 S   0  0  0  0  0  0  0  0  0  0  0  0
  159.7600  213.5370  149.2820 N   0  0  0  0  0  2  0  0  0  0  0  0
  160.6700  213.4950  148.1410 C   0  0  1  0  0  3  0  0  0  0  0  0
  161.3130  212.1180  148.0380 C   0  0  0  0  0  2  0  0  0  0  0  0
  160.0140  212.7890  150.4780 C   0  0  0  0  0  0  0  0  0  0  0  0
  159.1300  212.9390  151.5860 N   0  0  0  0  0  1  0  0  0  0  0  0
  161.9850  211.7860  149.3670 C   0  0  0  0  0  2  0  0  0  0  0  0
  161.0310  211.9110  150.5320 C   0  0  0  0  0  0  0  0  0  0  0  0
  160.2790  212.9840  145.8260 O   0  0  0  0  0  1  0  0  0  0  0  0
  159.9340  213.8590  146.8590 C   0  0  0  0  0  2  0  0  0  0  0  0
  1 20  1  0  0  0  0
  1  3  1  0  0  0  0
  2  3  1  0  0  0  0
  4  8  1  0  0  0  0
  5 14  1  0  0  0  0
  6  2  1  0  0  0  0
  7 12  2  0  0  0  0
  8 11  1  0  0  0  0
  9 11  1  0  0  0  0
  9  2  2  0  0  0  0
 10  9  1  0  0  0  0
 11  1  2  0  0  0  0
 12  6  1  0  0  0  0
 13 10  1  0  0  0  0
 13  8  2  0  0  0  0
 14  7  1  0  0  0  0
 14 10  2  0  0  0  0
 15 17  1  0  0  0  0
 17 16  2  0  0  0  0
 17 21  1  0  0  0  0
 18 21  1  0  0  0  0
 19 15  1  0  0  0  0
 19 18  2  0  0  0  0
 20 18  1  0  0  0  0
 22 25  1  0  0  0  0
 23 30  1  6  0  0  0
 23 22  1  0  0  0  0
 24 23  1  0  0  0  0
 24 27  1  0  0  0  0
 25 28  2  0  0  0  0
 25 26  1  0  0  0  0
 27 28  1  0  0  0  0
 28  4  1  0  0  0  0
 29 30  1  0  0  0  0
M  END
>  <MODEL>
7

>  <REMARK>
 VINA RESULT:      -7.1      4.058      6.904
  Name = 
  3 active torsions:
  status: ('A' for Active; 'I' for Inactive)
    1  A    between atoms: C_1  and  N_25
    2  A    between atoms: N_7  and  C_30
    3  A    between atoms: CA_8  and  C_22
                            x       y       z     vdW  Elec       q    Type
                         _______ _______ _______ _____ _____    ______ ____

>  <TORSDO>
F 3

$$$$
=
 OpenBabel11052410553D

 30 34  0  0  1  0  0  0  0  0999 V2000
  160.9600  210.7260  152.8090 C   0  0  0  0  0  0  0  0  0  0  0  0
  161.3240  208.2080  152.6050 C   0  0  0  0  0  0  0  0  0  0  0  0
  160.6220  209.3100  153.6900 S   0  0  0  0  0  0  0  0  0  0  0  0
  161.4350  212.2120  149.9460 N   0  0  0  0  0  2  0  0  0  0  0  0
  162.4420  207.3260  148.1720 C   0  0  0  0  0  1  0  0  0  0  0  0
  160.9340  206.7760  152.4640 C   0  0  0  0  0  2  0  0  0  0  0  0
  162.4260  206.2410  150.4670 C   0  0  0  0  0  3  0  0  0  0  0  0
  161.6640  210.8410  150.2910 C   0  0  0  0  0  0  0  0  0  0  0  0
  161.7920  208.9710  151.5600 C   0  0  0  0  0  0  0  0  0  0  0  0
  161.9720  208.6640  150.1630 C   0  0  0  0  0  0  0  0  0  0  0  0
  161.5910  210.3150  151.6500 C   0  0  0  0  0  0  0  0  0  0  0  0
  161.9320  205.9640  151.6850 C   0  0  0  0  0  3  0  0  0  0  0  0
  161.8830  209.8920  149.4220 N   0  0  0  0  0  0  0  0  0  0  0  0
  162.2090  207.4540  149.6380 C   0  0  0  0  0  0  0  0  0  0  0  0
  157.0350  211.9000  154.2430 N   0  0  0  0  0  2  0  0  0  0  0  0
  156.0340  213.9410  154.5430 O   0  0  0  0  0  0  0  0  0  0  0  0
  157.0280  213.2490  154.2040 C   0  0  0  0  0  0  0  0  0  0  0  0
  159.0970  212.3200  153.4830 C   0  0  0  0  0  0  0  0  0  0  0  0
  158.1930  211.3810  153.8410 N   0  0  0  0  0  0  0  0  0  0  0  0
  160.4230  212.0330  153.0320 N   0  0  0  0  0  2  0  0  0  0  0  0
  158.4900  213.8820  153.6610 S   0  0  0  0  0  0  0  0  0  0  0  0
  160.4410  213.8990  146.7760 N   0  0  0  0  0  2  0  0  0  0  0  0
  161.6920  214.0590  146.0420 C   0  0  1  0  0  3  0  0  0  0  0  0
  162.6500  212.9260  146.3900 C   0  0  0  0  0  2  0  0  0  0  0  0
  160.4040  213.3270  148.0900 C   0  0  0  0  0  0  0  0  0  0  0  0
  159.1620  213.2760  148.7850 N   0  0  0  0  0  1  0  0  0  0  0  0
  162.8310  212.8810  147.9040 C   0  0  0  0  0  2  0  0  0  0  0  0
  161.5100  212.7890  148.6320 C   0  0  0  0  0  0  0  0  0  0  0  0
  161.5790  212.8560  143.9650 O   0  0  0  0  0  1  0  0  0  0  0  0
  161.4280  214.1180  144.5440 C   0  0  0  0  0  2  0  0  0  0  0  0
  1 20  1  0  0  0  0
  1  3  1  0  0  0  0
  2  3  1  0  0  0  0
  4  8  1  0  0  0  0
  5 14  1  0  0  0  0
  6  2  1  0  0  0  0
  7 12  2  0  0  0  0
  8 11  1  0  0  0  0
  9 11  1  0  0  0  0
  9  2  2  0  0  0  0
 10  9  1  0  0  0  0
 11  1  2  0  0  0  0
 12  6  1  0  0  0  0
 13 10  1  0  0  0  0
 13  8  2  0  0  0  0
 14 10  2  0  0  0  0
 14  7  1  0  0  0  0
 17 15  1  0  0  0  0
 17 16  2  0  0  0  0
 18 21  1  0  0  0  0
 18 19  2  0  0  0  0
 19 15  1  0  0  0  0
 20 18  1  0  0  0  0
 21 17  1  0  0  0  0
 22 25  1  0  0  0  0
 23 30  1  6  0  0  0
 23 24  1  0  0  0  0
 23 22  1  0  0  0  0
 24 27  1  0  0  0  0
 25 28  2  0  0  0  0
 25 26  1  0  0  0  0
 27 28  1  0  0  0  0
 28  4  1  0  0  0  0
 29 30  1  0  0  0  0
M  END
>  <MODEL>
8

>  <REMARK>
 VINA RESULT:      -7.0      3.935      6.789
  Name = 
  3 active torsions:
  status: ('A' for Active; 'I' for Inactive)
    1  A    between atoms: C_1  and  N_25
    2  A    between atoms: N_7  and  C_30
    3  A    between atoms: CA_8  and  C_22
                            x       y       z     vdW  Elec       q    Type
                         _______ _______ _______ _____ _____    ______ ____

>  <TORSDO>
F 3

$$$$
=
 OpenBabel11052410553D

 30 34  0  0  1  0  0  0  0  0999 V2000
  161.7840  208.4970  152.3570 C   0  0  0  0  0  0  0  0  0  0  0  0
  161.3980  206.1930  151.3310 C   0  0  0  0  0  0  0  0  0  0  0  0
  161.2660  206.9510  152.8440 S   0  0  0  0  0  0  0  0  0  0  0  0
  162.0320  210.7820  150.0440 N   0  0  0  0  0  2  0  0  0  0  0  0
  161.2780  206.7390  146.7090 C   0  0  0  0  0  1  0  0  0  0  0  0
  160.6130  205.0030  150.8970 C   0  0  0  0  0  2  0  0  0  0  0  0
  161.4490  204.9380  148.4890 C   0  0  0  0  0  3  0  0  0  0  0  0
  161.9470  209.3600  149.8920 C   0  0  0  0  0  0  0  0  0  0  0  0
  161.8250  207.1740  150.4660 C   0  0  0  0  0  0  0  0  0  0  0  0
  161.6180  207.3510  149.0500 C   0  0  0  0  0  0  0  0  0  0  0  0
  162.0210  208.4120  150.9980 C   0  0  0  0  0  0  0  0  0  0  0  0
  161.1670  204.3470  149.6610 C   0  0  0  0  0  3  0  0  0  0  0  0
  161.7120  208.7560  148.7590 N   0  0  0  0  0  0  0  0  0  0  0  0
  161.4010  206.3830  148.1500 C   0  0  0  0  0  0  0  0  0  0  0  0
  159.6510  209.3300  156.0460 N   0  0  0  0  0  2  0  0  0  0  0  0
  159.3330  211.2470  157.2610 O   0  0  0  0  0  0  0  0  0  0  0  0
  159.8280  210.6470  156.2720 C   0  0  0  0  0  0  0  0  0  0  0  0
  160.9250  209.9010  154.2970 C   0  0  0  0  0  0  0  0  0  0  0  0
  160.2660  208.9110  154.9420 N   0  0  0  0  0  0  0  0  0  0  0  0
  161.6820  209.7180  153.0970 N   0  0  0  0  0  2  0  0  0  0  0  0
  160.7790  211.3790  155.0920 S   0  0  0  0  0  0  0  0  0  0  0  0
  160.9280  213.6730  147.9690 N   0  0  0  0  0  2  0  0  0  0  0  0
  161.9620  213.8020  146.9460 C   0  0  1  0  0  3  0  0  0  0  0  0
  162.5620  212.4370  146.6360 C   0  0  0  0  0  2  0  0  0  0  0  0
  161.0130  212.6900  149.0090 C   0  0  0  0  0  0  0  0  0  0  0  0
  160.0130  212.6710  150.0240 N   0  0  0  0  0  1  0  0  0  0  0  0
  163.0620  211.8100  147.9350 C   0  0  0  0  0  2  0  0  0  0  0  0
  161.9840  211.7600  148.9930 C   0  0  0  0  0  0  0  0  0  0  0  0
  160.6920  213.5210  144.9260 O   0  0  0  0  0  1  0  0  0  0  0  0
  161.3940  214.4530  145.6940 C   0  0  0  0  0  2  0  0  0  0  0  0
  1  3  1  0  0  0  0
  1 20  1  0  0  0  0
  2  3  1  0  0  0  0
  5 14  1  0  0  0  0
  6  2  1  0  0  0  0
  7 12  2  0  0  0  0
  8  4  1  0  0  0  0
  8 11  1  0  0  0  0
  9 11  1  0  0  0  0
  9  2  2  0  0  0  0
 10  9  1  0  0  0  0
 11  1  2  0  0  0  0
 12  6  1  0  0  0  0
 13 10  1  0  0  0  0
 13  8  2  0  0  0  0
 14  7  1  0  0  0  0
 14 10  2  0  0  0  0
 15 17  1  0  0  0  0
 17 16  2  0  0  0  0
 18 19  2  0  0  0  0
 18 21  1  0  0  0  0
 19 15  1  0  0  0  0
 20 18  1  0  0  0  0
 21 17  1  0  0  0  0
 22 25  1  0  0  0  0
 23 30  1  6  0  0  0
 23 22  1  0  0  0  0
 24 23  1  0  0  0  0
 24 27  1  0  0  0  0
 25 26  1  0  0  0  0
 27 28  1  0  0  0  0
 28 25  2  0  0  0  0
 28  4  1  0  0  0  0
 29 30  1  0  0  0  0
M  END
>  <MODEL>
9

>  <REMARK>
 VINA RESULT:      -6.6      3.536      7.075
  Name = 
  3 active torsions:
  status: ('A' for Active; 'I' for Inactive)
    1  A    between atoms: C_1  and  N_25
    2  A    between atoms: N_7  and  C_30
    3  A    between atoms: CA_8  and  C_22
                            x       y       z     vdW  Elec       q    Type
                         _______ _______ _______ _____ _____    ______ ____

>  <TORSDO>
F 3

$$$$
