=
 OpenBabel11042420223D

 30 32  0  0  1  0  0  0  0  0999 V2000
  161.4540  208.9550  152.3770 C   0  0  0  0  0  0  0  0  0  0  0  0
  160.2350  207.5130  155.4550 O   0  0  0  0  0  0  0  0  0  0  0  0
  161.9060  207.7360  151.6830 C   0  0  0  0  0  0  0  0  0  0  0  0
  161.8220  206.5340  152.3040 C   0  0  0  0  0  0  0  0  0  0  0  0
  161.5380  206.4200  153.7810 C   0  0  0  0  0  2  0  0  0  0  0  0
  161.5540  210.0800  151.8200 O   0  0  0  0  0  0  0  0  0  0  0  0
  160.8740  208.8650  153.6770 N   0  0  0  0  0  2  0  0  0  0  0  0
  160.8270  207.6090  154.3490 C   0  0  0  0  0  0  0  0  0  0  0  0
  161.1130  204.7360  150.6870 C   0  0  0  0  0  0  0  0  0  0  0  0
  160.0040  205.2990  150.4810 O   0  0  0  0  0  0  0  0  0  0  0  0
  162.0600  205.3100  151.6000 N   0  0  0  0  0  2  0  0  0  0  0  0
  161.3820  202.1350  151.9610 O   0  0  0  0  0  1  0  0  0  0  0  0
  161.2500  202.2380  147.7730 C   0  0  2  0  0  3  0  0  0  0  0  0
  161.4300  203.4640  149.9610 C   0  0  1  0  0  3  0  0  0  0  0  0
  160.8270  202.2530  150.6860 C   0  0  1  0  0  3  0  0  0  0  0  0
  160.5760  201.0720  148.4860 C   0  0  0  0  0  2  0  0  0  0  0  0
  161.1030  200.9660  149.9120 C   0  0  0  0  0  2  0  0  0  0  0  0
  160.9460  203.5380  148.5110 C   0  0  0  0  0  2  0  0  0  0  0  0
  160.7770  202.3230  146.4630 O   0  0  0  0  0  0  0  0  0  0  0  0
  160.0120  200.9300  144.8320 O   0  0  0  0  0  1  0  0  0  0  0  0
  160.7700  201.0070  145.9990 C   0  0  0  0  0  2  0  0  0  0  0  0
  162.4120  207.8730  150.3480 N   0  0  0  0  0  2  0  0  0  0  0  0
  161.5810  208.1180  149.2460 N   0  0  0  0  0  2  0  0  0  0  0  0
  160.4290  206.3120  146.2020 C   0  0  0  0  0  3  0  0  0  0  0  0
  162.7660  205.7940  146.5690 C   0  0  0  0  0  3  0  0  0  0  0  0
  160.4300  207.1240  147.3390 C   0  0  0  0  0  3  0  0  0  0  0  0
  161.5960  204.6300  144.3920 Cl  0  0  0  0  0  0  0  0  0  0  0  0
  162.7670  206.6080  147.7060 C   0  0  0  0  0  3  0  0  0  0  0  0
  161.5980  207.2760  148.0940 C   0  0  0  0  0  0  0  0  0  0  0  0
  161.5970  205.6480  145.8160 C   0  0  0  0  0  0  0  0  0  0  0  0
  1  7  1  0  0  0  0
  3  4  2  0  0  0  0
  3  1  1  0  0  0  0
  4  5  1  0  0  0  0
  5  8  1  0  0  0  0
  6  1  2  0  0  0  0
  7  8  1  0  0  0  0
  8  2  2  0  0  0  0
  9 11  1  0  0  0  0
 10  9  2  0  0  0  0
 11  4  1  0  0  0  0
 13 19  1  6  0  0  0
 13 16  1  0  0  0  0
 13 18  1  0  0  0  0
 14 15  1  0  0  0  0
 14  9  1  1  0  0  0
 15 12  1  1  0  0  0
 16 17  1  0  0  0  0
 17 15  1  0  0  0  0
 18 14  1  0  0  0  0
 20 21  1  0  0  0  0
 21 19  1  0  0  0  0
 22  3  1  0  0  0  0
 23 22  1  0  0  0  0
 24 26  1  0  0  0  0
 25 28  2  0  0  0  0
 26 29  2  0  0  0  0
 27 30  1  0  0  0  0
 28 29  1  0  0  0  0
 29 23  1  0  0  0  0
 30 24  2  0  0  0  0
 30 25  1  0  0  0  0
M  END
>  <MODEL>
1

>  <REMARK>
 VINA RESULT:      -7.9      0.000      0.000
  Name = 
  7 active torsions:
  status: ('A' for Active; 'I' for Inactive)
    1  A    between atoms: N_4  and  N_10
    2  A    between atoms: N_4  and  C_18
    3  A    between atoms: C_5  and  C_15
    4  A    between atoms: C_9  and  O_11
    5  A    between atoms: N_10  and  C_12
    6  A    between atoms: O_11  and  C_24
    7  A    between atoms: C_19  and  N_22
                            x       y       z     vdW  Elec       q    Type
                         _______ _______ _______ _____ _____    ______ ____

>  <TORSDO>
F 7

$$$$
=
 OpenBabel11042420223D

 30 32  0  0  1  0  0  0  0  0999 V2000
  161.3190  209.9300  155.0940 C   0  0  0  0  0  0  0  0  0  0  0  0
  160.1470  206.9520  156.7650 O   0  0  0  0  0  0  0  0  0  0  0  0
  161.2590  209.4790  153.6910 C   0  0  0  0  0  0  0  0  0  0  0  0
  160.8850  208.2080  153.4060 C   0  0  0  0  0  0  0  0  0  0  0  0
  160.7880  207.1480  154.4750 C   0  0  0  0  0  2  0  0  0  0  0  0
  161.6930  211.1000  155.3710 O   0  0  0  0  0  0  0  0  0  0  0  0
  160.9270  209.0500  156.1450 N   0  0  0  0  0  2  0  0  0  0  0  0
  160.5790  207.7000  155.8510 C   0  0  0  0  0  0  0  0  0  0  0  0
  161.5270  206.9750  151.3040 C   0  0  0  0  0  0  0  0  0  0  0  0
  162.6220  206.6030  151.8060 O   0  0  0  0  0  0  0  0  0  0  0  0
  160.6210  207.7890  152.0620 N   0  0  0  0  0  2  0  0  0  0  0  0
  161.9220  208.6170  148.9370 O   0  0  0  0  0  1  0  0  0  0  0  0
  160.9180  204.5890  148.3570 C   0  0  2  0  0  3  0  0  0  0  0  0
  161.1830  206.5500  149.9090 C   0  0  1  0  0  3  0  0  0  0  0  0
  162.0990  207.2340  148.8850 C   0  0  1  0  0  3  0  0  0  0  0  0
  161.8930  205.2360  147.3800 C   0  0  0  0  0  2  0  0  0  0  0  0
  161.7830  206.7530  147.4700 C   0  0  0  0  0  2  0  0  0  0  0  0
  161.2500  205.0260  149.7800 C   0  0  0  0  0  2  0  0  0  0  0  0
  161.0110  203.2000  148.2610 O   0  0  0  0  0  0  0  0  0  0  0  0
  159.8990  201.6660  149.5240 O   0  0  0  0  0  1  0  0  0  0  0  0
  160.7910  202.7370  149.5590 C   0  0  0  0  0  2  0  0  0  0  0  0
  161.5920  210.4260  152.6670 N   0  0  0  0  0  2  0  0  0  0  0  0
  160.6230  211.0240  151.8480 N   0  0  0  0  0  2  0  0  0  0  0  0
  157.6410  212.0930  153.8030 C   0  0  0  0  0  3  0  0  0  0  0  0
  158.5200  214.0160  152.6210 C   0  0  0  0  0  3  0  0  0  0  0  0
  158.6490  211.2950  153.2540 C   0  0  0  0  0  3  0  0  0  0  0  0
  156.3150  214.4530  154.1730 Cl  0  0  0  0  0  0  0  0  0  0  0  0
  159.5290  213.2180  152.0740 C   0  0  0  0  0  3  0  0  0  0  0  0
  159.5960  211.8540  152.3890 C   0  0  0  0  0  0  0  0  0  0  0  0
  157.5770  213.4540  153.4870 C   0  0  0  0  0  0  0  0  0  0  0  0
  1  6  2  0  0  0  0
  1  7  1  0  0  0  0
  3  1  1  0  0  0  0
  4  3  2  0  0  0  0
  4  5  1  0  0  0  0
  5  8  1  0  0  0  0
  8  7  1  0  0  0  0
  8  2  2  0  0  0  0
  9 10  2  0  0  0  0
  9 11  1  0  0  0  0
 11  4  1  0  0  0  0
 13 19  1  1  0  0  0
 13 18  1  0  0  0  0
 14  9  1  1  0  0  0
 15 12  1  6  0  0  0
 15 14  1  0  0  0  0
 16 17  1  0  0  0  0
 16 13  1  0  0  0  0
 17 15  1  0  0  0  0
 18 14  1  0  0  0  0
 19 21  1  0  0  0  0
 20 21  1  0  0  0  0
 22  3  1  0  0  0  0
 23 29  1  0  0  0  0
 23 22  1  0  0  0  0
 25 30  2  0  0  0  0
 26 24  2  0  0  0  0
 28 29  2  0  0  0  0
 28 25  1  0  0  0  0
 29 26  1  0  0  0  0
 30 24  1  0  0  0  0
 30 27  1  0  0  0  0
M  END
>  <MODEL>
2

>  <REMARK>
 VINA RESULT:      -7.1      3.914      5.922
  Name = 
  7 active torsions:
  status: ('A' for Active; 'I' for Inactive)
    1  A    between atoms: N_4  and  N_10
    2  A    between atoms: N_4  and  C_18
    3  A    between atoms: C_5  and  C_15
    4  A    between atoms: C_9  and  O_11
    5  A    between atoms: N_10  and  C_12
    6  A    between atoms: O_11  and  C_24
    7  A    between atoms: C_19  and  N_22
                            x       y       z     vdW  Elec       q    Type
                         _______ _______ _______ _____ _____    ______ ____

>  <TORSDO>
F 7

$$$$
=
 OpenBabel11042420223D

 30 32  0  0  1  0  0  0  0  0999 V2000
  162.1710  208.5050  149.0260 C   0  0  0  0  0  0  0  0  0  0  0  0
  161.5790  211.9700  148.2010 O   0  0  0  0  0  0  0  0  0  0  0  0
  162.1840  208.5890  150.4980 C   0  0  0  0  0  0  0  0  0  0  0  0
  162.0480  209.7920  151.1060 C   0  0  0  0  0  0  0  0  0  0  0  0
  162.1560  211.0880  150.3420 C   0  0  0  0  0  2  0  0  0  0  0  0
  162.3250  207.3960  148.4500 O   0  0  0  0  0  0  0  0  0  0  0  0
  161.9560  209.6780  148.2440 N   0  0  0  0  0  2  0  0  0  0  0  0
  161.8590  210.9500  148.8810 C   0  0  0  0  0  0  0  0  0  0  0  0
  160.5900  210.2170  153.1170 C   0  0  0  0  0  0  0  0  0  0  0  0
  159.5820  210.4380  152.3930 O   0  0  0  0  0  0  0  0  0  0  0  0
  161.8550  209.8960  152.5220 N   0  0  0  0  0  2  0  0  0  0  0  0
  161.2200  208.0400  154.9400 O   0  0  0  0  0  1  0  0  0  0  0  0
  160.4590  211.8080  156.6100 C   0  0  2  0  0  3  0  0  0  0  0  0
  160.4450  210.2880  154.6070 C   0  0  1  0  0  3  0  0  0  0  0  0
  161.4570  209.3660  155.3020 C   0  0  1  0  0  3  0  0  0  0  0  0
  161.5250  210.9340  157.2610 C   0  0  0  0  0  2  0  0  0  0  0  0
  161.3450  209.4860  156.8200 C   0  0  0  0  0  2  0  0  0  0  0  0
  160.5880  211.7320  155.0920 C   0  0  0  0  0  2  0  0  0  0  0  0
  160.6190  213.1300  157.0270 O   0  0  0  0  0  0  0  0  0  0  0  0
  158.3730  213.4620  157.2160 O   0  0  0  0  0  1  0  0  0  0  0  0
  159.5190  213.8070  156.4990 C   0  0  0  0  0  2  0  0  0  0  0  0
  162.3280  207.3690  151.2380 N   0  0  0  0  0  2  0  0  0  0  0  0
  161.2370  206.5550  151.5730 N   0  0  0  0  0  2  0  0  0  0  0  0
  161.1810  202.8330  151.5910 C   0  0  0  0  0  3  0  0  0  0  0  0
  160.7800  203.6010  149.3290 C   0  0  0  0  0  3  0  0  0  0  0  0
  161.2860  204.1590  152.0230 C   0  0  0  0  0  3  0  0  0  0  0  0
  160.7960  200.8950  149.7040 Cl  0  0  0  0  0  0  0  0  0  0  0  0
  160.8830  204.9270  149.7620 C   0  0  0  0  0  3  0  0  0  0  0  0
  161.1370  205.2090  151.1110 C   0  0  0  0  0  0  0  0  0  0  0  0
  160.9270  202.5550  150.2440 C   0  0  0  0  0  0  0  0  0  0  0  0
  1  3  1  0  0  0  0
  2  8  2  0  0  0  0
  3  4  2  0  0  0  0
  3 22  1  0  0  0  0
  4 11  1  0  0  0  0
  5  4  1  0  0  0  0
  6  1  2  0  0  0  0
  7  8  1  0  0  0  0
  7  1  1  0  0  0  0
  8  5  1  0  0  0  0
 10  9  2  0  0  0  0
 11  9  1  0  0  0  0
 13 19  1  1  0  0  0
 13 16  1  0  0  0  0
 14  9  1  6  0  0  0
 14 18  1  0  0  0  0
 14 15  1  0  0  0  0
 15 12  1  1  0  0  0
 15 17  1  0  0  0  0
 17 16  1  0  0  0  0
 18 13  1  0  0  0  0
 21 19  1  0  0  0  0
 21 20  1  0  0  0  0
 22 23  1  0  0  0  0
 24 26  1  0  0  0  0
 25 28  2  0  0  0  0
 25 30  1  0  0  0  0
 27 30  1  0  0  0  0
 28 29  1  0  0  0  0
 29 23  1  0  0  0  0
 29 26  2  0  0  0  0
 30 24  2  0  0  0  0
M  END
>  <MODEL>
3

>  <REMARK>
 VINA RESULT:      -6.9      3.316      8.346
  Name = 
  7 active torsions:
  status: ('A' for Active; 'I' for Inactive)
    1  A    between atoms: N_4  and  N_10
    2  A    between atoms: N_4  and  C_18
    3  A    between atoms: C_5  and  C_15
    4  A    between atoms: C_9  and  O_11
    5  A    between atoms: N_10  and  C_12
    6  A    between atoms: O_11  and  C_24
    7  A    between atoms: C_19  and  N_22
                            x       y       z     vdW  Elec       q    Type
                         _______ _______ _______ _____ _____    ______ ____

>  <TORSDO>
F 7

$$$$
=
 OpenBabel11042420223D

 30 32  0  0  1  0  0  0  0  0999 V2000
  161.0240  210.2080  154.4540 C   0  0  0  0  0  0  0  0  0  0  0  0
  161.1810  207.5190  156.8570 O   0  0  0  0  0  0  0  0  0  0  0  0
  160.8530  209.4340  153.2110 C   0  0  0  0  0  0  0  0  0  0  0  0
  160.8550  208.0800  153.2540 C   0  0  0  0  0  0  0  0  0  0  0  0
  161.2960  207.3220  154.4820 C   0  0  0  0  0  2  0  0  0  0  0  0
  161.0530  211.4670  154.4210 O   0  0  0  0  0  0  0  0  0  0  0  0
  161.1300  209.5360  155.7070 N   0  0  0  0  0  2  0  0  0  0  0  0
  161.1790  208.1130  155.7480 C   0  0  0  0  0  0  0  0  0  0  0  0
  161.4620  206.6970  151.2360 C   0  0  0  0  0  0  0  0  0  0  0  0
  162.6950  206.8610  151.4430 O   0  0  0  0  0  0  0  0  0  0  0  0
  160.4950  207.2950  152.1110 N   0  0  0  0  0  2  0  0  0  0  0  0
  161.2950  207.6610  148.4970 O   0  0  0  0  0  1  0  0  0  0  0  0
  160.8870  203.5380  149.1300 C   0  0  2  0  0  3  0  0  0  0  0  0
  161.0220  205.8670  150.0690 C   0  0  1  0  0  3  0  0  0  0  0  0
  161.6840  206.3490  148.7710 C   0  0  1  0  0  3  0  0  0  0  0  0
  161.6180  204.0050  147.8770 C   0  0  0  0  0  2  0  0  0  0  0  0
  161.2780  205.4630  147.5950 C   0  0  0  0  0  2  0  0  0  0  0  0
  161.3160  204.3860  150.3230 C   0  0  0  0  0  2  0  0  0  0  0  0
  161.1890  202.1980  149.3770 O   0  0  0  0  0  0  0  0  0  0  0  0
  161.3350  200.5130  147.8510 O   0  0  0  0  0  1  0  0  0  0  0  0
  160.4990  201.4880  148.3930 C   0  0  0  0  0  2  0  0  0  0  0  0
  160.6750  210.1610  151.9870 N   0  0  0  0  0  0  0  0  0  0  0  0
  161.6800  210.2580  151.0130 N   0  0  0  0  0  0  0  0  0  0  0  0
  162.4140  212.0960  147.8610 C   0  0  0  0  0  3  0  0  0  0  0  0
  160.8270  213.3880  149.1560 C   0  0  0  0  0  3  0  0  0  0  0  0
  162.4350  211.1190  148.8600 C   0  0  0  0  0  3  0  0  0  0  0  0
  161.5830  214.4530  146.7570 Cl  0  0  0  0  0  0  0  0  0  0  0  0
  160.8470  212.4100  150.1550 C   0  0  0  0  0  3  0  0  0  0  0  0
  161.6520  211.2720  150.0100 C   0  0  0  0  0  0  0  0  0  0  0  0
  161.6090  213.2300  148.0080 C   0  0  0  0  0  0  0  0  0  0  0  0
  1  7  1  0  0  0  0
  3  4  2  0  0  0  0
  3  1  1  0  0  0  0
  4  5  1  0  0  0  0
  5  8  1  0  0  0  0
  6  1  2  0  0  0  0
  7  8  1  0  0  0  0
  8  2  2  0  0  0  0
  9 10  2  0  0  0  0
  9 11  1  0  0  0  0
 11  4  1  0  0  0  0
 13 19  1  1  0  0  0
 13 18  1  0  0  0  0
 14 18  1  0  0  0  0
 14  9  1  1  0  0  0
 15 12  1  6  0  0  0
 15 14  1  0  0  0  0
 16 13  1  0  0  0  0
 17 16  1  0  0  0  0
 17 15  1  0  0  0  0
 20 21  1  0  0  0  0
 21 19  1  0  0  0  0
 22  3  1  0  0  0  0
 23 22  2  0  0  0  0
 24 30  2  0  0  0  0
 24 26  1  0  0  0  0
 25 28  2  0  0  0  0
 26 29  2  0  0  0  0
 27 30  1  0  0  0  0
 29 28  1  0  0  0  0
 29 23  1  0  0  0  0
 30 25  1  0  0  0  0
M  END
>  <MODEL>
4

>  <REMARK>
 VINA RESULT:      -6.9      3.286      4.373
  Name = 
  7 active torsions:
  status: ('A' for Active; 'I' for Inactive)
    1  A    between atoms: N_4  and  N_10
    2  A    between atoms: N_4  and  C_18
    3  A    between atoms: C_5  and  C_15
    4  A    between atoms: C_9  and  O_11
    5  A    between atoms: N_10  and  C_12
    6  A    between atoms: O_11  and  C_24
    7  A    between atoms: C_19  and  N_22
                            x       y       z     vdW  Elec       q    Type
                         _______ _______ _______ _____ _____    ______ ____

>  <TORSDO>
F 7

$$$$
=
 OpenBabel11042420223D

 30 32  0  0  1  0  0  0  0  0999 V2000
  162.2000  208.3990  148.8240 C   0  0  0  0  0  0  0  0  0  0  0  0
  161.6200  211.9160  148.2540 O   0  0  0  0  0  0  0  0  0  0  0  0
  162.2740  208.3850  150.2970 C   0  0  0  0  0  0  0  0  0  0  0  0
  162.1780  209.5470  150.9880 C   0  0  0  0  0  0  0  0  0  0  0  0
  162.2720  210.8890  150.3070 C   0  0  0  0  0  2  0  0  0  0  0  0
  162.3160  207.3280  148.1710 O   0  0  0  0  0  0  0  0  0  0  0  0
  161.9680  209.6230  148.1310 N   0  0  0  0  0  2  0  0  0  0  0  0
  161.9140  210.8500  148.8530 C   0  0  0  0  0  0  0  0  0  0  0  0
  160.8400  209.9580  153.0830 C   0  0  0  0  0  0  0  0  0  0  0  0
  159.8370  210.3360  152.4190 O   0  0  0  0  0  0  0  0  0  0  0  0
  162.0440  209.5590  152.4140 N   0  0  0  0  0  2  0  0  0  0  0  0
  159.8070  207.7210  154.6280 O   0  0  0  0  0  1  0  0  0  0  0  0
  161.7490  210.7900  156.7210 C   0  0  2  0  0  3  0  0  0  0  0  0
  160.7530  209.9270  154.5790 C   0  0  1  0  0  3  0  0  0  0  0  0
  160.8680  208.4910  155.1070 C   0  0  1  0  0  3  0  0  0  0  0  0
  161.9370  209.3570  157.2050 C   0  0  0  0  0  2  0  0  0  0  0  0
  160.8370  208.4710  156.6330 C   0  0  0  0  0  2  0  0  0  0  0  0
  161.8220  210.8320  155.1980 C   0  0  0  0  0  2  0  0  0  0  0  0
  162.7490  211.6010  157.2590 O   0  0  0  0  0  0  0  0  0  0  0  0
  165.0200  211.7140  157.1160 O   0  0  0  0  0  1  0  0  0  0  0  0
  163.9220  210.8550  157.1320 C   0  0  0  0  0  2  0  0  0  0  0  0
  162.4330  207.1170  150.9490 N   0  0  0  0  0  2  0  0  0  0  0  0
  161.3440  206.3070  151.3010 N   0  0  0  0  0  2  0  0  0  0  0  0
  160.8610  203.5920  148.8000 C   0  0  0  0  0  3  0  0  0  0  0  0
  161.0040  202.5960  151.0040 C   0  0  0  0  0  3  0  0  0  0  0  0
  161.0190  204.8610  149.3630 C   0  0  0  0  0  3  0  0  0  0  0  0
  160.6550  200.8700  148.9160 Cl  0  0  0  0  0  0  0  0  0  0  0  0
  161.1640  203.8660  151.5660 C   0  0  0  0  0  3  0  0  0  0  0  0
  161.1720  205.0040  150.7470 C   0  0  0  0  0  0  0  0  0  0  0  0
  160.8540  202.4600  149.6210 C   0  0  0  0  0  0  0  0  0  0  0  0
  1  3  1  0  0  0  0
  2  8  2  0  0  0  0
  3 22  1  0  0  0  0
  3  4  2  0  0  0  0
  4 11  1  0  0  0  0
  5  4  1  0  0  0  0
  6  1  2  0  0  0  0
  7  1  1  0  0  0  0
  7  8  1  0  0  0  0
  8  5  1  0  0  0  0
 10  9  2  0  0  0  0
 11  9  1  0  0  0  0
 13 16  1  0  0  0  0
 13 19  1  1  0  0  0
 14  9  1  6  0  0  0
 14 15  1  0  0  0  0
 14 18  1  0  0  0  0
 15 12  1  6  0  0  0
 15 17  1  0  0  0  0
 17 16  1  0  0  0  0
 18 13  1  0  0  0  0
 20 21  1  0  0  0  0
 21 19  1  0  0  0  0
 22 23  1  0  0  0  0
 24 26  2  0  0  0  0
 24 30  1  0  0  0  0
 25 28  1  0  0  0  0
 26 29  1  0  0  0  0
 27 30  1  0  0  0  0
 29 23  1  0  0  0  0
 29 28  2  0  0  0  0
 30 25  2  0  0  0  0
M  END
>  <MODEL>
5

>  <REMARK>
 VINA RESULT:      -6.9      3.092      7.886
  Name = 
  7 active torsions:
  status: ('A' for Active; 'I' for Inactive)
    1  A    between atoms: N_4  and  N_10
    2  A    between atoms: N_4  and  C_18
    3  A    between atoms: C_5  and  C_15
    4  A    between atoms: C_9  and  O_11
    5  A    between atoms: N_10  and  C_12
    6  A    between atoms: O_11  and  C_24
    7  A    between atoms: C_19  and  N_22
                            x       y       z     vdW  Elec       q    Type
                         _______ _______ _______ _____ _____    ______ ____

>  <TORSDO>
F 7

$$$$
=
 OpenBabel11042420223D

 30 32  0  0  1  0  0  0  0  0999 V2000
  162.1390  208.4420  148.9520 C   0  0  0  0  0  0  0  0  0  0  0  0
  161.6990  211.8750  147.9240 O   0  0  0  0  0  0  0  0  0  0  0  0
  162.2240  208.6190  150.4130 C   0  0  0  0  0  0  0  0  0  0  0  0
  162.1820  209.8650  150.9450 C   0  0  0  0  0  0  0  0  0  0  0  0
  162.3250  211.1010  150.0920 C   0  0  0  0  0  2  0  0  0  0  0  0
  162.2050  207.2910  148.4460 O   0  0  0  0  0  0  0  0  0  0  0  0
  161.9520  209.5730  148.1040 N   0  0  0  0  0  2  0  0  0  0  0  0
  161.9540  210.8860  148.6580 C   0  0  0  0  0  0  0  0  0  0  0  0
  160.9940  210.8270  152.9490 C   0  0  0  0  0  0  0  0  0  0  0  0
  160.1140  211.3620  152.2230 O   0  0  0  0  0  0  0  0  0  0  0  0
  162.0600  210.0710  152.3570 N   0  0  0  0  0  2  0  0  0  0  0  0
  159.4280  212.8730  154.2970 O   0  0  0  0  0  1  0  0  0  0  0  0
  161.0400  209.8010  156.6500 C   0  0  2  0  0  3  0  0  0  0  0  0
  160.9080  210.9870  154.4360 C   0  0  1  0  0  3  0  0  0  0  0  0
  159.5600  211.5970  154.8460 C   0  0  1  0  0  3  0  0  0  0  0  0
  159.6640  210.3430  157.0180 C   0  0  0  0  0  2  0  0  0  0  0  0
  159.4550  211.7040  156.3650 C   0  0  0  0  0  2  0  0  0  0  0  0
  161.1450  209.6470  155.1360 C   0  0  0  0  0  2  0  0  0  0  0  0
  161.2340  208.5610  157.2600 O   0  0  0  0  0  0  0  0  0  0  0  0
  159.7230  206.9170  156.8120 O   0  0  0  0  0  1  0  0  0  0  0  0
  160.8140  207.6270  156.3130 C   0  0  0  0  0  2  0  0  0  0  0  0
  162.3360  207.4430  151.2260 N   0  0  0  0  0  2  0  0  0  0  0  0
  161.2270  206.6600  151.5780 N   0  0  0  0  0  2  0  0  0  0  0  0
  160.8260  203.6560  149.4150 C   0  0  0  0  0  3  0  0  0  0  0  0
  161.1240  202.9250  151.7050 C   0  0  0  0  0  3  0  0  0  0  0  0
  160.9230  204.9880  149.8280 C   0  0  0  0  0  3  0  0  0  0  0  0
  160.8070  200.9570  149.8380 Cl  0  0  0  0  0  0  0  0  0  0  0  0
  161.2210  204.2580  152.1170 C   0  0  0  0  0  3  0  0  0  0  0  0
  161.1210  205.2940  151.1790 C   0  0  0  0  0  0  0  0  0  0  0  0
  160.9280  202.6250  150.3540 C   0  0  0  0  0  0  0  0  0  0  0  0
  1  3  1  0  0  0  0
  2  8  2  0  0  0  0
  3  4  2  0  0  0  0
  3 22  1  0  0  0  0
  4 11  1  0  0  0  0
  5  4  1  0  0  0  0
  6  1  2  0  0  0  0
  7  8  1  0  0  0  0
  7  1  1  0  0  0  0
  8  5  1  0  0  0  0
 10  9  2  0  0  0  0
 11  9  1  0  0  0  0
 13 16  1  0  0  0  0
 13 19  1  1  0  0  0
 14  9  1  6  0  0  0
 14 15  1  0  0  0  0
 14 18  1  0  0  0  0
 15 12  1  6  0  0  0
 15 17  1  0  0  0  0
 17 16  1  0  0  0  0
 18 13  1  0  0  0  0
 21 20  1  0  0  0  0
 21 19  1  0  0  0  0
 22 23  1  0  0  0  0
 24 26  2  0  0  0  0
 24 30  1  0  0  0  0
 25 28  1  0  0  0  0
 26 29  1  0  0  0  0
 27 30  1  0  0  0  0
 29 23  1  0  0  0  0
 29 28  2  0  0  0  0
 30 25  2  0  0  0  0
M  END
>  <MODEL>
6

>  <REMARK>
 VINA RESULT:      -6.7      3.260      7.881
  Name = 
  7 active torsions:
  status: ('A' for Active; 'I' for Inactive)
    1  A    between atoms: N_4  and  N_10
    2  A    between atoms: N_4  and  C_18
    3  A    between atoms: C_5  and  C_15
    4  A    between atoms: C_9  and  O_11
    5  A    between atoms: N_10  and  C_12
    6  A    between atoms: O_11  and  C_24
    7  A    between atoms: C_19  and  N_22
                            x       y       z     vdW  Elec       q    Type
                         _______ _______ _______ _____ _____    ______ ____

>  <TORSDO>
F 7

$$$$
=
 OpenBabel11042420223D

 30 32  0  0  1  0  0  0  0  0999 V2000
  161.8170  210.4970  149.7060 C   0  0  0  0  0  0  0  0  0  0  0  0
  160.6710  210.7140  153.1230 O   0  0  0  0  0  0  0  0  0  0  0  0
  162.2130  209.0780  149.6560 C   0  0  0  0  0  0  0  0  0  0  0  0
  162.1210  208.3130  150.7700 C   0  0  2  0  0  3  0  0  0  0  0  0
  161.8870  208.9150  152.1340 C   0  0  0  0  0  2  0  0  0  0  0  0
  161.9250  211.2250  148.6840 O   0  0  0  0  0  0  0  0  0  0  0  0
  161.2800  211.0490  150.9070 N   0  0  0  0  0  2  0  0  0  0  0  0
  161.2260  210.2580  152.0910 C   0  0  0  0  0  0  0  0  0  0  0  0
  161.2280  205.9740  150.4780 C   0  0  0  0  0  0  0  0  0  0  0  0
  160.0530  206.3990  150.3130 O   0  0  0  0  0  0  0  0  0  0  0  0
  162.3030  206.8930  150.7190 N   0  0  0  0  0  2  0  0  0  0  0  0
  161.3450  204.2170  152.7920 O   0  0  0  0  0  1  0  0  0  0  0  0
  161.2680  202.4290  149.0020 C   0  0  2  0  0  3  0  0  0  0  0  0
  161.4860  204.5000  150.4120 C   0  0  1  0  0  3  0  0  0  0  0  0
  160.8120  203.7710  151.5820 C   0  0  1  0  0  3  0  0  0  0  0  0
  160.5260  201.7380  150.1390 C   0  0  0  0  0  2  0  0  0  0  0  0
  161.0290  202.2630  151.4780 C   0  0  0  0  0  2  0  0  0  0  0  0
  161.0240  203.9330  149.0670 C   0  0  0  0  0  2  0  0  0  0  0  0
  160.8150  201.9350  147.7780 O   0  0  0  0  0  0  0  0  0  0  0  0
  161.2090  200.1240  146.4530 O   0  0  0  0  0  1  0  0  0  0  0  0
  161.2070  200.5960  147.7660 C   0  0  0  0  0  2  0  0  0  0  0  0
  162.6750  208.5550  148.4030 N   0  0  0  0  0  0  0  0  0  0  0  0
  162.9630  207.1960  148.2130 N   0  0  0  0  0  2  0  0  0  0  0  0
  162.2600  204.5290  145.7130 C   0  0  0  0  0  3  0  0  0  0  0  0
  160.3090  205.9540  145.8930 C   0  0  0  0  0  3  0  0  0  0  0  0
  162.9190  205.3110  146.6650 C   0  0  0  0  0  3  0  0  0  0  0  0
  160.1280  203.8700  144.1360 Cl  0  0  0  0  0  0  0  0  0  0  0  0
  160.9690  206.7350  146.8460 C   0  0  0  0  0  3  0  0  0  0  0  0
  162.2770  206.4160  147.2350 C   0  0  0  0  0  0  0  0  0  0  0  0
  160.9540  204.8490  145.3280 C   0  0  0  0  0  0  0  0  0  0  0  0
  1  7  1  0  0  0  0
  3  1  1  0  0  0  0
  3  4  1  0  0  0  0
  4 11  1  1  0  0  0
  4  5  1  0  0  0  0
  6  1  2  0  0  0  0
  7  8  1  0  0  0  0
  8  5  1  0  0  0  0
  8  2  2  0  0  0  0
  9 11  1  0  0  0  0
 10  9  2  0  0  0  0
 13 19  1  6  0  0  0
 13 18  1  0  0  0  0
 13 16  1  0  0  0  0
 14  9  1  6  0  0  0
 14 15  1  0  0  0  0
 15 12  1  1  0  0  0
 16 17  1  0  0  0  0
 17 15  1  0  0  0  0
 18 14  1  0  0  0  0
 20 21  1  0  0  0  0
 21 19  1  0  0  0  0
 22  3  2  0  0  0  0
 23 22  1  0  0  0  0
 24 26  1  0  0  0  0
 25 28  2  0  0  0  0
 26 29  2  0  0  0  0
 27 30  1  0  0  0  0
 28 29  1  0  0  0  0
 29 23  1  0  0  0  0
 30 24  2  0  0  0  0
 30 25  1  0  0  0  0
M  END
>  <MODEL>
7

>  <REMARK>
 VINA RESULT:      -6.5      1.737      2.300
  Name = 
  7 active torsions:
  status: ('A' for Active; 'I' for Inactive)
    1  A    between atoms: N_4  and  N_10
    2  A    between atoms: N_4  and  C_18
    3  A    between atoms: C_5  and  C_15
    4  A    between atoms: C_9  and  O_11
    5  A    between atoms: N_10  and  C_12
    6  A    between atoms: O_11  and  C_24
    7  A    between atoms: C_19  and  N_22
                            x       y       z     vdW  Elec       q    Type
                         _______ _______ _______ _____ _____    ______ ____

>  <TORSDO>
F 7

$$$$
=
 OpenBabel11042420223D

 30 32  0  0  1  0  0  0  0  0999 V2000
  160.9670  209.7510  152.2470 C   0  0  0  0  0  0  0  0  0  0  0  0
  160.4140  207.5810  155.0790 O   0  0  0  0  0  0  0  0  0  0  0  0
  161.5460  208.7880  151.2930 C   0  0  0  0  0  0  0  0  0  0  0  0
  161.7580  207.5050  151.6750 C   0  0  0  0  0  0  0  0  0  0  0  0
  161.6810  207.0810  153.1200 C   0  0  0  0  0  2  0  0  0  0  0  0
  160.7930  210.9520  151.9120 O   0  0  0  0  0  0  0  0  0  0  0  0
  160.5750  209.3210  153.5490 N   0  0  0  0  0  2  0  0  0  0  0  0
  160.8400  207.9850  153.9670 C   0  0  0  0  0  0  0  0  0  0  0  0
  161.1900  205.5630  150.1730 C   0  0  0  0  0  0  0  0  0  0  0  0
  159.9790  205.5940  150.5200 O   0  0  0  0  0  0  0  0  0  0  0  0
  162.1280  206.4950  150.7290 N   0  0  0  0  0  2  0  0  0  0  0  0
  160.9550  202.6860  150.5310 O   0  0  0  0  0  1  0  0  0  0  0  0
  162.0170  204.0860  146.7250 C   0  0  2  0  0  3  0  0  0  0  0  0
  161.6330  204.5430  149.1680 C   0  0  1  0  0  3  0  0  0  0  0  0
  160.7890  203.2660  149.2720 C   0  0  1  0  0  3  0  0  0  0  0  0
  161.1100  202.8640  146.8160 C   0  0  0  0  0  2  0  0  0  0  0  0
  161.2070  202.2530  148.2090 C   0  0  0  0  0  2  0  0  0  0  0  0
  161.5830  205.1260  147.7530 C   0  0  0  0  0  2  0  0  0  0  0  0
  161.9380  204.6340  145.4440 O   0  0  0  0  0  0  0  0  0  0  0  0
  160.0800  205.8280  144.8860 O   0  0  0  0  0  1  0  0  0  0  0  0
  161.2680  205.8470  145.6150 C   0  0  0  0  0  2  0  0  0  0  0  0
  161.8540  209.2540  149.9720 N   0  0  0  0  0  2  0  0  0  0  0  0
  162.5980  210.4190  149.7360 N   0  0  0  0  0  2  0  0  0  0  0  0
  162.8690  213.1660  147.2390 C   0  0  0  0  0  3  0  0  0  0  0  0
  160.6510  212.2030  147.0910 C   0  0  0  0  0  3  0  0  0  0  0  0
  163.1910  212.2680  148.2600 C   0  0  0  0  0  3  0  0  0  0  0  0
  161.1960  214.2570  145.3740 Cl  0  0  0  0  0  0  0  0  0  0  0  0
  160.9740  211.3040  148.1120 C   0  0  0  0  0  3  0  0  0  0  0  0
  162.2460  211.3340  148.7000 C   0  0  0  0  0  0  0  0  0  0  0  0
  161.6000  213.1320  146.6530 C   0  0  0  0  0  0  0  0  0  0  0  0
  1  7  1  0  0  0  0
  3  4  2  0  0  0  0
  3  1  1  0  0  0  0
  4  5  1  0  0  0  0
  5  8  1  0  0  0  0
  6  1  2  0  0  0  0
  7  8  1  0  0  0  0
  8  2  2  0  0  0  0
  9 10  2  0  0  0  0
  9 11  1  0  0  0  0
 11  4  1  0  0  0  0
 13 19  1  6  0  0  0
 13 16  1  0  0  0  0
 13 18  1  0  0  0  0
 14 15  1  0  0  0  0
 14  9  1  1  0  0  0
 15 12  1  1  0  0  0
 16 17  1  0  0  0  0
 17 15  1  0  0  0  0
 18 14  1  0  0  0  0
 19 21  1  0  0  0  0
 20 21  1  0  0  0  0
 22  3  1  0  0  0  0
 23 22  1  0  0  0  0
 24 26  1  0  0  0  0
 25 28  2  0  0  0  0
 26 29  2  0  0  0  0
 27 30  1  0  0  0  0
 28 29  1  0  0  0  0
 29 23  1  0  0  0  0
 30 25  1  0  0  0  0
 30 24  2  0  0  0  0
M  END
>  <MODEL>
8

>  <REMARK>
 VINA RESULT:      -6.3      3.203      3.782
  Name = 
  7 active torsions:
  status: ('A' for Active; 'I' for Inactive)
    1  A    between atoms: N_4  and  N_10
    2  A    between atoms: N_4  and  C_18
    3  A    between atoms: C_5  and  C_15
    4  A    between atoms: C_9  and  O_11
    5  A    between atoms: N_10  and  C_12
    6  A    between atoms: O_11  and  C_24
    7  A    between atoms: C_19  and  N_22
                            x       y       z     vdW  Elec       q    Type
                         _______ _______ _______ _____ _____    ______ ____

>  <TORSDO>
F 7

$$$$
=
 OpenBabel11042420223D

 30 32  0  0  1  0  0  0  0  0999 V2000
  160.5630  209.8250  153.7580 C   0  0  0  0  0  0  0  0  0  0  0  0
  160.2500  207.7720  156.7120 O   0  0  0  0  0  0  0  0  0  0  0  0
  160.7640  208.7800  152.7380 C   0  0  0  0  0  0  0  0  0  0  0  0
  160.8330  207.4790  153.1090 C   0  0  0  0  0  0  0  0  0  0  0  0
  160.9860  207.0690  154.5530 C   0  0  0  0  0  2  0  0  0  0  0  0
  160.5260  211.0390  153.4270 O   0  0  0  0  0  0  0  0  0  0  0  0
  160.3810  209.4640  155.1260 N   0  0  0  0  0  2  0  0  0  0  0  0
  160.4990  208.1010  155.5230 C   0  0  0  0  0  0  0  0  0  0  0  0
  162.0250  205.8090  151.6450 C   0  0  0  0  0  0  0  0  0  0  0  0
  163.1540  206.2000  152.0460 O   0  0  0  0  0  0  0  0  0  0  0  0
  160.8270  206.4240  152.1410 N   0  0  0  0  0  2  0  0  0  0  0  0
  161.3200  203.0640  152.2960 O   0  0  0  0  0  1  0  0  0  0  0  0
  161.5340  204.1000  148.2400 C   0  0  2  0  0  3  0  0  0  0  0  0
  161.9520  204.6920  150.6480 C   0  0  1  0  0  3  0  0  0  0  0  0
  160.9290  203.6340  151.0830 C   0  0  1  0  0  3  0  0  0  0  0  0
  160.4600  203.1090  148.6740 C   0  0  0  0  0  2  0  0  0  0  0  0
  160.8170  202.5270  150.0370 C   0  0  0  0  0  2  0  0  0  0  0  0
  161.6270  205.2360  149.2550 C   0  0  0  0  0  2  0  0  0  0  0  0
  161.2120  204.6200  146.9860 O   0  0  0  0  0  0  0  0  0  0  0  0
  162.3350  206.1880  145.7730 O   0  0  0  0  0  1  0  0  0  0  0  0
  161.7210  205.9200  146.9960 C   0  0  0  0  0  2  0  0  0  0  0  0
  160.8660  209.1910  151.3680 N   0  0  0  0  0  2  0  0  0  0  0  0
  161.9600  209.9180  150.8770 N   0  0  0  0  0  2  0  0  0  0  0  0
  162.2590  212.0370  147.8310 C   0  0  0  0  0  3  0  0  0  0  0  0
  160.8220  213.1670  149.4200 C   0  0  0  0  0  3  0  0  0  0  0  0
  162.4230  210.9800  148.7310 C   0  0  0  0  0  3  0  0  0  0  0  0
  161.2510  214.4530  147.0490 Cl  0  0  0  0  0  0  0  0  0  0  0  0
  160.9860  212.1090  150.3190 C   0  0  0  0  0  3  0  0  0  0  0  0
  161.7880  211.0120  149.9770 C   0  0  0  0  0  0  0  0  0  0  0  0
  161.4570  213.1300  148.1750 C   0  0  0  0  0  0  0  0  0  0  0  0
  1  7  1  0  0  0  0
  3  4  2  0  0  0  0
  3  1  1  0  0  0  0
  4  5  1  0  0  0  0
  5  8  1  0  0  0  0
  6  1  2  0  0  0  0
  7  8  1  0  0  0  0
  8  2  2  0  0  0  0
  9 10  2  0  0  0  0
  9 11  1  0  0  0  0
 11  4  1  0  0  0  0
 13 19  1  6  0  0  0
 13 16  1  0  0  0  0
 13 18  1  0  0  0  0
 14 15  1  0  0  0  0
 14  9  1  1  0  0  0
 15 12  1  1  0  0  0
 16 17  1  0  0  0  0
 17 15  1  0  0  0  0
 18 14  1  0  0  0  0
 19 21  1  0  0  0  0
 20 21  1  0  0  0  0
 22  3  1  0  0  0  0
 23 22  1  0  0  0  0
 24 30  2  0  0  0  0
 24 26  1  0  0  0  0
 25 28  2  0  0  0  0
 26 29  2  0  0  0  0
 27 30  1  0  0  0  0
 29 28  1  0  0  0  0
 29 23  1  0  0  0  0
 30 25  1  0  0  0  0
M  END
>  <MODEL>
9

>  <REMARK>
 VINA RESULT:      -6.1      3.179      4.025
  Name = 
  7 active torsions:
  status: ('A' for Active; 'I' for Inactive)
    1  A    between atoms: N_4  and  N_10
    2  A    between atoms: N_4  and  C_18
    3  A    between atoms: C_5  and  C_15
    4  A    between atoms: C_9  and  O_11
    5  A    between atoms: N_10  and  C_12
    6  A    between atoms: O_11  and  C_24
    7  A    between atoms: C_19  and  N_22
                            x       y       z     vdW  Elec       q    Type
                         _______ _______ _______ _____ _____    ______ ____

>  <TORSDO>
F 7

$$$$
