=
 OpenBabel11052411263D

 43 45  0  0  1  0  0  0  0  0999 V2000
  161.6940  205.6610  149.3580 C   0  0  0  0  0  3  0  0  0  0  0  0
  161.5090  206.4640  150.4770 C   0  0  0  0  0  0  0  0  0  0  0  0
  161.6360  207.7750  150.1580 N   0  0  0  0  0  0  0  0  0  0  0  0
  162.0170  210.2230  148.9110 C   0  0  0  0  0  0  0  0  0  0  0  0
  161.7330  210.1580  150.3030 C   0  0  0  0  0  0  0  0  0  0  0  0
  161.5370  208.9050  150.9220 C   0  0  0  0  0  0  0  0  0  0  0  0
  162.0880  209.0240  148.1790 C   0  0  0  0  0  3  0  0  0  0  0  0
  161.6400  211.3160  151.0690 O   0  0  0  0  0  1  0  0  0  0  0  0
  161.8920  207.8180  148.8410 C   0  0  0  0  0  0  0  0  0  0  0  0
  161.9390  206.5410  148.3150 C   0  0  0  0  0  0  0  0  0  0  0  0
  163.5760  212.0710  148.1430 N   0  0  0  0  0  1  0  0  0  0  0  0
  162.2630  211.5140  148.2070 C   0  0  0  0  0  0  0  0  0  0  0  0
  161.2540  212.1500  147.6030 C   0  0  0  0  0  3  0  0  0  0  0  0
  161.4350  213.4260  146.8470 C   0  0  0  0  0  2  0  0  0  0  0  0
  161.6570  213.1400  145.4030 C   0  0  0  0  0  0  0  0  0  0  0  0
  162.7800  212.9120  143.3790 C   0  0  0  0  0  3  0  0  0  0  0  0
  161.4890  212.5640  142.9950 C   0  0  0  0  0  0  0  0  0  0  0  0
  162.8750  213.2370  144.7390 C   0  0  0  0  0  3  0  0  0  0  0  0
  160.4610  212.6590  144.3270 S   0  0  0  0  0  0  0  0  0  0  0  0
  161.0870  212.2220  141.6550 N   0  0  0  0  0  0  0  0  0  0  0  0
  159.6970  211.9150  141.3470 C   0  0  0  0  0  2  0  0  0  0  0  0
  159.0510  213.0840  140.6310 C   0  0  0  0  0  1  0  0  0  0  0  0
  162.0770  211.9880  140.6130 C   0  0  0  0  0  2  0  0  0  0  0  0
  162.0880  210.5200  140.2210 C   0  0  0  0  0  2  0  0  0  0  0  0
  162.1770  210.3870  138.7370 C   0  0  0  0  0  0  0  0  0  0  0  0
  162.9840  211.0580  138.1090 O   0  0  0  0  0  0  0  0  0  0  0  0
  161.8510  208.1420  138.0620 O   0  0  0  0  0  1  0  0  0  0  0  0
  161.2830  209.4160  138.0330 C   0  0  1  0  0  3  0  0  0  0  0  0
  159.9120  209.3810  138.6800 C   0  0  0  0  0  1  0  0  0  0  0  0
  161.2660  205.9200  151.8450 C   0  0  0  0  0  2  0  0  0  0  0  0
  161.8830  204.6110  151.9670 N   0  0  0  0  0  2  0  0  0  0  0  0
  160.9980  202.4980  151.1970 C   0  0  0  0  0  1  0  0  0  0  0  0
  160.8070  203.6560  152.1510 C   0  0  0  0  0  2  0  0  0  0  0  0
  161.2570  208.8390  152.3910 C   0  0  0  0  0  2  0  0  0  0  0  0
  160.0260  209.6650  152.7250 C   0  0  0  0  0  2  0  0  0  0  0  0
  160.1920  209.2690  155.0720 O   0  0  0  0  0  1  0  0  0  0  0  0
  160.1630  210.2760  154.1070 C   0  0  0  0  0  3  0  0  0  0  0  0
  159.0780  211.1160  154.3500 O   0  0  0  0  0  1  0  0  0  0  0  0
  162.1520  206.1390  146.8850 C   0  0  2  0  0  3  0  0  0  0  0  0
  159.8570  206.1920  145.5130 C   0  0  0  0  0  3  0  0  0  0  0  0
  160.8900  206.1670  146.1330 C   0  0  0  0  0  0  0  0  0  0  0  0
  163.5310  204.7860  145.7150 O   0  0  0  0  0  1  0  0  0  0  0  0
  162.7390  204.8100  146.8140 N   0  0  0  0  0  2  0  0  0  0  0  0
  1  2  2  0  0  0  0
  2 30  1  0  0  0  0
  3  2  1  0  0  0  0
  3  6  1  0  0  0  0
  4  5  1  0  0  0  0
  5  6  2  0  0  0  0
  5  8  1  0  0  0  0
  6 34  1  0  0  0  0
  7  9  1  0  0  0  0
  7  4  2  0  0  0  0
  9  3  1  0  0  0  0
 10  9  2  0  0  0  0
 10  1  1  0  0  0  0
 11 12  1  0  0  0  0
 12  4  1  0  0  0  0
 13 12  2  0  0  0  0
 14 13  1  0  0  0  0
 15 14  1  0  0  0  0
 16 18  1  0  0  0  0
 17 16  2  0  0  0  0
 17 19  1  0  0  0  0
 18 15  2  0  0  0  0
 19 15  1  0  0  0  0
 20 17  1  0  0  0  0
 21 20  1  0  0  0  0
 22 21  1  0  0  0  0
 23 20  1  0  0  0  0
 24 23  1  0  0  0  0
 25 24  1  0  0  0  0
 26 25  2  0  0  0  0
 28 27  1  0  0  0  0
 28 29  1  1  0  0  0
 28 25  1  0  0  0  0
 30 31  1  0  0  0  0
 31 33  1  0  0  0  0
 32 33  1  0  0  0  0
 34 35  1  0  0  0  0
 35 37  1  0  0  0  0
 37 38  1  0  0  0  0
 37 36  1  0  0  0  0
 39 41  1  6  0  0  0
 39 10  1  0  0  0  0
 40 41  3  0  0  0  0
 42 43  1  0  0  0  0
 43 39  1  0  0  0  0
M  END
>  <MODEL>
1

>  <REMARK>
 VINA RESULT:      -6.4      0.000      0.000
  Name = 
  18 active torsions:
  status: ('A' for Active; 'I' for Inactive)
    1  A    between atoms: C_2  and  C_34
    2  A    between atoms: C_2  and  C_39
    3  A    between atoms: C_4  and  C_5
    4  A    between atoms: C_4  and  C_41
    5  A    between atoms: C_6  and  C_28
    6  A    between atoms: C_9  and  N_17
    7  A    between atoms: C_9  and  C_42
    8  A    between atoms: C_9  and  C_43
    9  A    between atoms: C_12  and  N_23
   10  A    between atoms: C_13  and  C_14
   11  A    between atoms: C_14  and  N_19
   12  A    between atoms: N_19  and  C_37
   13  A    between atoms: C_20  and  C_21
   14  A    between atoms: N_23  and  C_29
   15  A    between atoms: N_23  and  C_30
   16  A    between atoms: C_25  and  C_34
   17  A    between atoms: C_26  and  C_28
   18  A    between atoms: C_30  and  C_41
                            x       y       z     vdW  Elec       q    Type
                         _______ _______ _______ _____ _____    ______ ____

>  <TORSDO>
F 18

$$$$
=
 OpenBabel11052411263D

 43 45  0  0  1  0  0  0  0  0999 V2000
  161.2370  207.5200  153.7100 C   0  0  0  0  0  3  0  0  0  0  0  0
  161.5720  207.0370  152.4510 C   0  0  0  0  0  0  0  0  0  0  0  0
  161.6580  208.0490  151.5520 N   0  0  0  0  0  0  0  0  0  0  0  0
  161.6650  210.4830  150.2230 C   0  0  0  0  0  0  0  0  0  0  0  0
  161.9590  209.2790  149.5270 C   0  0  0  0  0  0  0  0  0  0  0  0
  161.9570  208.0490  150.2180 C   0  0  0  0  0  0  0  0  0  0  0  0
  161.3840  210.4160  151.6010 C   0  0  0  0  0  3  0  0  0  0  0  0
  162.2560  209.2940  148.1670 O   0  0  0  0  0  1  0  0  0  0  0  0
  161.3890  209.1770  152.2290 C   0  0  0  0  0  0  0  0  0  0  0  0
  161.1220  208.8930  153.5550 C   0  0  0  0  0  0  0  0  0  0  0  0
  160.7590  212.8430  150.0140 N   0  0  0  0  0  1  0  0  0  0  0  0
  161.6240  211.8090  149.5430 C   0  0  0  0  0  0  0  0  0  0  0  0
  162.4210  212.0510  148.4980 C   0  0  0  0  0  3  0  0  0  0  0  0
  162.4600  213.3680  147.7930 C   0  0  0  0  0  2  0  0  0  0  0  0
  161.6620  213.3030  146.5390 C   0  0  0  0  0  0  0  0  0  0  0  0
  159.8180  213.0410  145.1460 C   0  0  0  0  0  3  0  0  0  0  0  0
  160.8130  213.2940  144.2070 C   0  0  0  0  0  0  0  0  0  0  0  0
  160.2980  213.0460  146.4640 C   0  0  0  0  0  3  0  0  0  0  0  0
  162.2850  213.5220  144.9960 S   0  0  0  0  0  0  0  0  0  0  0  0
  160.6200  213.3130  142.7810 N   0  0  0  0  0  0  0  0  0  0  0  0
  159.2860  213.2020  142.2060 C   0  0  0  0  0  2  0  0  0  0  0  0
  159.3220  213.5610  140.7330 C   0  0  0  0  0  1  0  0  0  0  0  0
  161.7550  213.2510  141.8700 C   0  0  0  0  0  2  0  0  0  0  0  0
  162.1190  211.8030  141.5830 C   0  0  0  0  0  2  0  0  0  0  0  0
  162.6320  211.6720  140.1880 C   0  0  0  0  0  0  0  0  0  0  0  0
  163.3820  212.5230  139.7280 O   0  0  0  0  0  0  0  0  0  0  0  0
  161.7250  209.4860  140.1990 O   0  0  0  0  0  1  0  0  0  0  0  0
  162.2350  210.4850  139.3700 C   0  0  1  0  0  3  0  0  0  0  0  0
  161.1980  210.8700  138.3320 C   0  0  0  0  0  1  0  0  0  0  0  0
  161.7470  205.5870  152.1490 C   0  0  0  0  0  2  0  0  0  0  0  0
  160.8420  204.8050  152.9730 N   0  0  0  0  0  2  0  0  0  0  0  0
  160.6230  203.4860  150.9590 C   0  0  0  0  0  1  0  0  0  0  0  0
  160.8650  203.4510  152.4510 C   0  0  0  0  0  2  0  0  0  0  0  0
  162.2480  206.7810  149.4770 C   0  0  0  0  0  2  0  0  0  0  0  0
  160.9800  206.2560  148.8240 C   0  0  0  0  0  2  0  0  0  0  0  0
  162.6440  205.8760  147.1570 O   0  0  0  0  0  1  0  0  0  0  0  0
  161.2770  205.7700  147.4180 C   0  0  0  0  0  3  0  0  0  0  0  0
  160.5710  206.5470  146.5020 O   0  0  0  0  0  1  0  0  0  0  0  0
  160.8200  209.8600  154.6620 C   0  0  2  0  0  3  0  0  0  0  0  0
  163.0640  210.6780  155.8650 C   0  0  0  0  0  3  0  0  0  0  0  0
  162.0520  210.3080  155.3250 C   0  0  0  0  0  0  0  0  0  0  0  0
  159.6000  210.2170  156.5290 O   0  0  0  0  0  1  0  0  0  0  0  0
  159.9290  209.2510  155.6380 N   0  0  0  0  0  2  0  0  0  0  0  0
  2  1  2  0  0  0  0
  3  9  1  0  0  0  0
  3  2  1  0  0  0  0
  4  7  2  0  0  0  0
  5  6  2  0  0  0  0
  5  4  1  0  0  0  0
  6  3  1  0  0  0  0
  7  9  1  0  0  0  0
  8  5  1  0  0  0  0
  9 10  2  0  0  0  0
 10  1  1  0  0  0  0
 10 39  1  0  0  0  0
 12 11  1  0  0  0  0
 12  4  1  0  0  0  0
 13 12  2  0  0  0  0
 14 13  1  0  0  0  0
 15 14  1  0  0  0  0
 16 18  1  0  0  0  0
 17 19  1  0  0  0  0
 17 16  2  0  0  0  0
 18 15  2  0  0  0  0
 19 15  1  0  0  0  0
 20 17  1  0  0  0  0
 21 20  1  0  0  0  0
 22 21  1  0  0  0  0
 23 20  1  0  0  0  0
 24 23  1  0  0  0  0
 25 24  1  0  0  0  0
 26 25  2  0  0  0  0
 28 29  1  6  0  0  0
 28 25  1  0  0  0  0
 28 27  1  0  0  0  0
 30  2  1  0  0  0  0
 30 31  1  0  0  0  0
 32 33  1  0  0  0  0
 33 31  1  0  0  0  0
 34  6  1  0  0  0  0
 35 34  1  0  0  0  0
 36 37  1  0  0  0  0
 37 35  1  0  0  0  0
 38 37  1  0  0  0  0
 39 41  1  1  0  0  0
 39 43  1  0  0  0  0
 41 40  3  0  0  0  0
 43 42  1  0  0  0  0
M  END
>  <MODEL>
2

>  <REMARK>
 VINA RESULT:      -6.0      1.912      4.947
  Name = 
  18 active torsions:
  status: ('A' for Active; 'I' for Inactive)
    1  A    between atoms: C_2  and  C_34
    2  A    between atoms: C_2  and  C_39
    3  A    between atoms: C_4  and  C_5
    4  A    between atoms: C_4  and  C_41
    5  A    between atoms: C_6  and  C_28
    6  A    between atoms: C_9  and  N_17
    7  A    between atoms: C_9  and  C_42
    8  A    between atoms: C_9  and  C_43
    9  A    between atoms: C_12  and  N_23
   10  A    between atoms: C_13  and  C_14
   11  A    between atoms: C_14  and  N_19
   12  A    between atoms: N_19  and  C_37
   13  A    between atoms: C_20  and  C_21
   14  A    between atoms: N_23  and  C_29
   15  A    between atoms: N_23  and  C_30
   16  A    between atoms: C_25  and  C_34
   17  A    between atoms: C_26  and  C_28
   18  A    between atoms: C_30  and  C_41
                            x       y       z     vdW  Elec       q    Type
                         _______ _______ _______ _____ _____    ______ ____

>  <TORSDO>
F 18

$$$$
=
 OpenBabel11052411263D

 43 45  0  0  1  0  0  0  0  0999 V2000
  161.1590  204.5710  148.3120 C   0  0  0  0  0  3  0  0  0  0  0  0
  161.5910  205.8850  148.1770 C   0  0  0  0  0  0  0  0  0  0  0  0
  161.5660  206.5270  149.3700 N   0  0  0  0  0  0  0  0  0  0  0  0
  161.2840  207.2740  152.0260 C   0  0  0  0  0  0  0  0  0  0  0  0
  161.7560  208.2050  151.0610 C   0  0  0  0  0  0  0  0  0  0  0  0
  161.8990  207.8080  149.7140 C   0  0  0  0  0  0  0  0  0  0  0  0
  160.9750  205.9660  151.6100 C   0  0  0  0  0  3  0  0  0  0  0  0
  162.0870  209.5070  151.4240 O   0  0  0  0  0  1  0  0  0  0  0  0
  161.1290  205.6320  150.2700 C   0  0  0  0  0  0  0  0  0  0  0  0
  160.8650  204.4200  149.6580 C   0  0  0  0  0  0  0  0  0  0  0  0
  161.2000  206.6570  154.4850 N   0  0  0  0  0  1  0  0  0  0  0  0
  161.0850  207.6410  153.4570 C   0  0  0  0  0  0  0  0  0  0  0  0
  160.8220  208.9080  153.7940 C   0  0  0  0  0  3  0  0  0  0  0  0
  160.6500  209.3540  155.2090 C   0  0  0  0  0  2  0  0  0  0  0  0
  159.9430  210.6630  155.2530 C   0  0  0  0  0  0  0  0  0  0  0  0
  159.6140  212.9490  155.5300 C   0  0  0  0  0  3  0  0  0  0  0  0
  158.3250  212.5440  155.1960 C   0  0  0  0  0  0  0  0  0  0  0  0
  160.5280  211.8860  155.5620 C   0  0  0  0  0  3  0  0  0  0  0  0
  158.3070  210.8770  154.9430 S   0  0  0  0  0  0  0  0  0  0  0  0
  157.1770  213.4100  155.1250 N   0  0  0  0  0  0  0  0  0  0  0  0
  156.7770  214.2150  156.2710 C   0  0  0  0  0  2  0  0  0  0  0  0
  155.2880  214.0680  156.5160 C   0  0  0  0  0  1  0  0  0  0  0  0
  156.2770  213.3690  153.9810 C   0  0  0  0  0  2  0  0  0  0  0  0
  156.6800  214.4180  152.9580 C   0  0  0  0  0  2  0  0  0  0  0  0
  157.2650  213.7600  151.7530 C   0  0  0  0  0  0  0  0  0  0  0  0
  158.1670  212.9430  151.8780 O   0  0  0  0  0  0  0  0  0  0  0  0
  156.9720  213.0460  149.5160 O   0  0  0  0  0  1  0  0  0  0  0  0
  156.7240  214.0960  150.4000 C   0  0  1  0  0  3  0  0  0  0  0  0
  155.2340  214.3680  150.4680 C   0  0  0  0  0  1  0  0  0  0  0  0
  161.9670  206.4930  146.8670 C   0  0  0  0  0  2  0  0  0  0  0  0
  162.5690  205.4840  146.0150 N   0  0  0  0  0  2  0  0  0  0  0  0
  160.4210  206.0230  145.0470 C   0  0  0  0  0  1  0  0  0  0  0  0
  161.8000  205.4610  144.7850 C   0  0  0  0  0  2  0  0  0  0  0  0
  162.3790  208.7960  148.6970 C   0  0  0  0  0  2  0  0  0  0  0  0
  161.3490  209.8990  148.5160 C   0  0  0  0  0  2  0  0  0  0  0  0
  163.4160  211.0800  148.3480 O   0  0  0  0  0  1  0  0  0  0  0  0
  162.0370  211.2080  148.1750 C   0  0  0  0  0  3  0  0  0  0  0  0
  161.5590  212.2130  149.0140 O   0  0  0  0  0  1  0  0  0  0  0  0
  160.4050  203.1440  150.3000 C   0  0  2  0  0  3  0  0  0  0  0  0
  162.2430  202.1980  151.9960 C   0  0  0  0  0  3  0  0  0  0  0  0
  161.4170  202.6240  151.2300 C   0  0  0  0  0  0  0  0  0  0  0  0
  161.1230  201.2480  149.3050 O   0  0  0  0  0  1  0  0  0  0  0  0
  160.1090  202.1450  149.2850 N   0  0  0  0  0  2  0  0  0  0  0  0
  1 10  1  0  0  0  0
  2  1  2  0  0  0  0
  2  3  1  0  0  0  0
  3  6  1  0  0  0  0
  3  9  1  0  0  0  0
  4 12  1  0  0  0  0
  5  8  1  0  0  0  0
  5  4  1  0  0  0  0
  6  5  2  0  0  0  0
  7  4  2  0  0  0  0
  9  7  1  0  0  0  0
 10  9  2  0  0  0  0
 10 39  1  0  0  0  0
 12 13  2  0  0  0  0
 12 11  1  0  0  0  0
 13 14  1  0  0  0  0
 14 15  1  0  0  0  0
 15 18  2  0  0  0  0
 16 18  1  0  0  0  0
 17 16  2  0  0  0  0
 19 17  1  0  0  0  0
 19 15  1  0  0  0  0
 20 17  1  0  0  0  0
 20 21  1  0  0  0  0
 21 22  1  0  0  0  0
 23 20  1  0  0  0  0
 24 23  1  0  0  0  0
 25 26  2  0  0  0  0
 25 24  1  0  0  0  0
 27 28  1  0  0  0  0
 28 29  1  1  0  0  0
 28 25  1  0  0  0  0
 30  2  1  0  0  0  0
 31 30  1  0  0  0  0
 33 32  1  0  0  0  0
 33 31  1  0  0  0  0
 34  6  1  0  0  0  0
 35 34  1  0  0  0  0
 37 36  1  0  0  0  0
 37 35  1  0  0  0  0
 37 38  1  0  0  0  0
 39 41  1  1  0  0  0
 41 40  3  0  0  0  0
 43 42  1  0  0  0  0
 43 39  1  0  0  0  0
M  END
>  <MODEL>
3

>  <REMARK>
 VINA RESULT:      -5.8      4.894      9.178
  Name = 
  18 active torsions:
  status: ('A' for Active; 'I' for Inactive)
    1  A    between atoms: C_2  and  C_34
    2  A    between atoms: C_2  and  C_39
    3  A    between atoms: C_4  and  C_5
    4  A    between atoms: C_4  and  C_41
    5  A    between atoms: C_6  and  C_28
    6  A    between atoms: C_9  and  N_17
    7  A    between atoms: C_9  and  C_42
    8  A    between atoms: C_9  and  C_43
    9  A    between atoms: C_12  and  N_23
   10  A    between atoms: C_13  and  C_14
   11  A    between atoms: C_14  and  N_19
   12  A    between atoms: N_19  and  C_37
   13  A    between atoms: C_20  and  C_21
   14  A    between atoms: N_23  and  C_29
   15  A    between atoms: N_23  and  C_30
   16  A    between atoms: C_25  and  C_34
   17  A    between atoms: C_26  and  C_28
   18  A    between atoms: C_30  and  C_41
                            x       y       z     vdW  Elec       q    Type
                         _______ _______ _______ _____ _____    ______ ____

>  <TORSDO>
F 18

$$$$
=
 OpenBabel11052411263D

 43 45  0  0  1  0  0  0  0  0999 V2000
  160.7970  201.9400  149.3010 C   0  0  0  0  0  3  0  0  0  0  0  0
  161.2140  202.4590  148.0810 C   0  0  0  0  0  0  0  0  0  0  0  0
  161.4460  203.7910  148.1750 N   0  0  0  0  0  0  0  0  0  0  0  0
  161.7280  206.4290  148.9820 C   0  0  0  0  0  0  0  0  0  0  0  0
  162.0080  206.0510  147.6410 C   0  0  0  0  0  0  0  0  0  0  0  0
  161.8650  204.7030  147.2470 C   0  0  0  0  0  0  0  0  0  0  0  0
  161.3180  205.4380  149.8930 C   0  0  0  0  0  3  0  0  0  0  0  0
  162.4280  206.9910  146.7050 O   0  0  0  0  0  1  0  0  0  0  0  0
  161.1880  204.1280  149.4490 C   0  0  0  0  0  0  0  0  0  0  0  0
  160.7830  203.0200  150.1700 C   0  0  0  0  0  0  0  0  0  0  0  0
  161.7120  208.9250  148.5310 N   0  0  0  0  0  1  0  0  0  0  0  0
  161.8330  207.8400  149.4510 C   0  0  0  0  0  0  0  0  0  0  0  0
  162.0140  208.1040  150.7490 C   0  0  0  0  0  3  0  0  0  0  0  0
  162.0890  209.4930  151.2940 C   0  0  0  0  0  2  0  0  0  0  0  0
  161.4170  209.5610  152.6210 C   0  0  0  0  0  0  0  0  0  0  0  0
  160.4500  208.8380  154.6090 C   0  0  0  0  0  3  0  0  0  0  0  0
  160.3020  210.2150  154.7390 C   0  0  0  0  0  0  0  0  0  0  0  0
  161.0810  208.4680  153.4120 C   0  0  0  0  0  3  0  0  0  0  0  0
  160.9430  210.9810  153.3810 S   0  0  0  0  0  0  0  0  0  0  0  0
  159.6580  210.8780  155.8430 N   0  0  0  0  0  0  0  0  0  0  0  0
  160.3130  210.9750  157.1400 C   0  0  0  0  0  2  0  0  0  0  0  0
  161.7890  211.2690  156.9590 C   0  0  0  0  0  1  0  0  0  0  0  0
  158.2680  211.3010  155.7550 C   0  0  0  0  0  2  0  0  0  0  0  0
  158.1890  212.7990  155.5130 C   0  0  0  0  0  2  0  0  0  0  0  0
  157.2360  213.0880  154.4010 C   0  0  0  0  0  0  0  0  0  0  0  0
  156.2010  212.4450  154.2990 O   0  0  0  0  0  0  0  0  0  0  0  0
  158.6720  213.8330  152.6740 O   0  0  0  0  0  1  0  0  0  0  0  0
  157.5530  214.1810  153.4300 C   0  0  1  0  0  3  0  0  0  0  0  0
  156.3740  214.4430  152.5120 C   0  0  0  0  0  1  0  0  0  0  0  0
  161.3240  201.6410  146.8380 C   0  0  0  0  0  2  0  0  0  0  0  0
  161.3960  200.2330  147.1840 N   0  0  0  0  0  2  0  0  0  0  0  0
  160.2180  200.2410  145.0730 C   0  0  0  0  0  1  0  0  0  0  0  0
  161.1870  199.4880  145.9560 C   0  0  0  0  0  2  0  0  0  0  0  0
  162.1420  204.3120  145.8280 C   0  0  0  0  0  2  0  0  0  0  0  0
  160.8370  204.0400  145.0980 C   0  0  0  0  0  2  0  0  0  0  0  0
  161.5460  205.8320  143.6920 O   0  0  0  0  0  1  0  0  0  0  0  0
  160.4250  205.2560  144.2910 C   0  0  0  0  0  3  0  0  0  0  0  0
  159.8240  206.1880  145.1350 O   0  0  0  0  0  1  0  0  0  0  0  0
  160.4430  202.9440  151.6290 C   0  0  2  0  0  3  0  0  0  0  0  0
  161.2870  205.1230  152.9290 C   0  0  0  0  0  3  0  0  0  0  0  0
  160.9050  204.1410  152.3450 C   0  0  0  0  0  0  0  0  0  0  0  0
  162.3710  201.8460  152.0490 O   0  0  0  0  0  1  0  0  0  0  0  0
  161.0320  201.7550  152.2260 N   0  0  0  0  0  2  0  0  0  0  0  0
  1 10  1  0  0  0  0
  2  3  1  0  0  0  0
  2  1  2  0  0  0  0
  3  9  1  0  0  0  0
  4 12  1  0  0  0  0
  4  7  2  0  0  0  0
  5  4  1  0  0  0  0
  6  5  2  0  0  0  0
  6  3  1  0  0  0  0
  8  5  1  0  0  0  0
  9  7  1  0  0  0  0
  9 10  2  0  0  0  0
 10 39  1  0  0  0  0
 11 12  1  0  0  0  0
 12 13  2  0  0  0  0
 13 14  1  0  0  0  0
 14 15  1  0  0  0  0
 15 19  1  0  0  0  0
 15 18  2  0  0  0  0
 16 17  2  0  0  0  0
 17 20  1  0  0  0  0
 18 16  1  0  0  0  0
 19 17  1  0  0  0  0
 20 21  1  0  0  0  0
 22 21  1  0  0  0  0
 23 20  1  0  0  0  0
 24 23  1  0  0  0  0
 25 24  1  0  0  0  0
 26 25  2  0  0  0  0
 27 28  1  0  0  0  0
 28 29  1  6  0  0  0
 28 25  1  0  0  0  0
 30 31  1  0  0  0  0
 30  2  1  0  0  0  0
 32 33  1  0  0  0  0
 33 31  1  0  0  0  0
 34  6  1  0  0  0  0
 35 34  1  0  0  0  0
 36 37  1  0  0  0  0
 37 35  1  0  0  0  0
 37 38  1  0  0  0  0
 39 43  1  0  0  0  0
 39 41  1  1  0  0  0
 41 40  3  0  0  0  0
 42 43  1  0  0  0  0
M  END
>  <MODEL>
4

>  <REMARK>
 VINA RESULT:      -5.3      4.948     10.079
  Name = 
  18 active torsions:
  status: ('A' for Active; 'I' for Inactive)
    1  A    between atoms: C_2  and  C_34
    2  A    between atoms: C_2  and  C_39
    3  A    between atoms: C_4  and  C_5
    4  A    between atoms: C_4  and  C_41
    5  A    between atoms: C_6  and  C_28
    6  A    between atoms: C_9  and  N_17
    7  A    between atoms: C_9  and  C_42
    8  A    between atoms: C_9  and  C_43
    9  A    between atoms: C_12  and  N_23
   10  A    between atoms: C_13  and  C_14
   11  A    between atoms: C_14  and  N_19
   12  A    between atoms: N_19  and  C_37
   13  A    between atoms: C_20  and  C_21
   14  A    between atoms: N_23  and  C_29
   15  A    between atoms: N_23  and  C_30
   16  A    between atoms: C_25  and  C_34
   17  A    between atoms: C_26  and  C_28
   18  A    between atoms: C_30  and  C_41
                            x       y       z     vdW  Elec       q    Type
                         _______ _______ _______ _____ _____    ______ ____

>  <TORSDO>
F 18

$$$$
=
 OpenBabel11052411263D

 43 45  0  0  1  0  0  0  0  0999 V2000
  161.4920  206.0350  153.2170 C   0  0  0  0  0  3  0  0  0  0  0  0
  161.5880  205.8210  151.8480 C   0  0  0  0  0  0  0  0  0  0  0  0
  161.5950  206.9980  151.1740 N   0  0  0  0  0  0  0  0  0  0  0  0
  161.5490  209.6580  150.3910 C   0  0  0  0  0  0  0  0  0  0  0  0
  161.6470  208.6210  149.4220 C   0  0  0  0  0  0  0  0  0  0  0  0
  161.6740  207.2730  149.8370 C   0  0  0  0  0  0  0  0  0  0  0  0
  161.4890  209.3080  151.7520 C   0  0  0  0  0  3  0  0  0  0  0  0
  161.7210  208.9160  148.0640 O   0  0  0  0  0  1  0  0  0  0  0  0
  161.5130  207.9630  152.1030 C   0  0  0  0  0  0  0  0  0  0  0  0
  161.4450  207.4120  153.3690 C   0  0  0  0  0  0  0  0  0  0  0  0
  160.7770  212.0350  150.8250 N   0  0  0  0  0  1  0  0  0  0  0  0
  161.4860  211.0980  150.0130 C   0  0  0  0  0  0  0  0  0  0  0  0
  162.1220  211.5330  148.9210 C   0  0  0  0  0  3  0  0  0  0  0  0
  162.1340  212.9680  148.5050 C   0  0  0  0  0  2  0  0  0  0  0  0
  162.0310  213.0740  147.0230 C   0  0  0  0  0  0  0  0  0  0  0  0
  162.6960  213.3500  144.8120 C   0  0  0  0  0  3  0  0  0  0  0  0
  161.3250  213.1800  144.6470 C   0  0  0  0  0  0  0  0  0  0  0  0
  163.0950  213.2900  146.1550 C   0  0  0  0  0  3  0  0  0  0  0  0
  160.6010  212.9590  146.1530 S   0  0  0  0  0  0  0  0  0  0  0  0
  160.6300  213.2330  143.3870 N   0  0  0  0  0  0  0  0  0  0  0  0
  159.9640  214.4530  142.9520 C   0  0  0  0  0  2  0  0  0  0  0  0
  158.4850  214.1940  142.7450 C   0  0  0  0  0  1  0  0  0  0  0  0
  160.4090  212.0270  142.6030 C   0  0  0  0  0  2  0  0  0  0  0  0
  161.6420  211.7070  141.7740 C   0  0  0  0  0  2  0  0  0  0  0  0
  161.2480  211.4100  140.3650 C   0  0  0  0  0  0  0  0  0  0  0  0
  160.6170  210.3950  140.1060 O   0  0  0  0  0  0  0  0  0  0  0  0
  160.9100  213.5630  139.4430 O   0  0  0  0  0  1  0  0  0  0  0  0
  161.6190  212.3720  139.2820 C   0  0  1  0  0  3  0  0  0  0  0  0
  163.1090  212.6560  139.3010 C   0  0  0  0  0  1  0  0  0  0  0  0
  161.6150  204.4640  151.2300 C   0  0  0  0  0  2  0  0  0  0  0  0
  160.2960  203.8630  151.3140 N   0  0  0  0  0  2  0  0  0  0  0  0
  160.7770  202.7040  149.2480 C   0  0  0  0  0  1  0  0  0  0  0  0
  160.3930  202.5510  150.7030 C   0  0  0  0  0  2  0  0  0  0  0  0
  161.7570  206.1840  148.8130 C   0  0  0  0  0  2  0  0  0  0  0  0
  162.4990  206.6800  147.5840 C   0  0  0  0  0  2  0  0  0  0  0  0
  160.9540  205.8380  145.9730 O   0  0  0  0  0  1  0  0  0  0  0  0
  162.2720  205.7360  146.4180 C   0  0  0  0  0  3  0  0  0  0  0  0
  162.5190  204.4270  146.8290 O   0  0  0  0  0  1  0  0  0  0  0  0
  161.3900  208.1300  154.6860 C   0  0  2  0  0  3  0  0  0  0  0  0
  159.7120  206.9150  156.3780 C   0  0  0  0  0  3  0  0  0  0  0  0
  160.4700  207.4610  155.6160 C   0  0  0  0  0  0  0  0  0  0  0  0
  161.2710  210.1750  155.6360 O   0  0  0  0  0  1  0  0  0  0  0  0
  160.9770  209.5120  154.4930 N   0  0  0  0  0  2  0  0  0  0  0  0
  1 10  1  0  0  0  0
  2  1  2  0  0  0  0
  3  2  1  0  0  0  0
  3  9  1  0  0  0  0
  4  7  2  0  0  0  0
  5  6  2  0  0  0  0
  5  4  1  0  0  0  0
  6  3  1  0  0  0  0
  7  9  1  0  0  0  0
  8  5  1  0  0  0  0
  9 10  2  0  0  0  0
 10 39  1  0  0  0  0
 12  4  1  0  0  0  0
 12 11  1  0  0  0  0
 13 12  2  0  0  0  0
 14 13  1  0  0  0  0
 15 14  1  0  0  0  0
 16 18  1  0  0  0  0
 17 16  2  0  0  0  0
 17 19  1  0  0  0  0
 18 15  2  0  0  0  0
 19 15  1  0  0  0  0
 20 17  1  0  0  0  0
 21 20  1  0  0  0  0
 22 21  1  0  0  0  0
 23 20  1  0  0  0  0
 24 23  1  0  0  0  0
 25 24  1  0  0  0  0
 26 25  2  0  0  0  0
 28 29  1  1  0  0  0
 28 27  1  0  0  0  0
 28 25  1  0  0  0  0
 30 31  1  0  0  0  0
 30  2  1  0  0  0  0
 32 33  1  0  0  0  0
 33 31  1  0  0  0  0
 34  6  1  0  0  0  0
 35 34  1  0  0  0  0
 36 37  1  0  0  0  0
 37 38  1  0  0  0  0
 37 35  1  0  0  0  0
 39 41  1  1  0  0  0
 41 40  3  0  0  0  0
 43 39  1  0  0  0  0
 43 42  1  0  0  0  0
M  END
>  <MODEL>
5

>  <REMARK>
 VINA RESULT:      -5.1      2.038      5.062
  Name = 
  18 active torsions:
  status: ('A' for Active; 'I' for Inactive)
    1  A    between atoms: C_2  and  C_34
    2  A    between atoms: C_2  and  C_39
    3  A    between atoms: C_4  and  C_5
    4  A    between atoms: C_4  and  C_41
    5  A    between atoms: C_6  and  C_28
    6  A    between atoms: C_9  and  N_17
    7  A    between atoms: C_9  and  C_42
    8  A    between atoms: C_9  and  C_43
    9  A    between atoms: C_12  and  N_23
   10  A    between atoms: C_13  and  C_14
   11  A    between atoms: C_14  and  N_19
   12  A    between atoms: N_19  and  C_37
   13  A    between atoms: C_20  and  C_21
   14  A    between atoms: N_23  and  C_29
   15  A    between atoms: N_23  and  C_30
   16  A    between atoms: C_25  and  C_34
   17  A    between atoms: C_26  and  C_28
   18  A    between atoms: C_30  and  C_41
                            x       y       z     vdW  Elec       q    Type
                         _______ _______ _______ _____ _____    ______ ____

>  <TORSDO>
F 18

$$$$
=
 OpenBabel11052411263D

 43 45  0  0  1  0  0  0  0  0999 V2000
  157.7660  214.1990  152.1700 C   0  0  0  0  0  3  0  0  0  0  0  0
  157.7600  213.6190  153.4320 C   0  0  0  0  0  0  0  0  0  0  0  0
  158.6010  212.5570  153.4800 N   0  0  0  0  0  0  0  0  0  0  0  0
  160.4200  210.5300  152.9540 C   0  0  0  0  0  0  0  0  0  0  0  0
  159.8350  210.6590  154.2440 C   0  0  0  0  0  0  0  0  0  0  0  0
  158.9150  211.6980  154.4970 C   0  0  0  0  0  0  0  0  0  0  0  0
  160.0680  211.4580  151.9570 C   0  0  0  0  0  3  0  0  0  0  0  0
  160.1590  209.7740  155.2680 O   0  0  0  0  0  1  0  0  0  0  0  0
  159.1520  212.4580  152.2600 C   0  0  0  0  0  0  0  0  0  0  0  0
  158.6620  213.4460  151.4270 C   0  0  0  0  0  0  0  0  0  0  0  0
  162.5900  209.7190  151.9220 N   0  0  0  0  0  1  0  0  0  0  0  0
  161.3750  209.4370  152.6170 C   0  0  0  0  0  0  0  0  0  0  0  0
  161.1140  208.1800  152.9900 C   0  0  0  0  0  3  0  0  0  0  0  0
  162.0440  207.0420  152.7210 C   0  0  0  0  0  2  0  0  0  0  0  0
  161.6030  206.2940  151.5110 C   0  0  0  0  0  0  0  0  0  0  0  0
  160.7140  205.9090  149.3970 C   0  0  0  0  0  3  0  0  0  0  0  0
  161.0360  204.6100  149.7790 C   0  0  0  0  0  0  0  0  0  0  0  0
  161.0340  206.8600  150.3760 C   0  0  0  0  0  3  0  0  0  0  0  0
  161.7130  204.6300  151.3230 S   0  0  0  0  0  0  0  0  0  0  0  0
  160.7860  203.4300  148.9940 N   0  0  0  0  0  0  0  0  0  0  0  0
  160.4690  202.1600  149.6340 C   0  0  0  0  0  2  0  0  0  0  0  0
  160.9010  201.0080  148.7490 C   0  0  0  0  0  1  0  0  0  0  0  0
  161.0250  203.4210  147.5580 C   0  0  0  0  0  2  0  0  0  0  0  0
  162.3320  204.1280  147.2390 C   0  0  0  0  0  2  0  0  0  0  0  0
  162.2740  204.7180  145.8700 C   0  0  0  0  0  0  0  0  0  0  0  0
  163.3050  205.0400  145.2970 O   0  0  0  0  0  0  0  0  0  0  0  0
  161.0530  205.8310  144.1750 O   0  0  0  0  0  1  0  0  0  0  0  0
  160.9460  204.8950  145.2040 C   0  0  1  0  0  3  0  0  0  0  0  0
  160.4430  203.5760  144.6480 C   0  0  0  0  0  1  0  0  0  0  0  0
  156.8870  214.0900  154.5460 C   0  0  0  0  0  2  0  0  0  0  0  0
  155.7060  213.2490  154.6300 N   0  0  0  0  0  2  0  0  0  0  0  0
  155.0050  211.7880  156.4240 C   0  0  0  0  0  1  0  0  0  0  0  0
  155.3140  213.2140  156.0260 C   0  0  0  0  0  2  0  0  0  0  0  0
  158.2860  211.8180  155.8510 C   0  0  0  0  0  2  0  0  0  0  0  0
  159.3590  212.0110  156.9090 C   0  0  0  0  0  2  0  0  0  0  0  0
  158.2570  214.1130  157.1520 O   0  0  0  0  0  1  0  0  0  0  0  0
  159.4970  213.4810  157.2550 C   0  0  0  0  0  3  0  0  0  0  0  0
  160.3940  214.0800  156.3720 O   0  0  0  0  0  1  0  0  0  0  0  0
  159.0430  213.7240  150.0020 C   0  0  2  0  0  3  0  0  0  0  0  0
  157.1230  212.9380  148.3140 C   0  0  0  0  0  3  0  0  0  0  0  0
  157.9880  213.2910  149.0770 C   0  0  0  0  0  0  0  0  0  0  0  0
  160.9460  213.8510  148.7930 O   0  0  0  0  0  1  0  0  0  0  0  0
  160.2920  213.0550  149.6730 N   0  0  0  0  0  2  0  0  0  0  0  0
  1  2  2  0  0  0  0
  2  3  1  0  0  0  0
  2 30  1  0  0  0  0
  3  6  1  0  0  0  0
  4  5  1  0  0  0  0
  5  6  2  0  0  0  0
  5  8  1  0  0  0  0
  6 34  1  0  0  0  0
  7  9  1  0  0  0  0
  7  4  2  0  0  0  0
  9  3  1  0  0  0  0
 10  1  1  0  0  0  0
 10  9  2  0  0  0  0
 11 12  1  0  0  0  0
 12  4  1  0  0  0  0
 12 13  2  0  0  0  0
 14 13  1  0  0  0  0
 15 14  1  0  0  0  0
 16 17  2  0  0  0  0
 16 18  1  0  0  0  0
 17 19  1  0  0  0  0
 18 15  2  0  0  0  0
 19 15  1  0  0  0  0
 20 21  1  0  0  0  0
 20 17  1  0  0  0  0
 22 21  1  0  0  0  0
 23 20  1  0  0  0  0
 24 23  1  0  0  0  0
 25 24  1  0  0  0  0
 26 25  2  0  0  0  0
 27 28  1  0  0  0  0
 28 29  1  6  0  0  0
 28 25  1  0  0  0  0
 30 31  1  0  0  0  0
 31 33  1  0  0  0  0
 33 32  1  0  0  0  0
 34 35  1  0  0  0  0
 35 37  1  0  0  0  0
 36 37  1  0  0  0  0
 38 37  1  0  0  0  0
 39 41  1  6  0  0  0
 39 10  1  0  0  0  0
 40 41  3  0  0  0  0
 42 43  1  0  0  0  0
 43 39  1  0  0  0  0
M  END
>  <MODEL>
6

>  <REMARK>
 VINA RESULT:      -4.4      5.043      8.571
  Name = 
  18 active torsions:
  status: ('A' for Active; 'I' for Inactive)
    1  A    between atoms: C_2  and  C_34
    2  A    between atoms: C_2  and  C_39
    3  A    between atoms: C_4  and  C_5
    4  A    between atoms: C_4  and  C_41
    5  A    between atoms: C_6  and  C_28
    6  A    between atoms: C_9  and  N_17
    7  A    between atoms: C_9  and  C_42
    8  A    between atoms: C_9  and  C_43
    9  A    between atoms: C_12  and  N_23
   10  A    between atoms: C_13  and  C_14
   11  A    between atoms: C_14  and  N_19
   12  A    between atoms: N_19  and  C_37
   13  A    between atoms: C_20  and  C_21
   14  A    between atoms: N_23  and  C_29
   15  A    between atoms: N_23  and  C_30
   16  A    between atoms: C_25  and  C_34
   17  A    between atoms: C_26  and  C_28
   18  A    between atoms: C_30  and  C_41
                            x       y       z     vdW  Elec       q    Type
                         _______ _______ _______ _____ _____    ______ ____

>  <TORSDO>
F 18

$$$$
=
 OpenBabel11052411263D

 43 45  0  0  1  0  0  0  0  0999 V2000
  159.7590  211.7850  155.1520 C   0  0  0  0  0  3  0  0  0  0  0  0
  159.2390  212.6520  154.1990 C   0  0  0  0  0  0  0  0  0  0  0  0
  159.7380  212.3760  152.9700 N   0  0  0  0  0  0  0  0  0  0  0  0
  161.0920  211.3540  150.7750 C   0  0  0  0  0  0  0  0  0  0  0  0
  160.2000  212.4510  150.6270 C   0  0  0  0  0  0  0  0  0  0  0  0
  159.5140  212.9570  151.7520 C   0  0  0  0  0  0  0  0  0  0  0  0
  161.2640  210.7910  152.0530 C   0  0  0  0  0  3  0  0  0  0  0  0
  159.9850  213.0360  149.3820 O   0  0  0  0  0  1  0  0  0  0  0  0
  160.5680  211.3320  153.1270 C   0  0  0  0  0  0  0  0  0  0  0  0
  160.6100  210.9430  154.4530 C   0  0  0  0  0  0  0  0  0  0  0  0
  162.8800  211.5690  148.9900 N   0  0  0  0  0  1  0  0  0  0  0  0
  161.8660  210.7950  149.6310 C   0  0  0  0  0  0  0  0  0  0  0  0
  161.6340  209.5480  149.2110 C   0  0  0  0  0  3  0  0  0  0  0  0
  162.3980  208.9100  148.0960 C   0  0  0  0  0  2  0  0  0  0  0  0
  162.1080  207.4510  148.0430 C   0  0  0  0  0  0  0  0  0  0  0  0
  162.0250  205.2790  147.2160 C   0  0  0  0  0  3  0  0  0  0  0  0
  161.3990  205.1070  148.4470 C   0  0  0  0  0  0  0  0  0  0  0  0
  162.4260  206.6030  146.9880 C   0  0  0  0  0  3  0  0  0  0  0  0
  161.3340  206.5850  149.2560 S   0  0  0  0  0  0  0  0  0  0  0  0
  160.8510  203.8670  148.9310 N   0  0  0  0  0  0  0  0  0  0  0  0
  160.5870  202.7610  148.0200 C   0  0  0  0  0  2  0  0  0  0  0  0
  160.6470  201.4440  148.7690 C   0  0  0  0  0  1  0  0  0  0  0  0
  160.3700  203.7450  150.3000 C   0  0  0  0  0  2  0  0  0  0  0  0
  161.5380  203.7820  151.2710 C   0  0  0  0  0  2  0  0  0  0  0  0
  161.0920  204.3300  152.5860 C   0  0  0  0  0  0  0  0  0  0  0  0
  160.5740  203.5930  153.4130 O   0  0  0  0  0  0  0  0  0  0  0  0
  161.5200  205.9570  154.2510 O   0  0  0  0  0  1  0  0  0  0  0  0
  161.3030  205.7810  152.8850 C   0  0  1  0  0  3  0  0  0  0  0  0
  162.4830  206.3260  152.1020 C   0  0  0  0  0  1  0  0  0  0  0  0
  158.3040  213.7670  154.5300 C   0  0  0  0  0  2  0  0  0  0  0  0
  157.2740  213.2890  155.4350 N   0  0  0  0  0  2  0  0  0  0  0  0
  156.0850  211.1840  155.4430 C   0  0  0  0  0  1  0  0  0  0  0  0
  156.3930  212.4390  154.6560 C   0  0  0  0  0  2  0  0  0  0  0  0
  158.5910  214.1240  151.5950 C   0  0  0  0  0  2  0  0  0  0  0  0
  157.1590  213.6400  151.4400 C   0  0  0  0  0  2  0  0  0  0  0  0
  155.1370  214.0350  150.2370 O   0  0  0  0  0  1  0  0  0  0  0  0
  156.5050  214.3100  150.2460 C   0  0  0  0  0  3  0  0  0  0  0  0
  157.0810  213.8250  149.0730 O   0  0  0  0  0  1  0  0  0  0  0  0
  161.3710  209.7980  155.0540 C   0  0  2  0  0  3  0  0  0  0  0  0
  159.7120  207.9950  156.1250 C   0  0  0  0  0  3  0  0  0  0  0  0
  160.4610  208.8080  155.6450 C   0  0  0  0  0  0  0  0  0  0  0  0
  163.4060  210.7090  155.4160 O   0  0  0  0  0  1  0  0  0  0  0  0
  162.2980  210.2810  156.0660 N   0  0  0  0  0  2  0  0  0  0  0  0
  2 30  1  0  0  0  0
  2  1  2  0  0  0  0
  3  9  1  0  0  0  0
  3  2  1  0  0  0  0
  4  7  2  0  0  0  0
  5  4  1  0  0  0  0
  5  6  2  0  0  0  0
  6  3  1  0  0  0  0
  7  9  1  0  0  0  0
  8  5  1  0  0  0  0
  9 10  2  0  0  0  0
 10 39  1  0  0  0  0
 10  1  1  0  0  0  0
 11 12  1  0  0  0  0
 12  4  1  0  0  0  0
 13 12  2  0  0  0  0
 14 13  1  0  0  0  0
 15 14  1  0  0  0  0
 15 19  1  0  0  0  0
 16 17  2  0  0  0  0
 17 20  1  0  0  0  0
 17 19  1  0  0  0  0
 18 16  1  0  0  0  0
 18 15  2  0  0  0  0
 20 23  1  0  0  0  0
 21 22  1  0  0  0  0
 21 20  1  0  0  0  0
 23 24  1  0  0  0  0
 24 25  1  0  0  0  0
 25 28  1  0  0  0  0
 25 26  2  0  0  0  0
 28 29  1  6  0  0  0
 28 27  1  0  0  0  0
 30 31  1  0  0  0  0
 33 31  1  0  0  0  0
 33 32  1  0  0  0  0
 34  6  1  0  0  0  0
 35 34  1  0  0  0  0
 36 37  1  0  0  0  0
 37 35  1  0  0  0  0
 38 37  1  0  0  0  0
 39 41  1  1  0  0  0
 39 43  1  0  0  0  0
 41 40  3  0  0  0  0
 42 43  1  0  0  0  0
M  END
>  <MODEL>
7

>  <REMARK>
 VINA RESULT:      -4.4      5.463      9.447
  Name = 
  18 active torsions:
  status: ('A' for Active; 'I' for Inactive)
    1  A    between atoms: C_2  and  C_34
    2  A    between atoms: C_2  and  C_39
    3  A    between atoms: C_4  and  C_5
    4  A    between atoms: C_4  and  C_41
    5  A    between atoms: C_6  and  C_28
    6  A    between atoms: C_9  and  N_17
    7  A    between atoms: C_9  and  C_42
    8  A    between atoms: C_9  and  C_43
    9  A    between atoms: C_12  and  N_23
   10  A    between atoms: C_13  and  C_14
   11  A    between atoms: C_14  and  N_19
   12  A    between atoms: N_19  and  C_37
   13  A    between atoms: C_20  and  C_21
   14  A    between atoms: N_23  and  C_29
   15  A    between atoms: N_23  and  C_30
   16  A    between atoms: C_25  and  C_34
   17  A    between atoms: C_26  and  C_28
   18  A    between atoms: C_30  and  C_41
                            x       y       z     vdW  Elec       q    Type
                         _______ _______ _______ _____ _____    ______ ____

>  <TORSDO>
F 18

$$$$
=
 OpenBabel11052411263D

 43 45  0  0  1  0  0  0  0  0999 V2000
  161.3630  204.3050  147.1710 C   0  0  0  0  0  3  0  0  0  0  0  0
  161.4640  205.6760  147.3750 C   0  0  0  0  0  0  0  0  0  0  0  0
  161.4010  205.9740  148.6960 N   0  0  0  0  0  0  0  0  0  0  0  0
  161.1990  205.9430  151.4620 C   0  0  0  0  0  0  0  0  0  0  0  0
  161.3510  207.1710  150.7630 C   0  0  0  0  0  0  0  0  0  0  0  0
  161.4580  207.1700  149.3550 C   0  0  0  0  0  0  0  0  0  0  0  0
  161.1660  204.7450  150.7240 C   0  0  0  0  0  3  0  0  0  0  0  0
  161.4030  208.3820  151.4470 O   0  0  0  0  0  1  0  0  0  0  0  0
  161.2690  204.8030  149.3400 C   0  0  0  0  0  0  0  0  0  0  0  0
  161.2380  203.7560  148.4380 C   0  0  0  0  0  0  0  0  0  0  0  0
  161.0120  204.6240  153.6210 N   0  0  0  0  0  1  0  0  0  0  0  0
  161.0530  205.8810  152.9440 C   0  0  0  0  0  0  0  0  0  0  0  0
  160.9880  207.0090  153.6580 C   0  0  0  0  0  3  0  0  0  0  0  0
  160.8800  207.0220  155.1480 C   0  0  0  0  0  2  0  0  0  0  0  0
  160.8390  208.4240  155.6480 C   0  0  0  0  0  0  0  0  0  0  0  0
  161.0210  210.2130  157.1230 C   0  0  0  0  0  3  0  0  0  0  0  0
  160.5980  210.8720  155.9730 C   0  0  0  0  0  0  0  0  0  0  0  0
  161.1580  208.8290  156.9390 C   0  0  0  0  0  3  0  0  0  0  0  0
  160.3870  209.7540  154.7290 S   0  0  0  0  0  0  0  0  0  0  0  0
  160.3370  212.2840  155.8780 N   0  0  0  0  0  0  0  0  0  0  0  0
  160.6330  213.1760  156.9900 C   0  0  0  0  0  2  0  0  0  0  0  0
  159.8270  214.4530  156.8640 C   0  0  0  0  0  1  0  0  0  0  0  0
  159.5990  212.8350  154.7490 C   0  0  0  0  0  2  0  0  0  0  0  0
  158.1810  213.1850  155.1700 C   0  0  0  0  0  2  0  0  0  0  0  0
  157.2600  212.0540  154.8560 C   0  0  0  0  0  0  0  0  0  0  0  0
  157.5330  211.2730  153.9550 O   0  0  0  0  0  0  0  0  0  0  0  0
  155.3590  210.7080  155.2770 O   0  0  0  0  0  1  0  0  0  0  0  0
  156.0140  211.8770  155.6640 C   0  0  1  0  0  3  0  0  0  0  0  0
  156.3360  211.8180  157.1450 C   0  0  0  0  0  1  0  0  0  0  0  0
  161.5650  206.6640  146.2620 C   0  0  0  0  0  2  0  0  0  0  0  0
  160.6720  206.2800  145.1840 N   0  0  0  0  0  2  0  0  0  0  0  0
  160.0620  204.1030  144.3290 C   0  0  0  0  0  1  0  0  0  0  0  0
  161.2010  205.0540  144.6170 C   0  0  0  0  0  2  0  0  0  0  0  0
  161.5980  208.4680  148.6220 C   0  0  0  0  0  2  0  0  0  0  0  0
  162.1720  209.5300  149.5440 C   0  0  0  0  0  2  0  0  0  0  0  0
  161.8560  211.8800  149.8000 O   0  0  0  0  0  1  0  0  0  0  0  0
  162.1440  210.8860  148.8650 C   0  0  0  0  0  3  0  0  0  0  0  0
  161.1630  210.8850  147.8750 O   0  0  0  0  0  1  0  0  0  0  0  0
  161.1490  202.2880  148.7330 C   0  0  2  0  0  3  0  0  0  0  0  0
  160.7310  200.8790  146.4990 C   0  0  0  0  0  3  0  0  0  0  0  0
  160.9170  201.5140  147.5060 C   0  0  0  0  0  0  0  0  0  0  0  0
  159.7940  200.7060  149.6070 O   0  0  0  0  0  1  0  0  0  0  0  0
  160.0840  202.0270  149.6890 N   0  0  0  0  0  2  0  0  0  0  0  0
  1  2  2  0  0  0  0
  1 10  1  0  0  0  0
  2  3  1  0  0  0  0
  3  9  1  0  0  0  0
  3  6  1  0  0  0  0
  4 12  1  0  0  0  0
  5  8  1  0  0  0  0
  5  4  1  0  0  0  0
  6  5  2  0  0  0  0
  7  4  2  0  0  0  0
  9  7  1  0  0  0  0
 10 39  1  0  0  0  0
 10  9  2  0  0  0  0
 12 11  1  0  0  0  0
 12 13  2  0  0  0  0
 13 14  1  0  0  0  0
 14 15  1  0  0  0  0
 15 18  2  0  0  0  0
 17 16  2  0  0  0  0
 18 16  1  0  0  0  0
 19 15  1  0  0  0  0
 19 17  1  0  0  0  0
 20 17  1  0  0  0  0
 20 21  1  0  0  0  0
 22 21  1  0  0  0  0
 23 24  1  0  0  0  0
 23 20  1  0  0  0  0
 25 24  1  0  0  0  0
 25 28  1  0  0  0  0
 26 25  2  0  0  0  0
 27 28  1  0  0  0  0
 28 29  1  1  0  0  0
 30  2  1  0  0  0  0
 31 30  1  0  0  0  0
 32 33  1  0  0  0  0
 33 31  1  0  0  0  0
 34  6  1  0  0  0  0
 34 35  1  0  0  0  0
 37 35  1  0  0  0  0
 37 36  1  0  0  0  0
 38 37  1  0  0  0  0
 39 41  1  6  0  0  0
 39 43  1  0  0  0  0
 40 41  3  0  0  0  0
 42 43  1  0  0  0  0
M  END
>  <MODEL>
8

>  <REMARK>
 VINA RESULT:      -4.2      5.022     10.215
  Name = 
  18 active torsions:
  status: ('A' for Active; 'I' for Inactive)
    1  A    between atoms: C_2  and  C_34
    2  A    between atoms: C_2  and  C_39
    3  A    between atoms: C_4  and  C_5
    4  A    between atoms: C_4  and  C_41
    5  A    between atoms: C_6  and  C_28
    6  A    between atoms: C_9  and  N_17
    7  A    between atoms: C_9  and  C_42
    8  A    between atoms: C_9  and  C_43
    9  A    between atoms: C_12  and  N_23
   10  A    between atoms: C_13  and  C_14
   11  A    between atoms: C_14  and  N_19
   12  A    between atoms: N_19  and  C_37
   13  A    between atoms: C_20  and  C_21
   14  A    between atoms: N_23  and  C_29
   15  A    between atoms: N_23  and  C_30
   16  A    between atoms: C_25  and  C_34
   17  A    between atoms: C_26  and  C_28
   18  A    between atoms: C_30  and  C_41
                            x       y       z     vdW  Elec       q    Type
                         _______ _______ _______ _____ _____    ______ ____

>  <TORSDO>
F 18

$$$$
=
 OpenBabel11052411263D

 43 45  0  0  1  0  0  0  0  0999 V2000
  158.4740  213.8930  153.3050 C   0  0  0  0  0  3  0  0  0  0  0  0
  159.0990  212.9240  154.0780 C   0  0  0  0  0  0  0  0  0  0  0  0
  159.8410  212.0930  153.3050 N   0  0  0  0  0  0  0  0  0  0  0  0
  161.1280  210.7610  151.2410 C   0  0  0  0  0  0  0  0  0  0  0  0
  161.2730  210.3210  152.5860 C   0  0  0  0  0  0  0  0  0  0  0  0
  160.6160  211.0130  153.6260 C   0  0  0  0  0  0  0  0  0  0  0  0
  160.3300  211.8900  150.9820 C   0  0  0  0  0  3  0  0  0  0  0  0
  162.0620  209.2170  152.8960 O   0  0  0  0  0  1  0  0  0  0  0  0
  159.7010  212.5280  152.0430 C   0  0  0  0  0  0  0  0  0  0  0  0
  158.8660  213.6300  152.0020 C   0  0  0  0  0  0  0  0  0  0  0  0
  162.7060  210.7340  149.2560 N   0  0  0  0  0  1  0  0  0  0  0  0
  161.7730  210.0560  150.0980 C   0  0  0  0  0  0  0  0  0  0  0  0
  161.5040  208.7670  149.8670 C   0  0  0  0  0  3  0  0  0  0  0  0
  162.1430  207.9880  148.7640 C   0  0  0  0  0  2  0  0  0  0  0  0
  161.7300  206.5600  148.8370 C   0  0  0  0  0  0  0  0  0  0  0  0
  161.2210  204.4040  148.1270 C   0  0  0  0  0  3  0  0  0  0  0  0
  160.9830  204.2860  149.4930 C   0  0  0  0  0  0  0  0  0  0  0  0
  161.6430  205.6890  147.7560 C   0  0  0  0  0  3  0  0  0  0  0  0
  161.2880  205.7630  150.2470 S   0  0  0  0  0  0  0  0  0  0  0  0
  160.5050  203.0980  150.1500 N   0  0  0  0  0  0  0  0  0  0  0  0
  160.6380  202.9360  151.5920 C   0  0  0  0  0  2  0  0  0  0  0  0
  162.0540  202.5200  151.9410 C   0  0  0  0  0  1  0  0  0  0  0  0
  160.0490  201.9480  149.3820 C   0  0  0  0  0  2  0  0  0  0  0  0
  160.4090  202.1220  147.9150 C   0  0  0  0  0  2  0  0  0  0  0  0
  161.0830  200.8920  147.4050 C   0  0  0  0  0  0  0  0  0  0  0  0
  161.5860  200.0990  148.1890 O   0  0  0  0  0  0  0  0  0  0  0  0
  160.9070  199.2790  145.6820 O   0  0  0  0  0  1  0  0  0  0  0  0
  161.1220  200.6350  145.9320 C   0  0  1  0  0  3  0  0  0  0  0  0
  160.0730  201.4620  145.2140 C   0  0  0  0  0  1  0  0  0  0  0  0
  158.9100  212.8040  155.5540 C   0  0  0  0  0  2  0  0  0  0  0  0
  158.0340  213.8630  156.0210 N   0  0  0  0  0  2  0  0  0  0  0  0
  156.9280  211.9190  156.9370 C   0  0  0  0  0  1  0  0  0  0  0  0
  157.3420  213.3510  157.1890 C   0  0  0  0  0  2  0  0  0  0  0  0
  160.7560  210.5350  155.0380 C   0  0  0  0  0  2  0  0  0  0  0  0
  159.7710  209.4100  155.3080 C   0  0  0  0  0  2  0  0  0  0  0  0
  161.7010  208.7120  156.5220 O   0  0  0  0  0  1  0  0  0  0  0  0
  160.4510  208.2890  156.0700 C   0  0  0  0  0  3  0  0  0  0  0  0
  160.6140  207.1910  155.2270 O   0  0  0  0  0  1  0  0  0  0  0  0
  158.4800  214.4490  150.8060 C   0  0  2  0  0  3  0  0  0  0  0  0
  156.1020  213.6900  149.8470 C   0  0  0  0  0  3  0  0  0  0  0  0
  157.1740  214.0340  150.2770 C   0  0  0  0  0  0  0  0  0  0  0  0
  158.9040  213.7300  148.7070 O   0  0  0  0  0  1  0  0  0  0  0  0
  159.4920  214.3360  149.7660 N   0  0  0  0  0  2  0  0  0  0  0  0
  1  2  2  0  0  0  0
  2 30  1  0  0  0  0
  3  6  1  0  0  0  0
  3  2  1  0  0  0  0
  4  5  1  0  0  0  0
  5  8  1  0  0  0  0
  5  6  2  0  0  0  0
  6 34  1  0  0  0  0
  7  4  2  0  0  0  0
  7  9  1  0  0  0  0
  9  3  1  0  0  0  0
 10  9  2  0  0  0  0
 10  1  1  0  0  0  0
 11 12  1  0  0  0  0
 12  4  1  0  0  0  0
 13 12  2  0  0  0  0
 14 15  1  0  0  0  0
 14 13  1  0  0  0  0
 15 19  1  0  0  0  0
 16 17  2  0  0  0  0
 17 20  1  0  0  0  0
 17 19  1  0  0  0  0
 18 16  1  0  0  0  0
 18 15  2  0  0  0  0
 20 21  1  0  0  0  0
 21 22  1  0  0  0  0
 23 20  1  0  0  0  0
 24 23  1  0  0  0  0
 25 24  1  0  0  0  0
 25 26  2  0  0  0  0
 27 28  1  0  0  0  0
 28 29  1  6  0  0  0
 28 25  1  0  0  0  0
 30 31  1  0  0  0  0
 31 33  1  0  0  0  0
 32 33  1  0  0  0  0
 34 35  1  0  0  0  0
 35 37  1  0  0  0  0
 37 36  1  0  0  0  0
 38 37  1  0  0  0  0
 39 41  1  6  0  0  0
 39 10  1  0  0  0  0
 40 41  3  0  0  0  0
 42 43  1  0  0  0  0
 43 39  1  0  0  0  0
M  END
>  <MODEL>
9

>  <REMARK>
 VINA RESULT:      -4.0      5.740      9.024
  Name = 
  18 active torsions:
  status: ('A' for Active; 'I' for Inactive)
    1  A    between atoms: C_2  and  C_34
    2  A    between atoms: C_2  and  C_39
    3  A    between atoms: C_4  and  C_5
    4  A    between atoms: C_4  and  C_41
    5  A    between atoms: C_6  and  C_28
    6  A    between atoms: C_9  and  N_17
    7  A    between atoms: C_9  and  C_42
    8  A    between atoms: C_9  and  C_43
    9  A    between atoms: C_12  and  N_23
   10  A    between atoms: C_13  and  C_14
   11  A    between atoms: C_14  and  N_19
   12  A    between atoms: N_19  and  C_37
   13  A    between atoms: C_20  and  C_21
   14  A    between atoms: N_23  and  C_29
   15  A    between atoms: N_23  and  C_30
   16  A    between atoms: C_25  and  C_34
   17  A    between atoms: C_26  and  C_28
   18  A    between atoms: C_30  and  C_41
                            x       y       z     vdW  Elec       q    Type
                         _______ _______ _______ _____ _____    ______ ____

>  <TORSDO>
F 18

$$$$
