=
 OpenBabel11042423093D

 37 43  0  0  1  0  0  0  0  0999 V2000
  161.2780  207.7800  152.6960 C   0  0  0  0  0  0  0  0  0  0  0  0
  161.0270  210.6390  156.5410 N   0  0  0  0  0  0  0  0  0  0  0  0
  160.1540  208.4120  156.6710 C   0  0  0  0  0  3  0  0  0  0  0  0
  160.9810  210.9060  152.0460 C   0  0  0  0  0  2  0  0  0  0  0  0
  160.8000  207.4900  150.2430 C   0  0  0  0  0  2  0  0  0  0  0  0
  162.5020  209.0920  151.1630 N   0  0  1  0  0  0  0  0  0  0  0  0
  161.5380  205.1650  149.9980 N   0  0  0  0  0  0  0  0  0  0  0  0
  160.4230  209.6530  157.2610 C   0  0  0  0  0  3  0  0  0  0  0  0
  161.4850  209.0040  153.2630 C   0  0  0  0  0  0  0  0  0  0  0  0
  160.6590  206.7390  153.3990 C   0  0  0  0  0  3  0  0  0  0  0  0
  161.1390  209.2350  154.6060 C   0  0  0  0  0  0  0  0  0  0  0  0
  162.1230  209.9650  152.3050 C   0  0  1  0  0  0  0  0  0  0  0  0
  160.3750  206.0200  150.2210 C   0  0  0  0  0  2  0  0  0  0  0  0
  161.8630  207.7610  151.3330 C   0  0  1  0  0  0  0  0  0  0  0  0
  160.5130  208.1980  155.3400 C   0  0  0  0  0  0  0  0  0  0  0  0
  160.2670  206.9590  154.7260 C   0  0  0  0  0  3  0  0  0  0  0  0
  161.3840  210.4600  155.2390 C   0  0  0  0  0  3  0  0  0  0  0  0
  162.4180  205.2880  151.1590 C   0  0  0  0  0  2  0  0  0  0  0  0
  162.9780  206.7080  151.2450 C   0  0  0  0  0  2  0  0  0  0  0  0
  161.5400  210.1620  150.8860 C   0  0  2  0  0  0  0  0  0  0  0  0
  162.2500  211.1600  150.1040 N   0  0  0  0  0  2  0  0  0  0  0  0
  161.6910  211.1450  148.7600 C   0  0  0  0  0  2  0  0  0  0  0  0
  161.6740  212.5470  148.1740 C   0  0  1  0  0  3  0  0  0  0  0  0
  163.0840  213.0310  147.8770 C   0  0  0  0  0  1  0  0  0  0  0  0
  159.4130  212.5630  147.0280 N   0  0  0  0  0  2  0  0  0  0  0  0
  158.4960  212.5960  145.9270 C   0  0  0  0  0  0  0  0  0  0  0  0
  158.9110  212.7530  144.7150 N   0  0  0  0  0  2  0  0  0  0  0  0
  160.8460  212.5800  146.9330 C   0  0  0  0  0  0  0  0  0  0  0  0
  157.0400  212.4850  146.1890 C   0  0  0  0  0  1  0  0  0  0  0  0
  161.4220  212.6010  145.8120 O   0  0  0  0  0  0  0  0  0  0  0  0
  161.0440  203.7980  149.9980 C   0  0  0  0  0  2  0  0  0  0  0  0
  161.2620  203.1390  148.6450 C   0  0  1  0  0  3  0  0  0  0  0  0
  160.4880  201.8190  148.5730 C   0  0  0  0  0  3  0  0  0  0  0  0
  161.3830  200.6100  148.3470 C   0  0  0  0  0  2  0  0  0  0  0  0
  160.9150  200.9520  149.7400 C   0  0  0  0  0  2  0  0  0  0  0  0
  161.9400  204.0490  146.7480 C   0  0  0  0  0  1  0  0  0  0  0  0
  160.8720  204.0260  147.6430 O   0  0  0  0  0  0  0  0  0  0  0  0
  1  9  2  0  0  0  0
  1 10  1  0  0  0  0
  2  8  1  0  0  0  0
  3  8  2  0  0  0  0
  4 12  1  0  0  0  0
  5 14  1  0  0  0  0
  6 14  1  0  0  0  0
  6 12  1  0  0  0  0
  7 13  1  0  0  0  0
  7 18  1  0  0  0  0
  9 11  1  0  0  0  0
 10 16  2  0  0  0  0
 11 17  1  0  0  0  0
 11 15  2  0  0  0  0
 12  9  1  0  0  0  0
 13  5  1  0  0  0  0
 14  1  1  0  0  0  0
 15  3  1  0  0  0  0
 16 15  1  0  0  0  0
 17  2  2  0  0  0  0
 18 19  1  0  0  0  0
 19 14  1  0  0  0  0
 20  6  1  0  0  0  0
 20  4  1  0  0  0  0
 20 12  1  0  0  0  0
 21 20  1  0  0  0  0
 22 21  1  0  0  0  0
 23 22  1  0  0  0  0
 24 23  1  0  0  0  0
 26 29  1  0  0  0  0
 26 25  1  0  0  0  0
 27 26  2  0  0  0  0
 28 25  1  0  0  0  0
 28 23  1  0  0  0  0
 30 28  2  0  0  0  0
 31  7  1  0  0  0  0
 32 31  1  0  0  0  0
 33 32  1  0  0  0  0
 33 35  1  0  0  0  0
 34 33  1  0  0  0  0
 34 35  1  0  0  0  0
 36 37  1  0  0  0  0
 37 32  1  0  0  0  0
M  END
>  <MODEL>
1

>  <REMARK>
 VINA RESULT:      -8.1      0.000      0.000
  Name = 
  8 active torsions:
  status: ('A' for Active; 'I' for Inactive)
    1  A    between atoms: C_3  and  C_17
    2  A    between atoms: C_3  and  C_28
    3  A    between atoms: N_7  and  C_28
    4  A    between atoms: N_7  and  C_31
    5  A    between atoms: C_12  and  C_19
    6  A    between atoms: N_14  and  C_34
    7  A    between atoms: C_19  and  C_34
    8  A    between atoms: C_19  and  O_35
                            x       y       z     vdW  Elec       q    Type
                         _______ _______ _______ _____ _____    ______ ____

>  <TORSDO>
F 8

$$$$
=
 OpenBabel11042423093D

 37 43  0  0  1  0  0  0  0  0999 V2000
  161.3550  207.7780  151.8000 C   0  0  0  0  0  0  0  0  0  0  0  0
  160.8670  203.7570  149.2280 N   0  0  0  0  0  0  0  0  0  0  0  0
  161.1490  203.6080  151.6010 C   0  0  0  0  0  3  0  0  0  0  0  0
  162.5110  207.9280  148.8130 C   0  0  0  0  0  2  0  0  0  0  0  0
  162.5750  209.9570  152.1050 C   0  0  0  0  0  2  0  0  0  0  0  0
  161.0400  209.4630  150.1780 N   0  0  1  0  0  0  0  0  0  0  0  0
  161.4920  210.6970  154.1760 N   0  0  0  0  0  0  0  0  0  0  0  0
  160.9630  202.9990  150.3550 C   0  0  0  0  0  3  0  0  0  0  0  0
  161.2290  207.1710  150.5840 C   0  0  0  0  0  0  0  0  0  0  0  0
  161.4590  207.0370  152.9840 C   0  0  0  0  0  3  0  0  0  0  0  0
  161.1330  205.7720  150.4910 C   0  0  0  0  0  0  0  0  0  0  0  0
  161.1790  208.1670  149.4630 C   0  0  1  0  0  0  0  0  0  0  0  0
  162.6590  210.0090  153.6320 C   0  0  0  0  0  2  0  0  0  0  0  0
  161.2850  209.2500  151.6280 C   0  0  1  0  0  0  0  0  0  0  0  0
  161.2330  205.0000  151.6750 C   0  0  0  0  0  0  0  0  0  0  0  0
  161.4080  205.6380  152.9120 C   0  0  0  0  0  3  0  0  0  0  0  0
  160.9500  205.1160  149.2670 C   0  0  0  0  0  3  0  0  0  0  0  0
  160.3130  209.8800  153.8900 C   0  0  0  0  0  2  0  0  0  0  0  0
  160.0720  209.8180  152.3810 C   0  0  0  0  0  2  0  0  0  0  0  0
  162.2420  209.2850  149.3580 C   0  0  2  0  0  0  0  0  0  0  0  0
  162.0720  210.1350  148.1920 N   0  0  0  0  0  2  0  0  0  0  0  0
  162.4730  211.4820  148.5680 C   0  0  0  0  0  2  0  0  0  0  0  0
  161.3640  212.4750  148.2580 C   0  0  1  0  0  3  0  0  0  0  0  0
  161.7160  213.8620  148.7720 C   0  0  0  0  0  1  0  0  0  0  0  0
  162.1250  212.9910  145.8960 N   0  0  0  0  0  2  0  0  0  0  0  0
  162.0180  213.0840  144.4700 C   0  0  0  0  0  0  0  0  0  0  0  0
  160.9810  212.6350  143.8460 N   0  0  0  0  0  2  0  0  0  0  0  0
  161.1040  212.5200  146.7900 C   0  0  0  0  0  0  0  0  0  0  0  0
  163.1350  213.6750  143.6940 C   0  0  0  0  0  1  0  0  0  0  0  0
  159.9760  212.1620  146.3560 O   0  0  0  0  0  0  0  0  0  0  0  0
  161.6540  210.6950  155.6200 C   0  0  0  0  0  2  0  0  0  0  0  0
  160.3980  210.1870  156.3110 C   0  0  1  0  0  3  0  0  0  0  0  0
  160.7490  209.0350  157.2580 C   0  0  0  0  0  3  0  0  0  0  0  0
  160.1050  207.7150  156.8630 C   0  0  0  0  0  2  0  0  0  0  0  0
  161.5370  208.0010  156.4800 C   0  0  0  0  0  2  0  0  0  0  0  0
  158.4870  211.2810  156.4960 C   0  0  0  0  0  1  0  0  0  0  0  0
  159.7930  211.2470  156.9820 O   0  0  0  0  0  0  0  0  0  0  0  0
  1 10  1  0  0  0  0
  2 17  2  0  0  0  0
  2  8  1  0  0  0  0
  3 15  1  0  0  0  0
  4 20  1  0  0  0  0
  4 12  1  0  0  0  0
  5 13  1  0  0  0  0
  6 14  1  0  0  0  0
  7 31  1  0  0  0  0
  8  3  2  0  0  0  0
  9  1  2  0  0  0  0
 11  9  1  0  0  0  0
 11 15  2  0  0  0  0
 12  6  1  0  0  0  0
 12  9  1  0  0  0  0
 13  7  1  0  0  0  0
 14  1  1  0  0  0  0
 14  5  1  0  0  0  0
 14 19  1  0  0  0  0
 15 16  1  0  0  0  0
 16 10  2  0  0  0  0
 17 11  1  0  0  0  0
 18  7  1  0  0  0  0
 19 18  1  0  0  0  0
 20 12  1  0  0  0  0
 20  6  1  0  0  0  0
 21 22  1  0  0  0  0
 21 20  1  0  0  0  0
 23 22  1  0  0  0  0
 23 24  1  0  0  0  0
 25 28  1  0  0  0  0
 26 25  1  0  0  0  0
 27 26  2  0  0  0  0
 28 23  1  0  0  0  0
 29 26  1  0  0  0  0
 30 28  2  0  0  0  0
 31 32  1  0  0  0  0
 32 37  1  0  0  0  0
 32 33  1  0  0  0  0
 34 33  1  0  0  0  0
 35 34  1  0  0  0  0
 35 33  1  0  0  0  0
 36 37  1  0  0  0  0
M  END
>  <MODEL>
2

>  <REMARK>
 VINA RESULT:      -7.7      2.497      6.345
  Name = 
  8 active torsions:
  status: ('A' for Active; 'I' for Inactive)
    1  A    between atoms: C_3  and  C_17
    2  A    between atoms: C_3  and  C_28
    3  A    between atoms: N_7  and  C_28
    4  A    between atoms: N_7  and  C_31
    5  A    between atoms: C_12  and  C_19
    6  A    between atoms: N_14  and  C_34
    7  A    between atoms: C_19  and  C_34
    8  A    between atoms: C_19  and  O_35
                            x       y       z     vdW  Elec       q    Type
                         _______ _______ _______ _____ _____    ______ ____

>  <TORSDO>
F 8

$$$$
=
 OpenBabel11042423093D

 37 43  0  0  1  0  0  0  0  0999 V2000
  161.2900  207.8030  152.7570 C   0  0  0  0  0  0  0  0  0  0  0  0
  161.0890  210.9100  156.4070 N   0  0  0  0  0  0  0  0  0  0  0  0
  160.1760  208.7130  156.6810 C   0  0  0  0  0  3  0  0  0  0  0  0
  161.0490  210.8850  151.9050 C   0  0  0  0  0  2  0  0  0  0  0  0
  160.8070  207.3630  150.3280 C   0  0  0  0  0  2  0  0  0  0  0  0
  162.5370  208.9910  151.1430 N   0  0  1  0  0  0  0  0  0  0  0  0
  161.5030  205.0140  150.2360 N   0  0  0  0  0  0  0  0  0  0  0  0
  160.4670  209.9840  157.1890 C   0  0  0  0  0  3  0  0  0  0  0  0
  161.5180  209.0580  153.2440 C   0  0  0  0  0  0  0  0  0  0  0  0
  160.6520  206.8210  153.5250 C   0  0  0  0  0  3  0  0  0  0  0  0
  161.1760  209.3820  154.5680 C   0  0  0  0  0  0  0  0  0  0  0  0
  162.1740  209.9430  152.2260 C   0  0  1  0  0  0  0  0  0  0  0  0
  160.3560  205.9020  150.4010 C   0  0  0  0  0  2  0  0  0  0  0  0
  161.8750  207.6860  151.3990 C   0  0  1  0  0  0  0  0  0  0  0  0
  160.5320  208.4060  155.3670 C   0  0  0  0  0  0  0  0  0  0  0  0
  160.2630  207.1350  154.8350 C   0  0  0  0  0  3  0  0  0  0  0  0
  161.4430  210.6410  155.1200 C   0  0  0  0  0  3  0  0  0  0  0  0
  162.3860  205.1970  151.3870 C   0  0  0  0  0  2  0  0  0  0  0  0
  162.9710  206.6100  151.3810 C   0  0  0  0  0  2  0  0  0  0  0  0
  161.5940  210.0580  150.7960 C   0  0  2  0  0  0  0  0  0  0  0  0
  162.3230  210.9900  149.9520 N   0  0  0  0  0  2  0  0  0  0  0  0
  161.6250  211.0650  148.6770 C   0  0  0  0  0  2  0  0  0  0  0  0
  161.5310  212.5070  148.2050 C   0  0  1  0  0  3  0  0  0  0  0  0
  161.1900  212.5740  146.7250 C   0  0  0  0  0  1  0  0  0  0  0  0
  159.1140  213.0750  148.7150 N   0  0  0  0  0  2  0  0  0  0  0  0
  158.0290  213.7140  149.3990 C   0  0  0  0  0  0  0  0  0  0  0  0
  158.2340  214.4510  150.4390 N   0  0  0  0  0  2  0  0  0  0  0  0
  160.5100  213.2490  149.0020 C   0  0  0  0  0  0  0  0  0  0  0  0
  156.6400  213.4960  148.9250 C   0  0  0  0  0  1  0  0  0  0  0  0
  160.8940  214.0370  149.9070 O   0  0  0  0  0  0  0  0  0  0  0  0
  160.9860  203.6590  150.3230 C   0  0  0  0  0  2  0  0  0  0  0  0
  160.5180  203.1630  148.9640 C   0  0  1  0  0  3  0  0  0  0  0  0
  161.6910  203.1440  147.9790 C   0  0  0  0  0  3  0  0  0  0  0  0
  161.2540  203.2020  146.5230 C   0  0  0  0  0  2  0  0  0  0  0  0
  161.7020  204.4590  147.2260 C   0  0  0  0  0  2  0  0  0  0  0  0
  161.0040  201.0710  149.4880 C   0  0  0  0  0  1  0  0  0  0  0  0
  159.9470  201.9010  149.1170 O   0  0  0  0  0  0  0  0  0  0  0  0
  1  9  2  0  0  0  0
  1 10  1  0  0  0  0
  2  8  1  0  0  0  0
  3  8  2  0  0  0  0
  4 12  1  0  0  0  0
  5 13  1  0  0  0  0
  5 14  1  0  0  0  0
  6 14  1  0  0  0  0
  6 12  1  0  0  0  0
  7 31  1  0  0  0  0
  7 13  1  0  0  0  0
  7 18  1  0  0  0  0
  9 11  1  0  0  0  0
 10 16  2  0  0  0  0
 11 17  1  0  0  0  0
 11 15  2  0  0  0  0
 12  9  1  0  0  0  0
 14  1  1  0  0  0  0
 15  3  1  0  0  0  0
 16 15  1  0  0  0  0
 17  2  2  0  0  0  0
 19 18  1  0  0  0  0
 19 14  1  0  0  0  0
 20  6  1  0  0  0  0
 20  4  1  0  0  0  0
 20 12  1  0  0  0  0
 21 20  1  0  0  0  0
 22 21  1  0  0  0  0
 23 22  1  0  0  0  0
 23 28  1  0  0  0  0
 24 23  1  0  0  0  0
 25 28  1  0  0  0  0
 25 26  1  0  0  0  0
 26 27  2  0  0  0  0
 28 30  2  0  0  0  0
 29 26  1  0  0  0  0
 32 37  1  0  0  0  0
 32 31  1  0  0  0  0
 33 32  1  0  0  0  0
 34 35  1  0  0  0  0
 34 33  1  0  0  0  0
 35 33  1  0  0  0  0
 37 36  1  0  0  0  0
M  END
>  <MODEL>
3

>  <REMARK>
 VINA RESULT:      -7.5      1.421      2.013
  Name = 
  8 active torsions:
  status: ('A' for Active; 'I' for Inactive)
    1  A    between atoms: C_3  and  C_17
    2  A    between atoms: C_3  and  C_28
    3  A    between atoms: N_7  and  C_28
    4  A    between atoms: N_7  and  C_31
    5  A    between atoms: C_12  and  C_19
    6  A    between atoms: N_14  and  C_34
    7  A    between atoms: C_19  and  C_34
    8  A    between atoms: C_19  and  O_35
                            x       y       z     vdW  Elec       q    Type
                         _______ _______ _______ _____ _____    ______ ____

>  <TORSDO>
F 8

$$$$
=
 OpenBabel11042423093D

 37 43  0  0  1  0  0  0  0  0999 V2000
  161.3450  207.9170  151.7370 C   0  0  0  0  0  0  0  0  0  0  0  0
  160.8970  204.0490  148.9330 N   0  0  0  0  0  0  0  0  0  0  0  0
  161.1600  203.7640  151.2960 C   0  0  0  0  0  3  0  0  0  0  0  0
  162.5250  208.2440  148.7730 C   0  0  0  0  0  2  0  0  0  0  0  0
  162.5520  210.0790  152.1770 C   0  0  0  0  0  2  0  0  0  0  0  0
  161.0360  209.6920  150.2120 N   0  0  1  0  0  0  0  0  0  0  0  0
  161.4490  210.6940  154.2780 N   0  0  0  0  0  0  0  0  0  0  0  0
  160.9870  203.2280  150.0150 C   0  0  0  0  0  3  0  0  0  0  0  0
  161.2320  207.3810  150.4860 C   0  0  0  0  0  0  0  0  0  0  0  0
  161.4430  207.1090  152.8770 C   0  0  0  0  0  3  0  0  0  0  0  0
  161.1430  205.9880  150.3120 C   0  0  0  0  0  0  0  0  0  0  0  0
  161.1860  208.4390  149.4250 C   0  0  1  0  0  0  0  0  0  0  0  0
  162.6240  210.0440  153.7050 C   0  0  0  0  0  2  0  0  0  0  0  0
  161.2690  209.3960  151.6490 C   0  0  1  0  0  0  0  0  0  0  0  0
  161.2370  205.1500  151.4500 C   0  0  0  0  0  0  0  0  0  0  0  0
  161.3990  205.7160  152.7240 C   0  0  0  0  0  3  0  0  0  0  0  0
  160.9730  205.4040  149.0510 C   0  0  0  0  0  3  0  0  0  0  0  0
  160.2760  209.8910  153.9350 C   0  0  0  0  0  2  0  0  0  0  0  0
  160.0480  209.9140  152.4230 C   0  0  0  0  0  2  0  0  0  0  0  0
  162.2450  209.5660  149.3940 C   0  0  2  0  0  0  0  0  0  0  0  0
  162.0810  210.4810  148.2770 N   0  0  0  0  0  2  0  0  0  0  0  0
  162.7260  211.7340  148.6370 C   0  0  0  0  0  2  0  0  0  0  0  0
  161.9740  212.9130  148.0390 C   0  0  1  0  0  3  0  0  0  0  0  0
  161.8830  212.7890  146.5260 C   0  0  0  0  0  1  0  0  0  0  0  0
  160.4530  213.1920  150.0470 N   0  0  0  0  0  2  0  0  0  0  0  0
  159.2090  213.3080  150.7500 C   0  0  0  0  0  0  0  0  0  0  0  0
  158.0860  213.3610  150.1170 N   0  0  0  0  0  2  0  0  0  0  0  0
  160.6080  213.0110  148.6310 C   0  0  0  0  0  0  0  0  0  0  0  0
  159.2160  213.4050  152.2300 C   0  0  0  0  0  1  0  0  0  0  0  0
  159.6040  212.9110  147.8750 O   0  0  0  0  0  0  0  0  0  0  0  0
  161.5990  210.6100  155.7210 C   0  0  0  0  0  2  0  0  0  0  0  0
  160.3410  210.0540  156.3700 C   0  0  1  0  0  3  0  0  0  0  0  0
  160.6940  208.8590  157.2610 C   0  0  0  0  0  3  0  0  0  0  0  0
  160.1520  207.5380  156.7350 C   0  0  0  0  0  2  0  0  0  0  0  0
  161.5870  207.9230  156.4710 C   0  0  0  0  0  2  0  0  0  0  0  0
  158.4820  211.2450  156.4680 C   0  0  0  0  0  1  0  0  0  0  0  0
  159.7180  211.0730  157.0890 O   0  0  0  0  0  0  0  0  0  0  0  0
  1 10  1  0  0  0  0
  2 17  2  0  0  0  0
  2  8  1  0  0  0  0
  3 15  1  0  0  0  0
  4 20  1  0  0  0  0
  4 12  1  0  0  0  0
  5 13  1  0  0  0  0
  6 14  1  0  0  0  0
  7 31  1  0  0  0  0
  8  3  2  0  0  0  0
  9  1  2  0  0  0  0
 11  9  1  0  0  0  0
 11 15  2  0  0  0  0
 12  6  1  0  0  0  0
 12  9  1  0  0  0  0
 13  7  1  0  0  0  0
 14  1  1  0  0  0  0
 14  5  1  0  0  0  0
 14 19  1  0  0  0  0
 15 16  1  0  0  0  0
 16 10  2  0  0  0  0
 17 11  1  0  0  0  0
 18  7  1  0  0  0  0
 19 18  1  0  0  0  0
 20 12  1  0  0  0  0
 20  6  1  0  0  0  0
 21 22  1  0  0  0  0
 21 20  1  0  0  0  0
 23 28  1  0  0  0  0
 23 22  1  0  0  0  0
 24 23  1  0  0  0  0
 25 26  1  0  0  0  0
 26 29  1  0  0  0  0
 27 26  2  0  0  0  0
 28 25  1  0  0  0  0
 30 28  2  0  0  0  0
 31 32  1  0  0  0  0
 32 37  1  0  0  0  0
 32 33  1  0  0  0  0
 34 33  1  0  0  0  0
 35 34  1  0  0  0  0
 35 33  1  0  0  0  0
 36 37  1  0  0  0  0
M  END
>  <MODEL>
4

>  <REMARK>
 VINA RESULT:      -7.4      2.539      6.425
  Name = 
  8 active torsions:
  status: ('A' for Active; 'I' for Inactive)
    1  A    between atoms: C_3  and  C_17
    2  A    between atoms: C_3  and  C_28
    3  A    between atoms: N_7  and  C_28
    4  A    between atoms: N_7  and  C_31
    5  A    between atoms: C_12  and  C_19
    6  A    between atoms: N_14  and  C_34
    7  A    between atoms: C_19  and  C_34
    8  A    between atoms: C_19  and  O_35
                            x       y       z     vdW  Elec       q    Type
                         _______ _______ _______ _____ _____    ______ ____

>  <TORSDO>
F 8

$$$$
=
 OpenBabel11042423093D

 37 43  0  0  1  0  0  0  0  0999 V2000
  160.9490  211.1950  151.6540 C   0  0  0  0  0  0  0  0  0  0  0  0
  162.2820  212.6710  147.2880 N   0  0  0  0  0  0  0  0  0  0  0  0
  160.8010  214.0320  148.5880 C   0  0  0  0  0  3  0  0  0  0  0  0
  161.5240  208.8490  149.5440 C   0  0  0  0  0  2  0  0  0  0  0  0
  159.9770  209.3450  153.0540 C   0  0  0  0  0  2  0  0  0  0  0  0
  162.2260  209.2310  151.9410 N   0  0  1  0  0  0  0  0  0  0  0  0
  159.9040  210.5140  155.2080 N   0  0  0  0  0  0  0  0  0  0  0  0
  161.5410  213.8060  147.4220 C   0  0  0  0  0  3  0  0  0  0  0  0
  161.6220  210.9580  150.4900 C   0  0  0  0  0  0  0  0  0  0  0  0
  160.1740  212.3470  151.8340 C   0  0  0  0  0  3  0  0  0  0  0  0
  161.6090  211.9070  149.4530 C   0  0  0  0  0  0  0  0  0  0  0  0
  162.3450  209.6440  150.5180 C   0  0  1  0  0  0  0  0  0  0  0  0
  159.1220  210.1610  154.0260 C   0  0  0  0  0  2  0  0  0  0  0  0
  161.2480  210.1150  152.6260 C   0  0  1  0  0  0  0  0  0  0  0  0
  160.8340  213.0820  149.6110 C   0  0  0  0  0  0  0  0  0  0  0  0
  160.1110  213.2880  150.7970 C   0  0  0  0  0  3  0  0  0  0  0  0
  162.3300  211.7250  148.2660 C   0  0  0  0  0  3  0  0  0  0  0  0
  160.9700  211.4210  154.7880 C   0  0  0  0  0  2  0  0  0  0  0  0
  161.9480  210.6910  153.8660 C   0  0  0  0  0  2  0  0  0  0  0  0
  161.6090  208.3530  150.9430 C   0  0  2  0  0  0  0  0  0  0  0  0
  162.4420  207.1640  150.8720 N   0  0  0  0  0  2  0  0  0  0  0  0
  161.5620  206.0210  150.6850 C   0  0  0  0  0  2  0  0  0  0  0  0
  161.8400  204.9560  151.7340 C   0  0  1  0  0  3  0  0  0  0  0  0
  161.2480  205.3490  153.0790 C   0  0  0  0  0  1  0  0  0  0  0  0
  161.2520  203.3120  149.8970 N   0  0  0  0  0  2  0  0  0  0  0  0
  160.7620  202.0890  149.3340 C   0  0  0  0  0  0  0  0  0  0  0  0
  160.3950  201.1050  150.0850 N   0  0  0  0  0  2  0  0  0  0  0  0
  161.2920  203.6390  151.2950 C   0  0  0  0  0  0  0  0  0  0  0  0
  160.7080  201.9370  147.8590 C   0  0  0  0  0  1  0  0  0  0  0  0
  160.8510  202.8390  152.1630 O   0  0  0  0  0  0  0  0  0  0  0  0
  159.0200  211.2850  156.0650 C   0  0  0  0  0  2  0  0  0  0  0  0
  158.2280  212.3040  155.2610 C   0  0  1  0  0  3  0  0  0  0  0  0
  156.7870  212.3730  155.7740 C   0  0  0  0  0  3  0  0  0  0  0  0
  155.7510  212.3500  154.6610 C   0  0  0  0  0  2  0  0  0  0  0  0
  156.0860  211.0810  155.4060 C   0  0  0  0  0  2  0  0  0  0  0  0
  158.6170  213.9900  156.6360 C   0  0  0  0  0  1  0  0  0  0  0  0
  158.8700  213.5390  155.3420 O   0  0  0  0  0  0  0  0  0  0  0  0
  1 10  1  0  0  0  0
  1 14  1  0  0  0  0
  2  8  2  0  0  0  0
  2 17  1  0  0  0  0
  3 15  2  0  0  0  0
  4 12  1  0  0  0  0
  4 20  1  0  0  0  0
  5 13  1  0  0  0  0
  6 14  1  0  0  0  0
  7 31  1  0  0  0  0
  8  3  1  0  0  0  0
  9 12  1  0  0  0  0
  9  1  2  0  0  0  0
 11 15  1  0  0  0  0
 11  9  1  0  0  0  0
 12 20  1  0  0  0  0
 12  6  1  0  0  0  0
 13  7  1  0  0  0  0
 14  5  1  0  0  0  0
 14 19  1  0  0  0  0
 15 16  1  0  0  0  0
 16 10  2  0  0  0  0
 17 11  2  0  0  0  0
 18  7  1  0  0  0  0
 19 18  1  0  0  0  0
 20  6  1  0  0  0  0
 21 20  1  0  0  0  0
 22 21  1  0  0  0  0
 22 23  1  0  0  0  0
 23 24  1  0  0  0  0
 25 28  1  0  0  0  0
 26 25  1  0  0  0  0
 26 27  2  0  0  0  0
 28 23  1  0  0  0  0
 28 30  2  0  0  0  0
 29 26  1  0  0  0  0
 32 37  1  0  0  0  0
 32 33  1  0  0  0  0
 32 31  1  0  0  0  0
 34 35  1  0  0  0  0
 34 33  1  0  0  0  0
 35 33  1  0  0  0  0
 37 36  1  0  0  0  0
M  END
>  <MODEL>
5

>  <REMARK>
 VINA RESULT:      -6.5      2.978      8.800
  Name = 
  8 active torsions:
  status: ('A' for Active; 'I' for Inactive)
    1  A    between atoms: C_3  and  C_17
    2  A    between atoms: C_3  and  C_28
    3  A    between atoms: N_7  and  C_28
    4  A    between atoms: N_7  and  C_31
    5  A    between atoms: C_12  and  C_19
    6  A    between atoms: N_14  and  C_34
    7  A    between atoms: C_19  and  C_34
    8  A    between atoms: C_19  and  O_35
                            x       y       z     vdW  Elec       q    Type
                         _______ _______ _______ _____ _____    ______ ____

>  <TORSDO>
F 8

$$$$
=
 OpenBabel11042423093D

 37 43  0  0  1  0  0  0  0  0999 V2000
  161.2510  207.7340  152.0150 C   0  0  0  0  0  0  0  0  0  0  0  0
  160.9740  203.5460  149.6910 N   0  0  0  0  0  0  0  0  0  0  0  0
  161.1180  203.5570  152.0820 C   0  0  0  0  0  3  0  0  0  0  0  0
  162.5800  207.7100  149.0960 C   0  0  0  0  0  2  0  0  0  0  0  0
  162.4190  209.9500  152.2440 C   0  0  0  0  0  2  0  0  0  0  0  0
  161.0090  209.3040  150.2690 N   0  0  1  0  0  0  0  0  0  0  0  0
  161.2060  210.8040  154.1960 N   0  0  0  0  0  0  0  0  0  0  0  0
  161.0150  202.8650  150.8700 C   0  0  0  0  0  3  0  0  0  0  0  0
  161.2070  207.0470  150.8360 C   0  0  0  0  0  0  0  0  0  0  0  0
  161.2960  207.0750  153.2490 C   0  0  0  0  0  3  0  0  0  0  0  0
  161.1360  205.6430  150.8310 C   0  0  0  0  0  0  0  0  0  0  0  0
  161.2080  207.9660  149.6510 C   0  0  1  0  0  0  0  0  0  0  0  0
  162.4130  210.1040  153.7670 C   0  0  0  0  0  2  0  0  0  0  0  0
  161.1700  209.1900  151.7410 C   0  0  1  0  0  0  0  0  0  0  0  0
  161.1780  204.9520  152.0670 C   0  0  0  0  0  0  0  0  0  0  0  0
  161.2700  205.6730  153.2680 C   0  0  0  0  0  3  0  0  0  0  0  0
  161.0350  204.9050  149.6450 C   0  0  0  0  0  3  0  0  0  0  0  0
  160.0580  209.9500  153.8960 C   0  0  0  0  0  2  0  0  0  0  0  0
  159.9070  209.7840  152.3830 C   0  0  0  0  0  2  0  0  0  0  0  0
  162.2590  209.0940  149.5340 C   0  0  2  0  0  0  0  0  0  0  0  0
  162.1460  209.8630  148.3060 N   0  0  0  0  0  2  0  0  0  0  0  0
  162.3620  211.2620  148.6420 C   0  0  0  0  0  2  0  0  0  0  0  0
  161.2120  212.1160  148.1340 C   0  0  1  0  0  3  0  0  0  0  0  0
  160.9560  213.2930  149.0620 C   0  0  0  0  0  1  0  0  0  0  0  0
  160.4540  212.5960  145.7630 N   0  0  0  0  0  2  0  0  0  0  0  0
  160.5810  213.0360  144.4050 C   0  0  0  0  0  0  0  0  0  0  0  0
  161.6660  213.5910  143.9800 N   0  0  0  0  0  2  0  0  0  0  0  0
  161.4960  212.6020  146.7520 C   0  0  0  0  0  0  0  0  0  0  0  0
  159.4310  212.8850  143.4810 C   0  0  0  0  0  1  0  0  0  0  0  0
  162.6600  212.9930  146.4670 O   0  0  0  0  0  0  0  0  0  0  0  0
  161.2820  210.9000  155.6430 C   0  0  0  0  0  2  0  0  0  0  0  0
  160.4510  212.0640  156.1590 C   0  0  1  0  0  3  0  0  0  0  0  0
  159.7070  212.7330  155.0000 C   0  0  0  0  0  3  0  0  0  0  0  0
  158.2000  212.7850  155.2030 C   0  0  0  0  0  2  0  0  0  0  0  0
  159.0460  213.9930  155.5220 C   0  0  0  0  0  2  0  0  0  0  0  0
  159.8710  210.2370  157.2610 C   0  0  0  0  0  1  0  0  0  0  0  0
  159.5760  211.5940  157.1370 O   0  0  0  0  0  0  0  0  0  0  0  0
  1 10  1  0  0  0  0
  2  8  1  0  0  0  0
  4 20  1  0  0  0  0
  4 12  1  0  0  0  0
  5 13  1  0  0  0  0
  6 14  1  0  0  0  0
  7 31  1  0  0  0  0
  8  3  2  0  0  0  0
  9  1  2  0  0  0  0
 10 16  2  0  0  0  0
 11  9  1  0  0  0  0
 11 15  2  0  0  0  0
 12  6  1  0  0  0  0
 12  9  1  0  0  0  0
 13  7  1  0  0  0  0
 14  1  1  0  0  0  0
 14  5  1  0  0  0  0
 14 19  1  0  0  0  0
 15  3  1  0  0  0  0
 15 16  1  0  0  0  0
 17  2  2  0  0  0  0
 17 11  1  0  0  0  0
 18  7  1  0  0  0  0
 19 18  1  0  0  0  0
 20 12  1  0  0  0  0
 20  6  1  0  0  0  0
 21 22  1  0  0  0  0
 21 20  1  0  0  0  0
 23 22  1  0  0  0  0
 23 24  1  0  0  0  0
 25 28  1  0  0  0  0
 26 25  1  0  0  0  0
 27 26  2  0  0  0  0
 28 23  1  0  0  0  0
 29 26  1  0  0  0  0
 30 28  2  0  0  0  0
 31 32  1  0  0  0  0
 32 37  1  0  0  0  0
 33 34  1  0  0  0  0
 33 35  1  0  0  0  0
 33 32  1  0  0  0  0
 34 35  1  0  0  0  0
 37 36  1  0  0  0  0
M  END
>  <MODEL>
6

>  <REMARK>
 VINA RESULT:      -6.4      2.643      6.760
  Name = 
  8 active torsions:
  status: ('A' for Active; 'I' for Inactive)
    1  A    between atoms: C_3  and  C_17
    2  A    between atoms: C_3  and  C_28
    3  A    between atoms: N_7  and  C_28
    4  A    between atoms: N_7  and  C_31
    5  A    between atoms: C_12  and  C_19
    6  A    between atoms: N_14  and  C_34
    7  A    between atoms: C_19  and  C_34
    8  A    between atoms: C_19  and  O_35
                            x       y       z     vdW  Elec       q    Type
                         _______ _______ _______ _____ _____    ______ ____

>  <TORSDO>
F 8

$$$$
=
 OpenBabel11042423093D

 37 43  0  0  1  0  0  0  0  0999 V2000
  161.3690  207.7720  151.7990 C   0  0  0  0  0  0  0  0  0  0  0  0
  160.8620  203.8370  149.1020 N   0  0  0  0  0  0  0  0  0  0  0  0
  161.2050  203.6090  151.4610 C   0  0  0  0  0  3  0  0  0  0  0  0
  162.4480  208.0390  148.7910 C   0  0  0  0  0  2  0  0  0  0  0  0
  162.5710  209.9540  152.1490 C   0  0  0  0  0  2  0  0  0  0  0  0
  160.9950  209.5080  150.2440 N   0  0  1  0  0  0  0  0  0  0  0  0
  161.5320  210.6090  154.2700 N   0  0  0  0  0  0  0  0  0  0  0  0
  160.9950  203.0410  150.2000 C   0  0  0  0  0  3  0  0  0  0  0  0
  161.2200  207.2060  150.5650 C   0  0  0  0  0  0  0  0  0  0  0  0
  161.5110  206.9930  152.9540 C   0  0  0  0  0  3  0  0  0  0  0  0
  161.1370  205.8090  150.4270 C   0  0  0  0  0  0  0  0  0  0  0  0
  161.1300  208.2390  149.4820 C   0  0  1  0  0  0  0  0  0  0  0  0
  162.6930  209.9550  153.6740 C   0  0  0  0  0  2  0  0  0  0  0  0
  161.2780  209.2480  151.6790 C   0  0  1  0  0  0  0  0  0  0  0  0
  161.2750  204.9990  151.5800 C   0  0  0  0  0  0  0  0  0  0  0  0
  161.4740  205.5960  152.8350 C   0  0  0  0  0  3  0  0  0  0  0  0
  160.9300  205.1940  149.1860 C   0  0  0  0  0  3  0  0  0  0  0  0
  160.3560  209.7890  153.9850 C   0  0  0  0  0  2  0  0  0  0  0  0
  160.0780  209.7750  152.4810 C   0  0  0  0  0  2  0  0  0  0  0  0
  162.1780  209.3730  149.3900 C   0  0  2  0  0  0  0  0  0  0  0  0
  161.9690  210.2600  148.2580 N   0  0  0  0  0  2  0  0  0  0  0  0
  162.4110  211.5890  148.6540 C   0  0  0  0  0  2  0  0  0  0  0  0
  161.4830  212.6510  148.0870 C   0  0  1  0  0  3  0  0  0  0  0  0
  160.8900  212.2030  146.7590 C   0  0  0  0  0  1  0  0  0  0  0  0
  159.0900  213.3250  148.5780 N   0  0  0  0  0  2  0  0  0  0  0  0
  157.9530  213.6430  149.3910 C   0  0  0  0  0  0  0  0  0  0  0  0
  157.9930  213.5200  150.6750 N   0  0  0  0  0  2  0  0  0  0  0  0
  160.3940  212.9610  149.0580 C   0  0  0  0  0  0  0  0  0  0  0  0
  156.6950  214.0850  148.7410 C   0  0  0  0  0  1  0  0  0  0  0  0
  160.6430  212.9190  150.2930 O   0  0  0  0  0  0  0  0  0  0  0  0
  161.7300  210.5600  155.7090 C   0  0  0  0  0  2  0  0  0  0  0  0
  160.7960  211.5240  156.4230 C   0  0  1  0  0  3  0  0  0  0  0  0
  160.0780  212.4130  155.4030 C   0  0  0  0  0  3  0  0  0  0  0  0
  158.5860  212.5430  155.6660 C   0  0  0  0  0  2  0  0  0  0  0  0
  159.5310  213.6250  156.1300 C   0  0  0  0  0  2  0  0  0  0  0  0
  160.4430  209.5080  157.2600 C   0  0  0  0  0  1  0  0  0  0  0  0
  159.8980  210.7900  157.1970 O   0  0  0  0  0  0  0  0  0  0  0  0
  1 10  1  0  0  0  0
  2 17  2  0  0  0  0
  2  8  1  0  0  0  0
  3 15  1  0  0  0  0
  4 20  1  0  0  0  0
  4 12  1  0  0  0  0
  5 13  1  0  0  0  0
  6 14  1  0  0  0  0
  7 31  1  0  0  0  0
  8  3  2  0  0  0  0
  9  1  2  0  0  0  0
 11  9  1  0  0  0  0
 11 15  2  0  0  0  0
 12  6  1  0  0  0  0
 12  9  1  0  0  0  0
 13  7  1  0  0  0  0
 14  1  1  0  0  0  0
 14  5  1  0  0  0  0
 14 19  1  0  0  0  0
 15 16  1  0  0  0  0
 16 10  2  0  0  0  0
 17 11  1  0  0  0  0
 18  7  1  0  0  0  0
 19 18  1  0  0  0  0
 20 12  1  0  0  0  0
 20  6  1  0  0  0  0
 21 22  1  0  0  0  0
 21 20  1  0  0  0  0
 23 22  1  0  0  0  0
 23 28  1  0  0  0  0
 24 23  1  0  0  0  0
 25 28  1  0  0  0  0
 25 26  1  0  0  0  0
 26 27  2  0  0  0  0
 28 30  2  0  0  0  0
 29 26  1  0  0  0  0
 31 32  1  0  0  0  0
 32 37  1  0  0  0  0
 33 34  1  0  0  0  0
 33 35  1  0  0  0  0
 33 32  1  0  0  0  0
 34 35  1  0  0  0  0
 37 36  1  0  0  0  0
M  END
>  <MODEL>
7

>  <REMARK>
 VINA RESULT:      -6.1      2.751      6.836
  Name = 
  8 active torsions:
  status: ('A' for Active; 'I' for Inactive)
    1  A    between atoms: C_3  and  C_17
    2  A    between atoms: C_3  and  C_28
    3  A    between atoms: N_7  and  C_28
    4  A    between atoms: N_7  and  C_31
    5  A    between atoms: C_12  and  C_19
    6  A    between atoms: N_14  and  C_34
    7  A    between atoms: C_19  and  C_34
    8  A    between atoms: C_19  and  O_35
                            x       y       z     vdW  Elec       q    Type
                         _______ _______ _______ _____ _____    ______ ____

>  <TORSDO>
F 8

$$$$
=
 OpenBabel11042423093D

 37 43  0  0  1  0  0  0  0  0999 V2000
  161.3930  207.8600  152.2820 C   0  0  0  0  0  0  0  0  0  0  0  0
  161.4400  210.9750  155.9320 N   0  0  0  0  0  0  0  0  0  0  0  0
  160.5060  208.7940  156.2580 C   0  0  0  0  0  3  0  0  0  0  0  0
  161.1610  210.9450  151.4380 C   0  0  0  0  0  2  0  0  0  0  0  0
  160.7750  207.4250  149.8830 C   0  0  0  0  0  2  0  0  0  0  0  0
  162.5740  209.0250  150.6020 N   0  0  1  0  0  0  0  0  0  0  0  0
  161.4260  205.0650  149.7590 N   0  0  0  0  0  0  0  0  0  0  0  0
  160.8440  210.0600  156.7470 C   0  0  0  0  0  3  0  0  0  0  0  0
  161.6690  209.1120  152.7540 C   0  0  0  0  0  0  0  0  0  0  0  0
  160.7810  206.8900  153.0850 C   0  0  0  0  0  3  0  0  0  0  0  0
  161.4030  209.4430  154.0930 C   0  0  0  0  0  0  0  0  0  0  0  0
  162.2850  209.9840  151.7000 C   0  0  1  0  0  0  0  0  0  0  0  0
  160.3040  205.9730  149.9830 C   0  0  0  0  0  2  0  0  0  0  0  0
  161.9040  207.7310  150.8950 C   0  0  1  0  0  0  0  0  0  0  0  0
  160.7860  208.4790  154.9270 C   0  0  0  0  0  0  0  0  0  0  0  0
  160.4680  207.2120  154.4130 C   0  0  0  0  0  3  0  0  0  0  0  0
  161.7210  210.6980  154.6280 C   0  0  0  0  0  3  0  0  0  0  0  0
  162.3710  205.2340  150.8610 C   0  0  0  0  0  2  0  0  0  0  0  0
  162.9790  206.6360  150.8210 C   0  0  0  0  0  2  0  0  0  0  0  0
  161.6320  210.1070  150.3040 C   0  0  2  0  0  0  0  0  0  0  0  0
  162.3310  211.0250  149.4200 N   0  0  0  0  0  2  0  0  0  0  0  0
  161.4700  212.1820  149.2190 C   0  0  0  0  0  2  0  0  0  0  0  0
  160.8960  212.1810  147.8120 C   0  0  1  0  0  3  0  0  0  0  0  0
  159.5080  212.8020  147.7900 C   0  0  0  0  0  1  0  0  0  0  0  0
  161.7010  212.6970  145.4640 N   0  0  0  0  0  2  0  0  0  0  0  0
  162.4990  213.3320  144.4570 C   0  0  0  0  0  0  0  0  0  0  0  0
  163.3380  214.2650  144.7570 N   0  0  0  0  0  2  0  0  0  0  0  0
  161.8030  212.9140  146.8810 C   0  0  0  0  0  0  0  0  0  0  0  0
  162.3290  212.9350  143.0380 C   0  0  0  0  0  1  0  0  0  0  0  0
  162.6640  213.7020  147.3570 O   0  0  0  0  0  0  0  0  0  0  0  0
  160.8910  203.7190  149.8770 C   0  0  0  0  0  2  0  0  0  0  0  0
  160.8590  203.0230  148.5250 C   0  0  1  0  0  3  0  0  0  0  0  0
  161.8930  203.6510  147.5860 C   0  0  0  0  0  3  0  0  0  0  0  0
  161.5810  203.4280  146.1140 C   0  0  0  0  0  2  0  0  0  0  0  0
  161.2060  204.7310  146.7750 C   0  0  0  0  0  2  0  0  0  0  0  0
  160.8310  201.4390  150.0670 C   0  0  0  0  0  1  0  0  0  0  0  0
  161.0890  201.6610  148.7150 O   0  0  0  0  0  0  0  0  0  0  0  0
  1  9  2  0  0  0  0
  1 10  1  0  0  0  0
  2  8  1  0  0  0  0
  3  8  2  0  0  0  0
  4 12  1  0  0  0  0
  5 13  1  0  0  0  0
  5 14  1  0  0  0  0
  6 14  1  0  0  0  0
  6 12  1  0  0  0  0
  7 31  1  0  0  0  0
  7 13  1  0  0  0  0
  7 18  1  0  0  0  0
  9 11  1  0  0  0  0
 10 16  2  0  0  0  0
 11 17  1  0  0  0  0
 11 15  2  0  0  0  0
 12  9  1  0  0  0  0
 14  1  1  0  0  0  0
 15  3  1  0  0  0  0
 16 15  1  0  0  0  0
 17  2  2  0  0  0  0
 19 18  1  0  0  0  0
 19 14  1  0  0  0  0
 20  6  1  0  0  0  0
 20  4  1  0  0  0  0
 20 12  1  0  0  0  0
 21 20  1  0  0  0  0
 22 21  1  0  0  0  0
 23 22  1  0  0  0  0
 24 23  1  0  0  0  0
 25 28  1  0  0  0  0
 26 27  2  0  0  0  0
 26 25  1  0  0  0  0
 28 30  2  0  0  0  0
 28 23  1  0  0  0  0
 29 26  1  0  0  0  0
 32 37  1  0  0  0  0
 32 31  1  0  0  0  0
 33 32  1  0  0  0  0
 34 35  1  0  0  0  0
 34 33  1  0  0  0  0
 35 33  1  0  0  0  0
 37 36  1  0  0  0  0
M  END
>  <MODEL>
8

>  <REMARK>
 VINA RESULT:      -6.1      1.507      2.222
  Name = 
  8 active torsions:
  status: ('A' for Active; 'I' for Inactive)
    1  A    between atoms: C_3  and  C_17
    2  A    between atoms: C_3  and  C_28
    3  A    between atoms: N_7  and  C_28
    4  A    between atoms: N_7  and  C_31
    5  A    between atoms: C_12  and  C_19
    6  A    between atoms: N_14  and  C_34
    7  A    between atoms: C_19  and  C_34
    8  A    between atoms: C_19  and  O_35
                            x       y       z     vdW  Elec       q    Type
                         _______ _______ _______ _____ _____    ______ ____

>  <TORSDO>
F 8

$$$$
=
 OpenBabel11042423093D

 37 43  0  0  1  0  0  0  0  0999 V2000
  161.1960  207.6380  151.3300 C   0  0  0  0  0  0  0  0  0  0  0  0
  161.3470  202.8430  151.3890 N   0  0  0  0  0  0  0  0  0  0  0  0
  160.7670  203.9760  149.3610 C   0  0  0  0  0  3  0  0  0  0  0  0
  160.4380  206.2900  154.1400 C   0  0  0  0  0  2  0  0  0  0  0  0
  160.3060  209.7370  152.3920 C   0  0  0  0  0  2  0  0  0  0  0  0
  161.9600  208.2000  153.4920 N   0  0  1  0  0  0  0  0  0  0  0  0
  161.2390  211.3690  150.8180 N   0  0  0  0  0  0  0  0  0  0  0  0
  161.0010  202.7950  150.0730 C   0  0  0  0  0  3  0  0  0  0  0  0
  161.3670  206.4780  152.0290 C   0  0  0  0  0  0  0  0  0  0  0  0
  160.8380  207.6350  149.9760 C   0  0  0  0  0  3  0  0  0  0  0  0
  161.2530  205.2340  151.3850 C   0  0  0  0  0  0  0  0  0  0  0  0
  161.7050  206.7350  153.4680 C   0  0  1  0  0  0  0  0  0  0  0  0
  160.0510  210.5860  151.1440 C   0  0  0  0  0  2  0  0  0  0  0  0
  161.5160  208.7930  152.2040 C   0  0  1  0  0  0  0  0  0  0  0  0
  160.8940  205.2030  150.0150 C   0  0  0  0  0  0  0  0  0  0  0  0
  160.6780  206.4050  149.3230 C   0  0  0  0  0  3  0  0  0  0  0  0
  161.4740  204.0240  152.0550 C   0  0  0  0  0  3  0  0  0  0  0  0
  162.3010  210.4400  150.4350 C   0  0  0  0  0  2  0  0  0  0  0  0
  162.7060  209.5810  151.6340 C   0  0  0  0  0  2  0  0  0  0  0  0
  160.8500  207.7080  154.3130 C   0  0  2  0  0  0  0  0  0  0  0  0
  161.2880  207.8080  155.6950 N   0  0  0  0  0  2  0  0  0  0  0  0
  160.2830  208.5730  156.4190 C   0  0  0  0  0  2  0  0  0  0  0  0
  160.7890  209.9760  156.7120 C   0  0  1  0  0  3  0  0  0  0  0  0
  162.2980  210.0570  156.5440 C   0  0  0  0  0  1  0  0  0  0  0  0
  158.6940  210.9140  155.6370 N   0  0  0  0  0  2  0  0  0  0  0  0
  157.9180  211.7990  154.8190 C   0  0  0  0  0  0  0  0  0  0  0  0
  158.4560  212.8190  154.2400 N   0  0  0  0  0  2  0  0  0  0  0  0
  160.1180  210.9660  155.8200 C   0  0  0  0  0  0  0  0  0  0  0  0
  156.4630  211.5580  154.6650 C   0  0  0  0  0  1  0  0  0  0  0  0
  160.8190  211.8260  155.2220 O   0  0  0  0  0  0  0  0  0  0  0  0
  160.9100  212.1330  149.6280 C   0  0  0  0  0  2  0  0  0  0  0  0
  161.1240  213.6210  149.8560 C   0  0  1  0  0  3  0  0  0  0  0  0
  161.2650  214.3440  148.5130 C   0  0  0  0  0  3  0  0  0  0  0  0
  162.7060  214.4530  148.0390 C   0  0  0  0  0  2  0  0  0  0  0  0
  161.8150  213.3620  147.4990 C   0  0  0  0  0  2  0  0  0  0  0  0
  158.9270  213.8660  149.8350 C   0  0  0  0  0  1  0  0  0  0  0  0
  160.0610  214.1200  150.6060 O   0  0  0  0  0  0  0  0  0  0  0  0
  1  9  1  0  0  0  0
  1 14  1  0  0  0  0
  2 17  2  0  0  0  0
  3 15  1  0  0  0  0
  3  8  2  0  0  0  0
  4 20  1  0  0  0  0
  6 20  1  0  0  0  0
  7 13  1  0  0  0  0
  8  2  1  0  0  0  0
  9 12  1  0  0  0  0
 10  1  2  0  0  0  0
 11  9  2  0  0  0  0
 11 17  1  0  0  0  0
 12  6  1  0  0  0  0
 12  4  1  0  0  0  0
 12 20  1  0  0  0  0
 13  5  1  0  0  0  0
 14  5  1  0  0  0  0
 14  6  1  0  0  0  0
 15 11  1  0  0  0  0
 16 10  1  0  0  0  0
 16 15  2  0  0  0  0
 18  7  1  0  0  0  0
 18 19  1  0  0  0  0
 19 14  1  0  0  0  0
 20 21  1  0  0  0  0
 21 22  1  0  0  0  0
 22 23  1  0  0  0  0
 24 23  1  0  0  0  0
 25 28  1  0  0  0  0
 26 25  1  0  0  0  0
 27 26  2  0  0  0  0
 28 23  1  0  0  0  0
 29 26  1  0  0  0  0
 30 28  2  0  0  0  0
 31 32  1  0  0  0  0
 31  7  1  0  0  0  0
 32 37  1  0  0  0  0
 33 32  1  0  0  0  0
 34 33  1  0  0  0  0
 35 34  1  0  0  0  0
 35 33  1  0  0  0  0
 36 37  1  0  0  0  0
M  END
>  <MODEL>
9

>  <REMARK>
 VINA RESULT:      -5.6      2.893      7.859
  Name = 
  8 active torsions:
  status: ('A' for Active; 'I' for Inactive)
    1  A    between atoms: C_3  and  C_17
    2  A    between atoms: C_3  and  C_28
    3  A    between atoms: N_7  and  C_28
    4  A    between atoms: N_7  and  C_31
    5  A    between atoms: C_12  and  C_19
    6  A    between atoms: N_14  and  C_34
    7  A    between atoms: C_19  and  C_34
    8  A    between atoms: C_19  and  O_35
                            x       y       z     vdW  Elec       q    Type
                         _______ _______ _______ _____ _____    ______ ____

>  <TORSDO>
F 8

$$$$
