=
 OpenBabel11042420543D

 64 69  0  0  1  0  0  0  0  0999 V2000
  157.7760  214.1180  147.7310 C   0  0  0  0  0  3  0  0  0  0  0  0
  157.2650  213.7070  150.1570 C   0  0  0  0  0  0  0  0  0  0  0  0
  159.0560  212.7130  143.6530 C   0  0  0  0  0  3  0  0  0  0  0  0
  159.7960  212.9750  148.5660 C   0  0  0  0  0  0  0  0  0  0  0  0
  161.9100  212.8250  144.1600 C   0  0  0  0  0  3  0  0  0  0  0  0
  161.3990  212.7150  142.8440 C   0  0  0  0  0  3  0  0  0  0  0  0
  159.3800  212.8930  146.3550 C   0  0  0  0  0  0  0  0  0  0  0  0
  161.0870  213.0390  147.9030 N   0  0  0  0  0  0  0  0  0  0  0  0
  157.1730  214.4480  148.8730 C   0  0  0  0  0  3  0  0  0  0  0  0
  159.6100  212.8180  144.9130 C   0  0  0  0  0  0  0  0  0  0  0  0
  159.6670  213.0280  149.8890 C   0  0  0  0  0  3  0  0  0  0  0  0
  160.6510  212.9630  146.5740 C   0  0  0  0  0  0  0  0  0  0  0  0
  160.9440  212.8710  145.1480 C   0  0  0  0  0  0  0  0  0  0  0  0
  159.9950  212.6570  142.5830 C   0  0  0  0  0  0  0  0  0  0  0  0
  158.3870  213.0950  150.6310 C   0  0  0  0  0  0  0  0  0  0  0  0
  156.1070  213.7060  150.9250 O   0  0  0  0  0  1  0  0  0  0  0  0
  158.5990  212.8860  147.6060 C   0  0  2  0  0  3  0  0  0  0  0  0
  162.3610  212.5560  148.4300 C   0  0  0  0  0  2  0  0  0  0  0  0
  162.1360  211.6920  149.6620 C   0  0  0  0  0  2  0  0  0  0  0  0
  162.2810  209.3270  150.2530 C   0  0  0  0  0  3  0  0  0  0  0  0
  162.1850  210.2480  149.2960 C   0  0  0  0  0  3  0  0  0  0  0  0
  162.3410  207.8680  149.9280 C   0  0  2  0  0  3  0  0  0  0  0  0
  161.0730  207.4390  149.2080 C   0  0  0  0  0  1  0  0  0  0  0  0
  162.4670  207.1360  151.1130 O   0  0  0  0  0  0  0  0  0  0  0  0
  161.2760  206.4020  151.2260 C   0  0  1  0  0  3  0  0  0  0  0  0
  160.9940  203.8470  151.8180 C   0  0  2  0  0  3  0  0  0  0  0  0
  161.8600  204.5780  149.6110 O   0  0  0  0  0  1  0  0  0  0  0  0
  161.5030  204.9190  150.9170 C   0  0  1  0  0  0  0  0  0  0  0  0
  162.3360  204.2830  151.8560 O   0  0  0  0  0  0  0  0  0  0  0  0
  160.9190  202.4880  151.1390 C   0  0  0  0  0  2  0  0  0  0  0  0
  160.1070  202.5790  149.9980 O   0  0  0  0  0  0  0  0  0  0  0  0
  160.4250  201.4560  149.2240 C   0  0  0  0  0  2  0  0  0  0  0  0
  161.2590  201.8430  148.0110 C   0  0  0  0  0  2  0  0  0  0  0  0
  160.6140  201.4100  146.7860 N   0  0  0  0  0  2  0  0  0  0  0  0
  160.3740  202.6110  146.0120 C   0  0  0  0  0  2  0  0  0  0  0  0
  161.6750  203.1180  145.3990 C   0  0  0  0  0  2  0  0  0  0  0  0
  161.5870  204.5710  145.0430 C   0  0  0  0  0  0  0  0  0  0  0  0
  162.2900  205.5240  145.7740 O   0  0  0  0  0  1  0  0  0  0  0  0
  160.8360  204.9400  144.1020 O   0  0  0  0  0  0  0  0  0  0  0  0
  160.6520  206.6050  152.6060 C   0  0  0  0  0  2  0  0  0  0  0  0
  160.7620  207.9540  154.5760 O   0  0  0  0  0  1  0  0  0  0  0  0
  161.0940  207.9240  153.2210 C   0  0  0  0  0  2  0  0  0  0  0  0
  158.4340  212.5080  151.9070 O   0  0  0  0  0  0  0  0  0  0  0  0
  159.5070  212.6320  152.8360 C   0  0  0  0  0  2  0  0  0  0  0  0
  158.0760  211.6400  154.4630 O   0  0  0  0  0  1  0  0  0  0  0  0
  158.9560  212.7010  154.2490 C   0  0  0  0  0  2  0  0  0  0  0  0
  159.5530  212.5500  141.2260 N   0  0  0  0  0  2  0  0  0  0  0  0
  160.1140  213.3260  140.1310 C   0  0  0  0  0  2  0  0  0  0  0  0
  162.2020  212.2980  139.2380 C   0  0  0  0  0  3  0  0  0  0  0  0
  160.8120  212.4300  139.1630 C   0  0  0  0  0  0  0  0  0  0  0  0
  162.1990  210.7830  137.4130 C   0  0  0  0  0  3  0  0  0  0  0  0
  160.1020  211.7140  138.1840 C   0  0  0  0  0  0  0  0  0  0  0  0
  160.8100  210.8840  137.3040 C   0  0  0  0  0  3  0  0  0  0  0  0
  162.8610  211.4880  138.3690 N   0  0  0  0  0  0  0  0  0  0  0  0
  157.7300  210.8430  137.7170 C   0  0  0  0  0  0  0  0  0  0  0  0
  158.0860  209.6370  137.6290 O   0  0  0  0  0  0  0  0  0  0  0  0
  158.6770  211.8620  138.0850 N   0  0  0  0  0  2  0  0  0  0  0  0
  156.0140  212.5890  137.2610 C   0  0  0  0  0  1  0  0  0  0  0  0
  156.3610  211.1930  137.4850 N   0  0  0  0  0  0  0  0  0  0  0  0
  155.4510  210.2200  137.1840 O   0  0  0  0  0  0  0  0  0  0  0  0
  154.7160  211.1290  139.3440 C   0  0  0  0  0  1  0  0  0  0  0  0
  154.9690  208.7220  138.9530 C   0  0  0  0  0  1  0  0  0  0  0  0
  154.5860  210.0290  138.2930 C   0  0  0  0  0  0  0  0  0  0  0  0
  153.1320  209.9070  137.8500 C   0  0  0  0  0  1  0  0  0  0  0  0
  1  9  2  0  0  0  0
  2 15  2  0  0  0  0
  2 16  1  0  0  0  0
  3 10  1  0  0  0  0
  4 11  2  0  0  0  0
  5 13  1  0  0  0  0
  6  5  2  0  0  0  0
  7 12  2  0  0  0  0
  7 17  1  0  0  0  0
  8 18  1  0  0  0  0
  8  4  1  0  0  0  0
  9  2  1  0  0  0  0
 10 13  2  0  0  0  0
 10  7  1  0  0  0  0
 11 15  1  0  0  0  0
 12  8  1  0  0  0  0
 13 12  1  0  0  0  0
 14  6  1  0  0  0  0
 14  3  2  0  0  0  0
 15 43  1  0  0  0  0
 17  1  1  6  0  0  0
 17  4  1  0  0  0  0
 18 19  1  0  0  0  0
 21 19  1  0  0  0  0
 21 20  2  0  0  0  0
 22 23  1  1  0  0  0
 22 20  1  0  0  0  0
 22 24  1  0  0  0  0
 24 25  1  0  0  0  0
 25 40  1  1  0  0  0
 26 30  1  6  0  0  0
 26 29  1  0  0  0  0
 28 27  1  6  0  0  0
 28 25  1  0  0  0  0
 28 26  1  0  0  0  0
 28 29  1  0  0  0  0
 31 30  1  0  0  0  0
 32 31  1  0  0  0  0
 33 32  1  0  0  0  0
 34 33  1  0  0  0  0
 35 34  1  0  0  0  0
 36 35  1  0  0  0  0
 37 36  1  0  0  0  0
 37 38  1  0  0  0  0
 39 37  2  0  0  0  0
 40 42  1  0  0  0  0
 42 41  1  0  0  0  0
 43 44  1  0  0  0  0
 44 46  1  0  0  0  0
 46 45  1  0  0  0  0
 47 14  1  0  0  0  0
 48 47  1  0  0  0  0
 50 49  1  0  0  0  0
 50 48  1  0  0  0  0
 51 54  1  0  0  0  0
 52 50  2  0  0  0  0
 53 51  2  0  0  0  0
 53 52  1  0  0  0  0
 54 49  2  0  0  0  0
 55 57  1  0  0  0  0
 56 55  2  0  0  0  0
 57 52  1  0  0  0  0
 58 59  1  0  0  0  0
 59 55  1  0  0  0  0
 60 59  1  0  0  0  0
 60 63  1  0  0  0  0
 63 62  1  0  0  0  0
 63 61  1  0  0  0  0
 64 63  1  0  0  0  0
M  END
>  <MODEL>
1

>  <REMARK>
 VINA RESULT:      -5.8      0.000      0.000
  Name = 
  26 active torsions:
  status: ('A' for Active; 'I' for Inactive)
    1  A    between atoms: O_2  and  C_5
    2  A    between atoms: O_2  and  C_12
    3  A    between atoms: C_5  and  C_23
    4  A    between atoms: C_9  and  C_31
    5  A    between atoms: C_12  and  C_36
    6  A    between atoms: C_12  and  C_51
    7  A    between atoms: N_16  and  C_18
    8  A    between atoms: N_16  and  C_44
    9  A    between atoms: O_17  and  C_45
   10  A    between atoms: O_17  and  C_57
   11  A    between atoms: C_18  and  C_34
   12  A    between atoms: O_20  and  C_48
   13  A    between atoms: O_20  and  C_54
   14  A    between atoms: N_21  and  C_50
   15  A    between atoms: N_22  and  C_41
   16  A    between atoms: C_24  and  C_48
   17  A    between atoms: C_26  and  C_61
   18  A    between atoms: C_27  and  C_36
   19  A    between atoms: C_31  and  C_38
   20  A    between atoms: C_38  and  N_53
   21  A    between atoms: C_41  and  C_61
   22  A    between atoms: C_45  and  C_49
   23  A    between atoms: C_46  and  O_55
   24  A    between atoms: C_52  and  N_53
   25  A    between atoms: C_52  and  C_54
   26  A    between atoms: O_55  and  N_58
                            x       y       z     vdW  Elec       q    Type
                         _______ _______ _______ _____ _____    ______ ____

>  <TORSDO>
F 26

$$$$
=
 OpenBabel11042420543D

 64 69  0  0  1  0  0  0  0  0999 V2000
  161.3170  203.7680  150.3360 C   0  0  0  0  0  3  0  0  0  0  0  0
  161.1170  202.6040  148.1180 C   0  0  0  0  0  0  0  0  0  0  0  0
  160.0920  206.9520  153.2710 C   0  0  0  0  0  3  0  0  0  0  0  0
  161.5110  205.6000  148.6970 C   0  0  0  0  0  0  0  0  0  0  0  0
  161.7150  209.0710  152.1350 C   0  0  0  0  0  3  0  0  0  0  0  0
  161.1430  209.1900  153.4260 C   0  0  0  0  0  3  0  0  0  0  0  0
  160.8610  206.1250  150.7870 C   0  0  0  0  0  0  0  0  0  0  0  0
  162.1080  206.8900  149.0010 N   0  0  0  0  0  0  0  0  0  0  0  0
  161.4820  202.7010  149.5540 C   0  0  0  0  0  3  0  0  0  0  0  0
  160.6730  206.8900  152.0200 C   0  0  0  0  0  0  0  0  0  0  0  0
  161.7120  204.9740  147.5410 C   0  0  0  0  0  3  0  0  0  0  0  0
  161.6000  207.0630  150.2950 C   0  0  0  0  0  0  0  0  0  0  0  0
  161.4310  207.8810  151.4910 C   0  0  0  0  0  0  0  0  0  0  0  0
  160.3400  208.1540  153.9930 C   0  0  0  0  0  0  0  0  0  0  0  0
  161.2450  203.6080  147.2060 C   0  0  0  0  0  0  0  0  0  0  0  0
  160.6590  201.3580  147.7060 O   0  0  0  0  0  1  0  0  0  0  0  0
  160.6690  205.0120  149.8400 C   0  0  2  0  0  3  0  0  0  0  0  0
  162.4320  207.9460  148.0450 C   0  0  0  0  0  2  0  0  0  0  0  0
  162.3440  209.3130  148.7090 C   0  0  0  0  0  2  0  0  0  0  0  0
  161.1430  211.2760  147.8940 C   0  0  0  0  0  3  0  0  0  0  0  0
  162.0950  210.3680  147.6860 C   0  0  0  0  0  3  0  0  0  0  0  0
  160.8560  212.3480  146.8900 C   0  0  2  0  0  3  0  0  0  0  0  0
  159.5420  213.0380  147.2200 C   0  0  0  0  0  1  0  0  0  0  0  0
  160.7690  211.7760  145.6160 O   0  0  0  0  0  0  0  0  0  0  0  0
  161.7300  212.4450  144.8410 C   0  0  1  0  0  3  0  0  0  0  0  0
  160.2090  212.8620  142.7270 C   0  0  2  0  0  3  0  0  0  0  0  0
  162.5090  211.9560  142.5110 O   0  0  0  0  0  1  0  0  0  0  0  0
  161.4420  212.2960  143.3450 C   0  0  1  0  0  0  0  0  0  0  0  0
  160.3130  211.4990  143.0790 O   0  0  0  0  0  0  0  0  0  0  0  0
  160.3170  213.0070  141.2160 C   0  0  0  0  0  2  0  0  0  0  0  0
  160.1690  214.3580  140.8640 O   0  0  0  0  0  0  0  0  0  0  0  0
  159.7200  214.3500  139.5380 C   0  0  0  0  0  2  0  0  0  0  0  0
  158.6760  213.2630  139.3190 C   0  0  0  0  0  2  0  0  0  0  0  0
  157.3770  213.8480  139.0510 N   0  0  0  0  0  2  0  0  0  0  0  0
  156.4800  213.3120  140.0560 C   0  0  0  0  0  2  0  0  0  0  0  0
  155.7330  212.1010  139.5100 C   0  0  0  0  0  2  0  0  0  0  0  0
  154.4080  212.4870  138.9240 C   0  0  0  0  0  0  0  0  0  0  0  0
  153.7160  211.6080  138.0960 O   0  0  0  0  0  0  0  0  0  0  0  0
  153.9370  213.6330  139.1460 O   0  0  0  0  0  1  0  0  0  0  0  0
  161.8250  213.9120  145.2580 C   0  0  0  0  0  2  0  0  0  0  0  0
  164.0980  214.3780  144.6860 O   0  0  0  0  0  1  0  0  0  0  0  0
  163.2200  214.2510  145.7620 C   0  0  0  0  0  2  0  0  0  0  0  0
  160.9860  203.4120  145.8380 O   0  0  0  0  0  0  0  0  0  0  0  0
  160.1380  204.2250  145.0320 C   0  0  0  0  0  2  0  0  0  0  0  0
  160.3060  206.6020  145.0430 O   0  0  0  0  0  1  0  0  0  0  0  0
  160.9040  205.4430  144.5490 C   0  0  0  0  0  2  0  0  0  0  0  0
  159.7990  208.3450  155.3040 N   0  0  0  0  0  2  0  0  0  0  0  0
  160.5780  208.2140  156.5250 C   0  0  0  0  0  2  0  0  0  0  0  0
  162.7470  209.3990  156.8540 C   0  0  0  0  0  3  0  0  0  0  0  0
  161.3520  209.4640  156.7850 C   0  0  0  0  0  0  0  0  0  0  0  0
  162.8780  211.7330  157.2560 C   0  0  0  0  0  3  0  0  0  0  0  0
  160.7080  210.7020  156.9550 C   0  0  0  0  0  0  0  0  0  0  0  0
  161.4870  211.8430  157.1920 C   0  0  0  0  0  3  0  0  0  0  0  0
  163.4730  210.5220  157.0880 N   0  0  0  0  0  0  0  0  0  0  0  0
  158.4660  211.0930  155.7620 C   0  0  0  0  0  0  0  0  0  0  0  0
  158.9790  211.1570  154.6120 O   0  0  0  0  0  0  0  0  0  0  0  0
  159.2750  210.7730  156.9080 N   0  0  0  0  0  2  0  0  0  0  0  0
  156.5240  211.5580  157.2480 C   0  0  0  0  0  1  0  0  0  0  0  0
  157.0590  211.3050  155.9190 N   0  0  0  0  0  0  0  0  0  0  0  0
  156.2820  211.5590  154.8250 O   0  0  0  0  0  0  0  0  0  0  0  0
  157.5930  213.5770  154.3330 C   0  0  0  0  0  1  0  0  0  0  0  0
  155.6820  213.5980  155.8690 C   0  0  0  0  0  1  0  0  0  0  0  0
  156.2230  212.9600  154.6070 C   0  0  0  0  0  0  0  0  0  0  0  0
  155.2630  213.3080  153.4730 C   0  0  0  0  0  1  0  0  0  0  0  0
  2  9  1  0  0  0  0
  3 14  1  0  0  0  0
  4  8  1  0  0  0  0
  4 17  1  0  0  0  0
  5  6  1  0  0  0  0
  6 14  2  0  0  0  0
  7 10  1  0  0  0  0
  8 12  1  0  0  0  0
  9  1  2  0  0  0  0
 10  3  2  0  0  0  0
 11  4  2  0  0  0  0
 12  7  2  0  0  0  0
 12 13  1  0  0  0  0
 13 10  1  0  0  0  0
 13  5  2  0  0  0  0
 14 47  1  0  0  0  0
 15 11  1  0  0  0  0
 15  2  2  0  0  0  0
 16  2  1  0  0  0  0
 17  1  1  1  0  0  0
 17  7  1  0  0  0  0
 18 19  1  0  0  0  0
 18  8  1  0  0  0  0
 21 20  2  0  0  0  0
 21 19  1  0  0  0  0
 22 23  1  1  0  0  0
 22 20  1  0  0  0  0
 24 22  1  0  0  0  0
 25 40  1  1  0  0  0
 25 24  1  0  0  0  0
 26 30  1  6  0  0  0
 26 29  1  0  0  0  0
 26 28  1  0  0  0  0
 28 27  1  6  0  0  0
 28 25  1  0  0  0  0
 29 28  1  0  0  0  0
 31 30  1  0  0  0  0
 32 31  1  0  0  0  0
 33 32  1  0  0  0  0
 34 33  1  0  0  0  0
 34 35  1  0  0  0  0
 36 35  1  0  0  0  0
 37 39  1  0  0  0  0
 37 36  1  0  0  0  0
 38 37  2  0  0  0  0
 40 42  1  0  0  0  0
 41 42  1  0  0  0  0
 43 15  1  0  0  0  0
 44 43  1  0  0  0  0
 46 44  1  0  0  0  0
 46 45  1  0  0  0  0
 47 48  1  0  0  0  0
 48 50  1  0  0  0  0
 49 54  1  0  0  0  0
 50 49  2  0  0  0  0
 50 52  1  0  0  0  0
 52 53  2  0  0  0  0
 53 51  1  0  0  0  0
 54 51  2  0  0  0  0
 55 59  1  0  0  0  0
 55 57  1  0  0  0  0
 56 55  2  0  0  0  0
 57 52  1  0  0  0  0
 59 58  1  0  0  0  0
 60 59  1  0  0  0  0
 61 63  1  0  0  0  0
 63 60  1  0  0  0  0
 63 62  1  0  0  0  0
 64 63  1  0  0  0  0
M  END
>  <MODEL>
2

>  <REMARK>
 VINA RESULT:      -3.5      3.790     13.129
  Name = 
  26 active torsions:
  status: ('A' for Active; 'I' for Inactive)
    1  A    between atoms: O_2  and  C_5
    2  A    between atoms: O_2  and  C_12
    3  A    between atoms: C_5  and  C_23
    4  A    between atoms: C_9  and  C_31
    5  A    between atoms: C_12  and  C_36
    6  A    between atoms: C_12  and  C_51
    7  A    between atoms: N_16  and  C_18
    8  A    between atoms: N_16  and  C_44
    9  A    between atoms: O_17  and  C_45
   10  A    between atoms: O_17  and  C_57
   11  A    between atoms: C_18  and  C_34
   12  A    between atoms: O_20  and  C_48
   13  A    between atoms: O_20  and  C_54
   14  A    between atoms: N_21  and  C_50
   15  A    between atoms: N_22  and  C_41
   16  A    between atoms: C_24  and  C_48
   17  A    between atoms: C_26  and  C_61
   18  A    between atoms: C_27  and  C_36
   19  A    between atoms: C_31  and  C_38
   20  A    between atoms: C_38  and  N_53
   21  A    between atoms: C_41  and  C_61
   22  A    between atoms: C_45  and  C_49
   23  A    between atoms: C_46  and  O_55
   24  A    between atoms: C_52  and  N_53
   25  A    between atoms: C_52  and  C_54
   26  A    between atoms: O_55  and  N_58
                            x       y       z     vdW  Elec       q    Type
                         _______ _______ _______ _____ _____    ______ ____

>  <TORSDO>
F 26

$$$$
=
 OpenBabel11042420543D

 64 69  0  0  1  0  0  0  0  0999 V2000
  160.5870  212.0070  153.9860 C   0  0  0  0  0  3  0  0  0  0  0  0
  159.6170  210.7140  155.9100 C   0  0  0  0  0  0  0  0  0  0  0  0
  160.7440  213.1120  149.6260 C   0  0  0  0  0  3  0  0  0  0  0  0
  160.6700  209.6660  153.2150 C   0  0  0  0  0  0  0  0  0  0  0  0
  162.3650  210.8580  148.7860 C   0  0  0  0  0  3  0  0  0  0  0  0
  162.1770  211.9840  147.9480 C   0  0  0  0  0  3  0  0  0  0  0  0
  160.6860  211.2880  151.6540 C   0  0  0  0  0  0  0  0  0  0  0  0
  161.5420  209.2010  152.1490 N   0  0  0  0  0  0  0  0  0  0  0  0
  160.3540  211.8440  155.2880 C   0  0  0  0  0  3  0  0  0  0  0  0
  160.9610  211.9890  150.4000 C   0  0  0  0  0  0  0  0  0  0  0  0
  160.4500  208.9590  154.3200 C   0  0  0  0  0  3  0  0  0  0  0  0
  161.4250  210.2950  151.2830 C   0  0  0  0  0  0  0  0  0  0  0  0
  161.7190  210.9370  150.0060 C   0  0  0  0  0  0  0  0  0  0  0  0
  161.3800  213.0980  148.3520 C   0  0  0  0  0  0  0  0  0  0  0  0
  159.6800  209.4160  155.4990 C   0  0  0  0  0  0  0  0  0  0  0  0
  158.8570  211.0450  157.0240 O   0  0  0  0  0  1  0  0  0  0  0  0
  160.0630  211.0560  152.9690 C   0  0  2  0  0  3  0  0  0  0  0  0
  161.7880  207.8120  151.7700 C   0  0  0  0  0  2  0  0  0  0  0  0
  160.7390  207.3370  150.7750 C   0  0  0  0  0  2  0  0  0  0  0  0
  161.2470  207.0640  148.4020 C   0  0  0  0  0  3  0  0  0  0  0  0
  161.3890  206.6120  149.6460 C   0  0  0  0  0  3  0  0  0  0  0  0
  161.8770  206.3620  147.2400 C   0  0  2  0  0  3  0  0  0  0  0  0
  163.2830  206.8900  147.0080 C   0  0  0  0  0  1  0  0  0  0  0  0
  161.1060  206.5830  146.0950 O   0  0  0  0  0  0  0  0  0  0  0  0
  161.3980  205.5110  145.2370 C   0  0  1  0  0  3  0  0  0  0  0  0
  161.8090  203.5600  146.9640 C   0  0  2  0  0  3  0  0  0  0  0  0
  159.7030  203.7150  145.6610 O   0  0  0  0  0  1  0  0  0  0  0  0
  161.0070  204.1700  145.8660 C   0  0  1  0  0  0  0  0  0  0  0  0
  161.9470  203.1530  145.6190 O   0  0  0  0  0  0  0  0  0  0  0  0
  161.0410  202.5010  147.7400 C   0  0  0  0  0  2  0  0  0  0  0  0
  161.3060  201.2360  147.1940 O   0  0  0  0  0  0  0  0  0  0  0  0
  161.4710  200.3830  148.2930 C   0  0  0  0  0  2  0  0  0  0  0  0
  160.4830  200.7220  149.4020 C   0  0  0  0  0  2  0  0  0  0  0  0
  161.1800  201.2190  150.5730 N   0  0  0  0  0  2  0  0  0  0  0  0
  161.1720  202.6640  150.4620 C   0  0  0  0  0  2  0  0  0  0  0  0
  161.8580  203.2940  151.6690 C   0  0  0  0  0  2  0  0  0  0  0  0
  160.9340  204.2100  152.4120 C   0  0  0  0  0  0  0  0  0  0  0  0
  161.3800  204.9140  153.5270 O   0  0  0  0  0  1  0  0  0  0  0  0
  159.7310  204.3110  152.0540 O   0  0  0  0  0  0  0  0  0  0  0  0
  160.7300  205.7170  143.8780 C   0  0  0  0  0  2  0  0  0  0  0  0
  161.6710  206.7250  141.9260 O   0  0  0  0  0  1  0  0  0  0  0  0
  161.7380  205.5970  142.7450 C   0  0  0  0  0  2  0  0  0  0  0  0
  159.0450  208.3790  156.2050 O   0  0  0  0  0  0  0  0  0  0  0  0
  159.5920  207.0850  156.4440 C   0  0  0  0  0  2  0  0  0  0  0  0
  161.6570  207.9540  157.2580 O   0  0  0  0  0  1  0  0  0  0  0  0
  161.1010  207.1300  156.2800 C   0  0  0  0  0  2  0  0  0  0  0  0
  161.2380  214.2030  147.4520 N   0  0  0  0  0  2  0  0  0  0  0  0
  161.1690  214.0610  146.0060 C   0  0  0  0  0  2  0  0  0  0  0  0
  158.7250  214.2030  146.4800 C   0  0  0  0  0  3  0  0  0  0  0  0
  159.7580  214.1970  145.5370 C   0  0  0  0  0  0  0  0  0  0  0  0
  157.1050  214.4520  144.7660 C   0  0  0  0  0  3  0  0  0  0  0  0
  159.4490  214.3250  144.1720 C   0  0  0  0  0  0  0  0  0  0  0  0
  158.1050  214.4530  143.7910 C   0  0  0  0  0  3  0  0  0  0  0  0
  157.4340  214.3260  146.0800 N   0  0  0  0  0  0  0  0  0  0  0  0
  160.9400  213.1560  142.4370 C   0  0  0  0  0  0  0  0  0  0  0  0
  160.2730  212.0860  142.4430 O   0  0  0  0  0  0  0  0  0  0  0  0
  160.5010  214.2960  143.1960 N   0  0  0  0  0  2  0  0  0  0  0  0
  163.0600  214.3320  141.8740 C   0  0  0  0  0  1  0  0  0  0  0  0
  162.1230  213.2440  141.6370 N   0  0  0  0  0  0  0  0  0  0  0  0
  162.5130  212.1780  140.8760 O   0  0  0  0  0  0  0  0  0  0  0  0
  162.9130  213.5230  138.8610 C   0  0  0  0  0  1  0  0  0  0  0  0
  160.6670  212.8010  139.5300 C   0  0  0  0  0  1  0  0  0  0  0  0
  162.1270  212.3970  139.5280 C   0  0  0  0  0  0  0  0  0  0  0  0
  162.2460  211.1220  138.7010 C   0  0  0  0  0  1  0  0  0  0  0  0
  1  9  2  0  0  0  0
  2 16  1  0  0  0  0
  3 10  1  0  0  0  0
  4 11  2  0  0  0  0
  5 13  1  0  0  0  0
  6 14  1  0  0  0  0
  6  5  2  0  0  0  0
  7 17  1  0  0  0  0
  8  4  1  0  0  0  0
  9  2  1  0  0  0  0
 10  7  1  0  0  0  0
 11 15  1  0  0  0  0
 12  7  2  0  0  0  0
 12  8  1  0  0  0  0
 13 10  2  0  0  0  0
 13 12  1  0  0  0  0
 14  3  2  0  0  0  0
 15  2  2  0  0  0  0
 15 43  1  0  0  0  0
 17  4  1  0  0  0  0
 17  1  1  1  0  0  0
 18  8  1  0  0  0  0
 19 18  1  0  0  0  0
 20 21  2  0  0  0  0
 21 19  1  0  0  0  0
 22 23  1  6  0  0  0
 22 20  1  0  0  0  0
 24 22  1  0  0  0  0
 25 40  1  6  0  0  0
 25 28  1  0  0  0  0
 25 24  1  0  0  0  0
 26 30  1  1  0  0  0
 28 27  1  6  0  0  0
 28 26  1  0  0  0  0
 29 28  1  0  0  0  0
 29 26  1  0  0  0  0
 31 30  1  0  0  0  0
 31 32  1  0  0  0  0
 32 33  1  0  0  0  0
 33 34  1  0  0  0  0
 35 34  1  0  0  0  0
 35 36  1  0  0  0  0
 36 37  1  0  0  0  0
 37 38  1  0  0  0  0
 39 37  2  0  0  0  0
 41 42  1  0  0  0  0
 42 40  1  0  0  0  0
 43 44  1  0  0  0  0
 46 44  1  0  0  0  0
 46 45  1  0  0  0  0
 47 14  1  0  0  0  0
 48 47  1  0  0  0  0
 50 48  1  0  0  0  0
 50 49  2  0  0  0  0
 51 54  2  0  0  0  0
 52 50  1  0  0  0  0
 53 52  2  0  0  0  0
 53 51  1  0  0  0  0
 54 49  1  0  0  0  0
 55 56  2  0  0  0  0
 55 57  1  0  0  0  0
 57 52  1  0  0  0  0
 59 58  1  0  0  0  0
 59 55  1  0  0  0  0
 60 59  1  0  0  0  0
 61 63  1  0  0  0  0
 63 62  1  0  0  0  0
 63 60  1  0  0  0  0
 64 63  1  0  0  0  0
M  END
>  <MODEL>
3

>  <REMARK>
 VINA RESULT:      -3.4      3.268      6.577
  Name = 
  26 active torsions:
  status: ('A' for Active; 'I' for Inactive)
    1  A    between atoms: O_2  and  C_5
    2  A    between atoms: O_2  and  C_12
    3  A    between atoms: C_5  and  C_23
    4  A    between atoms: C_9  and  C_31
    5  A    between atoms: C_12  and  C_36
    6  A    between atoms: C_12  and  C_51
    7  A    between atoms: N_16  and  C_18
    8  A    between atoms: N_16  and  C_44
    9  A    between atoms: O_17  and  C_45
   10  A    between atoms: O_17  and  C_57
   11  A    between atoms: C_18  and  C_34
   12  A    between atoms: O_20  and  C_48
   13  A    between atoms: O_20  and  C_54
   14  A    between atoms: N_21  and  C_50
   15  A    between atoms: N_22  and  C_41
   16  A    between atoms: C_24  and  C_48
   17  A    between atoms: C_26  and  C_61
   18  A    between atoms: C_27  and  C_36
   19  A    between atoms: C_31  and  C_38
   20  A    between atoms: C_38  and  N_53
   21  A    between atoms: C_41  and  C_61
   22  A    between atoms: C_45  and  C_49
   23  A    between atoms: C_46  and  O_55
   24  A    between atoms: C_52  and  N_53
   25  A    between atoms: C_52  and  C_54
   26  A    between atoms: O_55  and  N_58
                            x       y       z     vdW  Elec       q    Type
                         _______ _______ _______ _____ _____    ______ ____

>  <TORSDO>
F 26

$$$$
