=
 OpenBabel11052410223D

 55 59  0  0  1  0  0  0  0  0999 V2000
  161.1760  209.6930  151.7670 C   0  0  0  0  0  0  0  0  0  0  0  0
  161.9280  210.6350  149.6620 C   0  0  0  0  0  0  0  0  0  0  0  0
  161.9620  209.3880  149.1230 N   0  0  0  0  0  0  0  0  0  0  0  0
  161.5290  210.8060  150.9880 C   0  0  0  0  0  3  0  0  0  0  0  0
  161.6480  208.2870  149.8530 C   0  0  0  0  0  3  0  0  0  0  0  0
  161.2690  208.4050  151.1910 C   0  0  0  0  0  0  0  0  0  0  0  0
  163.3660  206.7570  151.8690 O   0  0  0  0  0  1  0  0  0  0  0  0
  160.7240  206.8130  155.4890 C   0  0  0  0  0  2  0  0  0  0  0  0
  161.0300  206.7110  154.2070 C   0  0  0  0  0  0  0  0  0  0  0  0
  160.4060  207.4390  153.2210 O   0  0  0  0  0  0  0  0  0  0  0  0
  162.1070  205.8450  153.6850 C   0  0  0  0  0  2  0  0  0  0  0  0
  160.9480  207.1410  151.9470 C   0  0  2  0  0  3  0  0  0  0  0  0
  162.1380  206.1640  152.1840 C   0  0  1  0  0  0  0  0  0  0  0  0
  161.6000  203.7110  152.2630 C   0  0  0  0  0  3  0  0  0  0  0  0
  161.9650  204.8610  151.3820 C   0  0  1  0  0  3  0  0  0  0  0  0
  160.7780  204.9740  150.4210 C   0  0  2  0  0  3  0  0  0  0  0  0
  160.4420  203.1640  151.9260 C   0  0  0  0  0  3  0  0  0  0  0  0
  159.8210  203.8340  150.7520 C   0  0  0  0  0  2  0  0  0  0  0  0
  160.6950  205.9100  148.0480 C   0  0  0  0  0  0  0  0  0  0  0  0
  159.7100  206.6460  148.3230 O   0  0  0  0  0  0  0  0  0  0  0  0
  161.1990  204.9700  149.0180 N   0  0  0  0  0  0  0  0  0  0  0  0
  162.0860  203.8920  148.5890 C   0  0  0  0  0  2  0  0  0  0  0  0
  161.3250  202.5760  148.5120 C   0  0  0  0  0  1  0  0  0  0  0  0
  161.3440  206.0380  146.7060 C   0  0  0  0  0  2  0  0  0  0  0  0
  160.3730  205.7660  145.6500 N   0  0  0  0  0  2  0  0  0  0  0  0
  162.2120  204.4330  145.0710 O   0  0  0  0  0  1  0  0  0  0  0  0
  160.9150  204.7930  144.6900 C   0  0  1  0  0  0  0  0  0  0  0  0
  160.0720  203.5470  144.7090 C   0  0  0  0  0  3  0  0  0  0  0  0
  160.5340  202.3720  145.1390 C   0  0  0  0  0  2  0  0  0  0  0  0
  161.9850  205.7490  142.8740 O   0  0  0  0  0  0  0  0  0  0  0  0
  160.9600  205.3550  143.3530 N   0  0  0  0  0  0  0  0  0  0  0  0
  161.4590  212.3420  148.1100 N   0  0  0  0  0  0  0  0  0  0  0  0
  162.2930  211.7760  148.8850 N   0  0  0  0  0  0  0  0  0  0  0  0
  161.8490  213.4960  147.3090 C   0  0  1  0  0  3  0  0  0  0  0  0
  162.5080  213.0780  146.0290 C   0  0  0  0  0  0  0  0  0  0  0  0
  163.6550  212.5560  146.0340 O   0  0  0  0  0  1  0  0  0  0  0  0
  161.8000  213.1730  144.8350 O   0  0  0  0  0  0  0  0  0  0  0  0
  160.6680  214.4470  147.0660 C   0  0  0  0  0  2  0  0  0  0  0  0
  157.2810  212.7250  147.1580 C   0  0  0  0  0  3  0  0  0  0  0  0
  156.9660  212.8210  148.5180 C   0  0  0  0  0  3  0  0  0  0  0  0
  157.8480  213.4550  149.4000 C   0  0  0  0  0  3  0  0  0  0  0  0
  158.4750  213.2690  146.6770 C   0  0  0  0  0  3  0  0  0  0  0  0
  159.3580  213.9080  147.5570 C   0  0  0  0  0  0  0  0  0  0  0  0
  159.0430  213.9960  148.9200 C   0  0  0  0  0  3  0  0  0  0  0  0
  160.7620  209.8340  153.1030 O   0  0  0  0  0  0  0  0  0  0  0  0
  160.8860  211.6140  154.7960 N   0  0  0  0  0  2  0  0  0  0  0  0
  162.6510  210.1640  154.4080 O   0  0  0  0  0  0  0  0  0  0  0  0
  161.4710  210.4970  154.1180 C   0  0  0  0  0  0  0  0  0  0  0  0
  158.8470  212.2180  153.6540 N   0  0  0  0  0  0  0  0  0  0  0  0
  155.4360  212.9180  154.7180 N   0  0  0  0  0  1  0  0  0  0  0  0
  157.5490  212.5340  153.6310 N   0  0  0  0  0  0  0  0  0  0  0  0
  157.4330  212.3440  155.9960 C   0  0  0  0  0  3  0  0  0  0  0  0
  159.4910  211.9340  154.8190 C   0  0  0  0  0  0  0  0  0  0  0  0
  156.8180  212.5940  154.7730 C   0  0  0  0  0  0  0  0  0  0  0  0
  158.7850  212.0140  156.0190 C   0  0  0  0  0  3  0  0  0  0  0  0
  1 45  1  0  0  0  0
  2  4  1  0  0  0  0
  3  2  2  0  0  0  0
  3  5  1  0  0  0  0
  4  1  2  0  0  0  0
  5  6  2  0  0  0  0
  6  1  1  0  0  0  0
  9  8  2  0  0  0  0
 10  9  1  0  0  0  0
 11  9  1  0  0  0  0
 12  6  1  1  0  0  0
 12 13  1  0  0  0  0
 12 10  1  0  0  0  0
 13  7  1  6  0  0  0
 13 11  1  0  0  0  0
 15 13  1  0  0  0  0
 15 14  1  1  0  0  0
 16 21  1  6  0  0  0
 16 18  1  0  0  0  0
 16 15  1  0  0  0  0
 17 14  2  0  0  0  0
 18 17  1  0  0  0  0
 19 20  2  0  0  0  0
 19 21  1  0  0  0  0
 22 21  1  0  0  0  0
 23 22  1  0  0  0  0
 24 19  1  0  0  0  0
 25 24  1  0  0  0  0
 27 28  1  0  0  0  0
 27 26  1  1  0  0  0
 27 25  1  0  0  0  0
 28 29  2  0  0  0  0
 30 31  2  0  0  0  0
 31 27  1  0  0  0  0
 32 33  2  0  0  0  0
 33  2  1  0  0  0  0
 34 38  1  6  0  0  0
 34 32  1  0  0  0  0
 35 36  1  0  0  0  0
 35 34  1  0  0  0  0
 37 35  2  0  0  0  0
 38 43  1  0  0  0  0
 39 40  1  0  0  0  0
 40 41  2  0  0  0  0
 42 39  2  0  0  0  0
 42 43  1  0  0  0  0
 43 44  2  0  0  0  0
 44 41  1  0  0  0  0
 45 48  1  0  0  0  0
 46 53  1  0  0  0  0
 48 47  2  0  0  0  0
 48 46  1  0  0  0  0
 49 53  2  0  0  0  0
 50 54  1  0  0  0  0
 51 49  1  0  0  0  0
 51 54  2  0  0  0  0
 52 55  2  0  0  0  0
 53 55  1  0  0  0  0
 54 52  1  0  0  0  0
M  END
>  <MODEL>
1

>  <REMARK>
 VINA RESULT:      -5.9      0.000      0.000
  Name = 
  17 active torsions:
  status: ('A' for Active; 'I' for Inactive)
    1  A    between atoms: C_1  and  C_31
    2  A    between atoms: C_2  and  C_8
    3  A    between atoms: C_7  and  O_9
    4  A    between atoms: C_8  and  N_13
    5  A    between atoms: C_8  and  C_30
    6  A    between atoms: O_9  and  C_51
    7  A    between atoms: C_10  and  C_23
    8  A    between atoms: C_12  and  C_50
    9  A    between atoms: C_14  and  N_40
   10  A    between atoms: C_17  and  N_52
   11  A    between atoms: N_18  and  C_42
   12  A    between atoms: C_23  and  N_33
   13  A    between atoms: C_30  and  C_37
   14  A    between atoms: C_31  and  N_33
   15  A    between atoms: C_31  and  N_43
   16  A    between atoms: C_34  and  N_52
   17  A    between atoms: C_45  and  C_47
                            x       y       z     vdW  Elec       q    Type
                         _______ _______ _______ _____ _____    ______ ____

>  <TORSDO>
F 17

$$$$
=
 OpenBabel11052410223D

 55 59  0  0  1  0  0  0  0  0999 V2000
  161.0100  208.4560  151.6800 C   0  0  0  0  0  0  0  0  0  0  0  0
  161.6950  207.8850  149.4250 C   0  0  0  0  0  0  0  0  0  0  0  0
  161.8630  209.2040  149.1480 N   0  0  0  0  0  0  0  0  0  0  0  0
  161.2720  207.4910  150.6950 C   0  0  0  0  0  3  0  0  0  0  0  0
  161.5980  210.1660  150.0710 C   0  0  0  0  0  3  0  0  0  0  0  0
  161.1480  209.8220  151.3460 C   0  0  0  0  0  0  0  0  0  0  0  0
  158.8100  209.6820  152.7940 O   0  0  0  0  0  1  0  0  0  0  0  0
  161.9000  211.0860  155.7210 C   0  0  0  0  0  2  0  0  0  0  0  0
  161.2240  211.0570  154.5850 C   0  0  0  0  0  0  0  0  0  0  0  0
  161.8240  210.9720  153.3510 O   0  0  0  0  0  0  0  0  0  0  0  0
  159.7480  211.0610  154.5060 C   0  0  0  0  0  2  0  0  0  0  0  0
  160.8580  210.9390  152.3160 C   0  0  2  0  0  3  0  0  0  0  0  0
  159.4630  210.9020  153.0070 C   0  0  1  0  0  0  0  0  0  0  0  0
  157.9050  212.7560  153.6790 C   0  0  0  0  0  3  0  0  0  0  0  0
  158.5670  212.0630  152.5330 C   0  0  1  0  0  3  0  0  0  0  0  0
  159.4130  213.1620  151.8820 C   0  0  2  0  0  3  0  0  0  0  0  0
  158.2180  214.0410  153.7400 C   0  0  0  0  0  3  0  0  0  0  0  0
  159.1360  214.4530  152.6440 C   0  0  0  0  0  2  0  0  0  0  0  0
  160.1200  213.8050  149.5150 C   0  0  0  0  0  0  0  0  0  0  0  0
  161.1650  214.3710  149.9320 O   0  0  0  0  0  0  0  0  0  0  0  0
  159.1490  213.2840  150.4460 N   0  0  0  0  0  0  0  0  0  0  0  0
  157.8030  212.9590  149.9830 C   0  0  0  0  0  2  0  0  0  0  0  0
  156.9300  214.2050  149.9660 C   0  0  0  0  0  1  0  0  0  0  0  0
  159.9080  213.6650  148.0410 C   0  0  0  0  0  2  0  0  0  0  0  0
  161.0250  214.2630  147.3140 N   0  0  0  0  0  2  0  0  0  0  0  0
  160.9240  212.0790  146.4670 O   0  0  0  0  0  1  0  0  0  0  0  0
  161.6660  213.2650  146.4430 C   0  0  1  0  0  0  0  0  0  0  0  0
  161.6750  213.7690  145.0260 C   0  0  0  0  0  3  0  0  0  0  0  0
  162.0540  213.0110  143.9960 C   0  0  0  0  0  2  0  0  0  0  0  0
  163.2250  212.3580  147.8920 O   0  0  0  0  0  0  0  0  0  0  0  0
  163.0160  212.9810  146.8900 N   0  0  0  0  0  0  0  0  0  0  0  0
  161.0780  206.0180  148.1310 N   0  0  0  0  0  0  0  0  0  0  0  0
  161.9490  206.8930  148.4290 N   0  0  0  0  0  0  0  0  0  0  0  0
  161.3560  205.0000  147.1240 C   0  0  1  0  0  3  0  0  0  0  0  0
  162.4550  205.4300  146.1980 C   0  0  0  0  0  0  0  0  0  0  0  0
  162.2920  206.3960  145.4070 O   0  0  0  0  0  0  0  0  0  0  0  0
  163.7020  204.8200  146.2920 O   0  0  0  0  0  1  0  0  0  0  0  0
  161.6390  203.6310  147.7580 C   0  0  0  0  0  2  0  0  0  0  0  0
  161.0150  200.0920  146.5190 C   0  0  0  0  0  3  0  0  0  0  0  0
  160.3330  200.3400  145.3230 C   0  0  0  0  0  3  0  0  0  0  0  0
  160.0890  201.6560  144.9140 C   0  0  0  0  0  3  0  0  0  0  0  0
  161.4590  201.1590  147.3060 C   0  0  0  0  0  3  0  0  0  0  0  0
  161.2190  202.4770  146.8980 C   0  0  0  0  0  0  0  0  0  0  0  0
  160.5300  202.7230  145.7020 C   0  0  0  0  0  3  0  0  0  0  0  0
  160.5910  208.0900  152.9720 O   0  0  0  0  0  0  0  0  0  0  0  0
  161.6500  206.2250  154.1760 N   0  0  0  0  0  2  0  0  0  0  0  0
  161.9300  208.4280  154.8350 O   0  0  0  0  0  0  0  0  0  0  0  0
  161.4220  207.6280  154.0060 C   0  0  0  0  0  0  0  0  0  0  0  0
  160.3960  204.3330  153.3520 N   0  0  0  0  0  0  0  0  0  0  0  0
  160.6230  202.2080  150.4040 N   0  0  0  0  0  1  0  0  0  0  0  0
  160.1510  203.3720  152.4580 N   0  0  0  0  0  0  0  0  0  0  0  0
  161.9920  204.0890  151.1400 C   0  0  0  0  0  3  0  0  0  0  0  0
  161.4160  205.2180  153.1850 C   0  0  0  0  0  0  0  0  0  0  0  0
  160.9160  203.2310  151.3470 C   0  0  0  0  0  0  0  0  0  0  0  0
  162.2460  205.0920  152.0710 C   0  0  0  0  0  3  0  0  0  0  0  0
  1 45  1  0  0  0  0
  2  4  1  0  0  0  0
  3  2  2  0  0  0  0
  3  5  1  0  0  0  0
  4  1  2  0  0  0  0
  5  6  2  0  0  0  0
  6  1  1  0  0  0  0
  9  8  2  0  0  0  0
 10  9  1  0  0  0  0
 11  9  1  0  0  0  0
 12  6  1  1  0  0  0
 12 13  1  0  0  0  0
 12 10  1  0  0  0  0
 13  7  1  6  0  0  0
 13 11  1  0  0  0  0
 14 17  2  0  0  0  0
 15 13  1  0  0  0  0
 15 14  1  1  0  0  0
 16 21  1  6  0  0  0
 16 15  1  0  0  0  0
 16 18  1  0  0  0  0
 18 17  1  0  0  0  0
 19 20  2  0  0  0  0
 19 21  1  0  0  0  0
 22 21  1  0  0  0  0
 23 22  1  0  0  0  0
 24 19  1  0  0  0  0
 25 24  1  0  0  0  0
 27 26  1  1  0  0  0
 27 31  1  0  0  0  0
 27 25  1  0  0  0  0
 28 27  1  0  0  0  0
 29 28  2  0  0  0  0
 31 30  2  0  0  0  0
 32 33  2  0  0  0  0
 33  2  1  0  0  0  0
 34 38  1  1  0  0  0
 34 32  1  0  0  0  0
 35 37  1  0  0  0  0
 35 34  1  0  0  0  0
 36 35  2  0  0  0  0
 39 42  1  0  0  0  0
 40 39  2  0  0  0  0
 41 40  1  0  0  0  0
 41 44  2  0  0  0  0
 43 42  2  0  0  0  0
 43 38  1  0  0  0  0
 44 43  1  0  0  0  0
 45 48  1  0  0  0  0
 48 46  1  0  0  0  0
 48 47  2  0  0  0  0
 50 54  1  0  0  0  0
 51 49  1  0  0  0  0
 52 54  1  0  0  0  0
 52 55  2  0  0  0  0
 53 49  2  0  0  0  0
 53 46  1  0  0  0  0
 54 51  2  0  0  0  0
 55 53  1  0  0  0  0
M  END
>  <MODEL>
2

>  <REMARK>
 VINA RESULT:      -5.0      2.098      8.383
  Name = 
  17 active torsions:
  status: ('A' for Active; 'I' for Inactive)
    1  A    between atoms: C_1  and  C_31
    2  A    between atoms: C_2  and  C_8
    3  A    between atoms: C_7  and  O_9
    4  A    between atoms: C_8  and  N_13
    5  A    between atoms: C_8  and  C_30
    6  A    between atoms: O_9  and  C_51
    7  A    between atoms: C_10  and  C_23
    8  A    between atoms: C_12  and  C_50
    9  A    between atoms: C_14  and  N_40
   10  A    between atoms: C_17  and  N_52
   11  A    between atoms: N_18  and  C_42
   12  A    between atoms: C_23  and  N_33
   13  A    between atoms: C_30  and  C_37
   14  A    between atoms: C_31  and  N_33
   15  A    between atoms: C_31  and  N_43
   16  A    between atoms: C_34  and  N_52
   17  A    between atoms: C_45  and  C_47
                            x       y       z     vdW  Elec       q    Type
                         _______ _______ _______ _____ _____    ______ ____

>  <TORSDO>
F 17

$$$$
=
 OpenBabel11052410223D

 55 59  0  0  1  0  0  0  0  0999 V2000
  161.6590  210.4610  149.9470 C   0  0  0  0  0  0  0  0  0  0  0  0
  160.6150  211.4030  151.9230 C   0  0  0  0  0  0  0  0  0  0  0  0
  160.7140  210.1970  152.5430 N   0  0  0  0  0  0  0  0  0  0  0  0
  161.0900  211.5530  150.6200 C   0  0  0  0  0  3  0  0  0  0  0  0
  161.2380  209.1130  151.9130 C   0  0  0  0  0  3  0  0  0  0  0  0
  161.7030  209.2090  150.6010 C   0  0  0  0  0  0  0  0  0  0  0  0
  160.0580  207.0070  150.4520 O   0  0  0  0  0  1  0  0  0  0  0  0
  162.1410  207.1630  146.4870 C   0  0  0  0  0  2  0  0  0  0  0  0
  162.0280  207.1860  147.8040 C   0  0  0  0  0  0  0  0  0  0  0  0
  162.5460  208.1880  148.5900 O   0  0  0  0  0  0  0  0  0  0  0  0
  161.2920  206.1690  148.5830 C   0  0  0  0  0  2  0  0  0  0  0  0
  162.2580  207.9640  149.9580 C   0  0  2  0  0  3  0  0  0  0  0  0
  161.3540  206.6980  150.0230 C   0  0  1  0  0  0  0  0  0  0  0  0
  162.5810  206.2080  152.1610 C   0  0  0  0  0  3  0  0  0  0  0  0
  161.9630  205.6160  150.9360 C   0  0  1  0  0  3  0  0  0  0  0  0
  160.8660  204.7000  151.4880 C   0  0  2  0  0  3  0  0  0  0  0  0
  162.0340  205.7470  153.2750 C   0  0  0  0  0  3  0  0  0  0  0  0
  160.9580  204.7550  153.0090 C   0  0  0  0  0  2  0  0  0  0  0  0
  160.6480  202.9980  149.5990 C   0  0  0  0  0  0  0  0  0  0  0  0
  160.0660  203.8300  148.8540 O   0  0  0  0  0  0  0  0  0  0  0  0
  160.9690  203.3360  150.9640 N   0  0  0  0  0  0  0  0  0  0  0  0
  161.3090  202.2790  151.9120 C   0  0  0  0  0  2  0  0  0  0  0  0
  162.7890  201.9400  151.8220 C   0  0  0  0  0  1  0  0  0  0  0  0
  161.0180  201.6590  149.0430 C   0  0  0  0  0  2  0  0  0  0  0  0
  160.0790  201.2750  147.9920 N   0  0  0  0  0  2  0  0  0  0  0  0
  159.7950  201.1970  145.6660 O   0  0  0  0  0  1  0  0  0  0  0  0
  160.7530  201.2480  146.6840 C   0  0  1  0  0  0  0  0  0  0  0  0
  161.5460  202.5130  146.5030 C   0  0  0  0  0  3  0  0  0  0  0  0
  161.3730  203.3270  145.4610 C   0  0  0  0  0  2  0  0  0  0  0  0
  161.2650  199.1010  145.9890 O   0  0  0  0  0  0  0  0  0  0  0  0
  161.6160  200.0870  146.5720 N   0  0  0  0  0  0  0  0  0  0  0  0
  159.0630  212.3730  153.4030 N   0  0  0  0  0  0  0  0  0  0  0  0
  160.0310  212.5200  152.5930 N   0  0  0  0  0  0  0  0  0  0  0  0
  158.4650  213.5250  154.0690 C   0  0  1  0  0  3  0  0  0  0  0  0
  157.0700  213.7790  153.5800 C   0  0  0  0  0  0  0  0  0  0  0  0
  156.8670  214.2770  152.4400 O   0  0  0  0  0  0  0  0  0  0  0  0
  155.9910  213.3610  154.3510 O   0  0  0  0  0  1  0  0  0  0  0  0
  158.5250  213.3950  155.5980 C   0  0  0  0  0  2  0  0  0  0  0  0
  159.5380  209.8050  156.3260 C   0  0  0  0  0  3  0  0  0  0  0  0
  160.8230  209.9860  156.8480 C   0  0  0  0  0  3  0  0  0  0  0  0
  161.3530  211.2750  156.9750 C   0  0  0  0  0  3  0  0  0  0  0  0
  158.7780  210.9110  155.9350 C   0  0  0  0  0  3  0  0  0  0  0  0
  159.3050  212.2020  156.0640 C   0  0  0  0  0  0  0  0  0  0  0  0
  160.5950  212.3810  156.5820 C   0  0  0  0  0  3  0  0  0  0  0  0
  162.1550  210.5840  148.6370 O   0  0  0  0  0  0  0  0  0  0  0  0
  162.1800  212.5610  147.1740 N   0  0  0  0  0  2  0  0  0  0  0  0
  164.0310  211.9290  148.4140 O   0  0  0  0  0  0  0  0  0  0  0  0
  162.8300  211.7000  148.1150 C   0  0  0  0  0  0  0  0  0  0  0  0
  160.2460  212.2180  145.7690 N   0  0  0  0  0  0  0  0  0  0  0  0
  156.6750  212.8210  146.1480 N   0  0  0  0  0  1  0  0  0  0  0  0
  158.9360  212.2830  145.5190 N   0  0  0  0  0  0  0  0  0  0  0  0
  158.5470  213.2490  147.6530 C   0  0  0  0  0  3  0  0  0  0  0  0
  160.7670  212.6370  146.9550 C   0  0  0  0  0  0  0  0  0  0  0  0
  158.0670  212.7780  146.4350 C   0  0  0  0  0  0  0  0  0  0  0  0
  159.9130  213.1800  147.9140 C   0  0  0  0  0  3  0  0  0  0  0  0
  1  6  1  0  0  0  0
  1  4  2  0  0  0  0
  2  3  2  0  0  0  0
  2 33  1  0  0  0  0
  4  2  1  0  0  0  0
  5  3  1  0  0  0  0
  6  5  2  0  0  0  0
  8  9  2  0  0  0  0
  9 11  1  0  0  0  0
  9 10  1  0  0  0  0
 10 12  1  0  0  0  0
 11 13  1  0  0  0  0
 12 13  1  0  0  0  0
 12  6  1  6  0  0  0
 13  7  1  1  0  0  0
 13 15  1  0  0  0  0
 14 17  2  0  0  0  0
 15 16  1  0  0  0  0
 15 14  1  1  0  0  0
 16 21  1  6  0  0  0
 16 18  1  0  0  0  0
 18 17  1  0  0  0  0
 19 21  1  0  0  0  0
 20 19  2  0  0  0  0
 21 22  1  0  0  0  0
 23 22  1  0  0  0  0
 24 19  1  0  0  0  0
 25 24  1  0  0  0  0
 27 26  1  6  0  0  0
 27 25  1  0  0  0  0
 28 27  1  0  0  0  0
 29 28  2  0  0  0  0
 30 31  2  0  0  0  0
 31 27  1  0  0  0  0
 32 34  1  0  0  0  0
 33 32  2  0  0  0  0
 34 38  1  1  0  0  0
 35 34  1  0  0  0  0
 35 37  1  0  0  0  0
 36 35  2  0  0  0  0
 38 43  1  0  0  0  0
 39 40  1  0  0  0  0
 40 41  2  0  0  0  0
 42 43  1  0  0  0  0
 42 39  2  0  0  0  0
 43 44  2  0  0  0  0
 44 41  1  0  0  0  0
 45  1  1  0  0  0  0
 46 48  1  0  0  0  0
 48 47  2  0  0  0  0
 48 45  1  0  0  0  0
 49 53  2  0  0  0  0
 50 54  1  0  0  0  0
 51 49  1  0  0  0  0
 51 54  2  0  0  0  0
 52 55  2  0  0  0  0
 53 46  1  0  0  0  0
 53 55  1  0  0  0  0
 54 52  1  0  0  0  0
M  END
>  <MODEL>
3

>  <REMARK>
 VINA RESULT:      -4.2      2.533      6.227
  Name = 
  17 active torsions:
  status: ('A' for Active; 'I' for Inactive)
    1  A    between atoms: C_1  and  C_31
    2  A    between atoms: C_2  and  C_8
    3  A    between atoms: C_7  and  O_9
    4  A    between atoms: C_8  and  N_13
    5  A    between atoms: C_8  and  C_30
    6  A    between atoms: O_9  and  C_51
    7  A    between atoms: C_10  and  C_23
    8  A    between atoms: C_12  and  C_50
    9  A    between atoms: C_14  and  N_40
   10  A    between atoms: C_17  and  N_52
   11  A    between atoms: N_18  and  C_42
   12  A    between atoms: C_23  and  N_33
   13  A    between atoms: C_30  and  C_37
   14  A    between atoms: C_31  and  N_33
   15  A    between atoms: C_31  and  N_43
   16  A    between atoms: C_34  and  N_52
   17  A    between atoms: C_45  and  C_47
                            x       y       z     vdW  Elec       q    Type
                         _______ _______ _______ _____ _____    ______ ____

>  <TORSDO>
F 17

$$$$
=
 OpenBabel11052410223D

 55 59  0  0  1  0  0  0  0  0999 V2000
  161.2800  207.3330  151.5390 C   0  0  0  0  0  0  0  0  0  0  0  0
  161.0150  205.9560  149.5600 C   0  0  0  0  0  0  0  0  0  0  0  0
  161.2020  207.0520  148.7790 N   0  0  0  0  0  0  0  0  0  0  0  0
  161.0580  206.0790  150.9490 C   0  0  0  0  0  3  0  0  0  0  0  0
  161.3980  208.2850  149.3170 C   0  0  0  0  0  3  0  0  0  0  0  0
  161.4220  208.4610  150.7010 C   0  0  0  0  0  0  0  0  0  0  0  0
  159.4690  209.5100  152.3330 O   0  0  0  0  0  1  0  0  0  0  0  0
  163.3410  210.7340  154.2290 C   0  0  0  0  0  2  0  0  0  0  0  0
  162.4640  210.5610  153.2550 C   0  0  0  0  0  0  0  0  0  0  0  0
  162.7600  209.9130  152.0790 O   0  0  0  0  0  0  0  0  0  0  0  0
  161.0540  210.9960  153.3320 C   0  0  0  0  0  2  0  0  0  0  0  0
  161.6290  209.8580  151.2300 C   0  0  2  0  0  3  0  0  0  0  0  0
  160.4400  210.4720  152.0270 C   0  0  1  0  0  0  0  0  0  0  0  0
  158.8990  212.4540  152.1430 C   0  0  0  0  0  3  0  0  0  0  0  0
  159.7930  211.6420  151.2620 C   0  0  1  0  0  3  0  0  0  0  0  0
  160.8610  212.6420  150.8070 C   0  0  2  0  0  3  0  0  0  0  0  0
  159.2770  213.7210  152.2160 C   0  0  0  0  0  3  0  0  0  0  0  0
  160.4840  213.9990  151.3910 C   0  0  0  0  0  2  0  0  0  0  0  0
  160.2600  213.5820  148.5110 C   0  0  0  0  0  0  0  0  0  0  0  0
  159.3010  214.2480  148.9830 O   0  0  0  0  0  0  0  0  0  0  0  0
  161.0030  212.6730  149.3490 N   0  0  0  0  0  0  0  0  0  0  0  0
  161.8590  211.6600  148.7390 C   0  0  0  0  0  2  0  0  0  0  0  0
  163.2700  212.1960  148.5540 C   0  0  0  0  0  1  0  0  0  0  0  0
  160.6290  213.7600  147.0720 C   0  0  0  0  0  2  0  0  0  0  0  0
  159.4890  214.2790  146.3210 N   0  0  0  0  0  2  0  0  0  0  0  0
  159.8240  212.1430  145.4150 O   0  0  0  0  0  1  0  0  0  0  0  0
  159.0470  213.3020  145.3150 C   0  0  1  0  0  0  0  0  0  0  0  0
  157.6180  212.9170  145.5830 C   0  0  0  0  0  3  0  0  0  0  0  0
  157.2210  212.3870  146.7410 C   0  0  0  0  0  2  0  0  0  0  0  0
  158.2310  214.2040  143.3460 O   0  0  0  0  0  0  0  0  0  0  0  0
  159.1840  213.8420  143.9750 N   0  0  0  0  0  0  0  0  0  0  0  0
  161.5540  203.6930  149.1970 N   0  0  0  0  0  0  0  0  0  0  0  0
  160.7790  204.6760  148.9740 N   0  0  0  0  0  0  0  0  0  0  0  0
  161.3110  202.3950  148.5790 C   0  0  1  0  0  3  0  0  0  0  0  0
  160.4700  201.5180  149.4560 C   0  0  0  0  0  0  0  0  0  0  0  0
  160.9460  201.0090  150.5060 O   0  0  0  0  0  1  0  0  0  0  0  0
  159.1210  201.3510  149.1610 O   0  0  0  0  0  0  0  0  0  0  0  0
  160.7200  202.5360  147.1680 C   0  0  0  0  0  2  0  0  0  0  0  0
  163.3470  204.8040  145.6180 C   0  0  0  0  0  3  0  0  0  0  0  0
  162.5620  205.5770  144.7550 C   0  0  0  0  0  3  0  0  0  0  0  0
  161.1790  205.3690  144.6870 C   0  0  0  0  0  3  0  0  0  0  0  0
  162.7500  203.8260  146.4190 C   0  0  0  0  0  3  0  0  0  0  0  0
  161.3670  203.6190  146.3570 C   0  0  0  0  0  0  0  0  0  0  0  0
  160.5830  204.3890  145.4860 C   0  0  0  0  0  3  0  0  0  0  0  0
  161.3370  207.4860  152.9360 O   0  0  0  0  0  0  0  0  0  0  0  0
  161.0490  206.7790  155.2740 N   0  0  0  0  0  2  0  0  0  0  0  0
  161.1940  205.2510  153.5390 O   0  0  0  0  0  0  0  0  0  0  0  0
  161.1730  206.4620  153.8830 C   0  0  0  0  0  0  0  0  0  0  0  0
  159.4890  208.6020  155.5310 N   0  0  0  0  0  0  0  0  0  0  0  0
  159.5690  211.8080  157.2560 N   0  0  0  0  0  1  0  0  0  0  0  0
  159.1330  209.8030  155.9970 N   0  0  0  0  0  0  0  0  0  0  0  0
  161.2490  210.0520  157.0470 C   0  0  0  0  0  3  0  0  0  0  0  0
  160.7070  208.0630  155.8070 C   0  0  0  0  0  0  0  0  0  0  0  0
  159.9780  210.5400  156.7600 C   0  0  0  0  0  0  0  0  0  0  0  0
  161.6180  208.8000  156.5620 C   0  0  0  0  0  3  0  0  0  0  0  0
  1 45  1  0  0  0  0
  2  4  1  0  0  0  0
  3  5  1  0  0  0  0
  3  2  2  0  0  0  0
  4  1  2  0  0  0  0
  5  6  2  0  0  0  0
  6  1  1  0  0  0  0
  9 11  1  0  0  0  0
  9  8  2  0  0  0  0
 10  9  1  0  0  0  0
 12  6  1  1  0  0  0
 12 13  1  0  0  0  0
 12 10  1  0  0  0  0
 13  7  1  1  0  0  0
 13 11  1  0  0  0  0
 14 17  2  0  0  0  0
 15 13  1  0  0  0  0
 15 14  1  1  0  0  0
 16 21  1  6  0  0  0
 16 15  1  0  0  0  0
 16 18  1  0  0  0  0
 18 17  1  0  0  0  0
 19 20  2  0  0  0  0
 19 21  1  0  0  0  0
 22 21  1  0  0  0  0
 23 22  1  0  0  0  0
 24 19  1  0  0  0  0
 25 24  1  0  0  0  0
 27 26  1  1  0  0  0
 27 28  1  0  0  0  0
 27 25  1  0  0  0  0
 28 29  2  0  0  0  0
 30 31  2  0  0  0  0
 31 27  1  0  0  0  0
 33 32  2  0  0  0  0
 33  2  1  0  0  0  0
 34 38  1  6  0  0  0
 34 32  1  0  0  0  0
 34 35  1  0  0  0  0
 35 36  1  0  0  0  0
 37 35  2  0  0  0  0
 39 42  1  0  0  0  0
 40 39  2  0  0  0  0
 41 40  1  0  0  0  0
 41 44  2  0  0  0  0
 43 42  2  0  0  0  0
 43 38  1  0  0  0  0
 44 43  1  0  0  0  0
 45 48  1  0  0  0  0
 46 53  1  0  0  0  0
 47 48  2  0  0  0  0
 48 46  1  0  0  0  0
 49 53  2  0  0  0  0
 49 51  1  0  0  0  0
 51 54  2  0  0  0  0
 53 55  1  0  0  0  0
 54 52  1  0  0  0  0
 54 50  1  0  0  0  0
 55 52  2  0  0  0  0
M  END
>  <MODEL>
4

>  <REMARK>
 VINA RESULT:      -4.2      2.594      7.727
  Name = 
  17 active torsions:
  status: ('A' for Active; 'I' for Inactive)
    1  A    between atoms: C_1  and  C_31
    2  A    between atoms: C_2  and  C_8
    3  A    between atoms: C_7  and  O_9
    4  A    between atoms: C_8  and  N_13
    5  A    between atoms: C_8  and  C_30
    6  A    between atoms: O_9  and  C_51
    7  A    between atoms: C_10  and  C_23
    8  A    between atoms: C_12  and  C_50
    9  A    between atoms: C_14  and  N_40
   10  A    between atoms: C_17  and  N_52
   11  A    between atoms: N_18  and  C_42
   12  A    between atoms: C_23  and  N_33
   13  A    between atoms: C_30  and  C_37
   14  A    between atoms: C_31  and  N_33
   15  A    between atoms: C_31  and  N_43
   16  A    between atoms: C_34  and  N_52
   17  A    between atoms: C_45  and  C_47
                            x       y       z     vdW  Elec       q    Type
                         _______ _______ _______ _____ _____    ______ ____

>  <TORSDO>
F 17

$$$$
=
 OpenBabel11052410223D

 55 59  0  0  1  0  0  0  0  0999 V2000
  161.0650  208.0340  151.8430 C   0  0  0  0  0  0  0  0  0  0  0  0
  161.1110  205.6450  152.2640 C   0  0  0  0  0  0  0  0  0  0  0  0
  161.0130  205.8840  153.5980 N   0  0  0  0  0  0  0  0  0  0  0  0
  161.1330  206.7140  151.3670 C   0  0  0  0  0  3  0  0  0  0  0  0
  160.9680  207.1490  154.0940 C   0  0  0  0  0  3  0  0  0  0  0  0
  161.0130  208.2500  153.2380 C   0  0  0  0  0  0  0  0  0  0  0  0
  159.6210  208.5510  155.5940 O   0  0  0  0  0  1  0  0  0  0  0  0
  163.3570  210.9660  156.1420 C   0  0  0  0  0  2  0  0  0  0  0  0
  162.2690  210.5280  155.5300 C   0  0  0  0  0  0  0  0  0  0  0  0
  162.2710  210.0400  154.2450 O   0  0  0  0  0  0  0  0  0  0  0  0
  160.9380  210.4620  156.1670 C   0  0  0  0  0  2  0  0  0  0  0  0
  160.9740  209.6250  153.8560 C   0  0  2  0  0  3  0  0  0  0  0  0
  160.0590  209.7880  155.1050 C   0  0  1  0  0  0  0  0  0  0  0  0
  157.6800  210.3630  155.6780 C   0  0  0  0  0  3  0  0  0  0  0  0
  158.8460  210.6880  154.8020 C   0  0  1  0  0  3  0  0  0  0  0  0
  159.1620  212.1480  155.1440 C   0  0  2  0  0  3  0  0  0  0  0  0
  157.2910  211.3980  156.4060 C   0  0  0  0  0  3  0  0  0  0  0  0
  158.1120  212.6120  156.1480 C   0  0  0  0  0  2  0  0  0  0  0  0
  159.9350  212.6200  152.7570 C   0  0  0  0  0  0  0  0  0  0  0  0
  160.7200  211.6350  152.7680 O   0  0  0  0  0  0  0  0  0  0  0  0
  159.2170  212.9960  153.9510 N   0  0  0  0  0  0  0  0  0  0  0  0
  158.6000  214.3160  154.0400 C   0  0  0  0  0  2  0  0  0  0  0  0
  157.2520  214.3220  153.3340 C   0  0  0  0  0  1  0  0  0  0  0  0
  159.7450  213.3850  151.4860 C   0  0  0  0  0  2  0  0  0  0  0  0
  159.8670  212.4890  150.3380 N   0  0  0  0  0  2  0  0  0  0  0  0
  160.8610  214.4530  149.5320 O   0  0  0  0  0  1  0  0  0  0  0  0
  160.2870  213.2380  149.1440 C   0  0  1  0  0  0  0  0  0  0  0  0
  161.3360  212.4530  148.4030 C   0  0  0  0  0  3  0  0  0  0  0  0
  162.4500  213.0110  147.9290 C   0  0  0  0  0  2  0  0  0  0  0  0
  159.0980  213.0760  147.1650 O   0  0  0  0  0  0  0  0  0  0  0  0
  159.1540  213.5110  148.2800 N   0  0  0  0  0  0  0  0  0  0  0  0
  161.2290  204.0690  150.5200 N   0  0  0  0  0  0  0  0  0  0  0  0
  161.1890  204.3090  151.7670 N   0  0  0  0  0  0  0  0  0  0  0  0
  161.2930  202.6980  150.0250 C   0  0  1  0  0  3  0  0  0  0  0  0
  161.3850  201.7120  151.1500 C   0  0  0  0  0  0  0  0  0  0  0  0
  160.5400  200.7840  151.2650 O   0  0  0  0  0  0  0  0  0  0  0  0
  162.4740  201.7610  152.0130 O   0  0  0  0  0  1  0  0  0  0  0  0
  160.1300  202.3810  149.0730 C   0  0  0  0  0  2  0  0  0  0  0  0
  161.6090  199.5970  146.9500 C   0  0  0  0  0  3  0  0  0  0  0  0
  161.1980  199.9860  145.6700 C   0  0  0  0  0  3  0  0  0  0  0  0
  160.4530  201.1580  145.4970 C   0  0  0  0  0  3  0  0  0  0  0  0
  161.2800  200.3820  148.0580 C   0  0  0  0  0  3  0  0  0  0  0  0
  160.5380  201.5570  147.8880 C   0  0  0  0  0  0  0  0  0  0  0  0
  160.1220  201.9410  146.6060 C   0  0  0  0  0  3  0  0  0  0  0  0
  161.0760  209.1310  150.9640 O   0  0  0  0  0  0  0  0  0  0  0  0
  162.8890  208.9910  149.3080 N   0  0  0  0  0  2  0  0  0  0  0  0
  162.6980  210.7780  150.7690 O   0  0  0  0  0  0  0  0  0  0  0  0
  162.2150  209.6900  150.3590 C   0  0  0  0  0  0  0  0  0  0  0  0
  163.1570  206.9970  147.9740 N   0  0  0  0  0  0  0  0  0  0  0  0
  160.8730  204.7870  146.1970 N   0  0  0  0  0  1  0  0  0  0  0  0
  162.6810  205.9960  147.2280 N   0  0  0  0  0  0  0  0  0  0  0  0
  160.4670  206.8120  147.4950 C   0  0  0  0  0  3  0  0  0  0  0  0
  162.3330  207.9280  148.5260 C   0  0  0  0  0  0  0  0  0  0  0  0
  161.3540  205.8700  146.9820 C   0  0  0  0  0  0  0  0  0  0  0  0
  160.9630  207.8540  148.2740 C   0  0  0  0  0  3  0  0  0  0  0  0
  1  6  1  0  0  0  0
  2  3  2  0  0  0  0
  3  5  1  0  0  0  0
  4  1  2  0  0  0  0
  4  2  1  0  0  0  0
  6  5  2  0  0  0  0
  9  8  2  0  0  0  0
  9 11  1  0  0  0  0
 10  9  1  0  0  0  0
 12  6  1  1  0  0  0
 12 10  1  0  0  0  0
 12 13  1  0  0  0  0
 13  7  1  1  0  0  0
 13 11  1  0  0  0  0
 14 17  2  0  0  0  0
 15 13  1  0  0  0  0
 15 16  1  0  0  0  0
 15 14  1  1  0  0  0
 16 21  1  6  0  0  0
 16 18  1  0  0  0  0
 18 17  1  0  0  0  0
 19 20  2  0  0  0  0
 19 21  1  0  0  0  0
 21 22  1  0  0  0  0
 23 22  1  0  0  0  0
 24 19  1  0  0  0  0
 25 24  1  0  0  0  0
 27 26  1  1  0  0  0
 27 25  1  0  0  0  0
 28 27  1  0  0  0  0
 29 28  2  0  0  0  0
 30 31  2  0  0  0  0
 31 27  1  0  0  0  0
 32 33  2  0  0  0  0
 33  2  1  0  0  0  0
 34 38  1  1  0  0  0
 34 32  1  0  0  0  0
 34 35  1  0  0  0  0
 35 36  2  0  0  0  0
 35 37  1  0  0  0  0
 39 42  1  0  0  0  0
 40 39  2  0  0  0  0
 41 40  1  0  0  0  0
 41 44  2  0  0  0  0
 43 42  2  0  0  0  0
 43 38  1  0  0  0  0
 44 43  1  0  0  0  0
 45  1  1  0  0  0  0
 46 48  1  0  0  0  0
 48 47  2  0  0  0  0
 48 45  1  0  0  0  0
 49 53  2  0  0  0  0
 50 54  1  0  0  0  0
 51 49  1  0  0  0  0
 52 55  2  0  0  0  0
 53 46  1  0  0  0  0
 54 51  2  0  0  0  0
 54 52  1  0  0  0  0
 55 53  1  0  0  0  0
M  END
>  <MODEL>
5

>  <REMARK>
 VINA RESULT:      -3.2      2.619      9.282
  Name = 
  17 active torsions:
  status: ('A' for Active; 'I' for Inactive)
    1  A    between atoms: C_1  and  C_31
    2  A    between atoms: C_2  and  C_8
    3  A    between atoms: C_7  and  O_9
    4  A    between atoms: C_8  and  N_13
    5  A    between atoms: C_8  and  C_30
    6  A    between atoms: O_9  and  C_51
    7  A    between atoms: C_10  and  C_23
    8  A    between atoms: C_12  and  C_50
    9  A    between atoms: C_14  and  N_40
   10  A    between atoms: C_17  and  N_52
   11  A    between atoms: N_18  and  C_42
   12  A    between atoms: C_23  and  N_33
   13  A    between atoms: C_30  and  C_37
   14  A    between atoms: C_31  and  N_33
   15  A    between atoms: C_31  and  N_43
   16  A    between atoms: C_34  and  N_52
   17  A    between atoms: C_45  and  C_47
                            x       y       z     vdW  Elec       q    Type
                         _______ _______ _______ _____ _____    ______ ____

>  <TORSDO>
F 17

$$$$
