=
 OpenBabel11042421043D

 36 38  0  0  1  0  0  0  0  0999 V2000
  161.0720  208.1760  152.6230 C   0  0  0  0  0  3  0  0  0  0  0  0
  161.1480  210.3360  151.4620 C   0  0  0  0  0  0  0  0  0  0  0  0
  159.8720  210.1300  153.5600 C   0  0  2  0  0  3  0  0  0  0  0  0
  161.3100  208.8490  151.4830 C   0  0  0  0  0  0  0  0  0  0  0  0
  160.7240  208.8910  153.8990 C   0  0  2  0  0  3  0  0  0  0  0  0
  162.0070  209.2450  154.6370 C   0  0  0  0  0  1  0  0  0  0  0  0
  160.4880  210.9450  152.4540 C   0  0  0  0  0  3  0  0  0  0  0  0
  160.9700  203.6880  150.0040 C   0  0  0  0  0  3  0  0  0  0  0  0
  161.3710  206.7260  150.0620 C   0  0  0  0  0  0  0  0  0  0  0  0
  161.8470  207.6800  148.0050 N   0  0  0  0  0  0  0  0  0  0  0  0
  161.1190  205.9110  151.0370 N   0  0  0  0  0  0  0  0  0  0  0  0
  160.6160  203.8980  152.3150 N   0  0  0  0  0  1  0  0  0  0  0  0
  161.2390  204.0310  148.6450 N   0  0  0  0  0  0  0  0  0  0  0  0
  161.4660  205.2820  147.9890 C   0  0  0  0  0  0  0  0  0  0  0  0
  161.5330  206.4480  148.6500 C   0  0  0  0  0  0  0  0  0  0  0  0
  161.8600  208.7560  148.9920 C   0  0  0  0  0  3  0  0  0  0  0  0
  161.5810  208.1200  150.2750 N   0  0  0  0  0  0  0  0  0  0  0  0
  160.9050  204.4980  151.0590 C   0  0  2  0  0  3  0  0  0  0  0  0
  160.6610  205.8300  145.6840 C   0  0  0  0  0  1  0  0  0  0  0  0
  162.9460  204.8980  145.9760 C   0  0  0  0  0  1  0  0  0  0  0  0
  161.6610  205.2490  146.5630 N   0  0  0  0  0  0  0  0  0  0  0  0
  161.7500  211.1520  150.4540 N   0  0  0  0  0  2  0  0  0  0  0  0
  161.1020  212.2700  149.9080 N   0  0  0  0  0  0  0  0  0  0  0  0
  161.4660  212.7910  148.7770 C   0  0  0  0  0  3  0  0  0  0  0  0
  162.6090  212.2550  147.9750 C   0  0  0  0  0  2  0  0  0  0  0  0
  162.7440  213.0280  146.6770 C   0  0  0  0  0  1  0  0  0  0  0  0
  159.4420  210.9670  154.7650 C   0  0  0  0  0  2  0  0  0  0  0  0
  159.8080  212.3670  154.6010 N   0  0  0  0  0  2  0  0  0  0  0  0
  158.7210  213.1600  155.1450 C   0  0  0  0  0  2  0  0  0  0  0  0
  158.2680  214.1850  154.1190 C   0  0  0  0  0  2  0  0  0  0  0  0
  157.5330  213.5060  152.9720 C   0  0  2  0  0  3  0  0  0  0  0  0
  157.6350  213.4660  150.4710 O   0  0  0  0  0  0  0  0  0  0  0  0
  159.3210  214.4230  151.6930 O   0  0  0  0  0  1  0  0  0  0  0  0
  158.2130  213.8250  151.6830 C   0  0  0  0  0  0  0  0  0  0  0  0
  156.0810  213.9590  152.9090 C   0  0  0  0  0  2  0  0  0  0  0  0
  155.3480  213.3740  153.9410 O   0  0  0  0  0  1  0  0  0  0  0  0
  1  5  1  0  0  0  0
  2  4  1  0  0  0  0
  2  7  2  0  0  0  0
  3  5  1  0  0  0  0
  3 27  1  1  0  0  0
  4  1  2  0  0  0  0
  5  6  1  6  0  0  0
  7  3  1  0  0  0  0
  8 18  1  0  0  0  0
  9 17  1  0  0  0  0
  9 11  2  0  0  0  0
 10 15  1  0  0  0  0
 10 16  2  0  0  0  0
 11 18  1  0  0  0  0
 13  8  2  0  0  0  0
 14 13  1  0  0  0  0
 14 15  2  0  0  0  0
 15  9  1  0  0  0  0
 16 17  1  0  0  0  0
 17  4  1  0  0  0  0
 18 12  1  1  0  0  0
 19 21  1  0  0  0  0
 20 21  1  0  0  0  0
 21 14  1  0  0  0  0
 22  2  1  0  0  0  0
 23 22  1  0  0  0  0
 24 23  2  0  0  0  0
 25 24  1  0  0  0  0
 26 25  1  0  0  0  0
 28 27  1  0  0  0  0
 28 29  1  0  0  0  0
 30 29  1  0  0  0  0
 31 35  1  6  0  0  0
 31 30  1  0  0  0  0
 32 34  2  0  0  0  0
 34 33  1  0  0  0  0
 34 31  1  0  0  0  0
 35 36  1  0  0  0  0
M  END
>  <MODEL>
1

>  <REMARK>
 VINA RESULT:      -6.3      0.000      0.000
  Name = 
  12 active torsions:
  status: ('A' for Active; 'I' for Inactive)
    1  A    between atoms: C_3  and  C_35
    2  A    between atoms: N_4  and  C_22
    3  A    between atoms: N_4  and  C_34
    4  A    between atoms: C_5  and  C_31
    5  A    between atoms: N_10  and  N_13
    6  A    between atoms: N_13  and  C_16
    7  A    between atoms: C_17  and  C_22
    8  A    between atoms: C_19  and  N_27
    9  A    between atoms: C_21  and  N_33
   10  A    between atoms: C_25  and  C_35
   11  A    between atoms: C_32  and  C_34
   12  A    between atoms: C_32  and  C_35
                            x       y       z     vdW  Elec       q    Type
                         _______ _______ _______ _____ _____    ______ ____

>  <TORSDO>
F 12

$$$$
=
 OpenBabel11042421043D

 36 38  0  0  1  0  0  0  0  0999 V2000
  161.1250  208.2160  152.6680 C   0  0  0  0  0  3  0  0  0  0  0  0
  161.0760  210.3820  151.5160 C   0  0  0  0  0  0  0  0  0  0  0  0
  159.8150  210.0960  153.6130 C   0  0  2  0  0  3  0  0  0  0  0  0
  161.3240  208.9070  151.5310 C   0  0  0  0  0  0  0  0  0  0  0  0
  160.7360  208.9060  153.9480 C   0  0  2  0  0  3  0  0  0  0  0  0
  161.9980  209.3310  154.6860 C   0  0  0  0  0  1  0  0  0  0  0  0
  160.3830  210.9480  152.5100 C   0  0  0  0  0  3  0  0  0  0  0  0
  160.9990  203.7780  149.9390 C   0  0  0  0  0  3  0  0  0  0  0  0
  161.4230  206.8110  150.0720 C   0  0  0  0  0  0  0  0  0  0  0  0
  161.9870  207.8000  148.0540 N   0  0  0  0  0  0  0  0  0  0  0  0
  161.1260  205.9790  151.0200 N   0  0  0  0  0  0  0  0  0  0  0  0
  160.5560  203.9460  152.2380 N   0  0  0  0  0  1  0  0  0  0  0  0
  161.3240  204.1450  148.5980 N   0  0  0  0  0  0  0  0  0  0  0  0
  161.5870  205.4060  147.9760 C   0  0  0  0  0  0  0  0  0  0  0  0
  161.6380  206.5580  148.6620 C   0  0  0  0  0  0  0  0  0  0  0  0
  161.9710  208.8560  149.0620 C   0  0  0  0  0  3  0  0  0  0  0  0
  161.6350  208.1980  150.3200 N   0  0  0  0  0  0  0  0  0  0  0  0
  160.9000  204.5680  151.0060 C   0  0  2  0  0  3  0  0  0  0  0  0
  163.0700  204.8230  146.0480 C   0  0  0  0  0  1  0  0  0  0  0  0
  160.7900  205.6990  145.5950 C   0  0  0  0  0  1  0  0  0  0  0  0
  161.8380  205.3990  146.5590 N   0  0  0  0  0  0  0  0  0  0  0  0
  161.6310  211.2340  150.5100 N   0  0  0  0  0  2  0  0  0  0  0  0
  161.0450  212.4600  150.1620 N   0  0  0  0  0  0  0  0  0  0  0  0
  161.0660  212.9110  148.9450 C   0  0  0  0  0  3  0  0  0  0  0  0
  161.7250  212.1710  147.8240 C   0  0  0  0  0  2  0  0  0  0  0  0
  163.1790  212.5850  147.7080 C   0  0  0  0  0  1  0  0  0  0  0  0
  159.3370  210.9020  154.8200 C   0  0  0  0  0  2  0  0  0  0  0  0
  159.8900  212.2500  154.8150 N   0  0  0  0  0  2  0  0  0  0  0  0
  158.8080  213.1560  155.1530 C   0  0  0  0  0  2  0  0  0  0  0  0
  157.8480  213.2720  153.9800 C   0  0  0  0  0  2  0  0  0  0  0  0
  156.4420  213.5920  154.4670 C   0  0  2  0  0  3  0  0  0  0  0  0
  155.5620  212.6220  156.6000 O   0  0  0  0  0  1  0  0  0  0  0  0
  155.7960  211.3160  154.7320 O   0  0  0  0  0  0  0  0  0  0  0  0
  155.9170  212.4480  155.2670 C   0  0  0  0  0  0  0  0  0  0  0  0
  155.5090  213.8680  153.2960 C   0  0  0  0  0  2  0  0  0  0  0  0
  154.2910  214.3680  153.7580 O   0  0  0  0  0  1  0  0  0  0  0  0
  1  5  1  0  0  0  0
  2  4  1  0  0  0  0
  2  7  2  0  0  0  0
  3  5  1  0  0  0  0
  3 27  1  1  0  0  0
  4  1  2  0  0  0  0
  5  6  1  6  0  0  0
  7  3  1  0  0  0  0
  8 18  1  0  0  0  0
  9 17  1  0  0  0  0
  9 11  2  0  0  0  0
 10 15  1  0  0  0  0
 10 16  2  0  0  0  0
 13  8  2  0  0  0  0
 14 13  1  0  0  0  0
 14 15  2  0  0  0  0
 15  9  1  0  0  0  0
 16 17  1  0  0  0  0
 17  4  1  0  0  0  0
 18 11  1  0  0  0  0
 18 12  1  1  0  0  0
 19 21  1  0  0  0  0
 20 21  1  0  0  0  0
 21 14  1  0  0  0  0
 22  2  1  0  0  0  0
 23 22  1  0  0  0  0
 24 23  2  0  0  0  0
 25 24  1  0  0  0  0
 26 25  1  0  0  0  0
 28 27  1  0  0  0  0
 28 29  1  0  0  0  0
 30 31  1  0  0  0  0
 30 29  1  0  0  0  0
 31 35  1  6  0  0  0
 31 34  1  0  0  0  0
 33 34  2  0  0  0  0
 34 32  1  0  0  0  0
 35 36  1  0  0  0  0
M  END
>  <MODEL>
2

>  <REMARK>
 VINA RESULT:      -6.3      1.351      1.798
  Name = 
  12 active torsions:
  status: ('A' for Active; 'I' for Inactive)
    1  A    between atoms: C_3  and  C_35
    2  A    between atoms: N_4  and  C_22
    3  A    between atoms: N_4  and  C_34
    4  A    between atoms: C_5  and  C_31
    5  A    between atoms: N_10  and  N_13
    6  A    between atoms: N_13  and  C_16
    7  A    between atoms: C_17  and  C_22
    8  A    between atoms: C_19  and  N_27
    9  A    between atoms: C_21  and  N_33
   10  A    between atoms: C_25  and  C_35
   11  A    between atoms: C_32  and  C_34
   12  A    between atoms: C_32  and  C_35
                            x       y       z     vdW  Elec       q    Type
                         _______ _______ _______ _____ _____    ______ ____

>  <TORSDO>
F 12

$$$$
=
 OpenBabel11042421043D

 36 38  0  0  1  0  0  0  0  0999 V2000
  161.0520  206.2230  150.1890 C   0  0  0  0  0  3  0  0  0  0  0  0
  161.9020  208.4530  149.6170 C   0  0  0  0  0  0  0  0  0  0  0  0
  162.1510  206.6080  148.0020 C   0  0  2  0  0  3  0  0  0  0  0  0
  161.4400  207.4400  150.6150 C   0  0  0  0  0  0  0  0  0  0  0  0
  160.9970  205.8850  148.7250 C   0  0  2  0  0  3  0  0  0  0  0  0
  159.6300  206.2680  148.1770 C   0  0  0  0  0  1  0  0  0  0  0  0
  162.2170  208.0650  148.3750 C   0  0  0  0  0  3  0  0  0  0  0  0
  159.5530  211.2440  153.9170 C   0  0  0  0  0  3  0  0  0  0  0  0
  160.9020  208.7580  152.7370 C   0  0  0  0  0  0  0  0  0  0  0  0
  161.7790  207.2950  154.3050 N   0  0  0  0  0  0  0  0  0  0  0  0
  160.3450  209.7580  152.1300 N   0  0  0  0  0  0  0  0  0  0  0  0
  159.1490  211.8340  151.6820 N   0  0  0  0  0  1  0  0  0  0  0  0
  159.9980  210.5130  155.0590 N   0  0  0  0  0  2  0  0  0  0  0  0
  160.6520  209.2490  155.2040 C   0  0  0  0  0  0  0  0  0  0  0  0
  161.0500  208.5110  154.1560 C   0  0  0  0  0  0  0  0  0  0  0  0
  162.0780  206.7430  152.9860 C   0  0  0  0  0  3  0  0  0  0  0  0
  161.5340  207.6970  152.0260 N   0  0  0  0  0  0  0  0  0  0  0  0
  159.6890  210.9250  152.6320 C   0  0  0  0  0  0  0  0  0  0  0  0
  160.0970  207.7370  157.1190 C   0  0  0  0  0  1  0  0  0  0  0  0
  162.1270  209.1620  157.2560 C   0  0  0  0  0  1  0  0  0  0  0  0
  160.9110  208.7950  156.5460 N   0  0  0  0  0  0  0  0  0  0  0  0
  161.9410  209.8510  149.9160 N   0  0  0  0  0  2  0  0  0  0  0  0
  162.8100  210.7340  149.2580 N   0  0  0  0  0  0  0  0  0  0  0  0
  162.3790  211.7960  148.6500 C   0  0  0  0  0  3  0  0  0  0  0  0
  160.9280  212.1560  148.5890 C   0  0  0  0  0  2  0  0  0  0  0  0
  160.4620  212.2040  147.1470 C   0  0  0  0  0  1  0  0  0  0  0  0
  162.2240  206.3630  146.4950 C   0  0  0  0  0  2  0  0  0  0  0  0
  162.9200  205.1210  146.1890 N   0  0  0  0  0  2  0  0  0  0  0  0
  161.9090  204.1330  145.8630 C   0  0  0  0  0  2  0  0  0  0  0  0
  162.0270  202.9460  146.8050 C   0  0  0  0  0  2  0  0  0  0  0  0
  160.7010  202.2070  146.9060 C   0  0  2  0  0  3  0  0  0  0  0  0
  161.6140  200.5650  148.5600 O   0  0  0  0  0  0  0  0  0  0  0  0
  159.6710  201.6990  148.9920 O   0  0  0  0  0  1  0  0  0  0  0  0
  160.6300  201.4810  148.2080 C   0  0  0  0  0  0  0  0  0  0  0  0
  160.5370  201.2180  145.7600 C   0  0  0  0  0  2  0  0  0  0  0  0
  159.6180  201.7040  144.8300 O   0  0  0  0  0  1  0  0  0  0  0  0
  1  4  2  0  0  0  0
  2 22  1  0  0  0  0
  2  4  1  0  0  0  0
  3 27  1  6  0  0  0
  3  7  1  0  0  0  0
  3  5  1  0  0  0  0
  4 17  1  0  0  0  0
  5  6  1  6  0  0  0
  5  1  1  0  0  0  0
  7  2  2  0  0  0  0
  8 13  1  0  0  0  0
  9 15  1  0  0  0  0
 11 18  1  0  0  0  0
 11  9  2  0  0  0  0
 12 18  1  0  0  0  0
 13 14  1  0  0  0  0
 14 21  1  0  0  0  0
 15 10  1  0  0  0  0
 15 14  2  0  0  0  0
 16 10  2  0  0  0  0
 17  9  1  0  0  0  0
 17 16  1  0  0  0  0
 18  8  2  0  0  0  0
 21 19  1  0  0  0  0
 21 20  1  0  0  0  0
 23 22  1  0  0  0  0
 24 23  2  0  0  0  0
 25 24  1  0  0  0  0
 26 25  1  0  0  0  0
 28 27  1  0  0  0  0
 29 28  1  0  0  0  0
 29 30  1  0  0  0  0
 30 31  1  0  0  0  0
 31 35  1  6  0  0  0
 31 34  1  0  0  0  0
 34 32  2  0  0  0  0
 34 33  1  0  0  0  0
 36 35  1  0  0  0  0
M  END
>  <MODEL>
3

>  <REMARK>
 VINA RESULT:      -5.9      4.253      8.879
  Name = 
  12 active torsions:
  status: ('A' for Active; 'I' for Inactive)
    1  A    between atoms: C_3  and  C_35
    2  A    between atoms: N_4  and  C_22
    3  A    between atoms: N_4  and  C_34
    4  A    between atoms: C_5  and  C_31
    5  A    between atoms: N_10  and  N_13
    6  A    between atoms: N_13  and  C_16
    7  A    between atoms: C_17  and  C_22
    8  A    between atoms: C_19  and  N_27
    9  A    between atoms: C_21  and  N_33
   10  A    between atoms: C_25  and  C_35
   11  A    between atoms: C_32  and  C_34
   12  A    between atoms: C_32  and  C_35
                            x       y       z     vdW  Elec       q    Type
                         _______ _______ _______ _____ _____    ______ ____

>  <TORSDO>
F 12

$$$$
=
 OpenBabel11042421043D

 36 38  0  0  1  0  0  0  0  0999 V2000
  161.4270  208.6400  150.1480 C   0  0  0  0  0  3  0  0  0  0  0  0
  161.4620  206.3560  151.0440 C   0  0  0  0  0  0  0  0  0  0  0  0
  160.8170  206.7280  148.6950 C   0  0  2  0  0  3  0  0  0  0  0  0
  161.4210  207.8400  151.2300 C   0  0  0  0  0  0  0  0  0  0  0  0
  161.5550  208.0810  148.7580 C   0  0  2  0  0  3  0  0  0  0  0  0
  163.0300  207.9600  148.4040 C   0  0  0  0  0  1  0  0  0  0  0  0
  161.1990  205.8310  149.8420 C   0  0  0  0  0  3  0  0  0  0  0  0
  159.8580  212.6450  153.0750 C   0  0  0  0  0  3  0  0  0  0  0  0
  160.7530  209.7250  152.8210 C   0  0  0  0  0  0  0  0  0  0  0  0
  160.8150  208.5530  154.8180 N   0  0  0  0  0  0  0  0  0  0  0  0
  160.6390  210.6340  151.9040 N   0  0  0  0  0  0  0  0  0  0  0  0
  160.1700  212.7280  150.7500 N   0  0  0  0  0  1  0  0  0  0  0  0
  159.8080  212.1470  154.4110 N   0  0  0  0  0  2  0  0  0  0  0  0
  160.0550  210.8540  154.9720 C   0  0  0  0  0  0  0  0  0  0  0  0
  160.4860  209.8150  154.2410 C   0  0  0  0  0  0  0  0  0  0  0  0
  161.2660  207.6420  153.7700 C   0  0  0  0  0  3  0  0  0  0  0  0
  161.2370  208.4160  152.5340 N   0  0  0  0  0  0  0  0  0  0  0  0
  160.2090  211.9950  151.9680 C   0  0  0  0  0  0  0  0  0  0  0  0
  158.5490  210.9680  156.9670 C   0  0  0  0  0  1  0  0  0  0  0  0
  160.8390  210.0420  157.2350 C   0  0  0  0  0  1  0  0  0  0  0  0
  159.8560  210.7060  156.3900 N   0  0  0  0  0  0  0  0  0  0  0  0
  161.8580  205.4700  152.0950 N   0  0  0  0  0  2  0  0  0  0  0  0
  160.9360  204.6780  152.7940 N   0  0  0  0  0  0  0  0  0  0  0  0
  160.8330  203.4000  152.5900 C   0  0  0  0  0  3  0  0  0  0  0  0
  161.6750  202.6760  151.5870 C   0  0  0  0  0  2  0  0  0  0  0  0
  160.8230  202.2340  150.4130 C   0  0  0  0  0  1  0  0  0  0  0  0
  160.8630  206.0300  147.3360 C   0  0  0  0  0  2  0  0  0  0  0  0
  162.2320  205.8370  146.8800 N   0  0  0  0  0  2  0  0  0  0  0  0
  162.3520  204.4520  146.4620 C   0  0  0  0  0  2  0  0  0  0  0  0
  161.0540  203.7150  146.7470 C   0  0  0  0  0  2  0  0  0  0  0  0
  161.1530  202.2640  146.3010 C   0  0  2  0  0  3  0  0  0  0  0  0
  159.9360  200.7540  144.7170 O   0  0  0  0  0  1  0  0  0  0  0  0
  159.8290  203.0300  144.4760 O   0  0  0  0  0  0  0  0  0  0  0  0
  160.2710  202.0420  145.1180 C   0  0  0  0  0  0  0  0  0  0  0  0
  160.7480  201.3180  147.4230 C   0  0  0  0  0  2  0  0  0  0  0  0
  161.5740  200.1930  147.4290 O   0  0  0  0  0  1  0  0  0  0  0  0
  1  4  2  0  0  0  0
  2  4  1  0  0  0  0
  2 22  1  0  0  0  0
  3 27  1  6  0  0  0
  3  5  1  0  0  0  0
  3  7  1  0  0  0  0
  4 17  1  0  0  0  0
  5  6  1  1  0  0  0
  5  1  1  0  0  0  0
  7  2  2  0  0  0  0
  8 13  1  0  0  0  0
  9 15  1  0  0  0  0
 11 18  1  0  0  0  0
 11  9  2  0  0  0  0
 12 18  1  0  0  0  0
 13 14  1  0  0  0  0
 14 21  1  0  0  0  0
 15 10  1  0  0  0  0
 15 14  2  0  0  0  0
 16 10  2  0  0  0  0
 17  9  1  0  0  0  0
 17 16  1  0  0  0  0
 18  8  2  0  0  0  0
 21 19  1  0  0  0  0
 21 20  1  0  0  0  0
 22 23  1  0  0  0  0
 24 23  2  0  0  0  0
 25 24  1  0  0  0  0
 26 25  1  0  0  0  0
 28 27  1  0  0  0  0
 29 30  1  0  0  0  0
 29 28  1  0  0  0  0
 31 30  1  1  0  0  0
 31 35  1  0  0  0  0
 32 34  1  0  0  0  0
 33 34  2  0  0  0  0
 34 31  1  0  0  0  0
 35 36  1  0  0  0  0
M  END
>  <MODEL>
4

>  <REMARK>
 VINA RESULT:      -5.8      4.408      9.676
  Name = 
  12 active torsions:
  status: ('A' for Active; 'I' for Inactive)
    1  A    between atoms: C_3  and  C_35
    2  A    between atoms: N_4  and  C_22
    3  A    between atoms: N_4  and  C_34
    4  A    between atoms: C_5  and  C_31
    5  A    between atoms: N_10  and  N_13
    6  A    between atoms: N_13  and  C_16
    7  A    between atoms: C_17  and  C_22
    8  A    between atoms: C_19  and  N_27
    9  A    between atoms: C_21  and  N_33
   10  A    between atoms: C_25  and  C_35
   11  A    between atoms: C_32  and  C_34
   12  A    between atoms: C_32  and  C_35
                            x       y       z     vdW  Elec       q    Type
                         _______ _______ _______ _____ _____    ______ ____

>  <TORSDO>
F 12

$$$$
=
 OpenBabel11042421043D

 36 38  0  0  1  0  0  0  0  0999 V2000
  160.3810  209.7760  152.3990 C   0  0  0  0  0  3  0  0  0  0  0  0
  160.4650  208.5370  154.5160 C   0  0  0  0  0  0  0  0  0  0  0  0
  160.8330  207.3400  152.3940 C   0  0  2  0  0  3  0  0  0  0  0  0
  160.0650  209.7300  153.7060 C   0  0  0  0  0  0  0  0  0  0  0  0
  161.1980  208.6920  151.7500 C   0  0  2  0  0  3  0  0  0  0  0  0
  162.6750  209.0290  151.8920 C   0  0  0  0  0  1  0  0  0  0  0  0
  160.8500  207.4150  153.8970 C   0  0  0  0  0  3  0  0  0  0  0  0
  157.9100  214.3020  151.8660 C   0  0  0  0  0  3  0  0  0  0  0  0
  158.7120  211.8940  153.5840 C   0  0  0  0  0  0  0  0  0  0  0  0
  157.6640  211.7830  155.6470 N   0  0  0  0  0  0  0  0  0  0  0  0
  159.1320  212.2430  152.4090 N   0  0  0  0  0  0  0  0  0  0  0  0
  159.4150  213.4220  150.2950 N   0  0  0  0  0  1  0  0  0  0  0  0
  157.1410  214.4520  153.0590 N   0  0  0  0  0  2  0  0  0  0  0  0
  157.0110  213.6470  154.2340 C   0  0  0  0  0  0  0  0  0  0  0  0
  157.7320  212.5340  154.4370 C   0  0  0  0  0  0  0  0  0  0  0  0
  158.5760  210.6460  155.5660 C   0  0  0  0  0  3  0  0  0  0  0  0
  159.2330  210.7580  154.2680 N   0  0  0  0  0  0  0  0  0  0  0  0
  158.7770  213.3390  151.5630 C   0  0  0  0  0  0  0  0  0  0  0  0
  154.6720  214.2230  154.9130 C   0  0  0  0  0  1  0  0  0  0  0  0
  156.4540  214.1750  156.6440 C   0  0  0  0  0  1  0  0  0  0  0  0
  156.0820  214.0980  155.2390 N   0  0  0  0  0  0  0  0  0  0  0  0
  160.5340  208.5770  155.9430 N   0  0  0  0  0  2  0  0  0  0  0  0
  161.6700  208.1540  156.6500 N   0  0  0  0  0  0  0  0  0  0  0  0
  162.5280  208.9960  157.1400 C   0  0  0  0  0  3  0  0  0  0  0  0
  162.3840  210.4760  156.9790 C   0  0  0  0  0  2  0  0  0  0  0  0
  163.1930  210.9530  155.7880 C   0  0  0  0  0  1  0  0  0  0  0  0
  161.5890  206.1340  151.8370 C   0  0  0  0  0  2  0  0  0  0  0  0
  161.4150  204.9580  152.6780 N   0  0  0  0  0  2  0  0  0  0  0  0
  160.9820  203.8750  151.8140 C   0  0  0  0  0  2  0  0  0  0  0  0
  160.6740  204.4150  150.4280 C   0  0  0  0  0  2  0  0  0  0  0  0
  161.1610  203.4510  149.3560 C   0  0  2  0  0  3  0  0  0  0  0  0
  161.5320  203.4480  146.8800 O   0  0  0  0  0  0  0  0  0  0  0  0
  160.8710  205.3580  147.9600 O   0  0  0  0  0  1  0  0  0  0  0  0
  161.1780  204.1400  148.0330 C   0  0  0  0  0  0  0  0  0  0  0  0
  160.2680  202.2210  149.2800 C   0  0  0  0  0  2  0  0  0  0  0  0
  161.0310  201.0860  149.0020 O   0  0  0  0  0  1  0  0  0  0  0  0
  1  4  2  0  0  0  0
  2 22  1  0  0  0  0
  3 27  1  1  0  0  0
  3  7  1  0  0  0  0
  4 17  1  0  0  0  0
  4  2  1  0  0  0  0
  5  6  1  1  0  0  0
  5  3  1  0  0  0  0
  5  1  1  0  0  0  0
  7  2  2  0  0  0  0
  8 13  1  0  0  0  0
  9 17  1  0  0  0  0
  9 15  1  0  0  0  0
 11  9  2  0  0  0  0
 12 18  1  0  0  0  0
 13 14  1  0  0  0  0
 14 15  2  0  0  0  0
 14 21  1  0  0  0  0
 15 10  1  0  0  0  0
 16 10  2  0  0  0  0
 17 16  1  0  0  0  0
 18  8  2  0  0  0  0
 18 11  1  0  0  0  0
 19 21  1  0  0  0  0
 21 20  1  0  0  0  0
 22 23  1  0  0  0  0
 23 24  2  0  0  0  0
 25 24  1  0  0  0  0
 26 25  1  0  0  0  0
 27 28  1  0  0  0  0
 29 28  1  0  0  0  0
 30 29  1  0  0  0  0
 31 35  1  6  0  0  0
 31 30  1  0  0  0  0
 32 34  2  0  0  0  0
 33 34  1  0  0  0  0
 34 31  1  0  0  0  0
 36 35  1  0  0  0  0
M  END
>  <MODEL>
5

>  <REMARK>
 VINA RESULT:      -5.8      3.980      9.329
  Name = 
  12 active torsions:
  status: ('A' for Active; 'I' for Inactive)
    1  A    between atoms: C_3  and  C_35
    2  A    between atoms: N_4  and  C_22
    3  A    between atoms: N_4  and  C_34
    4  A    between atoms: C_5  and  C_31
    5  A    between atoms: N_10  and  N_13
    6  A    between atoms: N_13  and  C_16
    7  A    between atoms: C_17  and  C_22
    8  A    between atoms: C_19  and  N_27
    9  A    between atoms: C_21  and  N_33
   10  A    between atoms: C_25  and  C_35
   11  A    between atoms: C_32  and  C_34
   12  A    between atoms: C_32  and  C_35
                            x       y       z     vdW  Elec       q    Type
                         _______ _______ _______ _____ _____    ______ ____

>  <TORSDO>
F 12

$$$$
=
 OpenBabel11042421043D

 36 38  0  0  1  0  0  0  0  0999 V2000
  161.9300  209.0580  150.3890 C   0  0  0  0  0  3  0  0  0  0  0  0
  160.9280  206.9860  151.2410 C   0  0  0  0  0  0  0  0  0  0  0  0
  160.8640  207.4600  148.8230 C   0  0  2  0  0  3  0  0  0  0  0  0
  161.4390  208.3770  151.4410 C   0  0  0  0  0  0  0  0  0  0  0  0
  162.0500  208.4230  149.0310 C   0  0  2  0  0  3  0  0  0  0  0  0
  163.3980  207.7240  148.9250 C   0  0  0  0  0  1  0  0  0  0  0  0
  160.6760  206.5440  150.0030 C   0  0  0  0  0  3  0  0  0  0  0  0
  159.4270  213.1070  153.0260 C   0  0  0  0  0  3  0  0  0  0  0  0
  160.6660  210.3060  152.9290 C   0  0  0  0  0  0  0  0  0  0  0  0
  161.0380  209.3380  155.0000 N   0  0  0  0  0  0  0  0  0  0  0  0
  160.3620  211.1060  151.9550 N   0  0  0  0  0  0  0  0  0  0  0  0
  159.5370  213.0140  150.6840 N   0  0  0  0  0  1  0  0  0  0  0  0
  159.5500  212.7310  154.3980 N   0  0  0  0  0  2  0  0  0  0  0  0
  160.0040  211.5350  155.0360 C   0  0  0  0  0  0  0  0  0  0  0  0
  160.5050  210.4920  154.3560 C   0  0  0  0  0  0  0  0  0  0  0  0
  161.5170  208.3960  153.9930 C   0  0  0  0  0  3  0  0  0  0  0  0
  161.2890  209.0440  152.7050 N   0  0  0  0  0  0  0  0  0  0  0  0
  159.7680  212.4060  151.9480 C   0  0  0  0  0  0  0  0  0  0  0  0
  161.0330  212.0450  157.2600 C   0  0  0  0  0  1  0  0  0  0  0  0
  158.7090  211.1700  157.1770 C   0  0  0  0  0  1  0  0  0  0  0  0
  159.9410  211.4940  156.4740 N   0  0  0  0  0  0  0  0  0  0  0  0
  160.7740  206.0690  152.3280 N   0  0  0  0  0  2  0  0  0  0  0  0
  161.6830  205.0270  152.5620 N   0  0  0  0  0  0  0  0  0  0  0  0
  161.4960  203.8330  152.0890 C   0  0  0  0  0  3  0  0  0  0  0  0
  160.2960  203.4700  151.2730 C   0  0  0  0  0  2  0  0  0  0  0  0
  160.7160  202.6740  150.0520 C   0  0  0  0  0  1  0  0  0  0  0  0
  160.8500  206.7320  147.4800 C   0  0  0  0  0  2  0  0  0  0  0  0
  161.2390  205.3360  147.6240 N   0  0  0  0  0  2  0  0  0  0  0  0
  162.3950  205.1240  146.7720 C   0  0  0  0  0  2  0  0  0  0  0  0
  162.2730  203.7850  146.0640 C   0  0  0  0  0  2  0  0  0  0  0  0
  160.8180  203.4810  145.7370 C   0  0  2  0  0  3  0  0  0  0  0  0
  159.8300  201.3790  144.8050 O   0  0  0  0  0  0  0  0  0  0  0  0
  161.0900  201.3290  146.7180 O   0  0  0  0  0  1  0  0  0  0  0  0
  160.5910  202.0080  145.7840 C   0  0  0  0  0  0  0  0  0  0  0  0
  160.4450  204.0120  144.3600 C   0  0  0  0  0  2  0  0  0  0  0  0
  160.5180  205.4060  144.3440 O   0  0  0  0  0  1  0  0  0  0  0  0
  1  4  2  0  0  0  0
  2  4  1  0  0  0  0
  2 22  1  0  0  0  0
  3 27  1  6  0  0  0
  3  5  1  0  0  0  0
  3  7  1  0  0  0  0
  4 17  1  0  0  0  0
  5  6  1  1  0  0  0
  5  1  1  0  0  0  0
  7  2  2  0  0  0  0
  8 13  1  0  0  0  0
  9 15  1  0  0  0  0
 11  9  2  0  0  0  0
 12 18  1  0  0  0  0
 13 14  1  0  0  0  0
 14 21  1  0  0  0  0
 15 10  1  0  0  0  0
 15 14  2  0  0  0  0
 16 10  2  0  0  0  0
 17  9  1  0  0  0  0
 17 16  1  0  0  0  0
 18 11  1  0  0  0  0
 18  8  2  0  0  0  0
 21 20  1  0  0  0  0
 21 19  1  0  0  0  0
 22 23  1  0  0  0  0
 24 23  2  0  0  0  0
 25 24  1  0  0  0  0
 26 25  1  0  0  0  0
 27 28  1  0  0  0  0
 29 28  1  0  0  0  0
 30 29  1  0  0  0  0
 31 35  1  6  0  0  0
 31 34  1  0  0  0  0
 31 30  1  0  0  0  0
 32 34  2  0  0  0  0
 34 33  1  0  0  0  0
 36 35  1  0  0  0  0
M  END
>  <MODEL>
6

>  <REMARK>
 VINA RESULT:      -5.7      3.985      9.543
  Name = 
  12 active torsions:
  status: ('A' for Active; 'I' for Inactive)
    1  A    between atoms: C_3  and  C_35
    2  A    between atoms: N_4  and  C_22
    3  A    between atoms: N_4  and  C_34
    4  A    between atoms: C_5  and  C_31
    5  A    between atoms: N_10  and  N_13
    6  A    between atoms: N_13  and  C_16
    7  A    between atoms: C_17  and  C_22
    8  A    between atoms: C_19  and  N_27
    9  A    between atoms: C_21  and  N_33
   10  A    between atoms: C_25  and  C_35
   11  A    between atoms: C_32  and  C_34
   12  A    between atoms: C_32  and  C_35
                            x       y       z     vdW  Elec       q    Type
                         _______ _______ _______ _____ _____    ______ ____

>  <TORSDO>
F 12

$$$$
=
 OpenBabel11042421043D

 36 38  0  0  1  0  0  0  0  0999 V2000
  161.2190  206.8980  150.2050 C   0  0  0  0  0  3  0  0  0  0  0  0
  161.8640  208.8640  148.8870 C   0  0  0  0  0  0  0  0  0  0  0  0
  162.4650  206.6140  148.0820 C   0  0  2  0  0  3  0  0  0  0  0  0
  161.4270  208.2270  150.1670 C   0  0  0  0  0  0  0  0  0  0  0  0
  161.3370  206.0490  148.9690 C   0  0  2  0  0  3  0  0  0  0  0  0
  159.9920  206.0170  148.2570 C   0  0  0  0  0  1  0  0  0  0  0  0
  162.3330  208.1020  147.8920 C   0  0  0  0  0  3  0  0  0  0  0  0
  161.1020  207.0040  155.3960 C   0  0  0  0  0  3  0  0  0  0  0  0
  161.3320  208.4630  152.7100 C   0  0  0  0  0  0  0  0  0  0  0  0
  161.6550  210.7500  152.8740 N   0  0  0  0  0  0  0  0  0  0  0  0
  161.1290  207.2050  152.9490 N   0  0  0  0  0  0  0  0  0  0  0  0
  160.8320  205.0720  154.0900 N   0  0  0  0  0  1  0  0  0  0  0  0
  161.2990  208.3710  155.7560 N   0  0  0  0  0  2  0  0  0  0  0  0
  161.5260  209.5520  154.9830 C   0  0  0  0  0  0  0  0  0  0  0  0
  161.5160  209.5560  153.6410 C   0  0  0  0  0  0  0  0  0  0  0  0
  161.5870  210.4260  151.4530 C   0  0  0  0  0  3  0  0  0  0  0  0
  161.3610  208.9860  151.3850 N   0  0  0  0  0  0  0  0  0  0  0  0
  161.0350  206.4770  154.1760 C   0  0  0  0  0  0  0  0  0  0  0  0
  160.6050  211.6520  155.9850 C   0  0  0  0  0  1  0  0  0  0  0  0
  162.9800  211.0540  156.4060 C   0  0  0  0  0  1  0  0  0  0  0  0
  161.7330  210.7800  155.7060 N   0  0  0  0  0  0  0  0  0  0  0  0
  161.7190  210.2670  148.6490 N   0  0  0  0  0  2  0  0  0  0  0  0
  162.8020  211.0810  148.2860 N   0  0  0  0  0  0  0  0  0  0  0  0
  162.6380  212.3030  147.8820 C   0  0  0  0  0  3  0  0  0  0  0  0
  161.2880  212.9350  147.7570 C   0  0  0  0  0  2  0  0  0  0  0  0
  160.9710  213.7410  149.0020 C   0  0  0  0  0  1  0  0  0  0  0  0
  162.7030  205.8540  146.7780 C   0  0  0  0  0  2  0  0  0  0  0  0
  161.5730  205.9840  145.8690 N   0  0  0  0  0  2  0  0  0  0  0  0
  161.3510  204.6790  145.2740 C   0  0  0  0  0  2  0  0  0  0  0  0
  161.9580  203.6010  146.1560 C   0  0  0  0  0  2  0  0  0  0  0  0
  160.8940  202.6040  146.5940 C   0  0  2  0  0  3  0  0  0  0  0  0
  161.1660  200.7610  148.2650 O   0  0  0  0  0  0  0  0  0  0  0  0
  161.4850  202.9460  148.8750 O   0  0  0  0  0  1  0  0  0  0  0  0
  161.1990  202.1190  147.9710 C   0  0  0  0  0  0  0  0  0  0  0  0
  160.8280  201.4210  145.6380 C   0  0  0  0  0  2  0  0  0  0  0  0
  159.6660  201.4860  144.8690 O   0  0  0  0  0  1  0  0  0  0  0  0
  2  4  1  0  0  0  0
  3 27  1  6  0  0  0
  3  5  1  0  0  0  0
  4  1  2  0  0  0  0
  4 17  1  0  0  0  0
  5  6  1  6  0  0  0
  5  1  1  0  0  0  0
  7  3  1  0  0  0  0
  7  2  2  0  0  0  0
  8 13  1  0  0  0  0
  9 11  2  0  0  0  0
  9 15  1  0  0  0  0
 10 15  1  0  0  0  0
 11 18  1  0  0  0  0
 12 18  1  0  0  0  0
 14 21  1  0  0  0  0
 14 13  1  0  0  0  0
 15 14  2  0  0  0  0
 16 10  2  0  0  0  0
 17 16  1  0  0  0  0
 17  9  1  0  0  0  0
 18  8  2  0  0  0  0
 21 19  1  0  0  0  0
 21 20  1  0  0  0  0
 22  2  1  0  0  0  0
 23 22  1  0  0  0  0
 24 23  2  0  0  0  0
 25 24  1  0  0  0  0
 25 26  1  0  0  0  0
 28 27  1  0  0  0  0
 29 28  1  0  0  0  0
 29 30  1  0  0  0  0
 30 31  1  0  0  0  0
 31 35  1  6  0  0  0
 31 34  1  0  0  0  0
 34 32  2  0  0  0  0
 34 33  1  0  0  0  0
 36 35  1  0  0  0  0
M  END
>  <MODEL>
7

>  <REMARK>
 VINA RESULT:      -5.5      4.156      8.527
  Name = 
  12 active torsions:
  status: ('A' for Active; 'I' for Inactive)
    1  A    between atoms: C_3  and  C_35
    2  A    between atoms: N_4  and  C_22
    3  A    between atoms: N_4  and  C_34
    4  A    between atoms: C_5  and  C_31
    5  A    between atoms: N_10  and  N_13
    6  A    between atoms: N_13  and  C_16
    7  A    between atoms: C_17  and  C_22
    8  A    between atoms: C_19  and  N_27
    9  A    between atoms: C_21  and  N_33
   10  A    between atoms: C_25  and  C_35
   11  A    between atoms: C_32  and  C_34
   12  A    between atoms: C_32  and  C_35
                            x       y       z     vdW  Elec       q    Type
                         _______ _______ _______ _____ _____    ______ ____

>  <TORSDO>
F 12

$$$$
=
 OpenBabel11042421043D

 36 38  0  0  1  0  0  0  0  0999 V2000
  161.2670  208.0290  151.5400 C   0  0  0  0  0  3  0  0  0  0  0  0
  160.7470  207.4340  153.8630 C   0  0  0  0  0  0  0  0  0  0  0  0
  160.8980  205.6580  152.1610 C   0  0  2  0  0  3  0  0  0  0  0  0
  160.8340  208.4290  152.7500 C   0  0  0  0  0  0  0  0  0  0  0  0
  161.7410  206.6210  151.3010 C   0  0  2  0  0  3  0  0  0  0  0  0
  163.2280  206.5380  151.6160 C   0  0  0  0  0  1  0  0  0  0  0  0
  160.8000  206.1250  153.5890 C   0  0  0  0  0  3  0  0  0  0  0  0
  160.9390  212.9150  149.7830 C   0  0  0  0  0  3  0  0  0  0  0  0
  160.4220  210.8260  151.9650 C   0  0  0  0  0  0  0  0  0  0  0  0
  158.9920  211.5180  153.6510 N   0  0  0  0  0  0  0  0  0  0  0  0
  161.1800  210.7510  150.9160 N   0  0  0  0  0  0  0  0  0  0  0  0
  162.3170  211.2750  148.8250 N   0  0  0  0  0  1  0  0  0  0  0  0
  160.0420  213.5650  150.6840 N   0  0  0  0  0  2  0  0  0  0  0  0
  159.3800  213.1270  151.8740 C   0  0  0  0  0  0  0  0  0  0  0  0
  159.5860  211.9180  152.4180 C   0  0  0  0  0  0  0  0  0  0  0  0
  159.4210  210.1620  153.9800 C   0  0  0  0  0  3  0  0  0  0  0  0
  160.3350  209.7660  152.9140 N   0  0  0  0  0  0  0  0  0  0  0  0
  161.4380  211.6840  149.8650 C   0  0  0  0  0  0  0  0  0  0  0  0
  157.2410  214.4250  151.8620 C   0  0  0  0  0  1  0  0  0  0  0  0
  158.6580  214.4530  153.9020 C   0  0  0  0  0  1  0  0  0  0  0  0
  158.4890  214.0620  152.5110 N   0  0  0  0  0  0  0  0  0  0  0  0
  160.6940  207.8330  155.2350 N   0  0  0  0  0  2  0  0  0  0  0  0
  161.7530  207.5980  156.1250 N   0  0  0  0  0  0  0  0  0  0  0  0
  162.3340  208.5620  156.7710 C   0  0  0  0  0  3  0  0  0  0  0  0
  161.9330  209.9940  156.6100 C   0  0  0  0  0  2  0  0  0  0  0  0
  163.1230  210.8230  156.1640 C   0  0  0  0  0  1  0  0  0  0  0  0
  161.2680  204.1820  152.0280 C   0  0  0  0  0  2  0  0  0  0  0  0
  160.5030  203.5310  150.9730 N   0  0  0  0  0  2  0  0  0  0  0  0
  161.3590  203.4640  149.8030 C   0  0  0  0  0  2  0  0  0  0  0  0
  160.7390  204.2580  148.6650 C   0  0  0  0  0  2  0  0  0  0  0  0
  161.8180  204.9410  147.8370 C   0  0  2  0  0  3  0  0  0  0  0  0
  160.7450  206.2480  145.9910 O   0  0  0  0  0  0  0  0  0  0  0  0
  161.3250  207.2670  147.9600 O   0  0  0  0  0  1  0  0  0  0  0  0
  161.2840  206.2140  147.2720 C   0  0  0  0  0  0  0  0  0  0  0  0
  162.2910  204.0390  146.7060 C   0  0  0  0  0  2  0  0  0  0  0  0
  161.2410  203.2390  146.2540 O   0  0  0  0  0  1  0  0  0  0  0  0
  1  4  2  0  0  0  0
  2 22  1  0  0  0  0
  3 27  1  1  0  0  0
  3  7  1  0  0  0  0
  4 17  1  0  0  0  0
  4  2  1  0  0  0  0
  5  1  1  0  0  0  0
  5  6  1  1  0  0  0
  5  3  1  0  0  0  0
  7  2  2  0  0  0  0
  8 18  2  0  0  0  0
  8 13  1  0  0  0  0
  9 15  1  0  0  0  0
  9 17  1  0  0  0  0
 10 16  2  0  0  0  0
 11  9  2  0  0  0  0
 12 18  1  0  0  0  0
 13 14  1  0  0  0  0
 14 15  2  0  0  0  0
 14 21  1  0  0  0  0
 15 10  1  0  0  0  0
 17 16  1  0  0  0  0
 18 11  1  0  0  0  0
 19 21  1  0  0  0  0
 21 20  1  0  0  0  0
 22 23  1  0  0  0  0
 23 24  2  0  0  0  0
 25 24  1  0  0  0  0
 26 25  1  0  0  0  0
 28 27  1  0  0  0  0
 29 28  1  0  0  0  0
 30 29  1  0  0  0  0
 31 35  1  6  0  0  0
 31 30  1  0  0  0  0
 32 34  2  0  0  0  0
 34 31  1  0  0  0  0
 34 33  1  0  0  0  0
 36 35  1  0  0  0  0
M  END
>  <MODEL>
8

>  <REMARK>
 VINA RESULT:      -5.4      3.360      8.476
  Name = 
  12 active torsions:
  status: ('A' for Active; 'I' for Inactive)
    1  A    between atoms: C_3  and  C_35
    2  A    between atoms: N_4  and  C_22
    3  A    between atoms: N_4  and  C_34
    4  A    between atoms: C_5  and  C_31
    5  A    between atoms: N_10  and  N_13
    6  A    between atoms: N_13  and  C_16
    7  A    between atoms: C_17  and  C_22
    8  A    between atoms: C_19  and  N_27
    9  A    between atoms: C_21  and  N_33
   10  A    between atoms: C_25  and  C_35
   11  A    between atoms: C_32  and  C_34
   12  A    between atoms: C_32  and  C_35
                            x       y       z     vdW  Elec       q    Type
                         _______ _______ _______ _____ _____    ______ ____

>  <TORSDO>
F 12

$$$$
=
 OpenBabel11042421043D

 36 38  0  0  1  0  0  0  0  0999 V2000
  161.0830  206.9810  150.7170 C   0  0  0  0  0  3  0  0  0  0  0  0
  161.9360  209.0680  149.7480 C   0  0  0  0  0  0  0  0  0  0  0  0
  162.2590  206.9470  148.5360 C   0  0  2  0  0  3  0  0  0  0  0  0
  161.4450  208.2630  150.9090 C   0  0  0  0  0  0  0  0  0  0  0  0
  161.0850  206.3620  149.3460 C   0  0  2  0  0  3  0  0  0  0  0  0
  159.7360  206.6100  148.6860 C   0  0  0  0  0  1  0  0  0  0  0  0
  162.3000  208.4500  148.6190 C   0  0  0  0  0  3  0  0  0  0  0  0
  159.5280  212.6850  153.3000 C   0  0  0  0  0  3  0  0  0  0  0  0
  160.8530  209.9870  152.7010 C   0  0  0  0  0  0  0  0  0  0  0  0
  161.6160  208.8460  154.5670 N   0  0  0  0  0  0  0  0  0  0  0  0
  160.3530  210.8580  151.8820 N   0  0  0  0  0  0  0  0  0  0  0  0
  159.2400  212.8280  150.9750 N   0  0  0  0  0  1  0  0  0  0  0  0
  159.9000  212.1850  154.5840 N   0  0  0  0  0  2  0  0  0  0  0  0
  160.5090  210.9620  155.0080 C   0  0  0  0  0  0  0  0  0  0  0  0
  160.9310  210.0230  154.1460 C   0  0  0  0  0  0  0  0  0  0  0  0
  161.9570  208.0380  153.4000 C   0  0  0  0  0  3  0  0  0  0  0  0
  161.4840  208.7930  152.2440 N   0  0  0  0  0  0  0  0  0  0  0  0
  159.7110  212.1140  152.1120 C   0  0  0  0  0  0  0  0  0  0  0  0
  159.7480  209.9740  157.1770 C   0  0  0  0  0  1  0  0  0  0  0  0
  161.9400  211.1380  157.0840 C   0  0  0  0  0  1  0  0  0  0  0  0
  160.6950  210.7780  156.4240 N   0  0  0  0  0  0  0  0  0  0  0  0
  161.9530  210.4980  149.7690 N   0  0  0  0  0  2  0  0  0  0  0  0
  162.8710  211.2470  149.0170 N   0  0  0  0  0  0  0  0  0  0  0  0
  162.5050  212.2690  148.3060 C   0  0  0  0  0  3  0  0  0  0  0  0
  161.0810  212.7190  148.2180 C   0  0  0  0  0  2  0  0  0  0  0  0
  160.4460  212.1980  146.9430 C   0  0  0  0  0  1  0  0  0  0  0  0
  162.3900  206.4130  147.1110 C   0  0  0  0  0  2  0  0  0  0  0  0
  163.0880  205.1350  147.0810 N   0  0  0  0  0  2  0  0  0  0  0  0
  162.3450  204.2620  146.1900 C   0  0  0  0  0  2  0  0  0  0  0  0
  161.0700  203.7960  146.8740 C   0  0  0  0  0  2  0  0  0  0  0  0
  161.3710  202.6870  147.8710 C   0  0  2  0  0  3  0  0  0  0  0  0
  161.5830  200.1930  147.8310 O   0  0  0  0  0  1  0  0  0  0  0  0
  160.4730  201.2990  146.1580 O   0  0  0  0  0  0  0  0  0  0  0  0
  161.1150  201.3610  147.2390 C   0  0  0  0  0  0  0  0  0  0  0  0
  160.5150  202.8300  149.1220 C   0  0  0  0  0  2  0  0  0  0  0  0
  159.7060  201.7050  149.2840 O   0  0  0  0  0  1  0  0  0  0  0  0
  1  4  2  0  0  0  0
  2 22  1  0  0  0  0
  2  4  1  0  0  0  0
  3 27  1  6  0  0  0
  3  7  1  0  0  0  0
  3  5  1  0  0  0  0
  4 17  1  0  0  0  0
  5  6  1  6  0  0  0
  5  1  1  0  0  0  0
  7  2  2  0  0  0  0
  8 13  1  0  0  0  0
  9 15  1  0  0  0  0
 11 18  1  0  0  0  0
 11  9  2  0  0  0  0
 12 18  1  0  0  0  0
 13 14  1  0  0  0  0
 14 21  1  0  0  0  0
 15 10  1  0  0  0  0
 15 14  2  0  0  0  0
 16 10  2  0  0  0  0
 17  9  1  0  0  0  0
 17 16  1  0  0  0  0
 18  8  2  0  0  0  0
 21 20  1  0  0  0  0
 21 19  1  0  0  0  0
 23 22  1  0  0  0  0
 24 23  2  0  0  0  0
 25 24  1  0  0  0  0
 26 25  1  0  0  0  0
 28 27  1  0  0  0  0
 29 30  1  0  0  0  0
 29 28  1  0  0  0  0
 31 30  1  6  0  0  0
 31 35  1  0  0  0  0
 33 34  2  0  0  0  0
 34 32  1  0  0  0  0
 34 31  1  0  0  0  0
 35 36  1  0  0  0  0
M  END
>  <MODEL>
9

>  <REMARK>
 VINA RESULT:      -5.3      4.176      8.845
  Name = 
  12 active torsions:
  status: ('A' for Active; 'I' for Inactive)
    1  A    between atoms: C_3  and  C_35
    2  A    between atoms: N_4  and  C_22
    3  A    between atoms: N_4  and  C_34
    4  A    between atoms: C_5  and  C_31
    5  A    between atoms: N_10  and  N_13
    6  A    between atoms: N_13  and  C_16
    7  A    between atoms: C_17  and  C_22
    8  A    between atoms: C_19  and  N_27
    9  A    between atoms: C_21  and  N_33
   10  A    between atoms: C_25  and  C_35
   11  A    between atoms: C_32  and  C_34
   12  A    between atoms: C_32  and  C_35
                            x       y       z     vdW  Elec       q    Type
                         _______ _______ _______ _____ _____    ______ ____

>  <TORSDO>
F 12

$$$$
