=
 OpenBabel11042423123D

 29 32  0  0  1  0  0  0  0  0999 V2000
  161.8390  208.6930  156.7380 C   0  0  0  0  0  1  0  0  0  0  0  0
  159.7470  210.8010  153.4100 C   0  0  2  0  0  3  0  0  0  0  0  0
  161.9100  209.6420  155.5590 C   0  0  2  0  0  3  0  0  0  0  0  0
  161.3810  211.0270  155.9650 C   0  0  0  0  0  2  0  0  0  0  0  0
  159.1310  210.9330  154.7840 C   0  0  0  0  0  0  0  0  0  0  0  0
  161.0920  210.0590  153.3620 C   0  0  1  0  0  3  0  0  0  0  0  0
  157.8730  210.9500  154.8640 O   0  0  0  0  0  0  0  0  0  0  0  0
  159.2720  211.3140  157.2600 C   0  0  0  0  0  1  0  0  0  0  0  0
  161.1880  209.0610  154.4240 N   0  0  0  0  0  2  0  0  0  0  0  0
  159.9220  211.0690  155.9830 N   0  0  0  0  0  0  0  0  0  0  0  0
  161.3200  209.4300  152.0240 C   0  0  0  0  0  0  0  0  0  0  0  0
  162.1120  209.5780  149.7020 C   0  0  0  0  0  3  0  0  0  0  0  0
  161.0730  206.2560  150.0870 C   0  0  0  0  0  0  0  0  0  0  0  0
  161.8740  210.1780  150.9530 C   0  0  0  0  0  3  0  0  0  0  0  0
  161.9200  207.4570  148.4750 N   0  0  0  0  0  2  0  0  0  0  0  0
  161.7860  208.2320  149.5670 C   0  0  0  0  0  0  0  0  0  0  0  0
  161.4820  206.2410  148.7960 N   0  0  0  0  0  0  0  0  0  0  0  0
  161.2540  207.5130  150.5980 C   0  0  0  0  0  0  0  0  0  0  0  0
  161.0070  208.0680  151.8500 C   0  0  0  0  0  3  0  0  0  0  0  0
  161.3880  204.2810  151.5070 C   0  0  0  0  0  1  0  0  0  0  0  0
  160.5510  205.1630  150.7740 O   0  0  0  0  0  0  0  0  0  0  0  0
  159.8720  212.0630  152.8230 O   0  0  0  0  0  0  0  0  0  0  0  0
  158.6840  212.2420  152.1010 C   0  0  2  0  0  3  0  0  0  0  0  0
  158.7030  214.2800  153.4250 O   0  0  0  0  0  1  0  0  0  0  0  0
  160.0240  214.1000  151.1480 O   0  0  0  0  0  1  0  0  0  0  0  0
  158.7910  213.4340  151.1710 C   0  0  2  0  0  0  0  0  0  0  0  0
  157.9880  213.5700  152.4530 C   0  0  1  0  0  3  0  0  0  0  0  0
  157.9890  213.3620  149.8850 C   0  0  0  0  0  2  0  0  0  0  0  0
  156.6400  214.0310  150.0700 C   0  0  0  0  0  1  0  0  0  0  0  0
  2 22  1  1  0  0  0
  2  5  1  0  0  0  0
  3  4  1  0  0  0  0
  3  1  1  1  0  0  0
  4 10  1  0  0  0  0
  5  7  2  0  0  0  0
  5 10  1  0  0  0  0
  6 11  1  6  0  0  0
  6  2  1  0  0  0  0
  6  9  1  0  0  0  0
  9  3  1  0  0  0  0
 10  8  1  0  0  0  0
 12 14  1  0  0  0  0
 13 18  1  0  0  0  0
 13 21  1  0  0  0  0
 14 11  2  0  0  0  0
 15 17  1  0  0  0  0
 15 16  1  0  0  0  0
 16 12  2  0  0  0  0
 16 18  1  0  0  0  0
 17 13  2  0  0  0  0
 18 19  2  0  0  0  0
 19 11  1  0  0  0  0
 21 20  1  0  0  0  0
 23 27  1  0  0  0  0
 23 22  1  1  0  0  0
 26 25  1  6  0  0  0
 26 23  1  0  0  0  0
 26 27  1  0  0  0  0
 27 24  1  1  0  0  0
 28 29  1  0  0  0  0
 28 26  1  0  0  0  0
M  END
>  <MODEL>
1

>  <REMARK>
 VINA RESULT:      -6.7      0.000      0.000
  Name = 
  5 active torsions:
  status: ('A' for Active; 'I' for Inactive)
    1  A    between atoms: C_1  and  C_11
    2  A    between atoms: C_2  and  C_20
    3  A    between atoms: C_5  and  O_26
    4  A    between atoms: C_8  and  O_19
    5  A    between atoms: C_10  and  O_26
                            x       y       z     vdW  Elec       q    Type
                         _______ _______ _______ _____ _____    ______ ____

>  <TORSDO>
F 5

$$$$
=
 OpenBabel11042423123D

 29 32  0  0  1  0  0  0  0  0999 V2000
  161.0270  208.8780  157.2380 C   0  0  0  0  0  1  0  0  0  0  0  0
  159.4960  210.8510  153.5420 C   0  0  2  0  0  3  0  0  0  0  0  0
  161.3050  209.7240  156.0120 C   0  0  2  0  0  3  0  0  0  0  0  0
  160.8380  211.1690  156.2530 C   0  0  0  0  0  2  0  0  0  0  0  0
  158.7390  211.1320  154.8190 C   0  0  0  0  0  0  0  0  0  0  0  0
  160.7790  210.0190  153.7090 C   0  0  1  0  0  3  0  0  0  0  0  0
  157.4840  211.2380  154.7450 O   0  0  0  0  0  0  0  0  0  0  0  0
  158.6210  211.6980  157.2610 C   0  0  0  0  0  1  0  0  0  0  0  0
  160.6760  209.1050  154.8420 N   0  0  0  0  0  2  0  0  0  0  0  0
  159.3940  211.3090  156.0910 N   0  0  0  0  0  0  0  0  0  0  0  0
  161.1110  209.2730  152.4560 C   0  0  0  0  0  0  0  0  0  0  0  0
  161.2860  207.1610  151.2100 C   0  0  0  0  0  3  0  0  0  0  0  0
  162.1910  209.6400  148.9080 C   0  0  0  0  0  0  0  0  0  0  0  0
  160.9980  207.8590  152.3980 C   0  0  0  0  0  3  0  0  0  0  0  0
  162.0070  207.4670  148.8810 N   0  0  0  0  0  2  0  0  0  0  0  0
  161.6800  207.9120  150.1080 C   0  0  0  0  0  0  0  0  0  0  0  0
  162.3210  208.5300  148.1430 N   0  0  0  0  0  0  0  0  0  0  0  0
  161.7870  209.2720  150.1640 C   0  0  0  0  0  0  0  0  0  0  0  0
  161.5090  209.9990  151.3170 C   0  0  0  0  0  3  0  0  0  0  0  0
  161.4330  211.7060  147.8260 C   0  0  0  0  0  1  0  0  0  0  0  0
  162.4370  210.9420  148.4780 O   0  0  0  0  0  0  0  0  0  0  0  0
  159.7830  212.0510  152.8870 O   0  0  0  0  0  0  0  0  0  0  0  0
  158.6920  212.2620  152.0320 C   0  0  2  0  0  3  0  0  0  0  0  0
  158.6190  214.3040  153.3470 O   0  0  0  0  0  1  0  0  0  0  0  0
  160.1890  214.0760  151.2390 O   0  0  0  0  0  1  0  0  0  0  0  0
  158.9420  213.4470  151.1190 C   0  0  2  0  0  0  0  0  0  0  0  0
  158.0000  213.6120  152.2990 C   0  0  1  0  0  3  0  0  0  0  0  0
  158.2930  213.3930  149.7490 C   0  0  0  0  0  2  0  0  0  0  0  0
  156.8030  213.6500  149.8640 C   0  0  0  0  0  1  0  0  0  0  0  0
  2 22  1  1  0  0  0
  2  6  1  0  0  0  0
  2  5  1  0  0  0  0
  3  4  1  0  0  0  0
  3  1  1  1  0  0  0
  5 10  1  0  0  0  0
  6 11  1  6  0  0  0
  6  9  1  0  0  0  0
  7  5  2  0  0  0  0
  9  3  1  0  0  0  0
 10  4  1  0  0  0  0
 10  8  1  0  0  0  0
 12 14  2  0  0  0  0
 13 18  1  0  0  0  0
 14 11  1  0  0  0  0
 15 16  1  0  0  0  0
 16 18  2  0  0  0  0
 16 12  1  0  0  0  0
 17 15  1  0  0  0  0
 17 13  2  0  0  0  0
 18 19  1  0  0  0  0
 19 11  2  0  0  0  0
 20 21  1  0  0  0  0
 21 13  1  0  0  0  0
 23 27  1  0  0  0  0
 23 22  1  1  0  0  0
 26 25  1  1  0  0  0
 26 23  1  0  0  0  0
 26 27  1  0  0  0  0
 27 24  1  1  0  0  0
 28 29  1  0  0  0  0
 28 26  1  0  0  0  0
M  END
>  <MODEL>
2

>  <REMARK>
 VINA RESULT:      -5.9      1.455      2.360
  Name = 
  5 active torsions:
  status: ('A' for Active; 'I' for Inactive)
    1  A    between atoms: C_1  and  C_11
    2  A    between atoms: C_2  and  C_20
    3  A    between atoms: C_5  and  O_26
    4  A    between atoms: C_8  and  O_19
    5  A    between atoms: C_10  and  O_26
                            x       y       z     vdW  Elec       q    Type
                         _______ _______ _______ _____ _____    ______ ____

>  <TORSDO>
F 5

$$$$
=
 OpenBabel11042423123D

 29 32  0  0  1  0  0  0  0  0999 V2000
  161.5840  210.2770  153.5370 C   0  0  0  0  0  1  0  0  0  0  0  0
  162.1480  208.5370  149.4680 C   0  0  2  0  0  3  0  0  0  0  0  0
  161.0240  210.0060  152.1540 C   0  0  2  0  0  3  0  0  0  0  0  0
  160.5500  208.5460  152.0560 C   0  0  0  0  0  2  0  0  0  0  0  0
  162.4500  207.6290  150.6370 C   0  0  0  0  0  0  0  0  0  0  0  0
  161.5600  209.9080  149.8370 C   0  0  1  0  0  3  0  0  0  0  0  0
  163.4180  206.8280  150.5240 O   0  0  0  0  0  0  0  0  0  0  0  0
  161.9300  206.6440  152.8860 C   0  0  0  0  0  1  0  0  0  0  0  0
  162.0280  210.3530  151.1470 N   0  0  0  0  0  2  0  0  0  0  0  0
  161.6640  207.6260  151.8460 N   0  0  0  0  0  0  0  0  0  0  0  0
  161.8650  210.9320  148.7900 C   0  0  0  0  0  0  0  0  0  0  0  0
  163.4560  212.4420  147.6800 C   0  0  0  0  0  3  0  0  0  0  0  0
  160.4640  212.8210  145.9000 C   0  0  0  0  0  0  0  0  0  0  0  0
  163.1630  211.4980  148.6820 C   0  0  0  0  0  3  0  0  0  0  0  0
  162.4720  213.6630  145.7860 N   0  0  0  0  0  2  0  0  0  0  0  0
  162.4280  212.7890  146.8090 C   0  0  0  0  0  0  0  0  0  0  0  0
  161.2640  213.6820  145.2270 N   0  0  0  0  0  0  0  0  0  0  0  0
  161.1810  212.2420  146.9130 C   0  0  0  0  0  0  0  0  0  0  0  0
  160.8520  211.3050  147.8860 C   0  0  0  0  0  3  0  0  0  0  0  0
  158.0810  213.2730  146.2650 C   0  0  0  0  0  1  0  0  0  0  0  0
  159.1250  212.5740  145.6030 O   0  0  0  0  0  0  0  0  0  0  0  0
  161.3100  207.8810  148.5630 O   0  0  0  0  0  0  0  0  0  0  0  0
  162.1370  206.9510  147.9170 C   0  0  2  0  0  3  0  0  0  0  0  0
  160.4580  205.4670  148.8580 O   0  0  0  0  0  1  0  0  0  0  0  0
  160.0830  206.6880  146.5500 O   0  0  0  0  0  1  0  0  0  0  0  0
  161.3970  206.2630  146.7870 C   0  0  2  0  0  0  0  0  0  0  0  0
  161.6250  205.5090  148.0850 C   0  0  1  0  0  3  0  0  0  0  0  0
  162.2340  205.8210  145.6020 C   0  0  0  0  0  2  0  0  0  0  0  0
  163.1740  204.7030  146.0110 C   0  0  0  0  0  1  0  0  0  0  0  0
  2 22  1  6  0  0  0
  2  6  1  0  0  0  0
  2  5  1  0  0  0  0
  3  1  1  1  0  0  0
  4  3  1  0  0  0  0
  5 10  1  0  0  0  0
  6 11  1  6  0  0  0
  6  9  1  0  0  0  0
  7  5  2  0  0  0  0
  9  3  1  0  0  0  0
 10  4  1  0  0  0  0
 10  8  1  0  0  0  0
 12 14  2  0  0  0  0
 13 18  1  0  0  0  0
 14 11  1  0  0  0  0
 15 16  1  0  0  0  0
 16 18  2  0  0  0  0
 16 12  1  0  0  0  0
 17 15  1  0  0  0  0
 17 13  2  0  0  0  0
 18 19  1  0  0  0  0
 19 11  2  0  0  0  0
 21 13  1  0  0  0  0
 21 20  1  0  0  0  0
 23 27  1  0  0  0  0
 23 22  1  1  0  0  0
 26 25  1  6  0  0  0
 26 23  1  0  0  0  0
 26 27  1  0  0  0  0
 27 24  1  1  0  0  0
 28 29  1  0  0  0  0
 28 26  1  0  0  0  0
M  END
>  <MODEL>
3

>  <REMARK>
 VINA RESULT:      -5.3      3.776      7.137
  Name = 
  5 active torsions:
  status: ('A' for Active; 'I' for Inactive)
    1  A    between atoms: C_1  and  C_11
    2  A    between atoms: C_2  and  C_20
    3  A    between atoms: C_5  and  O_26
    4  A    between atoms: C_8  and  O_19
    5  A    between atoms: C_10  and  O_26
                            x       y       z     vdW  Elec       q    Type
                         _______ _______ _______ _____ _____    ______ ____

>  <TORSDO>
F 5

$$$$
=
 OpenBabel11042423123D

 29 32  0  0  1  0  0  0  0  0999 V2000
  161.2500  207.3220  149.5600 C   0  0  0  0  0  1  0  0  0  0  0  0
  160.7210  208.5700  153.8100 C   0  0  2  0  0  3  0  0  0  0  0  0
  161.6490  208.2370  150.7010 C   0  0  2  0  0  3  0  0  0  0  0  0
  162.5910  207.4970  151.6640 C   0  0  0  0  0  2  0  0  0  0  0  0
  160.9490  207.0960  153.5640 C   0  0  0  0  0  0  0  0  0  0  0  0
  160.8310  209.4680  152.5670 C   0  0  1  0  0  3  0  0  0  0  0  0
  160.3260  206.2760  154.2920 O   0  0  0  0  0  0  0  0  0  0  0  0
  162.1280  205.1790  152.4530 C   0  0  0  0  0  1  0  0  0  0  0  0
  160.4440  208.7500  151.3560 N   0  0  0  0  0  2  0  0  0  0  0  0
  161.8610  206.6050  152.5610 N   0  0  0  0  0  0  0  0  0  0  0  0
  160.0220  210.7160  152.7240 C   0  0  0  0  0  0  0  0  0  0  0  0
  159.6420  213.0920  152.2230 C   0  0  0  0  0  3  0  0  0  0  0  0
  156.9290  212.1510  154.2270 C   0  0  0  0  0  0  0  0  0  0  0  0
  160.4190  211.9250  152.0950 C   0  0  0  0  0  3  0  0  0  0  0  0
  157.5910  213.9820  153.2440 N   0  0  0  0  0  2  0  0  0  0  0  0
  158.4800  213.0060  152.9820 C   0  0  0  0  0  0  0  0  0  0  0  0
  156.6370  213.4550  154.0100 N   0  0  0  0  0  0  0  0  0  0  0  0
  158.0990  211.8420  153.5860 C   0  0  0  0  0  0  0  0  0  0  0  0
  158.8360  210.6670  153.4820 C   0  0  0  0  0  3  0  0  0  0  0  0
  155.7570  211.5990  156.3090 C   0  0  0  0  0  1  0  0  0  0  0  0
  156.1580  211.2750  154.9860 O   0  0  0  0  0  0  0  0  0  0  0  0
  161.5880  209.0220  154.8090 O   0  0  0  0  0  0  0  0  0  0  0  0
  160.7960  209.0980  155.9630 C   0  0  2  0  0  3  0  0  0  0  0  0
  162.9720  209.6580  156.8880 O   0  0  0  0  0  1  0  0  0  0  0  0
  161.4430  211.4850  155.7540 O   0  0  0  0  0  1  0  0  0  0  0  0
  160.7550  210.5160  156.4980 C   0  0  2  0  0  0  0  0  0  0  0  0
  161.6190  209.4870  157.2050 C   0  0  1  0  0  3  0  0  0  0  0  0
  159.4860  210.9310  157.2180 C   0  0  0  0  0  2  0  0  0  0  0  0
  159.2590  212.4230  157.0650 C   0  0  0  0  0  1  0  0  0  0  0  0
  2 22  1  1  0  0  0
  3  1  1  6  0  0  0
  3  9  1  0  0  0  0
  3  4  1  0  0  0  0
  4 10  1  0  0  0  0
  5  2  1  0  0  0  0
  5  7  2  0  0  0  0
  6 11  1  1  0  0  0
  6  2  1  0  0  0  0
  8 10  1  0  0  0  0
  9  6  1  0  0  0  0
 10  5  1  0  0  0  0
 11 19  1  0  0  0  0
 12 16  2  0  0  0  0
 13 21  1  0  0  0  0
 14 12  1  0  0  0  0
 14 11  2  0  0  0  0
 15 17  1  0  0  0  0
 16 15  1  0  0  0  0
 16 18  1  0  0  0  0
 17 13  2  0  0  0  0
 18 13  1  0  0  0  0
 19 18  2  0  0  0  0
 21 20  1  0  0  0  0
 23 22  1  6  0  0  0
 23 26  1  0  0  0  0
 23 27  1  0  0  0  0
 26 25  1  6  0  0  0
 26 27  1  0  0  0  0
 26 28  1  0  0  0  0
 27 24  1  6  0  0  0
 29 28  1  0  0  0  0
M  END
>  <MODEL>
4

>  <REMARK>
 VINA RESULT:      -5.2      2.533      6.412
  Name = 
  5 active torsions:
  status: ('A' for Active; 'I' for Inactive)
    1  A    between atoms: C_1  and  C_11
    2  A    between atoms: C_2  and  C_20
    3  A    between atoms: C_5  and  O_26
    4  A    between atoms: C_8  and  O_19
    5  A    between atoms: C_10  and  O_26
                            x       y       z     vdW  Elec       q    Type
                         _______ _______ _______ _____ _____    ______ ____

>  <TORSDO>
F 5

$$$$
=
 OpenBabel11042423123D

 29 32  0  0  1  0  0  0  0  0999 V2000
  158.1540  214.3140  152.3410 C   0  0  0  0  0  1  0  0  0  0  0  0
  160.0370  210.9540  154.5890 C   0  0  2  0  0  3  0  0  0  0  0  0
  158.1720  212.8400  152.6900 C   0  0  2  0  0  3  0  0  0  0  0  0
  157.5440  212.6190  154.0770 C   0  0  0  0  0  2  0  0  0  0  0  0
  159.6760  212.1830  155.3910 C   0  0  0  0  0  0  0  0  0  0  0  0
  159.5870  210.9740  153.1190 C   0  0  1  0  0  3  0  0  0  0  0  0
  160.4570  212.5270  156.3200 O   0  0  0  0  0  0  0  0  0  0  0  0
  158.1220  214.0440  156.0370 C   0  0  0  0  0  1  0  0  0  0  0  0
  159.5440  212.3360  152.5950 N   0  0  0  0  0  2  0  0  0  0  0  0
  158.4750  212.9440  155.1530 N   0  0  0  0  0  0  0  0  0  0  0  0
  160.4620  210.1070  152.2700 C   0  0  0  0  0  0  0  0  0  0  0  0
  162.1840  209.8610  150.5330 C   0  0  0  0  0  3  0  0  0  0  0  0
  161.4880  206.5920  151.5790 C   0  0  0  0  0  0  0  0  0  0  0  0
  161.3420  210.6770  151.3130 C   0  0  0  0  0  3  0  0  0  0  0  0
  162.8140  207.5210  150.1190 N   0  0  0  0  0  2  0  0  0  0  0  0
  162.1150  208.4870  150.7430 C   0  0  0  0  0  0  0  0  0  0  0  0
  162.4280  206.3560  150.6340 N   0  0  0  0  0  0  0  0  0  0  0  0
  161.2690  207.9410  151.6650 C   0  0  0  0  0  0  0  0  0  0  0  0
  160.4250  208.7120  152.4570 C   0  0  0  0  0  3  0  0  0  0  0  0
  161.1100  204.2320  152.1260 C   0  0  0  0  0  1  0  0  0  0  0  0
  160.8480  205.6120  152.3340 O   0  0  0  0  0  0  0  0  0  0  0  0
  159.5470  209.8110  155.2270 O   0  0  0  0  0  0  0  0  0  0  0  0
  160.2250  209.7660  156.4530 C   0  0  2  0  0  3  0  0  0  0  0  0
  159.4050  207.4820  156.3230 O   0  0  0  0  0  1  0  0  0  0  0  0
  161.6490  208.2130  155.1430 O   0  0  0  0  0  1  0  0  0  0  0  0
  161.4070  208.8200  156.3830 C   0  0  2  0  0  0  0  0  0  0  0  0
  160.1490  208.3740  157.1060 C   0  0  1  0  0  3  0  0  0  0  0  0
  162.5970  209.1590  157.2600 C   0  0  0  0  0  2  0  0  0  0  0  0
  163.1310  210.5350  156.9120 C   0  0  0  0  0  1  0  0  0  0  0  0
  2 22  1  1  0  0  0
  2  5  1  0  0  0  0
  3  1  1  1  0  0  0
  3  4  1  0  0  0  0
  4 10  1  0  0  0  0
  5  7  2  0  0  0  0
  6 11  1  6  0  0  0
  6  2  1  0  0  0  0
  9  3  1  0  0  0  0
  9  6  1  0  0  0  0
 10  5  1  0  0  0  0
 10  8  1  0  0  0  0
 11 19  1  0  0  0  0
 12 16  2  0  0  0  0
 12 14  1  0  0  0  0
 13 18  1  0  0  0  0
 13 21  1  0  0  0  0
 14 11  2  0  0  0  0
 15 17  1  0  0  0  0
 15 16  1  0  0  0  0
 16 18  1  0  0  0  0
 17 13  2  0  0  0  0
 18 19  2  0  0  0  0
 20 21  1  0  0  0  0
 23 22  1  6  0  0  0
 23 27  1  0  0  0  0
 26 25  1  6  0  0  0
 26 23  1  0  0  0  0
 26 27  1  0  0  0  0
 26 28  1  0  0  0  0
 27 24  1  6  0  0  0
 29 28  1  0  0  0  0
M  END
>  <MODEL>
5

>  <REMARK>
 VINA RESULT:      -5.2      2.128      4.695
  Name = 
  5 active torsions:
  status: ('A' for Active; 'I' for Inactive)
    1  A    between atoms: C_1  and  C_11
    2  A    between atoms: C_2  and  C_20
    3  A    between atoms: C_5  and  O_26
    4  A    between atoms: C_8  and  O_19
    5  A    between atoms: C_10  and  O_26
                            x       y       z     vdW  Elec       q    Type
                         _______ _______ _______ _____ _____    ______ ____

>  <TORSDO>
F 5

$$$$
=
 OpenBabel11042423123D

 29 32  0  0  1  0  0  0  0  0999 V2000
  160.6220  208.5480  154.8430 C   0  0  0  0  0  1  0  0  0  0  0  0
  161.0360  210.3200  150.7700 C   0  0  2  0  0  3  0  0  0  0  0  0
  161.5050  208.8660  153.6520 C   0  0  2  0  0  3  0  0  0  0  0  0
  161.9150  210.3480  153.6820 C   0  0  0  0  0  2  0  0  0  0  0  0
  160.4000  211.1960  151.8240 C   0  0  0  0  0  0  0  0  0  0  0  0
  161.5770  208.9720  151.2750 C   0  0  1  0  0  3  0  0  0  0  0  0
  159.4550  211.9510  151.4670 O   0  0  0  0  0  0  0  0  0  0  0  0
  160.2770  212.1700  154.1340 C   0  0  0  0  0  1  0  0  0  0  0  0
  160.8110  208.4870  152.4190 N   0  0  0  0  0  2  0  0  0  0  0  0
  160.8490  211.2180  153.1950 N   0  0  0  0  0  0  0  0  0  0  0  0
  161.6010  207.9510  150.1820 C   0  0  0  0  0  0  0  0  0  0  0  0
  162.0860  207.3230  147.8560 C   0  0  0  0  0  3  0  0  0  0  0  0
  160.9710  204.3690  149.3700 C   0  0  0  0  0  0  0  0  0  0  0  0
  162.0400  208.2920  148.8760 C   0  0  0  0  0  3  0  0  0  0  0  0
  161.6460  204.9520  147.3800 N   0  0  0  0  0  2  0  0  0  0  0  0
  161.6890  206.0300  148.1840 C   0  0  0  0  0  0  0  0  0  0  0  0
  161.2050  203.9300  148.1110 N   0  0  0  0  0  0  0  0  0  0  0  0
  161.2690  205.7040  149.4410 C   0  0  0  0  0  0  0  0  0  0  0  0
  161.2110  206.6300  150.4770 C   0  0  0  0  0  3  0  0  0  0  0  0
  160.8310  202.2050  150.5140 C   0  0  0  0  0  1  0  0  0  0  0  0
  160.4980  203.5820  150.4170 O   0  0  0  0  0  0  0  0  0  0  0  0
  162.0460  211.0270  150.1120 O   0  0  0  0  0  0  0  0  0  0  0  0
  161.4450  212.2340  149.7270 C   0  0  2  0  0  3  0  0  0  0  0  0
  163.4080  212.2470  148.2950 O   0  0  0  0  0  1  0  0  0  0  0  0
  161.2060  210.9660  147.6080 O   0  0  0  0  0  1  0  0  0  0  0  0
  161.0000  212.1790  148.2790 C   0  0  2  0  0  0  0  0  0  0  0  0
  162.2530  212.9600  148.6360 C   0  0  1  0  0  3  0  0  0  0  0  0
  159.7800  213.0030  147.9150 C   0  0  0  0  0  2  0  0  0  0  0  0
  160.1220  213.9890  146.8140 C   0  0  0  0  0  1  0  0  0  0  0  0
  2 22  1  1  0  0  0
  2  6  1  0  0  0  0
  2  5  1  0  0  0  0
  3  4  1  0  0  0  0
  3  1  1  1  0  0  0
  5 10  1  0  0  0  0
  6 11  1  6  0  0  0
  6  9  1  0  0  0  0
  7  5  2  0  0  0  0
  9  3  1  0  0  0  0
 10  4  1  0  0  0  0
 10  8  1  0  0  0  0
 11 19  1  0  0  0  0
 12 16  2  0  0  0  0
 12 14  1  0  0  0  0
 13 18  1  0  0  0  0
 13 21  1  0  0  0  0
 14 11  2  0  0  0  0
 15 17  1  0  0  0  0
 15 16  1  0  0  0  0
 16 18  1  0  0  0  0
 17 13  2  0  0  0  0
 18 19  2  0  0  0  0
 21 20  1  0  0  0  0
 23 22  1  6  0  0  0
 26 25  1  6  0  0  0
 26 27  1  0  0  0  0
 26 23  1  0  0  0  0
 27 24  1  6  0  0  0
 27 23  1  0  0  0  0
 28 26  1  0  0  0  0
 29 28  1  0  0  0  0
M  END
>  <MODEL>
6

>  <REMARK>
 VINA RESULT:      -5.1      2.407      3.343
  Name = 
  5 active torsions:
  status: ('A' for Active; 'I' for Inactive)
    1  A    between atoms: C_1  and  C_11
    2  A    between atoms: C_2  and  C_20
    3  A    between atoms: C_5  and  O_26
    4  A    between atoms: C_8  and  O_19
    5  A    between atoms: C_10  and  O_26
                            x       y       z     vdW  Elec       q    Type
                         _______ _______ _______ _____ _____    ______ ____

>  <TORSDO>
F 5

$$$$
=
 OpenBabel11042423123D

 29 32  0  0  1  0  0  0  0  0999 V2000
  162.0710  205.6440  145.1510 C   0  0  0  0  0  1  0  0  0  0  0  0
  161.2830  206.1540  149.5120 C   0  0  2  0  0  3  0  0  0  0  0  0
  162.5940  205.9980  146.5290 C   0  0  2  0  0  3  0  0  0  0  0  0
  162.8530  204.7160  147.3380 C   0  0  0  0  0  2  0  0  0  0  0  0
  160.8480  204.8430  148.8970 C   0  0  0  0  0  0  0  0  0  0  0  0
  162.0620  207.0920  148.5750 C   0  0  1  0  0  3  0  0  0  0  0  0
  159.7750  204.3280  149.3140 O   0  0  0  0  0  0  0  0  0  0  0  0
  161.2100  202.8450  147.4230 C   0  0  0  0  0  1  0  0  0  0  0  0
  161.6550  206.9110  147.1840 N   0  0  0  0  0  2  0  0  0  0  0  0
  161.6190  204.1610  147.8870 N   0  0  0  0  0  0  0  0  0  0  0  0
  161.9120  208.5210  148.9880 C   0  0  0  0  0  0  0  0  0  0  0  0
  161.9490  210.2560  150.7300 C   0  0  0  0  0  3  0  0  0  0  0  0
  161.2930  211.9820  147.7540 C   0  0  0  0  0  0  0  0  0  0  0  0
  162.0640  208.9060  150.3460 C   0  0  0  0  0  3  0  0  0  0  0  0
  161.5290  212.5150  149.8560 N   0  0  0  0  0  2  0  0  0  0  0  0
  161.6840  211.1840  149.7280 C   0  0  0  0  0  0  0  0  0  0  0  0
  161.2890  213.0060  148.6410 N   0  0  0  0  0  0  0  0  0  0  0  0
  161.5390  210.8130  148.4220 C   0  0  0  0  0  0  0  0  0  0  0  0
  161.6490  209.4910  148.0020 C   0  0  0  0  0  3  0  0  0  0  0  0
  159.8230  212.5420  145.8730 C   0  0  0  0  0  1  0  0  0  0  0  0
  161.0750  212.1110  146.3850 O   0  0  0  0  0  0  0  0  0  0  0  0
  162.0240  205.9090  150.6720 O   0  0  0  0  0  0  0  0  0  0  0  0
  161.0860  205.9600  151.7120 C   0  0  2  0  0  3  0  0  0  0  0  0
  161.9680  203.7180  152.0270 O   0  0  0  0  0  1  0  0  0  0  0  0
  163.1720  205.8310  153.0500 O   0  0  0  0  0  1  0  0  0  0  0  0
  161.7710  205.8840  153.0620 C   0  0  2  0  0  0  0  0  0  0  0  0
  161.0560  204.6550  152.5290 C   0  0  1  0  0  3  0  0  0  0  0  0
  161.0900  206.6080  154.2080 C   0  0  0  0  0  2  0  0  0  0  0  0
  160.9290  208.0800  153.8770 C   0  0  0  0  0  1  0  0  0  0  0  0
  2 22  1  1  0  0  0
  3  1  1  6  0  0  0
  3  9  1  0  0  0  0
  3  4  1  0  0  0  0
  4 10  1  0  0  0  0
  5  7  2  0  0  0  0
  5  2  1  0  0  0  0
  6 11  1  1  0  0  0
  6  2  1  0  0  0  0
  8 10  1  0  0  0  0
  9  6  1  0  0  0  0
 10  5  1  0  0  0  0
 11 14  1  0  0  0  0
 13 18  1  0  0  0  0
 13 17  2  0  0  0  0
 14 12  2  0  0  0  0
 16 15  1  0  0  0  0
 16 12  1  0  0  0  0
 17 15  1  0  0  0  0
 18 16  2  0  0  0  0
 19 18  1  0  0  0  0
 19 11  2  0  0  0  0
 20 21  1  0  0  0  0
 21 13  1  0  0  0  0
 23 22  1  6  0  0  0
 23 27  1  0  0  0  0
 23 26  1  0  0  0  0
 26 25  1  1  0  0  0
 26 28  1  0  0  0  0
 27 24  1  6  0  0  0
 27 26  1  0  0  0  0
 29 28  1  0  0  0  0
M  END
>  <MODEL>
7

>  <REMARK>
 VINA RESULT:      -4.4      4.017      8.014
  Name = 
  5 active torsions:
  status: ('A' for Active; 'I' for Inactive)
    1  A    between atoms: C_1  and  C_11
    2  A    between atoms: C_2  and  C_20
    3  A    between atoms: C_5  and  O_26
    4  A    between atoms: C_8  and  O_19
    5  A    between atoms: C_10  and  O_26
                            x       y       z     vdW  Elec       q    Type
                         _______ _______ _______ _____ _____    ______ ____

>  <TORSDO>
F 5

$$$$
=
 OpenBabel11042423123D

 29 32  0  0  1  0  0  0  0  0999 V2000
  158.5760  211.2630  156.8800 C   0  0  0  0  0  1  0  0  0  0  0  0
  161.5890  210.7520  153.6310 C   0  0  2  0  0  3  0  0  0  0  0  0
  158.9290  210.7000  155.5170 C   0  0  2  0  0  3  0  0  0  0  0  0
  159.7720  209.4240  155.6770 C   0  0  0  0  0  2  0  0  0  0  0  0
  162.0350  210.3840  155.0280 C   0  0  0  0  0  0  0  0  0  0  0  0
  160.1070  211.1340  153.4950 C   0  0  1  0  0  3  0  0  0  0  0  0
  163.2250  210.6450  155.3520 O   0  0  0  0  0  0  0  0  0  0  0  0
  161.6910  209.2910  157.2610 C   0  0  0  0  0  1  0  0  0  0  0  0
  159.5970  211.7350  154.7240 N   0  0  0  0  0  2  0  0  0  0  0  0
  161.1680  209.7280  155.9760 N   0  0  0  0  0  0  0  0  0  0  0  0
  159.8840  212.0440  152.3290 C   0  0  0  0  0  0  0  0  0  0  0  0
  158.7390  213.9640  151.3060 C   0  0  0  0  0  3  0  0  0  0  0  0
  161.0030  212.8660  148.8710 C   0  0  0  0  0  0  0  0  0  0  0  0
  158.9280  213.0920  152.3950 C   0  0  0  0  0  3  0  0  0  0  0  0
  159.5160  214.4530  149.0260 N   0  0  0  0  0  2  0  0  0  0  0  0
  159.5240  213.7560  150.1770 C   0  0  0  0  0  0  0  0  0  0  0  0
  160.4260  213.9060  148.2230 N   0  0  0  0  0  0  0  0  0  0  0  0
  160.4440  212.7480  150.1150 C   0  0  0  0  0  0  0  0  0  0  0  0
  160.6640  211.8680  151.1690 C   0  0  0  0  0  3  0  0  0  0  0  0
  163.2340  212.5910  147.8910 C   0  0  0  0  0  1  0  0  0  0  0  0
  162.0020  212.0510  148.3440 O   0  0  0  0  0  0  0  0  0  0  0  0
  161.9030  209.7170  152.7460 O   0  0  0  0  0  0  0  0  0  0  0  0
  160.9360  208.7310  152.9900 C   0  0  2  0  0  3  0  0  0  0  0  0
  161.1920  208.5060  150.5840 O   0  0  0  0  0  1  0  0  0  0  0  0
  162.8180  207.2850  152.2660 O   0  0  0  0  0  1  0  0  0  0  0  0
  161.4800  207.3510  152.6790 C   0  0  2  0  0  0  0  0  0  0  0  0
  160.5160  208.0010  151.7020 C   0  0  1  0  0  3  0  0  0  0  0  0
  160.9250  206.2040  153.5020 C   0  0  0  0  0  2  0  0  0  0  0  0
  161.2200  204.8800  152.8230 C   0  0  0  0  0  1  0  0  0  0  0  0
  2 22  1  6  0  0  0
  2  5  1  0  0  0  0
  3  4  1  0  0  0  0
  3  1  1  1  0  0  0
  4 10  1  0  0  0  0
  5  7  2  0  0  0  0
  5 10  1  0  0  0  0
  6 11  1  6  0  0  0
  6  2  1  0  0  0  0
  6  9  1  0  0  0  0
  9  3  1  0  0  0  0
 10  8  1  0  0  0  0
 11 14  1  0  0  0  0
 12 14  2  0  0  0  0
 13 18  1  0  0  0  0
 15 16  1  0  0  0  0
 16 12  1  0  0  0  0
 17 13  2  0  0  0  0
 17 15  1  0  0  0  0
 18 16  2  0  0  0  0
 18 19  1  0  0  0  0
 19 11  2  0  0  0  0
 20 21  1  0  0  0  0
 21 13  1  0  0  0  0
 23 22  1  6  0  0  0
 26 25  1  6  0  0  0
 26 23  1  0  0  0  0
 26 28  1  0  0  0  0
 27 24  1  6  0  0  0
 27 26  1  0  0  0  0
 27 23  1  0  0  0  0
 29 28  1  0  0  0  0
M  END
>  <MODEL>
8

>  <REMARK>
 VINA RESULT:      -4.4      2.924      5.698
  Name = 
  5 active torsions:
  status: ('A' for Active; 'I' for Inactive)
    1  A    between atoms: C_1  and  C_11
    2  A    between atoms: C_2  and  C_20
    3  A    between atoms: C_5  and  O_26
    4  A    between atoms: C_8  and  O_19
    5  A    between atoms: C_10  and  O_26
                            x       y       z     vdW  Elec       q    Type
                         _______ _______ _______ _____ _____    ______ ____

>  <TORSDO>
F 5

$$$$
=
 OpenBabel11042423123D

 29 32  0  0  1  0  0  0  0  0999 V2000
  161.3920  206.2070  149.7970 C   0  0  0  0  0  1  0  0  0  0  0  0
  160.8850  208.5940  153.5310 C   0  0  2  0  0  3  0  0  0  0  0  0
  161.9230  207.2730  150.7350 C   0  0  2  0  0  3  0  0  0  0  0  0
  162.5790  206.6150  151.9610 C   0  0  0  0  0  2  0  0  0  0  0  0
  160.7560  207.0950  153.6670 C   0  0  0  0  0  0  0  0  0  0  0  0
  161.3040  209.0930  152.1390 C   0  0  1  0  0  3  0  0  0  0  0  0
  159.8980  206.6510  154.4770 O   0  0  0  0  0  0  0  0  0  0  0  0
  161.4990  204.7430  153.2010 C   0  0  0  0  0  1  0  0  0  0  0  0
  160.8390  208.1920  151.0880 N   0  0  0  0  0  2  0  0  0  0  0  0
  161.5880  206.1710  152.9360 N   0  0  0  0  0  0  0  0  0  0  0  0
  160.8220  210.4880  151.8920 C   0  0  0  0  0  0  0  0  0  0  0  0
  159.6610  212.5140  152.6610 C   0  0  0  0  0  3  0  0  0  0  0  0
  160.8000  213.2960  149.4430 C   0  0  0  0  0  0  0  0  0  0  0  0
  160.0920  211.1920  152.8850 C   0  0  0  0  0  3  0  0  0  0  0  0
  159.6760  214.3270  151.0020 N   0  0  0  0  0  2  0  0  0  0  0  0
  159.9820  213.0910  151.4360 C   0  0  0  0  0  0  0  0  0  0  0  0
  160.1800  214.4530  149.7750 N   0  0  0  0  0  0  0  0  0  0  0  0
  160.6850  212.4120  150.4830 C   0  0  0  0  0  0  0  0  0  0  0  0
  161.1320  211.1080  150.6660 C   0  0  0  0  0  3  0  0  0  0  0  0
  162.7380  213.5740  147.9670 C   0  0  0  0  0  1  0  0  0  0  0  0
  161.4440  213.0530  148.2320 O   0  0  0  0  0  0  0  0  0  0  0  0
  161.7630  209.0850  154.5020 O   0  0  0  0  0  0  0  0  0  0  0  0
  160.9380  209.7170  155.4440 C   0  0  2  0  0  3  0  0  0  0  0  0
  162.5390  208.6370  156.9190 O   0  0  0  0  0  1  0  0  0  0  0  0
  163.0370  210.9850  155.8230 O   0  0  0  0  0  1  0  0  0  0  0  0
  161.7050  210.7810  156.2050 C   0  0  2  0  0  0  0  0  0  0  0  0
  161.4060  209.4570  156.8880 C   0  0  1  0  0  3  0  0  0  0  0  0
  160.9040  211.9760  156.6850 C   0  0  0  0  0  2  0  0  0  0  0  0
  159.4400  211.8050  156.3280 C   0  0  0  0  0  1  0  0  0  0  0  0
  2  5  1  0  0  0  0
  2 22  1  1  0  0  0
  3  1  1  6  0  0  0
  3  9  1  0  0  0  0
  3  4  1  0  0  0  0
  4 10  1  0  0  0  0
  5  7  2  0  0  0  0
  6 11  1  6  0  0  0
  6  2  1  0  0  0  0
  9  6  1  0  0  0  0
 10  8  1  0  0  0  0
 10  5  1  0  0  0  0
 11 14  1  0  0  0  0
 12 14  2  0  0  0  0
 13 17  2  0  0  0  0
 13 18  1  0  0  0  0
 15 16  1  0  0  0  0
 16 12  1  0  0  0  0
 17 15  1  0  0  0  0
 18 19  1  0  0  0  0
 18 16  2  0  0  0  0
 19 11  2  0  0  0  0
 20 21  1  0  0  0  0
 21 13  1  0  0  0  0
 23 22  1  6  0  0  0
 23 26  1  0  0  0  0
 23 27  1  0  0  0  0
 26 25  1  6  0  0  0
 26 28  1  0  0  0  0
 26 27  1  0  0  0  0
 27 24  1  6  0  0  0
 29 28  1  0  0  0  0
M  END
>  <MODEL>
9

>  <REMARK>
 VINA RESULT:      -4.2      2.978      6.060
  Name = 
  5 active torsions:
  status: ('A' for Active; 'I' for Inactive)
    1  A    between atoms: C_1  and  C_11
    2  A    between atoms: C_2  and  C_20
    3  A    between atoms: C_5  and  O_26
    4  A    between atoms: C_8  and  O_19
    5  A    between atoms: C_10  and  O_26
                            x       y       z     vdW  Elec       q    Type
                         _______ _______ _______ _____ _____    ______ ____

>  <TORSDO>
F 5

$$$$
