=
 OpenBabel11052410513D

 28 31  0  0  1  0  0  0  0  0999 V2000
  160.9190  203.0700  146.3100 O   0  0  0  0  0  0  0  0  0  0  0  0
  160.7900  204.8290  150.2220 C   0  0  2  0  0  3  0  0  0  0  0  0
  161.5230  206.6310  146.9000 C   0  0  0  0  0  1  0  0  0  0  0  0
  160.8740  203.4120  150.7600 C   0  0  0  0  0  0  0  0  0  0  0  0
  160.0970  201.0250  148.0270 O   0  0  0  0  0  1  0  0  0  0  0  0
  160.5690  204.9490  148.8300 O   0  0  0  0  0  0  0  0  0  0  0  0
  161.9350  205.1670  146.8530 C   0  0  0  0  0  0  0  0  0  0  0  0
  161.6850  204.4260  148.1410 C   0  0  2  0  0  3  0  0  0  0  0  0
  161.3730  203.0180  147.6450 C   0  0  1  0  0  3  0  0  0  0  0  0
  161.5770  204.4270  144.5690 O   0  0  0  0  0  1  0  0  0  0  0  0
  163.4180  205.0780  146.5140 C   0  0  0  0  0  1  0  0  0  0  0  0
  161.2060  200.9530  150.4970 C   0  0  0  0  0  1  0  0  0  0  0  0
  160.9780  203.2670  152.0080 O   0  0  0  0  0  0  0  0  0  0  0  0
  161.0660  204.3990  145.8710 C   0  0  1  0  0  3  0  0  0  0  0  0
  160.8350  202.2400  149.9170 N   0  0  0  0  0  0  0  0  0  0  0  0
  160.3540  202.3040  148.5330 C   0  0  2  0  0  3  0  0  0  0  0  0
  161.9320  205.7160  150.7300 C   0  0  0  0  0  2  0  0  0  0  0  0
  160.8120  208.5260  152.7750 C   0  0  0  0  0  0  0  0  0  0  0  0
  159.4890  210.8250  156.3930 N   0  0  0  0  0  1  0  0  0  0  0  0
  160.4760  209.8490  152.9640 C   0  0  0  0  0  3  0  0  0  0  0  0
  160.1200  208.6240  155.7610 N   0  0  0  0  0  0  0  0  0  0  0  0
  159.9160  209.9160  155.3860 C   0  0  0  0  0  0  0  0  0  0  0  0
  160.0890  210.4120  154.1320 N   0  0  0  0  0  0  0  0  0  0  0  0
  161.4530  206.6570  151.7830 C   0  0  0  0  0  0  0  0  0  0  0  0
  160.5170  207.5210  155.0860 C   0  0  0  0  0  3  0  0  0  0  0  0
  160.8310  207.4610  153.7470 C   0  0  0  0  0  0  0  0  0  0  0  0
  161.2380  206.3120  153.1070 C   0  0  0  0  0  3  0  0  0  0  0  0
  161.2060  208.0010  151.5640 C   0  0  0  0  0  3  0  0  0  0  0  0
  2 17  1  6  0  0  0
  2  4  1  0  0  0  0
  4 13  2  0  0  0  0
  6  2  1  0  0  0  0
  7  3  1  0  0  0  0
  7  8  1  0  0  0  0
  8  6  1  6  0  0  0
  9  1  1  6  0  0  0
  9  8  1  0  0  0  0
  9 16  1  0  0  0  0
 11  7  1  0  0  0  0
 14 10  1  6  0  0  0
 14  1  1  0  0  0  0
 14  7  1  0  0  0  0
 15 12  1  0  0  0  0
 15  4  1  0  0  0  0
 16  5  1  6  0  0  0
 16 15  1  0  0  0  0
 17 24  1  0  0  0  0
 18 20  1  0  0  0  0
 18 26  1  0  0  0  0
 20 23  2  0  0  0  0
 22 21  2  0  0  0  0
 22 19  1  0  0  0  0
 23 22  1  0  0  0  0
 24 27  2  0  0  0  0
 25 21  1  0  0  0  0
 26 25  2  0  0  0  0
 27 26  1  0  0  0  0
 28 24  1  0  0  0  0
 28 18  2  0  0  0  0
M  END
>  <MODEL>
1

>  <REMARK>
 VINA RESULT:      -9.4      0.000      0.000
  Name = 
  2 active torsions:
  status: ('A' for Active; 'I' for Inactive)
    1  A    between atoms: C_2  and  C_3
    2  A    between atoms: C_3  and  C_22
                            x       y       z     vdW  Elec       q    Type
                         _______ _______ _______ _____ _____    ______ ____

>  <TORSDO>
F 2

$$$$
=
 OpenBabel11052410513D

 28 31  0  0  1  0  0  0  0  0999 V2000
  160.9050  203.0380  146.3510 O   0  0  0  0  0  0  0  0  0  0  0  0
  160.7870  204.9310  150.2000 C   0  0  2  0  0  3  0  0  0  0  0  0
  161.5460  206.6090  146.8200 C   0  0  0  0  0  1  0  0  0  0  0  0
  160.8530  203.5320  150.7860 C   0  0  0  0  0  0  0  0  0  0  0  0
  160.0570  201.0610  148.1350 O   0  0  0  0  0  1  0  0  0  0  0  0
  160.5700  205.0060  148.8040 O   0  0  0  0  0  0  0  0  0  0  0  0
  161.9430  205.1400  146.8240 C   0  0  0  0  0  0  0  0  0  0  0  0
  161.6820  204.4470  148.1360 C   0  0  2  0  0  3  0  0  0  0  0  0
  161.3550  203.0260  147.6880 C   0  0  1  0  0  3  0  0  0  0  0  0
  161.5820  204.3270  144.5660 O   0  0  0  0  0  1  0  0  0  0  0  0
  163.4250  205.0240  146.4920 C   0  0  0  0  0  1  0  0  0  0  0  0
  161.1590  201.0620  150.6090 C   0  0  0  0  0  1  0  0  0  0  0  0
  160.9530  203.4290  152.0390 O   0  0  0  0  0  0  0  0  0  0  0  0
  161.0680  204.3490  145.8670 C   0  0  1  0  0  3  0  0  0  0  0  0
  160.8040  202.3330  149.9840 N   0  0  0  0  0  0  0  0  0  0  0  0
  160.3270  202.3550  148.5970 C   0  0  2  0  0  3  0  0  0  0  0  0
  161.9360  205.8220  150.6800 C   0  0  0  0  0  2  0  0  0  0  0  0
  160.8170  207.6580  153.6320 C   0  0  0  0  0  0  0  0  0  0  0  0
  159.2750  211.0440  156.1380 N   0  0  0  0  0  1  0  0  0  0  0  0
  160.5160  207.7590  154.9720 C   0  0  0  0  0  3  0  0  0  0  0  0
  159.8740  210.5640  153.8910 N   0  0  0  0  0  0  0  0  0  0  0  0
  159.7540  210.1190  155.1710 C   0  0  0  0  0  0  0  0  0  0  0  0
  160.0510  208.8640  155.6010 N   0  0  0  0  0  0  0  0  0  0  0  0
  161.4640  206.8060  151.6960 C   0  0  0  0  0  0  0  0  0  0  0  0
  160.2840  209.9750  152.7440 C   0  0  0  0  0  2  0  0  0  0  0  0
  160.7100  208.6720  152.6120 C   0  0  0  0  0  0  0  0  0  0  0  0
  161.1130  208.1160  151.4180 C   0  0  0  0  0  3  0  0  0  0  0  0
  161.2840  206.5070  153.0360 C   0  0  0  0  0  2  0  0  0  0  0  0
  2 17  1  6  0  0  0
  2  4  1  0  0  0  0
  3  7  1  0  0  0  0
  4 13  2  0  0  0  0
  6  2  1  0  0  0  0
  7  8  1  0  0  0  0
  8  6  1  6  0  0  0
  9  1  1  6  0  0  0
  9  8  1  0  0  0  0
  9 16  1  0  0  0  0
 11  7  1  0  0  0  0
 14 10  1  6  0  0  0
 14  1  1  0  0  0  0
 14  7  1  0  0  0  0
 15 12  1  0  0  0  0
 15  4  1  0  0  0  0
 16  5  1  6  0  0  0
 16 15  1  0  0  0  0
 17 24  1  0  0  0  0
 18 20  1  0  0  0  0
 20 23  2  0  0  0  0
 21 22  2  0  0  0  0
 22 23  1  0  0  0  0
 22 19  1  0  0  0  0
 24 28  1  0  0  0  0
 25 21  1  0  0  0  0
 26 25  1  0  0  0  0
 26 18  2  0  0  0  0
 27 24  2  0  0  0  0
 27 26  1  0  0  0  0
 28 18  1  0  0  0  0
M  END
>  <MODEL>
2

>  <REMARK>
 VINA RESULT:      -9.3      0.194      1.297
  Name = 
  2 active torsions:
  status: ('A' for Active; 'I' for Inactive)
    1  A    between atoms: C_2  and  C_3
    2  A    between atoms: C_3  and  C_22
                            x       y       z     vdW  Elec       q    Type
                         _______ _______ _______ _____ _____    ______ ____

>  <TORSDO>
F 2

$$$$
=
 OpenBabel11052410513D

 28 31  0  0  1  0  0  0  0  0999 V2000
  160.1390  210.7300  155.0610 O   0  0  0  0  0  0  0  0  0  0  0  0
  160.7590  207.5870  152.2070 C   0  0  2  0  0  3  0  0  0  0  0  0
  159.9370  207.1850  155.9460 C   0  0  0  0  0  1  0  0  0  0  0  0
  161.3720  208.6480  151.3110 C   0  0  0  0  0  0  0  0  0  0  0  0
  160.4520  212.0060  152.5940 O   0  0  0  0  0  1  0  0  0  0  0  0
  160.0980  208.0620  153.3640 O   0  0  0  0  0  0  0  0  0  0  0  0
  160.6840  208.4810  155.6670 C   0  0  0  0  0  0  0  0  0  0  0  0
  161.0450  208.6700  154.2160 C   0  0  2  0  0  3  0  0  0  0  0  0
  160.9780  210.1870  154.0640 C   0  0  1  0  0  3  0  0  0  0  0  0
  159.8510  210.1100  157.2610 O   0  0  0  0  0  1  0  0  0  0  0  0
  161.9600  208.5090  156.4990 C   0  0  0  0  0  1  0  0  0  0  0  0
  162.2420  210.9430  150.8620 C   0  0  0  0  0  1  0  0  0  0  0  0
  161.8890  208.2670  150.2250 O   0  0  0  0  0  0  0  0  0  0  0  0
  159.7900  209.6800  155.9310 C   0  0  1  0  0  3  0  0  0  0  0  0
  161.3860  210.0530  151.6420 N   0  0  0  0  0  0  0  0  0  0  0  0
  160.5050  210.6090  152.6740 C   0  0  2  0  0  3  0  0  0  0  0  0
  161.7250  206.4340  152.4950 C   0  0  0  0  0  2  0  0  0  0  0  0
  161.2230  203.2840  150.7170 C   0  0  0  0  0  0  0  0  0  0  0  0
  160.8480  200.4040  147.2980 N   0  0  0  0  0  1  0  0  0  0  0  0
  161.0020  201.9260  150.6670 C   0  0  0  0  0  3  0  0  0  0  0  0
  161.2160  202.7150  147.7030 N   0  0  0  0  0  0  0  0  0  0  0  0
  160.9970  201.4760  148.2200 C   0  0  0  0  0  0  0  0  0  0  0  0
  160.9110  201.1760  149.5430 N   0  0  0  0  0  0  0  0  0  0  0  0
  161.5380  205.3200  151.5220 C   0  0  0  0  0  0  0  0  0  0  0  0
  161.4000  203.9300  148.2690 C   0  0  0  0  0  2  0  0  0  0  0  0
  161.4060  204.2010  149.6190 C   0  0  0  0  0  0  0  0  0  0  0  0
  161.6050  205.4580  150.1460 C   0  0  0  0  0  3  0  0  0  0  0  0
  161.3130  204.0040  151.8880 C   0  0  0  0  0  2  0  0  0  0  0  0
  1 14  1  0  0  0  0
  2 17  1  1  0  0  0
  2  6  1  0  0  0  0
  4 15  1  0  0  0  0
  4  2  1  0  0  0  0
  7 14  1  0  0  0  0
  7  3  1  0  0  0  0
  7 11  1  0  0  0  0
  8  6  1  6  0  0  0
  8  7  1  0  0  0  0
  9  8  1  0  0  0  0
  9  1  1  1  0  0  0
 12 15  1  0  0  0  0
 13  4  2  0  0  0  0
 14 10  1  1  0  0  0
 15 16  1  0  0  0  0
 16  5  1  1  0  0  0
 16  9  1  0  0  0  0
 18 28  1  0  0  0  0
 19 22  1  0  0  0  0
 20 18  1  0  0  0  0
 21 22  2  0  0  0  0
 21 25  1  0  0  0  0
 22 23  1  0  0  0  0
 23 20  2  0  0  0  0
 24 28  1  0  0  0  0
 24 17  1  0  0  0  0
 25 26  1  0  0  0  0
 26 27  1  0  0  0  0
 26 18  2  0  0  0  0
 27 24  2  0  0  0  0
M  END
>  <MODEL>
3

>  <REMARK>
 VINA RESULT:      -8.2      3.274      8.734
  Name = 
  2 active torsions:
  status: ('A' for Active; 'I' for Inactive)
    1  A    between atoms: C_2  and  C_3
    2  A    between atoms: C_3  and  C_22
                            x       y       z     vdW  Elec       q    Type
                         _______ _______ _______ _____ _____    ______ ____

>  <TORSDO>
F 2

$$$$
=
 OpenBabel11052410513D

 28 31  0  0  1  0  0  0  0  0999 V2000
  161.6490  201.9110  146.9560 O   0  0  0  0  0  0  0  0  0  0  0  0
  161.4360  205.4200  149.4160 C   0  0  2  0  0  3  0  0  0  0  0  0
  161.3100  201.7580  150.5960 C   0  0  0  0  0  1  0  0  0  0  0  0
  161.1520  206.1860  148.1370 C   0  0  0  0  0  0  0  0  0  0  0  0
  162.0480  204.0680  145.2250 O   0  0  0  0  0  1  0  0  0  0  0  0
  161.8460  204.0750  149.2530 O   0  0  0  0  0  0  0  0  0  0  0  0
  160.7720  201.9150  149.1810 C   0  0  0  0  0  0  0  0  0  0  0  0
  160.7830  203.3380  148.6850 C   0  0  2  0  0  3  0  0  0  0  0  0
  161.0240  203.1540  147.1900 C   0  0  1  0  0  3  0  0  0  0  0  0
  161.3510  199.8780  147.9970 O   0  0  0  0  0  1  0  0  0  0  0  0
  159.3430  201.3880  149.1300 C   0  0  0  0  0  1  0  0  0  0  0  0
  160.6280  206.3250  145.7020 C   0  0  0  0  0  1  0  0  0  0  0  0
  160.8740  207.4120  148.2410 O   0  0  0  0  0  0  0  0  0  0  0  0
  161.6840  201.2240  148.1830 C   0  0  1  0  0  3  0  0  0  0  0  0
  161.1900  205.5820  146.8260 N   0  0  0  0  0  0  0  0  0  0  0  0
  161.8490  204.2930  146.5920 C   0  0  2  0  0  3  0  0  0  0  0  0
  160.3270  205.5900  150.4590 C   0  0  0  0  0  2  0  0  0  0  0  0
  161.1280  207.4630  153.4900 C   0  0  0  0  0  0  0  0  0  0  0  0
  162.3030  210.9080  156.1120 N   0  0  0  0  0  1  0  0  0  0  0  0
  161.2690  207.5860  154.8540 C   0  0  0  0  0  3  0  0  0  0  0  0
  161.9770  210.3910  153.8170 N   0  0  0  0  0  0  0  0  0  0  0  0
  161.9590  209.9620  155.1080 C   0  0  0  0  0  0  0  0  0  0  0  0
  161.6370  208.7070  155.5180 N   0  0  0  0  0  0  0  0  0  0  0  0
  160.7200  206.5770  151.5050 C   0  0  0  0  0  0  0  0  0  0  0  0
  161.7120  209.7810  152.6390 C   0  0  0  0  0  2  0  0  0  0  0  0
  161.3300  208.4680  152.4760 C   0  0  0  0  0  0  0  0  0  0  0  0
  161.0650  207.8950  151.2520 C   0  0  0  0  0  3  0  0  0  0  0  0
  160.7460  206.2990  152.8600 C   0  0  0  0  0  2  0  0  0  0  0  0
  1 14  1  0  0  0  0
  2 17  1  1  0  0  0
  4 13  2  0  0  0  0
  4  2  1  0  0  0  0
  6  2  1  0  0  0  0
  7  3  1  0  0  0  0
  8  7  1  0  0  0  0
  8  6  1  1  0  0  0
  9  1  1  1  0  0  0
  9  8  1  0  0  0  0
 11  7  1  0  0  0  0
 12 15  1  0  0  0  0
 14 10  1  6  0  0  0
 14  7  1  0  0  0  0
 15  4  1  0  0  0  0
 16  5  1  6  0  0  0
 16 15  1  0  0  0  0
 16  9  1  0  0  0  0
 17 24  1  0  0  0  0
 18 20  1  0  0  0  0
 20 23  2  0  0  0  0
 21 22  2  0  0  0  0
 22 23  1  0  0  0  0
 22 19  1  0  0  0  0
 24 28  1  0  0  0  0
 25 21  1  0  0  0  0
 26 25  1  0  0  0  0
 26 18  2  0  0  0  0
 27 24  2  0  0  0  0
 27 26  1  0  0  0  0
 28 18  1  0  0  0  0
M  END
>  <MODEL>
4

>  <REMARK>
 VINA RESULT:      -8.2      1.662      3.632
  Name = 
  2 active torsions:
  status: ('A' for Active; 'I' for Inactive)
    1  A    between atoms: C_2  and  C_3
    2  A    between atoms: C_3  and  C_22
                            x       y       z     vdW  Elec       q    Type
                         _______ _______ _______ _____ _____    ______ ____

>  <TORSDO>
F 2

$$$$
=
 OpenBabel11052410513D

 28 31  0  0  1  0  0  0  0  0999 V2000
  160.6580  203.9200  144.7140 O   0  0  0  0  0  0  0  0  0  0  0  0
  160.9040  203.1430  148.9260 C   0  0  2  0  0  3  0  0  0  0  0  0
  161.4660  206.5170  147.1610 C   0  0  0  0  0  1  0  0  0  0  0  0
  160.9630  201.6720  148.5570 C   0  0  0  0  0  0  0  0  0  0  0  0
  159.8760  201.2560  145.0340 O   0  0  0  0  0  1  0  0  0  0  0  0
  160.5840  204.0320  147.8730 O   0  0  0  0  0  0  0  0  0  0  0  0
  161.8070  205.3420  146.2570 C   0  0  0  0  0  0  0  0  0  0  0  0
  161.6210  203.9990  146.9150 C   0  0  2  0  0  3  0  0  0  0  0  0
  161.2080  203.1200  145.7380 C   0  0  1  0  0  3  0  0  0  0  0  0
  161.2450  206.0290  143.9980 O   0  0  0  0  0  1  0  0  0  0  0  0
  163.2540  205.4690  145.7980 C   0  0  0  0  0  1  0  0  0  0  0  0
  161.1620  199.8000  146.9200 C   0  0  0  0  0  1  0  0  0  0  0  0
  161.1550  200.8440  149.4890 O   0  0  0  0  0  0  0  0  0  0  0  0
  160.8330  205.2630  145.0940 C   0  0  1  0  0  3  0  0  0  0  0  0
  160.8080  201.1870  147.2060 N   0  0  0  0  0  0  0  0  0  0  0  0
  160.2280  202.0230  146.1510 C   0  0  2  0  0  3  0  0  0  0  0  0
  162.1200  203.5900  149.7450 C   0  0  0  0  0  2  0  0  0  0  0  0
  161.2800  205.8820  152.4610 C   0  0  0  0  0  0  0  0  0  0  0  0
  160.1370  209.6860  154.5460 N   0  0  0  0  0  1  0  0  0  0  0  0
  161.0400  206.1800  153.7840 C   0  0  0  0  0  3  0  0  0  0  0  0
  160.6050  208.8720  152.3650 N   0  0  0  0  0  0  0  0  0  0  0  0
  160.4960  208.6060  153.6950 C   0  0  0  0  0  0  0  0  0  0  0  0
  160.6980  207.3940  154.2760 N   0  0  0  0  0  0  0  0  0  0  0  0
  161.7750  204.7350  150.6370 C   0  0  0  0  0  0  0  0  0  0  0  0
  160.9180  208.1060  151.2940 C   0  0  0  0  0  2  0  0  0  0  0  0
  161.2230  206.7640  151.3220 C   0  0  0  0  0  0  0  0  0  0  0  0
  161.5290  206.0260  150.2000 C   0  0  0  0  0  3  0  0  0  0  0  0
  161.6210  204.6270  152.0080 C   0  0  0  0  0  2  0  0  0  0  0  0
  1 14  1  0  0  0  0
  2 17  1  6  0  0  0
  4  2  1  0  0  0  0
  4 13  2  0  0  0  0
  6  2  1  0  0  0  0
  7  8  1  0  0  0  0
  7  3  1  0  0  0  0
  8  6  1  1  0  0  0
  9  1  1  6  0  0  0
  9 16  1  0  0  0  0
  9  8  1  0  0  0  0
 11  7  1  0  0  0  0
 12 15  1  0  0  0  0
 14 10  1  6  0  0  0
 14  7  1  0  0  0  0
 15  4  1  0  0  0  0
 16  5  1  6  0  0  0
 16 15  1  0  0  0  0
 17 24  1  0  0  0  0
 18 20  1  0  0  0  0
 20 23  2  0  0  0  0
 21 22  2  0  0  0  0
 22 23  1  0  0  0  0
 22 19  1  0  0  0  0
 24 28  1  0  0  0  0
 25 26  1  0  0  0  0
 25 21  1  0  0  0  0
 26 18  2  0  0  0  0
 27 24  2  0  0  0  0
 27 26  1  0  0  0  0
 28 18  1  0  0  0  0
M  END
>  <MODEL>
5

>  <REMARK>
 VINA RESULT:      -8.1      1.550      2.561
  Name = 
  2 active torsions:
  status: ('A' for Active; 'I' for Inactive)
    1  A    between atoms: C_2  and  C_3
    2  A    between atoms: C_3  and  C_22
                            x       y       z     vdW  Elec       q    Type
                         _______ _______ _______ _____ _____    ______ ____

>  <TORSDO>
F 2

$$$$
=
 OpenBabel11052410513D

 28 31  0  0  1  0  0  0  0  0999 V2000
  160.8470  202.9390  147.0360 O   0  0  0  0  0  0  0  0  0  0  0  0
  161.1430  205.7160  150.2940 C   0  0  2  0  0  3  0  0  0  0  0  0
  161.7050  206.4640  146.5600 C   0  0  0  0  0  1  0  0  0  0  0  0
  161.1860  204.5010  151.2030 C   0  0  0  0  0  0  0  0  0  0  0  0
  160.0500  201.5200  149.3080 O   0  0  0  0  0  1  0  0  0  0  0  0
  160.8150  205.4630  148.9410 O   0  0  0  0  0  0  0  0  0  0  0  0
  162.0250  205.0160  146.9010 C   0  0  0  0  0  0  0  0  0  0  0  0
  161.8380  204.6830  148.3590 C   0  0  2  0  0  3  0  0  0  0  0  0
  161.4050  203.2220  148.3010 C   0  0  1  0  0  3  0  0  0  0  0  0
  161.4380  203.7050  144.9460 O   0  0  0  0  0  1  0  0  0  0  0  0
  163.4670  204.7200  146.5100 C   0  0  0  0  0  1  0  0  0  0  0  0
  161.3510  202.0470  151.6240 C   0  0  0  0  0  1  0  0  0  0  0  0
  161.3840  204.6990  152.4330 O   0  0  0  0  0  0  0  0  0  0  0  0
  161.0350  204.0780  146.2320 C   0  0  1  0  0  3  0  0  0  0  0  0
  161.0100  203.1490  150.7290 N   0  0  0  0  0  0  0  0  0  0  0  0
  160.4220  202.8650  149.4150 C   0  0  2  0  0  3  0  0  0  0  0  0
  162.3720  206.6150  150.4590 C   0  0  0  0  0  2  0  0  0  0  0  0
  161.7350  210.1000  149.5710 C   0  0  0  0  0  0  0  0  0  0  0  0
  160.5000  214.3900  150.0150 N   0  0  0  0  0  1  0  0  0  0  0  0
  161.7480  211.1650  148.6980 C   0  0  0  0  0  3  0  0  0  0  0  0
  160.6010  212.3810  151.2780 N   0  0  0  0  0  0  0  0  0  0  0  0
  160.8250  213.0080  150.0920 C   0  0  0  0  0  0  0  0  0  0  0  0
  161.3380  212.4250  148.9760 N   0  0  0  0  0  0  0  0  0  0  0  0
  161.9980  208.0560  150.3750 C   0  0  0  0  0  0  0  0  0  0  0  0
  160.7890  211.1090  151.6990 C   0  0  0  0  0  3  0  0  0  0  0  0
  161.2970  210.0750  150.9450 C   0  0  0  0  0  0  0  0  0  0  0  0
  161.4750  208.7950  151.4230 C   0  0  0  0  0  3  0  0  0  0  0  0
  162.1700  208.8350  149.2430 C   0  0  0  0  0  3  0  0  0  0  0  0
  2 17  1  6  0  0  0
  2  4  1  0  0  0  0
  3  7  1  0  0  0  0
  4 13  2  0  0  0  0
  6  2  1  0  0  0  0
  7  8  1  0  0  0  0
  8  6  1  6  0  0  0
  9  1  1  6  0  0  0
  9  8  1  0  0  0  0
  9 16  1  0  0  0  0
 11  7  1  0  0  0  0
 14 10  1  6  0  0  0
 14  7  1  0  0  0  0
 14  1  1  0  0  0  0
 15  4  1  0  0  0  0
 15 12  1  0  0  0  0
 16  5  1  1  0  0  0
 16 15  1  0  0  0  0
 18 26  1  0  0  0  0
 19 22  1  0  0  0  0
 20 23  2  0  0  0  0
 20 18  1  0  0  0  0
 21 25  1  0  0  0  0
 22 21  2  0  0  0  0
 23 22  1  0  0  0  0
 24 17  1  0  0  0  0
 24 27  2  0  0  0  0
 26 27  1  0  0  0  0
 26 25  2  0  0  0  0
 28 18  2  0  0  0  0
 28 24  1  0  0  0  0
M  END
>  <MODEL>
6

>  <REMARK>
 VINA RESULT:      -7.5      2.360      3.104
  Name = 
  2 active torsions:
  status: ('A' for Active; 'I' for Inactive)
    1  A    between atoms: C_2  and  C_3
    2  A    between atoms: C_3  and  C_22
                            x       y       z     vdW  Elec       q    Type
                         _______ _______ _______ _____ _____    ______ ____

>  <TORSDO>
F 2

$$$$
=
 OpenBabel11052410513D

 28 31  0  0  1  0  0  0  0  0999 V2000
  158.2850  212.8360  155.1730 O   0  0  0  0  0  0  0  0  0  0  0  0
  160.1490  210.6330  151.9990 C   0  0  2  0  0  3  0  0  0  0  0  0
  159.5450  209.4280  155.6050 C   0  0  0  0  0  1  0  0  0  0  0  0
  160.2800  211.9620  151.2780 C   0  0  0  0  0  0  0  0  0  0  0  0
  158.0610  214.4520  152.9040 O   0  0  0  0  0  1  0  0  0  0  0  0
  159.3460  210.6370  153.1630 O   0  0  0  0  0  0  0  0  0  0  0  0
  159.6990  210.9400  155.5320 C   0  0  0  0  0  0  0  0  0  0  0  0
  159.9580  211.4550  154.1390 C   0  0  2  0  0  3  0  0  0  0  0  0
  159.2780  212.8190  154.1700 C   0  0  1  0  0  3  0  0  0  0  0  0
  158.2650  211.8600  157.2590 O   0  0  0  0  0  1  0  0  0  0  0  0
  160.8480  211.3680  156.4360 C   0  0  0  0  0  1  0  0  0  0  0  0
  160.1380  214.4500  151.1660 C   0  0  0  0  0  1  0  0  0  0  0  0
  160.9120  211.9750  150.1870 O   0  0  0  0  0  0  0  0  0  0  0  0
  158.3920  211.6280  155.8860 C   0  0  1  0  0  3  0  0  0  0  0  0
  159.7170  213.1940  151.7780 N   0  0  0  0  0  0  0  0  0  0  0  0
  158.6810  213.2000  152.8160 C   0  0  2  0  0  3  0  0  0  0  0  0
  161.5010  209.9410  152.2020 C   0  0  0  0  0  2  0  0  0  0  0  0
  161.1850  206.6060  150.7500 C   0  0  0  0  0  0  0  0  0  0  0  0
  160.8820  202.1360  150.5200 N   0  0  0  0  0  1  0  0  0  0  0  0
  161.0260  205.7390  149.6910 C   0  0  0  0  0  3  0  0  0  0  0  0
  161.1480  203.8650  152.1250 N   0  0  0  0  0  0  0  0  0  0  0  0
  160.9990  203.5210  150.8170 C   0  0  0  0  0  0  0  0  0  0  0  0
  160.9490  204.3900  149.7730 N   0  0  0  0  0  0  0  0  0  0  0  0
  161.4120  208.4850  151.8920 C   0  0  0  0  0  0  0  0  0  0  0  0
  161.2840  205.0540  152.7560 C   0  0  0  0  0  3  0  0  0  0  0  0
  161.3020  206.2920  152.1520 C   0  0  0  0  0  0  0  0  0  0  0  0
  161.4370  207.4770  152.8410 C   0  0  0  0  0  3  0  0  0  0  0  0
  161.2520  207.9750  150.6160 C   0  0  0  0  0  3  0  0  0  0  0  0
  1 14  1  0  0  0  0
  2 17  1  1  0  0  0
  2  6  1  0  0  0  0
  4 15  1  0  0  0  0
  4  2  1  0  0  0  0
  7  3  1  0  0  0  0
  7 14  1  0  0  0  0
  7 11  1  0  0  0  0
  8  6  1  6  0  0  0
  8  9  1  0  0  0  0
  8  7  1  0  0  0  0
  9  1  1  1  0  0  0
 12 15  1  0  0  0  0
 13  4  2  0  0  0  0
 14 10  1  1  0  0  0
 15 16  1  0  0  0  0
 16  5  1  1  0  0  0
 16  9  1  0  0  0  0
 18 26  1  0  0  0  0
 19 22  1  0  0  0  0
 20 23  2  0  0  0  0
 20 18  1  0  0  0  0
 21 25  1  0  0  0  0
 22 21  2  0  0  0  0
 23 22  1  0  0  0  0
 24 17  1  0  0  0  0
 24 27  2  0  0  0  0
 26 25  2  0  0  0  0
 26 27  1  0  0  0  0
 28 18  2  0  0  0  0
 28 24  1  0  0  0  0
M  END
>  <MODEL>
7

>  <REMARK>
 VINA RESULT:      -7.3      4.562      9.239
  Name = 
  2 active torsions:
  status: ('A' for Active; 'I' for Inactive)
    1  A    between atoms: C_2  and  C_3
    2  A    between atoms: C_3  and  C_22
                            x       y       z     vdW  Elec       q    Type
                         _______ _______ _______ _____ _____    ______ ____

>  <TORSDO>
F 2

$$$$
=
 OpenBabel11052410513D

 28 31  0  0  1  0  0  0  0  0999 V2000
  159.3500  211.8680  155.4950 O   0  0  0  0  0  0  0  0  0  0  0  0
  160.4860  210.5570  151.5710 C   0  0  2  0  0  3  0  0  0  0  0  0
  160.8470  208.5900  154.8600 C   0  0  0  0  0  1  0  0  0  0  0  0
  160.3680  212.0120  151.1530 C   0  0  0  0  0  0  0  0  0  0  0  0
  158.4940  213.8800  153.7540 O   0  0  0  0  0  1  0  0  0  0  0  0
  159.9940  210.2430  152.8600 O   0  0  0  0  0  0  0  0  0  0  0  0
  160.9020  210.0940  155.0910 C   0  0  0  0  0  0  0  0  0  0  0  0
  160.7850  210.9040  153.8250 C   0  0  2  0  0  3  0  0  0  0  0  0
  160.0650  212.1570  154.3130 C   0  0  1  0  0  3  0  0  0  0  0  0
  159.8910  210.4920  157.2610 O   0  0  0  0  0  1  0  0  0  0  0  0
  162.2150  210.4440  155.7800 C   0  0  0  0  0  1  0  0  0  0  0  0
  160.0780  214.4430  151.6300 C   0  0  0  0  0  1  0  0  0  0  0  0
  160.7120  212.3100  149.9760 O   0  0  0  0  0  0  0  0  0  0  0  0
  159.6890  210.5570  155.8780 C   0  0  1  0  0  3  0  0  0  0  0  0
  159.8840  213.0520  152.0280 N   0  0  0  0  0  0  0  0  0  0  0  0
  159.1350  212.7410  153.2510 C   0  0  2  0  0  3  0  0  0  0  0  0
  161.8790  209.9810  151.3000 C   0  0  0  0  0  2  0  0  0  0  0  0
  161.7780  207.1420  149.0060 C   0  0  0  0  0  0  0  0  0  0  0  0
  161.2750  202.9240  147.5610 N   0  0  0  0  0  1  0  0  0  0  0  0
  161.8690  206.5710  147.7560 C   0  0  0  0  0  3  0  0  0  0  0  0
  161.1850  204.1860  149.5710 N   0  0  0  0  0  0  0  0  0  0  0  0
  161.3890  204.1760  148.2260 C   0  0  0  0  0  0  0  0  0  0  0  0
  161.6890  205.2610  147.4650 N   0  0  0  0  0  0  0  0  0  0  0  0
  161.7900  208.6600  150.6140 C   0  0  0  0  0  0  0  0  0  0  0  0
  161.2110  205.1700  150.5000 C   0  0  0  0  0  3  0  0  0  0  0  0
  161.4750  206.5000  150.2620 C   0  0  0  0  0  0  0  0  0  0  0  0
  161.4840  207.4660  151.2440 C   0  0  0  0  0  3  0  0  0  0  0  0
  161.9650  208.4840  149.2520 C   0  0  0  0  0  3  0  0  0  0  0  0
  1 14  1  0  0  0  0
  2 17  1  1  0  0  0
  2  6  1  0  0  0  0
  3  7  1  0  0  0  0
  4  2  1  0  0  0  0
  4 15  1  0  0  0  0
  7 11  1  0  0  0  0
  7 14  1  0  0  0  0
  8  6  1  6  0  0  0
  8  9  1  0  0  0  0
  8  7  1  0  0  0  0
  9  1  1  1  0  0  0
 12 15  1  0  0  0  0
 13  4  2  0  0  0  0
 14 10  1  1  0  0  0
 15 16  1  0  0  0  0
 16  5  1  1  0  0  0
 16  9  1  0  0  0  0
 18 28  2  0  0  0  0
 18 26  1  0  0  0  0
 19 22  1  0  0  0  0
 20 18  1  0  0  0  0
 21 25  1  0  0  0  0
 22 21  2  0  0  0  0
 23 20  2  0  0  0  0
 23 22  1  0  0  0  0
 24 27  2  0  0  0  0
 24 17  1  0  0  0  0
 26 25  2  0  0  0  0
 26 27  1  0  0  0  0
 28 24  1  0  0  0  0
M  END
>  <MODEL>
8

>  <REMARK>
 VINA RESULT:      -7.1      4.320      9.184
  Name = 
  2 active torsions:
  status: ('A' for Active; 'I' for Inactive)
    1  A    between atoms: C_2  and  C_3
    2  A    between atoms: C_3  and  C_22
                            x       y       z     vdW  Elec       q    Type
                         _______ _______ _______ _____ _____    ______ ____

>  <TORSDO>
F 2

$$$$
=
 OpenBabel11052410513D

 28 31  0  0  1  0  0  0  0  0999 V2000
  160.9370  207.5840  153.2450 O   0  0  0  0  0  0  0  0  0  0  0  0
  161.4090  207.9100  148.9930 C   0  0  2  0  0  3  0  0  0  0  0  0
  161.2210  204.6660  151.0560 C   0  0  0  0  0  1  0  0  0  0  0  0
  161.7690  209.3640  149.2380 C   0  0  0  0  0  0  0  0  0  0  0  0
  160.7360  210.3120  152.6730 O   0  0  0  0  0  1  0  0  0  0  0  0
  160.8920  207.2050  150.1050 O   0  0  0  0  0  0  0  0  0  0  0  0
  161.7860  205.8210  151.8690 C   0  0  0  0  0  0  0  0  0  0  0  0
  161.8970  207.1090  151.0930 C   0  0  2  0  0  3  0  0  0  0  0  0
  161.6590  208.1560  152.1760 C   0  0  1  0  0  3  0  0  0  0  0  0
  161.0550  205.4720  154.1570 O   0  0  0  0  0  1  0  0  0  0  0  0
  163.1670  205.4380  152.3870 C   0  0  0  0  0  1  0  0  0  0  0  0
  162.3310  211.2930  150.7160 C   0  0  0  0  0  1  0  0  0  0  0  0
  162.1460  210.0470  148.2460 O   0  0  0  0  0  0  0  0  0  0  0  0
  160.8310  206.2050  152.9860 C   0  0  1  0  0  3  0  0  0  0  0  0
  161.6980  209.9910  150.5360 N   0  0  0  0  0  0  0  0  0  0  0  0
  160.9380  209.3910  151.6380 C   0  0  2  0  0  3  0  0  0  0  0  0
  162.5160  207.1480  148.2580 C   0  0  0  0  0  2  0  0  0  0  0  0
  161.4030  203.8280  147.2210 C   0  0  0  0  0  0  0  0  0  0  0  0
  159.7440  200.5790  144.6110 N   0  0  0  0  0  1  0  0  0  0  0  0
  161.2060  202.4800  147.4280 C   0  0  0  0  0  3  0  0  0  0  0  0
  160.2000  202.9090  144.5550 N   0  0  0  0  0  0  0  0  0  0  0  0
  160.2290  201.7460  145.2610 C   0  0  0  0  0  0  0  0  0  0  0  0
  160.6870  201.6070  146.5330 N   0  0  0  0  0  0  0  0  0  0  0  0
  161.9760  205.9330  147.5830 C   0  0  0  0  0  0  0  0  0  0  0  0
  160.5730  204.1750  144.8490 C   0  0  0  0  0  2  0  0  0  0  0  0
  161.1140  204.6030  146.0400 C   0  0  0  0  0  0  0  0  0  0  0  0
  161.4830  205.9070  146.2880 C   0  0  0  0  0  3  0  0  0  0  0  0
  161.9420  204.6770  148.1630 C   0  0  0  0  0  2  0  0  0  0  0  0
  2 17  1  1  0  0  0
  2  4  1  0  0  0  0
  2  6  1  0  0  0  0
  3  7  1  0  0  0  0
  4 15  1  0  0  0  0
  7 11  1  0  0  0  0
  7 14  1  0  0  0  0
  8  6  1  6  0  0  0
  8  7  1  0  0  0  0
  8  9  1  0  0  0  0
  9  1  1  1  0  0  0
 13  4  2  0  0  0  0
 14  1  1  0  0  0  0
 14 10  1  1  0  0  0
 15 12  1  0  0  0  0
 15 16  1  0  0  0  0
 16  9  1  0  0  0  0
 16  5  1  1  0  0  0
 18 20  1  0  0  0  0
 18 28  1  0  0  0  0
 19 22  1  0  0  0  0
 21 25  1  0  0  0  0
 21 22  2  0  0  0  0
 22 23  1  0  0  0  0
 23 20  2  0  0  0  0
 24 28  1  0  0  0  0
 24 17  1  0  0  0  0
 25 26  1  0  0  0  0
 26 27  1  0  0  0  0
 26 18  2  0  0  0  0
 27 24  2  0  0  0  0
M  END
>  <MODEL>
9

>  <REMARK>
 VINA RESULT:      -7.0      3.173      8.329
  Name = 
  2 active torsions:
  status: ('A' for Active; 'I' for Inactive)
    1  A    between atoms: C_2  and  C_3
    2  A    between atoms: C_3  and  C_22
                            x       y       z     vdW  Elec       q    Type
                         _______ _______ _______ _____ _____    ______ ____

>  <TORSDO>
F 2

$$$$
