=
 OpenBabel11042420273D

 31 34  0  0  1  0  0  0  0  0999 V2000
  162.1260  209.2580  150.8520 C   0  0  2  0  0  3  0  0  0  0  0  0
  161.3950  205.7860  151.4980 C   0  0  0  0  0  0  0  0  0  0  0  0
  161.7540  207.0430  151.9250 C   0  0  0  0  0  3  0  0  0  0  0  0
  161.1140  203.3490  150.0750 C   0  0  1  0  0  3  0  0  0  0  0  0
  161.1870  205.8380  150.1490 C   0  0  0  0  0  0  0  0  0  0  0  0
  161.7600  207.8450  150.8370 N   0  0  0  0  0  0  0  0  0  0  0  0
  161.2210  204.5500  152.2630 C   0  0  0  0  0  3  0  0  0  0  0  0
  160.7090  204.6610  149.3630 C   0  0  0  0  0  2  0  0  0  0  0  0
  161.3980  207.1340  149.7420 C   0  0  0  0  0  3  0  0  0  0  0  0
  161.0120  203.4050  151.5960 C   0  0  0  0  0  0  0  0  0  0  0  0
  160.8570  202.2580  152.3040 F   0  0  0  0  0  0  0  0  0  0  0  0
  160.3150  202.1840  149.5130 C   0  0  0  0  0  2  0  0  0  0  0  0
  161.2450  201.1100  148.9660 C   0  0  0  0  0  2  0  0  0  0  0  0
  160.8430  202.0930  146.8310 O   0  0  0  0  0  0  0  0  0  0  0  0
  161.4040  199.8390  146.7850 N   0  0  0  0  0  1  0  0  0  0  0  0
  161.1660  201.0620  147.4760 C   0  0  0  0  0  0  0  0  0  0  0  0
  160.1550  210.2750  151.9770 O   0  0  0  0  0  0  0  0  0  0  0  0
  162.0010  210.3520  153.1600 C   0  0  0  0  0  3  0  0  0  0  0  0
  158.6010  211.3790  153.5420 C   0  0  0  0  0  1  0  0  0  0  0  0
  159.9280  210.8530  153.1310 C   0  0  0  0  0  0  0  0  0  0  0  0
  161.4250  209.9570  151.9700 C   0  0  0  0  0  0  0  0  0  0  0  0
  161.0300  210.9250  153.9060 N   0  0  0  0  0  0  0  0  0  0  0  0
  161.7780  209.8800  149.5760 N   0  0  0  0  0  2  0  0  0  0  0  0
  162.3590  211.2200  149.5210 C   0  0  0  0  0  2  0  0  0  0  0  0
  161.4270  212.1750  148.9250 N   0  0  0  0  0  2  0  0  0  0  0  0
  160.2860  212.7000  145.3950 C   0  0  0  0  0  3  0  0  0  0  0  0
  160.2570  212.3880  146.7580 C   0  0  0  0  0  3  0  0  0  0  0  0
  162.6270  213.2980  145.5800 C   0  0  0  0  0  3  0  0  0  0  0  0
  161.4710  213.1500  144.8060 C   0  0  0  0  0  3  0  0  0  0  0  0
  161.4150  212.5320  147.5390 C   0  0  0  0  0  0  0  0  0  0  0  0
  162.5970  212.9890  146.9440 C   0  0  0  0  0  3  0  0  0  0  0  0
  1 23  1  6  0  0  0
  1 21  1  0  0  0  0
  2  3  2  0  0  0  0
  2  7  1  0  0  0  0
  4 12  1  6  0  0  0
  4 10  1  0  0  0  0
  5  2  1  0  0  0  0
  6  1  1  0  0  0  0
  6  3  1  0  0  0  0
  8  4  1  0  0  0  0
  8  5  1  0  0  0  0
  9  5  2  0  0  0  0
  9  6  1  0  0  0  0
 10  7  2  0  0  0  0
 10 11  1  0  0  0  0
 13 12  1  0  0  0  0
 14 16  2  0  0  0  0
 15 16  1  0  0  0  0
 16 13  1  0  0  0  0
 17 20  1  0  0  0  0
 18 22  1  0  0  0  0
 20 19  1  0  0  0  0
 20 22  2  0  0  0  0
 21 17  1  0  0  0  0
 21 18  2  0  0  0  0
 24 23  1  0  0  0  0
 25 24  1  0  0  0  0
 26 27  1  0  0  0  0
 27 30  2  0  0  0  0
 28 31  2  0  0  0  0
 29 26  2  0  0  0  0
 29 28  1  0  0  0  0
 30 25  1  0  0  0  0
 31 30  1  0  0  0  0
M  END
>  <MODEL>
1

>  <REMARK>
 VINA RESULT:      -8.0      0.000      0.000
  Name = 
  9 active torsions:
  status: ('A' for Active; 'I' for Inactive)
    1  A    between atoms: C_2  and  N_13
    2  A    between atoms: C_2  and  N_25
    3  A    between atoms: C_2  and  C_28
    4  A    between atoms: N_4  and  C_22
    5  A    between atoms: N_4  and  C_27
    6  A    between atoms: C_8  and  C_23
    7  A    between atoms: C_11  and  C_21
    8  A    between atoms: C_11  and  C_23
    9  A    between atoms: C_22  and  N_25
                            x       y       z     vdW  Elec       q    Type
                         _______ _______ _______ _____ _____    ______ ____

>  <TORSDO>
F 9

$$$$
=
 OpenBabel11042420273D

 31 34  0  0  1  0  0  0  0  0999 V2000
  160.7610  207.1110  152.6530 C   0  0  2  0  0  3  0  0  0  0  0  0
  160.8990  204.4190  150.2560 C   0  0  0  0  0  0  0  0  0  0  0  0
  160.7530  204.8830  151.5430 C   0  0  0  0  0  3  0  0  0  0  0  0
  161.7290  203.9630  147.5830 C   0  0  1  0  0  3  0  0  0  0  0  0
  161.0670  205.4960  149.4330 C   0  0  0  0  0  0  0  0  0  0  0  0
  160.8320  206.2310  151.4890 N   0  0  0  0  0  0  0  0  0  0  0  0
  160.8790  203.0470  149.7460 C   0  0  0  0  0  3  0  0  0  0  0  0
  161.1810  205.3630  147.9480 C   0  0  0  0  0  2  0  0  0  0  0  0
  161.0050  206.6300  150.2060 C   0  0  0  0  0  3  0  0  0  0  0  0
  161.1980  202.8340  148.4610 C   0  0  0  0  0  0  0  0  0  0  0  0
  161.1850  201.5630  147.9880 F   0  0  0  0  0  0  0  0  0  0  0  0
  161.4820  203.6770  146.1100 C   0  0  0  0  0  2  0  0  0  0  0  0
  162.2130  204.6890  145.2380 C   0  0  0  0  0  2  0  0  0  0  0  0
  160.1410  205.8210  144.9010 O   0  0  0  0  0  0  0  0  0  0  0  0
  161.5290  205.7390  143.0410 N   0  0  0  0  0  1  0  0  0  0  0  0
  161.2400  205.4590  144.4070 C   0  0  0  0  0  0  0  0  0  0  0  0
  160.2320  209.5300  152.4180 O   0  0  0  0  0  0  0  0  0  0  0  0
  162.2120  208.9680  151.6580 C   0  0  0  0  0  3  0  0  0  0  0  0
  160.2670  211.9500  151.9450 C   0  0  0  0  0  1  0  0  0  0  0  0
  160.8540  210.5850  151.9520 C   0  0  0  0  0  0  0  0  0  0  0  0
  161.0480  208.5200  152.2480 C   0  0  0  0  0  0  0  0  0  0  0  0
  162.0830  210.3000  151.4730 N   0  0  0  0  0  0  0  0  0  0  0  0
  161.7190  206.6770  153.6680 N   0  0  0  0  0  2  0  0  0  0  0  0
  161.0830  206.7400  154.9830 C   0  0  0  0  0  2  0  0  0  0  0  0
  161.5720  207.8840  155.7500 N   0  0  0  0  0  2  0  0  0  0  0  0
  158.9480  210.5550  155.8800 C   0  0  0  0  0  3  0  0  0  0  0  0
  159.5460  209.2910  155.9030 C   0  0  0  0  0  3  0  0  0  0  0  0
  161.1260  211.5810  155.6030 C   0  0  0  0  0  3  0  0  0  0  0  0
  159.7370  211.6990  155.7260 C   0  0  0  0  0  3  0  0  0  0  0  0
  160.9380  209.1670  155.7780 C   0  0  0  0  0  0  0  0  0  0  0  0
  161.7240  210.3170  155.6300 C   0  0  0  0  0  3  0  0  0  0  0  0
  1 23  1  1  0  0  0
  2  3  2  0  0  0  0
  4 12  1  6  0  0  0
  4  8  1  0  0  0  0
  4 10  1  0  0  0  0
  5  9  2  0  0  0  0
  5  2  1  0  0  0  0
  6  3  1  0  0  0  0
  6  1  1  0  0  0  0
  7  2  1  0  0  0  0
  8  5  1  0  0  0  0
  9  6  1  0  0  0  0
 10  7  2  0  0  0  0
 11 10  1  0  0  0  0
 13 12  1  0  0  0  0
 15 16  1  0  0  0  0
 16 14  2  0  0  0  0
 16 13  1  0  0  0  0
 18 21  2  0  0  0  0
 19 20  1  0  0  0  0
 20 17  1  0  0  0  0
 21 17  1  0  0  0  0
 21  1  1  0  0  0  0
 22 18  1  0  0  0  0
 22 20  2  0  0  0  0
 23 24  1  0  0  0  0
 24 25  1  0  0  0  0
 25 30  1  0  0  0  0
 26 27  1  0  0  0  0
 28 31  2  0  0  0  0
 28 29  1  0  0  0  0
 29 26  2  0  0  0  0
 30 27  2  0  0  0  0
 31 30  1  0  0  0  0
M  END
>  <MODEL>
2

>  <REMARK>
 VINA RESULT:      -8.0      3.478      5.622
  Name = 
  9 active torsions:
  status: ('A' for Active; 'I' for Inactive)
    1  A    between atoms: C_2  and  N_13
    2  A    between atoms: C_2  and  N_25
    3  A    between atoms: C_2  and  C_28
    4  A    between atoms: N_4  and  C_22
    5  A    between atoms: N_4  and  C_27
    6  A    between atoms: C_8  and  C_23
    7  A    between atoms: C_11  and  C_21
    8  A    between atoms: C_11  and  C_23
    9  A    between atoms: C_22  and  N_25
                            x       y       z     vdW  Elec       q    Type
                         _______ _______ _______ _____ _____    ______ ____

>  <TORSDO>
F 9

$$$$
=
 OpenBabel11042420273D

 31 34  0  0  1  0  0  0  0  0999 V2000
  161.0440  210.2020  152.9020 C   0  0  2  0  0  3  0  0  0  0  0  0
  161.8110  208.2500  149.9670 C   0  0  0  0  0  0  0  0  0  0  0  0
  161.8510  209.4270  150.6780 C   0  0  0  0  0  3  0  0  0  0  0  0
  161.0440  205.8040  148.7530 C   0  0  1  0  0  3  0  0  0  0  0  0
  161.1760  207.3130  150.7320 C   0  0  0  0  0  0  0  0  0  0  0  0
  161.2450  209.1950  151.8640 N   0  0  0  0  0  0  0  0  0  0  0  0
  162.3330  207.9410  148.6350 C   0  0  0  0  0  3  0  0  0  0  0  0
  161.0210  205.8910  150.2970 C   0  0  0  0  0  2  0  0  0  0  0  0
  160.8410  207.9030  151.9270 C   0  0  0  0  0  3  0  0  0  0  0  0
  162.0350  206.7530  148.0870 C   0  0  0  0  0  0  0  0  0  0  0  0
  162.5140  206.4680  146.8500 F   0  0  0  0  0  0  0  0  0  0  0  0
  161.2800  204.3670  148.3170 C   0  0  0  0  0  2  0  0  0  0  0  0
  160.8830  203.3990  149.4230 C   0  0  0  0  0  2  0  0  0  0  0  0
  160.9720  201.0350  149.7200 O   0  0  0  0  0  0  0  0  0  0  0  0
  160.8490  201.7430  147.5120 N   0  0  0  0  0  1  0  0  0  0  0  0
  160.8870  201.9960  148.9130 C   0  0  0  0  0  0  0  0  0  0  0  0
  160.4300  208.5800  154.6840 O   0  0  0  0  0  0  0  0  0  0  0  0
  162.0640  209.9370  155.2330 C   0  0  0  0  0  3  0  0  0  0  0  0
  160.2700  207.2500  156.7540 C   0  0  0  0  0  1  0  0  0  0  0  0
  160.8490  208.3160  155.8970 C   0  0  0  0  0  0  0  0  0  0  0  0
  161.1610  209.5760  154.2530 C   0  0  0  0  0  0  0  0  0  0  0  0
  161.8610  209.1190  156.2880 N   0  0  0  0  0  0  0  0  0  0  0  0
  159.7310  210.8230  152.7500 N   0  0  0  0  0  2  0  0  0  0  0  0
  159.8290  212.2410  153.0910 C   0  0  0  0  0  2  0  0  0  0  0  0
  158.7980  213.0200  152.4080 N   0  0  0  0  0  2  0  0  0  0  0  0
  157.5950  213.5250  148.8960 C   0  0  0  0  0  3  0  0  0  0  0  0
  157.5790  213.3180  150.2790 C   0  0  0  0  0  3  0  0  0  0  0  0
  160.0140  213.6550  148.9430 C   0  0  0  0  0  3  0  0  0  0  0  0
  158.8120  213.6900  148.2280 C   0  0  0  0  0  3  0  0  0  0  0  0
  158.7820  213.2800  151.0010 C   0  0  0  0  0  0  0  0  0  0  0  0
  159.9970  213.4510  150.3270 C   0  0  0  0  0  3  0  0  0  0  0  0
  1 23  1  6  0  0  0
  1 21  1  0  0  0  0
  2  3  2  0  0  0  0
  2  5  1  0  0  0  0
  3  6  1  0  0  0  0
  4 12  1  1  0  0  0
  4  8  1  0  0  0  0
  5  9  2  0  0  0  0
  6  9  1  0  0  0  0
  6  1  1  0  0  0  0
  7  2  1  0  0  0  0
  8  5  1  0  0  0  0
 10  7  2  0  0  0  0
 10  4  1  0  0  0  0
 11 10  1  0  0  0  0
 12 13  1  0  0  0  0
 15 16  1  0  0  0  0
 16 13  1  0  0  0  0
 16 14  2  0  0  0  0
 17 20  1  0  0  0  0
 18 22  1  0  0  0  0
 20 22  2  0  0  0  0
 20 19  1  0  0  0  0
 21 17  1  0  0  0  0
 21 18  2  0  0  0  0
 23 24  1  0  0  0  0
 25 24  1  0  0  0  0
 26 27  1  0  0  0  0
 27 30  2  0  0  0  0
 28 31  2  0  0  0  0
 29 26  2  0  0  0  0
 29 28  1  0  0  0  0
 30 25  1  0  0  0  0
 31 30  1  0  0  0  0
M  END
>  <MODEL>
3

>  <REMARK>
 VINA RESULT:      -7.7      2.696      3.680
  Name = 
  9 active torsions:
  status: ('A' for Active; 'I' for Inactive)
    1  A    between atoms: C_2  and  N_13
    2  A    between atoms: C_2  and  N_25
    3  A    between atoms: C_2  and  C_28
    4  A    between atoms: N_4  and  C_22
    5  A    between atoms: N_4  and  C_27
    6  A    between atoms: C_8  and  C_23
    7  A    between atoms: C_11  and  C_21
    8  A    between atoms: C_11  and  C_23
    9  A    between atoms: C_22  and  N_25
                            x       y       z     vdW  Elec       q    Type
                         _______ _______ _______ _____ _____    ______ ____

>  <TORSDO>
F 9

$$$$
=
 OpenBabel11042420273D

 31 34  0  0  1  0  0  0  0  0999 V2000
  161.0920  210.1060  152.7880 C   0  0  2  0  0  3  0  0  0  0  0  0
  161.8340  208.0370  149.9280 C   0  0  0  0  0  0  0  0  0  0  0  0
  161.8800  209.2430  150.5900 C   0  0  0  0  0  3  0  0  0  0  0  0
  161.0590  205.5440  148.8210 C   0  0  1  0  0  3  0  0  0  0  0  0
  161.2080  207.1320  150.7360 C   0  0  0  0  0  0  0  0  0  0  0  0
  161.2850  209.0580  151.7900 N   0  0  0  0  0  0  0  0  0  0  0  0
  162.3450  207.6760  148.6050 C   0  0  0  0  0  3  0  0  0  0  0  0
  161.0500  205.6940  150.3610 C   0  0  0  0  0  2  0  0  0  0  0  0
  160.8830  207.7700  151.9090 C   0  0  0  0  0  3  0  0  0  0  0  0
  162.0430  206.4660  148.1080 C   0  0  0  0  0  0  0  0  0  0  0  0
  162.5110  206.1320  146.8800 F   0  0  0  0  0  0  0  0  0  0  0  0
  161.2940  204.0910  148.4410 C   0  0  0  0  0  2  0  0  0  0  0  0
  160.8600  203.1650  149.5700 C   0  0  0  0  0  2  0  0  0  0  0  0
  159.3160  201.3620  149.3430 O   0  0  0  0  0  0  0  0  0  0  0  0
  161.3120  201.0980  148.1850 N   0  0  0  0  0  1  0  0  0  0  0  0
  160.4340  201.8430  149.0240 C   0  0  0  0  0  0  0  0  0  0  0  0
  160.3900  208.5220  154.5730 O   0  0  0  0  0  0  0  0  0  0  0  0
  161.9610  209.9250  155.1870 C   0  0  0  0  0  3  0  0  0  0  0  0
  160.1190  207.2450  156.6650 C   0  0  0  0  0  1  0  0  0  0  0  0
  160.7330  208.2990  155.8170 C   0  0  0  0  0  0  0  0  0  0  0  0
  161.1310  209.5200  154.1610 C   0  0  0  0  0  0  0  0  0  0  0  0
  161.7030  209.1320  156.2500 N   0  0  0  0  0  0  0  0  0  0  0  0
  159.8140  210.7800  152.5670 N   0  0  0  0  0  2  0  0  0  0  0  0
  160.0170  212.2260  152.6410 C   0  0  0  0  0  2  0  0  0  0  0  0
  159.5680  212.7550  153.9270 N   0  0  0  0  0  2  0  0  0  0  0  0
  155.8850  212.5630  154.5910 C   0  0  0  0  0  3  0  0  0  0  0  0
  157.0980  212.8400  153.9520 C   0  0  0  0  0  3  0  0  0  0  0  0
  157.0860  211.4910  156.4030 C   0  0  0  0  0  3  0  0  0  0  0  0
  155.8800  211.8920  155.8180 C   0  0  0  0  0  3  0  0  0  0  0  0
  158.3100  212.4420  154.5350 C   0  0  0  0  0  0  0  0  0  0  0  0
  158.2980  211.7660  155.7610 C   0  0  0  0  0  3  0  0  0  0  0  0
  1 23  1  6  0  0  0
  1 21  1  0  0  0  0
  2  3  2  0  0  0  0
  2  5  1  0  0  0  0
  3  6  1  0  0  0  0
  4 12  1  1  0  0  0
  4  8  1  0  0  0  0
  5  9  2  0  0  0  0
  6  9  1  0  0  0  0
  6  1  1  0  0  0  0
  7  2  1  0  0  0  0
  8  5  1  0  0  0  0
 10  7  2  0  0  0  0
 10  4  1  0  0  0  0
 11 10  1  0  0  0  0
 12 13  1  0  0  0  0
 15 16  1  0  0  0  0
 16 14  2  0  0  0  0
 16 13  1  0  0  0  0
 17 20  1  0  0  0  0
 18 22  1  0  0  0  0
 20 22  2  0  0  0  0
 20 19  1  0  0  0  0
 21 17  1  0  0  0  0
 21 18  2  0  0  0  0
 23 24  1  0  0  0  0
 24 25  1  0  0  0  0
 25 30  1  0  0  0  0
 26 29  1  0  0  0  0
 27 30  1  0  0  0  0
 27 26  2  0  0  0  0
 29 28  2  0  0  0  0
 30 31  2  0  0  0  0
 31 28  1  0  0  0  0
M  END
>  <MODEL>
4

>  <REMARK>
 VINA RESULT:      -7.7      3.270      5.440
  Name = 
  9 active torsions:
  status: ('A' for Active; 'I' for Inactive)
    1  A    between atoms: C_2  and  N_13
    2  A    between atoms: C_2  and  N_25
    3  A    between atoms: C_2  and  C_28
    4  A    between atoms: N_4  and  C_22
    5  A    between atoms: N_4  and  C_27
    6  A    between atoms: C_8  and  C_23
    7  A    between atoms: C_11  and  C_21
    8  A    between atoms: C_11  and  C_23
    9  A    between atoms: C_22  and  N_25
                            x       y       z     vdW  Elec       q    Type
                         _______ _______ _______ _____ _____    ______ ____

>  <TORSDO>
F 9

$$$$
=
 OpenBabel11042420273D

 31 34  0  0  1  0  0  0  0  0999 V2000
  161.6990  206.8240  151.7530 C   0  0  2  0  0  3  0  0  0  0  0  0
  160.4370  210.0640  152.7110 C   0  0  0  0  0  0  0  0  0  0  0  0
  160.8300  209.1560  151.7550 C   0  0  0  0  0  3  0  0  0  0  0  0
  160.2170  211.6850  155.0280 C   0  0  1  0  0  3  0  0  0  0  0  0
  160.5600  209.4720  153.9350 C   0  0  0  0  0  0  0  0  0  0  0  0
  161.1850  208.0250  152.4040 N   0  0  0  0  0  0  0  0  0  0  0  0
  159.9440  211.4340  152.5570 C   0  0  0  0  0  3  0  0  0  0  0  0
  160.1470  210.1490  155.2020 C   0  0  0  0  0  2  0  0  0  0  0  0
  161.0110  208.1880  153.7380 C   0  0  0  0  0  3  0  0  0  0  0  0
  159.7670  212.1800  153.6570 C   0  0  0  0  0  0  0  0  0  0  0  0
  159.3160  213.4520  153.5160 F   0  0  0  0  0  0  0  0  0  0  0  0
  159.4430  212.3700  156.1420 C   0  0  0  0  0  2  0  0  0  0  0  0
  158.3090  211.4800  156.6330 C   0  0  0  0  0  2  0  0  0  0  0  0
  156.0420  211.1590  155.9660 O   0  0  0  0  0  0  0  0  0  0  0  0
  156.8500  213.3200  155.6930 N   0  0  0  0  0  1  0  0  0  0  0  0
  157.0010  211.9630  156.1000 C   0  0  0  0  0  0  0  0  0  0  0  0
  160.8640  206.5500  149.4260 O   0  0  0  0  0  0  0  0  0  0  0  0
  162.6990  207.7420  149.5850 C   0  0  0  0  0  3  0  0  0  0  0  0
  160.5200  206.6240  146.9860 C   0  0  0  0  0  1  0  0  0  0  0  0
  161.2450  206.9540  148.2400 C   0  0  0  0  0  0  0  0  0  0  0  0
  161.7440  207.0220  150.2730 C   0  0  0  0  0  0  0  0  0  0  0  0
  162.3700  207.6990  148.2760 N   0  0  0  0  0  0  0  0  0  0  0  0
  160.8550  205.6760  152.0790 N   0  0  0  0  0  2  0  0  0  0  0  0
  161.6590  204.4570  152.0160 C   0  0  0  0  0  2  0  0  0  0  0  0
  160.8510  203.3140  151.5990 N   0  0  0  0  0  2  0  0  0  0  0  0
  160.9860  200.7510  148.8680 C   0  0  0  0  0  3  0  0  0  0  0  0
  160.8730  201.3170  150.1420 C   0  0  0  0  0  3  0  0  0  0  0  0
  161.1870  202.9650  147.9030 C   0  0  0  0  0  3  0  0  0  0  0  0
  161.1470  201.5750  147.7500 C   0  0  0  0  0  3  0  0  0  0  0  0
  160.9150  202.7100  150.3020 C   0  0  0  0  0  0  0  0  0  0  0  0
  161.0710  203.5300  149.1780 C   0  0  0  0  0  3  0  0  0  0  0  0
  1 23  1  6  0  0  0
  1  6  1  0  0  0  0
  2  5  1  0  0  0  0
  3  6  1  0  0  0  0
  3  2  2  0  0  0  0
  4  8  1  0  0  0  0
  4 12  1  1  0  0  0
  5  8  1  0  0  0  0
  6  9  1  0  0  0  0
  7  2  1  0  0  0  0
  7 10  2  0  0  0  0
  9  5  2  0  0  0  0
 10  4  1  0  0  0  0
 11 10  1  0  0  0  0
 12 13  1  0  0  0  0
 14 16  2  0  0  0  0
 15 16  1  0  0  0  0
 16 13  1  0  0  0  0
 17 21  1  0  0  0  0
 18 21  2  0  0  0  0
 19 20  1  0  0  0  0
 20 22  2  0  0  0  0
 20 17  1  0  0  0  0
 21  1  1  0  0  0  0
 22 18  1  0  0  0  0
 24 23  1  0  0  0  0
 25 24  1  0  0  0  0
 26 27  1  0  0  0  0
 27 30  2  0  0  0  0
 28 31  2  0  0  0  0
 29 28  1  0  0  0  0
 29 26  2  0  0  0  0
 30 25  1  0  0  0  0
 31 30  1  0  0  0  0
M  END
>  <MODEL>
5

>  <REMARK>
 VINA RESULT:      -7.6      4.072      9.200
  Name = 
  9 active torsions:
  status: ('A' for Active; 'I' for Inactive)
    1  A    between atoms: C_2  and  N_13
    2  A    between atoms: C_2  and  N_25
    3  A    between atoms: C_2  and  C_28
    4  A    between atoms: N_4  and  C_22
    5  A    between atoms: N_4  and  C_27
    6  A    between atoms: C_8  and  C_23
    7  A    between atoms: C_11  and  C_21
    8  A    between atoms: C_11  and  C_23
    9  A    between atoms: C_22  and  N_25
                            x       y       z     vdW  Elec       q    Type
                         _______ _______ _______ _____ _____    ______ ____

>  <TORSDO>
F 9

$$$$
=
 OpenBabel11042420273D

 31 34  0  0  1  0  0  0  0  0999 V2000
  162.3270  209.1350  149.0320 C   0  0  2  0  0  3  0  0  0  0  0  0
  161.4920  208.1770  152.4080 C   0  0  0  0  0  0  0  0  0  0  0  0
  161.8400  207.8610  151.1150 C   0  0  0  0  0  3  0  0  0  0  0  0
  160.3430  209.3090  154.7400 C   0  0  1  0  0  3  0  0  0  0  0  0
  161.4360  209.5370  152.5130 C   0  0  0  0  0  0  0  0  0  0  0  0
  161.9930  209.0280  150.4490 N   0  0  0  0  0  0  0  0  0  0  0  0
  161.2240  207.2980  153.5470 C   0  0  0  0  0  3  0  0  0  0  0  0
  161.1580  210.2330  153.8060 C   0  0  0  0  0  2  0  0  0  0  0  0
  161.7690  210.0670  151.2890 C   0  0  0  0  0  3  0  0  0  0  0  0
  160.7510  207.8400  154.6800 C   0  0  0  0  0  0  0  0  0  0  0  0
  160.4960  207.0260  155.7340 F   0  0  0  0  0  0  0  0  0  0  0  0
  160.3930  209.8350  156.1660 C   0  0  0  0  0  2  0  0  0  0  0  0
  161.4840  210.8870  156.3100 C   0  0  0  0  0  2  0  0  0  0  0  0
  162.7160  209.0740  157.2480 O   0  0  0  0  0  0  0  0  0  0  0  0
  163.8670  211.0880  157.1330 N   0  0  0  0  0  1  0  0  0  0  0  0
  162.7130  210.2840  156.9050 C   0  0  0  0  0  0  0  0  0  0  0  0
  160.9500  211.0960  148.3660 O   0  0  0  0  0  0  0  0  0  0  0  0
  163.1130  211.4490  148.2790 C   0  0  0  0  0  3  0  0  0  0  0  0
  160.1290  213.3030  147.6350 C   0  0  0  0  0  1  0  0  0  0  0  0
  161.1920  212.3220  147.9740 C   0  0  0  0  0  0  0  0  0  0  0  0
  162.1170  210.5360  148.5600 C   0  0  0  0  0  0  0  0  0  0  0  0
  162.5110  212.6000  147.9070 N   0  0  0  0  0  0  0  0  0  0  0  0
  161.5020  208.2150  148.2520 N   0  0  0  0  0  2  0  0  0  0  0  0
  162.3100  207.0620  147.8600 C   0  0  0  0  0  2  0  0  0  0  0  0
  161.4650  205.9420  147.4500 N   0  0  0  0  0  2  0  0  0  0  0  0
  160.8100  203.7400  150.4100 C   0  0  0  0  0  3  0  0  0  0  0  0
  161.0100  204.8900  149.6400 C   0  0  0  0  0  3  0  0  0  0  0  0
  161.0140  202.3720  148.4200 C   0  0  0  0  0  3  0  0  0  0  0  0
  160.8170  202.4810  149.8010 C   0  0  0  0  0  3  0  0  0  0  0  0
  161.2100  204.7860  148.2550 C   0  0  0  0  0  0  0  0  0  0  0  0
  161.2100  203.5230  147.6500 C   0  0  0  0  0  3  0  0  0  0  0  0
  1 23  1  6  0  0  0
  1  6  1  0  0  0  0
  2  5  1  0  0  0  0
  2  7  1  0  0  0  0
  3  2  2  0  0  0  0
  4 12  1  1  0  0  0
  5  8  1  0  0  0  0
  6  3  1  0  0  0  0
  6  9  1  0  0  0  0
  7 10  2  0  0  0  0
  8  4  1  0  0  0  0
  9  5  2  0  0  0  0
 10  4  1  0  0  0  0
 10 11  1  0  0  0  0
 12 13  1  0  0  0  0
 13 16  1  0  0  0  0
 16 15  1  0  0  0  0
 16 14  2  0  0  0  0
 17 21  1  0  0  0  0
 18 21  2  0  0  0  0
 19 20  1  0  0  0  0
 20 17  1  0  0  0  0
 21  1  1  0  0  0  0
 22 20  2  0  0  0  0
 22 18  1  0  0  0  0
 24 23  1  0  0  0  0
 25 24  1  0  0  0  0
 25 30  1  0  0  0  0
 27 26  2  0  0  0  0
 28 29  2  0  0  0  0
 29 26  1  0  0  0  0
 30 27  1  0  0  0  0
 31 30  2  0  0  0  0
 31 28  1  0  0  0  0
M  END
>  <MODEL>
6

>  <REMARK>
 VINA RESULT:      -7.5      2.878      7.784
  Name = 
  9 active torsions:
  status: ('A' for Active; 'I' for Inactive)
    1  A    between atoms: C_2  and  N_13
    2  A    between atoms: C_2  and  N_25
    3  A    between atoms: C_2  and  C_28
    4  A    between atoms: N_4  and  C_22
    5  A    between atoms: N_4  and  C_27
    6  A    between atoms: C_8  and  C_23
    7  A    between atoms: C_11  and  C_21
    8  A    between atoms: C_11  and  C_23
    9  A    between atoms: C_22  and  N_25
                            x       y       z     vdW  Elec       q    Type
                         _______ _______ _______ _____ _____    ______ ____

>  <TORSDO>
F 9

$$$$
=
 OpenBabel11042420273D

 31 34  0  0  1  0  0  0  0  0999 V2000
  160.9730  206.5270  150.3770 C   0  0  2  0  0  3  0  0  0  0  0  0
  160.8350  207.7500  153.7680 C   0  0  0  0  0  0  0  0  0  0  0  0
  160.8370  206.7200  152.8550 C   0  0  0  0  0  3  0  0  0  0  0  0
  160.3880  210.1810  155.1580 C   0  0  1  0  0  3  0  0  0  0  0  0
  160.9590  208.9250  153.0830 C   0  0  0  0  0  0  0  0  0  0  0  0
  160.9640  207.2770  151.6300 N   0  0  0  0  0  0  0  0  0  0  0  0
  160.7380  207.7080  155.2280 C   0  0  0  0  0  3  0  0  0  0  0  0
  161.0670  210.2480  153.7690 C   0  0  0  0  0  2  0  0  0  0  0  0
  161.0590  208.6230  151.7460 C   0  0  0  0  0  3  0  0  0  0  0  0
  160.6020  208.8640  155.8960 C   0  0  0  0  0  0  0  0  0  0  0  0
  160.5060  208.8260  157.2490 F   0  0  0  0  0  0  0  0  0  0  0  0
  160.8250  211.3640  156.0070 C   0  0  0  0  0  2  0  0  0  0  0  0
  159.8950  212.5500  155.7920 C   0  0  0  0  0  2  0  0  0  0  0  0
  158.2020  211.7300  157.2590 O   0  0  0  0  0  0  0  0  0  0  0  0
  157.4730  212.2640  155.1190 N   0  0  0  0  0  1  0  0  0  0  0  0
  158.4870  212.1740  156.1170 C   0  0  0  0  0  0  0  0  0  0  0  0
  160.5050  204.1250  149.9340 O   0  0  0  0  0  0  0  0  0  0  0  0
  161.7610  204.4830  151.6970 C   0  0  0  0  0  3  0  0  0  0  0  0
  160.3910  201.6620  149.9890 C   0  0  0  0  0  1  0  0  0  0  0  0
  160.8330  202.9870  150.4950 C   0  0  0  0  0  0  0  0  0  0  0  0
  161.0640  205.0630  150.6570 C   0  0  0  0  0  0  0  0  0  0  0  0
  161.6130  203.1450  151.5850 N   0  0  0  0  0  0  0  0  0  0  0  0
  162.1000  206.9500  149.5480 N   0  0  0  0  0  2  0  0  0  0  0  0
  161.6150  207.2620  148.2050 C   0  0  0  0  0  2  0  0  0  0  0  0
  162.3230  206.4800  147.1930 N   0  0  0  0  0  2  0  0  0  0  0  0
  161.4600  202.9100  146.4510 C   0  0  0  0  0  3  0  0  0  0  0  0
  161.9480  204.0380  147.1180 C   0  0  0  0  0  3  0  0  0  0  0  0
  160.6570  204.3220  144.6520 C   0  0  0  0  0  3  0  0  0  0  0  0
  160.8190  203.0520  145.2160 C   0  0  0  0  0  3  0  0  0  0  0  0
  161.7910  205.3140  146.5560 C   0  0  0  0  0  0  0  0  0  0  0  0
  161.1430  205.4500  145.3220 C   0  0  0  0  0  3  0  0  0  0  0  0
  1 23  1  6  0  0  0
  1 21  1  0  0  0  0
  1  6  1  0  0  0  0
  2  7  1  0  0  0  0
  3  2  2  0  0  0  0
  4 10  1  0  0  0  0
  4 12  1  1  0  0  0
  5  2  1  0  0  0  0
  5  8  1  0  0  0  0
  6  9  1  0  0  0  0
  6  3  1  0  0  0  0
  7 10  2  0  0  0  0
  8  4  1  0  0  0  0
  9  5  2  0  0  0  0
 10 11  1  0  0  0  0
 13 12  1  0  0  0  0
 13 16  1  0  0  0  0
 15 16  1  0  0  0  0
 16 14  2  0  0  0  0
 17 20  1  0  0  0  0
 17 21  1  0  0  0  0
 19 20  1  0  0  0  0
 20 22  2  0  0  0  0
 21 18  2  0  0  0  0
 22 18  1  0  0  0  0
 24 23  1  0  0  0  0
 25 24  1  0  0  0  0
 26 27  1  0  0  0  0
 28 29  1  0  0  0  0
 28 31  2  0  0  0  0
 29 26  2  0  0  0  0
 30 27  2  0  0  0  0
 30 25  1  0  0  0  0
 31 30  1  0  0  0  0
M  END
>  <MODEL>
7

>  <REMARK>
 VINA RESULT:      -7.4      3.901      8.331
  Name = 
  9 active torsions:
  status: ('A' for Active; 'I' for Inactive)
    1  A    between atoms: C_2  and  N_13
    2  A    between atoms: C_2  and  N_25
    3  A    between atoms: C_2  and  C_28
    4  A    between atoms: N_4  and  C_22
    5  A    between atoms: N_4  and  C_27
    6  A    between atoms: C_8  and  C_23
    7  A    between atoms: C_11  and  C_21
    8  A    between atoms: C_11  and  C_23
    9  A    between atoms: C_22  and  N_25
                            x       y       z     vdW  Elec       q    Type
                         _______ _______ _______ _____ _____    ______ ____

>  <TORSDO>
F 9

$$$$
=
 OpenBabel11042420273D

 31 34  0  0  1  0  0  0  0  0999 V2000
  160.7360  209.9620  153.2750 C   0  0  2  0  0  3  0  0  0  0  0  0
  161.6420  208.2690  150.2210 C   0  0  0  0  0  0  0  0  0  0  0  0
  161.5760  209.4020  151.0000 C   0  0  0  0  0  3  0  0  0  0  0  0
  161.1060  205.8310  148.8760 C   0  0  1  0  0  3  0  0  0  0  0  0
  161.1210  207.2300  150.9380 C   0  0  0  0  0  0  0  0  0  0  0  0
  161.0190  209.0410  152.1770 N   0  0  0  0  0  0  0  0  0  0  0  0
  162.1690  208.0930  148.8670 C   0  0  0  0  0  3  0  0  0  0  0  0
  161.1030  205.8270  150.4230 C   0  0  0  0  0  2  0  0  0  0  0  0
  160.7500  207.7140  152.1700 C   0  0  0  0  0  3  0  0  0  0  0  0
  161.9840  206.9130  148.2550 C   0  0  0  0  0  0  0  0  0  0  0  0
  162.4660  206.7500  146.9970 F   0  0  0  0  0  0  0  0  0  0  0  0
  161.4800  204.4530  148.3530 C   0  0  0  0  0  2  0  0  0  0  0  0
  160.8480  203.3650  149.2110 C   0  0  0  0  0  2  0  0  0  0  0  0
  160.8400  201.9610  147.2840 O   0  0  0  0  0  0  0  0  0  0  0  0
  161.1400  200.8550  149.3040 N   0  0  0  0  0  1  0  0  0  0  0  0
  160.9570  202.0390  148.5340 C   0  0  0  0  0  0  0  0  0  0  0  0
  160.5170  212.1870  152.1870 O   0  0  0  0  0  0  0  0  0  0  0  0
  158.6100  211.3080  152.8210 C   0  0  0  0  0  3  0  0  0  0  0  0
  159.7070  214.3000  151.2080 C   0  0  0  0  0  1  0  0  0  0  0  0
  159.5270  212.9880  151.8800 C   0  0  0  0  0  0  0  0  0  0  0  0
  159.9790  211.1450  152.7700 C   0  0  0  0  0  0  0  0  0  0  0  0
  158.3240  212.4950  152.2420 N   0  0  0  0  0  0  0  0  0  0  0  0
  161.9840  210.3950  153.9010 N   0  0  0  0  0  2  0  0  0  0  0  0
  161.9130  210.1380  155.3380 C   0  0  0  0  0  2  0  0  0  0  0  0
  161.5320  211.3440  156.0710 N   0  0  0  0  0  2  0  0  0  0  0  0
  158.6190  213.6970  155.9500 C   0  0  0  0  0  3  0  0  0  0  0  0
  159.9220  213.2040  155.8320 C   0  0  0  0  0  3  0  0  0  0  0  0
  157.8590  211.5130  156.6780 C   0  0  0  0  0  3  0  0  0  0  0  0
  157.5890  212.8520  156.3760 C   0  0  0  0  0  3  0  0  0  0  0  0
  160.2000  211.8620  156.1350 C   0  0  0  0  0  0  0  0  0  0  0  0
  159.1630  211.0210  156.5570 C   0  0  0  0  0  3  0  0  0  0  0  0
  1 23  1  6  0  0  0
  2  5  1  0  0  0  0
  2  3  2  0  0  0  0
  3  6  1  0  0  0  0
  4 12  1  6  0  0  0
  4  8  1  0  0  0  0
  5  9  2  0  0  0  0
  6  1  1  0  0  0  0
  7  2  1  0  0  0  0
  8  5  1  0  0  0  0
  9  6  1  0  0  0  0
 10  7  2  0  0  0  0
 10  4  1  0  0  0  0
 11 10  1  0  0  0  0
 12 13  1  0  0  0  0
 14 16  2  0  0  0  0
 16 13  1  0  0  0  0
 16 15  1  0  0  0  0
 17 21  1  0  0  0  0
 19 20  1  0  0  0  0
 20 17  1  0  0  0  0
 20 22  2  0  0  0  0
 21 18  2  0  0  0  0
 21  1  1  0  0  0  0
 22 18  1  0  0  0  0
 23 24  1  0  0  0  0
 24 25  1  0  0  0  0
 25 30  1  0  0  0  0
 26 29  1  0  0  0  0
 27 26  2  0  0  0  0
 27 30  1  0  0  0  0
 29 28  2  0  0  0  0
 30 31  2  0  0  0  0
 31 28  1  0  0  0  0
M  END
>  <MODEL>
8

>  <REMARK>
 VINA RESULT:      -7.4      3.197      5.708
  Name = 
  9 active torsions:
  status: ('A' for Active; 'I' for Inactive)
    1  A    between atoms: C_2  and  N_13
    2  A    between atoms: C_2  and  N_25
    3  A    between atoms: C_2  and  C_28
    4  A    between atoms: N_4  and  C_22
    5  A    between atoms: N_4  and  C_27
    6  A    between atoms: C_8  and  C_23
    7  A    between atoms: C_11  and  C_21
    8  A    between atoms: C_11  and  C_23
    9  A    between atoms: C_22  and  N_25
                            x       y       z     vdW  Elec       q    Type
                         _______ _______ _______ _____ _____    ______ ____

>  <TORSDO>
F 9

$$$$
=
 OpenBabel11042420273D

 31 34  0  0  1  0  0  0  0  0999 V2000
  161.4520  210.1800  149.9520 C   0  0  2  0  0  3  0  0  0  0  0  0
  161.9600  207.0670  148.2000 C   0  0  0  0  0  0  0  0  0  0  0  0
  162.0170  208.4410  148.2620 C   0  0  0  0  0  3  0  0  0  0  0  0
  161.2000  204.3420  148.3960 C   0  0  1  0  0  3  0  0  0  0  0  0
  161.4880  206.6070  149.3950 C   0  0  0  0  0  0  0  0  0  0  0  0
  161.5820  208.8000  149.4910 N   0  0  0  0  0  0  0  0  0  0  0  0
  162.3280  206.1630  147.1090 C   0  0  0  0  0  3  0  0  0  0  0  0
  161.3680  205.1500  149.7050 C   0  0  0  0  0  2  0  0  0  0  0  0
  161.2710  207.6940  150.2080 C   0  0  0  0  0  3  0  0  0  0  0  0
  162.0380  204.8590  147.2310 C   0  0  0  0  0  0  0  0  0  0  0  0
  162.3730  204.0200  146.2190 F   0  0  0  0  0  0  0  0  0  0  0  0
  161.4690  202.8690  148.6570 C   0  0  0  0  0  2  0  0  0  0  0  0
  160.3470  202.0110  148.0900 C   0  0  0  0  0  2  0  0  0  0  0  0
  160.5390  201.6010  145.7480 O   0  0  0  0  0  0  0  0  0  0  0  0
  161.5810  200.0330  147.1090 N   0  0  0  0  0  1  0  0  0  0  0  0
  160.8320  201.2290  146.9140 C   0  0  0  0  0  0  0  0  0  0  0  0
  161.0700  211.6390  147.9740 O   0  0  0  0  0  0  0  0  0  0  0  0
  163.1490  211.6030  148.6740 C   0  0  0  0  0  3  0  0  0  0  0  0
  161.2880  213.1950  146.0740 C   0  0  0  0  0  1  0  0  0  0  0  0
  161.8120  212.4200  147.2280 C   0  0  0  0  0  0  0  0  0  0  0  0
  161.8710  211.1230  148.8730 C   0  0  0  0  0  0  0  0  0  0  0  0
  163.1040  212.4420  147.6160 N   0  0  0  0  0  0  0  0  0  0  0  0
  162.2690  210.3880  151.1450 N   0  0  0  0  0  2  0  0  0  0  0  0
  161.3960  210.6960  152.2760 C   0  0  0  0  0  2  0  0  0  0  0  0
  161.9460  210.1720  153.5240 N   0  0  0  0  0  2  0  0  0  0  0  0
  160.4620  206.9420  154.7080 C   0  0  0  0  0  3  0  0  0  0  0  0
  161.1400  207.8670  153.9090 C   0  0  0  0  0  3  0  0  0  0  0  0
  160.0930  208.6570  156.3810 C   0  0  0  0  0  3  0  0  0  0  0  0
  159.9350  207.3380  155.9410 C   0  0  0  0  0  3  0  0  0  0  0  0
  161.2990  209.1920  154.3430 C   0  0  0  0  0  0  0  0  0  0  0  0
  160.7750  209.5810  155.5810 C   0  0  0  0  0  3  0  0  0  0  0  0
  1 23  1  1  0  0  0
  2  3  2  0  0  0  0
  2  5  1  0  0  0  0
  3  6  1  0  0  0  0
  4 12  1  1  0  0  0
  4  8  1  0  0  0  0
  5  8  1  0  0  0  0
  5  9  2  0  0  0  0
  6  1  1  0  0  0  0
  6  9  1  0  0  0  0
  7 10  2  0  0  0  0
  7  2  1  0  0  0  0
 10  4  1  0  0  0  0
 11 10  1  0  0  0  0
 13 12  1  0  0  0  0
 14 16  2  0  0  0  0
 16 15  1  0  0  0  0
 16 13  1  0  0  0  0
 17 21  1  0  0  0  0
 18 21  2  0  0  0  0
 19 20  1  0  0  0  0
 20 22  2  0  0  0  0
 20 17  1  0  0  0  0
 21  1  1  0  0  0  0
 22 18  1  0  0  0  0
 23 24  1  0  0  0  0
 24 25  1  0  0  0  0
 25 30  1  0  0  0  0
 26 29  1  0  0  0  0
 27 30  1  0  0  0  0
 27 26  2  0  0  0  0
 29 28  2  0  0  0  0
 30 31  2  0  0  0  0
 31 28  1  0  0  0  0
M  END
>  <MODEL>
9

>  <REMARK>
 VINA RESULT:      -7.0      2.344      5.762
  Name = 
  9 active torsions:
  status: ('A' for Active; 'I' for Inactive)
    1  A    between atoms: C_2  and  N_13
    2  A    between atoms: C_2  and  N_25
    3  A    between atoms: C_2  and  C_28
    4  A    between atoms: N_4  and  C_22
    5  A    between atoms: N_4  and  C_27
    6  A    between atoms: C_8  and  C_23
    7  A    between atoms: C_11  and  C_21
    8  A    between atoms: C_11  and  C_23
    9  A    between atoms: C_22  and  N_25
                            x       y       z     vdW  Elec       q    Type
                         _______ _______ _______ _____ _____    ______ ____

>  <TORSDO>
F 9

$$$$
