=
 OpenBabel11052410273D

 36 37  0  0  0  0  0  0  0  0999 V2000
  161.6080  206.0410  150.9420 C   0  0  0  0  0  3  0  0  0  0  0  0
  161.7610  206.2300  149.6250 C   0  0  0  0  0  0  0  0  0  0  0  0
  160.9260  204.0170  149.1920 N   0  0  0  0  0  0  0  0  0  0  0  0
  161.2760  205.1710  148.7010 C   0  0  0  0  0  0  0  0  0  0  0  0
  162.3880  204.9960  146.4430 C   0  0  0  0  0  0  0  0  0  0  0  0
  160.1870  206.0000  146.6270 C   0  0  0  0  0  3  0  0  0  0  0  0
  163.4790  204.3470  147.0080 O   0  0  0  0  0  1  0  0  0  0  0  0
  161.2920  205.3880  147.2360 C   0  0  0  0  0  0  0  0  0  0  0  0
  162.3760  205.2400  145.0660 C   0  0  0  0  0  3  0  0  0  0  0  0
  160.1820  206.2370  145.2520 C   0  0  0  0  0  3  0  0  0  0  0  0
  161.2770  205.8630  144.4710 C   0  0  0  0  0  3  0  0  0  0  0  0
  160.5440  202.9600  148.3940 O   0  0  0  0  0  0  0  0  0  0  0  0
  161.1690  201.6970  148.5440 C   0  0  0  0  0  1  0  0  0  0  0  0
  162.3520  207.4960  149.1390 C   0  0  0  0  0  3  0  0  0  0  0  0
  161.6680  208.6260  148.9950 C   0  0  0  0  0  3  0  0  0  0  0  0
  162.3490  209.8650  148.5240 C   0  0  0  0  0  2  0  0  0  0  0  0
  161.8770  211.0860  149.3000 C   0  0  0  0  0  2  0  0  0  0  0  0
  161.1460  214.1320  147.4780 C   0  0  0  0  0  3  0  0  0  0  0  0
  161.6470  213.4600  148.5800 C   0  0  0  0  0  3  0  0  0  0  0  0
  161.4550  212.1410  148.3900 N   0  0  0  0  0  0  0  0  0  0  0  0
  160.6730  213.1180  146.6590 C   0  0  0  0  0  0  0  0  0  0  0  0
  160.8700  211.9160  147.2300 N   0  0  0  0  0  0  0  0  0  0  0  0
  160.2320  211.5500  142.1210 O   0  0  0  0  0  0  0  0  0  0  0  0
  160.3690  212.3870  144.2830 N   0  0  0  0  0  2  0  0  0  0  0  0
  159.0210  213.5580  142.4520 C   0  0  0  0  0  1  0  0  0  0  0  0
  160.0610  213.3040  145.3390 C   0  0  0  0  0  0  0  0  0  0  0  0
  159.8950  212.4510  142.9320 C   0  0  0  0  0  0  0  0  0  0  0  0
  159.2590  214.2600  145.1540 O   0  0  0  0  0  0  0  0  0  0  0  0
  162.0390  207.0270  151.9760 C   0  0  0  0  0  2  0  0  0  0  0  0
  160.8180  207.7360  152.5300 C   0  0  0  0  0  2  0  0  0  0  0  0
  160.8890  207.8050  154.0190 C   0  0  0  0  0  0  0  0  0  0  0  0
  160.7790  206.7890  154.6850 O   0  0  0  0  0  0  0  0  0  0  0  0
  161.1020  209.3850  154.8350 P   0  0  0  0  0  0  0  0  0  0  0  0
  161.9980  209.1810  156.2550 O   0  0  0  0  0  1  0  0  0  0  0  0
  161.8340  210.3340  153.9140 O   0  0  0  0  0  0  0  0  0  0  0  0
  159.5850  210.0280  155.2180 O   0  0  0  0  0  1  0  0  0  0  0  0
  1 29  1  0  0  0  0
  2  1  2  0  0  0  0
  4  3  2  0  0  0  0
  4  2  1  0  0  0  0
  5  7  1  0  0  0  0
  5  8  1  0  0  0  0
  6  8  2  0  0  0  0
  8  4  1  0  0  0  0
  9  5  2  0  0  0  0
 10  6  1  0  0  0  0
 11  9  1  0  0  0  0
 11 10  2  0  0  0  0
 12 13  1  0  0  0  0
 12  3  1  0  0  0  0
 14  2  1  0  0  0  0
 15 14  2  0  0  0  0
 16 15  1  0  0  0  0
 16 17  1  0  0  0  0
 18 19  2  0  0  0  0
 20 19  1  0  0  0  0
 20 17  1  0  0  0  0
 21 22  2  0  0  0  0
 21 18  1  0  0  0  0
 22 20  1  0  0  0  0
 23 27  2  0  0  0  0
 24 26  1  0  0  0  0
 25 27  1  0  0  0  0
 26 21  1  0  0  0  0
 27 24  1  0  0  0  0
 28 26  2  0  0  0  0
 29 30  1  0  0  0  0
 30 31  1  0  0  0  0
 31 32  2  0  0  0  0
 31 33  1  0  0  0  0
 33 36  1  0  0  0  0
 33 34  1  0  0  0  0
 35 33  2  0  0  0  0
M  END
>  <MODEL>
1

>  <REMARK>
 VINA RESULT:      -7.1      0.000      0.000
  Name = 
  12 active torsions:
  status: ('A' for Active; 'I' for Inactive)
    1  A    between atoms: P_1  and  C_7
    2  A    between atoms: C_2  and  C_5
    3  A    between atoms: C_2  and  C_22
    4  A    between atoms: N_3  and  O_19
    5  A    between atoms: C_4  and  C_30
    6  A    between atoms: C_7  and  C_24
    7  A    between atoms: C_10  and  C_21
    8  A    between atoms: C_10  and  C_30
    9  A    between atoms: C_13  and  C_25
   10  A    between atoms: C_22  and  N_23
   11  A    between atoms: C_24  and  C_26
   12  A    between atoms: C_26  and  C_29
                            x       y       z     vdW  Elec       q    Type
                         _______ _______ _______ _____ _____    ______ ____

>  <TORSDO>
F 12

$$$$
=
 OpenBabel11052410273D

 36 37  0  0  0  0  0  0  0  0999 V2000
  159.9430  212.3630  152.4630 C   0  0  0  0  0  3  0  0  0  0  0  0
  160.4390  211.3440  153.1750 C   0  0  0  0  0  0  0  0  0  0  0  0
  160.0820  212.5380  155.2310 N   0  0  0  0  0  0  0  0  0  0  0  0
  160.3180  211.3940  154.6560 C   0  0  0  0  0  0  0  0  0  0  0  0
  161.8540  209.8700  155.9520 C   0  0  0  0  0  0  0  0  0  0  0  0
  159.4970  209.3300  155.7680 C   0  0  0  0  0  3  0  0  0  0  0  0
  162.9300  210.7170  155.7140 O   0  0  0  0  0  1  0  0  0  0  0  0
  160.5680  210.1840  155.4720 C   0  0  0  0  0  0  0  0  0  0  0  0
  162.0550  208.7040  156.6990 C   0  0  0  0  0  3  0  0  0  0  0  0
  159.7050  208.1700  156.5170 C   0  0  0  0  0  3  0  0  0  0  0  0
  160.9840  207.8540  156.9780 C   0  0  0  0  0  3  0  0  0  0  0  0
  160.0370  212.6810  156.6010 O   0  0  0  0  0  0  0  0  0  0  0  0
  159.7640  213.9490  157.1720 C   0  0  0  0  0  1  0  0  0  0  0  0
  161.0360  210.1890  152.4670 C   0  0  0  0  0  3  0  0  0  0  0  0
  160.5760  208.9460  152.5580 C   0  0  0  0  0  3  0  0  0  0  0  0
  161.2210  207.8450  151.7880 C   0  0  0  0  0  2  0  0  0  0  0  0
  161.8620  208.3630  150.5090 C   0  0  0  0  0  2  0  0  0  0  0  0
  161.4700  206.5540  147.3930 C   0  0  0  0  0  3  0  0  0  0  0  0
  161.6170  207.7290  148.1120 C   0  0  0  0  0  3  0  0  0  0  0  0
  161.6710  207.4150  149.4200 N   0  0  0  0  0  0  0  0  0  0  0  0
  161.4530  205.5690  148.3690 C   0  0  0  0  0  0  0  0  0  0  0  0
  161.5770  206.1120  149.5930 N   0  0  0  0  0  0  0  0  0  0  0  0
  160.4390  201.2040  150.1470 O   0  0  0  0  0  0  0  0  0  0  0  0
  160.9440  203.2580  149.1890 N   0  0  0  0  0  2  0  0  0  0  0  0
  161.1660  201.0610  147.8980 C   0  0  0  0  0  1  0  0  0  0  0  0
  161.3400  204.1280  148.1220 C   0  0  0  0  0  0  0  0  0  0  0  0
  160.8290  201.8310  149.1290 C   0  0  0  0  0  0  0  0  0  0  0  0
  161.5770  203.6730  146.9700 O   0  0  0  0  0  0  0  0  0  0  0  0
  159.9870  212.4330  150.9730 C   0  0  0  0  0  2  0  0  0  0  0  0
  160.0850  213.8840  150.5420 C   0  0  0  0  0  2  0  0  0  0  0  0
  159.7270  214.0220  149.0990 C   0  0  0  0  0  0  0  0  0  0  0  0
  158.5940  214.3420  148.7780 O   0  0  0  0  0  0  0  0  0  0  0  0
  160.9490  213.6840  147.8360 P   0  0  0  0  0  0  0  0  0  0  0  0
  161.1090  212.0130  147.6250 O   0  0  0  0  0  1  0  0  0  0  0  0
  160.5150  214.3130  146.5320 O   0  0  0  0  0  0  0  0  0  0  0  0
  162.4380  214.3330  148.3070 O   0  0  0  0  0  1  0  0  0  0  0  0
  1  2  2  0  0  0  0
  2  4  1  0  0  0  0
  3 12  1  0  0  0  0
  4  3  2  0  0  0  0
  4  8  1  0  0  0  0
  5  9  1  0  0  0  0
  6 10  2  0  0  0  0
  7  5  1  0  0  0  0
  8  6  1  0  0  0  0
  8  5  2  0  0  0  0
  9 11  2  0  0  0  0
 10 11  1  0  0  0  0
 12 13  1  0  0  0  0
 14 15  2  0  0  0  0
 14  2  1  0  0  0  0
 16 15  1  0  0  0  0
 17 16  1  0  0  0  0
 18 19  2  0  0  0  0
 18 21  1  0  0  0  0
 19 20  1  0  0  0  0
 20 22  1  0  0  0  0
 20 17  1  0  0  0  0
 21 22  2  0  0  0  0
 25 27  1  0  0  0  0
 26 21  1  0  0  0  0
 26 24  1  0  0  0  0
 27 24  1  0  0  0  0
 27 23  2  0  0  0  0
 28 26  2  0  0  0  0
 29  1  1  0  0  0  0
 30 29  1  0  0  0  0
 31 30  1  0  0  0  0
 32 31  2  0  0  0  0
 33 36  1  0  0  0  0
 33 31  1  0  0  0  0
 34 33  1  0  0  0  0
 35 33  2  0  0  0  0
M  END
>  <MODEL>
2

>  <REMARK>
 VINA RESULT:      -6.8      3.433      9.368
  Name = 
  12 active torsions:
  status: ('A' for Active; 'I' for Inactive)
    1  A    between atoms: P_1  and  C_7
    2  A    between atoms: C_2  and  C_5
    3  A    between atoms: C_2  and  C_22
    4  A    between atoms: N_3  and  O_19
    5  A    between atoms: C_4  and  C_30
    6  A    between atoms: C_7  and  C_24
    7  A    between atoms: C_10  and  C_21
    8  A    between atoms: C_10  and  C_30
    9  A    between atoms: C_13  and  C_25
   10  A    between atoms: C_22  and  N_23
   11  A    between atoms: C_24  and  C_26
   12  A    between atoms: C_26  and  C_29
                            x       y       z     vdW  Elec       q    Type
                         _______ _______ _______ _____ _____    ______ ____

>  <TORSDO>
F 12

$$$$
=
 OpenBabel11052410273D

 36 37  0  0  0  0  0  0  0  0999 V2000
  161.6220  206.5810  150.7530 C   0  0  0  0  0  3  0  0  0  0  0  0
  161.7560  206.9610  149.4760 C   0  0  0  0  0  0  0  0  0  0  0  0
  160.6320  206.6530  147.3730 N   0  0  0  0  0  0  0  0  0  0  0  0
  161.1700  206.0950  148.4180 C   0  0  0  0  0  0  0  0  0  0  0  0
  161.7520  203.7420  147.7180 C   0  0  0  0  0  0  0  0  0  0  0  0
  160.3730  204.1080  149.6800 C   0  0  0  0  0  3  0  0  0  0  0  0
  162.5200  204.2240  146.6650 O   0  0  0  0  0  1  0  0  0  0  0  0
  161.1040  204.6270  148.6010 C   0  0  0  0  0  0  0  0  0  0  0  0
  161.6450  202.3610  147.9090 C   0  0  0  0  0  3  0  0  0  0  0  0
  160.2740  202.7280  149.8660 C   0  0  0  0  0  3  0  0  0  0  0  0
  160.9050  201.8540  148.9790 C   0  0  0  0  0  3  0  0  0  0  0  0
  159.9980  205.9240  146.3900 O   0  0  0  0  0  0  0  0  0  0  0  0
  160.3530  206.1070  145.0300 C   0  0  0  0  0  1  0  0  0  0  0  0
  162.4270  208.2430  149.1680 C   0  0  0  0  0  3  0  0  0  0  0  0
  161.7840  209.3900  148.9820 C   0  0  0  0  0  3  0  0  0  0  0  0
  162.5400  210.6430  148.7030 C   0  0  0  0  0  2  0  0  0  0  0  0
  161.7230  211.8760  149.0610 C   0  0  0  0  0  2  0  0  0  0  0  0
  161.6130  214.3820  146.4460 C   0  0  0  0  0  3  0  0  0  0  0  0
  162.0060  213.9420  147.6980 C   0  0  0  0  0  3  0  0  0  0  0  0
  161.5060  212.7070  147.8850 N   0  0  0  0  0  0  0  0  0  0  0  0
  160.8740  213.3230  145.9400 C   0  0  0  0  0  0  0  0  0  0  0  0
  160.8210  212.3150  146.8290 N   0  0  0  0  0  0  0  0  0  0  0  0
  160.6170  211.1640  141.6380 O   0  0  0  0  0  0  0  0  0  0  0  0
  160.6570  212.2730  143.6770 N   0  0  0  0  0  2  0  0  0  0  0  0
  159.1950  213.0550  141.7290 C   0  0  0  0  0  1  0  0  0  0  0  0
  160.2490  213.2770  144.6140 C   0  0  0  0  0  0  0  0  0  0  0  0
  160.1820  212.1170  142.3340 C   0  0  0  0  0  0  0  0  0  0  0  0
  159.3490  214.1090  144.3200 O   0  0  0  0  0  0  0  0  0  0  0  0
  162.1500  207.3620  151.9100 C   0  0  0  0  0  2  0  0  0  0  0  0
  161.0010  208.0740  152.5990 C   0  0  0  0  0  2  0  0  0  0  0  0
  160.9350  207.6790  154.0370 C   0  0  0  0  0  0  0  0  0  0  0  0
  160.7670  206.5100  154.3440 O   0  0  0  0  0  0  0  0  0  0  0  0
  161.0660  208.9260  155.3150 P   0  0  0  0  0  0  0  0  0  0  0  0
  162.0160  208.3430  156.5880 O   0  0  0  0  0  1  0  0  0  0  0  0
  161.7050  210.1700  154.7430 O   0  0  0  0  0  0  0  0  0  0  0  0
  159.5220  209.3000  155.8950 O   0  0  0  0  0  1  0  0  0  0  0  0
  1 29  1  0  0  0  0
  2  1  2  0  0  0  0
  3  4  2  0  0  0  0
  4  8  1  0  0  0  0
  4  2  1  0  0  0  0
  5  9  2  0  0  0  0
  5  8  1  0  0  0  0
  6 10  1  0  0  0  0
  7  5  1  0  0  0  0
  8  6  2  0  0  0  0
  9 11  1  0  0  0  0
 11 10  2  0  0  0  0
 12  3  1  0  0  0  0
 13 12  1  0  0  0  0
 14  2  1  0  0  0  0
 15 14  2  0  0  0  0
 16 15  1  0  0  0  0
 16 17  1  0  0  0  0
 18 19  2  0  0  0  0
 19 20  1  0  0  0  0
 20 17  1  0  0  0  0
 21 18  1  0  0  0  0
 21 22  2  0  0  0  0
 22 20  1  0  0  0  0
 23 27  2  0  0  0  0
 24 26  1  0  0  0  0
 25 27  1  0  0  0  0
 26 21  1  0  0  0  0
 27 24  1  0  0  0  0
 28 26  2  0  0  0  0
 29 30  1  0  0  0  0
 30 31  1  0  0  0  0
 31 32  2  0  0  0  0
 31 33  1  0  0  0  0
 33 36  1  0  0  0  0
 33 34  1  0  0  0  0
 35 33  2  0  0  0  0
M  END
>  <MODEL>
3

>  <REMARK>
 VINA RESULT:      -6.8      1.191      2.227
  Name = 
  12 active torsions:
  status: ('A' for Active; 'I' for Inactive)
    1  A    between atoms: P_1  and  C_7
    2  A    between atoms: C_2  and  C_5
    3  A    between atoms: C_2  and  C_22
    4  A    between atoms: N_3  and  O_19
    5  A    between atoms: C_4  and  C_30
    6  A    between atoms: C_7  and  C_24
    7  A    between atoms: C_10  and  C_21
    8  A    between atoms: C_10  and  C_30
    9  A    between atoms: C_13  and  C_25
   10  A    between atoms: C_22  and  N_23
   11  A    between atoms: C_24  and  C_26
   12  A    between atoms: C_26  and  C_29
                            x       y       z     vdW  Elec       q    Type
                         _______ _______ _______ _____ _____    ______ ____

>  <TORSDO>
F 12

$$$$
=
 OpenBabel11052410273D

 36 37  0  0  0  0  0  0  0  0999 V2000
  161.5700  207.7760  152.0130 C   0  0  0  0  0  3  0  0  0  0  0  0
  161.4990  209.1080  152.1220 C   0  0  0  0  0  0  0  0  0  0  0  0
  159.6840  210.3260  153.1230 N   0  0  0  0  0  0  0  0  0  0  0  0
  160.8000  209.6810  153.3020 C   0  0  0  0  0  0  0  0  0  0  0  0
  161.1310  208.5630  155.5400 C   0  0  0  0  0  0  0  0  0  0  0  0
  162.3070  210.6250  155.0390 C   0  0  0  0  0  3  0  0  0  0  0  0
  160.2880  207.5230  155.1670 O   0  0  0  0  0  1  0  0  0  0  0  0
  161.4170  209.6140  154.6470 C   0  0  0  0  0  0  0  0  0  0  0  0
  161.7140  208.5480  156.8110 C   0  0  0  0  0  3  0  0  0  0  0  0
  162.8880  210.6010  156.3070 C   0  0  0  0  0  3  0  0  0  0  0  0
  162.5880  209.5660  157.1960 C   0  0  0  0  0  3  0  0  0  0  0  0
  159.0190  210.9560  154.1530 O   0  0  0  0  0  0  0  0  0  0  0  0
  158.0690  211.9670  153.8700 C   0  0  0  0  0  1  0  0  0  0  0  0
  162.1590  209.9550  151.1030 C   0  0  0  0  0  3  0  0  0  0  0  0
  161.5220  210.5170  150.0820 C   0  0  0  0  0  3  0  0  0  0  0  0
  162.2600  211.3790  149.1160 C   0  0  0  0  0  2  0  0  0  0  0  0
  161.4300  212.5880  148.7060 C   0  0  0  0  0  2  0  0  0  0  0  0
  162.4590  213.4060  145.3290 C   0  0  0  0  0  3  0  0  0  0  0  0
  162.6940  213.3290  146.6910 C   0  0  0  0  0  3  0  0  0  0  0  0
  161.5820  212.8540  147.2830 N   0  0  0  0  0  0  0  0  0  0  0  0
  161.1600  212.9410  145.1910 C   0  0  0  0  0  0  0  0  0  0  0  0
  160.6440  212.6110  146.3880 N   0  0  0  0  0  0  0  0  0  0  0  0
  161.2980  213.2000  140.3790 O   0  0  0  0  0  0  0  0  0  0  0  0
  161.1230  213.0420  142.6890 N   0  0  0  0  0  2  0  0  0  0  0  0
  159.1130  212.7040  141.1440 C   0  0  0  0  0  1  0  0  0  0  0  0
  160.4370  212.7980  143.9230 C   0  0  0  0  0  0  0  0  0  0  0  0
  160.5570  212.9900  141.3730 C   0  0  0  0  0  0  0  0  0  0  0  0
  159.2260  212.4480  143.9320 O   0  0  0  0  0  0  0  0  0  0  0  0
  162.2520  207.0710  150.8870 C   0  0  0  0  0  2  0  0  0  0  0  0
  161.2460  206.7970  149.7860 C   0  0  0  0  0  2  0  0  0  0  0  0
  161.9080  206.8630  148.4500 C   0  0  0  0  0  0  0  0  0  0  0  0
  162.6610  207.7870  148.1860 O   0  0  0  0  0  0  0  0  0  0  0  0
  161.5730  205.6070  147.2190 P   0  0  0  0  0  0  0  0  0  0  0  0
  162.9960  205.2250  146.3880 O   0  0  0  0  0  1  0  0  0  0  0  0
  161.0410  204.3660  147.8960 O   0  0  0  0  0  1  0  0  0  0  0  0
  160.4240  206.1880  146.1220 O   0  0  0  0  0  0  0  0  0  0  0  0
  1  2  2  0  0  0  0
  2  4  1  0  0  0  0
  3  4  2  0  0  0  0
  3 12  1  0  0  0  0
  4  8  1  0  0  0  0
  5  9  1  0  0  0  0
  6 10  2  0  0  0  0
  7  5  1  0  0  0  0
  8  6  1  0  0  0  0
  8  5  2  0  0  0  0
  9 11  2  0  0  0  0
 10 11  1  0  0  0  0
 13 12  1  0  0  0  0
 14  2  1  0  0  0  0
 15 14  2  0  0  0  0
 16 15  1  0  0  0  0
 17 16  1  0  0  0  0
 18 19  2  0  0  0  0
 19 20  1  0  0  0  0
 20 17  1  0  0  0  0
 21 18  1  0  0  0  0
 21 22  2  0  0  0  0
 22 20  1  0  0  0  0
 23 27  2  0  0  0  0
 24 26  1  0  0  0  0
 25 27  1  0  0  0  0
 26 28  2  0  0  0  0
 26 21  1  0  0  0  0
 27 24  1  0  0  0  0
 29  1  1  0  0  0  0
 30 29  1  0  0  0  0
 31 30  1  0  0  0  0
 32 31  2  0  0  0  0
 33 35  1  0  0  0  0
 33 31  1  0  0  0  0
 34 33  1  0  0  0  0
 36 33  2  0  0  0  0
M  END
>  <MODEL>
4

>  <REMARK>
 VINA RESULT:      -6.6      2.833      6.863
  Name = 
  12 active torsions:
  status: ('A' for Active; 'I' for Inactive)
    1  A    between atoms: P_1  and  C_7
    2  A    between atoms: C_2  and  C_5
    3  A    between atoms: C_2  and  C_22
    4  A    between atoms: N_3  and  O_19
    5  A    between atoms: C_4  and  C_30
    6  A    between atoms: C_7  and  C_24
    7  A    between atoms: C_10  and  C_21
    8  A    between atoms: C_10  and  C_30
    9  A    between atoms: C_13  and  C_25
   10  A    between atoms: C_22  and  N_23
   11  A    between atoms: C_24  and  C_26
   12  A    between atoms: C_26  and  C_29
                            x       y       z     vdW  Elec       q    Type
                         _______ _______ _______ _____ _____    ______ ____

>  <TORSDO>
F 12

$$$$
=
 OpenBabel11052410273D

 36 37  0  0  0  0  0  0  0  0999 V2000
  161.9580  209.6200  148.4390 C   0  0  0  0  0  3  0  0  0  0  0  0
  161.8880  210.7580  149.1410 C   0  0  0  0  0  0  0  0  0  0  0  0
  162.9180  212.5560  147.9210 N   0  0  0  0  0  0  0  0  0  0  0  0
  161.8190  212.0420  148.3950 C   0  0  0  0  0  0  0  0  0  0  0  0
  159.6890  212.6200  147.1730 C   0  0  0  0  0  0  0  0  0  0  0  0
  160.1710  213.6600  149.3110 C   0  0  0  0  0  3  0  0  0  0  0  0
  160.0030  211.7230  146.1590 O   0  0  0  0  0  1  0  0  0  0  0  0
  160.5400  212.7800  148.2840 C   0  0  0  0  0  0  0  0  0  0  0  0
  158.5000  213.3530  147.0930 C   0  0  0  0  0  3  0  0  0  0  0  0
  158.9810  214.3850  149.2250 C   0  0  0  0  0  3  0  0  0  0  0  0
  158.1480  214.2360  148.1150 C   0  0  0  0  0  3  0  0  0  0  0  0
  162.9490  213.7820  147.2900 O   0  0  0  0  0  0  0  0  0  0  0  0
  162.7390  213.8640  145.8920 C   0  0  0  0  0  1  0  0  0  0  0  0
  161.8280  210.6960  150.6180 C   0  0  0  0  0  3  0  0  0  0  0  0
  160.7700  211.0620  151.3320 C   0  0  0  0  0  3  0  0  0  0  0  0
  160.7830  210.9410  152.8180 C   0  0  0  0  0  2  0  0  0  0  0  0
  161.9720  210.1200  153.2970 C   0  0  0  0  0  2  0  0  0  0  0  0
  160.6850  207.0050  154.6280 C   0  0  0  0  0  3  0  0  0  0  0  0
  160.9450  208.3610  154.7310 C   0  0  0  0  0  3  0  0  0  0  0  0
  161.5630  208.7570  153.6030 N   0  0  0  0  0  0  0  0  0  0  0  0
  161.1830  206.6670  153.3780 C   0  0  0  0  0  0  0  0  0  0  0  0
  161.7120  207.7440  152.7710 N   0  0  0  0  0  0  0  0  0  0  0  0
  161.3850  204.0120  149.3590 O   0  0  0  0  0  0  0  0  0  0  0  0
  161.2770  205.1950  151.3550 N   0  0  0  0  0  2  0  0  0  0  0  0
  160.9170  202.6650  151.2490 C   0  0  0  0  0  1  0  0  0  0  0  0
  161.1300  205.3320  152.7730 C   0  0  0  0  0  0  0  0  0  0  0  0
  161.2060  203.9760  150.6040 C   0  0  0  0  0  0  0  0  0  0  0  0
  160.9730  204.3200  153.5090 O   0  0  0  0  0  0  0  0  0  0  0  0
  162.0190  208.2650  149.0620 C   0  0  0  0  0  2  0  0  0  0  0  0
  162.4350  207.2510  148.0130 C   0  0  0  0  0  2  0  0  0  0  0  0
  161.2360  206.5440  147.4720 C   0  0  0  0  0  0  0  0  0  0  0  0
  160.1800  206.5770  148.0820 O   0  0  0  0  0  0  0  0  0  0  0  0
  161.3550  205.6170  145.9450 P   0  0  0  0  0  0  0  0  0  0  0  0
  160.1160  206.0850  144.8920 O   0  0  0  0  0  0  0  0  0  0  0  0
  162.6920  205.8860  145.2940 O   0  0  0  0  0  1  0  0  0  0  0  0
  161.2110  203.9650  146.2780 O   0  0  0  0  0  1  0  0  0  0  0  0
  1 29  1  0  0  0  0
  1  2  2  0  0  0  0
  2 14  1  0  0  0  0
  3  4  2  0  0  0  0
  4  2  1  0  0  0  0
  5  8  1  0  0  0  0
  7  5  1  0  0  0  0
  8  4  1  0  0  0  0
  8  6  2  0  0  0  0
  9  5  2  0  0  0  0
  9 11  1  0  0  0  0
 10  6  1  0  0  0  0
 11 10  2  0  0  0  0
 12  3  1  0  0  0  0
 13 12  1  0  0  0  0
 14 15  2  0  0  0  0
 15 16  1  0  0  0  0
 16 17  1  0  0  0  0
 17 20  1  0  0  0  0
 18 19  2  0  0  0  0
 20 19  1  0  0  0  0
 21 18  1  0  0  0  0
 22 21  2  0  0  0  0
 22 20  1  0  0  0  0
 23 27  2  0  0  0  0
 24 26  1  0  0  0  0
 26 21  1  0  0  0  0
 26 28  2  0  0  0  0
 27 25  1  0  0  0  0
 27 24  1  0  0  0  0
 30 29  1  0  0  0  0
 31 30  1  0  0  0  0
 31 32  2  0  0  0  0
 33 36  1  0  0  0  0
 33 31  1  0  0  0  0
 34 33  2  0  0  0  0
 35 33  1  0  0  0  0
M  END
>  <MODEL>
5

>  <REMARK>
 VINA RESULT:      -6.5      3.264      8.784
  Name = 
  12 active torsions:
  status: ('A' for Active; 'I' for Inactive)
    1  A    between atoms: P_1  and  C_7
    2  A    between atoms: C_2  and  C_5
    3  A    between atoms: C_2  and  C_22
    4  A    between atoms: N_3  and  O_19
    5  A    between atoms: C_4  and  C_30
    6  A    between atoms: C_7  and  C_24
    7  A    between atoms: C_10  and  C_21
    8  A    between atoms: C_10  and  C_30
    9  A    between atoms: C_13  and  C_25
   10  A    between atoms: C_22  and  N_23
   11  A    between atoms: C_24  and  C_26
   12  A    between atoms: C_26  and  C_29
                            x       y       z     vdW  Elec       q    Type
                         _______ _______ _______ _____ _____    ______ ____

>  <TORSDO>
F 12

$$$$
=
 OpenBabel11052410273D

 36 37  0  0  0  0  0  0  0  0999 V2000
  161.5030  209.8860  151.0460 C   0  0  0  0  0  3  0  0  0  0  0  0
  161.1320  209.0480  152.0220 C   0  0  0  0  0  0  0  0  0  0  0  0
  159.6460  210.6430  153.0370 N   0  0  0  0  0  0  0  0  0  0  0  0
  160.4210  209.6100  153.2010 C   0  0  0  0  0  0  0  0  0  0  0  0
  161.7190  209.5590  155.3640 C   0  0  0  0  0  0  0  0  0  0  0  0
  159.8480  208.0480  155.0460 C   0  0  0  0  0  3  0  0  0  0  0  0
  162.5270  210.6020  154.9270 O   0  0  0  0  0  1  0  0  0  0  0  0
  160.6730  209.0720  154.5570 C   0  0  0  0  0  0  0  0  0  0  0  0
  161.9400  209.0080  156.6300 C   0  0  0  0  0  3  0  0  0  0  0  0
  160.0730  207.5050  156.3130 C   0  0  0  0  0  3  0  0  0  0  0  0
  161.1220  207.9800  157.1020 C   0  0  0  0  0  3  0  0  0  0  0  0
  159.0180  211.2710  154.0900 O   0  0  0  0  0  0  0  0  0  0  0  0
  159.4840  212.5290  154.5460 C   0  0  0  0  0  1  0  0  0  0  0  0
  161.3930  207.6000  151.8710 C   0  0  0  0  0  3  0  0  0  0  0  0
  162.3030  206.9330  152.5720 C   0  0  0  0  0  3  0  0  0  0  0  0
  162.4820  205.4670  152.3760 C   0  0  0  0  0  2  0  0  0  0  0  0
  161.1450  204.7400  152.3750 C   0  0  0  0  0  2  0  0  0  0  0  0
  161.1120  201.7140  150.3810 C   0  0  0  0  0  3  0  0  0  0  0  0
  161.2010  202.3750  151.5950 C   0  0  0  0  0  3  0  0  0  0  0  0
  161.1290  203.6980  151.3590 N   0  0  0  0  0  0  0  0  0  0  0  0
  160.9770  202.7390  149.4560 C   0  0  0  0  0  0  0  0  0  0  0  0
  160.9890  203.9360  150.0700 N   0  0  0  0  0  0  0  0  0  0  0  0
  161.7380  204.5100  145.0380 O   0  0  0  0  0  0  0  0  0  0  0  0
  161.3240  203.5650  147.1180 N   0  0  0  0  0  2  0  0  0  0  0  0
  160.4890  202.5000  144.9480 C   0  0  0  0  0  1  0  0  0  0  0  0
  160.8180  202.5640  148.0090 C   0  0  0  0  0  0  0  0  0  0  0  0
  161.2140  203.5700  145.6890 C   0  0  0  0  0  0  0  0  0  0  0  0
  160.2540  201.5270  147.5650 O   0  0  0  0  0  0  0  0  0  0  0  0
  162.2100  209.4530  149.8060 C   0  0  0  0  0  2  0  0  0  0  0  0
  161.5940  210.1510  148.6080 C   0  0  0  0  0  2  0  0  0  0  0  0
  162.1650  211.5220  148.4570 C   0  0  0  0  0  0  0  0  0  0  0  0
  163.2950  211.7620  148.8510 O   0  0  0  0  0  0  0  0  0  0  0  0
  161.1800  212.8280  147.7300 P   0  0  0  0  0  0  0  0  0  0  0  0
  162.1580  213.8130  146.7630 O   0  0  0  0  0  0  0  0  0  0  0  0
  160.0860  212.2230  146.8810 O   0  0  0  0  0  1  0  0  0  0  0  0
  160.4890  213.7620  148.9600 O   0  0  0  0  0  1  0  0  0  0  0  0
  1  2  2  0  0  0  0
  2  4  1  0  0  0  0
  3  4  2  0  0  0  0
  3 12  1  0  0  0  0
  4  8  1  0  0  0  0
  5  9  1  0  0  0  0
  6 10  2  0  0  0  0
  7  5  1  0  0  0  0
  8  6  1  0  0  0  0
  8  5  2  0  0  0  0
  9 11  2  0  0  0  0
 10 11  1  0  0  0  0
 12 13  1  0  0  0  0
 14  2  1  0  0  0  0
 14 15  2  0  0  0  0
 16 15  1  0  0  0  0
 17 16  1  0  0  0  0
 18 19  2  0  0  0  0
 20 19  1  0  0  0  0
 20 17  1  0  0  0  0
 21 22  2  0  0  0  0
 21 18  1  0  0  0  0
 22 20  1  0  0  0  0
 23 27  2  0  0  0  0
 24 26  1  0  0  0  0
 25 27  1  0  0  0  0
 26 21  1  0  0  0  0
 27 24  1  0  0  0  0
 28 26  2  0  0  0  0
 29  1  1  0  0  0  0
 30 29  1  0  0  0  0
 31 30  1  0  0  0  0
 31 32  2  0  0  0  0
 33 31  1  0  0  0  0
 33 36  1  0  0  0  0
 34 33  2  0  0  0  0
 35 33  1  0  0  0  0
M  END
>  <MODEL>
6

>  <REMARK>
 VINA RESULT:      -6.5      3.594      9.021
  Name = 
  12 active torsions:
  status: ('A' for Active; 'I' for Inactive)
    1  A    between atoms: P_1  and  C_7
    2  A    between atoms: C_2  and  C_5
    3  A    between atoms: C_2  and  C_22
    4  A    between atoms: N_3  and  O_19
    5  A    between atoms: C_4  and  C_30
    6  A    between atoms: C_7  and  C_24
    7  A    between atoms: C_10  and  C_21
    8  A    between atoms: C_10  and  C_30
    9  A    between atoms: C_13  and  C_25
   10  A    between atoms: C_22  and  N_23
   11  A    between atoms: C_24  and  C_26
   12  A    between atoms: C_26  and  C_29
                            x       y       z     vdW  Elec       q    Type
                         _______ _______ _______ _____ _____    ______ ____

>  <TORSDO>
F 12

$$$$
=
 OpenBabel11052410273D

 36 37  0  0  0  0  0  0  0  0999 V2000
  161.8350  208.9780  151.2770 C   0  0  0  0  0  3  0  0  0  0  0  0
  161.1190  208.4860  152.2960 C   0  0  0  0  0  0  0  0  0  0  0  0
  159.5920  210.2020  153.0020 N   0  0  0  0  0  0  0  0  0  0  0  0
  160.5960  209.4350  153.3130 C   0  0  0  0  0  0  0  0  0  0  0  0
  160.8950  208.8180  155.7410 C   0  0  0  0  0  0  0  0  0  0  0  0
  162.3180  210.5120  154.7460 C   0  0  0  0  0  3  0  0  0  0  0  0
  159.8950  207.8590  155.6420 O   0  0  0  0  0  1  0  0  0  0  0  0
  161.2740  209.5840  154.6220 C   0  0  0  0  0  0  0  0  0  0  0  0
  161.5430  209.0050  156.9670 C   0  0  0  0  0  3  0  0  0  0  0  0
  162.9620  210.6900  155.9710 C   0  0  0  0  0  3  0  0  0  0  0  0
  162.5720  209.9410  157.0830 C   0  0  0  0  0  3  0  0  0  0  0  0
  159.1020  211.1640  153.8600 O   0  0  0  0  0  0  0  0  0  0  0  0
  159.5370  212.5070  153.7410 C   0  0  0  0  0  1  0  0  0  0  0  0
  160.8310  207.0350  152.3450 C   0  0  0  0  0  3  0  0  0  0  0  0
  161.7650  206.0980  152.4620 C   0  0  0  0  0  3  0  0  0  0  0  0
  161.3850  204.6580  152.5320 C   0  0  0  0  0  2  0  0  0  0  0  0
  160.2940  204.3230  151.5250 C   0  0  0  0  0  2  0  0  0  0  0  0
  161.3150  201.0910  150.2420 C   0  0  0  0  0  3  0  0  0  0  0  0
  161.1520  201.9980  151.2760 C   0  0  0  0  0  3  0  0  0  0  0  0
  160.6480  203.1350  150.7620 N   0  0  0  0  0  0  0  0  0  0  0  0
  160.8670  201.7800  149.1250 C   0  0  0  0  0  0  0  0  0  0  0  0
  160.4660  203.0190  149.4610 N   0  0  0  0  0  0  0  0  0  0  0  0
  159.6380  202.5040  144.5200 O   0  0  0  0  0  0  0  0  0  0  0  0
  160.2700  202.0530  146.7080 N   0  0  0  0  0  2  0  0  0  0  0  0
  160.4460  200.3030  144.8510 C   0  0  0  0  0  1  0  0  0  0  0  0
  160.8080  201.2440  147.7610 C   0  0  0  0  0  0  0  0  0  0  0  0
  160.1000  201.6680  145.3380 C   0  0  0  0  0  0  0  0  0  0  0  0
  161.2470  200.0850  147.5280 O   0  0  0  0  0  0  0  0  0  0  0  0
  162.4060  208.1390  150.1830 C   0  0  0  0  0  2  0  0  0  0  0  0
  161.5730  208.3170  148.9280 C   0  0  0  0  0  2  0  0  0  0  0  0
  160.9480  207.0200  148.5330 C   0  0  0  0  0  0  0  0  0  0  0  0
  160.0820  206.5200  149.2320 O   0  0  0  0  0  0  0  0  0  0  0  0
  161.4910  206.1780  147.0500 P   0  0  0  0  0  0  0  0  0  0  0  0
  160.2570  206.2000  145.8930 O   0  0  0  0  0  0  0  0  0  0  0  0
  162.7120  206.8730  146.4920 O   0  0  0  0  0  1  0  0  0  0  0  0
  161.8780  204.5740  147.4250 O   0  0  0  0  0  1  0  0  0  0  0  0
  1  2  2  0  0  0  0
  2 14  1  0  0  0  0
  2  4  1  0  0  0  0
  3  4  2  0  0  0  0
  3 12  1  0  0  0  0
  4  8  1  0  0  0  0
  5  9  1  0  0  0  0
  6 10  2  0  0  0  0
  7  5  1  0  0  0  0
  8  6  1  0  0  0  0
  8  5  2  0  0  0  0
  9 11  2  0  0  0  0
 10 11  1  0  0  0  0
 13 12  1  0  0  0  0
 14 15  2  0  0  0  0
 15 16  1  0  0  0  0
 17 16  1  0  0  0  0
 18 19  2  0  0  0  0
 20 19  1  0  0  0  0
 20 17  1  0  0  0  0
 21 22  2  0  0  0  0
 21 18  1  0  0  0  0
 22 20  1  0  0  0  0
 23 27  2  0  0  0  0
 24 26  1  0  0  0  0
 25 27  1  0  0  0  0
 26 21  1  0  0  0  0
 27 24  1  0  0  0  0
 28 26  2  0  0  0  0
 29  1  1  0  0  0  0
 30 29  1  0  0  0  0
 31 30  1  0  0  0  0
 31 32  2  0  0  0  0
 33 36  1  0  0  0  0
 33 31  1  0  0  0  0
 34 33  2  0  0  0  0
 35 33  1  0  0  0  0
M  END
>  <MODEL>
7

>  <REMARK>
 VINA RESULT:      -6.4      4.459      9.512
  Name = 
  12 active torsions:
  status: ('A' for Active; 'I' for Inactive)
    1  A    between atoms: P_1  and  C_7
    2  A    between atoms: C_2  and  C_5
    3  A    between atoms: C_2  and  C_22
    4  A    between atoms: N_3  and  O_19
    5  A    between atoms: C_4  and  C_30
    6  A    between atoms: C_7  and  C_24
    7  A    between atoms: C_10  and  C_21
    8  A    between atoms: C_10  and  C_30
    9  A    between atoms: C_13  and  C_25
   10  A    between atoms: C_22  and  N_23
   11  A    between atoms: C_24  and  C_26
   12  A    between atoms: C_26  and  C_29
                            x       y       z     vdW  Elec       q    Type
                         _______ _______ _______ _____ _____    ______ ____

>  <TORSDO>
F 12

$$$$
=
 OpenBabel11052410273D

 36 37  0  0  0  0  0  0  0  0999 V2000
  161.1910  208.7670  151.3280 C   0  0  0  0  0  3  0  0  0  0  0  0
  161.8630  208.7260  150.1700 C   0  0  0  0  0  0  0  0  0  0  0  0
  162.5070  207.3770  148.2880 N   0  0  0  0  0  0  0  0  0  0  0  0
  162.0300  207.4110  149.4980 C   0  0  0  0  0  0  0  0  0  0  0  0
  162.2050  205.6450  151.2920 C   0  0  0  0  0  0  0  0  0  0  0  0
  160.4520  205.4950  149.6220 C   0  0  0  0  0  3  0  0  0  0  0  0
  163.2800  206.3090  151.8700 O   0  0  0  0  0  1  0  0  0  0  0  0
  161.5620  206.1680  150.1530 C   0  0  0  0  0  0  0  0  0  0  0  0
  161.7480  204.4550  151.8680 C   0  0  0  0  0  3  0  0  0  0  0  0
  160.0000  204.3100  150.2040 C   0  0  0  0  0  3  0  0  0  0  0  0
  160.6500  203.7860  151.3230 C   0  0  0  0  0  3  0  0  0  0  0  0
  162.6160  206.2060  147.5680 O   0  0  0  0  0  0  0  0  0  0  0  0
  162.0270  206.1060  146.2830 C   0  0  0  0  0  1  0  0  0  0  0  0
  162.3640  209.9870  149.5790 C   0  0  0  0  0  3  0  0  0  0  0  0
  161.7360  210.6560  148.6190 C   0  0  0  0  0  3  0  0  0  0  0  0
  162.2970  211.9350  148.0990 C   0  0  0  0  0  2  0  0  0  0  0  0
  161.2250  213.0110  147.9970 C   0  0  0  0  0  2  0  0  0  0  0  0
  158.6960  212.5250  145.4470 C   0  0  0  0  0  3  0  0  0  0  0  0
  159.0930  212.6120  146.7710 C   0  0  0  0  0  3  0  0  0  0  0  0
  160.4230  212.8220  146.7970 N   0  0  0  0  0  0  0  0  0  0  0  0
  159.8730  212.7070  144.7360 C   0  0  0  0  0  0  0  0  0  0  0  0
  160.9100  212.8860  145.5730 N   0  0  0  0  0  0  0  0  0  0  0  0
  161.2630  210.4080  140.7330 O   0  0  0  0  0  0  0  0  0  0  0  0
  160.5560  211.6000  142.5960 N   0  0  0  0  0  2  0  0  0  0  0  0
  160.4720  212.5830  140.2360 C   0  0  0  0  0  1  0  0  0  0  0  0
  159.9890  212.7280  143.2740 C   0  0  0  0  0  0  0  0  0  0  0  0
  160.7820  211.4780  141.1860 C   0  0  0  0  0  0  0  0  0  0  0  0
  159.5750  213.7300  142.6300 O   0  0  0  0  0  0  0  0  0  0  0  0
  160.9410  210.0200  152.0980 C   0  0  0  0  0  2  0  0  0  0  0  0
  159.9900  209.7240  153.2420 C   0  0  0  0  0  2  0  0  0  0  0  0
  160.7240  209.7330  154.5410 C   0  0  0  0  0  0  0  0  0  0  0  0
  161.2320  210.7640  154.9510 O   0  0  0  0  0  0  0  0  0  0  0  0
  160.8930  208.2220  155.4870 P   0  0  0  0  0  0  0  0  0  0  0  0
  162.1350  208.3910  156.6220 O   0  0  0  0  0  1  0  0  0  0  0  0
  159.5960  207.9280  156.2050 O   0  0  0  0  0  1  0  0  0  0  0  0
  161.2610  206.9440  154.4410 O   0  0  0  0  0  0  0  0  0  0  0  0
  1 29  1  0  0  0  0
  2  1  2  0  0  0  0
  3  4  2  0  0  0  0
  4  8  1  0  0  0  0
  4  2  1  0  0  0  0
  5  9  1  0  0  0  0
  5  7  1  0  0  0  0
  6  8  1  0  0  0  0
  6 10  2  0  0  0  0
  8  5  2  0  0  0  0
 10 11  1  0  0  0  0
 11  9  2  0  0  0  0
 12  3  1  0  0  0  0
 13 12  1  0  0  0  0
 14  2  1  0  0  0  0
 15 14  2  0  0  0  0
 16 15  1  0  0  0  0
 17 16  1  0  0  0  0
 18 19  2  0  0  0  0
 19 20  1  0  0  0  0
 20 17  1  0  0  0  0
 21 18  1  0  0  0  0
 21 22  2  0  0  0  0
 22 20  1  0  0  0  0
 23 27  2  0  0  0  0
 24 26  1  0  0  0  0
 25 27  1  0  0  0  0
 26 21  1  0  0  0  0
 27 24  1  0  0  0  0
 28 26  2  0  0  0  0
 29 30  1  0  0  0  0
 30 31  1  0  0  0  0
 31 32  2  0  0  0  0
 31 33  1  0  0  0  0
 33 35  1  0  0  0  0
 33 34  1  0  0  0  0
 36 33  2  0  0  0  0
M  END
>  <MODEL>
8

>  <REMARK>
 VINA RESULT:      -6.3      1.827      3.450
  Name = 
  12 active torsions:
  status: ('A' for Active; 'I' for Inactive)
    1  A    between atoms: P_1  and  C_7
    2  A    between atoms: C_2  and  C_5
    3  A    between atoms: C_2  and  C_22
    4  A    between atoms: N_3  and  O_19
    5  A    between atoms: C_4  and  C_30
    6  A    between atoms: C_7  and  C_24
    7  A    between atoms: C_10  and  C_21
    8  A    between atoms: C_10  and  C_30
    9  A    between atoms: C_13  and  C_25
   10  A    between atoms: C_22  and  N_23
   11  A    between atoms: C_24  and  C_26
   12  A    between atoms: C_26  and  C_29
                            x       y       z     vdW  Elec       q    Type
                         _______ _______ _______ _____ _____    ______ ____

>  <TORSDO>
F 12

$$$$
=
 OpenBabel11052410273D

 36 37  0  0  0  0  0  0  0  0999 V2000
  161.8970  209.5920  148.8510 C   0  0  0  0  0  3  0  0  0  0  0  0
  161.7490  210.5420  149.7830 C   0  0  0  0  0  0  0  0  0  0  0  0
  160.8400  212.7260  150.2120 N   0  0  0  0  0  0  0  0  0  0  0  0
  161.3560  211.9060  149.3420 C   0  0  0  0  0  0  0  0  0  0  0  0
  162.6520  212.7570  147.3530 C   0  0  0  0  0  0  0  0  0  0  0  0
  160.3070  212.1890  147.1080 C   0  0  0  0  0  3  0  0  0  0  0  0
  163.8130  212.8290  148.1130 O   0  0  0  0  0  1  0  0  0  0  0  0
  161.4490  212.2910  147.9150 C   0  0  0  0  0  0  0  0  0  0  0  0
  162.6940  213.1340  146.0060 C   0  0  0  0  0  3  0  0  0  0  0  0
  160.3570  212.5640  145.7640 C   0  0  0  0  0  3  0  0  0  0  0  0
  161.5490  213.0420  145.2140 C   0  0  0  0  0  3  0  0  0  0  0  0
  160.3750  213.9770  149.8650 O   0  0  0  0  0  0  0  0  0  0  0  0
  159.0330  214.3350  150.1390 C   0  0  0  0  0  1  0  0  0  0  0  0
  161.9280  210.1910  151.2100 C   0  0  0  0  0  3  0  0  0  0  0  0
  160.9730  209.6680  151.9700 C   0  0  0  0  0  3  0  0  0  0  0  0
  161.2470  209.3190  153.3920 C   0  0  0  0  0  2  0  0  0  0  0  0
  160.6360  207.9740  153.7610 C   0  0  0  0  0  2  0  0  0  0  0  0
  162.6440  205.7080  151.7700 C   0  0  0  0  0  3  0  0  0  0  0  0
  162.4580  206.9050  152.4400 C   0  0  0  0  0  3  0  0  0  0  0  0
  161.2120  206.9100  152.9510 N   0  0  0  0  0  0  0  0  0  0  0  0
  161.4400  205.0420  151.9420 C   0  0  0  0  0  0  0  0  0  0  0  0
  160.5830  205.7880  152.6620 N   0  0  0  0  0  0  0  0  0  0  0  0
  160.7380  202.1970  148.1140 O   0  0  0  0  0  0  0  0  0  0  0  0
  161.0600  203.4760  150.0240 N   0  0  0  0  0  2  0  0  0  0  0  0
  160.3610  201.0180  150.1330 C   0  0  0  0  0  1  0  0  0  0  0  0
  161.1290  203.7000  151.4380 C   0  0  0  0  0  0  0  0  0  0  0  0
  160.7280  202.2450  149.3710 C   0  0  0  0  0  0  0  0  0  0  0  0
  160.9430  202.7560  152.2530 O   0  0  0  0  0  0  0  0  0  0  0  0
  162.2750  208.1820  149.1580 C   0  0  0  0  0  2  0  0  0  0  0  0
  162.5430  207.4420  147.8610 C   0  0  0  0  0  2  0  0  0  0  0  0
  161.4030  206.5340  147.5380 C   0  0  0  0  0  0  0  0  0  0  0  0
  160.5150  206.3520  148.3540 O   0  0  0  0  0  0  0  0  0  0  0  0
  161.3550  205.6800  145.9650 P   0  0  0  0  0  0  0  0  0  0  0  0
  159.9860  206.1590  145.0940 O   0  0  0  0  0  0  0  0  0  0  0  0
  162.5960  206.0160  145.1700 O   0  0  0  0  0  1  0  0  0  0  0  0
  161.2920  204.0110  146.2330 O   0  0  0  0  0  1  0  0  0  0  0  0
  1 29  1  0  0  0  0
  1  2  2  0  0  0  0
  2 14  1  0  0  0  0
  4  2  1  0  0  0  0
  4  3  2  0  0  0  0
  5  8  1  0  0  0  0
  5  7  1  0  0  0  0
  6  8  2  0  0  0  0
  8  4  1  0  0  0  0
  9  5  2  0  0  0  0
 10  6  1  0  0  0  0
 11 10  2  0  0  0  0
 11  9  1  0  0  0  0
 12 13  1  0  0  0  0
 12  3  1  0  0  0  0
 14 15  2  0  0  0  0
 15 16  1  0  0  0  0
 16 17  1  0  0  0  0
 18 21  1  0  0  0  0
 18 19  2  0  0  0  0
 19 20  1  0  0  0  0
 20 17  1  0  0  0  0
 21 22  2  0  0  0  0
 22 20  1  0  0  0  0
 23 27  2  0  0  0  0
 24 26  1  0  0  0  0
 26 21  1  0  0  0  0
 26 28  2  0  0  0  0
 27 24  1  0  0  0  0
 27 25  1  0  0  0  0
 30 29  1  0  0  0  0
 31 30  1  0  0  0  0
 31 32  2  0  0  0  0
 33 36  1  0  0  0  0
 33 31  1  0  0  0  0
 34 33  2  0  0  0  0
 35 33  1  0  0  0  0
M  END
>  <MODEL>
9

>  <REMARK>
 VINA RESULT:      -6.3      3.519      8.731
  Name = 
  12 active torsions:
  status: ('A' for Active; 'I' for Inactive)
    1  A    between atoms: P_1  and  C_7
    2  A    between atoms: C_2  and  C_5
    3  A    between atoms: C_2  and  C_22
    4  A    between atoms: N_3  and  O_19
    5  A    between atoms: C_4  and  C_30
    6  A    between atoms: C_7  and  C_24
    7  A    between atoms: C_10  and  C_21
    8  A    between atoms: C_10  and  C_30
    9  A    between atoms: C_13  and  C_25
   10  A    between atoms: C_22  and  N_23
   11  A    between atoms: C_24  and  C_26
   12  A    between atoms: C_26  and  C_29
                            x       y       z     vdW  Elec       q    Type
                         _______ _______ _______ _____ _____    ______ ____

>  <TORSDO>
F 12

$$$$
