=
 OpenBabel11052409463D

 31 35  0  0  1  0  0  0  0  0999 V2000
  162.7500  210.1520  151.9310 O   0  0  0  0  0  0  0  0  0  0  0  0
  161.5580  209.8070  152.1610 C   0  0  0  0  0  0  0  0  0  0  0  0
  161.0630  208.5670  151.6380 N   0  0  0  0  0  2  0  0  0  0  0  0
  160.8670  203.1970  148.9860 N   0  0  0  0  0  0  0  0  0  0  0  0
  161.6010  208.1600  149.3150 C   0  0  0  0  0  2  0  0  0  0  0  0
  161.5200  204.9320  147.4800 C   0  0  0  0  0  3  0  0  0  0  0  0
  160.8020  203.5540  151.3100 N   0  0  0  0  0  0  0  0  0  0  0  0
  161.3830  205.3730  149.8590 C   0  0  0  0  0  0  0  0  0  0  0  0
  162.1970  207.1850  148.3120 C   0  0  0  0  0  2  0  0  0  0  0  0
  161.3330  205.6850  152.2650 C   0  0  0  0  0  0  0  0  0  0  0  0
  161.4880  206.2400  150.9720 C   0  0  0  0  0  0  0  0  0  0  0  0
  161.5790  206.4660  153.5110 C   0  0  0  0  0  1  0  0  0  0  0  0
  161.1090  203.6200  147.7170 C   0  0  0  0  0  3  0  0  0  0  0  0
  161.6540  205.8150  148.5530 C   0  0  0  0  0  0  0  0  0  0  0  0
  161.0050  204.0280  150.0550 C   0  0  0  0  0  0  0  0  0  0  0  0
  160.9710  204.3430  152.4020 C   0  0  0  0  0  3  0  0  0  0  0  0
  161.8490  207.7090  150.7590 C   0  0  2  0  0  3  0  0  0  0  0  0
  160.6230  210.7310  152.9140 C   0  0  1  0  0  0  0  0  0  0  0  0
  159.2600  210.0540  153.1140 C   0  0  0  0  0  1  0  0  0  0  0  0
  161.2320  211.0160  154.3010 C   0  0  1  0  0  3  0  0  0  0  0  0
  160.5020  212.0100  154.9890 O   0  0  0  0  0  0  0  0  0  0  0  0
  160.2690  211.5330  156.2930 C   0  0  0  0  0  2  0  0  0  0  0  0
  161.3290  209.7750  155.1680 C   0  0  0  0  0  2  0  0  0  0  0  0
  161.1140  210.3110  156.5410 C   0  0  0  0  0  2  0  0  0  0  0  0
  160.4570  212.0070  152.1970 N   0  0  0  0  0  2  0  0  0  0  0  0
  159.0430  212.3220  151.9750 C   0  0  0  0  0  2  0  0  0  0  0  0
  157.6410  213.3230  150.1380 C   0  0  0  0  0  2  0  0  0  0  0  0
  158.0180  213.8900  148.7890 C   0  0  0  0  0  2  0  0  0  0  0  0
  158.8840  213.4780  150.9940 C   0  0  0  0  0  3  0  0  0  0  0  0
  160.0710  213.5780  150.0480 C   0  0  0  0  0  2  0  0  0  0  0  0
  159.5030  213.6290  148.6410 C   0  0  0  0  0  2  0  0  0  0  0  0
  1  2  2  0  0  0  0
  2 18  1  0  0  0  0
  3  2  1  0  0  0  0
  4 15  2  0  0  0  0
  5 17  1  0  0  0  0
  6 13  2  0  0  0  0
  6 14  1  0  0  0  0
  7 16  2  0  0  0  0
  8 15  1  0  0  0  0
  8 11  1  0  0  0  0
  9 14  1  0  0  0  0
  9  5  1  0  0  0  0
 10 16  1  0  0  0  0
 10 12  1  0  0  0  0
 11 10  2  0  0  0  0
 13  4  1  0  0  0  0
 14  8  2  0  0  0  0
 15  7  1  0  0  0  0
 17 11  1  0  0  0  0
 17  3  1  1  0  0  0
 18 19  1  1  0  0  0
 20 18  1  6  0  0  0
 20 21  1  0  0  0  0
 20 23  1  0  0  0  0
 21 22  1  0  0  0  0
 22 24  1  0  0  0  0
 23 24  1  0  0  0  0
 25 18  1  0  0  0  0
 26 25  1  0  0  0  0
 27 29  1  0  0  0  0
 28 27  1  0  0  0  0
 29 26  1  0  0  0  0
 30 29  1  0  0  0  0
 31 28  1  0  0  0  0
 31 30  1  0  0  0  0
M  END
>  <MODEL>
1

>  <REMARK>
 VINA RESULT:      -8.0      0.000      0.000
  Name = 
  6 active torsions:
  status: ('A' for Active; 'I' for Inactive)
    1  A    between atoms: C_1  and  C_10
    2  A    between atoms: C_1  and  N_20
    3  A    between atoms: C_1  and  C_27
    4  A    between atoms: C_13  and  N_20
    5  A    between atoms: C_13  and  C_22
    6  A    between atoms: C_26  and  N_28
                            x       y       z     vdW  Elec       q    Type
                         _______ _______ _______ _____ _____    ______ ____

>  <TORSDO>
F 6

$$$$
=
 OpenBabel11052409463D

 31 35  0  0  1  0  0  0  0  0999 V2000
  162.7480  210.1720  152.1440 O   0  0  0  0  0  0  0  0  0  0  0  0
  161.5710  209.7820  152.3780 C   0  0  0  0  0  0  0  0  0  0  0  0
  161.1040  208.5500  151.8130 N   0  0  0  0  0  2  0  0  0  0  0  0
  160.9380  203.3690  148.8060 N   0  0  0  0  0  0  0  0  0  0  0  0
  161.6690  208.2990  149.4740 C   0  0  0  0  0  2  0  0  0  0  0  0
  161.6080  205.2010  147.4270 C   0  0  0  0  0  3  0  0  0  0  0  0
  160.8460  203.5700  151.1470 N   0  0  0  0  0  0  0  0  0  0  0  0
  161.4440  205.4810  149.8290 C   0  0  0  0  0  0  0  0  0  0  0  0
  162.2760  207.3920  148.4150 C   0  0  0  0  0  2  0  0  0  0  0  0
  161.3660  205.6320  152.2490 C   0  0  0  0  0  0  0  0  0  0  0  0
  161.5370  206.2720  150.9980 C   0  0  0  0  0  0  0  0  0  0  0  0
  161.5980  206.3280  153.5470 C   0  0  0  0  0  1  0  0  0  0  0  0
  161.1940  203.8760  147.5710 C   0  0  0  0  0  3  0  0  0  0  0  0
  161.7300  206.0100  148.5580 C   0  0  0  0  0  0  0  0  0  0  0  0
  161.0630  204.1260  149.9290 C   0  0  0  0  0  0  0  0  0  0  0  0
  161.0030  204.2840  152.2920 C   0  0  0  0  0  3  0  0  0  0  0  0
  161.9000  207.7510  150.8880 C   0  0  2  0  0  3  0  0  0  0  0  0
  160.6220  210.6460  153.1830 C   0  0  1  0  0  0  0  0  0  0  0  0
  159.3330  209.8720  153.4890 C   0  0  0  0  0  1  0  0  0  0  0  0
  161.3030  211.0050  154.5190 C   0  0  1  0  0  3  0  0  0  0  0  0
  160.5830  212.0030  155.2110 O   0  0  0  0  0  0  0  0  0  0  0  0
  160.4430  211.5720  156.5440 C   0  0  0  0  0  2  0  0  0  0  0  0
  161.4910  209.8030  155.4250 C   0  0  0  0  0  2  0  0  0  0  0  0
  161.3410  210.3870  156.7870 C   0  0  0  0  0  2  0  0  0  0  0  0
  160.3080  211.8910  152.4610 N   0  0  0  0  0  2  0  0  0  0  0  0
  158.8740  212.0030  152.1770 C   0  0  0  0  0  2  0  0  0  0  0  0
  157.2680  212.9970  153.8430 C   0  0  0  0  0  2  0  0  0  0  0  0
  156.2340  214.0900  153.7050 C   0  0  0  0  0  2  0  0  0  0  0  0
  158.2950  213.2850  152.7650 C   0  0  0  0  0  3  0  0  0  0  0  0
  157.6070  214.1280  151.7020 C   0  0  0  0  0  2  0  0  0  0  0  0
  156.2220  214.4530  152.2350 C   0  0  0  0  0  2  0  0  0  0  0  0
  1  2  2  0  0  0  0
  2 18  1  0  0  0  0
  3  2  1  0  0  0  0
  4 15  2  0  0  0  0
  5 17  1  0  0  0  0
  6 13  2  0  0  0  0
  6 14  1  0  0  0  0
  7 16  2  0  0  0  0
  8 15  1  0  0  0  0
  8 11  1  0  0  0  0
  9 14  1  0  0  0  0
  9  5  1  0  0  0  0
 10 16  1  0  0  0  0
 10 12  1  0  0  0  0
 11 10  2  0  0  0  0
 13  4  1  0  0  0  0
 14  8  2  0  0  0  0
 15  7  1  0  0  0  0
 17 11  1  0  0  0  0
 17  3  1  1  0  0  0
 18 19  1  1  0  0  0
 20 18  1  6  0  0  0
 20 21  1  0  0  0  0
 20 23  1  0  0  0  0
 21 22  1  0  0  0  0
 22 24  1  0  0  0  0
 23 24  1  0  0  0  0
 25 18  1  0  0  0  0
 26 25  1  0  0  0  0
 26 29  1  0  0  0  0
 28 27  1  0  0  0  0
 29 27  1  0  0  0  0
 30 31  1  0  0  0  0
 30 29  1  0  0  0  0
 31 28  1  0  0  0  0
M  END
>  <MODEL>
2

>  <REMARK>
 VINA RESULT:      -7.8      1.102      1.606
  Name = 
  6 active torsions:
  status: ('A' for Active; 'I' for Inactive)
    1  A    between atoms: C_1  and  C_10
    2  A    between atoms: C_1  and  N_20
    3  A    between atoms: C_1  and  C_27
    4  A    between atoms: C_13  and  N_20
    5  A    between atoms: C_13  and  C_22
    6  A    between atoms: C_26  and  N_28
                            x       y       z     vdW  Elec       q    Type
                         _______ _______ _______ _____ _____    ______ ____

>  <TORSDO>
F 6

$$$$
=
 OpenBabel11052409463D

 31 35  0  0  1  0  0  0  0  0999 V2000
  162.6500  210.3520  152.9480 O   0  0  0  0  0  0  0  0  0  0  0  0
  161.4210  210.0700  152.9980 C   0  0  0  0  0  0  0  0  0  0  0  0
  160.9180  208.9470  152.2620 N   0  0  0  0  0  2  0  0  0  0  0  0
  160.9270  203.7140  149.3430 N   0  0  0  0  0  0  0  0  0  0  0  0
  161.5320  208.6700  149.9390 C   0  0  0  0  0  2  0  0  0  0  0  0
  161.5810  205.5370  147.9440 C   0  0  0  0  0  3  0  0  0  0  0  0
  160.7860  203.9530  151.6780 N   0  0  0  0  0  0  0  0  0  0  0  0
  161.3660  205.8540  150.3380 C   0  0  0  0  0  0  0  0  0  0  0  0
  162.1800  207.7600  148.9070 C   0  0  0  0  0  2  0  0  0  0  0  0
  161.2390  206.0440  152.7530 C   0  0  0  0  0  0  0  0  0  0  0  0
  161.4180  206.6670  151.4950 C   0  0  0  0  0  0  0  0  0  0  0  0
  161.4300  206.7670  154.0430 C   0  0  0  0  0  1  0  0  0  0  0  0
  161.1950  204.2050  148.1040 C   0  0  0  0  0  3  0  0  0  0  0  0
  161.6630  206.3670  149.0640 C   0  0  0  0  0  0  0  0  0  0  0  0
  161.0140  204.4930  150.4550 C   0  0  0  0  0  0  0  0  0  0  0  0
  160.9050  204.6890  152.8130 C   0  0  0  0  0  3  0  0  0  0  0  0
  161.7490  208.1520  151.3660 C   0  0  2  0  0  3  0  0  0  0  0  0
  160.4600  210.9570  153.7630 C   0  0  1  0  0  0  0  0  0  0  0  0
  161.1090  211.4350  155.0690 C   0  0  0  0  0  1  0  0  0  0  0  0
  160.1440  212.1940  152.8970 C   0  0  1  0  0  3  0  0  0  0  0  0
  159.3010  211.8600  151.8140 O   0  0  0  0  0  0  0  0  0  0  0  0
  158.2620  212.8100  151.7810 C   0  0  0  0  0  2  0  0  0  0  0  0
  159.5160  213.3230  153.6910 C   0  0  0  0  0  2  0  0  0  0  0  0
  158.5980  213.9540  152.7030 C   0  0  0  0  0  2  0  0  0  0  0  0
  159.2030  210.2450  154.0490 N   0  0  0  0  0  2  0  0  0  0  0  0
  158.9480  210.1580  155.4900 C   0  0  0  0  0  2  0  0  0  0  0  0
  156.8190  211.1730  154.6070 C   0  0  0  0  0  2  0  0  0  0  0  0
  156.0440  212.3980  155.0330 C   0  0  0  0  0  2  0  0  0  0  0  0
  157.5830  210.7380  155.8430 C   0  0  0  0  0  3  0  0  0  0  0  0
  157.7080  211.9560  156.7460 C   0  0  0  0  0  2  0  0  0  0  0  0
  156.8880  213.0600  156.1010 C   0  0  0  0  0  2  0  0  0  0  0  0
  1  2  2  0  0  0  0
  2 18  1  0  0  0  0
  3  2  1  0  0  0  0
  4 15  2  0  0  0  0
  5 17  1  0  0  0  0
  6 13  2  0  0  0  0
  6 14  1  0  0  0  0
  7 16  2  0  0  0  0
  8 15  1  0  0  0  0
  8 11  1  0  0  0  0
  9 14  1  0  0  0  0
  9  5  1  0  0  0  0
 10 16  1  0  0  0  0
 10 12  1  0  0  0  0
 11 10  2  0  0  0  0
 13  4  1  0  0  0  0
 14  8  2  0  0  0  0
 15  7  1  0  0  0  0
 17 11  1  0  0  0  0
 17  3  1  1  0  0  0
 18 25  1  0  0  0  0
 18 19  1  1  0  0  0
 20 23  1  0  0  0  0
 20 18  1  1  0  0  0
 21 20  1  0  0  0  0
 22 21  1  0  0  0  0
 22 24  1  0  0  0  0
 24 23  1  0  0  0  0
 25 26  1  0  0  0  0
 26 29  1  0  0  0  0
 27 28  1  0  0  0  0
 27 29  1  0  0  0  0
 28 31  1  0  0  0  0
 29 30  1  0  0  0  0
 31 30  1  0  0  0  0
M  END
>  <MODEL>
3

>  <REMARK>
 VINA RESULT:      -7.3      1.808      3.397
  Name = 
  6 active torsions:
  status: ('A' for Active; 'I' for Inactive)
    1  A    between atoms: C_1  and  C_10
    2  A    between atoms: C_1  and  N_20
    3  A    between atoms: C_1  and  C_27
    4  A    between atoms: C_13  and  N_20
    5  A    between atoms: C_13  and  C_22
    6  A    between atoms: C_26  and  N_28
                            x       y       z     vdW  Elec       q    Type
                         _______ _______ _______ _____ _____    ______ ____

>  <TORSDO>
F 6

$$$$
=
 OpenBabel11052409463D

 31 35  0  0  1  0  0  0  0  0999 V2000
  162.9520  205.7380  151.7750 O   0  0  0  0  0  0  0  0  0  0  0  0
  161.7890  205.9700  151.3450 C   0  0  0  0  0  0  0  0  0  0  0  0
  160.9630  206.9350  152.0100 N   0  0  0  0  0  2  0  0  0  0  0  0
  159.5410  211.6640  155.4050 N   0  0  0  0  0  0  0  0  0  0  0  0
  160.7180  206.8760  154.4160 C   0  0  0  0  0  2  0  0  0  0  0  0
  159.8220  209.6700  156.6930 C   0  0  0  0  0  3  0  0  0  0  0  0
  160.2300  211.7770  153.1600 N   0  0  0  0  0  0  0  0  0  0  0  0
  160.4680  209.7130  154.3570 C   0  0  0  0  0  0  0  0  0  0  0  0
  160.8950  207.6390  155.7190 C   0  0  0  0  0  2  0  0  0  0  0  0
  161.1940  209.8880  152.0490 C   0  0  0  0  0  0  0  0  0  0  0  0
  160.9810  209.0870  153.1960 C   0  0  0  0  0  0  0  0  0  0  0  0
  161.8750  209.3740  150.8250 C   0  0  0  0  0  1  0  0  0  0  0  0
  159.4070  210.9980  156.5830 C   0  0  0  0  0  3  0  0  0  0  0  0
  160.3510  209.0220  155.5750 C   0  0  0  0  0  0  0  0  0  0  0  0
  160.0680  211.0650  154.3030 C   0  0  0  0  0  0  0  0  0  0  0  0
  160.7920  211.2250  152.0530 C   0  0  0  0  0  3  0  0  0  0  0  0
  161.3690  207.6100  153.2370 C   0  0  2  0  0  3  0  0  0  0  0  0
  161.2280  205.1760  150.1830 C   0  0  1  0  0  0  0  0  0  0  0  0
  159.7000  205.3120  150.1390 C   0  0  0  0  0  1  0  0  0  0  0  0
  161.8050  205.7540  148.8740 C   0  0  1  0  0  3  0  0  0  0  0  0
  162.1300  204.7290  147.9590 O   0  0  0  0  0  0  0  0  0  0  0  0
  161.5890  205.0940  146.7110 C   0  0  0  0  0  2  0  0  0  0  0  0
  160.8710  206.7450  148.2060 C   0  0  0  0  0  2  0  0  0  0  0  0
  161.1400  206.5310  146.7570 C   0  0  0  0  0  2  0  0  0  0  0  0
  161.6100  203.7580  150.2830 N   0  0  0  0  0  2  0  0  0  0  0  0
  160.4820  202.9230  150.7070 C   0  0  0  0  0  2  0  0  0  0  0  0
  161.5650  200.9060  149.6570 C   0  0  0  0  0  2  0  0  0  0  0  0
  161.5830  200.4110  148.2290 C   0  0  0  0  0  2  0  0  0  0  0  0
  160.2970  201.7320  149.7730 C   0  0  0  0  0  3  0  0  0  0  0  0
  159.9190  202.1740  148.3680 C   0  0  0  0  0  2  0  0  0  0  0  0
  160.8830  201.4830  147.4200 C   0  0  0  0  0  2  0  0  0  0  0  0
  2  1  2  0  0  0  0
  2  3  1  0  0  0  0
  4 13  1  0  0  0  0
  5  9  1  0  0  0  0
  7 15  1  0  0  0  0
  8 14  2  0  0  0  0
 10 16  1  0  0  0  0
 10 11  2  0  0  0  0
 11 17  1  0  0  0  0
 11  8  1  0  0  0  0
 12 10  1  0  0  0  0
 13  6  2  0  0  0  0
 14  9  1  0  0  0  0
 14  6  1  0  0  0  0
 15  8  1  0  0  0  0
 15  4  2  0  0  0  0
 16  7  2  0  0  0  0
 17  3  1  6  0  0  0
 17  5  1  0  0  0  0
 18 19  1  6  0  0  0
 18 25  1  0  0  0  0
 18  2  1  0  0  0  0
 20 18  1  1  0  0  0
 21 20  1  0  0  0  0
 22 24  1  0  0  0  0
 22 21  1  0  0  0  0
 23 20  1  0  0  0  0
 24 23  1  0  0  0  0
 25 26  1  0  0  0  0
 27 29  1  0  0  0  0
 28 27  1  0  0  0  0
 29 26  1  0  0  0  0
 30 29  1  0  0  0  0
 31 28  1  0  0  0  0
 31 30  1  0  0  0  0
M  END
>  <MODEL>
4

>  <REMARK>
 VINA RESULT:      -7.2      2.552      8.644
  Name = 
  6 active torsions:
  status: ('A' for Active; 'I' for Inactive)
    1  A    between atoms: C_1  and  C_10
    2  A    between atoms: C_1  and  N_20
    3  A    between atoms: C_1  and  C_27
    4  A    between atoms: C_13  and  N_20
    5  A    between atoms: C_13  and  C_22
    6  A    between atoms: C_26  and  N_28
                            x       y       z     vdW  Elec       q    Type
                         _______ _______ _______ _____ _____    ______ ____

>  <TORSDO>
F 6

$$$$
=
 OpenBabel11052409463D

 31 35  0  0  1  0  0  0  0  0999 V2000
  163.0600  206.6050  151.4660 O   0  0  0  0  0  0  0  0  0  0  0  0
  161.8400  206.5750  151.1410 C   0  0  0  0  0  0  0  0  0  0  0  0
  160.8750  207.2750  151.9350 N   0  0  0  0  0  2  0  0  0  0  0  0
  159.1220  211.8750  155.3540 N   0  0  0  0  0  0  0  0  0  0  0  0
  160.5900  207.1750  154.3360 C   0  0  0  0  0  2  0  0  0  0  0  0
  159.4940  209.8860  156.6250 C   0  0  0  0  0  3  0  0  0  0  0  0
  159.8430  212.0540  153.1230 N   0  0  0  0  0  0  0  0  0  0  0  0
  160.1790  209.9930  154.3020 C   0  0  0  0  0  0  0  0  0  0  0  0
  160.7000  207.9310  155.6500 C   0  0  0  0  0  2  0  0  0  0  0  0
  160.9340  210.2360  152.0100 C   0  0  0  0  0  0  0  0  0  0  0  0
  160.7470  209.4120  153.1440 C   0  0  0  0  0  0  0  0  0  0  0  0
  161.6650  209.7770  150.7930 C   0  0  0  0  0  1  0  0  0  0  0  0
  159.0050  211.1890  156.5220 C   0  0  0  0  0  3  0  0  0  0  0  0
  160.0800  209.2830  155.5110 C   0  0  0  0  0  0  0  0  0  0  0  0
  159.7020  211.3200  154.2550 C   0  0  0  0  0  0  0  0  0  0  0  0
  160.4550  211.5480  152.0210 C   0  0  0  0  0  3  0  0  0  0  0  0
  161.2190  207.9590  153.1770 C   0  0  2  0  0  3  0  0  0  0  0  0
  161.3790  205.7360  149.9660 C   0  0  1  0  0  0  0  0  0  0  0  0
  162.5910  205.2090  149.1860 C   0  0  0  0  0  1  0  0  0  0  0  0
  160.5880  204.5290  150.5100 C   0  0  1  0  0  3  0  0  0  0  0  0
  160.4590  203.5170  149.5330 O   0  0  0  0  0  0  0  0  0  0  0  0
  160.8050  202.2970  150.1450 C   0  0  0  0  0  2  0  0  0  0  0  0
  161.2030  203.9400  151.7650 C   0  0  0  0  0  2  0  0  0  0  0  0
  160.8940  202.4890  151.6360 C   0  0  0  0  0  2  0  0  0  0  0  0
  160.5020  206.5170  149.0770 N   0  0  0  0  0  2  0  0  0  0  0  0
  161.1200  206.7370  147.7660 C   0  0  0  0  0  2  0  0  0  0  0  0
  161.5760  204.5550  146.5940 C   0  0  0  0  0  2  0  0  0  0  0  0
  161.5030  204.1700  145.1350 C   0  0  0  0  0  2  0  0  0  0  0  0
  160.6200  205.7230  146.7440 C   0  0  0  0  0  3  0  0  0  0  0  0
  160.4560  206.3490  145.3680 C   0  0  0  0  0  2  0  0  0  0  0  0
  161.2010  205.4550  144.3920 C   0  0  0  0  0  2  0  0  0  0  0  0
  2  1  2  0  0  0  0
  2  3  1  0  0  0  0
  4 13  1  0  0  0  0
  5  9  1  0  0  0  0
  7 15  1  0  0  0  0
  8 14  2  0  0  0  0
 10 16  1  0  0  0  0
 10 11  2  0  0  0  0
 11 17  1  0  0  0  0
 11  8  1  0  0  0  0
 12 10  1  0  0  0  0
 13  6  2  0  0  0  0
 14  9  1  0  0  0  0
 14  6  1  0  0  0  0
 15  8  1  0  0  0  0
 15  4  2  0  0  0  0
 16  7  2  0  0  0  0
 17  3  1  6  0  0  0
 17  5  1  0  0  0  0
 18 19  1  6  0  0  0
 18  2  1  0  0  0  0
 20 18  1  6  0  0  0
 20 23  1  0  0  0  0
 21 22  1  0  0  0  0
 21 20  1  0  0  0  0
 22 24  1  0  0  0  0
 24 23  1  0  0  0  0
 25 18  1  0  0  0  0
 26 25  1  0  0  0  0
 27 29  1  0  0  0  0
 28 27  1  0  0  0  0
 29 26  1  0  0  0  0
 30 29  1  0  0  0  0
 31 28  1  0  0  0  0
 31 30  1  0  0  0  0
M  END
>  <MODEL>
5

>  <REMARK>
 VINA RESULT:      -6.2      2.487      7.843
  Name = 
  6 active torsions:
  status: ('A' for Active; 'I' for Inactive)
    1  A    between atoms: C_1  and  C_10
    2  A    between atoms: C_1  and  N_20
    3  A    between atoms: C_1  and  C_27
    4  A    between atoms: C_13  and  N_20
    5  A    between atoms: C_13  and  C_22
    6  A    between atoms: C_26  and  N_28
                            x       y       z     vdW  Elec       q    Type
                         _______ _______ _______ _____ _____    ______ ____

>  <TORSDO>
F 6

$$$$
=
 OpenBabel11052409463D

 31 35  0  0  1  0  0  0  0  0999 V2000
  163.5200  206.9240  151.2110 O   0  0  0  0  0  0  0  0  0  0  0  0
  162.2960  207.1880  151.0510 C   0  0  0  0  0  0  0  0  0  0  0  0
  161.5550  206.5260  150.0190 N   0  0  0  0  0  2  0  0  0  0  0  0
  160.3100  201.6340  146.7890 N   0  0  0  0  0  0  0  0  0  0  0  0
  162.0840  206.2550  147.6740 C   0  0  0  0  0  2  0  0  0  0  0  0
  161.3800  203.3320  145.4930 C   0  0  0  0  0  3  0  0  0  0  0  0
  160.2310  201.7530  149.1360 N   0  0  0  0  0  0  0  0  0  0  0  0
  161.2480  203.5410  147.9040 C   0  0  0  0  0  0  0  0  0  0  0  0
  162.4940  205.2830  146.5790 C   0  0  0  0  0  2  0  0  0  0  0  0
  161.1720  203.6050  150.3280 C   0  0  0  0  0  0  0  0  0  0  0  0
  161.4940  204.2440  149.1080 C   0  0  0  0  0  0  0  0  0  0  0  0
  161.5310  204.1800  151.6570 C   0  0  0  0  0  1  0  0  0  0  0  0
  160.6870  202.1240  145.5780 C   0  0  0  0  0  3  0  0  0  0  0  0
  161.6590  204.0470  146.6590 C   0  0  0  0  0  0  0  0  0  0  0  0
  160.5810  202.2990  147.9440 C   0  0  0  0  0  0  0  0  0  0  0  0
  160.5240  202.3670  150.3120 C   0  0  0  0  0  3  0  0  0  0  0  0
  162.1710  205.6120  149.0630 C   0  0  2  0  0  3  0  0  0  0  0  0
  161.6270  208.2600  151.8860 C   0  0  1  0  0  0  0  0  0  0  0  0
  160.1310  208.3320  151.5520 C   0  0  0  0  0  1  0  0  0  0  0  0
  161.7750  207.8820  153.3740 C   0  0  1  0  0  3  0  0  0  0  0  0
  161.5670  209.0000  154.2120 O   0  0  0  0  0  0  0  0  0  0  0  0
  160.6770  208.6030  155.2290 C   0  0  0  0  0  2  0  0  0  0  0  0
  160.8420  206.7610  153.7920 C   0  0  0  0  0  2  0  0  0  0  0  0
  160.5240  207.1040  155.2060 C   0  0  0  0  0  2  0  0  0  0  0  0
  162.2620  209.5700  151.6650 N   0  0  0  0  0  2  0  0  0  0  0  0
  161.3020  210.5570  151.1600 C   0  0  0  0  0  2  0  0  0  0  0  0
  161.1270  212.6900  149.8320 C   0  0  0  0  0  2  0  0  0  0  0  0
  161.2410  212.9560  148.3490 C   0  0  0  0  0  2  0  0  0  0  0  0
  161.9240  211.4210  150.0690 C   0  0  0  0  0  3  0  0  0  0  0  0
  161.9990  210.6830  148.7420 C   0  0  0  0  0  2  0  0  0  0  0  0
  161.3710  211.5930  147.7020 C   0  0  0  0  0  2  0  0  0  0  0  0
  2  1  2  0  0  0  0
  2 18  1  0  0  0  0
  3  2  1  0  0  0  0
  4 15  2  0  0  0  0
  5 17  1  0  0  0  0
  6 13  2  0  0  0  0
  6 14  1  0  0  0  0
  7 16  2  0  0  0  0
  8 15  1  0  0  0  0
  8 11  1  0  0  0  0
  9 14  1  0  0  0  0
  9  5  1  0  0  0  0
 10 12  1  0  0  0  0
 11 10  2  0  0  0  0
 13  4  1  0  0  0  0
 14  8  2  0  0  0  0
 15  7  1  0  0  0  0
 16 10  1  0  0  0  0
 17 11  1  0  0  0  0
 17  3  1  1  0  0  0
 18 19  1  6  0  0  0
 20 18  1  6  0  0  0
 20 23  1  0  0  0  0
 20 21  1  0  0  0  0
 21 22  1  0  0  0  0
 23 24  1  0  0  0  0
 24 22  1  0  0  0  0
 25 18  1  0  0  0  0
 26 25  1  0  0  0  0
 27 29  1  0  0  0  0
 28 27  1  0  0  0  0
 29 26  1  0  0  0  0
 30 29  1  0  0  0  0
 31 28  1  0  0  0  0
 31 30  1  0  0  0  0
M  END
>  <MODEL>
6

>  <REMARK>
 VINA RESULT:      -6.1      2.107      3.006
  Name = 
  6 active torsions:
  status: ('A' for Active; 'I' for Inactive)
    1  A    between atoms: C_1  and  C_10
    2  A    between atoms: C_1  and  N_20
    3  A    between atoms: C_1  and  C_27
    4  A    between atoms: C_13  and  N_20
    5  A    between atoms: C_13  and  C_22
    6  A    between atoms: C_26  and  N_28
                            x       y       z     vdW  Elec       q    Type
                         _______ _______ _______ _____ _____    ______ ____

>  <TORSDO>
F 6

$$$$
=
 OpenBabel11052409463D

 31 35  0  0  1  0  0  0  0  0999 V2000
  161.5730  207.9440  152.7770 O   0  0  0  0  0  0  0  0  0  0  0  0
  161.5260  208.1270  151.5290 C   0  0  0  0  0  0  0  0  0  0  0  0
  161.3370  209.4500  151.0120 N   0  0  0  0  0  2  0  0  0  0  0  0
  158.0200  214.4340  151.2810 N   0  0  0  0  0  0  0  0  0  0  0  0
  160.1200  210.1880  152.9680 C   0  0  0  0  0  2  0  0  0  0  0  0
  157.9970  213.2130  153.3350 C   0  0  0  0  0  3  0  0  0  0  0  0
  159.5620  213.9340  149.5780 N   0  0  0  0  0  0  0  0  0  0  0  0
  159.5470  212.6050  151.5740 C   0  0  0  0  0  0  0  0  0  0  0  0
  159.6340  211.3820  153.7740 C   0  0  0  0  0  2  0  0  0  0  0  0
  161.1410  212.1480  149.8030 C   0  0  0  0  0  0  0  0  0  0  0  0
  160.5750  211.7870  151.0490 C   0  0  0  0  0  0  0  0  0  0  0  0
  162.3310  211.4560  149.2290 C   0  0  0  0  0  1  0  0  0  0  0  0
  157.4940  214.2270  152.5180 C   0  0  0  0  0  3  0  0  0  0  0  0
  159.0240  212.3950  152.8610 C   0  0  0  0  0  0  0  0  0  0  0  0
  159.0320  213.6650  150.7980 C   0  0  0  0  0  0  0  0  0  0  0  0
  160.6010  213.2150  149.0810 C   0  0  0  0  0  3  0  0  0  0  0  0
  161.1000  210.6080  151.8660 C   0  0  2  0  0  3  0  0  0  0  0  0
  161.5820  206.9500  150.5780 C   0  0  1  0  0  0  0  0  0  0  0  0
  163.0410  206.6100  150.2440 C   0  0  0  0  0  1  0  0  0  0  0  0
  160.9460  205.7300  151.2740 C   0  0  1  0  0  3  0  0  0  0  0  0
  160.1180  205.0060  150.3880 O   0  0  0  0  0  0  0  0  0  0  0  0
  160.4570  203.6450  150.5120 C   0  0  0  0  0  2  0  0  0  0  0  0
  161.9750  204.7930  151.8760 C   0  0  0  0  0  2  0  0  0  0  0  0
  161.3400  203.4550  151.7190 C   0  0  0  0  0  2  0  0  0  0  0  0
  160.8310  207.2360  149.3440 N   0  0  0  0  0  2  0  0  0  0  0  0
  161.6200  206.9260  148.1480 C   0  0  0  0  0  2  0  0  0  0  0  0
  161.9520  204.6040  147.2320 C   0  0  0  0  0  2  0  0  0  0  0  0
  161.6730  204.0180  145.8670 C   0  0  0  0  0  2  0  0  0  0  0  0
  160.9990  205.7770  147.3620 C   0  0  0  0  0  3  0  0  0  0  0  0
  160.6170  206.2030  145.9530 C   0  0  0  0  0  2  0  0  0  0  0  0
  161.2310  205.1850  145.0090 C   0  0  0  0  0  2  0  0  0  0  0  0
  2  1  2  0  0  0  0
  3  2  1  0  0  0  0
  4 13  1  0  0  0  0
  5  9  1  0  0  0  0
  7 15  1  0  0  0  0
  8 14  2  0  0  0  0
 10 11  2  0  0  0  0
 11  8  1  0  0  0  0
 11 17  1  0  0  0  0
 12 10  1  0  0  0  0
 13  6  2  0  0  0  0
 14  6  1  0  0  0  0
 14  9  1  0  0  0  0
 15  4  2  0  0  0  0
 15  8  1  0  0  0  0
 16  7  2  0  0  0  0
 16 10  1  0  0  0  0
 17  3  1  6  0  0  0
 17  5  1  0  0  0  0
 18 19  1  6  0  0  0
 18  2  1  0  0  0  0
 20 18  1  6  0  0  0
 20 23  1  0  0  0  0
 21 22  1  0  0  0  0
 21 20  1  0  0  0  0
 22 24  1  0  0  0  0
 24 23  1  0  0  0  0
 25 18  1  0  0  0  0
 26 25  1  0  0  0  0
 27 29  1  0  0  0  0
 28 27  1  0  0  0  0
 29 26  1  0  0  0  0
 30 29  1  0  0  0  0
 31 28  1  0  0  0  0
 31 30  1  0  0  0  0
M  END
>  <MODEL>
7

>  <REMARK>
 VINA RESULT:      -5.9      2.075      7.938
  Name = 
  6 active torsions:
  status: ('A' for Active; 'I' for Inactive)
    1  A    between atoms: C_1  and  C_10
    2  A    between atoms: C_1  and  N_20
    3  A    between atoms: C_1  and  C_27
    4  A    between atoms: C_13  and  N_20
    5  A    between atoms: C_13  and  C_22
    6  A    between atoms: C_26  and  N_28
                            x       y       z     vdW  Elec       q    Type
                         _______ _______ _______ _____ _____    ______ ____

>  <TORSDO>
F 6

$$$$
=
 OpenBabel11052409463D

 31 35  0  0  1  0  0  0  0  0999 V2000
  161.8040  206.8310  153.8910 O   0  0  0  0  0  0  0  0  0  0  0  0
  161.5440  207.2580  152.7320 C   0  0  0  0  0  0  0  0  0  0  0  0
  161.0990  208.6090  152.5550 N   0  0  0  0  0  2  0  0  0  0  0  0
  157.2480  212.8540  154.3060 N   0  0  0  0  0  0  0  0  0  0  0  0
  160.0750  208.7180  154.7440 C   0  0  0  0  0  2  0  0  0  0  0  0
  157.6580  211.2350  156.0150 C   0  0  0  0  0  3  0  0  0  0  0  0
  158.5950  212.9690  152.3820 N   0  0  0  0  0  0  0  0  0  0  0  0
  159.0190  211.2600  154.0100 C   0  0  0  0  0  0  0  0  0  0  0  0
  159.5570  209.6260  155.8490 C   0  0  0  0  0  2  0  0  0  0  0  0
  160.4020  211.4390  152.0250 C   0  0  0  0  0  0  0  0  0  0  0  0
  160.0610  210.7390  153.2060 C   0  0  0  0  0  0  0  0  0  0  0  0
  161.5810  211.0750  151.1870 C   0  0  0  0  0  1  0  0  0  0  0  0
  156.9260  212.3110  155.5100 C   0  0  0  0  0  3  0  0  0  0  0  0
  158.7060  210.7040  155.2620 C   0  0  0  0  0  0  0  0  0  0  0  0
  158.2740  212.3690  153.5560 C   0  0  0  0  0  0  0  0  0  0  0  0
  159.6390  212.5400  151.6270 C   0  0  0  0  0  3  0  0  0  0  0  0
  160.8360  209.5080  153.6720 C   0  0  2  0  0  3  0  0  0  0  0  0
  161.6180  206.3290  151.5370 C   0  0  1  0  0  0  0  0  0  0  0  0
  163.0690  206.2030  151.0560 C   0  0  0  0  0  1  0  0  0  0  0  0
  161.1270  204.9330  151.9740 C   0  0  1  0  0  3  0  0  0  0  0  0
  160.0890  204.4690  151.1380 O   0  0  0  0  0  0  0  0  0  0  0  0
  160.4040  203.1460  150.7720 C   0  0  0  0  0  2  0  0  0  0  0  0
  162.2400  203.9030  152.0100 C   0  0  0  0  0  2  0  0  0  0  0  0
  161.5430  202.6460  151.6220 C   0  0  0  0  0  2  0  0  0  0  0  0
  160.7590  206.8120  150.4440 N   0  0  0  0  0  2  0  0  0  0  0  0
  161.4870  206.8780  149.1730 C   0  0  0  0  0  2  0  0  0  0  0  0
  161.6760  204.6540  148.0070 C   0  0  0  0  0  2  0  0  0  0  0  0
  161.5810  204.2810  146.5460 C   0  0  0  0  0  2  0  0  0  0  0  0
  160.8780  205.9380  148.1400 C   0  0  0  0  0  3  0  0  0  0  0  0
  160.8250  206.5780  146.7610 C   0  0  0  0  0  2  0  0  0  0  0  0
  161.4650  205.5930  145.7990 C   0  0  0  0  0  2  0  0  0  0  0  0
  2  1  2  0  0  0  0
  3  2  1  0  0  0  0
  4 13  1  0  0  0  0
  5  9  1  0  0  0  0
  7 15  1  0  0  0  0
  8 14  2  0  0  0  0
 10 11  2  0  0  0  0
 11 17  1  0  0  0  0
 11  8  1  0  0  0  0
 12 10  1  0  0  0  0
 13  6  2  0  0  0  0
 14  9  1  0  0  0  0
 14  6  1  0  0  0  0
 15  8  1  0  0  0  0
 15  4  2  0  0  0  0
 16 10  1  0  0  0  0
 16  7  2  0  0  0  0
 17  3  1  6  0  0  0
 17  5  1  0  0  0  0
 18 19  1  6  0  0  0
 18  2  1  0  0  0  0
 20 18  1  6  0  0  0
 20 23  1  0  0  0  0
 21 20  1  0  0  0  0
 22 21  1  0  0  0  0
 22 24  1  0  0  0  0
 24 23  1  0  0  0  0
 25 18  1  0  0  0  0
 26 25  1  0  0  0  0
 27 29  1  0  0  0  0
 28 27  1  0  0  0  0
 29 26  1  0  0  0  0
 30 29  1  0  0  0  0
 31 28  1  0  0  0  0
 31 30  1  0  0  0  0
M  END
>  <MODEL>
8

>  <REMARK>
 VINA RESULT:      -5.9      2.171      7.860
  Name = 
  6 active torsions:
  status: ('A' for Active; 'I' for Inactive)
    1  A    between atoms: C_1  and  C_10
    2  A    between atoms: C_1  and  N_20
    3  A    between atoms: C_1  and  C_27
    4  A    between atoms: C_13  and  N_20
    5  A    between atoms: C_13  and  C_22
    6  A    between atoms: C_26  and  N_28
                            x       y       z     vdW  Elec       q    Type
                         _______ _______ _______ _____ _____    ______ ____

>  <TORSDO>
F 6

$$$$
=
 OpenBabel11052409463D

 31 35  0  0  1  0  0  0  0  0999 V2000
  159.0080  210.7900  152.8200 O   0  0  0  0  0  0  0  0  0  0  0  0
  160.1780  210.9980  152.3950 C   0  0  0  0  0  0  0  0  0  0  0  0
  160.5610  212.3150  151.9800 N   0  0  0  0  0  2  0  0  0  0  0  0
  155.5100  214.0480  149.2600 N   0  0  0  0  0  0  0  0  0  0  0  0
  158.6530  213.2810  153.1100 C   0  0  0  0  0  2  0  0  0  0  0  0
  155.4350  214.3930  151.6240 C   0  0  0  0  0  3  0  0  0  0  0  0
  157.5260  213.5430  148.1610 N   0  0  0  0  0  0  0  0  0  0  0  0
  157.5210  213.7890  150.5460 C   0  0  0  0  0  0  0  0  0  0  0  0
  157.5010  214.2710  153.0170 C   0  0  0  0  0  2  0  0  0  0  0  0
  159.5820  213.3000  149.3630 C   0  0  0  0  0  0  0  0  0  0  0  0
  158.9000  213.4790  150.5910 C   0  0  0  0  0  0  0  0  0  0  0  0
  161.0610  213.1270  149.2820 C   0  0  0  0  0  1  0  0  0  0  0  0
  154.8000  214.3430  150.3820 C   0  0  0  0  0  3  0  0  0  0  0  0
  156.8000  214.1110  151.7090 C   0  0  0  0  0  0  0  0  0  0  0  0
  156.8430  213.7850  149.3080 C   0  0  0  0  0  0  0  0  0  0  0  0
  158.8650  213.3190  148.1640 C   0  0  0  0  0  3  0  0  0  0  0  0
  159.6250  213.4330  151.9340 C   0  0  2  0  0  3  0  0  0  0  0  0
  161.1540  209.8490  152.2420 C   0  0  1  0  0  0  0  0  0  0  0  0
  162.2610  210.2260  151.2470 C   0  0  0  0  0  1  0  0  0  0  0  0
  161.8050  209.5760  153.6130 C   0  0  1  0  0  3  0  0  0  0  0  0
  161.9390  210.7650  154.3650 O   0  0  0  0  0  0  0  0  0  0  0  0
  161.4520  210.5000  155.6590 C   0  0  0  0  0  2  0  0  0  0  0  0
  161.0460  208.5490  154.4310 C   0  0  0  0  0  2  0  0  0  0  0  0
  161.2560  209.0160  155.8290 C   0  0  0  0  0  2  0  0  0  0  0  0
  160.4620  208.6290  151.7950 N   0  0  0  0  0  2  0  0  0  0  0  0
  161.2410  207.9050  150.7860 C   0  0  0  0  0  2  0  0  0  0  0  0
  161.2080  205.4010  151.0540 C   0  0  0  0  0  2  0  0  0  0  0  0
  161.1080  204.2880  150.0360 C   0  0  0  0  0  2  0  0  0  0  0  0
  160.5560  206.6010  150.3930 C   0  0  0  0  0  3  0  0  0  0  0  0
  160.6080  206.3700  148.8910 C   0  0  0  0  0  2  0  0  0  0  0  0
  161.1570  204.9700  148.6850 C   0  0  0  0  0  2  0  0  0  0  0  0
  2  1  2  0  0  0  0
  3  2  1  0  0  0  0
  4 15  2  0  0  0  0
  4 13  1  0  0  0  0
  6 14  1  0  0  0  0
  7 16  2  0  0  0  0
  7 15  1  0  0  0  0
  8 11  1  0  0  0  0
  8 14  2  0  0  0  0
  9  5  1  0  0  0  0
 10 11  2  0  0  0  0
 11 17  1  0  0  0  0
 12 10  1  0  0  0  0
 13  6  2  0  0  0  0
 14  9  1  0  0  0  0
 15  8  1  0  0  0  0
 16 10  1  0  0  0  0
 17  3  1  6  0  0  0
 17  5  1  0  0  0  0
 18 19  1  6  0  0  0
 18  2  1  0  0  0  0
 20 18  1  6  0  0  0
 20 21  1  0  0  0  0
 20 23  1  0  0  0  0
 21 22  1  0  0  0  0
 22 24  1  0  0  0  0
 23 24  1  0  0  0  0
 25 18  1  0  0  0  0
 26 25  1  0  0  0  0
 28 27  1  0  0  0  0
 29 26  1  0  0  0  0
 29 27  1  0  0  0  0
 30 29  1  0  0  0  0
 31 30  1  0  0  0  0
 31 28  1  0  0  0  0
M  END
>  <MODEL>
9

>  <REMARK>
 VINA RESULT:      -5.9      2.031      7.643
  Name = 
  6 active torsions:
  status: ('A' for Active; 'I' for Inactive)
    1  A    between atoms: C_1  and  C_10
    2  A    between atoms: C_1  and  N_20
    3  A    between atoms: C_1  and  C_27
    4  A    between atoms: C_13  and  N_20
    5  A    between atoms: C_13  and  C_22
    6  A    between atoms: C_26  and  N_28
                            x       y       z     vdW  Elec       q    Type
                         _______ _______ _______ _____ _____    ______ ____

>  <TORSDO>
F 6

$$$$
