=
 OpenBabel11042421213D

 39 42  0  0  1  0  0  0  0  0999 V2000
  160.0740  212.9680  155.0760 C   0  0  0  0  0  2  0  0  0  0  0  0
  158.4390  213.4860  149.1130 C   0  0  0  0  0  2  0  0  0  0  0  0
  159.8560  209.9990  153.5940 C   0  0  0  0  0  2  0  0  0  0  0  0
  160.4890  213.8410  147.6990 C   0  0  1  0  0  3  0  0  0  0  0  0
  161.7290  207.3830  149.8100 C   0  0  0  0  0  0  0  0  0  0  0  0
  159.2210  213.0140  147.8970 C   0  0  0  0  0  2  0  0  0  0  0  0
  157.4480  213.9190  151.8500 C   0  0  0  0  0  3  0  0  0  0  0  0
  160.1510  211.4520  155.2360 C   0  0  1  0  0  3  0  0  0  0  0  0
  159.1850  213.1870  150.2840 O   0  0  0  0  0  0  0  0  0  0  0  0
  157.9180  213.8050  154.1940 N   0  0  0  0  0  0  0  0  0  0  0  0
  163.5740  212.0260  148.4140 C   0  0  0  0  0  1  0  0  0  0  0  0
  161.9580  206.3050  150.7300 N   0  0  0  0  0  0  0  0  0  0  0  0
  161.5720  208.7620  150.3300 C   0  0  0  0  0  0  0  0  0  0  0  0
  157.0560  214.1010  153.1810 C   0  0  0  0  0  3  0  0  0  0  0  0
  162.0650  212.0410  148.5800 C   0  0  1  0  0  3  0  0  0  0  0  0
  161.7090  209.7730  149.4600 C   0  0  0  0  0  3  0  0  0  0  0  0
  161.3920  208.9850  151.8290 C   0  0  2  0  0  3  0  0  0  0  0  0
  161.3440  207.6680  152.6310 C   0  0  0  0  0  2  0  0  0  0  0  0
  161.6820  207.1570  148.5680 O   0  0  0  0  0  0  0  0  0  0  0  0
  161.6620  211.2260  149.8030 C   0  0  0  0  0  2  0  0  0  0  0  0
  159.5990  213.1530  152.6320 C   0  0  0  0  0  3  0  0  0  0  0  0
  162.3300  206.6400  152.0970 C   0  0  0  0  0  2  0  0  0  0  0  0
  160.8010  210.8750  154.1380 O   0  0  0  0  0  0  0  0  0  0  0  0
  160.9110  211.1250  156.5060 C   0  0  0  0  0  1  0  0  0  0  0  0
  161.5890  213.4830  148.7110 C   0  0  0  0  0  2  0  0  0  0  0  0
  159.1740  213.3410  153.9470 C   0  0  0  0  0  0  0  0  0  0  0  0
  158.7340  213.4300  151.5790 C   0  0  0  0  0  0  0  0  0  0  0  0
  160.1100  209.7790  152.1040 C   0  0  0  0  0  2  0  0  0  0  0  0
  160.5440  204.3680  150.2520 C   0  0  0  0  0  2  0  0  0  0  0  0
  161.4520  204.0080  151.4030 C   0  0  0  0  0  2  0  0  0  0  0  0
  161.9640  204.9120  150.2920 C   0  0  0  0  0  3  0  0  0  0  0  0
  160.9890  213.7000  146.2690 C   0  0  0  0  0  2  0  0  0  0  0  0
  160.2100  212.6090  145.5460 C   0  0  0  0  0  2  0  0  0  0  0  0
  159.9070  212.9920  144.0980 C   0  0  2  0  0  3  0  0  0  0  0  0
  158.6070  213.4890  143.9910 O   0  0  0  0  0  1  0  0  0  0  0  0
  160.0910  211.8080  143.1530 C   0  0  0  0  0  2  0  0  0  0  0  0
  162.4370  212.5210  142.5860 C   0  0  0  0  0  1  0  0  0  0  0  0
  161.0930  212.0820  142.0320 C   0  0  1  0  0  3  0  0  0  0  0  0
  161.2530  210.9590  141.2190 O   0  0  0  0  0  1  0  0  0  0  0  0
  1  8  1  0  0  0  0
  2  9  1  0  0  0  0
  3 23  1  0  0  0  0
  4 32  1  6  0  0  0
  4  6  1  0  0  0  0
  4 25  1  0  0  0  0
  5 13  1  0  0  0  0
  5 12  1  0  0  0  0
  6  2  1  0  0  0  0
  7 14  1  0  0  0  0
  8 24  1  1  0  0  0
  9 27  1  0  0  0  0
 12 22  1  0  0  0  0
 13 17  1  0  0  0  0
 14 10  2  0  0  0  0
 15 11  1  1  0  0  0
 15 25  1  0  0  0  0
 15 20  1  0  0  0  0
 16 20  1  0  0  0  0
 16 13  2  0  0  0  0
 17 28  1  6  0  0  0
 17 18  1  0  0  0  0
 19  5  2  0  0  0  0
 21 26  2  0  0  0  0
 22 18  1  0  0  0  0
 23  8  1  0  0  0  0
 26 10  1  0  0  0  0
 26  1  1  0  0  0  0
 27  7  2  0  0  0  0
 27 21  1  0  0  0  0
 28  3  1  0  0  0  0
 29 31  1  0  0  0  0
 29 30  1  0  0  0  0
 31 12  1  0  0  0  0
 31 30  1  0  0  0  0
 33 32  1  0  0  0  0
 34 35  1  1  0  0  0
 34 33  1  0  0  0  0
 36 34  1  0  0  0  0
 38 37  1  1  0  0  0
 38 36  1  0  0  0  0
 39 38  1  0  0  0  0
M  END
>  <MODEL>
1

>  <REMARK>
 VINA RESULT:      -6.3      0.000      0.000
  Name = 
  6 active torsions:
  status: ('A' for Active; 'I' for Inactive)
    1  A    between atoms: C_3  and  C_5
    2  A    between atoms: C_3  and  C_35
    3  A    between atoms: C_8  and  C_26
    4  A    between atoms: C_8  and  C_35
    5  A    between atoms: N_16  and  C_38
    6  A    between atoms: C_23  and  C_26
                            x       y       z     vdW  Elec       q    Type
                         _______ _______ _______ _____ _____    ______ ____

>  <TORSDO>
F 6

$$$$
=
 OpenBabel11042421213D

 39 42  0  0  1  0  0  0  0  0999 V2000
  158.3700  210.3740  155.4490 C   0  0  0  0  0  2  0  0  0  0  0  0
  162.4770  206.0410  153.7620 C   0  0  0  0  0  2  0  0  0  0  0  0
  160.6200  211.5720  153.3140 C   0  0  0  0  0  2  0  0  0  0  0  0
  161.5800  204.7370  151.8060 C   0  0  1  0  0  3  0  0  0  0  0  0
  162.4130  210.8670  148.7360 C   0  0  0  0  0  0  0  0  0  0  0  0
  162.7610  205.5340  152.3550 C   0  0  0  0  0  2  0  0  0  0  0  0
  161.5600  207.6110  156.0760 C   0  0  0  0  0  3  0  0  0  0  0  0
  158.8970  211.5960  154.7030 C   0  0  1  0  0  3  0  0  0  0  0  0
  161.4500  207.0190  153.7010 O   0  0  0  0  0  0  0  0  0  0  0  0
  160.0310  209.2550  156.9040 N   0  0  0  0  0  0  0  0  0  0  0  0
  159.7650  206.4240  149.1270 C   0  0  0  0  0  1  0  0  0  0  0  0
  162.2360  212.2720  148.5010 N   0  0  0  0  0  0  0  0  0  0  0  0
  161.6440  210.2080  149.8180 C   0  0  0  0  0  0  0  0  0  0  0  0
  161.0610  208.3900  157.1250 C   0  0  0  0  0  3  0  0  0  0  0  0
  160.7650  206.5890  150.2570 C   0  0  1  0  0  3  0  0  0  0  0  0
  161.5580  208.8700  149.7930 C   0  0  0  0  0  3  0  0  0  0  0  0
  160.8850  211.0620  150.8300 C   0  0  2  0  0  3  0  0  0  0  0  0
  161.0770  212.5760  150.6010 C   0  0  0  0  0  2  0  0  0  0  0  0
  163.2030  210.1980  148.0120 O   0  0  0  0  0  0  0  0  0  0  0  0
  160.7710  208.0320  150.7470 C   0  0  0  0  0  2  0  0  0  0  0  0
  159.9240  208.6090  154.6100 C   0  0  0  0  0  3  0  0  0  0  0  0
  161.0960  212.9310  149.1220 C   0  0  0  0  0  2  0  0  0  0  0  0
  159.2600  211.2530  153.3940 O   0  0  0  0  0  0  0  0  0  0  0  0
  157.8190  212.6610  154.6680 C   0  0  0  0  0  1  0  0  0  0  0  0
  160.4050  205.6360  151.3890 C   0  0  0  0  0  2  0  0  0  0  0  0
  159.4550  209.3760  155.6760 C   0  0  0  0  0  0  0  0  0  0  0  0
  160.9850  207.7330  154.8020 C   0  0  0  0  0  0  0  0  0  0  0  0
  161.3200  210.7180  152.2580 C   0  0  0  0  0  2  0  0  0  0  0  0
  162.5480  214.4150  147.3660 C   0  0  0  0  0  2  0  0  0  0  0  0
  162.2810  213.3670  146.3130 C   0  0  0  0  0  2  0  0  0  0  0  0
  163.0780  213.0030  147.5570 C   0  0  0  0  0  3  0  0  0  0  0  0
  162.0350  203.8540  150.6530 C   0  0  0  0  0  2  0  0  0  0  0  0
  160.8860  202.9710  150.1850 C   0  0  0  0  0  2  0  0  0  0  0  0
  160.8690  202.8190  148.6650 C   0  0  2  0  0  3  0  0  0  0  0  0
  161.0930  201.4880  148.3090 O   0  0  0  0  0  1  0  0  0  0  0  0
  161.9080  203.7170  147.9980 C   0  0  0  0  0  2  0  0  0  0  0  0
  162.1880  205.5770  146.3260 C   0  0  0  0  0  1  0  0  0  0  0  0
  161.4320  204.3060  146.6710 C   0  0  1  0  0  3  0  0  0  0  0  0
  161.5590  203.3770  145.6380 O   0  0  0  0  0  1  0  0  0  0  0  0
  1 26  1  0  0  0  0
  3 23  1  0  0  0  0
  4 32  1  6  0  0  0
  4  6  1  0  0  0  0
  5 13  1  0  0  0  0
  6  2  1  0  0  0  0
  7 14  1  0  0  0  0
  8 24  1  6  0  0  0
  8  1  1  0  0  0  0
  9  2  1  0  0  0  0
  9 27  1  0  0  0  0
 10 14  2  0  0  0  0
 12  5  1  0  0  0  0
 12 22  1  0  0  0  0
 13 17  1  0  0  0  0
 15 11  1  6  0  0  0
 15 20  1  0  0  0  0
 15 25  1  0  0  0  0
 16 13  2  0  0  0  0
 16 20  1  0  0  0  0
 17 18  1  6  0  0  0
 17 28  1  0  0  0  0
 19  5  2  0  0  0  0
 21 27  1  0  0  0  0
 21 26  2  0  0  0  0
 22 18  1  0  0  0  0
 23  8  1  0  0  0  0
 25  4  1  0  0  0  0
 26 10  1  0  0  0  0
 27  7  2  0  0  0  0
 28  3  1  0  0  0  0
 29 31  1  0  0  0  0
 30 29  1  0  0  0  0
 30 31  1  0  0  0  0
 31 12  1  0  0  0  0
 33 32  1  0  0  0  0
 34 35  1  1  0  0  0
 34 33  1  0  0  0  0
 36 34  1  0  0  0  0
 38 37  1  6  0  0  0
 38 36  1  0  0  0  0
 39 38  1  0  0  0  0
M  END
>  <MODEL>
2

>  <REMARK>
 VINA RESULT:      -4.3      3.002      7.326
  Name = 
  6 active torsions:
  status: ('A' for Active; 'I' for Inactive)
    1  A    between atoms: C_3  and  C_5
    2  A    between atoms: C_3  and  C_35
    3  A    between atoms: C_8  and  C_26
    4  A    between atoms: C_8  and  C_35
    5  A    between atoms: N_16  and  C_38
    6  A    between atoms: C_23  and  C_26
                            x       y       z     vdW  Elec       q    Type
                         _______ _______ _______ _____ _____    ______ ____

>  <TORSDO>
F 6

$$$$
