=
 OpenBabel11042420373D

 62 68  0  0  1  0  0  0  0  0999 V2000
  162.6900  207.3200  151.2930 C   0  0  1  0  0  3  0  0  0  0  0  0
  162.6650  208.1840  148.8250 C   0  0  2  0  0  3  0  0  0  0  0  0
  161.1280  210.0980  149.5070 N   0  0  0  0  0  2  0  0  0  0  0  0
  163.4220  206.7670  149.7100 S   0  0  0  0  0  0  0  0  0  0  0  0
  161.7710  208.4120  151.0120 N   0  0  0  0  0  0  0  0  0  0  0  0
  161.7710  208.8660  149.8050 C   0  0  0  0  0  0  0  0  0  0  0  0
  161.9050  211.3250  149.6370 C   0  0  0  0  0  2  0  0  0  0  0  0
  160.0920  213.2390  145.8970 N   0  0  0  0  0  0  0  0  0  0  0  0
  161.2220  212.5510  146.3190 N   0  0  0  0  0  0  0  0  0  0  0  0
  161.2870  212.5820  147.6030 C   0  0  0  0  0  0  0  0  0  0  0  0
  159.3930  213.8470  147.0160 C   0  0  0  0  0  3  0  0  0  0  0  0
  162.2560  211.8180  148.3250 N   0  0  0  0  0  2  0  0  0  0  0  0
  160.1230  213.2830  148.2390 C   0  0  0  0  0  3  0  0  0  0  0  0
  159.6850  213.3010  144.5100 C   0  0  0  0  0  2  0  0  0  0  0  0
  160.8650  213.2640  143.5470 C   0  0  1  0  0  3  0  0  0  0  0  0
  162.1090  213.0390  144.1680 O   0  0  0  0  0  1  0  0  0  0  0  0
  161.8500  211.8960  141.7840 O   0  0  0  0  0  0  0  0  0  0  0  0
  160.6450  212.2820  142.4030 C   0  0  2  0  0  3  0  0  0  0  0  0
  160.0810  212.0320  140.1640 C   0  0  1  0  0  3  0  0  0  0  0  0
  161.5550  211.6590  140.4150 C   0  0  1  0  0  3  0  0  0  0  0  0
  159.7200  212.8600  141.3570 C   0  0  0  0  0  2  0  0  0  0  0  0
  163.0280  211.6020  138.3560 C   0  0  0  0  0  1  0  0  0  0  0  0
  162.5670  212.4370  139.5490 C   0  0  0  0  0  2  0  0  0  0  0  0
  159.7560  212.7310  138.8430 C   0  0  0  0  0  2  0  0  0  0  0  0
  157.6520  212.2890  139.3650 C   0  0  0  0  0  1  0  0  0  0  0  0
  158.5640  212.2590  138.3130 O   0  0  0  0  0  0  0  0  0  0  0  0
  162.0380  206.1660  152.0810 C   0  0  1  0  0  3  0  0  0  0  0  0
  161.0990  208.1040  153.3900 N   0  0  0  0  0  2  0  0  0  0  0  0
  160.9270  205.9180  154.1980 O   0  0  0  0  0  0  0  0  0  0  0  0
  161.3050  206.6890  153.2750 C   0  0  0  0  0  0  0  0  0  0  0  0
  160.4640  208.7700  154.5020 C   0  0  0  0  0  2  0  0  0  0  0  0
  161.4310  209.0760  155.6290 C   0  0  0  0  0  2  0  0  0  0  0  0
  161.0200  210.4080  156.2110 C   0  0  0  0  0  2  0  0  0  0  0  0
  161.1790  211.5740  155.2390 C   0  0  0  0  0  2  0  0  0  0  0  0
  159.3100  213.6570  152.5100 C   0  0  0  0  0  2  0  0  0  0  0  0
  157.3410  212.3360  154.3590 C   0  0  2  0  0  3  0  0  0  0  0  0
  159.4110  212.6380  156.6220 C   0  0  0  0  0  3  0  0  0  0  0  0
  158.1420  214.4520  153.1990 C   0  0  0  0  0  2  0  0  0  0  0  0
  157.1110  210.1130  155.4760 O   0  0  0  0  0  1  0  0  0  0  0  0
  158.8850  212.2550  151.9940 C   0  0  0  0  0  2  0  0  0  0  0  0
  158.7110  211.6180  154.4950 C   0  0  2  0  0  0  0  0  0  0  0  0
  158.0870  211.9430  156.8610 C   0  0  0  0  0  3  0  0  0  0  0  0
  157.5730  213.8420  154.4980 C   0  0  0  0  0  2  0  0  0  0  0  0
  158.9680  211.1220  153.0600 C   0  0  0  0  0  2  0  0  0  0  0  0
  157.6300  211.4060  155.5170 C   0  0  1  0  0  0  0  0  0  0  0  0
  159.8620  212.3460  155.2090 C   0  0  2  0  0  3  0  0  0  0  0  0
  161.0990  205.3040  151.2140 C   0  0  0  0  0  2  0  0  0  0  0  0
  161.6540  203.8910  151.0010 C   0  0  0  0  0  2  0  0  0  0  0  0
  160.6460  202.8930  151.3340 N   0  0  0  0  0  2  0  0  0  0  0  0
  161.1810  201.5900  150.9950 C   0  0  0  0  0  1  0  0  0  0  0  0
  161.8640  207.7030  147.6190 C   0  0  0  0  0  2  0  0  0  0  0  0
  161.7060  206.2450  147.6070 N   0  0  0  0  0  2  0  0  0  0  0  0
  161.3280  206.0530  145.3090 O   0  0  0  0  0  0  0  0  0  0  0  0
  161.4220  205.4760  146.4270 C   0  0  0  0  0  0  0  0  0  0  0  0
  159.9440  201.0760  144.4330 C   0  0  0  0  0  1  0  0  0  0  0  0
  160.9050  201.2360  146.7240 C   0  0  0  0  0  3  0  0  0  0  0  0
  161.5150  201.9490  147.7520 C   0  0  0  0  0  3  0  0  0  0  0  0
  161.2300  204.0060  146.4940 C   0  0  0  0  0  0  0  0  0  0  0  0
  160.5060  201.8840  145.5490 C   0  0  0  0  0  0  0  0  0  0  0  0
  160.6760  203.2700  145.4220 C   0  0  0  0  0  0  0  0  0  0  0  0
  160.3800  203.8840  144.2430 F   0  0  0  0  0  0  0  0  0  0  0  0
  161.6900  203.3240  147.6300 C   0  0  0  0  0  3  0  0  0  0  0  0
  1 27  1  6  0  0  0
  2 51  1  6  0  0  0
  2  4  1  0  0  0  0
  2  6  1  0  0  0  0
  3  7  1  0  0  0  0
  3  6  1  0  0  0  0
  4  1  1  0  0  0  0
  5  1  1  0  0  0  0
  6  5  2  0  0  0  0
  8  9  1  0  0  0  0
  8 11  1  0  0  0  0
  9 10  2  0  0  0  0
 10 13  1  0  0  0  0
 10 12  1  0  0  0  0
 11 13  2  0  0  0  0
 12  7  1  0  0  0  0
 14  8  1  0  0  0  0
 15 16  1  1  0  0  0
 15 14  1  0  0  0  0
 17 18  1  0  0  0  0
 18 15  1  1  0  0  0
 19 24  1  6  0  0  0
 19 20  1  0  0  0  0
 19 21  1  0  0  0  0
 20 23  1  6  0  0  0
 20 17  1  0  0  0  0
 21 18  1  0  0  0  0
 22 23  1  0  0  0  0
 26 24  1  0  0  0  0
 26 25  1  0  0  0  0
 27 47  1  6  0  0  0
 27 30  1  0  0  0  0
 28 31  1  0  0  0  0
 30 28  1  0  0  0  0
 30 29  2  0  0  0  0
 31 32  1  0  0  0  0
 32 33  1  0  0  0  0
 34 33  1  0  0  0  0
 35 38  1  0  0  0  0
 36 41  1  0  0  0  0
 36 43  1  1  0  0  0
 36 45  1  0  0  0  0
 37 42  2  0  0  0  0
 38 43  1  0  0  0  0
 40 35  1  0  0  0  0
 40 44  1  0  0  0  0
 41 44  1  6  0  0  0
 41 46  1  0  0  0  0
 41 45  1  0  0  0  0
 45 39  1  6  0  0  0
 45 42  1  0  0  0  0
 46 34  1  1  0  0  0
 46 37  1  0  0  0  0
 48 47  1  0  0  0  0
 48 49  1  0  0  0  0
 50 49  1  0  0  0  0
 52 51  1  0  0  0  0
 53 54  2  0  0  0  0
 54 58  1  0  0  0  0
 54 52  1  0  0  0  0
 55 59  1  0  0  0  0
 56 57  1  0  0  0  0
 58 62  1  0  0  0  0
 59 56  2  0  0  0  0
 60 59  1  0  0  0  0
 60 58  2  0  0  0  0
 61 60  1  0  0  0  0
 62 57  2  0  0  0  0
M  END
>  <MODEL>
1

>  <REMARK>
 VINA RESULT:      -5.6      0.000      0.000
  Name = 
  21 active torsions:
  status: ('A' for Active; 'I' for Inactive)
    1  A    between atoms: N_1  and  C_54
    2  A    between atoms: C_3  and  C_60
    3  A    between atoms: C_3  and  C_62
    4  A    between atoms: C_5  and  C_18
    5  A    between atoms: C_5  and  C_20
    6  A    between atoms: C_6  and  C_44
    7  A    between atoms: C_6  and  C_60
    8  A    between atoms: C_7  and  C_47
    9  A    between atoms: C_8  and  C_54
   10  A    between atoms: N_11  and  C_20
   11  A    between atoms: C_14  and  C_38
   12  A    between atoms: N_15  and  C_44
   13  A    between atoms: C_19  and  N_24
   14  A    between atoms: C_19  and  N_55
   15  A    between atoms: N_21  and  C_46
   16  A    between atoms: O_26  and  C_31
   17  A    between atoms: C_30  and  C_53
   18  A    between atoms: C_31  and  C_36
   19  A    between atoms: C_39  and  C_46
   20  A    between atoms: C_39  and  C_47
   21  A    between atoms: C_47  and  C_49
                            x       y       z     vdW  Elec       q    Type
                         _______ _______ _______ _____ _____    ______ ____

>  <TORSDO>
F 21

$$$$
=
 OpenBabel11042420373D

 62 68  0  0  1  0  0  0  0  0999 V2000
  162.5240  207.3140  151.2180 C   0  0  1  0  0  3  0  0  0  0  0  0
  162.6600  208.1950  148.7600 C   0  0  2  0  0  3  0  0  0  0  0  0
  161.1770  210.1710  149.3820 N   0  0  0  0  0  2  0  0  0  0  0  0
  163.3080  206.7400  149.6690 S   0  0  0  0  0  0  0  0  0  0  0  0
  161.6690  208.4490  150.9020 N   0  0  0  0  0  0  0  0  0  0  0  0
  161.7500  208.9100  149.7010 C   0  0  0  0  0  0  0  0  0  0  0  0
  162.0010  211.3620  149.5610 C   0  0  0  0  0  2  0  0  0  0  0  0
  162.9330  213.3620  145.5520 N   0  0  0  0  0  0  0  0  0  0  0  0
  163.3030  212.2710  146.3280 N   0  0  0  0  0  0  0  0  0  0  0  0
  162.9050  212.4510  147.5370 C   0  0  0  0  0  0  0  0  0  0  0  0
  162.2980  214.3920  146.3560 C   0  0  0  0  0  3  0  0  0  0  0  0
  163.0030  211.4190  148.5210 N   0  0  0  0  0  2  0  0  0  0  0  0
  162.1320  213.7220  147.7240 C   0  0  0  0  0  3  0  0  0  0  0  0
  163.1510  213.4170  144.1230 C   0  0  0  0  0  2  0  0  0  0  0  0
  161.9610  212.9000  143.3240 C   0  0  1  0  0  3  0  0  0  0  0  0
  160.7160  213.1060  143.9470 O   0  0  0  0  0  1  0  0  0  0  0  0
  160.6720  213.8700  141.4960 O   0  0  0  0  0  0  0  0  0  0  0  0
  161.9500  213.4330  141.8980 C   0  0  2  0  0  3  0  0  0  0  0  0
  161.8450  212.8920  139.6410 C   0  0  1  0  0  3  0  0  0  0  0  0
  160.5710  213.6270  140.1000 C   0  0  1  0  0  3  0  0  0  0  0  0
  162.4410  212.3910  140.9200 C   0  0  0  0  0  2  0  0  0  0  0  0
  159.0850  212.5940  138.3300 C   0  0  0  0  0  1  0  0  0  0  0  0
  159.2590  212.8660  139.8230 C   0  0  0  0  0  2  0  0  0  0  0  0
  161.6720  211.7850  138.6010 C   0  0  0  0  0  2  0  0  0  0  0  0
  161.8420  209.6030  138.9290 C   0  0  0  0  0  1  0  0  0  0  0  0
  162.5940  210.7680  138.8010 O   0  0  0  0  0  0  0  0  0  0  0  0
  161.7840  206.1860  151.9640 C   0  0  1  0  0  3  0  0  0  0  0  0
  161.6210  207.9970  153.7090 N   0  0  0  0  0  2  0  0  0  0  0  0
  160.8050  205.8500  154.1340 O   0  0  0  0  0  0  0  0  0  0  0  0
  161.3470  206.6450  153.3190 C   0  0  0  0  0  0  0  0  0  0  0  0
  161.3180  208.5760  154.9950 C   0  0  0  0  0  2  0  0  0  0  0  0
  161.1120  210.0770  154.9260 C   0  0  0  0  0  2  0  0  0  0  0  0
  160.9830  210.5680  156.3480 C   0  0  0  0  0  2  0  0  0  0  0  0
  159.5690  211.0090  156.7160 C   0  0  0  0  0  2  0  0  0  0  0  0
  159.2250  212.0100  152.9530 C   0  0  0  0  0  2  0  0  0  0  0  0
  157.4530  213.7310  154.6660 C   0  0  2  0  0  3  0  0  0  0  0  0
  159.5480  213.4860  156.9120 C   0  0  0  0  0  3  0  0  0  0  0  0
  159.2240  213.5780  152.8500 C   0  0  0  0  0  2  0  0  0  0  0  0
  155.9570  213.3960  156.6400 O   0  0  0  0  0  1  0  0  0  0  0  0
  157.8060  211.3980  153.1120 C   0  0  0  0  0  2  0  0  0  0  0  0
  157.8400  212.4600  155.4700 C   0  0  2  0  0  0  0  0  0  0  0  0
  158.2530  214.2390  157.1300 C   0  0  0  0  0  3  0  0  0  0  0  0
  158.7320  214.3450  154.0950 C   0  0  0  0  0  2  0  0  0  0  0  0
  157.2930  211.3280  154.5810 C   0  0  0  0  0  2  0  0  0  0  0  0
  157.2420  213.6520  156.1620 C   0  0  1  0  0  0  0  0  0  0  0  0
  159.2800  212.3200  155.9880 C   0  0  2  0  0  3  0  0  0  0  0  0
  160.5790  205.6360  151.1730 C   0  0  0  0  0  2  0  0  0  0  0  0
  160.3800  204.1350  151.4060 C   0  0  0  0  0  2  0  0  0  0  0  0
  161.6380  203.5070  151.7870 N   0  0  0  0  0  2  0  0  0  0  0  0
  161.5160  202.0840  151.5460 C   0  0  0  0  0  1  0  0  0  0  0  0
  161.8990  207.7580  147.5120 C   0  0  0  0  0  2  0  0  0  0  0  0
  161.6880  206.3070  147.4730 N   0  0  0  0  0  2  0  0  0  0  0  0
  161.3680  206.1620  145.1630 O   0  0  0  0  0  0  0  0  0  0  0  0
  161.4090  205.5660  146.2750 C   0  0  0  0  0  0  0  0  0  0  0  0
  161.1520  201.1510  148.7150 C   0  0  0  0  0  1  0  0  0  0  0  0
  160.6780  201.3470  146.2790 C   0  0  0  0  0  3  0  0  0  0  0  0
  160.4890  202.0970  145.1220 C   0  0  0  0  0  3  0  0  0  0  0  0
  161.1610  204.1030  146.3140 C   0  0  0  0  0  0  0  0  0  0  0  0
  161.0510  201.9690  147.4760 C   0  0  0  0  0  0  0  0  0  0  0  0
  161.2840  203.3510  147.5040 C   0  0  0  0  0  0  0  0  0  0  0  0
  161.5490  203.9710  148.6880 F   0  0  0  0  0  0  0  0  0  0  0  0
  160.7140  203.4700  145.1450 C   0  0  0  0  0  3  0  0  0  0  0  0
  1 27  1  6  0  0  0
  2 51  1  6  0  0  0
  2  4  1  0  0  0  0
  2  6  1  0  0  0  0
  3  7  1  0  0  0  0
  3  6  1  0  0  0  0
  4  1  1  0  0  0  0
  5  1  1  0  0  0  0
  6  5  2  0  0  0  0
  8  9  1  0  0  0  0
  8 11  1  0  0  0  0
  9 10  2  0  0  0  0
 10 13  1  0  0  0  0
 10 12  1  0  0  0  0
 11 13  2  0  0  0  0
 12  7  1  0  0  0  0
 14  8  1  0  0  0  0
 15 16  1  1  0  0  0
 15 14  1  0  0  0  0
 17 18  1  0  0  0  0
 18 15  1  1  0  0  0
 19 24  1  6  0  0  0
 19 20  1  0  0  0  0
 19 21  1  0  0  0  0
 20 23  1  1  0  0  0
 20 17  1  0  0  0  0
 21 18  1  0  0  0  0
 22 23  1  0  0  0  0
 24 26  1  0  0  0  0
 26 25  1  0  0  0  0
 27 47  1  6  0  0  0
 27 30  1  0  0  0  0
 28 31  1  0  0  0  0
 30 28  1  0  0  0  0
 30 29  2  0  0  0  0
 32 31  1  0  0  0  0
 32 33  1  0  0  0  0
 33 34  1  0  0  0  0
 35 40  1  0  0  0  0
 36 43  1  1  0  0  0
 36 41  1  0  0  0  0
 36 45  1  0  0  0  0
 37 42  2  0  0  0  0
 38 35  1  0  0  0  0
 38 43  1  0  0  0  0
 40 44  1  0  0  0  0
 41 44  1  6  0  0  0
 41 46  1  0  0  0  0
 41 45  1  0  0  0  0
 45 39  1  1  0  0  0
 45 42  1  0  0  0  0
 46 34  1  1  0  0  0
 46 37  1  0  0  0  0
 47 48  1  0  0  0  0
 48 49  1  0  0  0  0
 50 49  1  0  0  0  0
 52 51  1  0  0  0  0
 53 54  2  0  0  0  0
 54 58  1  0  0  0  0
 54 52  1  0  0  0  0
 56 59  1  0  0  0  0
 57 62  1  0  0  0  0
 57 56  2  0  0  0  0
 58 60  1  0  0  0  0
 59 60  2  0  0  0  0
 59 55  1  0  0  0  0
 60 61  1  0  0  0  0
 62 58  2  0  0  0  0
M  END
>  <MODEL>
2

>  <REMARK>
 VINA RESULT:      -5.6      1.467      2.089
  Name = 
  21 active torsions:
  status: ('A' for Active; 'I' for Inactive)
    1  A    between atoms: N_1  and  C_54
    2  A    between atoms: C_3  and  C_60
    3  A    between atoms: C_3  and  C_62
    4  A    between atoms: C_5  and  C_18
    5  A    between atoms: C_5  and  C_20
    6  A    between atoms: C_6  and  C_44
    7  A    between atoms: C_6  and  C_60
    8  A    between atoms: C_7  and  C_47
    9  A    between atoms: C_8  and  C_54
   10  A    between atoms: N_11  and  C_20
   11  A    between atoms: C_14  and  C_38
   12  A    between atoms: N_15  and  C_44
   13  A    between atoms: C_19  and  N_24
   14  A    between atoms: C_19  and  N_55
   15  A    between atoms: N_21  and  C_46
   16  A    between atoms: O_26  and  C_31
   17  A    between atoms: C_30  and  C_53
   18  A    between atoms: C_31  and  C_36
   19  A    between atoms: C_39  and  C_46
   20  A    between atoms: C_39  and  C_47
   21  A    between atoms: C_47  and  C_49
                            x       y       z     vdW  Elec       q    Type
                         _______ _______ _______ _____ _____    ______ ____

>  <TORSDO>
F 21

$$$$
=
 OpenBabel11042420373D

 62 68  0  0  1  0  0  0  0  0999 V2000
  161.9160  211.9650  148.7870 C   0  0  1  0  0  3  0  0  0  0  0  0
  161.4760  210.5070  150.9130 C   0  0  2  0  0  3  0  0  0  0  0  0
  161.5990  208.3950  149.4940 N   0  0  0  0  0  2  0  0  0  0  0  0
  161.5980  212.3020  150.5560 S   0  0  0  0  0  0  0  0  0  0  0  0
  161.7130  210.5430  148.5510 N   0  0  0  0  0  0  0  0  0  0  0  0
  161.5240  209.8110  149.5940 C   0  0  0  0  0  0  0  0  0  0  0  0
  162.9030  207.7640  149.6710 C   0  0  0  0  0  2  0  0  0  0  0  0
  161.4200  205.1010  146.2580 N   0  0  0  0  0  0  0  0  0  0  0  0
  162.5950  205.5670  146.8330 N   0  0  0  0  0  0  0  0  0  0  0  0
  162.3330  206.5810  147.5790 C   0  0  0  0  0  0  0  0  0  0  0  0
  160.2900  205.9460  146.6030 C   0  0  0  0  0  3  0  0  0  0  0  0
  163.3260  207.1670  148.4260 N   0  0  0  0  0  2  0  0  0  0  0  0
  160.8720  206.9060  147.6460 C   0  0  0  0  0  3  0  0  0  0  0  0
  161.3670  203.9070  145.4420 C   0  0  0  0  0  2  0  0  0  0  0  0
  160.6690  202.7460  146.1390 C   0  0  1  0  0  3  0  0  0  0  0  0
  160.4320  201.6340  145.3090 O   0  0  0  0  0  1  0  0  0  0  0  0
  160.9270  201.0910  147.9110 O   0  0  0  0  0  0  0  0  0  0  0  0
  161.3860  202.3280  147.4160 C   0  0  2  0  0  3  0  0  0  0  0  0
  161.4990  202.5600  149.7240 C   0  0  1  0  0  3  0  0  0  0  0  0
  161.0360  201.1450  149.3270 C   0  0  1  0  0  3  0  0  0  0  0  0
  161.2360  203.3740  148.4960 C   0  0  0  0  0  2  0  0  0  0  0  0
  158.5240  201.0700  149.0250 C   0  0  0  0  0  1  0  0  0  0  0  0
  159.6900  200.7160  149.9450 C   0  0  0  0  0  2  0  0  0  0  0  0
  160.8710  203.1690  150.9780 C   0  0  0  0  0  2  0  0  0  0  0  0
  161.1900  204.8210  152.4170 C   0  0  0  0  0  1  0  0  0  0  0  0
  161.1380  204.5290  151.0560 O   0  0  0  0  0  0  0  0  0  0  0  0
  161.0810  212.8610  147.8500 C   0  0  1  0  0  3  0  0  0  0  0  0
  161.1870  213.4670  145.4070 N   0  0  0  0  0  2  0  0  0  0  0  0
  163.1320  213.3400  146.6940 O   0  0  0  0  0  0  0  0  0  0  0  0
  161.8750  213.2550  146.6470 C   0  0  0  0  0  0  0  0  0  0  0  0
  161.8100  213.7930  144.1470 C   0  0  0  0  0  2  0  0  0  0  0  0
  162.3310  212.5700  143.4180 C   0  0  0  0  0  2  0  0  0  0  0  0
  161.8020  212.6430  142.0050 C   0  0  0  0  0  2  0  0  0  0  0  0
  160.8030  211.5380  141.6690 C   0  0  0  0  0  2  0  0  0  0  0  0
  158.8800  209.7110  138.7980 C   0  0  0  0  0  2  0  0  0  0  0  0
  161.2410  211.2100  137.6950 C   0  0  2  0  0  3  0  0  0  0  0  0
  162.7110  210.6520  140.3460 C   0  0  0  0  0  3  0  0  0  0  0  0
  159.9300  209.0370  137.8410 C   0  0  0  0  0  2  0  0  0  0  0  0
  162.3240  213.4280  138.0820 O   0  0  0  0  0  1  0  0  0  0  0  0
  158.5010  211.1580  138.3810 C   0  0  0  0  0  2  0  0  0  0  0  0
  160.9070  211.7730  139.1030 C   0  0  2  0  0  0  0  0  0  0  0  0
  163.3540  211.4830  139.2550 C   0  0  0  0  0  3  0  0  0  0  0  0
  161.3290  209.6860  137.7970 C   0  0  0  0  0  2  0  0  0  0  0  0
  159.4570  212.2590  138.9290 C   0  0  0  0  0  2  0  0  0  0  0  0
  162.2210  212.0860  138.4450 C   0  0  1  0  0  0  0  0  0  0  0  0
  161.2220  210.9150  140.3390 C   0  0  2  0  0  3  0  0  0  0  0  0
  159.7530  212.2040  147.4220 C   0  0  0  0  0  2  0  0  0  0  0  0
  158.5400  213.0470  147.8290 C   0  0  0  0  0  2  0  0  0  0  0  0
  157.3970  212.7360  146.9800 N   0  0  0  0  0  2  0  0  0  0  0  0
  157.7050  213.1830  145.6370 C   0  0  0  0  0  1  0  0  0  0  0  0
  160.1710  210.1880  151.6370 C   0  0  0  0  0  2  0  0  0  0  0  0
  159.7630  211.2680  152.5410 N   0  0  0  0  0  2  0  0  0  0  0  0
  159.8630  210.0030  154.5030 O   0  0  0  0  0  0  0  0  0  0  0  0
  159.6080  211.1130  153.9610 C   0  0  0  0  0  0  0  0  0  0  0  0
  156.0220  214.2300  155.6760 C   0  0  0  0  0  1  0  0  0  0  0  0
  158.3830  214.3730  156.4510 C   0  0  0  0  0  3  0  0  0  0  0  0
  159.6900  213.8970  156.5000 C   0  0  0  0  0  3  0  0  0  0  0  0
  159.1470  212.2380  154.8120 C   0  0  0  0  0  0  0  0  0  0  0  0
  157.4310  213.7550  155.6320 C   0  0  0  0  0  0  0  0  0  0  0  0
  157.8050  212.6770  154.8170 C   0  0  0  0  0  0  0  0  0  0  0  0
  156.8580  212.0130  154.0950 F   0  0  0  0  0  0  0  0  0  0  0  0
  160.0650  212.8250  155.6970 C   0  0  0  0  0  3  0  0  0  0  0  0
  1 27  1  6  0  0  0
  1  4  1  0  0  0  0
  2 51  1  6  0  0  0
  3  6  1  0  0  0  0
  3  7  1  0  0  0  0
  4  2  1  0  0  0  0
  5  1  1  0  0  0  0
  5  6  2  0  0  0  0
  6  2  1  0  0  0  0
  8 11  1  0  0  0  0
  8  9  1  0  0  0  0
  9 10  2  0  0  0  0
 10 13  1  0  0  0  0
 10 12  1  0  0  0  0
 11 13  2  0  0  0  0
 12  7  1  0  0  0  0
 14 15  1  0  0  0  0
 14  8  1  0  0  0  0
 15 16  1  6  0  0  0
 17 20  1  0  0  0  0
 18 15  1  6  0  0  0
 18 17  1  0  0  0  0
 18 21  1  0  0  0  0
 19 24  1  1  0  0  0
 20 19  1  0  0  0  0
 20 23  1  1  0  0  0
 21 19  1  0  0  0  0
 22 23  1  0  0  0  0
 24 26  1  0  0  0  0
 26 25  1  0  0  0  0
 27 47  1  6  0  0  0
 28 30  1  0  0  0  0
 30 29  2  0  0  0  0
 30 27  1  0  0  0  0
 31 28  1  0  0  0  0
 32 31  1  0  0  0  0
 33 32  1  0  0  0  0
 34 33  1  0  0  0  0
 36 43  1  1  0  0  0
 36 45  1  0  0  0  0
 36 41  1  0  0  0  0
 38 35  1  0  0  0  0
 40 35  1  0  0  0  0
 40 44  1  0  0  0  0
 41 44  1  1  0  0  0
 41 46  1  0  0  0  0
 42 37  2  0  0  0  0
 43 38  1  0  0  0  0
 45 39  1  6  0  0  0
 45 41  1  0  0  0  0
 45 42  1  0  0  0  0
 46 37  1  0  0  0  0
 46 34  1  1  0  0  0
 47 48  1  0  0  0  0
 49 48  1  0  0  0  0
 50 49  1  0  0  0  0
 51 52  1  0  0  0  0
 52 54  1  0  0  0  0
 54 53  2  0  0  0  0
 54 58  1  0  0  0  0
 56 57  1  0  0  0  0
 58 60  2  0  0  0  0
 58 62  1  0  0  0  0
 59 55  1  0  0  0  0
 59 56  2  0  0  0  0
 60 59  1  0  0  0  0
 61 60  1  0  0  0  0
 62 57  2  0  0  0  0
M  END
>  <MODEL>
3

>  <REMARK>
 VINA RESULT:      -4.9      2.721     12.344
  Name = 
  21 active torsions:
  status: ('A' for Active; 'I' for Inactive)
    1  A    between atoms: N_1  and  C_54
    2  A    between atoms: C_3  and  C_60
    3  A    between atoms: C_3  and  C_62
    4  A    between atoms: C_5  and  C_18
    5  A    between atoms: C_5  and  C_20
    6  A    between atoms: C_6  and  C_44
    7  A    between atoms: C_6  and  C_60
    8  A    between atoms: C_7  and  C_47
    9  A    between atoms: C_8  and  C_54
   10  A    between atoms: N_11  and  C_20
   11  A    between atoms: C_14  and  C_38
   12  A    between atoms: N_15  and  C_44
   13  A    between atoms: C_19  and  N_24
   14  A    between atoms: C_19  and  N_55
   15  A    between atoms: N_21  and  C_46
   16  A    between atoms: O_26  and  C_31
   17  A    between atoms: C_30  and  C_53
   18  A    between atoms: C_31  and  C_36
   19  A    between atoms: C_39  and  C_46
   20  A    between atoms: C_39  and  C_47
   21  A    between atoms: C_47  and  C_49
                            x       y       z     vdW  Elec       q    Type
                         _______ _______ _______ _____ _____    ______ ____

>  <TORSDO>
F 21

$$$$
=
 OpenBabel11042420373D

 62 68  0  0  1  0  0  0  0  0999 V2000
  160.3540  209.9450  151.9230 C   0  0  1  0  0  3  0  0  0  0  0  0
  159.5530  212.3230  151.1860 C   0  0  2  0  0  3  0  0  0  0  0  0
  161.4560  212.4430  149.4950 N   0  0  0  0  0  2  0  0  0  0  0  0
  159.0180  211.0870  152.4310 S   0  0  0  0  0  0  0  0  0  0  0  0
  161.2260  210.6490  150.9950 N   0  0  0  0  0  0  0  0  0  0  0  0
  160.8270  211.8100  150.6020 C   0  0  0  0  0  0  0  0  0  0  0  0
  160.9400  212.1580  148.1610 C   0  0  0  0  0  2  0  0  0  0  0  0
  161.0350  213.1460  143.6930 N   0  0  0  0  0  0  0  0  0  0  0  0
  161.7720  213.3280  144.8570 N   0  0  0  0  0  0  0  0  0  0  0  0
  161.0250  213.0950  145.8770 C   0  0  0  0  0  0  0  0  0  0  0  0
  159.6470  212.8400  143.9880 C   0  0  0  0  0  3  0  0  0  0  0  0
  161.5580  213.0460  147.2030 N   0  0  0  0  0  2  0  0  0  0  0  0
  159.6410  212.6520  145.5090 C   0  0  0  0  0  3  0  0  0  0  0  0
  161.6210  213.2380  142.3730 C   0  0  0  0  0  2  0  0  0  0  0  0
  160.5760  213.3740  141.2730 C   0  0  1  0  0  3  0  0  0  0  0  0
  161.0140  214.0990  140.1490 O   0  0  0  0  0  1  0  0  0  0  0  0
  160.9140  211.2530  140.1170 O   0  0  0  0  0  0  0  0  0  0  0  0
  159.9990  212.0270  140.8580 C   0  0  2  0  0  3  0  0  0  0  0  0
  158.6750  210.8900  139.3250 C   0  0  1  0  0  3  0  0  0  0  0  0
  160.1540  210.4780  139.2010 C   0  0  1  0  0  3  0  0  0  0  0  0
  158.7340  212.1990  140.0490 C   0  0  0  0  0  2  0  0  0  0  0  0
  161.7480  209.5430  137.4700 C   0  0  0  0  0  1  0  0  0  0  0  0
  160.7500  210.6540  137.7890 C   0  0  0  0  0  2  0  0  0  0  0  0
  157.8650  210.9700  138.0310 C   0  0  0  0  0  2  0  0  0  0  0  0
  156.1840  209.8190  138.8960 C   0  0  0  0  0  1  0  0  0  0  0  0
  156.5050  211.0360  138.3000 O   0  0  0  0  0  0  0  0  0  0  0  0
  161.1090  209.3400  153.1240 C   0  0  1  0  0  3  0  0  0  0  0  0
  160.9750  206.8520  153.4960 N   0  0  0  0  0  2  0  0  0  0  0  0
  162.5320  207.7570  152.0090 O   0  0  0  0  0  0  0  0  0  0  0  0
  161.5800  207.9560  152.8110 C   0  0  0  0  0  0  0  0  0  0  0  0
  161.3530  205.4670  153.3510 C   0  0  0  0  0  2  0  0  0  0  0  0
  160.7100  204.8100  152.1440 C   0  0  0  0  0  2  0  0  0  0  0  0
  161.6470  205.0220  150.9790 C   0  0  0  0  0  2  0  0  0  0  0  0
  161.2480  204.2450  149.7260 C   0  0  0  0  0  2  0  0  0  0  0  0
  162.9830  203.1960  146.3840 C   0  0  0  0  0  2  0  0  0  0  0  0
  161.3060  205.6570  145.9720 C   0  0  2  0  0  3  0  0  0  0  0  0
  161.9570  206.4680  148.8720 C   0  0  0  0  0  3  0  0  0  0  0  0
  163.5450  204.4870  145.6840 C   0  0  0  0  0  2  0  0  0  0  0  0
  159.0670  206.4740  146.7220 O   0  0  0  0  0  1  0  0  0  0  0  0
  161.5320  202.8410  145.9580 C   0  0  0  0  0  2  0  0  0  0  0  0
  160.8490  204.9560  147.2800 C   0  0  2  0  0  0  0  0  0  0  0  0
  161.0300  207.3050  148.0160 C   0  0  0  0  0  3  0  0  0  0  0  0
  162.8270  205.8120  146.0180 C   0  0  0  0  0  2  0  0  0  0  0  0
  160.4230  203.5640  146.7770 C   0  0  0  0  0  2  0  0  0  0  0  0
  160.4330  206.3680  146.9820 C   0  0  1  0  0  0  0  0  0  0  0  0
  161.7670  205.0130  148.5120 C   0  0  2  0  0  3  0  0  0  0  0  0
  162.2910  210.2140  153.5890 C   0  0  0  0  0  2  0  0  0  0  0  0
  162.1600  210.6190  155.0620 C   0  0  0  0  0  2  0  0  0  0  0  0
  161.7370  209.4800  155.8660 N   0  0  0  0  0  2  0  0  0  0  0  0
  161.9320  209.8230  157.2600 C   0  0  0  0  0  1  0  0  0  0  0  0
  159.7760  213.6840  151.8370 C   0  0  0  0  0  2  0  0  0  0  0  0
  159.1160  213.7870  153.1420 N   0  0  0  0  0  2  0  0  0  0  0  0
  156.9460  214.0270  152.3090 O   0  0  0  0  0  0  0  0  0  0  0  0
  157.7030  213.9750  153.3170 C   0  0  0  0  0  0  0  0  0  0  0  0
  153.7420  214.4510  156.4170 C   0  0  0  0  0  1  0  0  0  0  0  0
  156.0840  214.3830  157.2600 C   0  0  0  0  0  3  0  0  0  0  0  0
  157.4520  214.2140  157.0710 C   0  0  0  0  0  3  0  0  0  0  0  0
  157.1060  214.1160  154.6690 C   0  0  0  0  0  0  0  0  0  0  0  0
  155.2070  214.3620  156.1690 C   0  0  0  0  0  0  0  0  0  0  0  0
  155.7110  214.2160  154.8690 C   0  0  0  0  0  0  0  0  0  0  0  0
  154.8520  214.0960  153.8180 F   0  0  0  0  0  0  0  0  0  0  0  0
  157.9580  214.0650  155.7830 C   0  0  0  0  0  3  0  0  0  0  0  0
  1  4  1  0  0  0  0
  1 27  1  1  0  0  0
  2 51  1  1  0  0  0
  2  4  1  0  0  0  0
  3  6  1  0  0  0  0
  5  1  1  0  0  0  0
  6  5  2  0  0  0  0
  6  2  1  0  0  0  0
  7  3  1  0  0  0  0
  8 11  1  0  0  0  0
  8  9  1  0  0  0  0
  9 10  2  0  0  0  0
 10 12  1  0  0  0  0
 11 13  2  0  0  0  0
 12  7  1  0  0  0  0
 13 10  1  0  0  0  0
 14  8  1  0  0  0  0
 15 16  1  6  0  0  0
 15 14  1  0  0  0  0
 17 18  1  0  0  0  0
 18 15  1  6  0  0  0
 19 24  1  6  0  0  0
 19 21  1  0  0  0  0
 20 23  1  6  0  0  0
 20 19  1  0  0  0  0
 20 17  1  0  0  0  0
 21 18  1  0  0  0  0
 22 23  1  0  0  0  0
 24 26  1  0  0  0  0
 26 25  1  0  0  0  0
 27 47  1  6  0  0  0
 29 30  2  0  0  0  0
 30 27  1  0  0  0  0
 30 28  1  0  0  0  0
 31 28  1  0  0  0  0
 32 31  1  0  0  0  0
 33 32  1  0  0  0  0
 34 33  1  0  0  0  0
 36 43  1  1  0  0  0
 36 45  1  0  0  0  0
 36 41  1  0  0  0  0
 38 43  1  0  0  0  0
 38 35  1  0  0  0  0
 40 35  1  0  0  0  0
 40 44  1  0  0  0  0
 41 44  1  6  0  0  0
 41 46  1  0  0  0  0
 42 37  2  0  0  0  0
 45 39  1  6  0  0  0
 45 41  1  0  0  0  0
 45 42  1  0  0  0  0
 46 37  1  0  0  0  0
 46 34  1  1  0  0  0
 47 48  1  0  0  0  0
 48 49  1  0  0  0  0
 49 50  1  0  0  0  0
 51 52  1  0  0  0  0
 52 54  1  0  0  0  0
 53 54  2  0  0  0  0
 54 58  1  0  0  0  0
 57 56  1  0  0  0  0
 58 60  2  0  0  0  0
 58 62  1  0  0  0  0
 59 55  1  0  0  0  0
 59 56  2  0  0  0  0
 60 59  1  0  0  0  0
 61 60  1  0  0  0  0
 62 57  2  0  0  0  0
M  END
>  <MODEL>
4

>  <REMARK>
 VINA RESULT:      -4.1      2.985      8.688
  Name = 
  21 active torsions:
  status: ('A' for Active; 'I' for Inactive)
    1  A    between atoms: N_1  and  C_54
    2  A    between atoms: C_3  and  C_60
    3  A    between atoms: C_3  and  C_62
    4  A    between atoms: C_5  and  C_18
    5  A    between atoms: C_5  and  C_20
    6  A    between atoms: C_6  and  C_44
    7  A    between atoms: C_6  and  C_60
    8  A    between atoms: C_7  and  C_47
    9  A    between atoms: C_8  and  C_54
   10  A    between atoms: N_11  and  C_20
   11  A    between atoms: C_14  and  C_38
   12  A    between atoms: N_15  and  C_44
   13  A    between atoms: C_19  and  N_24
   14  A    between atoms: C_19  and  N_55
   15  A    between atoms: N_21  and  C_46
   16  A    between atoms: O_26  and  C_31
   17  A    between atoms: C_30  and  C_53
   18  A    between atoms: C_31  and  C_36
   19  A    between atoms: C_39  and  C_46
   20  A    between atoms: C_39  and  C_47
   21  A    between atoms: C_47  and  C_49
                            x       y       z     vdW  Elec       q    Type
                         _______ _______ _______ _____ _____    ______ ____

>  <TORSDO>
F 21

$$$$
=
 OpenBabel11042420373D

 62 68  0  0  1  0  0  0  0  0999 V2000
  162.1260  211.7920  149.1910 C   0  0  1  0  0  3  0  0  0  0  0  0
  161.7700  209.9100  150.9720 C   0  0  2  0  0  3  0  0  0  0  0  0
  161.8980  208.1460  149.1380 N   0  0  0  0  0  2  0  0  0  0  0  0
  161.8470  211.7420  150.9990 S   0  0  0  0  0  0  0  0  0  0  0  0
  161.9450  210.4480  148.6660 N   0  0  0  0  0  0  0  0  0  0  0  0
  161.7980  209.5080  149.5360 C   0  0  0  0  0  0  0  0  0  0  0  0
  163.2180  207.5260  149.1500 C   0  0  0  0  0  2  0  0  0  0  0  0
  161.1900  205.0340  145.8910 N   0  0  0  0  0  0  0  0  0  0  0  0
  162.4510  205.3820  146.3590 N   0  0  0  0  0  0  0  0  0  0  0  0
  162.3550  206.4120  147.1210 C   0  0  0  0  0  0  0  0  0  0  0  0
  160.1820  205.9840  146.3310 C   0  0  0  0  0  3  0  0  0  0  0  0
  163.4700  206.8960  147.8750 N   0  0  0  0  0  2  0  0  0  0  0  0
  160.9430  206.8780  147.3150 C   0  0  0  0  0  3  0  0  0  0  0  0
  160.9500  203.8550  145.0870 C   0  0  0  0  0  2  0  0  0  0  0  0
  160.5940  202.6330  145.9240 C   0  0  1  0  0  3  0  0  0  0  0  0
  160.7480  201.4080  145.2490 O   0  0  0  0  0  1  0  0  0  0  0  0
  161.3410  201.3360  147.8510 O   0  0  0  0  0  0  0  0  0  0  0  0
  161.3310  202.6150  147.2570 C   0  0  2  0  0  3  0  0  0  0  0  0
  161.1990  203.0430  149.5360 C   0  0  1  0  0  3  0  0  0  0  0  0
  161.3300  201.5330  149.2570 C   0  0  1  0  0  3  0  0  0  0  0  0
  160.7290  203.6020  148.2290 C   0  0  0  0  0  2  0  0  0  0  0  0
  158.8300  201.2410  149.5360 C   0  0  0  0  0  1  0  0  0  0  0  0
  160.2070  200.6710  149.8690 C   0  0  0  0  0  2  0  0  0  0  0  0
  160.3080  203.4580  150.7070 C   0  0  0  0  0  2  0  0  0  0  0  0
  161.2310  204.2260  152.5660 C   0  0  0  0  0  1  0  0  0  0  0  0
  160.7830  204.6160  151.3060 O   0  0  0  0  0  0  0  0  0  0  0  0
  161.2480  212.8440  148.4830 C   0  0  1  0  0  3  0  0  0  0  0  0
  162.1390  213.0940  146.1390 N   0  0  0  0  0  2  0  0  0  0  0  0
  160.1790  211.8920  146.5520 O   0  0  0  0  0  0  0  0  0  0  0  0
  161.1470  212.5500  147.0210 C   0  0  0  0  0  0  0  0  0  0  0  0
  162.1530  212.9520  144.7030 C   0  0  0  0  0  2  0  0  0  0  0  0
  161.3780  214.0490  144.0000 C   0  0  0  0  0  2  0  0  0  0  0  0
  160.5490  213.3830  142.9280 C   0  0  0  0  0  2  0  0  0  0  0  0
  161.3230  212.3490  142.1130 C   0  0  0  0  0  2  0  0  0  0  0  0
  163.6000  213.1460  139.0370 C   0  0  0  0  0  2  0  0  0  0  0  0
  161.1620  211.6140  138.1730 C   0  0  2  0  0  3  0  0  0  0  0  0
  159.6050  213.0020  140.4410 C   0  0  0  0  0  3  0  0  0  0  0  0
  162.6880  213.6200  137.8480 C   0  0  0  0  0  2  0  0  0  0  0  0
  159.8250  209.6890  139.0420 O   0  0  0  0  0  1  0  0  0  0  0  0
  163.8460  211.6120  139.0560 C   0  0  0  0  0  2  0  0  0  0  0  0
  161.3480  211.4310  139.7040 C   0  0  2  0  0  0  0  0  0  0  0  0
  158.9430  211.9640  139.5590 C   0  0  0  0  0  3  0  0  0  0  0  0
  161.2320  213.1090  137.8560 C   0  0  0  0  0  2  0  0  0  0  0  0
  162.7460  210.7910  139.7920 C   0  0  0  0  0  2  0  0  0  0  0  0
  160.0510  211.0660  139.0410 C   0  0  1  0  0  0  0  0  0  0  0  0
  161.0540  212.6190  140.6330 C   0  0  2  0  0  3  0  0  0  0  0  0
  159.8410  212.9630  149.1020 C   0  0  0  0  0  2  0  0  0  0  0  0
  159.5380  214.3930  149.5620 C   0  0  0  0  0  2  0  0  0  0  0  0
  158.8580  214.3790  150.8510 N   0  0  0  0  0  2  0  0  0  0  0  0
  157.4490  214.1420  150.6080 C   0  0  0  0  0  1  0  0  0  0  0  0
  160.4910  209.4130  151.6400 C   0  0  0  0  0  2  0  0  0  0  0  0
  159.9970  210.3510  152.6520 N   0  0  0  0  0  2  0  0  0  0  0  0
  160.8120  209.1780  154.5010 O   0  0  0  0  0  0  0  0  0  0  0  0
  160.1710  210.1740  154.0670 C   0  0  0  0  0  0  0  0  0  0  0  0
  156.3680  212.9510  155.8960 C   0  0  0  0  0  1  0  0  0  0  0  0
  158.6370  212.9740  156.9210 C   0  0  0  0  0  3  0  0  0  0  0  0
  159.9430  212.5010  157.0230 C   0  0  0  0  0  3  0  0  0  0  0  0
  159.6050  211.1410  155.0400 C   0  0  0  0  0  0  0  0  0  0  0  0
  157.7850  212.4950  155.9190 C   0  0  0  0  0  0  0  0  0  0  0  0
  158.2590  211.5680  154.9800 C   0  0  0  0  0  0  0  0  0  0  0  0
  157.4030  211.0280  154.0680 F   0  0  0  0  0  0  0  0  0  0  0  0
  160.4170  211.5780  156.0970 C   0  0  0  0  0  3  0  0  0  0  0  0
  1 27  1  6  0  0  0
  1  4  1  0  0  0  0
  2  4  1  0  0  0  0
  2 51  1  6  0  0  0
  3  7  1  0  0  0  0
  3  6  1  0  0  0  0
  5  1  1  0  0  0  0
  5  6  2  0  0  0  0
  6  2  1  0  0  0  0
  8 11  1  0  0  0  0
  8  9  1  0  0  0  0
  9 10  2  0  0  0  0
 10 13  1  0  0  0  0
 10 12  1  0  0  0  0
 11 13  2  0  0  0  0
 12  7  1  0  0  0  0
 14  8  1  0  0  0  0
 14 15  1  0  0  0  0
 15 16  1  6  0  0  0
 17 20  1  0  0  0  0
 18 15  1  6  0  0  0
 18 17  1  0  0  0  0
 18 21  1  0  0  0  0
 19 24  1  1  0  0  0
 20 19  1  0  0  0  0
 20 23  1  1  0  0  0
 21 19  1  0  0  0  0
 22 23  1  0  0  0  0
 24 26  1  0  0  0  0
 26 25  1  0  0  0  0
 27 47  1  1  0  0  0
 28 30  1  0  0  0  0
 29 30  2  0  0  0  0
 30 27  1  0  0  0  0
 31 28  1  0  0  0  0
 32 31  1  0  0  0  0
 33 32  1  0  0  0  0
 34 33  1  0  0  0  0
 35 40  1  0  0  0  0
 36 43  1  1  0  0  0
 36 45  1  0  0  0  0
 36 41  1  0  0  0  0
 37 46  1  0  0  0  0
 38 43  1  0  0  0  0
 38 35  1  0  0  0  0
 40 44  1  0  0  0  0
 41 44  1  1  0  0  0
 41 46  1  0  0  0  0
 42 37  2  0  0  0  0
 45 39  1  6  0  0  0
 45 42  1  0  0  0  0
 45 41  1  0  0  0  0
 46 34  1  1  0  0  0
 47 48  1  0  0  0  0
 48 49  1  0  0  0  0
 50 49  1  0  0  0  0
 51 52  1  0  0  0  0
 52 54  1  0  0  0  0
 54 53  2  0  0  0  0
 54 58  1  0  0  0  0
 55 59  1  0  0  0  0
 56 57  1  0  0  0  0
 58 62  1  0  0  0  0
 59 56  2  0  0  0  0
 60 58  2  0  0  0  0
 60 59  1  0  0  0  0
 61 60  1  0  0  0  0
 62 57  2  0  0  0  0
M  END
>  <MODEL>
5

>  <REMARK>
 VINA RESULT:      -3.9      2.642     11.969
  Name = 
  21 active torsions:
  status: ('A' for Active; 'I' for Inactive)
    1  A    between atoms: N_1  and  C_54
    2  A    between atoms: C_3  and  C_60
    3  A    between atoms: C_3  and  C_62
    4  A    between atoms: C_5  and  C_18
    5  A    between atoms: C_5  and  C_20
    6  A    between atoms: C_6  and  C_44
    7  A    between atoms: C_6  and  C_60
    8  A    between atoms: C_7  and  C_47
    9  A    between atoms: C_8  and  C_54
   10  A    between atoms: N_11  and  C_20
   11  A    between atoms: C_14  and  C_38
   12  A    between atoms: N_15  and  C_44
   13  A    between atoms: C_19  and  N_24
   14  A    between atoms: C_19  and  N_55
   15  A    between atoms: N_21  and  C_46
   16  A    between atoms: O_26  and  C_31
   17  A    between atoms: C_30  and  C_53
   18  A    between atoms: C_31  and  C_36
   19  A    between atoms: C_39  and  C_46
   20  A    between atoms: C_39  and  C_47
   21  A    between atoms: C_47  and  C_49
                            x       y       z     vdW  Elec       q    Type
                         _______ _______ _______ _____ _____    ______ ____

>  <TORSDO>
F 21

$$$$
=
 OpenBabel11042420373D

 62 68  0  0  1  0  0  0  0  0999 V2000
  160.2060  209.7800  151.7760 C   0  0  1  0  0  3  0  0  0  0  0  0
  159.6620  212.2500  151.1090 C   0  0  2  0  0  3  0  0  0  0  0  0
  161.6330  212.2520  149.4950 N   0  0  0  0  0  2  0  0  0  0  0  0
  158.9630  211.0250  152.2820 S   0  0  0  0  0  0  0  0  0  0  0  0
  161.1770  210.4330  150.9100 N   0  0  0  0  0  0  0  0  0  0  0  0
  160.9040  211.6400  150.5510 C   0  0  0  0  0  0  0  0  0  0  0  0
  161.1470  212.0680  148.1320 C   0  0  0  0  0  2  0  0  0  0  0  0
  161.5900  213.1200  143.7000 N   0  0  0  0  0  0  0  0  0  0  0  0
  162.2960  213.1580  144.8970 N   0  0  0  0  0  0  0  0  0  0  0  0
  161.4780  213.0260  145.8800 C   0  0  0  0  0  0  0  0  0  0  0  0
  160.1590  213.0330  143.9330 C   0  0  0  0  0  3  0  0  0  0  0  0
  161.9390  212.8650  147.2240 N   0  0  0  0  0  2  0  0  0  0  0  0
  160.0580  212.8180  145.4460 C   0  0  0  0  0  3  0  0  0  0  0  0
  162.2390  213.1440  142.4070 C   0  0  0  0  0  2  0  0  0  0  0  0
  161.2590  213.3570  141.2600 C   0  0  1  0  0  3  0  0  0  0  0  0
  161.7790  214.1120  140.1910 O   0  0  0  0  0  1  0  0  0  0  0  0
  161.4980  211.3970  139.8290 O   0  0  0  0  0  0  0  0  0  0  0  0
  160.6640  212.0470  140.7600 C   0  0  2  0  0  3  0  0  0  0  0  0
  159.1860  211.0480  139.2730 C   0  0  1  0  0  3  0  0  0  0  0  0
  160.6480  210.7060  138.9250 C   0  0  1  0  0  3  0  0  0  0  0  0
  159.3070  212.2670  140.1340 C   0  0  0  0  0  2  0  0  0  0  0  0
  162.1330  212.1530  137.4720 C   0  0  0  0  0  1  0  0  0  0  0  0
  161.0610  211.0640  137.4830 C   0  0  0  0  0  2  0  0  0  0  0  0
  158.2220  211.2480  138.1040 C   0  0  0  0  0  2  0  0  0  0  0  0
  156.5420  212.4350  137.2870 C   0  0  0  0  0  1  0  0  0  0  0  0
  157.1460  212.0400  138.4780 O   0  0  0  0  0  0  0  0  0  0  0  0
  160.8510  209.0620  152.9780 C   0  0  1  0  0  3  0  0  0  0  0  0
  161.1800  206.5670  152.8370 N   0  0  0  0  0  2  0  0  0  0  0  0
  162.7540  208.0340  151.9280 O   0  0  0  0  0  0  0  0  0  0  0  0
  161.6520  207.8840  152.5220 C   0  0  0  0  0  0  0  0  0  0  0  0
  161.8600  205.3350  152.5210 C   0  0  0  0  0  2  0  0  0  0  0  0
  161.1840  204.5630  151.4050 C   0  0  0  0  0  2  0  0  0  0  0  0
  161.2210  205.4440  150.1780 C   0  0  0  0  0  2  0  0  0  0  0  0
  160.4890  204.8490  148.9780 C   0  0  0  0  0  2  0  0  0  0  0  0
  161.1760  201.3650  150.6100 C   0  0  0  0  0  2  0  0  0  0  0  0
  161.0180  201.1130  147.6180 C   0  0  2  0  0  3  0  0  0  0  0  0
  162.1980  203.9520  147.4140 C   0  0  0  0  0  3  0  0  0  0  0  0
  162.2810  200.6270  149.7700 C   0  0  0  0  0  2  0  0  0  0  0  0
  159.6000  202.0570  145.7900 O   0  0  0  0  0  1  0  0  0  0  0  0
  159.7290  201.0620  150.1320 C   0  0  0  0  0  2  0  0  0  0  0  0
  160.3530  202.4510  148.0410 C   0  0  2  0  0  0  0  0  0  0  0  0
  161.7920  203.1840  146.1740 C   0  0  0  0  0  3  0  0  0  0  0  0
  162.3920  201.0290  148.2840 C   0  0  0  0  0  2  0  0  0  0  0  0
  159.2250  201.9780  148.9770 C   0  0  0  0  0  2  0  0  0  0  0  0
  160.7210  202.1990  146.6070 C   0  0  1  0  0  0  0  0  0  0  0  0
  161.2470  203.6000  148.5350 C   0  0  2  0  0  3  0  0  0  0  0  0
  161.7230  209.9990  153.8380 C   0  0  0  0  0  2  0  0  0  0  0  0
  161.2470  210.0470  155.2940 C   0  0  0  0  0  2  0  0  0  0  0  0
  160.6450  211.3390  155.5900 N   0  0  0  0  0  2  0  0  0  0  0  0
  161.2120  211.8200  156.8340 C   0  0  0  0  0  1  0  0  0  0  0  0
  159.9840  213.5590  151.8230 C   0  0  0  0  0  2  0  0  0  0  0  0
  159.3200  213.6550  153.1270 N   0  0  0  0  0  2  0  0  0  0  0  0
  157.2630  214.4000  152.3040 O   0  0  0  0  0  0  0  0  0  0  0  0
  157.9650  214.0980  153.3080 C   0  0  0  0  0  0  0  0  0  0  0  0
  154.0050  214.1910  156.4430 C   0  0  0  0  0  1  0  0  0  0  0  0
  156.3440  214.4520  157.2550 C   0  0  0  0  0  3  0  0  0  0  0  0
  157.7210  214.4500  157.0530 C   0  0  0  0  0  3  0  0  0  0  0  0
  157.3680  214.2150  154.6620 C   0  0  0  0  0  0  0  0  0  0  0  0
  155.4670  214.2780  156.1780 C   0  0  0  0  0  0  0  0  0  0  0  0
  155.9740  214.1470  154.8780 C   0  0  0  0  0  0  0  0  0  0  0  0
  155.1270  213.8780  153.8440 F   0  0  0  0  0  0  0  0  0  0  0  0
  158.2290  214.3160  155.7650 C   0  0  0  0  0  3  0  0  0  0  0  0
  1  4  1  0  0  0  0
  1 27  1  1  0  0  0
  2 51  1  1  0  0  0
  2  4  1  0  0  0  0
  3  6  1  0  0  0  0
  5  1  1  0  0  0  0
  6  5  2  0  0  0  0
  6  2  1  0  0  0  0
  7  3  1  0  0  0  0
  8 11  1  0  0  0  0
  8  9  1  0  0  0  0
  9 10  2  0  0  0  0
 10 12  1  0  0  0  0
 11 13  2  0  0  0  0
 12  7  1  0  0  0  0
 13 10  1  0  0  0  0
 14  8  1  0  0  0  0
 15 16  1  6  0  0  0
 15 14  1  0  0  0  0
 17 18  1  0  0  0  0
 18 15  1  6  0  0  0
 19 24  1  6  0  0  0
 19 21  1  0  0  0  0
 20 23  1  6  0  0  0
 20 19  1  0  0  0  0
 20 17  1  0  0  0  0
 21 18  1  0  0  0  0
 22 23  1  0  0  0  0
 24 26  1  0  0  0  0
 25 26  1  0  0  0  0
 27 47  1  6  0  0  0
 29 30  2  0  0  0  0
 30 28  1  0  0  0  0
 30 27  1  0  0  0  0
 31 28  1  0  0  0  0
 32 31  1  0  0  0  0
 33 32  1  0  0  0  0
 34 33  1  0  0  0  0
 36 41  1  0  0  0  0
 36 43  1  1  0  0  0
 37 46  1  0  0  0  0
 38 35  1  0  0  0  0
 40 35  1  0  0  0  0
 41 46  1  0  0  0  0
 41 44  1  1  0  0  0
 42 45  1  0  0  0  0
 42 37  2  0  0  0  0
 43 38  1  0  0  0  0
 44 40  1  0  0  0  0
 45 39  1  6  0  0  0
 45 36  1  0  0  0  0
 45 41  1  0  0  0  0
 46 34  1  6  0  0  0
 47 48  1  0  0  0  0
 48 49  1  0  0  0  0
 49 50  1  0  0  0  0
 51 52  1  0  0  0  0
 52 54  1  0  0  0  0
 53 54  2  0  0  0  0
 54 58  1  0  0  0  0
 57 56  1  0  0  0  0
 58 60  2  0  0  0  0
 58 62  1  0  0  0  0
 59 55  1  0  0  0  0
 59 56  2  0  0  0  0
 60 59  1  0  0  0  0
 61 60  1  0  0  0  0
 62 57  2  0  0  0  0
M  END
>  <MODEL>
6

>  <REMARK>
 VINA RESULT:      -3.7      2.961      9.157
  Name = 
  21 active torsions:
  status: ('A' for Active; 'I' for Inactive)
    1  A    between atoms: N_1  and  C_54
    2  A    between atoms: C_3  and  C_60
    3  A    between atoms: C_3  and  C_62
    4  A    between atoms: C_5  and  C_18
    5  A    between atoms: C_5  and  C_20
    6  A    between atoms: C_6  and  C_44
    7  A    between atoms: C_6  and  C_60
    8  A    between atoms: C_7  and  C_47
    9  A    between atoms: C_8  and  C_54
   10  A    between atoms: N_11  and  C_20
   11  A    between atoms: C_14  and  C_38
   12  A    between atoms: N_15  and  C_44
   13  A    between atoms: C_19  and  N_24
   14  A    between atoms: C_19  and  N_55
   15  A    between atoms: N_21  and  C_46
   16  A    between atoms: O_26  and  C_31
   17  A    between atoms: C_30  and  C_53
   18  A    between atoms: C_31  and  C_36
   19  A    between atoms: C_39  and  C_46
   20  A    between atoms: C_39  and  C_47
   21  A    between atoms: C_47  and  C_49
                            x       y       z     vdW  Elec       q    Type
                         _______ _______ _______ _____ _____    ______ ____

>  <TORSDO>
F 21

$$$$
=
 OpenBabel11042420373D

 62 68  0  0  1  0  0  0  0  0999 V2000
  161.2140  209.1250  152.2120 C   0  0  1  0  0  3  0  0  0  0  0  0
  161.3870  210.5230  150.0080 C   0  0  2  0  0  3  0  0  0  0  0  0
  162.5890  208.5850  148.8700 N   0  0  0  0  0  2  0  0  0  0  0  0
  160.7280  210.8120  151.6950 S   0  0  0  0  0  0  0  0  0  0  0  0
  162.0120  208.5350  151.1470 N   0  0  0  0  0  0  0  0  0  0  0  0
  162.0800  209.2020  150.0460 C   0  0  0  0  0  0  0  0  0  0  0  0
  161.6530  207.8670  148.0140 C   0  0  0  0  0  2  0  0  0  0  0  0
  160.9490  204.3830  145.1300 N   0  0  0  0  0  0  0  0  0  0  0  0
  161.8290  204.8090  146.1170 N   0  0  0  0  0  0  0  0  0  0  0  0
  161.6660  206.0680  146.3210 C   0  0  0  0  0  0  0  0  0  0  0  0
  160.1910  205.4940  144.5810 C   0  0  0  0  0  3  0  0  0  0  0  0
  162.3230  206.7460  147.3950 N   0  0  0  0  0  2  0  0  0  0  0  0
  160.5650  206.6650  145.4960 C   0  0  0  0  0  3  0  0  0  0  0  0
  160.8190  202.9950  144.7430 C   0  0  0  0  0  2  0  0  0  0  0  0
  160.4470  202.0890  145.9100 C   0  0  1  0  0  3  0  0  0  0  0  0
  160.3230  200.7300  145.5680 O   0  0  0  0  0  1  0  0  0  0  0  0
  161.3550  201.1660  147.9770 O   0  0  0  0  0  0  0  0  0  0  0  0
  161.3850  202.2660  147.0980 C   0  0  2  0  0  3  0  0  0  0  0  0
  161.6710  203.2100  149.2000 C   0  0  1  0  0  3  0  0  0  0  0  0
  161.5930  201.6730  149.2830 C   0  0  1  0  0  3  0  0  0  0  0  0
  161.0560  203.5220  147.8710 C   0  0  0  0  0  2  0  0  0  0  0  0
  159.1640  200.9960  149.5040 C   0  0  0  0  0  1  0  0  0  0  0  0
  160.5000  201.1380  150.2300 C   0  0  0  0  0  2  0  0  0  0  0  0
  161.0310  204.0000  150.3430 C   0  0  0  0  0  2  0  0  0  0  0  0
  161.6030  203.8610  152.4760 C   0  0  0  0  0  1  0  0  0  0  0  0
  161.9890  204.4130  151.2570 O   0  0  0  0  0  0  0  0  0  0  0  0
  161.9210  209.1030  153.5820 C   0  0  1  0  0  3  0  0  0  0  0  0
  161.8440  210.4620  155.7030 N   0  0  0  0  0  2  0  0  0  0  0  0
  159.8910  209.9980  154.5080 O   0  0  0  0  0  0  0  0  0  0  0  0
  161.1440  209.8890  154.5900 C   0  0  0  0  0  0  0  0  0  0  0  0
  161.2370  211.1960  156.7870 C   0  0  0  0  0  2  0  0  0  0  0  0
  159.7390  211.3600  156.6140 C   0  0  0  0  0  2  0  0  0  0  0  0
  159.4210  212.8090  156.8980 C   0  0  0  0  0  2  0  0  0  0  0  0
  159.2380  213.6520  155.6380 C   0  0  0  0  0  2  0  0  0  0  0  0
  157.2590  214.3480  152.3400 C   0  0  0  0  0  2  0  0  0  0  0  0
  155.8590  212.2580  153.9860 C   0  0  2  0  0  3  0  0  0  0  0  0
  156.9110  213.6800  156.5090 C   0  0  0  0  0  3  0  0  0  0  0  0
  155.7280  214.4370  152.6830 C   0  0  0  0  0  2  0  0  0  0  0  0
  156.5290  210.2850  155.3660 O   0  0  0  0  0  1  0  0  0  0  0  0
  157.7300  212.9130  151.9730 C   0  0  0  0  0  2  0  0  0  0  0  0
  157.3310  212.3700  154.4700 C   0  0  2  0  0  0  0  0  0  0  0  0
  156.1030  212.4040  156.6110 C   0  0  0  0  0  3  0  0  0  0  0  0
  155.2620  213.6650  153.9360 C   0  0  0  0  0  2  0  0  0  0  0  0
  158.1240  212.0310  153.1950 C   0  0  0  0  0  2  0  0  0  0  0  0
  156.3020  211.6600  155.3030 C   0  0  1  0  0  0  0  0  0  0  0  0
  157.7590  213.6170  155.2600 C   0  0  2  0  0  3  0  0  0  0  0  0
  162.1750  207.6740  154.1000 C   0  0  0  0  0  2  0  0  0  0  0  0
  160.8790  206.9880  154.5470 C   0  0  0  0  0  2  0  0  0  0  0  0
  160.7900  206.9670  156.0010 N   0  0  0  0  0  2  0  0  0  0  0  0
  159.3880  206.9080  156.3600 C   0  0  0  0  0  1  0  0  0  0  0  0
  162.3650  211.6260  149.6140 C   0  0  0  0  0  2  0  0  0  0  0  0
  162.2770  211.9580  148.1880 N   0  0  0  0  0  2  0  0  0  0  0  0
  160.8600  213.7990  148.4480 O   0  0  0  0  0  0  0  0  0  0  0  0
  161.4960  213.0440  147.6620 C   0  0  0  0  0  0  0  0  0  0  0  0
  163.5780  213.3720  143.0720 C   0  0  0  0  0  1  0  0  0  0  0  0
  161.1570  213.8010  143.4620 C   0  0  0  0  0  3  0  0  0  0  0  0
  160.0290  213.8200  144.2780 C   0  0  0  0  0  3  0  0  0  0  0  0
  161.4150  213.2970  146.2020 C   0  0  0  0  0  0  0  0  0  0  0  0
  162.4120  213.4750  143.9900 C   0  0  0  0  0  0  0  0  0  0  0  0
  162.5460  213.2100  145.3600 C   0  0  0  0  0  0  0  0  0  0  0  0
  163.7460  212.7950  145.8560 F   0  0  0  0  0  0  0  0  0  0  0  0
  160.1570  213.5530  145.6370 C   0  0  0  0  0  3  0  0  0  0  0  0
  1 27  1  1  0  0  0
  2 51  1  1  0  0  0
  2  6  1  0  0  0  0
  2  4  1  0  0  0  0
  3  6  1  0  0  0  0
  4  1  1  0  0  0  0
  5  1  1  0  0  0  0
  6  5  2  0  0  0  0
  7  3  1  0  0  0  0
  8  9  1  0  0  0  0
  9 10  2  0  0  0  0
 10 12  1  0  0  0  0
 11  8  1  0  0  0  0
 11 13  2  0  0  0  0
 12  7  1  0  0  0  0
 13 10  1  0  0  0  0
 14  8  1  0  0  0  0
 14 15  1  0  0  0  0
 15 16  1  6  0  0  0
 17 20  1  0  0  0  0
 18 15  1  6  0  0  0
 18 21  1  0  0  0  0
 18 17  1  0  0  0  0
 19 20  1  0  0  0  0
 19 24  1  1  0  0  0
 20 23  1  1  0  0  0
 21 19  1  0  0  0  0
 22 23  1  0  0  0  0
 24 26  1  0  0  0  0
 26 25  1  0  0  0  0
 27 47  1  1  0  0  0
 27 30  1  0  0  0  0
 28 31  1  0  0  0  0
 29 30  2  0  0  0  0
 30 28  1  0  0  0  0
 32 31  1  0  0  0  0
 32 33  1  0  0  0  0
 34 33  1  0  0  0  0
 35 38  1  0  0  0  0
 36 43  1  1  0  0  0
 36 41  1  0  0  0  0
 36 45  1  0  0  0  0
 37 42  2  0  0  0  0
 38 43  1  0  0  0  0
 40 35  1  0  0  0  0
 40 44  1  0  0  0  0
 41 44  1  6  0  0  0
 41 46  1  0  0  0  0
 41 45  1  0  0  0  0
 45 39  1  1  0  0  0
 45 42  1  0  0  0  0
 46 34  1  1  0  0  0
 46 37  1  0  0  0  0
 47 48  1  0  0  0  0
 48 49  1  0  0  0  0
 49 50  1  0  0  0  0
 52 51  1  0  0  0  0
 54 52  1  0  0  0  0
 54 53  2  0  0  0  0
 55 59  1  0  0  0  0
 56 59  2  0  0  0  0
 56 57  1  0  0  0  0
 57 62  2  0  0  0  0
 58 54  1  0  0  0  0
 59 60  1  0  0  0  0
 60 61  1  0  0  0  0
 60 58  2  0  0  0  0
 62 58  1  0  0  0  0
M  END
>  <MODEL>
7

>  <REMARK>
 VINA RESULT:      -3.3      3.109      8.258
  Name = 
  21 active torsions:
  status: ('A' for Active; 'I' for Inactive)
    1  A    between atoms: N_1  and  C_54
    2  A    between atoms: C_3  and  C_60
    3  A    between atoms: C_3  and  C_62
    4  A    between atoms: C_5  and  C_18
    5  A    between atoms: C_5  and  C_20
    6  A    between atoms: C_6  and  C_44
    7  A    between atoms: C_6  and  C_60
    8  A    between atoms: C_7  and  C_47
    9  A    between atoms: C_8  and  C_54
   10  A    between atoms: N_11  and  C_20
   11  A    between atoms: C_14  and  C_38
   12  A    between atoms: N_15  and  C_44
   13  A    between atoms: C_19  and  N_24
   14  A    between atoms: C_19  and  N_55
   15  A    between atoms: N_21  and  C_46
   16  A    between atoms: O_26  and  C_31
   17  A    between atoms: C_30  and  C_53
   18  A    between atoms: C_31  and  C_36
   19  A    between atoms: C_39  and  C_46
   20  A    between atoms: C_39  and  C_47
   21  A    between atoms: C_47  and  C_49
                            x       y       z     vdW  Elec       q    Type
                         _______ _______ _______ _____ _____    ______ ____

>  <TORSDO>
F 21

$$$$
=
 OpenBabel11042420373D

 62 68  0  0  1  0  0  0  0  0999 V2000
  162.1350  211.1970  148.7950 C   0  0  1  0  0  3  0  0  0  0  0  0
  162.7820  210.0300  151.0450 C   0  0  2  0  0  3  0  0  0  0  0  0
  160.7170  208.5470  150.8730 N   0  0  0  0  0  2  0  0  0  0  0  0
  163.4770  211.3860  150.0240 S   0  0  0  0  0  0  0  0  0  0  0  0
  161.1520  210.2680  149.3340 N   0  0  0  0  0  0  0  0  0  0  0  0
  161.4740  209.6650  150.4280 C   0  0  0  0  0  0  0  0  0  0  0  0
  161.1060  207.2250  150.3960 C   0  0  0  0  0  2  0  0  0  0  0  0
  161.6270  206.1690  145.9740 N   0  0  0  0  0  0  0  0  0  0  0  0
  162.3630  206.5490  147.0890 N   0  0  0  0  0  0  0  0  0  0  0  0
  161.5730  207.0350  147.9780 C   0  0  0  0  0  0  0  0  0  0  0  0
  160.2240  206.5160  146.1220 C   0  0  0  0  0  3  0  0  0  0  0  0
  162.0300  207.3590  149.2930 N   0  0  0  0  0  2  0  0  0  0  0  0
  160.1290  206.9910  147.5760 C   0  0  0  0  0  3  0  0  0  0  0  0
  162.2170  205.4950  144.8370 C   0  0  0  0  0  2  0  0  0  0  0  0
  162.4160  204.0030  145.0750 C   0  0  1  0  0  3  0  0  0  0  0  0
  163.5960  203.6830  145.7730 O   0  0  0  0  0  1  0  0  0  0  0  0
  161.3840  203.1590  147.1180 O   0  0  0  0  0  0  0  0  0  0  0  0
  161.2040  203.3580  145.7340 C   0  0  2  0  0  3  0  0  0  0  0  0
  160.0810  201.3740  146.1760 C   0  0  1  0  0  3  0  0  0  0  0  0
  160.6590  201.9890  147.4650 C   0  0  1  0  0  3  0  0  0  0  0  0
  160.8690  202.0340  145.0880 C   0  0  0  0  0  2  0  0  0  0  0  0
  161.1670  200.9690  149.7270 C   0  0  0  0  0  1  0  0  0  0  0  0
  161.5880  201.0490  148.2600 C   0  0  0  0  0  2  0  0  0  0  0  0
  160.0940  199.8490  146.0680 C   0  0  0  0  0  2  0  0  0  0  0  0
  161.5870  198.2720  145.6420 C   0  0  0  0  0  1  0  0  0  0  0  0
  161.0130  199.4270  145.1170 O   0  0  0  0  0  0  0  0  0  0  0  0
  161.5230  212.5470  148.3700 C   0  0  1  0  0  3  0  0  0  0  0  0
  162.1810  212.9810  145.9760 N   0  0  0  0  0  2  0  0  0  0  0  0
  160.0390  212.2150  146.5080 O   0  0  0  0  0  0  0  0  0  0  0  0
  161.1890  212.5400  146.9130 C   0  0  0  0  0  0  0  0  0  0  0  0
  161.9980  213.0880  144.5490 C   0  0  0  0  0  2  0  0  0  0  0  0
  161.1810  214.3030  144.1540 C   0  0  0  0  0  2  0  0  0  0  0  0
  160.5970  214.0150  142.7910 C   0  0  0  0  0  2  0  0  0  0  0  0
  161.1860  212.7750  142.1240 C   0  0  0  0  0  2  0  0  0  0  0  0
  163.1510  213.3370  138.7910 C   0  0  0  0  0  2  0  0  0  0  0  0
  160.8390  211.4670  138.3480 C   0  0  2  0  0  3  0  0  0  0  0  0
  159.2990  213.0100  140.5260 C   0  0  0  0  0  3  0  0  0  0  0  0
  162.1150  213.5440  137.6280 C   0  0  0  0  0  2  0  0  0  0  0  0
  159.7790  209.5680  139.5790 O   0  0  0  0  0  1  0  0  0  0  0  0
  163.5610  211.8530  138.9990 C   0  0  0  0  0  2  0  0  0  0  0  0
  161.1470  211.5260  139.8690 C   0  0  2  0  0  0  0  0  0  0  0  0
  158.6940  211.7970  139.8520 C   0  0  0  0  0  3  0  0  0  0  0  0
  160.7260  212.9000  137.8260 C   0  0  0  0  0  2  0  0  0  0  0  0
  162.6080  211.0440  139.9280 C   0  0  0  0  0  2  0  0  0  0  0  0
  159.8540  210.9450  139.3710 C   0  0  1  0  0  0  0  0  0  0  0  0
  160.7900  212.8010  140.6490 C   0  0  2  0  0  3  0  0  0  0  0  0
  160.2820  212.9300  149.2010 C   0  0  0  0  0  2  0  0  0  0  0  0
  159.7520  214.3190  148.8300 C   0  0  0  0  0  2  0  0  0  0  0  0
  158.3560  214.4530  149.2240 N   0  0  0  0  0  2  0  0  0  0  0  0
  157.8420  213.1260  149.4970 C   0  0  0  0  0  1  0  0  0  0  0  0
  162.5820  210.4880  152.4860 C   0  0  0  0  0  2  0  0  0  0  0  0
  161.2070  210.9300  152.7400 N   0  0  0  0  0  2  0  0  0  0  0  0
  161.4040  211.0410  155.0660 O   0  0  0  0  0  0  0  0  0  0  0  0
  160.6690  211.1740  154.0500 C   0  0  0  0  0  0  0  0  0  0  0  0
  156.7040  214.1350  153.0350 C   0  0  0  0  0  1  0  0  0  0  0  0
  156.5730  212.2610  154.6680 C   0  0  0  0  0  3  0  0  0  0  0  0
  157.1140  211.1470  155.3040 C   0  0  0  0  0  3  0  0  0  0  0  0
  159.2530  211.5780  154.2370 C   0  0  0  0  0  0  0  0  0  0  0  0
  157.3420  213.0090  153.7680 C   0  0  0  0  0  0  0  0  0  0  0  0
  158.6820  212.6650  153.5390 C   0  0  0  0  0  0  0  0  0  0  0  0
  159.4000  213.3300  152.5900 F   0  0  0  0  0  0  0  0  0  0  0  0
  158.4420  210.7990  155.0770 C   0  0  0  0  0  3  0  0  0  0  0  0
  1 27  1  1  0  0  0
  1  5  1  0  0  0  0
  1  4  1  0  0  0  0
  2 51  1  1  0  0  0
  4  2  1  0  0  0  0
  5  6  2  0  0  0  0
  6  3  1  0  0  0  0
  6  2  1  0  0  0  0
  7  3  1  0  0  0  0
  8 11  1  0  0  0  0
  8  9  1  0  0  0  0
  9 10  2  0  0  0  0
 10 12  1  0  0  0  0
 11 13  2  0  0  0  0
 12  7  1  0  0  0  0
 13 10  1  0  0  0  0
 14 15  1  0  0  0  0
 14  8  1  0  0  0  0
 15 16  1  1  0  0  0
 17 20  1  0  0  0  0
 18 15  1  6  0  0  0
 18 17  1  0  0  0  0
 19 24  1  1  0  0  0
 19 20  1  0  0  0  0
 20 23  1  6  0  0  0
 21 18  1  0  0  0  0
 21 19  1  0  0  0  0
 23 22  1  0  0  0  0
 26 25  1  0  0  0  0
 26 24  1  0  0  0  0
 27 47  1  1  0  0  0
 28 30  1  0  0  0  0
 29 30  2  0  0  0  0
 30 27  1  0  0  0  0
 31 28  1  0  0  0  0
 32 31  1  0  0  0  0
 33 32  1  0  0  0  0
 34 33  1  0  0  0  0
 35 40  1  0  0  0  0
 36 43  1  1  0  0  0
 36 45  1  0  0  0  0
 36 41  1  0  0  0  0
 37 46  1  0  0  0  0
 38 43  1  0  0  0  0
 38 35  1  0  0  0  0
 40 44  1  0  0  0  0
 41 44  1  1  0  0  0
 41 46  1  0  0  0  0
 42 37  2  0  0  0  0
 45 39  1  1  0  0  0
 45 42  1  0  0  0  0
 45 41  1  0  0  0  0
 46 34  1  1  0  0  0
 48 47  1  0  0  0  0
 48 49  1  0  0  0  0
 49 50  1  0  0  0  0
 51 52  1  0  0  0  0
 52 54  1  0  0  0  0
 54 58  1  0  0  0  0
 54 53  2  0  0  0  0
 55 59  1  0  0  0  0
 56 57  1  0  0  0  0
 58 62  1  0  0  0  0
 59 56  2  0  0  0  0
 60 59  1  0  0  0  0
 60 58  2  0  0  0  0
 61 60  1  0  0  0  0
 62 57  2  0  0  0  0
M  END
>  <MODEL>
8

>  <REMARK>
 VINA RESULT:      -3.0      2.645     11.593
  Name = 
  21 active torsions:
  status: ('A' for Active; 'I' for Inactive)
    1  A    between atoms: N_1  and  C_54
    2  A    between atoms: C_3  and  C_60
    3  A    between atoms: C_3  and  C_62
    4  A    between atoms: C_5  and  C_18
    5  A    between atoms: C_5  and  C_20
    6  A    between atoms: C_6  and  C_44
    7  A    between atoms: C_6  and  C_60
    8  A    between atoms: C_7  and  C_47
    9  A    between atoms: C_8  and  C_54
   10  A    between atoms: N_11  and  C_20
   11  A    between atoms: C_14  and  C_38
   12  A    between atoms: N_15  and  C_44
   13  A    between atoms: C_19  and  N_24
   14  A    between atoms: C_19  and  N_55
   15  A    between atoms: N_21  and  C_46
   16  A    between atoms: O_26  and  C_31
   17  A    between atoms: C_30  and  C_53
   18  A    between atoms: C_31  and  C_36
   19  A    between atoms: C_39  and  C_46
   20  A    between atoms: C_39  and  C_47
   21  A    between atoms: C_47  and  C_49
                            x       y       z     vdW  Elec       q    Type
                         _______ _______ _______ _____ _____    ______ ____

>  <TORSDO>
F 21

$$$$
=
 OpenBabel11042420373D

 62 68  0  0  1  0  0  0  0  0999 V2000
  162.4250  211.1180  148.6020 C   0  0  1  0  0  3  0  0  0  0  0  0
  162.1040  208.8690  149.8960 C   0  0  2  0  0  3  0  0  0  0  0  0
  161.8820  207.6230  147.6850 N   0  0  0  0  0  2  0  0  0  0  0  0
  162.3400  210.6270  150.3620 S   0  0  0  0  0  0  0  0  0  0  0  0
  162.0740  209.9630  147.7900 N   0  0  0  0  0  0  0  0  0  0  0  0
  161.9420  208.8420  148.4140 C   0  0  0  0  0  0  0  0  0  0  0  0
  163.1380  206.9470  147.3790 C   0  0  0  0  0  2  0  0  0  0  0  0
  160.0660  204.4070  145.1300 N   0  0  0  0  0  0  0  0  0  0  0  0
  161.4360  204.6200  145.2190 N   0  0  0  0  0  0  0  0  0  0  0  0
  161.6570  205.7370  145.8150 C   0  0  0  0  0  0  0  0  0  0  0  0
  159.3190  205.5390  145.6510 C   0  0  0  0  0  3  0  0  0  0  0  0
  162.9770  206.1390  146.1920 N   0  0  0  0  0  2  0  0  0  0  0  0
  160.4050  206.4240  146.2720 C   0  0  0  0  0  3  0  0  0  0  0  0
  159.4950  203.1890  144.5980 C   0  0  0  0  0  2  0  0  0  0  0  0
  159.7900  201.9720  145.4670 C   0  0  1  0  0  3  0  0  0  0  0  0
  160.0700  200.8000  144.7400 O   0  0  0  0  0  1  0  0  0  0  0  0
  161.1700  201.1210  147.2890 O   0  0  0  0  0  0  0  0  0  0  0  0
  160.8800  202.2480  146.4940 C   0  0  2  0  0  3  0  0  0  0  0  0
  161.3780  203.1370  148.5810 C   0  0  1  0  0  3  0  0  0  0  0  0
  161.5510  201.6050  148.5690 C   0  0  1  0  0  3  0  0  0  0  0  0
  160.5030  203.4010  147.3950 C   0  0  0  0  0  2  0  0  0  0  0  0
  159.2380  201.1370  149.4860 C   0  0  0  0  0  1  0  0  0  0  0  0
  160.7320  200.8620  149.6430 C   0  0  0  0  0  2  0  0  0  0  0  0
  160.8330  203.7640  149.8640 C   0  0  0  0  0  2  0  0  0  0  0  0
  161.0900  203.3260  152.0180 C   0  0  0  0  0  1  0  0  0  0  0  0
  161.7810  203.7250  150.8770 O   0  0  0  0  0  0  0  0  0  0  0  0
  161.5690  212.3620  148.2890 C   0  0  1  0  0  3  0  0  0  0  0  0
  161.9240  212.8320  145.8390 N   0  0  0  0  0  2  0  0  0  0  0  0
  159.9160  211.9140  146.6020 O   0  0  0  0  0  0  0  0  0  0  0  0
  161.0760  212.3240  146.8780 C   0  0  0  0  0  0  0  0  0  0  0  0
  161.5760  212.9190  144.4410 C   0  0  0  0  0  2  0  0  0  0  0  0
  160.0920  213.1350  144.2210 C   0  0  0  0  0  2  0  0  0  0  0  0
  159.7200  212.3800  142.9660 C   0  0  0  0  0  2  0  0  0  0  0  0
  160.9260  211.8920  142.1670 C   0  0  0  0  0  2  0  0  0  0  0  0
  163.2370  212.0840  139.0210 C   0  0  0  0  0  2  0  0  0  0  0  0
  160.4450  211.3010  138.2300 C   0  0  2  0  0  3  0  0  0  0  0  0
  159.4040  213.0240  140.5630 C   0  0  0  0  0  3  0  0  0  0  0  0
  162.4560  212.8140  137.8690 C   0  0  0  0  0  2  0  0  0  0  0  0
  158.6560  209.8050  139.1280 O   0  0  0  0  0  1  0  0  0  0  0  0
  163.0490  210.5420  139.0180 C   0  0  0  0  0  2  0  0  0  0  0  0
  160.6210  211.0460  139.7510 C   0  0  2  0  0  0  0  0  0  0  0  0
  158.4530  212.2250  139.6960 C   0  0  0  0  0  3  0  0  0  0  0  0
  160.9160  212.7240  137.9240 C   0  0  0  0  0  2  0  0  0  0  0  0
  161.7890  210.0430  139.7840 C   0  0  0  0  0  2  0  0  0  0  0  0
  159.2530  211.0660  139.1310 C   0  0  1  0  0  0  0  0  0  0  0  0
  160.6960  212.2520  140.7010 C   0  0  2  0  0  3  0  0  0  0  0  0
  160.3860  212.5340  149.2630 C   0  0  0  0  0  2  0  0  0  0  0  0
  160.4530  213.8680  150.0140 C   0  0  0  0  0  2  0  0  0  0  0  0
  159.3010  214.0160  150.8930 N   0  0  0  0  0  2  0  0  0  0  0  0
  159.1370  212.7750  151.6240 C   0  0  0  0  0  1  0  0  0  0  0  0
  160.8670  208.2910  150.5780 C   0  0  0  0  0  2  0  0  0  0  0  0
  160.8330  208.5950  152.0120 N   0  0  0  0  0  2  0  0  0  0  0  0
  160.9350  206.3780  152.7410 O   0  0  0  0  0  0  0  0  0  0  0  0
  160.8510  207.5990  153.0470 C   0  0  0  0  0  0  0  0  0  0  0  0
  161.6860  210.7890  156.8740 C   0  0  0  0  0  1  0  0  0  0  0  0
  160.5710  208.5880  157.2030 C   0  0  0  0  0  3  0  0  0  0  0  0
  160.0110  207.4110  156.7160 C   0  0  0  0  0  3  0  0  0  0  0  0
  160.7700  207.9760  154.4800 C   0  0  0  0  0  0  0  0  0  0  0  0
  161.1820  209.4980  156.3320 C   0  0  0  0  0  0  0  0  0  0  0  0
  161.2750  209.2030  154.9650 C   0  0  0  0  0  0  0  0  0  0  0  0
  161.7800  210.1310  154.1040 F   0  0  0  0  0  0  0  0  0  0  0  0
  160.0960  207.1150  155.3600 C   0  0  0  0  0  3  0  0  0  0  0  0
  1 27  1  1  0  0  0
  1  4  1  0  0  0  0
  2  4  1  0  0  0  0
  2 51  1  1  0  0  0
  3  6  1  0  0  0  0
  5  6  2  0  0  0  0
  5  1  1  0  0  0  0
  6  2  1  0  0  0  0
  7  3  1  0  0  0  0
  8  9  1  0  0  0  0
  8 11  1  0  0  0  0
  9 10  2  0  0  0  0
 10 12  1  0  0  0  0
 10 13  1  0  0  0  0
 11 13  2  0  0  0  0
 12  7  1  0  0  0  0
 14  8  1  0  0  0  0
 14 15  1  0  0  0  0
 15 16  1  6  0  0  0
 17 20  1  0  0  0  0
 18 15  1  6  0  0  0
 18 17  1  0  0  0  0
 18 21  1  0  0  0  0
 19 24  1  1  0  0  0
 20 19  1  0  0  0  0
 20 23  1  1  0  0  0
 21 19  1  0  0  0  0
 22 23  1  0  0  0  0
 24 26  1  0  0  0  0
 26 25  1  0  0  0  0
 27 47  1  1  0  0  0
 28 30  1  0  0  0  0
 29 30  2  0  0  0  0
 30 27  1  0  0  0  0
 31 28  1  0  0  0  0
 32 31  1  0  0  0  0
 33 32  1  0  0  0  0
 34 33  1  0  0  0  0
 36 43  1  1  0  0  0
 36 45  1  0  0  0  0
 36 41  1  0  0  0  0
 37 46  1  0  0  0  0
 38 43  1  0  0  0  0
 38 35  1  0  0  0  0
 40 35  1  0  0  0  0
 40 44  1  0  0  0  0
 41 44  1  1  0  0  0
 41 46  1  0  0  0  0
 42 37  2  0  0  0  0
 45 39  1  6  0  0  0
 45 42  1  0  0  0  0
 45 41  1  0  0  0  0
 46 34  1  1  0  0  0
 47 48  1  0  0  0  0
 48 49  1  0  0  0  0
 49 50  1  0  0  0  0
 51 52  1  0  0  0  0
 52 54  1  0  0  0  0
 53 54  2  0  0  0  0
 54 58  1  0  0  0  0
 57 56  1  0  0  0  0
 58 60  2  0  0  0  0
 58 62  1  0  0  0  0
 59 55  1  0  0  0  0
 59 56  2  0  0  0  0
 60 59  1  0  0  0  0
 61 60  1  0  0  0  0
 62 57  2  0  0  0  0
M  END
>  <MODEL>
9

>  <REMARK>
 VINA RESULT:      -2.9      2.728     11.528
  Name = 
  21 active torsions:
  status: ('A' for Active; 'I' for Inactive)
    1  A    between atoms: N_1  and  C_54
    2  A    between atoms: C_3  and  C_60
    3  A    between atoms: C_3  and  C_62
    4  A    between atoms: C_5  and  C_18
    5  A    between atoms: C_5  and  C_20
    6  A    between atoms: C_6  and  C_44
    7  A    between atoms: C_6  and  C_60
    8  A    between atoms: C_7  and  C_47
    9  A    between atoms: C_8  and  C_54
   10  A    between atoms: N_11  and  C_20
   11  A    between atoms: C_14  and  C_38
   12  A    between atoms: N_15  and  C_44
   13  A    between atoms: C_19  and  N_24
   14  A    between atoms: C_19  and  N_55
   15  A    between atoms: N_21  and  C_46
   16  A    between atoms: O_26  and  C_31
   17  A    between atoms: C_30  and  C_53
   18  A    between atoms: C_31  and  C_36
   19  A    between atoms: C_39  and  C_46
   20  A    between atoms: C_39  and  C_47
   21  A    between atoms: C_47  and  C_49
                            x       y       z     vdW  Elec       q    Type
                         _______ _______ _______ _____ _____    ______ ____

>  <TORSDO>
F 21

$$$$
