=
 OpenBabel11052410503D

 28 29  0  0  1  0  0  0  0  0999 V2000
  161.0370  207.5570  151.5410 C   0  0  1  0  0  3  0  0  0  0  0  0
  161.5250  208.3790  150.3880 C   0  0  0  0  0  0  0  0  0  0  0  0
  162.3220  211.2290  148.7290 C   0  0  0  0  0  0  0  0  0  0  0  0
  161.5710  209.6750  150.4040 N   0  0  0  0  0  0  0  0  0  0  0  0
  162.0000  207.7970  149.1740 N   0  0  0  0  0  0  0  0  0  0  0  0
  162.5430  212.4480  148.3290 C   0  0  0  0  0  3  0  0  0  0  0  0
  162.3770  208.8590  148.3480 N   0  0  0  0  0  0  0  0  0  0  0  0
  162.1020  210.0080  149.1290 C   0  0  0  0  0  0  0  0  0  0  0  0
  161.0640  213.3840  146.5510 C   0  0  0  0  0  0  0  0  0  0  0  0
  162.3010  212.8080  146.9710 N   0  0  0  0  0  2  0  0  0  0  0  0
  160.1320  213.5800  147.3750 O   0  0  0  0  0  0  0  0  0  0  0  0
  160.8620  213.7240  145.1160 C   0  0  0  0  0  2  0  0  0  0  0  0
  162.0490  213.3720  144.3580 N   0  0  0  0  0  1  0  0  0  0  0  0
  161.4910  206.1420  151.4110 C   0  0  0  0  0  3  0  0  0  0  0  0
  160.7110  205.2480  150.8940 N   0  0  0  0  0  0  0  0  0  0  0  0
  161.5160  203.2310  151.7460 O   0  0  0  0  0  0  0  0  0  0  0  0
  161.1030  203.8790  150.7440 C   0  0  0  0  0  0  0  0  0  0  0  0
  161.0200  203.2370  149.4100 C   0  0  0  0  0  0  0  0  0  0  0  0
  160.8310  201.5170  145.5710 N   0  0  0  0  0  1  0  0  0  0  0  0
  161.3960  203.9790  148.2820 C   0  0  0  0  0  3  0  0  0  0  0  0
  160.5810  201.9070  149.2140 C   0  0  0  0  0  0  0  0  0  0  0  0
  161.3380  203.4190  147.0080 C   0  0  0  0  0  3  0  0  0  0  0  0
  160.5340  201.3870  147.9580 N   0  0  0  0  0  0  0  0  0  0  0  0
  160.1820  201.0870  150.3090 N   0  0  0  0  0  1  0  0  0  0  0  0
  160.8980  202.1050  146.8640 C   0  0  0  0  0  0  0  0  0  0  0  0
  161.5260  208.1280  152.8650 C   0  0  0  0  0  2  0  0  0  0  0  0
  160.6020  208.5310  155.2970 C   0  0  0  0  0  1  0  0  0  0  0  0
  160.9810  207.0910  154.2580 S   0  0  0  0  0  0  0  0  0  0  0  0
  1 14  1  6  0  0  0
  1 26  1  0  0  0  0
  2  4  2  0  0  0  0
  2  1  1  0  0  0  0
  3  8  2  0  0  0  0
  5  2  1  0  0  0  0
  6  3  2  0  0  0  0
  7  8  1  0  0  0  0
  7  5  2  0  0  0  0
  8  4  1  0  0  0  0
  9 10  1  0  0  0  0
  9 11  2  0  0  0  0
 10  6  1  0  0  0  0
 12  9  1  0  0  0  0
 13 12  1  0  0  0  0
 15 14  2  0  0  0  0
 17 15  1  0  0  0  0
 17 16  2  0  0  0  0
 18 17  1  0  0  0  0
 19 25  1  0  0  0  0
 20 18  2  0  0  0  0
 21 18  1  0  0  0  0
 21 24  1  0  0  0  0
 22 20  1  0  0  0  0
 23 21  2  0  0  0  0
 25 22  2  0  0  0  0
 25 23  1  0  0  0  0
 26 28  1  0  0  0  0
 28 27  1  0  0  0  0
M  END
>  <MODEL>
1

>  <REMARK>
 VINA RESULT:      -7.1      0.000      0.000
  Name = 
  8 active torsions:
  status: ('A' for Active; 'I' for Inactive)
    1  A    between atoms: C_1  and  C_5
    2  A    between atoms: C_2  and  C_9
    3  A    between atoms: C_3  and  C_25
    4  A    between atoms: C_7  and  C_9
    5  A    between atoms: C_7  and  S_27
    6  A    between atoms: C_8  and  C_9
    7  A    between atoms: C_19  and  N_21
    8  A    between atoms: N_20  and  C_25
                            x       y       z     vdW  Elec       q    Type
                         _______ _______ _______ _____ _____    ______ ____

>  <TORSDO>
F 8

$$$$
=
 OpenBabel11052410503D

 28 29  0  0  1  0  0  0  0  0999 V2000
  162.1480  209.2690  148.7900 C   0  0  1  0  0  3  0  0  0  0  0  0
  162.0010  209.1080  150.2720 C   0  0  0  0  0  0  0  0  0  0  0  0
  161.2380  207.4940  153.1570 C   0  0  0  0  0  0  0  0  0  0  0  0
  161.5520  208.0290  150.8330 N   0  0  0  0  0  0  0  0  0  0  0  0
  162.3630  210.1350  151.1970 N   0  0  0  0  0  0  0  0  0  0  0  0
  160.8770  206.6620  154.0920 C   0  0  0  0  0  3  0  0  0  0  0  0
  162.1020  209.6270  152.4720 N   0  0  0  0  0  0  0  0  0  0  0  0
  161.6010  208.3260  152.2210 C   0  0  0  0  0  0  0  0  0  0  0  0
  160.7360  208.2050  156.0470 C   0  0  0  0  0  0  0  0  0  0  0  0
  160.2050  207.1440  155.2530 N   0  0  0  0  0  2  0  0  0  0  0  0
  161.8360  208.7430  155.7510 O   0  0  0  0  0  0  0  0  0  0  0  0
  159.9990  208.6550  157.2590 C   0  0  0  0  0  2  0  0  0  0  0  0
  159.8510  210.0990  157.2330 N   0  0  0  0  0  1  0  0  0  0  0  0
  161.5170  208.1250  148.0710 C   0  0  0  0  0  3  0  0  0  0  0  0
  162.2250  207.0970  147.7250 N   0  0  0  0  0  0  0  0  0  0  0  0
  161.4120  206.0560  145.8020 O   0  0  0  0  0  0  0  0  0  0  0  0
  161.6640  205.9740  147.0360 C   0  0  0  0  0  0  0  0  0  0  0  0
  161.3840  204.7240  147.7830 C   0  0  0  0  0  0  0  0  0  0  0  0
  160.5750  201.2410  150.0080 N   0  0  0  0  0  1  0  0  0  0  0  0
  161.1430  204.8040  149.1620 C   0  0  0  0  0  3  0  0  0  0  0  0
  161.3460  203.4470  147.1750 C   0  0  0  0  0  0  0  0  0  0  0  0
  160.8740  203.6580  149.9070 C   0  0  0  0  0  3  0  0  0  0  0  0
  161.0810  202.3450  147.9280 N   0  0  0  0  0  0  0  0  0  0  0  0
  161.5790  203.2820  145.7800 N   0  0  0  0  0  1  0  0  0  0  0  0
  160.8470  202.4220  149.2650 C   0  0  0  0  0  0  0  0  0  0  0  0
  161.5230  210.5740  148.3170 C   0  0  0  0  0  2  0  0  0  0  0  0
  161.5310  213.1550  147.8030 C   0  0  0  0  0  1  0  0  0  0  0  0
  162.7600  211.9090  148.2860 S   0  0  0  0  0  0  0  0  0  0  0  0
  1 14  1  6  0  0  0
  1  2  1  0  0  0  0
  2  4  2  0  0  0  0
  2  5  1  0  0  0  0
  3  6  2  0  0  0  0
  4  8  1  0  0  0  0
  5  7  2  0  0  0  0
  6 10  1  0  0  0  0
  8  7  1  0  0  0  0
  8  3  2  0  0  0  0
  9 12  1  0  0  0  0
 10  9  1  0  0  0  0
 11  9  2  0  0  0  0
 13 12  1  0  0  0  0
 15 14  2  0  0  0  0
 16 17  2  0  0  0  0
 17 15  1  0  0  0  0
 17 18  1  0  0  0  0
 18 20  1  0  0  0  0
 20 22  2  0  0  0  0
 21 18  2  0  0  0  0
 21 23  1  0  0  0  0
 23 25  2  0  0  0  0
 24 21  1  0  0  0  0
 25 22  1  0  0  0  0
 25 19  1  0  0  0  0
 26  1  1  0  0  0  0
 27 28  1  0  0  0  0
 28 26  1  0  0  0  0
M  END
>  <MODEL>
2

>  <REMARK>
 VINA RESULT:      -7.1      3.215      6.463
  Name = 
  8 active torsions:
  status: ('A' for Active; 'I' for Inactive)
    1  A    between atoms: C_1  and  C_5
    2  A    between atoms: C_2  and  C_9
    3  A    between atoms: C_3  and  C_25
    4  A    between atoms: C_7  and  C_9
    5  A    between atoms: C_7  and  S_27
    6  A    between atoms: C_8  and  C_9
    7  A    between atoms: C_19  and  N_21
    8  A    between atoms: N_20  and  C_25
                            x       y       z     vdW  Elec       q    Type
                         _______ _______ _______ _____ _____    ______ ____

>  <TORSDO>
F 8

$$$$
=
 OpenBabel11052410503D

 28 29  0  0  1  0  0  0  0  0999 V2000
  162.0690  207.8550  151.1760 C   0  0  1  0  0  3  0  0  0  0  0  0
  161.7190  208.7670  152.3120 C   0  0  0  0  0  0  0  0  0  0  0  0
  160.0870  209.7300  155.1250 C   0  0  0  0  0  0  0  0  0  0  0  0
  160.8250  208.4820  153.2070 N   0  0  0  0  0  0  0  0  0  0  0  0
  162.3580  210.0280  152.5110 N   0  0  0  0  0  0  0  0  0  0  0  0
  159.3330  209.8510  156.1800 C   0  0  0  0  0  3  0  0  0  0  0  0
  161.7880  210.5820  153.6600 N   0  0  0  0  0  0  0  0  0  0  0  0
  160.8430  209.6100  154.0700 C   0  0  0  0  0  0  0  0  0  0  0  0
  157.4920  211.5340  156.0920 C   0  0  0  0  0  0  0  0  0  0  0  0
  158.7890  211.1230  156.5250 N   0  0  0  0  0  2  0  0  0  0  0  0
  156.7870  210.7820  155.3680 O   0  0  0  0  0  0  0  0  0  0  0  0
  156.9840  212.8800  156.4700 C   0  0  0  0  0  2  0  0  0  0  0  0
  156.0180  213.3320  155.4850 N   0  0  0  0  0  1  0  0  0  0  0  0
  161.8860  206.4280  151.5700 C   0  0  0  0  0  3  0  0  0  0  0  0
  161.1730  205.6330  150.8390 N   0  0  0  0  0  0  0  0  0  0  0  0
  160.7420  203.9260  152.3700 O   0  0  0  0  0  0  0  0  0  0  0  0
  160.9710  204.2550  151.1730 C   0  0  0  0  0  0  0  0  0  0  0  0
  161.0340  203.2270  150.1060 C   0  0  0  0  0  0  0  0  0  0  0  0
  161.1980  200.2200  147.1620 N   0  0  0  0  0  1  0  0  0  0  0  0
  160.9690  201.8750  150.4700 C   0  0  0  0  0  3  0  0  0  0  0  0
  161.1560  203.5400  148.7320 C   0  0  0  0  0  0  0  0  0  0  0  0
  161.0220  200.8720  149.5040 C   0  0  0  0  0  3  0  0  0  0  0  0
  161.2050  202.5400  147.8110 N   0  0  0  0  0  0  0  0  0  0  0  0
  161.2270  204.8890  148.2810 N   0  0  0  0  0  1  0  0  0  0  0  0
  161.1420  201.2290  148.1620 C   0  0  0  0  0  0  0  0  0  0  0  0
  161.2200  208.1570  149.9500 C   0  0  0  0  0  2  0  0  0  0  0  0
  162.1030  210.2750  148.6610 C   0  0  0  0  0  1  0  0  0  0  0  0
  162.2690  208.4750  148.4980 S   0  0  0  0  0  0  0  0  0  0  0  0
  1 26  1  6  0  0  0
  1 14  1  0  0  0  0
  1  2  1  0  0  0  0
  2  5  1  0  0  0  0
  2  4  2  0  0  0  0
  3  6  2  0  0  0  0
  4  8  1  0  0  0  0
  5  7  2  0  0  0  0
  6 10  1  0  0  0  0
  7  8  1  0  0  0  0
  8  3  2  0  0  0  0
  9 12  1  0  0  0  0
  9 10  1  0  0  0  0
 11  9  2  0  0  0  0
 13 12  1  0  0  0  0
 15 17  1  0  0  0  0
 15 14  2  0  0  0  0
 17 16  2  0  0  0  0
 18 20  1  0  0  0  0
 18 17  1  0  0  0  0
 19 25  1  0  0  0  0
 21 18  2  0  0  0  0
 22 20  2  0  0  0  0
 23 25  2  0  0  0  0
 23 21  1  0  0  0  0
 24 21  1  0  0  0  0
 25 22  1  0  0  0  0
 28 27  1  0  0  0  0
 28 26  1  0  0  0  0
M  END
>  <MODEL>
3

>  <REMARK>
 VINA RESULT:      -6.9      3.521      5.881
  Name = 
  8 active torsions:
  status: ('A' for Active; 'I' for Inactive)
    1  A    between atoms: C_1  and  C_5
    2  A    between atoms: C_2  and  C_9
    3  A    between atoms: C_3  and  C_25
    4  A    between atoms: C_7  and  C_9
    5  A    between atoms: C_7  and  S_27
    6  A    between atoms: C_8  and  C_9
    7  A    between atoms: C_19  and  N_21
    8  A    between atoms: N_20  and  C_25
                            x       y       z     vdW  Elec       q    Type
                         _______ _______ _______ _____ _____    ______ ____

>  <TORSDO>
F 8

$$$$
=
 OpenBabel11052410503D

 28 29  0  0  1  0  0  0  0  0999 V2000
  162.2950  209.8270  150.7770 C   0  0  1  0  0  3  0  0  0  0  0  0
  161.9240  208.5920  150.0150 C   0  0  0  0  0  0  0  0  0  0  0  0
  161.0750  205.3310  149.6170 C   0  0  0  0  0  0  0  0  0  0  0  0
  161.7010  207.4450  150.5780 N   0  0  0  0  0  0  0  0  0  0  0  0
  161.7690  208.5800  148.5950 N   0  0  0  0  0  0  0  0  0  0  0  0
  160.7700  204.0720  149.7450 C   0  0  0  0  0  3  0  0  0  0  0  0
  161.4130  207.2750  148.2480 N   0  0  0  0  0  0  0  0  0  0  0  0
  161.3790  206.5920  149.4890 C   0  0  0  0  0  0  0  0  0  0  0  0
  160.5810  201.8590  148.6090 C   0  0  0  0  0  0  0  0  0  0  0  0
  161.2110  203.1290  148.7710 N   0  0  0  0  0  2  0  0  0  0  0  0
  159.6140  201.5210  149.3430 O   0  0  0  0  0  0  0  0  0  0  0  0
  161.0950  200.9090  147.5860 C   0  0  0  0  0  2  0  0  0  0  0  0
  160.8040  201.4160  146.2570 N   0  0  0  0  0  1  0  0  0  0  0  0
  161.6210  211.0250  150.1990 C   0  0  0  0  0  3  0  0  0  0  0  0
  162.1270  211.6320  149.1740 N   0  0  0  0  0  0  0  0  0  0  0  0
  161.0240  213.6830  149.3210 O   0  0  0  0  0  0  0  0  0  0  0  0
  161.5140  212.7840  148.5820 C   0  0  0  0  0  0  0  0  0  0  0  0
  161.4630  212.9060  147.1050 C   0  0  0  0  0  0  0  0  0  0  0  0
  161.4390  213.2700  142.9100 N   0  0  0  0  0  1  0  0  0  0  0  0
  162.6550  213.1490  146.4090 C   0  0  0  0  0  3  0  0  0  0  0  0
  160.2680  212.7910  146.3580 C   0  0  0  0  0  0  0  0  0  0  0  0
  162.6570  213.2710  145.0210 C   0  0  0  0  0  3  0  0  0  0  0  0
  160.3010  212.9140  145.0030 N   0  0  0  0  0  0  0  0  0  0  0  0
  159.0160  212.5440  146.9910 N   0  0  0  0  0  1  0  0  0  0  0  0
  161.4560  213.1490  144.3270 C   0  0  0  0  0  0  0  0  0  0  0  0
  161.9240  209.6940  152.2470 C   0  0  0  0  0  2  0  0  0  0  0  0
  160.8990  211.1610  154.1770 C   0  0  0  0  0  1  0  0  0  0  0  0
  160.3270  210.4970  152.5870 S   0  0  0  0  0  0  0  0  0  0  0  0
  1 14  1  6  0  0  0
  1 26  1  0  0  0  0
  2  4  2  0  0  0  0
  2  1  1  0  0  0  0
  3  6  2  0  0  0  0
  5  2  1  0  0  0  0
  7  5  2  0  0  0  0
  7  8  1  0  0  0  0
  8  3  2  0  0  0  0
  8  4  1  0  0  0  0
  9 10  1  0  0  0  0
  9 11  2  0  0  0  0
 10  6  1  0  0  0  0
 12  9  1  0  0  0  0
 13 12  1  0  0  0  0
 15 14  2  0  0  0  0
 17 15  1  0  0  0  0
 17 16  2  0  0  0  0
 18 17  1  0  0  0  0
 19 25  1  0  0  0  0
 20 18  1  0  0  0  0
 21 24  1  0  0  0  0
 21 18  2  0  0  0  0
 22 20  2  0  0  0  0
 23 21  1  0  0  0  0
 25 23  2  0  0  0  0
 25 22  1  0  0  0  0
 26 28  1  0  0  0  0
 28 27  1  0  0  0  0
M  END
>  <MODEL>
4

>  <REMARK>
 VINA RESULT:      -6.8      1.927      8.700
  Name = 
  8 active torsions:
  status: ('A' for Active; 'I' for Inactive)
    1  A    between atoms: C_1  and  C_5
    2  A    between atoms: C_2  and  C_9
    3  A    between atoms: C_3  and  C_25
    4  A    between atoms: C_7  and  C_9
    5  A    between atoms: C_7  and  S_27
    6  A    between atoms: C_8  and  C_9
    7  A    between atoms: C_19  and  N_21
    8  A    between atoms: N_20  and  C_25
                            x       y       z     vdW  Elec       q    Type
                         _______ _______ _______ _____ _____    ______ ____

>  <TORSDO>
F 8

$$$$
=
 OpenBabel11052410503D

 28 29  0  0  1  0  0  0  0  0999 V2000
  160.8080  206.0320  151.0600 C   0  0  1  0  0  3  0  0  0  0  0  0
  161.0960  207.3710  151.6680 C   0  0  0  0  0  0  0  0  0  0  0  0
  161.2060  209.6980  154.1340 C   0  0  0  0  0  0  0  0  0  0  0  0
  160.8330  207.6660  152.9030 N   0  0  0  0  0  0  0  0  0  0  0  0
  161.7050  208.4350  150.9340 N   0  0  0  0  0  0  0  0  0  0  0  0
  161.1340  210.3870  155.2360 C   0  0  0  0  0  3  0  0  0  0  0  0
  161.8250  209.5060  151.8220 N   0  0  0  0  0  0  0  0  0  0  0  0
  161.2790  209.0080  153.0300 C   0  0  0  0  0  0  0  0  0  0  0  0
  159.6000  212.2970  155.7080 C   0  0  0  0  0  0  0  0  0  0  0  0
  160.8240  211.7770  155.1890 N   0  0  0  0  0  2  0  0  0  0  0  0
  158.7390  211.5300  156.2150 O   0  0  0  0  0  0  0  0  0  0  0  0
  159.3240  213.7560  155.6160 C   0  0  0  0  0  2  0  0  0  0  0  0
  158.6020  214.0410  154.3890 N   0  0  0  0  0  1  0  0  0  0  0  0
  160.9230  206.0920  149.5740 C   0  0  0  0  0  3  0  0  0  0  0  0
  161.6630  205.2400  148.9390 N   0  0  0  0  0  0  0  0  0  0  0  0
  162.3330  206.2490  146.9450 O   0  0  0  0  0  0  0  0  0  0  0  0
  161.8030  205.2540  147.5140 C   0  0  0  0  0  0  0  0  0  0  0  0
  161.3210  204.0980  146.7210 C   0  0  0  0  0  0  0  0  0  0  0  0
  159.9670  200.7420  144.5680 N   0  0  0  0  0  1  0  0  0  0  0  0
  161.2770  202.8360  147.3300 C   0  0  0  0  0  3  0  0  0  0  0  0
  160.8990  204.2010  145.3750 C   0  0  0  0  0  0  0  0  0  0  0  0
  160.8310  201.7200  146.6260 C   0  0  0  0  0  3  0  0  0  0  0  0
  160.4680  203.0930  144.7130 N   0  0  0  0  0  0  0  0  0  0  0  0
  160.9120  205.4480  144.6860 N   0  0  0  0  0  1  0  0  0  0  0  0
  160.4250  201.8690  145.3020 C   0  0  0  0  0  0  0  0  0  0  0  0
  161.7550  204.9710  151.6010 C   0  0  0  0  0  2  0  0  0  0  0  0
  161.2730  202.4370  151.0790 C   0  0  0  0  0  1  0  0  0  0  0  0
  160.8280  203.6160  152.3860 S   0  0  0  0  0  0  0  0  0  0  0  0
  1 14  1  6  0  0  0
  1 26  1  0  0  0  0
  1  2  1  0  0  0  0
  2  4  2  0  0  0  0
  3  6  2  0  0  0  0
  4  8  1  0  0  0  0
  5  2  1  0  0  0  0
  5  7  2  0  0  0  0
  7  8  1  0  0  0  0
  8  3  2  0  0  0  0
  9 11  2  0  0  0  0
 10  6  1  0  0  0  0
 10  9  1  0  0  0  0
 12  9  1  0  0  0  0
 13 12  1  0  0  0  0
 15 14  2  0  0  0  0
 16 17  2  0  0  0  0
 17 15  1  0  0  0  0
 18 20  1  0  0  0  0
 18 17  1  0  0  0  0
 19 25  1  0  0  0  0
 21 18  2  0  0  0  0
 22 20  2  0  0  0  0
 23 25  2  0  0  0  0
 23 21  1  0  0  0  0
 24 21  1  0  0  0  0
 25 22  1  0  0  0  0
 26 28  1  0  0  0  0
 27 28  1  0  0  0  0
M  END
>  <MODEL>
5

>  <REMARK>
 VINA RESULT:      -6.7      4.198      5.491
  Name = 
  8 active torsions:
  status: ('A' for Active; 'I' for Inactive)
    1  A    between atoms: C_1  and  C_5
    2  A    between atoms: C_2  and  C_9
    3  A    between atoms: C_3  and  C_25
    4  A    between atoms: C_7  and  C_9
    5  A    between atoms: C_7  and  S_27
    6  A    between atoms: C_8  and  C_9
    7  A    between atoms: C_19  and  N_21
    8  A    between atoms: N_20  and  C_25
                            x       y       z     vdW  Elec       q    Type
                         _______ _______ _______ _____ _____    ______ ____

>  <TORSDO>
F 8

$$$$
=
 OpenBabel11052410503D

 28 29  0  0  1  0  0  0  0  0999 V2000
  162.3970  209.8830  150.6710 C   0  0  1  0  0  3  0  0  0  0  0  0
  161.9200  208.6390  149.9850 C   0  0  0  0  0  0  0  0  0  0  0  0
  160.9920  205.3840  149.7590 C   0  0  0  0  0  0  0  0  0  0  0  0
  161.7570  207.5050  150.5940 N   0  0  0  0  0  0  0  0  0  0  0  0
  161.5890  208.6050  148.5960 N   0  0  0  0  0  0  0  0  0  0  0  0
  160.6910  204.1310  149.9470 C   0  0  0  0  0  3  0  0  0  0  0  0
  161.1780  207.2980  148.3210 N   0  0  0  0  0  0  0  0  0  0  0  0
  161.2920  206.6380  149.5700 C   0  0  0  0  0  0  0  0  0  0  0  0
  160.8560  201.7640  149.1750 C   0  0  0  0  0  0  0  0  0  0  0  0
  160.9970  203.1660  148.9430 N   0  0  0  0  0  2  0  0  0  0  0  0
  160.4670  201.3320  150.2930 O   0  0  0  0  0  0  0  0  0  0  0  0
  161.2050  200.8030  148.0950 C   0  0  0  0  0  2  0  0  0  0  0  0
  161.0700  201.4490  146.8020 N   0  0  0  0  0  1  0  0  0  0  0  0
  161.8950  211.0980  149.9680 C   0  0  0  0  0  3  0  0  0  0  0  0
  162.5520  211.5960  148.9700 N   0  0  0  0  0  0  0  0  0  0  0  0
  162.8890  213.7420  148.1180 O   0  0  0  0  0  0  0  0  0  0  0  0
  162.1090  212.7590  148.2610 C   0  0  0  0  0  0  0  0  0  0  0  0
  160.7360  212.7950  147.7020 C   0  0  0  0  0  0  0  0  0  0  0  0
  156.8790  212.8420  146.0130 N   0  0  0  0  0  1  0  0  0  0  0  0
  160.5180  212.2730  146.4190 C   0  0  0  0  0  3  0  0  0  0  0  0
  159.6280  213.3320  148.3980 C   0  0  0  0  0  0  0  0  0  0  0  0
  159.2460  212.2840  145.8520 C   0  0  0  0  0  3  0  0  0  0  0  0
  158.3970  213.3290  147.8180 N   0  0  0  0  0  0  0  0  0  0  0  0
  159.7670  213.8810  149.7050 N   0  0  0  0  0  1  0  0  0  0  0  0
  158.1840  212.8220  146.5750 C   0  0  0  0  0  0  0  0  0  0  0  0
  161.9440  209.9120  152.1240 C   0  0  0  0  0  2  0  0  0  0  0  0
  160.7120  211.1270  154.1090 C   0  0  0  0  0  1  0  0  0  0  0  0
  160.4620  210.9500  152.3190 S   0  0  0  0  0  0  0  0  0  0  0  0
  1 14  1  6  0  0  0
  1 26  1  0  0  0  0
  2  4  2  0  0  0  0
  2  1  1  0  0  0  0
  3  6  2  0  0  0  0
  5  2  1  0  0  0  0
  7  5  2  0  0  0  0
  7  8  1  0  0  0  0
  8  3  2  0  0  0  0
  8  4  1  0  0  0  0
  9 11  2  0  0  0  0
 10  9  1  0  0  0  0
 10  6  1  0  0  0  0
 12  9  1  0  0  0  0
 13 12  1  0  0  0  0
 15 14  2  0  0  0  0
 16 17  2  0  0  0  0
 17 15  1  0  0  0  0
 18 17  1  0  0  0  0
 18 21  1  0  0  0  0
 19 25  1  0  0  0  0
 20 18  2  0  0  0  0
 21 24  1  0  0  0  0
 22 20  1  0  0  0  0
 22 25  2  0  0  0  0
 23 21  2  0  0  0  0
 25 23  1  0  0  0  0
 26 28  1  0  0  0  0
 28 27  1  0  0  0  0
M  END
>  <MODEL>
6

>  <REMARK>
 VINA RESULT:      -6.6      2.399      8.753
  Name = 
  8 active torsions:
  status: ('A' for Active; 'I' for Inactive)
    1  A    between atoms: C_1  and  C_5
    2  A    between atoms: C_2  and  C_9
    3  A    between atoms: C_3  and  C_25
    4  A    between atoms: C_7  and  C_9
    5  A    between atoms: C_7  and  S_27
    6  A    between atoms: C_8  and  C_9
    7  A    between atoms: C_19  and  N_21
    8  A    between atoms: N_20  and  C_25
                            x       y       z     vdW  Elec       q    Type
                         _______ _______ _______ _____ _____    ______ ____

>  <TORSDO>
F 8

$$$$
=
 OpenBabel11052410503D

 28 29  0  0  1  0  0  0  0  0999 V2000
  162.3050  209.4860  150.4570 C   0  0  1  0  0  3  0  0  0  0  0  0
  161.9580  208.2900  149.6250 C   0  0  0  0  0  0  0  0  0  0  0  0
  162.0910  206.2530  146.9150 C   0  0  0  0  0  0  0  0  0  0  0  0
  162.4480  208.0750  148.4430 N   0  0  0  0  0  0  0  0  0  0  0  0
  161.0640  207.2710  150.0760 N   0  0  0  0  0  0  0  0  0  0  0  0
  162.3240  205.6630  145.7780 C   0  0  0  0  0  3  0  0  0  0  0  0
  160.9960  206.3250  149.0500 N   0  0  0  0  0  0  0  0  0  0  0  0
  161.8580  206.8440  148.0530 C   0  0  0  0  0  0  0  0  0  0  0  0
  160.9880  203.6040  145.3290 C   0  0  0  0  0  0  0  0  0  0  0  0
  161.2710  204.9840  145.0980 N   0  0  0  0  0  2  0  0  0  0  0  0
  161.6800  202.9320  146.1390 O   0  0  0  0  0  0  0  0  0  0  0  0
  159.8860  202.9450  144.5780 C   0  0  0  0  0  2  0  0  0  0  0  0
  159.8460  201.5320  144.9090 N   0  0  0  0  0  1  0  0  0  0  0  0
  161.6060  210.7020  149.9510 C   0  0  0  0  0  3  0  0  0  0  0  0
  162.1550  211.4440  149.0430 N   0  0  0  0  0  0  0  0  0  0  0  0
  161.0020  213.4540  149.3140 O   0  0  0  0  0  0  0  0  0  0  0  0
  161.5220  212.6190  148.5230 C   0  0  0  0  0  0  0  0  0  0  0  0
  161.4850  212.8410  147.0570 C   0  0  0  0  0  0  0  0  0  0  0  0
  161.5030  213.4890  142.8970 N   0  0  0  0  0  1  0  0  0  0  0  0
  162.6830  213.1400  146.3920 C   0  0  0  0  0  3  0  0  0  0  0  0
  160.2990  212.7680  146.2900 C   0  0  0  0  0  0  0  0  0  0  0  0
  162.6990  213.3550  145.0160 C   0  0  0  0  0  3  0  0  0  0  0  0
  160.3460  212.9830  144.9480 N   0  0  0  0  0  0  0  0  0  0  0  0
  159.0430  212.4690  146.8920 N   0  0  0  0  0  1  0  0  0  0  0  0
  161.5060  213.2720  144.3010 C   0  0  0  0  0  0  0  0  0  0  0  0
  161.9390  209.2600  151.9170 C   0  0  0  0  0  2  0  0  0  0  0  0
  160.8210  209.9510  154.1980 C   0  0  0  0  0  1  0  0  0  0  0  0
  160.6730  210.4500  152.4590 S   0  0  0  0  0  0  0  0  0  0  0  0
  1 14  1  6  0  0  0
  1 26  1  0  0  0  0
  2  5  1  0  0  0  0
  2  1  1  0  0  0  0
  3  8  2  0  0  0  0
  4  2  2  0  0  0  0
  6  3  2  0  0  0  0
  7  5  2  0  0  0  0
  8  4  1  0  0  0  0
  8  7  1  0  0  0  0
  9 11  2  0  0  0  0
 10  9  1  0  0  0  0
 10  6  1  0  0  0  0
 12 13  1  0  0  0  0
 12  9  1  0  0  0  0
 15 14  2  0  0  0  0
 17 15  1  0  0  0  0
 17 16  2  0  0  0  0
 18 17  1  0  0  0  0
 19 25  1  0  0  0  0
 20 18  1  0  0  0  0
 21 24  1  0  0  0  0
 21 18  2  0  0  0  0
 22 20  2  0  0  0  0
 23 21  1  0  0  0  0
 25 23  2  0  0  0  0
 25 22  1  0  0  0  0
 26 28  1  0  0  0  0
 28 27  1  0  0  0  0
M  END
>  <MODEL>
7

>  <REMARK>
 VINA RESULT:      -6.5      2.685      8.295
  Name = 
  8 active torsions:
  status: ('A' for Active; 'I' for Inactive)
    1  A    between atoms: C_1  and  C_5
    2  A    between atoms: C_2  and  C_9
    3  A    between atoms: C_3  and  C_25
    4  A    between atoms: C_7  and  C_9
    5  A    between atoms: C_7  and  S_27
    6  A    between atoms: C_8  and  C_9
    7  A    between atoms: C_19  and  N_21
    8  A    between atoms: N_20  and  C_25
                            x       y       z     vdW  Elec       q    Type
                         _______ _______ _______ _____ _____    ______ ____

>  <TORSDO>
F 8

$$$$
=
 OpenBabel11052410503D

 28 29  0  0  1  0  0  0  0  0999 V2000
  162.2760  206.6060  151.6840 C   0  0  1  0  0  3  0  0  0  0  0  0
  162.0930  207.4920  150.4900 C   0  0  0  0  0  0  0  0  0  0  0  0
  162.0040  210.4270  148.7910 C   0  0  0  0  0  0  0  0  0  0  0  0
  162.2150  208.7830  150.5330 N   0  0  0  0  0  0  0  0  0  0  0  0
  161.7830  206.9810  149.1930 N   0  0  0  0  0  0  0  0  0  0  0  0
  162.0370  211.6650  148.3870 C   0  0  0  0  0  3  0  0  0  0  0  0
  161.7020  208.0870  148.3430 N   0  0  0  0  0  0  0  0  0  0  0  0
  161.9710  209.1880  149.1930 C   0  0  0  0  0  0  0  0  0  0  0  0
  161.5180  212.8780  146.2700 C   0  0  0  0  0  0  0  0  0  0  0  0
  161.1070  212.1210  147.4080 N   0  0  0  0  0  2  0  0  0  0  0  0
  162.7290  213.1830  146.1030 O   0  0  0  0  0  0  0  0  0  0  0  0
  160.5000  213.3410  145.2890 C   0  0  0  0  0  2  0  0  0  0  0  0
  159.5250  212.2890  145.0630 N   0  0  0  0  0  1  0  0  0  0  0  0
  161.2840  206.9400  152.7460 C   0  0  0  0  0  3  0  0  0  0  0  0
  161.6480  207.5960  153.8010 N   0  0  0  0  0  0  0  0  0  0  0  0
  160.0270  207.0450  155.3860 O   0  0  0  0  0  0  0  0  0  0  0  0
  160.7310  207.9430  154.8450 C   0  0  0  0  0  0  0  0  0  0  0  0
  160.6200  209.3560  155.2800 C   0  0  0  0  0  0  0  0  0  0  0  0
  160.2130  213.3860  156.4300 N   0  0  0  0  0  1  0  0  0  0  0  0
  159.7100  210.1930  154.6190 C   0  0  0  0  0  3  0  0  0  0  0  0
  161.3860  209.9080  156.3330 C   0  0  0  0  0  0  0  0  0  0  0  0
  159.5680  211.5280  154.9920 C   0  0  0  0  0  3  0  0  0  0  0  0
  161.2250  211.2150  156.6760 N   0  0  0  0  0  0  0  0  0  0  0  0
  162.3300  209.1230  157.0550 N   0  0  0  0  0  1  0  0  0  0  0  0
  160.3430  212.0270  156.0360 C   0  0  0  0  0  0  0  0  0  0  0  0
  162.1380  205.1390  151.3020 C   0  0  0  0  0  2  0  0  0  0  0  0
  161.2200  202.6890  151.5920 C   0  0  0  0  0  1  0  0  0  0  0  0
  160.9300  204.3020  152.3750 S   0  0  0  0  0  0  0  0  0  0  0  0
  1 26  1  6  0  0  0
  1 14  1  0  0  0  0
  2  4  2  0  0  0  0
  2  1  1  0  0  0  0
  3  8  2  0  0  0  0
  5  2  1  0  0  0  0
  6  3  2  0  0  0  0
  7  5  2  0  0  0  0
  7  8  1  0  0  0  0
  8  4  1  0  0  0  0
  9 10  1  0  0  0  0
 10  6  1  0  0  0  0
 11  9  2  0  0  0  0
 12  9  1  0  0  0  0
 13 12  1  0  0  0  0
 14 15  2  0  0  0  0
 15 17  1  0  0  0  0
 17 18  1  0  0  0  0
 17 16  2  0  0  0  0
 18 21  1  0  0  0  0
 20 22  1  0  0  0  0
 20 18  2  0  0  0  0
 21 23  2  0  0  0  0
 21 24  1  0  0  0  0
 22 25  2  0  0  0  0
 25 19  1  0  0  0  0
 25 23  1  0  0  0  0
 26 28  1  0  0  0  0
 27 28  1  0  0  0  0
M  END
>  <MODEL>
8

>  <REMARK>
 VINA RESULT:      -6.4      3.074      6.845
  Name = 
  8 active torsions:
  status: ('A' for Active; 'I' for Inactive)
    1  A    between atoms: C_1  and  C_5
    2  A    between atoms: C_2  and  C_9
    3  A    between atoms: C_3  and  C_25
    4  A    between atoms: C_7  and  C_9
    5  A    between atoms: C_7  and  S_27
    6  A    between atoms: C_8  and  C_9
    7  A    between atoms: C_19  and  N_21
    8  A    between atoms: N_20  and  C_25
                            x       y       z     vdW  Elec       q    Type
                         _______ _______ _______ _____ _____    ______ ____

>  <TORSDO>
F 8

$$$$
=
 OpenBabel11052410503D

 28 29  0  0  1  0  0  0  0  0999 V2000
  162.1270  207.7820  150.9320 C   0  0  1  0  0  3  0  0  0  0  0  0
  161.7520  208.7200  152.0380 C   0  0  0  0  0  0  0  0  0  0  0  0
  160.0870  209.7340  154.8140 C   0  0  0  0  0  0  0  0  0  0  0  0
  160.8590  208.4440  152.9370 N   0  0  0  0  0  0  0  0  0  0  0  0
  162.3660  209.9990  152.2030 N   0  0  0  0  0  0  0  0  0  0  0  0
  159.3250  209.8710  155.8610 C   0  0  0  0  0  3  0  0  0  0  0  0
  161.7780  210.5750  153.3320 N   0  0  0  0  0  0  0  0  0  0  0  0
  160.8510  209.5970  153.7670 C   0  0  0  0  0  0  0  0  0  0  0  0
  157.3880  211.4430  155.8850 C   0  0  0  0  0  0  0  0  0  0  0  0
  158.7550  211.1410  156.1660 N   0  0  0  0  0  2  0  0  0  0  0  0
  156.6400  210.5910  155.3360 O   0  0  0  0  0  0  0  0  0  0  0  0
  156.8520  212.7930  156.2110 C   0  0  0  0  0  2  0  0  0  0  0  0
  157.9290  213.7660  156.1850 N   0  0  0  0  0  1  0  0  0  0  0  0
  161.3000  206.5420  150.9890 C   0  0  0  0  0  3  0  0  0  0  0  0
  161.8340  205.3860  150.7530 N   0  0  0  0  0  0  0  0  0  0  0  0
  160.4900  203.8360  151.8640 O   0  0  0  0  0  0  0  0  0  0  0  0
  161.0820  204.1680  150.7990 C   0  0  0  0  0  0  0  0  0  0  0  0
  161.0080  203.3090  149.5930 C   0  0  0  0  0  0  0  0  0  0  0  0
  160.8250  200.9680  146.0980 N   0  0  0  0  0  1  0  0  0  0  0  0
  161.1940  203.8990  148.3340 C   0  0  0  0  0  3  0  0  0  0  0  0
  160.7600  201.9180  149.6440 C   0  0  0  0  0  0  0  0  0  0  0  0
  161.1360  203.1330  147.1720 C   0  0  0  0  0  3  0  0  0  0  0  0
  160.7080  201.1950  148.4920 N   0  0  0  0  0  0  0  0  0  0  0  0
  160.5610  201.2440  150.8840 N   0  0  0  0  0  1  0  0  0  0  0  0
  160.8890  201.7650  147.2720 C   0  0  0  0  0  0  0  0  0  0  0  0
  161.9570  208.4450  149.5720 C   0  0  0  0  0  2  0  0  0  0  0  0
  161.1340  207.2190  147.3930 C   0  0  0  0  0  1  0  0  0  0  0  0
  162.7140  207.4350  148.2610 S   0  0  0  0  0  0  0  0  0  0  0  0
  1 26  1  6  0  0  0
  1 14  1  0  0  0  0
  1  2  1  0  0  0  0
  2  5  1  0  0  0  0
  2  4  2  0  0  0  0
  3  6  2  0  0  0  0
  4  8  1  0  0  0  0
  5  7  2  0  0  0  0
  6 10  1  0  0  0  0
  7  8  1  0  0  0  0
  8  3  2  0  0  0  0
  9 10  1  0  0  0  0
  9 12  1  0  0  0  0
 11  9  2  0  0  0  0
 13 12  1  0  0  0  0
 15 17  1  0  0  0  0
 15 14  2  0  0  0  0
 17 16  2  0  0  0  0
 18 21  1  0  0  0  0
 18 17  1  0  0  0  0
 19 25  1  0  0  0  0
 20 18  2  0  0  0  0
 21 24  1  0  0  0  0
 22 25  2  0  0  0  0
 22 20  1  0  0  0  0
 23 21  2  0  0  0  0
 25 23  1  0  0  0  0
 27 28  1  0  0  0  0
 28 26  1  0  0  0  0
M  END
>  <MODEL>
9

>  <REMARK>
 VINA RESULT:      -6.2      3.694      5.677
  Name = 
  8 active torsions:
  status: ('A' for Active; 'I' for Inactive)
    1  A    between atoms: C_1  and  C_5
    2  A    between atoms: C_2  and  C_9
    3  A    between atoms: C_3  and  C_25
    4  A    between atoms: C_7  and  C_9
    5  A    between atoms: C_7  and  S_27
    6  A    between atoms: C_8  and  C_9
    7  A    between atoms: C_19  and  N_21
    8  A    between atoms: N_20  and  C_25
                            x       y       z     vdW  Elec       q    Type
                         _______ _______ _______ _____ _____    ______ ____

>  <TORSDO>
F 8

$$$$
