=
 OpenBabel11042422023D

 59 62  0  0  1  0  0  0  0  0999 V2000
  161.9380  211.1110  152.0410 C   0  0  0  0  0  2  0  0  0  0  0  0
  160.8600  210.5040  154.2580 C   0  0  0  0  0  0  0  0  0  0  0  0
  161.6650  208.7550  152.7730 C   0  0  0  0  0  3  0  0  0  0  0  0
  161.4830  210.1100  153.0540 C   0  0  0  0  0  0  0  0  0  0  0  0
  160.4130  209.5260  155.1650 C   0  0  0  0  0  0  0  0  0  0  0  0
  160.6590  211.9540  154.5760 C   0  0  0  0  0  1  0  0  0  0  0  0
  161.2110  207.7790  153.6670 C   0  0  0  0  0  0  0  0  0  0  0  0
  160.5890  208.1670  154.8570 C   0  0  0  0  0  3  0  0  0  0  0  0
  161.3770  206.3260  153.3630 C   0  0  0  0  0  2  0  0  0  0  0  0
  162.2830  206.1390  152.1550 C   0  0  0  0  0  2  0  0  0  0  0  0
  160.9420  205.1070  150.2990 C   0  0  0  0  0  0  0  0  0  0  0  0
  161.1030  203.9620  150.8010 O   0  0  0  0  0  0  0  0  0  0  0  0
  161.5150  206.2600  150.9300 N   0  0  0  0  0  2  0  0  0  0  0  0
  160.1740  205.2380  149.1380 O   0  0  0  0  0  0  0  0  0  0  0  0
  161.5200  205.2380  145.6340 C   0  0  2  0  0  0  0  0  0  0  0  0
  160.6080  205.2730  144.4800 C   0  0  0  0  0  2  0  0  0  0  0  0
  162.8920  203.7410  147.1120 C   0  0  0  0  0  2  0  0  0  0  0  0
  161.7020  203.6580  148.0860 C   0  0  1  0  0  3  0  0  0  0  0  0
  161.7340  206.1220  144.5650 O   0  0  0  0  0  0  0  0  0  0  0  0
  162.4670  204.0440  145.6730 C   0  0  0  0  0  2  0  0  0  0  0  0
  160.9890  205.8690  146.9180 C   0  0  1  0  0  3  0  0  0  0  0  0
  160.6130  204.7350  147.8810 C   0  0  2  0  0  3  0  0  0  0  0  0
  161.3900  207.7380  148.3520 O   0  0  0  0  0  1  0  0  0  0  0  0
  162.0240  206.8060  147.5300 C   0  0  0  0  0  2  0  0  0  0  0  0
  161.0930  202.2610  148.1080 C   0  0  0  0  0  2  0  0  0  0  0  0
  159.9990  202.2110  148.9760 O   0  0  0  0  0  1  0  0  0  0  0  0
  159.7960  209.9210  156.3610 O   0  0  0  0  0  0  0  0  0  0  0  0
  158.3830  209.9920  156.5250 C   0  0  0  0  0  2  0  0  0  0  0  0
  156.2950  210.9120  155.5630 C   0  0  0  0  0  1  0  0  0  0  0  0
  157.7380  210.5570  155.2720 C   0  0  0  0  0  2  0  0  0  0  0  0
  161.2300  210.8970  150.7160 C   0  0  0  0  0  2  0  0  0  0  0  0
  160.4660  212.0850  150.3810 N   0  0  0  0  0  2  0  0  0  0  0  0
  161.2720  212.8660  149.5440 N   0  0  0  0  0  2  0  0  0  0  0  0
  160.3900  213.4750  148.5610 C   0  0  0  0  0  2  0  0  0  0  0  0
  159.1150  213.8150  149.1810 N   0  0  0  0  0  0  0  0  0  0  0  0
  157.9680  213.7900  148.5700 C   0  0  0  0  0  0  0  0  0  0  0  0
  157.3390  212.2890  146.8140 N   0  0  0  0  0  2  0  0  0  0  0  0
  158.0790  214.4380  146.1580 N   0  0  0  0  0  2  0  0  0  0  0  0
  157.8590  213.4260  147.1440 C   0  0  0  0  0  0  0  0  0  0  0  0
  157.7700  214.2490  144.7490 C   0  0  0  0  0  2  0  0  0  0  0  0
  158.8610  213.4050  144.1120 C   0  0  0  0  0  2  0  0  0  0  0  0
  159.2680  213.9530  142.7490 C   0  0  2  0  0  3  0  0  0  0  0  0
  158.1440  214.4110  142.0560 O   0  0  0  0  0  1  0  0  0  0  0  0
  159.9380  212.9810  142.0000 O   0  0  0  0  0  0  0  0  0  0  0  0
  159.8750  213.4390  140.6810 C   0  0  0  0  0  2  0  0  0  0  0  0
  159.1940  212.3960  139.8150 C   0  0  0  0  0  2  0  0  0  0  0  0
  159.9800  211.0980  139.8720 C   0  0  0  0  0  2  0  0  0  0  0  0
  159.9230  210.3810  138.5290 C   0  0  1  0  0  3  0  0  0  0  0  0
  159.0290  211.0330  137.6790 O   0  0  0  0  0  1  0  0  0  0  0  0
  161.2990  210.3630  137.8870 C   0  0  0  0  0  2  0  0  0  0  0  0
  161.9360  211.5880  138.0810 O   0  0  0  0  0  0  0  0  0  0  0  0
  163.1710  211.4180  137.5490 N   0  0  0  0  0  1  0  0  0  0  0  0
  156.7620  214.2180  149.2970 C   0  0  0  0  0  0  0  0  0  0  0  0
  155.6960  214.4520  148.6640 O   0  0  0  0  0  0  0  0  0  0  0  0
  156.8080  214.3710  150.6860 O   0  0  0  0  0  0  0  0  0  0  0  0
  158.0290  214.2800  151.4030 C   0  0  0  0  0  2  0  0  0  0  0  0
  156.4480  213.8210  153.2430 C   0  0  0  0  0  2  0  0  0  0  0  0
  157.6970  214.4360  153.8380 C   0  0  0  0  0  2  0  0  0  0  0  0
  157.8080  213.4790  152.6710 C   0  0  0  0  0  3  0  0  0  0  0  0
  1  4  1  0  0  0  0
  2  6  1  0  0  0  0
  2  5  1  0  0  0  0
  3  4  1  0  0  0  0
  3  7  2  0  0  0  0
  4  2  2  0  0  0  0
  5 27  1  0  0  0  0
  7  8  1  0  0  0  0
  8  5  2  0  0  0  0
  9  7  1  0  0  0  0
 10  9  1  0  0  0  0
 11 12  2  0  0  0  0
 11 13  1  0  0  0  0
 13 10  1  0  0  0  0
 14 11  1  0  0  0  0
 15 16  1  6  0  0  0
 15 20  1  0  0  0  0
 15 21  1  0  0  0  0
 16 19  1  0  0  0  0
 17 18  1  0  0  0  0
 18 25  1  6  0  0  0
 19 15  1  0  0  0  0
 20 17  1  0  0  0  0
 21 24  1  1  0  0  0
 21 22  1  0  0  0  0
 22 18  1  0  0  0  0
 22 14  1  1  0  0  0
 24 23  1  0  0  0  0
 25 26  1  0  0  0  0
 27 28  1  0  0  0  0
 30 29  1  0  0  0  0
 30 28  1  0  0  0  0
 31  1  1  0  0  0  0
 32 31  1  0  0  0  0
 33 32  1  0  0  0  0
 34 35  1  0  0  0  0
 34 33  1  0  0  0  0
 36 35  2  0  0  0  0
 36 53  1  0  0  0  0
 37 39  2  0  0  0  0
 38 39  1  0  0  0  0
 39 36  1  0  0  0  0
 40 38  1  0  0  0  0
 41 40  1  0  0  0  0
 42 43  1  6  0  0  0
 42 41  1  0  0  0  0
 44 42  1  0  0  0  0
 45 44  1  0  0  0  0
 46 47  1  0  0  0  0
 46 45  1  0  0  0  0
 48 49  1  6  0  0  0
 48 47  1  0  0  0  0
 50 51  1  0  0  0  0
 50 48  1  0  0  0  0
 52 51  1  0  0  0  0
 53 55  1  0  0  0  0
 54 53  2  0  0  0  0
 55 56  1  0  0  0  0
 56 59  1  0  0  0  0
 57 58  1  0  0  0  0
 59 57  1  0  0  0  0
 59 58  1  0  0  0  0
M  END
>  <MODEL>
1

>  <REMARK>
 VINA RESULT:      -3.9      0.000      0.000
  Name = 
  31 active torsions:
  status: ('A' for Active; 'I' for Inactive)
    1  A    between atoms: O_2  and  C_19
    2  A    between atoms: O_2  and  C_21
    3  A    between atoms: C_3  and  C_10
    4  A    between atoms: C_3  and  C_41
    5  A    between atoms: C_5  and  C_30
    6  A    between atoms: C_5  and  O_37
    7  A    between atoms: C_9  and  C_12
    8  A    between atoms: C_9  and  C_52
    9  A    between atoms: C_10  and  N_27
   10  A    between atoms: C_13  and  C_53
   11  A    between atoms: C_13  and  O_55
   12  A    between atoms: C_14  and  C_16
   13  A    between atoms: C_14  and  N_59
   14  A    between atoms: C_15  and  C_18
   15  A    between atoms: C_16  and  C_29
   16  A    between atoms: C_17  and  N_32
   17  A    between atoms: C_17  and  N_49
   18  A    between atoms: C_19  and  C_54
   19  A    between atoms: C_20  and  C_30
   20  A    between atoms: C_20  and  C_53
   21  A    between atoms: C_24  and  O_34
   22  A    between atoms: C_26  and  C_48
   23  A    between atoms: C_28  and  O_50
   24  A    between atoms: C_28  and  C_56
   25  A    between atoms: C_31  and  C_33
   26  A    between atoms: C_31  and  O_50
   27  A    between atoms: C_33  and  C_51
   28  A    between atoms: O_34  and  C_58
   29  A    between atoms: C_41  and  O_55
   30  A    between atoms: N_46  and  N_49
   31  A    between atoms: N_46  and  C_52
                            x       y       z     vdW  Elec       q    Type
                         _______ _______ _______ _____ _____    ______ ____

>  <TORSDO>
F 31

$$$$
=
 OpenBabel11042422023D

 59 62  0  0  1  0  0  0  0  0999 V2000
  162.3370  208.9030  150.3630 C   0  0  0  0  0  2  0  0  0  0  0  0
  161.3460  208.6930  152.6910 C   0  0  0  0  0  0  0  0  0  0  0  0
  160.9720  210.7090  151.3830 C   0  0  0  0  0  3  0  0  0  0  0  0
  161.5290  209.4340  151.5040 C   0  0  0  0  0  0  0  0  0  0  0  0
  160.6110  209.2500  153.7550 C   0  0  0  0  0  0  0  0  0  0  0  0
  161.9350  207.3240  152.8380 C   0  0  0  0  0  1  0  0  0  0  0  0
  160.2510  211.2700  152.4420 C   0  0  0  0  0  0  0  0  0  0  0  0
  160.0720  210.5400  153.6210 C   0  0  0  0  0  3  0  0  0  0  0  0
  159.6730  212.6430  152.3320 C   0  0  0  0  0  2  0  0  0  0  0  0
  160.1960  213.3380  151.0840 C   0  0  0  0  0  2  0  0  0  0  0  0
  159.6150  213.1940  148.6440 C   0  0  0  0  0  0  0  0  0  0  0  0
  159.6610  214.4510  148.5460 O   0  0  0  0  0  0  0  0  0  0  0  0
  159.8720  212.5580  149.9030 N   0  0  0  0  0  2  0  0  0  0  0  0
  159.3380  212.4340  147.5050 O   0  0  0  0  0  0  0  0  0  0  0  0
  160.5440  212.9000  143.9810 C   0  0  2  0  0  0  0  0  0  0  0  0
  160.4330  211.8090  143.0000 C   0  0  0  0  0  2  0  0  0  0  0  0
  162.0830  214.0430  145.6040 C   0  0  0  0  0  2  0  0  0  0  0  0
  161.5380  213.1320  146.7200 C   0  0  1  0  0  3  0  0  0  0  0  0
  160.0360  213.1290  142.6930 O   0  0  0  0  0  0  0  0  0  0  0  0
  161.9580  213.4210  144.2100 C   0  0  0  0  0  2  0  0  0  0  0  0
  159.5140  212.8860  145.1060 C   0  0  1  0  0  3  0  0  0  0  0  0
  160.2150  212.4070  146.3840 C   0  0  2  0  0  3  0  0  0  0  0  0
  157.5830  214.1390  145.7510 O   0  0  0  0  0  1  0  0  0  0  0  0
  158.8930  214.2670  145.2900 C   0  0  0  0  0  2  0  0  0  0  0  0
  162.5940  212.1470  147.2060 C   0  0  0  0  0  2  0  0  0  0  0  0
  163.7770  212.8130  147.5380 O   0  0  0  0  0  1  0  0  0  0  0  0
  160.4280  208.5100  154.9320 O   0  0  0  0  0  0  0  0  0  0  0  0
  161.4980  207.8860  155.6360 C   0  0  0  0  0  2  0  0  0  0  0  0
  159.7560  206.9590  157.1330 C   0  0  0  0  0  1  0  0  0  0  0  0
  161.1030  207.6500  157.0830 C   0  0  0  0  0  2  0  0  0  0  0  0
  161.7770  209.3810  149.0370 C   0  0  0  0  0  2  0  0  0  0  0  0
  162.0540  208.3900  148.0130 N   0  0  0  0  0  2  0  0  0  0  0  0
  161.7780  207.1370  148.5710 N   0  0  0  0  0  2  0  0  0  0  0  0
  160.5920  206.6300  147.8990 C   0  0  0  0  0  2  0  0  0  0  0  0
  160.7440  205.2050  147.6290 N   0  0  0  0  0  0  0  0  0  0  0  0
  161.0120  204.7010  146.4610 C   0  0  0  0  0  0  0  0  0  0  0  0
  160.4220  206.6010  145.1300 N   0  0  0  0  0  2  0  0  0  0  0  0
  162.3080  205.3590  144.4280 N   0  0  0  0  0  2  0  0  0  0  0  0
  161.1670  205.5540  145.2670 C   0  0  0  0  0  0  0  0  0  0  0  0
  162.6790  206.2870  143.3710 C   0  0  0  0  0  2  0  0  0  0  0  0
  161.7840  206.0480  142.1660 C   0  0  0  0  0  2  0  0  0  0  0  0
  162.5000  206.3850  140.8630 C   0  0  2  0  0  3  0  0  0  0  0  0
  162.9830  207.6950  140.9000 O   0  0  0  0  0  1  0  0  0  0  0  0
  161.6480  206.2120  139.7670 O   0  0  0  0  0  0  0  0  0  0  0  0
  161.4910  207.4930  139.2300 C   0  0  0  0  0  2  0  0  0  0  0  0
  161.6180  207.4290  137.7200 C   0  0  0  0  0  2  0  0  0  0  0  0
  161.3120  208.7930  137.1260 C   0  0  0  0  0  2  0  0  0  0  0  0
  160.1450  209.4430  137.8580 C   0  0  1  0  0  3  0  0  0  0  0  0
  160.4350  210.7830  138.1190 O   0  0  0  0  0  1  0  0  0  0  0  0
  158.8870  209.3610  137.0110 C   0  0  0  0  0  2  0  0  0  0  0  0
  157.8270  208.8650  137.7700 O   0  0  0  0  0  0  0  0  0  0  0  0
  157.4660  209.8990  138.5680 N   0  0  0  0  0  1  0  0  0  0  0  0
  161.0780  203.2380  146.3140 C   0  0  0  0  0  0  0  0  0  0  0  0
  161.6140  202.7340  145.2890 O   0  0  0  0  0  0  0  0  0  0  0  0
  160.5370  202.4160  147.3060 O   0  0  0  0  0  0  0  0  0  0  0  0
  161.2640  202.0950  148.4810 C   0  0  0  0  0  2  0  0  0  0  0  0
  160.6490  202.5730  150.8240 C   0  0  0  0  0  2  0  0  0  0  0  0
  161.0580  201.1170  150.7330 C   0  0  0  0  0  2  0  0  0  0  0  0
  160.2930  201.7610  149.5970 C   0  0  0  0  0  3  0  0  0  0  0  0
  1  4  1  0  0  0  0
  2  6  1  0  0  0  0
  2  5  1  0  0  0  0
  3  4  1  0  0  0  0
  3  7  2  0  0  0  0
  4  2  2  0  0  0  0
  5 27  1  0  0  0  0
  7  8  1  0  0  0  0
  8  5  2  0  0  0  0
  9  7  1  0  0  0  0
 10  9  1  0  0  0  0
 11 13  1  0  0  0  0
 12 11  2  0  0  0  0
 13 10  1  0  0  0  0
 14 11  1  0  0  0  0
 15 16  1  6  0  0  0
 15 20  1  0  0  0  0
 15 21  1  0  0  0  0
 17 18  1  0  0  0  0
 18 25  1  6  0  0  0
 19 16  1  0  0  0  0
 19 15  1  0  0  0  0
 20 17  1  0  0  0  0
 21 24  1  1  0  0  0
 21 22  1  0  0  0  0
 22 18  1  0  0  0  0
 22 14  1  1  0  0  0
 24 23  1  0  0  0  0
 25 26  1  0  0  0  0
 27 28  1  0  0  0  0
 28 30  1  0  0  0  0
 30 29  1  0  0  0  0
 31  1  1  0  0  0  0
 32 33  1  0  0  0  0
 32 31  1  0  0  0  0
 34 33  1  0  0  0  0
 35 34  1  0  0  0  0
 36 35  2  0  0  0  0
 37 39  2  0  0  0  0
 38 39  1  0  0  0  0
 39 36  1  0  0  0  0
 40 38  1  0  0  0  0
 41 40  1  0  0  0  0
 42 43  1  1  0  0  0
 42 41  1  0  0  0  0
 44 42  1  0  0  0  0
 45 44  1  0  0  0  0
 46 45  1  0  0  0  0
 47 46  1  0  0  0  0
 47 48  1  0  0  0  0
 48 49  1  6  0  0  0
 50 51  1  0  0  0  0
 50 48  1  0  0  0  0
 51 52  1  0  0  0  0
 53 36  1  0  0  0  0
 53 55  1  0  0  0  0
 54 53  2  0  0  0  0
 55 56  1  0  0  0  0
 56 59  1  0  0  0  0
 58 57  1  0  0  0  0
 59 58  1  0  0  0  0
 59 57  1  0  0  0  0
M  END
>  <MODEL>
2

>  <REMARK>
 VINA RESULT:      -3.0      2.838      7.869
  Name = 
  31 active torsions:
  status: ('A' for Active; 'I' for Inactive)
    1  A    between atoms: O_2  and  C_19
    2  A    between atoms: O_2  and  C_21
    3  A    between atoms: C_3  and  C_10
    4  A    between atoms: C_3  and  C_41
    5  A    between atoms: C_5  and  C_30
    6  A    between atoms: C_5  and  O_37
    7  A    between atoms: C_9  and  C_12
    8  A    between atoms: C_9  and  C_52
    9  A    between atoms: C_10  and  N_27
   10  A    between atoms: C_13  and  C_53
   11  A    between atoms: C_13  and  O_55
   12  A    between atoms: C_14  and  C_16
   13  A    between atoms: C_14  and  N_59
   14  A    between atoms: C_15  and  C_18
   15  A    between atoms: C_16  and  C_29
   16  A    between atoms: C_17  and  N_32
   17  A    between atoms: C_17  and  N_49
   18  A    between atoms: C_19  and  C_54
   19  A    between atoms: C_20  and  C_30
   20  A    between atoms: C_20  and  C_53
   21  A    between atoms: C_24  and  O_34
   22  A    between atoms: C_26  and  C_48
   23  A    between atoms: C_28  and  O_50
   24  A    between atoms: C_28  and  C_56
   25  A    between atoms: C_31  and  C_33
   26  A    between atoms: C_31  and  O_50
   27  A    between atoms: C_33  and  C_51
   28  A    between atoms: O_34  and  C_58
   29  A    between atoms: C_41  and  O_55
   30  A    between atoms: N_46  and  N_49
   31  A    between atoms: N_46  and  C_52
                            x       y       z     vdW  Elec       q    Type
                         _______ _______ _______ _____ _____    ______ ____

>  <TORSDO>
F 31

$$$$
=
 OpenBabel11042422023D

 59 62  0  0  1  0  0  0  0  0999 V2000
  161.6470  208.3260  147.7080 C   0  0  0  0  0  2  0  0  0  0  0  0
  161.5630  210.6990  148.6050 C   0  0  0  0  0  0  0  0  0  0  0  0
  161.9010  208.8320  150.1260 C   0  0  0  0  0  3  0  0  0  0  0  0
  161.7130  209.3140  148.8290 C   0  0  0  0  0  0  0  0  0  0  0  0
  161.5930  211.5890  149.6950 C   0  0  0  0  0  0  0  0  0  0  0  0
  161.3630  211.2340  147.2210 C   0  0  0  0  0  1  0  0  0  0  0  0
  161.9190  209.7120  151.2130 C   0  0  0  0  0  0  0  0  0  0  0  0
  161.7660  211.0840  150.9950 C   0  0  0  0  0  3  0  0  0  0  0  0
  162.0930  209.2040  152.6060 C   0  0  0  0  0  2  0  0  0  0  0  0
  160.8410  208.4700  153.0620 C   0  0  0  0  0  2  0  0  0  0  0  0
  159.5410  208.7740  155.1900 C   0  0  0  0  0  0  0  0  0  0  0  0
  159.7310  207.5650  155.4940 O   0  0  0  0  0  0  0  0  0  0  0  0
  160.0730  209.3040  153.9680 N   0  0  0  0  0  2  0  0  0  0  0  0
  158.8330  209.5930  156.0730 O   0  0  0  0  0  0  0  0  0  0  0  0
  156.9980  212.6270  154.8430 C   0  0  2  0  0  0  0  0  0  0  0  0
  157.2260  213.1420  153.4830 C   0  0  0  0  0  2  0  0  0  0  0  0
  157.6260  212.8890  157.2600 C   0  0  0  0  0  2  0  0  0  0  0  0
  158.7120  211.8160  157.0650 C   0  0  1  0  0  3  0  0  0  0  0  0
  155.9240  212.9680  154.0050 O   0  0  0  0  0  0  0  0  0  0  0  0
  157.2720  213.6230  155.9630 C   0  0  0  0  0  2  0  0  0  0  0  0
  157.2390  211.1330  155.0340 C   0  0  1  0  0  3  0  0  0  0  0  0
  158.5660  210.9610  155.7860 C   0  0  2  0  0  3  0  0  0  0  0  0
  155.1640  209.9580  154.8790 O   0  0  0  0  0  1  0  0  0  0  0  0
  156.0800  210.4890  155.7870 C   0  0  0  0  0  2  0  0  0  0  0  0
  160.1120  212.4090  157.1700 C   0  0  0  0  0  2  0  0  0  0  0  0
  160.5970  212.7620  155.9070 O   0  0  0  0  0  1  0  0  0  0  0  0
  161.4460  212.9660  149.4690 O   0  0  0  0  0  0  0  0  0  0  0  0
  160.4210  213.7510  150.0700 C   0  0  0  0  0  2  0  0  0  0  0  0
  157.9650  214.0270  150.2200 C   0  0  0  0  0  1  0  0  0  0  0  0
  159.0840  213.0410  149.9560 C   0  0  0  0  0  2  0  0  0  0  0  0
  161.2610  206.9520  148.2230 C   0  0  0  0  0  2  0  0  0  0  0  0
  162.3900  206.0500  148.0790 N   0  0  0  0  0  2  0  0  0  0  0  0
  163.0070  206.3590  146.8610 N   0  0  0  0  0  2  0  0  0  0  0  0
  163.1840  205.1020  146.1490 C   0  0  0  0  0  2  0  0  0  0  0  0
  162.4260  204.0470  146.8110 N   0  0  0  0  0  0  0  0  0  0  0  0
  161.4210  203.4170  146.2790 C   0  0  0  0  0  0  0  0  0  0  0  0
  159.8790  203.1490  144.4680 N   0  0  0  0  0  2  0  0  0  0  0  0
  161.4660  204.8900  144.2610 N   0  0  0  0  0  2  0  0  0  0  0  0
  160.9310  203.7430  144.9260 C   0  0  0  0  0  0  0  0  0  0  0  0
  160.8930  205.4330  143.0390 C   0  0  0  0  0  2  0  0  0  0  0  0
  161.8230  206.5010  142.4890 C   0  0  0  0  0  2  0  0  0  0  0  0
  161.8370  206.5000  140.9640 C   0  0  2  0  0  3  0  0  0  0  0  0
  162.9330  205.7750  140.4900 O   0  0  0  0  0  1  0  0  0  0  0  0
  161.8650  207.8060  140.4640 O   0  0  0  0  0  0  0  0  0  0  0  0
  161.7210  207.6630  139.0810 C   0  0  0  0  0  2  0  0  0  0  0  0
  161.7610  209.0290  138.4240 C   0  0  0  0  0  2  0  0  0  0  0  0
  160.3440  209.5320  138.2110 C   0  0  0  0  0  2  0  0  0  0  0  0
  160.2600  211.0260  138.4970 C   0  0  1  0  0  3  0  0  0  0  0  0
  160.0880  211.7290  137.3040 O   0  0  0  0  0  1  0  0  0  0  0  0
  159.0890  211.3150  139.4200 C   0  0  0  0  0  2  0  0  0  0  0  0
  157.8840  211.1450  138.7370 O   0  0  0  0  0  0  0  0  0  0  0  0
  157.0040  211.9360  139.3980 N   0  0  0  0  0  1  0  0  0  0  0  0
  160.7030  202.4140  147.0820 C   0  0  0  0  0  0  0  0  0  0  0  0
  160.1240  201.4490  146.5100 O   0  0  0  0  0  0  0  0  0  0  0  0
  160.6580  202.5410  148.4730 O   0  0  0  0  0  0  0  0  0  0  0  0
  161.5620  201.8400  149.3120 C   0  0  0  0  0  2  0  0  0  0  0  0
  160.1220  202.4740  151.2150 C   0  0  0  0  0  2  0  0  0  0  0  0
  160.7360  203.7370  150.6480 C   0  0  0  0  0  2  0  0  0  0  0  0
  161.5450  202.4590  150.6960 C   0  0  0  0  0  3  0  0  0  0  0  0
  1 31  1  0  0  0  0
  1  4  1  0  0  0  0
  2  4  2  0  0  0  0
  2  5  1  0  0  0  0
  3  7  2  0  0  0  0
  4  3  1  0  0  0  0
  5  8  2  0  0  0  0
  6  2  1  0  0  0  0
  7  9  1  0  0  0  0
  8  7  1  0  0  0  0
  9 10  1  0  0  0  0
 10 13  1  0  0  0  0
 11 12  2  0  0  0  0
 11 14  1  0  0  0  0
 13 11  1  0  0  0  0
 15 16  1  6  0  0  0
 15 21  1  0  0  0  0
 15 20  1  0  0  0  0
 16 19  1  0  0  0  0
 18 25  1  6  0  0  0
 18 17  1  0  0  0  0
 19 15  1  0  0  0  0
 20 17  1  0  0  0  0
 21 22  1  0  0  0  0
 21 24  1  1  0  0  0
 22 14  1  1  0  0  0
 22 18  1  0  0  0  0
 23 24  1  0  0  0  0
 26 25  1  0  0  0  0
 27  5  1  0  0  0  0
 27 28  1  0  0  0  0
 30 28  1  0  0  0  0
 30 29  1  0  0  0  0
 32 31  1  0  0  0  0
 33 32  1  0  0  0  0
 34 35  1  0  0  0  0
 34 33  1  0  0  0  0
 36 35  2  0  0  0  0
 36 53  1  0  0  0  0
 37 39  2  0  0  0  0
 38 39  1  0  0  0  0
 39 36  1  0  0  0  0
 40 38  1  0  0  0  0
 41 40  1  0  0  0  0
 42 43  1  1  0  0  0
 42 41  1  0  0  0  0
 44 42  1  0  0  0  0
 45 44  1  0  0  0  0
 46 45  1  0  0  0  0
 47 46  1  0  0  0  0
 47 48  1  0  0  0  0
 48 49  1  6  0  0  0
 48 50  1  0  0  0  0
 51 52  1  0  0  0  0
 51 50  1  0  0  0  0
 53 55  1  0  0  0  0
 54 53  2  0  0  0  0
 55 56  1  0  0  0  0
 56 59  1  0  0  0  0
 58 59  1  0  0  0  0
 58 57  1  0  0  0  0
 59 57  1  0  0  0  0
M  END
>  <MODEL>
3

>  <REMARK>
 VINA RESULT:      -2.6      3.117      8.989
  Name = 
  31 active torsions:
  status: ('A' for Active; 'I' for Inactive)
    1  A    between atoms: O_2  and  C_19
    2  A    between atoms: O_2  and  C_21
    3  A    between atoms: C_3  and  C_10
    4  A    between atoms: C_3  and  C_41
    5  A    between atoms: C_5  and  C_30
    6  A    between atoms: C_5  and  O_37
    7  A    between atoms: C_9  and  C_12
    8  A    between atoms: C_9  and  C_52
    9  A    between atoms: C_10  and  N_27
   10  A    between atoms: C_13  and  C_53
   11  A    between atoms: C_13  and  O_55
   12  A    between atoms: C_14  and  C_16
   13  A    between atoms: C_14  and  N_59
   14  A    between atoms: C_15  and  C_18
   15  A    between atoms: C_16  and  C_29
   16  A    between atoms: C_17  and  N_32
   17  A    between atoms: C_17  and  N_49
   18  A    between atoms: C_19  and  C_54
   19  A    between atoms: C_20  and  C_30
   20  A    between atoms: C_20  and  C_53
   21  A    between atoms: C_24  and  O_34
   22  A    between atoms: C_26  and  C_48
   23  A    between atoms: C_28  and  O_50
   24  A    between atoms: C_28  and  C_56
   25  A    between atoms: C_31  and  C_33
   26  A    between atoms: C_31  and  O_50
   27  A    between atoms: C_33  and  C_51
   28  A    between atoms: O_34  and  C_58
   29  A    between atoms: C_41  and  O_55
   30  A    between atoms: N_46  and  N_49
   31  A    between atoms: N_46  and  C_52
                            x       y       z     vdW  Elec       q    Type
                         _______ _______ _______ _____ _____    ______ ____

>  <TORSDO>
F 31

$$$$
=
 OpenBabel11042422023D

 59 62  0  0  1  0  0  0  0  0999 V2000
  162.5130  210.8460  150.7090 C   0  0  0  0  0  2  0  0  0  0  0  0
  161.1710  210.0110  152.6970 C   0  0  0  0  0  0  0  0  0  0  0  0
  162.2040  208.4260  151.1690 C   0  0  0  0  0  3  0  0  0  0  0  0
  161.9550  209.7450  151.5530 C   0  0  0  0  0  0  0  0  0  0  0  0
  160.6340  208.9430  153.4390 C   0  0  0  0  0  0  0  0  0  0  0  0
  160.8960  211.4200  153.1240 C   0  0  0  0  0  1  0  0  0  0  0  0
  161.6620  207.3620  151.8970 C   0  0  0  0  0  0  0  0  0  0  0  0
  160.8810  207.6230  153.0270 C   0  0  0  0  0  3  0  0  0  0  0  0
  161.9010  205.9480  151.4800 C   0  0  0  0  0  2  0  0  0  0  0  0
  163.1330  205.8600  150.5920 C   0  0  0  0  0  2  0  0  0  0  0  0
  161.4000  205.4660  148.8180 C   0  0  0  0  0  0  0  0  0  0  0  0
  160.5340  205.2150  149.7000 O   0  0  0  0  0  0  0  0  0  0  0  0
  162.7420  205.7980  149.1960 N   0  0  0  0  0  2  0  0  0  0  0  0
  161.0240  205.4430  147.4720 O   0  0  0  0  0  0  0  0  0  0  0  0
  159.7690  203.1590  144.7700 C   0  0  2  0  0  0  0  0  0  0  0  0
  158.3430  203.1420  144.4050 C   0  0  0  0  0  2  0  0  0  0  0  0
  161.5430  202.0250  146.1390 C   0  0  0  0  0  2  0  0  0  0  0  0
  161.2680  203.0260  147.2760 C   0  0  1  0  0  3  0  0  0  0  0  0
  159.3620  203.2050  143.4280 O   0  0  0  0  0  0  0  0  0  0  0  0
  160.3360  201.8180  145.2190 C   0  0  0  0  0  2  0  0  0  0  0  0
  160.2880  204.4720  145.3490 C   0  0  1  0  0  3  0  0  0  0  0  0
  160.4690  204.2830  146.8610 C   0  0  2  0  0  3  0  0  0  0  0  0
  161.3170  205.6600  143.5490 O   0  0  0  0  0  1  0  0  0  0  0  0
  161.5920  204.8840  144.6740 C   0  0  0  0  0  2  0  0  0  0  0  0
  160.6290  202.3450  148.4800 C   0  0  0  0  0  2  0  0  0  0  0  0
  161.4650  201.3450  148.9850 O   0  0  0  0  0  1  0  0  0  0  0  0
  159.8580  209.2120  154.5760 O   0  0  0  0  0  0  0  0  0  0  0  0
  160.3090  210.0240  155.6560 C   0  0  0  0  0  2  0  0  0  0  0  0
  159.8910  207.8120  156.6870 C   0  0  0  0  0  1  0  0  0  0  0  0
  160.5200  209.1740  156.8960 C   0  0  0  0  0  2  0  0  0  0  0  0
  162.1440  210.6470  149.2510 C   0  0  0  0  0  2  0  0  0  0  0  0
  161.3350  211.7660  148.8030 N   0  0  0  0  0  2  0  0  0  0  0  0
  162.2180  212.7650  148.3790 N   0  0  0  0  0  2  0  0  0  0  0  0
  161.6700  213.3160  147.1490 C   0  0  0  0  0  2  0  0  0  0  0  0
  160.2140  213.3360  147.2200 N   0  0  0  0  0  0  0  0  0  0  0  0
  159.4250  213.2650  146.1890 C   0  0  0  0  0  0  0  0  0  0  0  0
  159.7720  212.0960  144.1290 N   0  0  0  0  0  2  0  0  0  0  0  0
  160.4140  214.3720  144.1780 N   0  0  0  0  0  2  0  0  0  0  0  0
  159.9540  213.1780  144.8140 C   0  0  0  0  0  0  0  0  0  0  0  0
  160.7310  214.4410  142.7600 C   0  0  0  0  0  2  0  0  0  0  0  0
  159.4380  214.4050  141.9620 C   0  0  0  0  0  2  0  0  0  0  0  0
  159.6330  213.7250  140.6120 C   0  0  2  0  0  3  0  0  0  0  0  0
  158.5530  214.0040  139.7690 O   0  0  0  0  0  1  0  0  0  0  0  0
  159.7850  212.3430  140.7670 O   0  0  0  0  0  0  0  0  0  0  0  0
  158.7860  211.7820  139.9650 C   0  0  0  0  0  2  0  0  0  0  0  0
  159.3950  211.2970  138.6630 C   0  0  0  0  0  2  0  0  0  0  0  0
  160.6100  210.4350  138.9610 C   0  0  0  0  0  2  0  0  0  0  0  0
  160.9460  209.5570  137.7620 C   0  0  1  0  0  3  0  0  0  0  0  0
  162.2330  209.8460  137.3070 O   0  0  0  0  0  1  0  0  0  0  0  0
  160.8730  208.0910  138.1520 C   0  0  0  0  0  2  0  0  0  0  0  0
  162.1480  207.5260  138.1430 O   0  0  0  0  0  0  0  0  0  0  0  0
  162.2000  206.7850  139.2770 N   0  0  0  0  0  1  0  0  0  0  0  0
  157.9710  213.3600  146.3960 C   0  0  0  0  0  0  0  0  0  0  0  0
  157.3220  214.3080  145.8730 O   0  0  0  0  0  0  0  0  0  0  0  0
  157.3180  212.4050  147.1800 O   0  0  0  0  0  0  0  0  0  0  0  0
  157.0190  212.6440  148.5460 C   0  0  0  0  0  2  0  0  0  0  0  0
  158.2880  213.8290  150.3020 C   0  0  0  0  0  2  0  0  0  0  0  0
  156.9070  214.4450  150.2220 C   0  0  0  0  0  2  0  0  0  0  0  0
  157.6020  213.9810  148.9610 C   0  0  0  0  0  3  0  0  0  0  0  0
  1  4  1  0  0  0  0
  2  6  1  0  0  0  0
  2  5  1  0  0  0  0
  3  4  1  0  0  0  0
  3  7  2  0  0  0  0
  4  2  2  0  0  0  0
  5 27  1  0  0  0  0
  7  8  1  0  0  0  0
  8  5  2  0  0  0  0
  9  7  1  0  0  0  0
 10  9  1  0  0  0  0
 11 13  1  0  0  0  0
 11 12  2  0  0  0  0
 13 10  1  0  0  0  0
 14 11  1  0  0  0  0
 15 16  1  1  0  0  0
 15 20  1  0  0  0  0
 15 21  1  0  0  0  0
 17 18  1  0  0  0  0
 18 25  1  1  0  0  0
 19 16  1  0  0  0  0
 19 15  1  0  0  0  0
 20 17  1  0  0  0  0
 21 24  1  6  0  0  0
 21 22  1  0  0  0  0
 22 18  1  0  0  0  0
 22 14  1  6  0  0  0
 23 24  1  0  0  0  0
 25 26  1  0  0  0  0
 27 28  1  0  0  0  0
 28 30  1  0  0  0  0
 29 30  1  0  0  0  0
 31  1  1  0  0  0  0
 32 31  1  0  0  0  0
 33 32  1  0  0  0  0
 34 35  1  0  0  0  0
 34 33  1  0  0  0  0
 36 53  1  0  0  0  0
 36 35  2  0  0  0  0
 37 39  2  0  0  0  0
 38 39  1  0  0  0  0
 39 36  1  0  0  0  0
 40 38  1  0  0  0  0
 41 40  1  0  0  0  0
 42 43  1  6  0  0  0
 42 44  1  0  0  0  0
 42 41  1  0  0  0  0
 45 44  1  0  0  0  0
 46 47  1  0  0  0  0
 46 45  1  0  0  0  0
 48 49  1  1  0  0  0
 48 50  1  0  0  0  0
 48 47  1  0  0  0  0
 51 50  1  0  0  0  0
 51 52  1  0  0  0  0
 53 55  1  0  0  0  0
 54 53  2  0  0  0  0
 55 56  1  0  0  0  0
 56 59  1  0  0  0  0
 58 57  1  0  0  0  0
 59 58  1  0  0  0  0
 59 57  1  0  0  0  0
M  END
>  <MODEL>
4

>  <REMARK>
 VINA RESULT:      -2.6      1.990      2.719
  Name = 
  31 active torsions:
  status: ('A' for Active; 'I' for Inactive)
    1  A    between atoms: O_2  and  C_19
    2  A    between atoms: O_2  and  C_21
    3  A    between atoms: C_3  and  C_10
    4  A    between atoms: C_3  and  C_41
    5  A    between atoms: C_5  and  C_30
    6  A    between atoms: C_5  and  O_37
    7  A    between atoms: C_9  and  C_12
    8  A    between atoms: C_9  and  C_52
    9  A    between atoms: C_10  and  N_27
   10  A    between atoms: C_13  and  C_53
   11  A    between atoms: C_13  and  O_55
   12  A    between atoms: C_14  and  C_16
   13  A    between atoms: C_14  and  N_59
   14  A    between atoms: C_15  and  C_18
   15  A    between atoms: C_16  and  C_29
   16  A    between atoms: C_17  and  N_32
   17  A    between atoms: C_17  and  N_49
   18  A    between atoms: C_19  and  C_54
   19  A    between atoms: C_20  and  C_30
   20  A    between atoms: C_20  and  C_53
   21  A    between atoms: C_24  and  O_34
   22  A    between atoms: C_26  and  C_48
   23  A    between atoms: C_28  and  O_50
   24  A    between atoms: C_28  and  C_56
   25  A    between atoms: C_31  and  C_33
   26  A    between atoms: C_31  and  O_50
   27  A    between atoms: C_33  and  C_51
   28  A    between atoms: O_34  and  C_58
   29  A    between atoms: C_41  and  O_55
   30  A    between atoms: N_46  and  N_49
   31  A    between atoms: N_46  and  C_52
                            x       y       z     vdW  Elec       q    Type
                         _______ _______ _______ _____ _____    ______ ____

>  <TORSDO>
F 31

$$$$
