=
 OpenBabel11042421053D

 36 40  0  0  1  0  0  0  0  0999 V2000
  157.3130  214.3730  155.2640 C   0  0  0  0  0  2  0  0  0  0  0  0
  159.9200  214.1300  150.2020 N   0  0  0  0  0  0  0  0  0  0  0  0
  160.8540  213.1290  149.8510 C   0  0  0  0  0  0  0  0  0  0  0  0
  156.0960  213.9490  154.4270 C   0  0  1  0  0  0  0  0  0  0  0  0
  162.5830  212.0580  148.6510 N   0  0  0  0  0  0  0  0  0  0  0  0
  159.9280  214.2270  155.5400 O   0  0  0  0  0  0  0  0  0  0  0  0
  161.8610  213.1890  148.8940 C   0  0  0  0  0  0  0  0  0  0  0  0
  162.1450  214.4410  148.1410 C   0  0  0  0  0  1  0  0  0  0  0  0
  159.1200  213.5880  151.0690 C   0  0  0  0  0  0  0  0  0  0  0  0
  160.6070  211.9640  150.5040 C   0  0  0  0  0  0  0  0  0  0  0  0
  156.7890  213.6650  152.0470 C   0  0  0  0  0  0  0  0  0  0  0  0
  156.5080  212.4720  151.7500 O   0  0  0  0  0  0  0  0  0  0  0  0
  161.3200  210.8380  150.2450 N   0  0  0  0  0  0  0  0  0  0  0  0
  157.9600  214.2910  151.5210 N   0  0  0  0  0  2  0  0  0  0  0  0
  162.3180  210.8910  149.3160 C   0  0  0  0  0  3  0  0  0  0  0  0
  159.4730  212.1530  151.4570 C   0  0  1  0  0  3  0  0  0  0  0  0
  158.8920  214.0760  154.4330 S   0  0  1  0  0  0  0  0  0  0  0  0
  159.9950  212.0360  152.9150 C   0  0  1  0  0  3  0  0  0  0  0  0
  155.4790  212.6100  154.7650 C   0  0  0  0  0  2  0  0  0  0  0  0
  154.7670  213.8910  155.1760 C   0  0  1  0  0  3  0  0  0  0  0  0
  155.9150  214.4260  152.9870 C   0  0  0  0  0  2  0  0  0  0  0  0
  158.9060  212.3160  153.9810 C   0  0  1  0  0  3  0  0  0  0  0  0
  162.1950  209.2380  153.6940 C   0  0  0  0  0  3  0  0  0  0  0  0
  161.8780  210.5840  153.6560 C   0  0  0  0  0  3  0  0  0  0  0  0
  160.6520  210.7430  153.1240 N   0  0  0  0  0  0  0  0  0  0  0  0
  160.1520  209.5330  152.8080 C   0  0  0  0  0  3  0  0  0  0  0  0
  161.0930  208.5940  153.1620 C   0  0  0  0  0  0  0  0  0  0  0  0
  160.9730  207.1250  152.9420 C   0  0  0  0  0  2  0  0  0  0  0  0
  160.5620  206.9210  150.5970 O   0  0  0  0  0  1  0  0  0  0  0  0
  161.5330  206.7370  151.5820 C   0  0  2  0  0  3  0  0  0  0  0  0
  161.9490  205.2820  151.6070 C   0  0  0  0  0  1  0  0  0  0  0  0
  158.9720  211.4460  155.2070 C   0  0  0  0  0  0  0  0  0  0  0  0
  158.1530  210.4130  155.3240 C   0  0  0  0  0  2  0  0  0  0  0  0
  159.9010  211.6980  156.2080 O   0  0  0  0  0  1  0  0  0  0  0  0
  154.9320  214.0880  156.5490 O   0  0  0  0  0  0  0  0  0  0  0  0
  153.6650  214.4490  157.0070 C   0  0  0  0  0  1  0  0  0  0  0  0
  2  9  2  0  0  0  0
  3  2  1  0  0  0  0
  3 10  1  0  0  0  0
  4 21  1  6  0  0  0
  4 19  1  0  0  0  0
  4 20  1  0  0  0  0
  4  1  1  0  0  0  0
  5  7  1  0  0  0  0
  5 15  2  0  0  0  0
  7  3  2  0  0  0  0
  8  7  1  0  0  0  0
  9 16  1  0  0  0  0
  9 14  1  0  0  0  0
 11 21  1  0  0  0  0
 12 11  2  0  0  0  0
 13 10  2  0  0  0  0
 14 11  1  0  0  0  0
 15 13  1  0  0  0  0
 16 10  1  6  0  0  0
 16 18  1  0  0  0  0
 17  1  1  0  0  0  0
 17  6  2  1  0  0  0
 18 25  1  1  0  0  0
 18 22  1  0  0  0  0
 19 20  1  0  0  0  0
 20 35  1  1  0  0  0
 22 17  1  0  0  0  0
 22 32  1  1  0  0  0
 24 23  2  0  0  0  0
 25 24  1  0  0  0  0
 26 25  1  0  0  0  0
 26 27  2  0  0  0  0
 27 23  1  0  0  0  0
 28 27  1  0  0  0  0
 29 30  1  0  0  0  0
 30 31  1  1  0  0  0
 30 28  1  0  0  0  0
 32 33  2  0  0  0  0
 32 34  1  0  0  0  0
 35 36  1  0  0  0  0
M  END
>  <MODEL>
1

>  <REMARK>
 VINA RESULT:      -1.9      0.000      0.000
  Name = 
  5 active torsions:
  status: ('A' for Active; 'I' for Inactive)
    1  A    between atoms: C_1  and  C_30
    2  A    between atoms: C_1  and  C_36
    3  A    between atoms: N_10  and  C_25
    4  A    between atoms: C_18  and  C_33
    5  A    between atoms: O_27  and  C_28
                            x       y       z     vdW  Elec       q    Type
                         _______ _______ _______ _____ _____    ______ ____

>  <TORSDO>
F 5

$$$$
