=
 OpenBabel11042421203D

 39 42  0  0  1  0  0  0  0  0999 V2000
  160.8900  208.0780  151.4940 C   0  0  0  0  0  3  0  0  0  0  0  0
  161.0810  206.7460  153.7300 C   0  0  0  0  0  0  0  0  0  0  0  0
  160.9830  207.4110  152.6110 C   0  0  0  0  0  0  0  0  0  0  0  0
  162.1400  211.2670  148.3350 C   0  0  0  0  0  1  0  0  0  0  0  0
  161.6480  208.7560  148.2010 C   0  0  0  0  0  3  0  0  0  0  0  0
  162.6800  210.4860  151.1180 O   0  0  0  0  0  0  0  0  0  0  0  0
  162.0680  208.2070  150.5870 C   0  0  1  0  0  3  0  0  0  0  0  0
  161.7450  207.6010  149.2110 C   0  0  0  0  0  3  0  0  0  0  0  0
  162.3050  209.6310  150.2720 C   0  0  0  0  0  0  0  0  0  0  0  0
  162.0780  209.9380  148.9160 N   0  0  0  0  0  0  0  0  0  0  0  0
  160.3180  207.6880  157.2190 C   0  0  0  0  0  2  0  0  0  0  0  0
  160.5860  207.3400  154.9840 C   0  0  0  0  0  0  0  0  0  0  0  0
  159.7410  208.3120  155.0120 N   0  0  0  0  0  0  0  0  0  0  0  0
  160.9820  206.9160  156.2370 O   0  0  0  0  0  0  0  0  0  0  0  0
  159.4650  208.6640  156.3980 C   0  0  2  0  0  3  0  0  0  0  0  0
  159.9020  210.1000  156.6530 C   0  0  0  0  0  2  0  0  0  0  0  0
  158.1100  212.8280  153.8590 C   0  0  0  0  0  0  0  0  0  0  0  0
  157.8880  211.1030  155.5490 C   0  0  0  0  0  3  0  0  0  0  0  0
  159.2800  211.0350  155.6720 C   0  0  0  0  0  0  0  0  0  0  0  0
  160.0890  211.8720  154.8960 C   0  0  0  0  0  3  0  0  0  0  0  0
  159.5090  212.7630  153.9900 C   0  0  0  0  0  3  0  0  0  0  0  0
  157.3060  211.9930  154.6430 C   0  0  0  0  0  3  0  0  0  0  0  0
  157.4980  213.7060  152.9590 O   0  0  0  0  0  0  0  0  0  0  0  0
  157.6730  213.6090  151.5540 C   0  0  0  0  0  1  0  0  0  0  0  0
  161.6040  205.3480  153.6970 C   0  0  0  0  0  2  0  0  0  0  0  0
  160.7150  204.4740  152.8270 C   0  0  0  0  0  2  0  0  0  0  0  0
  161.5050  203.8970  151.6650 C   0  0  0  0  0  2  0  0  0  0  0  0
  161.5150  203.4800  149.2530 C   0  0  1  0  0  3  0  0  0  0  0  0
  160.6780  203.9160  150.3920 C   0  0  1  0  0  3  0  0  0  0  0  0
  160.6030  202.6090  149.8770 O   0  0  0  0  0  0  0  0  0  0  0  0
  160.9080  203.9800  147.9560 C   0  0  0  0  0  2  0  0  0  0  0  0
  161.9460  203.9810  146.8370 C   0  0  0  0  0  2  0  0  0  0  0  0
  161.5050  203.2020  145.5930 C   0  0  1  0  0  3  0  0  0  0  0  0
  160.8380  201.8770  145.9470 C   0  0  0  0  0  2  0  0  0  0  0  0
  159.7980  201.6170  145.0530 O   0  0  0  0  0  1  0  0  0  0  0  0
  160.6190  204.0130  144.7660 N   0  0  0  0  0  2  0  0  0  0  0  0
  160.2490  206.3650  145.2140 C   0  0  0  0  0  1  0  0  0  0  0  0
  161.4500  205.6260  143.3040 O   0  0  0  0  0  1  0  0  0  0  0  0
  161.2080  205.3380  144.6480 C   0  0  2  0  0  3  0  0  0  0  0  0
  1  3  2  0  0  0  0
  2 12  1  0  0  0  0
  3  2  2  0  0  0  0
  4 10  1  0  0  0  0
  5 10  1  0  0  0  0
  5  8  2  0  0  0  0
  7  1  1  1  0  0  0
  8  7  1  0  0  0  0
  9  7  1  0  0  0  0
  9  6  2  0  0  0  0
 10  9  1  0  0  0  0
 12 13  2  0  0  0  0
 12 14  1  0  0  0  0
 13 15  1  0  0  0  0
 14 11  1  0  0  0  0
 15 16  1  6  0  0  0
 15 11  1  0  0  0  0
 17 21  2  0  0  0  0
 17 22  1  0  0  0  0
 18 19  1  0  0  0  0
 19 16  1  0  0  0  0
 20 19  2  0  0  0  0
 21 20  1  0  0  0  0
 22 18  2  0  0  0  0
 23 17  1  0  0  0  0
 24 23  1  0  0  0  0
 25  2  1  0  0  0  0
 26 25  1  0  0  0  0
 27 26  1  0  0  0  0
 28 31  1  6  0  0  0
 28 30  1  0  0  0  0
 28 29  1  0  0  0  0
 29 27  1  1  0  0  0
 30 29  1  0  0  0  0
 32 31  1  0  0  0  0
 33 34  1  1  0  0  0
 33 32  1  0  0  0  0
 35 34  1  0  0  0  0
 36 33  1  0  0  0  0
 38 39  1  0  0  0  0
 39 36  1  0  0  0  0
 39 37  1  6  0  0  0
M  END
>  <MODEL>
1

>  <REMARK>
 VINA RESULT:      -7.0      0.000      0.000
  Name = 
  15 active torsions:
  status: ('A' for Active; 'I' for Inactive)
    1  A    between atoms: C_1  and  C_24
    2  A    between atoms: C_2  and  C_15
    3  A    between atoms: C_2  and  C_17
    4  A    between atoms: C_4  and  CA_30
    5  A    between atoms: C_4  and  C_32
    6  A    between atoms: C_5  and  O_7
    7  A    between atoms: C_6  and  C_32
    8  A    between atoms: C_8  and  C_21
    9  A    between atoms: C_8  and  C_39
   10  A    between atoms: C_11  and  C_15
   11  A    between atoms: C_11  and  C_35
   12  A    between atoms: C_14  and  CA_30
   13  A    between atoms: C_18  and  C_35
   14  A    between atoms: C_22  and  N_27
   15  A    between atoms: N_27  and  CA_30
                            x       y       z     vdW  Elec       q    Type
                         _______ _______ _______ _____ _____    ______ ____

>  <TORSDO>
F 15

$$$$
=
 OpenBabel11042421203D

 39 42  0  0  1  0  0  0  0  0999 V2000
  160.0720  207.4830  155.8630 C   0  0  0  0  0  3  0  0  0  0  0  0
  160.7690  207.7200  153.3590 C   0  0  0  0  0  0  0  0  0  0  0  0
  160.4180  207.6010  154.6100 C   0  0  0  0  0  0  0  0  0  0  0  0
  160.7240  212.0900  155.5890 C   0  0  0  0  0  1  0  0  0  0  0  0
  162.2500  210.1300  156.2210 C   0  0  0  0  0  3  0  0  0  0  0  0
  158.7120  210.1210  156.4420 O   0  0  0  0  0  0  0  0  0  0  0  0
  160.4730  208.5180  156.8610 C   0  0  1  0  0  3  0  0  0  0  0  0
  161.9940  208.7360  156.8160 C   0  0  0  0  0  3  0  0  0  0  0  0
  159.9390  209.8350  156.4610 C   0  0  0  0  0  0  0  0  0  0  0  0
  160.9480  210.7530  156.1100 N   0  0  0  0  0  0  0  0  0  0  0  0
  162.8800  204.9510  152.1250 C   0  0  0  0  0  2  0  0  0  0  0  0
  161.3740  206.5770  152.6540 C   0  0  0  0  0  0  0  0  0  0  0  0
  160.8110  205.9970  151.6510 N   0  0  0  0  0  0  0  0  0  0  0  0
  162.5890  206.0230  153.0020 O   0  0  0  0  0  0  0  0  0  0  0  0
  161.6630  204.9080  151.1910 C   0  0  2  0  0  3  0  0  0  0  0  0
  160.9210  203.5860  151.3410 C   0  0  0  0  0  2  0  0  0  0  0  0
  160.9980  201.3180  147.6920 C   0  0  0  0  0  0  0  0  0  0  0  0
  160.8380  201.4040  150.1110 C   0  0  0  0  0  3  0  0  0  0  0  0
  160.9640  202.7970  150.0760 C   0  0  0  0  0  0  0  0  0  0  0  0
  161.0970  203.4530  148.8480 C   0  0  0  0  0  3  0  0  0  0  0  0
  161.1170  202.7190  147.6600 C   0  0  0  0  0  3  0  0  0  0  0  0
  160.8590  200.6680  148.9240 C   0  0  0  0  0  3  0  0  0  0  0  0
  161.0190  200.5530  146.5230 O   0  0  0  0  0  0  0  0  0  0  0  0
  160.2490  200.8840  145.3770 C   0  0  0  0  0  1  0  0  0  0  0  0
  160.4560  208.9900  152.6370 C   0  0  0  0  0  2  0  0  0  0  0  0
  161.7330  209.7750  152.3790 C   0  0  0  0  0  2  0  0  0  0  0  0
  161.9880  209.9050  150.8880 C   0  0  0  0  0  2  0  0  0  0  0  0
  162.1740  208.6410  148.8000 C   0  0  1  0  0  3  0  0  0  0  0  0
  161.6020  208.6280  150.1640 C   0  0  1  0  0  3  0  0  0  0  0  0
  162.7690  207.9120  149.8460 O   0  0  0  0  0  0  0  0  0  0  0  0
  161.3980  207.6840  147.9150 C   0  0  0  0  0  2  0  0  0  0  0  0
  162.2520  206.4750  147.5440 C   0  0  0  0  0  2  0  0  0  0  0  0
  162.1780  206.1060  146.0600 C   0  0  1  0  0  3  0  0  0  0  0  0
  163.2460  205.0930  145.6610 C   0  0  0  0  0  2  0  0  0  0  0  0
  163.8560  204.5720  146.8040 O   0  0  0  0  0  1  0  0  0  0  0  0
  160.8510  205.6050  145.7200 N   0  0  0  0  0  2  0  0  0  0  0  0
  161.2070  205.6390  143.3240 C   0  0  0  0  0  1  0  0  0  0  0  0
  159.8100  204.0220  144.3620 O   0  0  0  0  0  1  0  0  0  0  0  0
  160.9800  204.7640  144.5400 C   0  0  2  0  0  3  0  0  0  0  0  0
  2  3  2  0  0  0  0
  3  1  2  0  0  0  0
  4 10  1  0  0  0  0
  5  8  2  0  0  0  0
  6  9  2  0  0  0  0
  7  1  1  6  0  0  0
  8  7  1  0  0  0  0
  9  7  1  0  0  0  0
 10  5  1  0  0  0  0
 10  9  1  0  0  0  0
 11 14  1  0  0  0  0
 12 14  1  0  0  0  0
 12  2  1  0  0  0  0
 13 12  2  0  0  0  0
 15 16  1  1  0  0  0
 15 13  1  0  0  0  0
 15 11  1  0  0  0  0
 17 22  1  0  0  0  0
 19 18  1  0  0  0  0
 19 16  1  0  0  0  0
 20 19  2  0  0  0  0
 21 17  2  0  0  0  0
 21 20  1  0  0  0  0
 22 18  2  0  0  0  0
 23 17  1  0  0  0  0
 24 23  1  0  0  0  0
 25  2  1  0  0  0  0
 26 25  1  0  0  0  0
 27 26  1  0  0  0  0
 28 31  1  6  0  0  0
 28 30  1  0  0  0  0
 28 29  1  0  0  0  0
 29 27  1  1  0  0  0
 30 29  1  0  0  0  0
 32 31  1  0  0  0  0
 33 34  1  1  0  0  0
 33 32  1  0  0  0  0
 34 35  1  0  0  0  0
 36 33  1  0  0  0  0
 38 39  1  0  0  0  0
 39 37  1  6  0  0  0
 39 36  1  0  0  0  0
M  END
>  <MODEL>
2

>  <REMARK>
 VINA RESULT:      -6.9      2.351      7.362
  Name = 
  15 active torsions:
  status: ('A' for Active; 'I' for Inactive)
    1  A    between atoms: C_1  and  C_24
    2  A    between atoms: C_2  and  C_15
    3  A    between atoms: C_2  and  C_17
    4  A    between atoms: C_4  and  CA_30
    5  A    between atoms: C_4  and  C_32
    6  A    between atoms: C_5  and  O_7
    7  A    between atoms: C_6  and  C_32
    8  A    between atoms: C_8  and  C_21
    9  A    between atoms: C_8  and  C_39
   10  A    between atoms: C_11  and  C_15
   11  A    between atoms: C_11  and  C_35
   12  A    between atoms: C_14  and  CA_30
   13  A    between atoms: C_18  and  C_35
   14  A    between atoms: C_22  and  N_27
   15  A    between atoms: N_27  and  CA_30
                            x       y       z     vdW  Elec       q    Type
                         _______ _______ _______ _____ _____    ______ ____

>  <TORSDO>
F 15

$$$$
=
 OpenBabel11042421203D

 39 42  0  0  1  0  0  0  0  0999 V2000
  161.1820  210.2180  154.0480 C   0  0  0  0  0  3  0  0  0  0  0  0
  161.8390  208.7670  151.9810 C   0  0  0  0  0  0  0  0  0  0  0  0
  161.5130  209.4930  153.0160 C   0  0  0  0  0  0  0  0  0  0  0  0
  158.2460  212.5130  156.8470 C   0  0  0  0  0  1  0  0  0  0  0  0
  160.0440  210.7340  157.2610 C   0  0  0  0  0  3  0  0  0  0  0  0
  158.3420  211.2480  154.1930 O   0  0  0  0  0  0  0  0  0  0  0  0
  160.0950  209.7740  154.9710 C   0  0  1  0  0  3  0  0  0  0  0  0
  160.6450  209.6130  156.3970 C   0  0  0  0  0  3  0  0  0  0  0  0
  159.0950  210.8500  155.1220 C   0  0  0  0  0  0  0  0  0  0  0  0
  159.0590  211.3860  156.4250 N   0  0  0  0  0  0  0  0  0  0  0  0
  161.9560  209.6100  148.3870 C   0  0  0  0  0  2  0  0  0  0  0  0
  161.9700  209.3940  150.6550 C   0  0  0  0  0  0  0  0  0  0  0  0
  162.3110  210.6250  150.4940 N   0  0  0  0  0  0  0  0  0  0  0  0
  161.7370  208.7260  149.4700 O   0  0  0  0  0  0  0  0  0  0  0  0
  162.3430  210.9290  149.0700 C   0  0  2  0  0  3  0  0  0  0  0  0
  161.3190  212.0120  148.7590 C   0  0  0  0  0  2  0  0  0  0  0  0
  161.4480  213.1890  144.6290 C   0  0  0  0  0  0  0  0  0  0  0  0
  160.2380  212.2520  146.5110 C   0  0  0  0  0  3  0  0  0  0  0  0
  161.3680  212.4050  147.3210 C   0  0  0  0  0  0  0  0  0  0  0  0
  162.5360  212.9600  146.7900 C   0  0  0  0  0  3  0  0  0  0  0  0
  162.5790  213.3490  145.4490 C   0  0  0  0  0  3  0  0  0  0  0  0
  160.2800  212.6390  145.1690 C   0  0  0  0  0  3  0  0  0  0  0  0
  161.4590  213.5630  143.2820 O   0  0  0  0  0  0  0  0  0  0  0  0
  162.0630  212.7700  142.2710 C   0  0  0  0  0  1  0  0  0  0  0  0
  162.1720  207.3250  152.1850 C   0  0  0  0  0  2  0  0  0  0  0  0
  161.0480  206.6270  152.9350 C   0  0  0  0  0  2  0  0  0  0  0  0
  161.1590  205.1210  152.7830 C   0  0  0  0  0  2  0  0  0  0  0  0
  160.5620  203.7370  150.8530 C   0  0  1  0  0  3  0  0  0  0  0  0
  161.5160  204.7500  151.3550 C   0  0  1  0  0  3  0  0  0  0  0  0
  160.4460  205.0970  150.5110 O   0  0  0  0  0  0  0  0  0  0  0  0
  161.1820  202.9890  149.6890 C   0  0  0  0  0  2  0  0  0  0  0  0
  160.7950  203.6370  148.3620 C   0  0  0  0  0  2  0  0  0  0  0  0
  161.6200  203.1350  147.1730 C   0  0  1  0  0  3  0  0  0  0  0  0
  160.9410  201.9810  146.4440 C   0  0  0  0  0  2  0  0  0  0  0  0
  160.5530  202.3890  145.1670 O   0  0  0  0  0  1  0  0  0  0  0  0
  161.9030  204.2260  146.2460 N   0  0  0  0  0  2  0  0  0  0  0  0
  160.5150  206.1700  145.8410 C   0  0  0  0  0  1  0  0  0  0  0  0
  162.4750  206.2840  147.1780 O   0  0  0  0  0  1  0  0  0  0  0  0
  161.4020  205.4560  146.8400 C   0  0  2  0  0  3  0  0  0  0  0  0
  2 25  1  0  0  0  0
  2  3  2  0  0  0  0
  3  1  2  0  0  0  0
  6  9  2  0  0  0  0
  7  1  1  6  0  0  0
  7  9  1  0  0  0  0
  7  8  1  0  0  0  0
  8  5  2  0  0  0  0
  9 10  1  0  0  0  0
 10  4  1  0  0  0  0
 10  5  1  0  0  0  0
 11 15  1  0  0  0  0
 11 14  1  0  0  0  0
 12  2  1  0  0  0  0
 13 12  2  0  0  0  0
 14 12  1  0  0  0  0
 15 16  1  1  0  0  0
 15 13  1  0  0  0  0
 17 22  2  0  0  0  0
 17 21  1  0  0  0  0
 18 19  2  0  0  0  0
 19 16  1  0  0  0  0
 20 19  1  0  0  0  0
 21 20  2  0  0  0  0
 22 18  1  0  0  0  0
 23 17  1  0  0  0  0
 24 23  1  0  0  0  0
 25 26  1  0  0  0  0
 27 26  1  0  0  0  0
 28 31  1  6  0  0  0
 28 29  1  0  0  0  0
 29 27  1  1  0  0  0
 30 28  1  0  0  0  0
 30 29  1  0  0  0  0
 32 31  1  0  0  0  0
 33 34  1  6  0  0  0
 33 32  1  0  0  0  0
 35 34  1  0  0  0  0
 36 39  1  0  0  0  0
 36 33  1  0  0  0  0
 39 37  1  6  0  0  0
 39 38  1  0  0  0  0
M  END
>  <MODEL>
3

>  <REMARK>
 VINA RESULT:      -6.8      2.553      6.278
  Name = 
  15 active torsions:
  status: ('A' for Active; 'I' for Inactive)
    1  A    between atoms: C_1  and  C_24
    2  A    between atoms: C_2  and  C_15
    3  A    between atoms: C_2  and  C_17
    4  A    between atoms: C_4  and  CA_30
    5  A    between atoms: C_4  and  C_32
    6  A    between atoms: C_5  and  O_7
    7  A    between atoms: C_6  and  C_32
    8  A    between atoms: C_8  and  C_21
    9  A    between atoms: C_8  and  C_39
   10  A    between atoms: C_11  and  C_15
   11  A    between atoms: C_11  and  C_35
   12  A    between atoms: C_14  and  CA_30
   13  A    between atoms: C_18  and  C_35
   14  A    between atoms: C_22  and  N_27
   15  A    between atoms: N_27  and  CA_30
                            x       y       z     vdW  Elec       q    Type
                         _______ _______ _______ _____ _____    ______ ____

>  <TORSDO>
F 15

$$$$
=
 OpenBabel11042421203D

 39 42  0  0  1  0  0  0  0  0999 V2000
  162.7180  212.2780  147.5630 C   0  0  0  0  0  3  0  0  0  0  0  0
  161.8880  211.0010  149.6830 C   0  0  0  0  0  0  0  0  0  0  0  0
  162.3060  211.6410  148.6240 C   0  0  0  0  0  0  0  0  0  0  0  0
  159.9450  212.1650  143.8200 C   0  0  0  0  0  1  0  0  0  0  0  0
  162.0080  213.5530  144.4400 C   0  0  0  0  0  3  0  0  0  0  0  0
  159.8190  211.9970  146.7540 O   0  0  0  0  0  0  0  0  0  0  0  0
  161.8500  213.3000  146.9060 C   0  0  1  0  0  3  0  0  0  0  0  0
  162.6220  214.0020  145.7770 C   0  0  0  0  0  3  0  0  0  0  0  0
  160.7470  212.6320  146.1860 C   0  0  0  0  0  0  0  0  0  0  0  0
  160.8310  212.7860  144.7880 N   0  0  0  0  0  0  0  0  0  0  0  0
  162.4710  207.4690  150.5890 C   0  0  0  0  0  2  0  0  0  0  0  0
  162.0060  209.5350  149.7500 C   0  0  0  0  0  0  0  0  0  0  0  0
  161.6670  208.7600  148.7780 N   0  0  0  0  0  0  0  0  0  0  0  0
  162.4830  208.8580  150.8540 O   0  0  0  0  0  0  0  0  0  0  0  0
  161.9030  207.3760  149.1660 C   0  0  2  0  0  3  0  0  0  0  0  0
  160.5820  206.6180  149.1670 C   0  0  0  0  0  2  0  0  0  0  0  0
  161.1790  202.3740  148.8550 C   0  0  0  0  0  0  0  0  0  0  0  0
  160.5160  204.3150  150.1510 C   0  0  0  0  0  3  0  0  0  0  0  0
  160.8050  205.1470  149.0650 C   0  0  0  0  0  0  0  0  0  0  0  0
  161.2710  204.5930  147.8680 C   0  0  0  0  0  3  0  0  0  0  0  0
  161.4610  203.2140  147.7620 C   0  0  0  0  0  3  0  0  0  0  0  0
  160.7070  202.9340  150.0480 C   0  0  0  0  0  3  0  0  0  0  0  0
  161.3620  200.9910  148.7840 O   0  0  0  0  0  0  0  0  0  0  0  0
  161.5210  200.3010  147.5530 C   0  0  0  0  0  1  0  0  0  0  0  0
  161.3890  211.7860  150.8510 C   0  0  0  0  0  2  0  0  0  0  0  0
  160.3540  212.8040  150.3970 C   0  0  0  0  0  2  0  0  0  0  0  0
  159.6270  213.3950  151.5910 C   0  0  0  0  0  2  0  0  0  0  0  0
  159.1480  212.5310  153.8310 C   0  0  1  0  0  3  0  0  0  0  0  0
  158.9260  212.3090  152.3860 C   0  0  1  0  0  3  0  0  0  0  0  0
  157.9450  212.9000  153.2020 O   0  0  0  0  0  0  0  0  0  0  0  0
  158.9290  211.2330  154.5840 C   0  0  0  0  0  2  0  0  0  0  0  0
  159.9520  211.0790  155.7060 C   0  0  0  0  0  2  0  0  0  0  0  0
  161.0700  210.0830  155.3820 C   0  0  1  0  0  3  0  0  0  0  0  0
  162.4560  210.7050  155.5200 C   0  0  0  0  0  2  0  0  0  0  0  0
  162.9880  210.4030  156.7740 O   0  0  0  0  0  1  0  0  0  0  0  0
  160.9600  208.8950  156.2210 N   0  0  0  0  0  2  0  0  0  0  0  0
  160.8480  208.1740  153.9110 C   0  0  0  0  0  1  0  0  0  0  0  0
  159.9560  206.8630  155.6780 O   0  0  0  0  0  1  0  0  0  0  0  0
  161.0010  207.7300  155.3510 C   0  0  2  0  0  3  0  0  0  0  0  0
  1  3  2  0  0  0  0
  2 12  1  0  0  0  0
  2 25  1  0  0  0  0
  3  2  2  0  0  0  0
  4 10  1  0  0  0  0
  5 10  1  0  0  0  0
  5  8  2  0  0  0  0
  7  1  1  6  0  0  0
  8  7  1  0  0  0  0
  9  6  2  0  0  0  0
  9  7  1  0  0  0  0
 10  9  1  0  0  0  0
 11 14  1  0  0  0  0
 12 14  1  0  0  0  0
 13 15  1  0  0  0  0
 13 12  2  0  0  0  0
 15 16  1  1  0  0  0
 15 11  1  0  0  0  0
 17 22  1  0  0  0  0
 19 16  1  0  0  0  0
 19 18  1  0  0  0  0
 20 19  2  0  0  0  0
 21 20  1  0  0  0  0
 21 17  2  0  0  0  0
 22 18  2  0  0  0  0
 23 17  1  0  0  0  0
 24 23  1  0  0  0  0
 26 25  1  0  0  0  0
 26 27  1  0  0  0  0
 28 31  1  1  0  0  0
 29 27  1  6  0  0  0
 29 30  1  0  0  0  0
 29 28  1  0  0  0  0
 30 28  1  0  0  0  0
 31 32  1  0  0  0  0
 33 34  1  1  0  0  0
 33 32  1  0  0  0  0
 33 36  1  0  0  0  0
 34 35  1  0  0  0  0
 39 37  1  6  0  0  0
 39 38  1  0  0  0  0
 39 36  1  0  0  0  0
M  END
>  <MODEL>
4

>  <REMARK>
 VINA RESULT:      -6.8      2.370      9.489
  Name = 
  15 active torsions:
  status: ('A' for Active; 'I' for Inactive)
    1  A    between atoms: C_1  and  C_24
    2  A    between atoms: C_2  and  C_15
    3  A    between atoms: C_2  and  C_17
    4  A    between atoms: C_4  and  CA_30
    5  A    between atoms: C_4  and  C_32
    6  A    between atoms: C_5  and  O_7
    7  A    between atoms: C_6  and  C_32
    8  A    between atoms: C_8  and  C_21
    9  A    between atoms: C_8  and  C_39
   10  A    between atoms: C_11  and  C_15
   11  A    between atoms: C_11  and  C_35
   12  A    between atoms: C_14  and  CA_30
   13  A    between atoms: C_18  and  C_35
   14  A    between atoms: C_22  and  N_27
   15  A    between atoms: N_27  and  CA_30
                            x       y       z     vdW  Elec       q    Type
                         _______ _______ _______ _____ _____    ______ ____

>  <TORSDO>
F 15

$$$$
=
 OpenBabel11042421203D

 39 42  0  0  1  0  0  0  0  0999 V2000
  160.0510  207.7650  155.7360 C   0  0  0  0  0  3  0  0  0  0  0  0
  160.8440  208.0370  153.2650 C   0  0  0  0  0  0  0  0  0  0  0  0
  160.4450  207.9010  154.5000 C   0  0  0  0  0  0  0  0  0  0  0  0
  160.4890  212.4050  155.7320 C   0  0  0  0  0  1  0  0  0  0  0  0
  162.1320  210.4820  156.1480 C   0  0  0  0  0  3  0  0  0  0  0  0
  158.6160  210.2950  156.5630 O   0  0  0  0  0  0  0  0  0  0  0  0
  160.4660  208.7510  156.7780 C   0  0  1  0  0  3  0  0  0  0  0  0
  161.9710  209.0420  156.6620 C   0  0  0  0  0  3  0  0  0  0  0  0
  159.8530  210.0650  156.4960 C   0  0  0  0  0  0  0  0  0  0  0  0
  160.8010  211.0490  156.1500 N   0  0  0  0  0  0  0  0  0  0  0  0
  162.8850  205.2310  151.9970 C   0  0  0  0  0  2  0  0  0  0  0  0
  161.4190  206.8860  152.5470 C   0  0  0  0  0  0  0  0  0  0  0  0
  160.8370  206.3260  151.5440 N   0  0  0  0  0  0  0  0  0  0  0  0
  162.6240  206.3020  152.8840 O   0  0  0  0  0  0  0  0  0  0  0  0
  161.6610  205.2230  151.0700 C   0  0  2  0  0  3  0  0  0  0  0  0
  160.8910  203.9170  151.2140 C   0  0  0  0  0  2  0  0  0  0  0  0
  160.8970  201.7120  147.5260 C   0  0  0  0  0  0  0  0  0  0  0  0
  161.0830  203.8170  148.7180 C   0  0  0  0  0  3  0  0  0  0  0  0
  160.8770  203.1540  149.9320 C   0  0  0  0  0  0  0  0  0  0  0  0
  160.6910  201.7680  149.9470 C   0  0  0  0  0  3  0  0  0  0  0  0
  160.6980  201.0490  148.7490 C   0  0  0  0  0  3  0  0  0  0  0  0
  161.0890  203.0990  147.5190 C   0  0  0  0  0  3  0  0  0  0  0  0
  160.9060  201.0230  146.3100 O   0  0  0  0  0  0  0  0  0  0  0  0
  160.2850  201.5280  145.1380 C   0  0  0  0  0  1  0  0  0  0  0  0
  160.6160  209.3390  152.5710 C   0  0  0  0  0  2  0  0  0  0  0  0
  161.9170  209.8510  151.9730 C   0  0  0  0  0  2  0  0  0  0  0  0
  161.8310  209.8890  150.4580 C   0  0  0  0  0  2  0  0  0  0  0  0
  162.0190  211.3390  148.4940 C   0  0  1  0  0  3  0  0  0  0  0  0
  162.3840  211.1970  149.9210 C   0  0  1  0  0  3  0  0  0  0  0  0
  161.3130  212.0100  149.5090 O   0  0  0  0  0  0  0  0  0  0  0  0
  162.9640  212.3180  147.8240 C   0  0  0  0  0  2  0  0  0  0  0  0
  162.3520  213.7150  147.7760 C   0  0  0  0  0  2  0  0  0  0  0  0
  161.9360  214.1530  146.3680 C   0  0  1  0  0  3  0  0  0  0  0  0
  162.5220  213.2530  145.2860 C   0  0  0  0  0  2  0  0  0  0  0  0
  163.2160  214.0240  144.3520 O   0  0  0  0  0  1  0  0  0  0  0  0
  160.4830  214.2070  146.2540 N   0  0  0  0  0  2  0  0  0  0  0  0
  159.1460  213.2750  144.4620 C   0  0  0  0  0  1  0  0  0  0  0  0
  159.3180  212.2150  146.5800 O   0  0  0  0  0  1  0  0  0  0  0  0
  160.0380  212.9630  145.6450 C   0  0  2  0  0  3  0  0  0  0  0  0
  2  3  2  0  0  0  0
  3  1  2  0  0  0  0
  4 10  1  0  0  0  0
  5 10  1  0  0  0  0
  5  8  2  0  0  0  0
  7  1  1  6  0  0  0
  8  7  1  0  0  0  0
  9  6  2  0  0  0  0
  9  7  1  0  0  0  0
 10  9  1  0  0  0  0
 11 14  1  0  0  0  0
 12 14  1  0  0  0  0
 12  2  1  0  0  0  0
 13 12  2  0  0  0  0
 15 16  1  1  0  0  0
 15 13  1  0  0  0  0
 15 11  1  0  0  0  0
 17 21  1  0  0  0  0
 18 19  2  0  0  0  0
 19 20  1  0  0  0  0
 19 16  1  0  0  0  0
 21 20  2  0  0  0  0
 22 17  2  0  0  0  0
 22 18  1  0  0  0  0
 23 17  1  0  0  0  0
 24 23  1  0  0  0  0
 25  2  1  0  0  0  0
 26 25  1  0  0  0  0
 27 26  1  0  0  0  0
 28 31  1  6  0  0  0
 28 30  1  0  0  0  0
 28 29  1  0  0  0  0
 29 27  1  1  0  0  0
 30 29  1  0  0  0  0
 32 31  1  0  0  0  0
 33 34  1  6  0  0  0
 33 32  1  0  0  0  0
 35 34  1  0  0  0  0
 36 33  1  0  0  0  0
 39 37  1  6  0  0  0
 39 36  1  0  0  0  0
 39 38  1  0  0  0  0
M  END
>  <MODEL>
5

>  <REMARK>
 VINA RESULT:      -6.7      2.838      8.730
  Name = 
  15 active torsions:
  status: ('A' for Active; 'I' for Inactive)
    1  A    between atoms: C_1  and  C_24
    2  A    between atoms: C_2  and  C_15
    3  A    between atoms: C_2  and  C_17
    4  A    between atoms: C_4  and  CA_30
    5  A    between atoms: C_4  and  C_32
    6  A    between atoms: C_5  and  O_7
    7  A    between atoms: C_6  and  C_32
    8  A    between atoms: C_8  and  C_21
    9  A    between atoms: C_8  and  C_39
   10  A    between atoms: C_11  and  C_15
   11  A    between atoms: C_11  and  C_35
   12  A    between atoms: C_14  and  CA_30
   13  A    between atoms: C_18  and  C_35
   14  A    between atoms: C_22  and  N_27
   15  A    between atoms: N_27  and  CA_30
                            x       y       z     vdW  Elec       q    Type
                         _______ _______ _______ _____ _____    ______ ____

>  <TORSDO>
F 15

$$$$
=
 OpenBabel11042421203D

 39 42  0  0  1  0  0  0  0  0999 V2000
  160.8850  208.4320  151.5060 C   0  0  0  0  0  3  0  0  0  0  0  0
  161.0960  207.2540  153.8260 C   0  0  0  0  0  0  0  0  0  0  0  0
  160.9880  207.8410  152.6650 C   0  0  0  0  0  0  0  0  0  0  0  0
  162.2700  211.4670  148.2530 C   0  0  0  0  0  1  0  0  0  0  0  0
  161.5890  208.9970  148.1800 C   0  0  0  0  0  3  0  0  0  0  0  0
  162.8370  210.6920  151.0330 O   0  0  0  0  0  0  0  0  0  0  0  0
  162.0400  208.4570  150.5620 C   0  0  1  0  0  3  0  0  0  0  0  0
  161.6310  207.8550  149.2080 C   0  0  0  0  0  3  0  0  0  0  0  0
  162.3730  209.8540  150.2150 C   0  0  0  0  0  0  0  0  0  0  0  0
  162.1280  210.1560  148.8600 N   0  0  0  0  0  0  0  0  0  0  0  0
  160.5570  208.5510  157.2410 C   0  0  0  0  0  2  0  0  0  0  0  0
  160.6550  207.9510  155.0460 C   0  0  0  0  0  0  0  0  0  0  0  0
  159.7150  208.8310  155.0490 N   0  0  0  0  0  0  0  0  0  0  0  0
  161.2080  207.7300  156.2920 O   0  0  0  0  0  0  0  0  0  0  0  0
  159.5290  209.3270  156.4060 C   0  0  2  0  0  3  0  0  0  0  0  0
  159.8270  210.8200  156.4450 C   0  0  0  0  0  2  0  0  0  0  0  0
  157.1080  212.9740  153.9090 C   0  0  0  0  0  0  0  0  0  0  0  0
  159.3750  212.4040  154.5560 C   0  0  0  0  0  3  0  0  0  0  0  0
  158.8840  211.5800  155.5750 C   0  0  0  0  0  0  0  0  0  0  0  0
  157.5040  211.4440  155.7550 C   0  0  0  0  0  3  0  0  0  0  0  0
  156.6180  212.1390  154.9290 C   0  0  0  0  0  3  0  0  0  0  0  0
  158.4900  213.1010  153.7290 C   0  0  0  0  0  3  0  0  0  0  0  0
  156.2490  213.6860  153.0670 O   0  0  0  0  0  0  0  0  0  0  0  0
  154.8450  213.7420  153.2750 C   0  0  0  0  0  1  0  0  0  0  0  0
  161.5740  205.8400  153.8790 C   0  0  0  0  0  2  0  0  0  0  0  0
  161.9870  205.3730  152.4910 C   0  0  0  0  0  2  0  0  0  0  0  0
  160.9200  204.4760  151.8900 C   0  0  0  0  0  2  0  0  0  0  0  0
  160.4910  202.7460  150.2120 C   0  0  1  0  0  3  0  0  0  0  0  0
  161.4240  203.8200  150.6180 C   0  0  1  0  0  3  0  0  0  0  0  0
  160.4740  204.0110  149.5980 O   0  0  0  0  0  0  0  0  0  0  0  0
  161.2080  201.7680  149.3010 C   0  0  0  0  0  2  0  0  0  0  0  0
  160.4100  201.5360  148.0210 C   0  0  0  0  0  2  0  0  0  0  0  0
  161.1290  202.0160  146.7560 C   0  0  1  0  0  3  0  0  0  0  0  0
  160.8350  201.1300  145.5510 C   0  0  0  0  0  2  0  0  0  0  0  0
  159.6860  201.5820  144.9000 O   0  0  0  0  0  1  0  0  0  0  0  0
  160.7840  203.4030  146.4650 N   0  0  0  0  0  2  0  0  0  0  0  0
  162.4380  205.1510  146.7480 C   0  0  0  0  0  1  0  0  0  0  0  0
  161.5930  204.5590  144.6100 O   0  0  0  0  0  1  0  0  0  0  0  0
  161.9450  204.0320  145.8540 C   0  0  2  0  0  3  0  0  0  0  0  0
  1  3  2  0  0  0  0
  2 25  1  0  0  0  0
  2 12  1  0  0  0  0
  3  2  2  0  0  0  0
  4 10  1  0  0  0  0
  5 10  1  0  0  0  0
  5  8  2  0  0  0  0
  7  1  1  1  0  0  0
  8  7  1  0  0  0  0
  9  7  1  0  0  0  0
  9  6  2  0  0  0  0
 10  9  1  0  0  0  0
 12 13  2  0  0  0  0
 12 14  1  0  0  0  0
 13 15  1  0  0  0  0
 14 11  1  0  0  0  0
 15 16  1  6  0  0  0
 15 11  1  0  0  0  0
 17 21  1  0  0  0  0
 18 19  2  0  0  0  0
 19 20  1  0  0  0  0
 19 16  1  0  0  0  0
 21 20  2  0  0  0  0
 22 17  2  0  0  0  0
 22 18  1  0  0  0  0
 23 24  1  0  0  0  0
 23 17  1  0  0  0  0
 26 25  1  0  0  0  0
 27 26  1  0  0  0  0
 28 31  1  6  0  0  0
 28 29  1  0  0  0  0
 29 27  1  1  0  0  0
 30 28  1  0  0  0  0
 30 29  1  0  0  0  0
 32 31  1  0  0  0  0
 33 34  1  6  0  0  0
 33 32  1  0  0  0  0
 35 34  1  0  0  0  0
 36 33  1  0  0  0  0
 38 39  1  0  0  0  0
 39 36  1  0  0  0  0
 39 37  1  1  0  0  0
M  END
>  <MODEL>
6

>  <REMARK>
 VINA RESULT:      -6.4      1.101      1.529
  Name = 
  15 active torsions:
  status: ('A' for Active; 'I' for Inactive)
    1  A    between atoms: C_1  and  C_24
    2  A    between atoms: C_2  and  C_15
    3  A    between atoms: C_2  and  C_17
    4  A    between atoms: C_4  and  CA_30
    5  A    between atoms: C_4  and  C_32
    6  A    between atoms: C_5  and  O_7
    7  A    between atoms: C_6  and  C_32
    8  A    between atoms: C_8  and  C_21
    9  A    between atoms: C_8  and  C_39
   10  A    between atoms: C_11  and  C_15
   11  A    between atoms: C_11  and  C_35
   12  A    between atoms: C_14  and  CA_30
   13  A    between atoms: C_18  and  C_35
   14  A    between atoms: C_22  and  N_27
   15  A    between atoms: N_27  and  CA_30
                            x       y       z     vdW  Elec       q    Type
                         _______ _______ _______ _____ _____    ______ ____

>  <TORSDO>
F 15

$$$$
=
 OpenBabel11042421203D

 39 42  0  0  1  0  0  0  0  0999 V2000
  160.0820  207.9260  155.5810 C   0  0  0  0  0  3  0  0  0  0  0  0
  160.8220  207.5830  153.1020 C   0  0  0  0  0  0  0  0  0  0  0  0
  160.4490  207.7550  154.3410 C   0  0  0  0  0  0  0  0  0  0  0  0
  160.0760  212.5840  155.4230 C   0  0  0  0  0  1  0  0  0  0  0  0
  161.9290  210.8200  155.2760 C   0  0  0  0  0  3  0  0  0  0  0  0
  158.7780  210.3510  156.8310 O   0  0  0  0  0  0  0  0  0  0  0  0
  160.7260  208.9760  156.4250 C   0  0  1  0  0  3  0  0  0  0  0  0
  162.0770  209.3880  155.8170 C   0  0  0  0  0  3  0  0  0  0  0  0
  159.9390  210.2240  156.3590 C   0  0  0  0  0  0  0  0  0  0  0  0
  160.6280  211.2730  155.7170 N   0  0  0  0  0  0  0  0  0  0  0  0
  161.4170  203.9700  152.6180 C   0  0  0  0  0  2  0  0  0  0  0  0
  161.1240  206.2290  152.6070 C   0  0  0  0  0  0  0  0  0  0  0  0
  161.4680  205.9900  151.3890 N   0  0  0  0  0  0  0  0  0  0  0  0
  161.0640  205.0980  153.3960 O   0  0  0  0  0  0  0  0  0  0  0  0
  161.6900  204.5600  151.2270 C   0  0  2  0  0  3  0  0  0  0  0  0
  160.7040  204.0050  150.2080 C   0  0  0  0  0  2  0  0  0  0  0  0
  161.8040  205.0540  146.1900 C   0  0  0  0  0  0  0  0  0  0  0  0
  161.4320  203.3710  147.8960 C   0  0  0  0  0  3  0  0  0  0  0  0
  161.1020  204.3700  148.8180 C   0  0  0  0  0  0  0  0  0  0  0  0
  161.1120  205.7120  148.4250 C   0  0  0  0  0  3  0  0  0  0  0  0
  161.4650  206.0550  147.1170 C   0  0  0  0  0  3  0  0  0  0  0  0
  161.7850  203.7130  146.5880 C   0  0  0  0  0  3  0  0  0  0  0  0
  162.1660  205.3650  144.8760 O   0  0  0  0  0  0  0  0  0  0  0  0
  161.2160  205.4790  143.8270 C   0  0  0  0  0  1  0  0  0  0  0  0
  160.8360  208.7590  152.1810 C   0  0  0  0  0  2  0  0  0  0  0  0
  162.2090  208.9120  151.5460 C   0  0  0  0  0  2  0  0  0  0  0  0
  162.3520  210.2810  150.9060 C   0  0  0  0  0  2  0  0  0  0  0  0
  162.0460  211.5440  148.8310 C   0  0  1  0  0  3  0  0  0  0  0  0
  161.6470  210.3220  149.5620 C   0  0  1  0  0  3  0  0  0  0  0  0
  162.6110  210.2900  148.5390 O   0  0  0  0  0  0  0  0  0  0  0  0
  161.0040  211.8700  147.7790 C   0  0  0  0  0  2  0  0  0  0  0  0
  161.1720  213.3010  147.2740 C   0  0  0  0  0  2  0  0  0  0  0  0
  160.6180  213.5200  145.8630 C   0  0  1  0  0  3  0  0  0  0  0  0
  161.6670  213.2710  144.7850 C   0  0  0  0  0  2  0  0  0  0  0  0
  162.9450  213.3320  145.3420 O   0  0  0  0  0  1  0  0  0  0  0  0
  159.4450  212.6840  145.6340 N   0  0  0  0  0  2  0  0  0  0  0  0
  157.4680  212.6070  147.0320 C   0  0  0  0  0  1  0  0  0  0  0  0
  157.4820  213.7320  144.9410 O   0  0  0  0  0  1  0  0  0  0  0  0
  158.2730  213.4370  146.0540 C   0  0  2  0  0  3  0  0  0  0  0  0
  2  3  2  0  0  0  0
  3  1  2  0  0  0  0
  4 10  1  0  0  0  0
  5 10  1  0  0  0  0
  5  8  2  0  0  0  0
  7  1  1  6  0  0  0
  8  7  1  0  0  0  0
  9  7  1  0  0  0  0
  9  6  2  0  0  0  0
 10  9  1  0  0  0  0
 11 14  1  0  0  0  0
 12  2  1  0  0  0  0
 12 14  1  0  0  0  0
 13 12  2  0  0  0  0
 15 16  1  6  0  0  0
 15 13  1  0  0  0  0
 15 11  1  0  0  0  0
 17 22  2  0  0  0  0
 17 21  1  0  0  0  0
 18 19  2  0  0  0  0
 19 16  1  0  0  0  0
 20 19  1  0  0  0  0
 21 20  2  0  0  0  0
 22 18  1  0  0  0  0
 23 17  1  0  0  0  0
 24 23  1  0  0  0  0
 25  2  1  0  0  0  0
 26 25  1  0  0  0  0
 27 26  1  0  0  0  0
 28 31  1  6  0  0  0
 28 29  1  0  0  0  0
 29 27  1  1  0  0  0
 30 28  1  0  0  0  0
 30 29  1  0  0  0  0
 32 31  1  0  0  0  0
 33 34  1  6  0  0  0
 33 32  1  0  0  0  0
 34 35  1  0  0  0  0
 36 33  1  0  0  0  0
 36 39  1  0  0  0  0
 38 39  1  0  0  0  0
 39 37  1  1  0  0  0
M  END
>  <MODEL>
7

>  <REMARK>
 VINA RESULT:      -6.3      2.866      8.200
  Name = 
  15 active torsions:
  status: ('A' for Active; 'I' for Inactive)
    1  A    between atoms: C_1  and  C_24
    2  A    between atoms: C_2  and  C_15
    3  A    between atoms: C_2  and  C_17
    4  A    between atoms: C_4  and  CA_30
    5  A    between atoms: C_4  and  C_32
    6  A    between atoms: C_5  and  O_7
    7  A    between atoms: C_6  and  C_32
    8  A    between atoms: C_8  and  C_21
    9  A    between atoms: C_8  and  C_39
   10  A    between atoms: C_11  and  C_15
   11  A    between atoms: C_11  and  C_35
   12  A    between atoms: C_14  and  CA_30
   13  A    between atoms: C_18  and  C_35
   14  A    between atoms: C_22  and  N_27
   15  A    between atoms: N_27  and  CA_30
                            x       y       z     vdW  Elec       q    Type
                         _______ _______ _______ _____ _____    ______ ____

>  <TORSDO>
F 15

$$$$
=
 OpenBabel11042421203D

 39 42  0  0  1  0  0  0  0  0999 V2000
  161.3440  207.2730  147.7260 C   0  0  0  0  0  3  0  0  0  0  0  0
  161.9210  209.2330  149.3500 C   0  0  0  0  0  0  0  0  0  0  0  0
  161.6300  208.2520  148.5400 C   0  0  0  0  0  0  0  0  0  0  0  0
  161.1200  203.2830  145.3280 C   0  0  0  0  0  1  0  0  0  0  0  0
  161.4720  203.8290  147.8070 C   0  0  0  0  0  3  0  0  0  0  0  0
  162.1890  206.0150  145.1100 O   0  0  0  0  0  0  0  0  0  0  0  0
  162.3070  206.1510  147.5210 C   0  0  1  0  0  3  0  0  0  0  0  0
  162.0540  205.0400  148.5540 C   0  0  0  0  0  3  0  0  0  0  0  0
  162.0260  205.4770  146.2370 C   0  0  0  0  0  0  0  0  0  0  0  0
  161.5640  204.1560  146.4000 N   0  0  0  0  0  0  0  0  0  0  0  0
  161.5800  212.8960  149.0290 C   0  0  0  0  0  2  0  0  0  0  0  0
  161.7440  210.6270  148.9110 C   0  0  0  0  0  0  0  0  0  0  0  0
  161.5340  210.9520  147.6820 N   0  0  0  0  0  0  0  0  0  0  0  0
  161.7920  211.7080  149.7680 O   0  0  0  0  0  0  0  0  0  0  0  0
  161.4100  212.4000  147.5870 C   0  0  2  0  0  3  0  0  0  0  0  0
  162.5210  212.9470  146.6990 C   0  0  0  0  0  2  0  0  0  0  0  0
  161.3440  212.9170  142.5660 C   0  0  0  0  0  0  0  0  0  0  0  0
  163.0760  213.0680  144.2590 C   0  0  0  0  0  3  0  0  0  0  0  0
  162.1110  212.9530  145.2650 C   0  0  0  0  0  0  0  0  0  0  0  0
  160.7630  212.8090  144.9240 C   0  0  0  0  0  3  0  0  0  0  0  0
  160.3780  212.7940  143.5810 C   0  0  0  0  0  3  0  0  0  0  0  0
  162.6930  213.0540  142.9150 C   0  0  0  0  0  3  0  0  0  0  0  0
  160.9930  212.9090  141.2140 O   0  0  0  0  0  0  0  0  0  0  0  0
  159.8260  212.2620  140.7290 C   0  0  0  0  0  1  0  0  0  0  0  0
  162.3330  208.9150  150.7500 C   0  0  0  0  0  2  0  0  0  0  0  0
  161.2290  208.1500  151.4620 C   0  0  0  0  0  2  0  0  0  0  0  0
  161.7040  206.7600  151.8470 C   0  0  0  0  0  2  0  0  0  0  0  0
  160.6530  206.9120  154.0530 C   0  0  1  0  0  3  0  0  0  0  0  0
  161.9280  206.6640  153.3450 C   0  0  1  0  0  3  0  0  0  0  0  0
  161.1510  205.6110  153.8570 O   0  0  0  0  0  0  0  0  0  0  0  0
  160.9400  207.3370  155.4800 C   0  0  0  0  0  2  0  0  0  0  0  0
  160.1160  208.5660  155.8550 C   0  0  0  0  0  2  0  0  0  0  0  0
  160.9340  209.8610  155.8990 C   0  0  1  0  0  3  0  0  0  0  0  0
  162.3150  209.6520  156.5110 C   0  0  0  0  0  2  0  0  0  0  0  0
  162.7750  210.8480  157.0630 O   0  0  0  0  0  1  0  0  0  0  0  0
  161.0520  210.4400  154.5660 N   0  0  0  0  0  2  0  0  0  0  0  0
  159.6150  211.2020  152.7700 C   0  0  0  0  0  1  0  0  0  0  0  0
  159.8610  212.4310  154.7870 O   0  0  0  0  0  1  0  0  0  0  0  0
  159.8080  211.1350  154.2710 C   0  0  2  0  0  3  0  0  0  0  0  0
  1  3  2  0  0  0  0
  2 25  1  0  0  0  0
  3  2  2  0  0  0  0
  4 10  1  0  0  0  0
  5  8  2  0  0  0  0
  6  9  2  0  0  0  0
  7  1  1  1  0  0  0
  7  8  1  0  0  0  0
  9 10  1  0  0  0  0
  9  7  1  0  0  0  0
 10  5  1  0  0  0  0
 11 14  1  0  0  0  0
 12  2  1  0  0  0  0
 12 14  1  0  0  0  0
 13 12  2  0  0  0  0
 15 16  1  6  0  0  0
 15 13  1  0  0  0  0
 15 11  1  0  0  0  0
 17 22  2  0  0  0  0
 17 21  1  0  0  0  0
 18 19  2  0  0  0  0
 19 16  1  0  0  0  0
 20 19  1  0  0  0  0
 21 20  2  0  0  0  0
 22 18  1  0  0  0  0
 23 17  1  0  0  0  0
 24 23  1  0  0  0  0
 25 26  1  0  0  0  0
 26 27  1  0  0  0  0
 28 31  1  1  0  0  0
 29 27  1  6  0  0  0
 29 30  1  0  0  0  0
 29 28  1  0  0  0  0
 30 28  1  0  0  0  0
 31 32  1  0  0  0  0
 33 32  1  6  0  0  0
 33 34  1  0  0  0  0
 34 35  1  0  0  0  0
 36 33  1  0  0  0  0
 39 37  1  6  0  0  0
 39 36  1  0  0  0  0
 39 38  1  0  0  0  0
M  END
>  <MODEL>
8

>  <REMARK>
 VINA RESULT:      -6.1      3.048      9.126
  Name = 
  15 active torsions:
  status: ('A' for Active; 'I' for Inactive)
    1  A    between atoms: C_1  and  C_24
    2  A    between atoms: C_2  and  C_15
    3  A    between atoms: C_2  and  C_17
    4  A    between atoms: C_4  and  CA_30
    5  A    between atoms: C_4  and  C_32
    6  A    between atoms: C_5  and  O_7
    7  A    between atoms: C_6  and  C_32
    8  A    between atoms: C_8  and  C_21
    9  A    between atoms: C_8  and  C_39
   10  A    between atoms: C_11  and  C_15
   11  A    between atoms: C_11  and  C_35
   12  A    between atoms: C_14  and  CA_30
   13  A    between atoms: C_18  and  C_35
   14  A    between atoms: C_22  and  N_27
   15  A    between atoms: N_27  and  CA_30
                            x       y       z     vdW  Elec       q    Type
                         _______ _______ _______ _____ _____    ______ ____

>  <TORSDO>
F 15

$$$$
=
 OpenBabel11042421203D

 39 42  0  0  1  0  0  0  0  0999 V2000
  160.6170  208.0160  154.8280 C   0  0  0  0  0  3  0  0  0  0  0  0
  160.9530  207.2960  152.3420 C   0  0  0  0  0  0  0  0  0  0  0  0
  160.7820  207.6560  153.5840 C   0  0  0  0  0  0  0  0  0  0  0  0
  159.1100  212.2530  156.0470 C   0  0  0  0  0  1  0  0  0  0  0  0
  160.8000  211.4180  154.3110 C   0  0  0  0  0  3  0  0  0  0  0  0
  159.8410  209.6660  157.2390 O   0  0  0  0  0  0  0  0  0  0  0  0
  161.3050  209.2270  155.3650 C   0  0  1  0  0  3  0  0  0  0  0  0
  161.6920  210.1700  154.2140 C   0  0  0  0  0  3  0  0  0  0  0  0
  160.3510  210.0380  156.1490 C   0  0  0  0  0  0  0  0  0  0  0  0
  160.0750  211.2860  155.5560 N   0  0  0  0  0  0  0  0  0  0  0  0
  161.6580  203.6710  152.3240 C   0  0  0  0  0  2  0  0  0  0  0  0
  161.2790  205.8970  152.0200 C   0  0  0  0  0  0  0  0  0  0  0  0
  161.5630  205.5000  150.8280 N   0  0  0  0  0  0  0  0  0  0  0  0
  161.3060  204.8850  152.9590 O   0  0  0  0  0  0  0  0  0  0  0  0
  161.8310  204.0690  150.8520 C   0  0  2  0  0  3  0  0  0  0  0  0
  160.8110  203.3480  149.9800 C   0  0  0  0  0  2  0  0  0  0  0  0
  161.5390  204.1420  145.8200 C   0  0  0  0  0  0  0  0  0  0  0  0
  161.1050  204.9420  148.0690 C   0  0  0  0  0  3  0  0  0  0  0  0
  161.0470  203.6240  148.5330 C   0  0  0  0  0  0  0  0  0  0  0  0
  161.2460  202.5630  147.6440 C   0  0  0  0  0  3  0  0  0  0  0  0
  161.4880  202.8180  146.2920 C   0  0  0  0  0  3  0  0  0  0  0  0
  161.3460  205.1990  146.7170 C   0  0  0  0  0  3  0  0  0  0  0  0
  161.7750  204.4320  144.4730 O   0  0  0  0  0  0  0  0  0  0  0  0
  161.4080  205.6680  143.8800 C   0  0  0  0  0  1  0  0  0  0  0  0
  160.7130  208.2970  151.2590 C   0  0  0  0  0  2  0  0  0  0  0  0
  162.0330  208.8830  150.7840 C   0  0  0  0  0  2  0  0  0  0  0  0
  161.8800  210.3600  150.4690 C   0  0  0  0  0  2  0  0  0  0  0  0
  161.7870  212.0410  148.6910 C   0  0  1  0  0  3  0  0  0  0  0  0
  162.0230  210.6090  148.9780 C   0  0  1  0  0  3  0  0  0  0  0  0
  163.0860  211.5040  148.7640 O   0  0  0  0  0  0  0  0  0  0  0  0
  161.4080  212.2100  147.2320 C   0  0  0  0  0  2  0  0  0  0  0  0
  159.9420  212.6120  147.0970 C   0  0  0  0  0  2  0  0  0  0  0  0
  159.6010  213.2350  145.7400 C   0  0  1  0  0  3  0  0  0  0  0  0
  158.5010  214.2860  145.8460 C   0  0  0  0  0  2  0  0  0  0  0  0
  157.2740  213.6660  146.0840 O   0  0  0  0  0  1  0  0  0  0  0  0
  160.7930  213.8060  145.1220 N   0  0  0  0  0  2  0  0  0  0  0  0
  162.4130  212.9070  143.5620 C   0  0  0  0  0  1  0  0  0  0  0  0
  160.4830  214.0800  142.8290 O   0  0  0  0  0  1  0  0  0  0  0  0
  160.9480  213.2000  143.8090 C   0  0  2  0  0  3  0  0  0  0  0  0
  2  3  2  0  0  0  0
  3  1  2  0  0  0  0
  5 10  1  0  0  0  0
  7  1  1  6  0  0  0
  7  9  1  0  0  0  0
  8  5  2  0  0  0  0
  8  7  1  0  0  0  0
  9  6  2  0  0  0  0
 10  4  1  0  0  0  0
 10  9  1  0  0  0  0
 11 14  1  0  0  0  0
 12  2  1  0  0  0  0
 12 14  1  0  0  0  0
 13 15  1  0  0  0  0
 13 12  2  0  0  0  0
 15 16  1  6  0  0  0
 15 11  1  0  0  0  0
 17 21  2  0  0  0  0
 17 22  1  0  0  0  0
 18 19  1  0  0  0  0
 19 16  1  0  0  0  0
 20 19  2  0  0  0  0
 21 20  1  0  0  0  0
 22 18  2  0  0  0  0
 23 17  1  0  0  0  0
 24 23  1  0  0  0  0
 25  2  1  0  0  0  0
 26 25  1  0  0  0  0
 27 26  1  0  0  0  0
 28 31  1  6  0  0  0
 28 30  1  0  0  0  0
 28 29  1  0  0  0  0
 29 27  1  1  0  0  0
 30 29  1  0  0  0  0
 32 31  1  0  0  0  0
 33 34  1  1  0  0  0
 33 32  1  0  0  0  0
 34 35  1  0  0  0  0
 36 33  1  0  0  0  0
 38 39  1  0  0  0  0
 39 37  1  6  0  0  0
 39 36  1  0  0  0  0
M  END
>  <MODEL>
9

>  <REMARK>
 VINA RESULT:      -6.1      3.022      8.486
  Name = 
  15 active torsions:
  status: ('A' for Active; 'I' for Inactive)
    1  A    between atoms: C_1  and  C_24
    2  A    between atoms: C_2  and  C_15
    3  A    between atoms: C_2  and  C_17
    4  A    between atoms: C_4  and  CA_30
    5  A    between atoms: C_4  and  C_32
    6  A    between atoms: C_5  and  O_7
    7  A    between atoms: C_6  and  C_32
    8  A    between atoms: C_8  and  C_21
    9  A    between atoms: C_8  and  C_39
   10  A    between atoms: C_11  and  C_15
   11  A    between atoms: C_11  and  C_35
   12  A    between atoms: C_14  and  CA_30
   13  A    between atoms: C_18  and  C_35
   14  A    between atoms: C_22  and  N_27
   15  A    between atoms: N_27  and  CA_30
                            x       y       z     vdW  Elec       q    Type
                         _______ _______ _______ _____ _____    ______ ____

>  <TORSDO>
F 15

$$$$
