=
 OpenBabel11052411523D

 32 33  0  0  1  0  0  0  0  0999 V2000
  160.9360  206.4330  148.3270 C   0  0  1  0  0  3  0  0  0  0  0  0
  161.0130  205.2030  149.1020 N   0  0  0  0  0  0  0  0  0  0  0  0
  160.5510  205.1400  150.3090 C   0  0  0  0  0  3  0  0  0  0  0  0
  161.5450  201.8120  151.2530 O   0  0  0  0  0  0  0  0  0  0  0  0
  160.6120  203.9250  151.0650 N   0  0  0  0  0  2  0  0  0  0  0  0
  160.8970  202.6220  150.5370 C   0  0  0  0  0  0  0  0  0  0  0  0
  159.3000  201.4750  149.0830 C   0  0  0  0  0  2  0  0  0  0  0  0
  160.4180  202.1830  149.2060 C   0  0  0  0  0  0  0  0  0  0  0  0
  161.2970  202.3360  148.0030 C   0  0  0  0  0  2  0  0  0  0  0  0
  161.5100  200.0580  147.3260 O   0  0  0  0  0  1  0  0  0  0  0  0
  161.0910  201.2110  147.0440 C   0  0  0  0  0  0  0  0  0  0  0  0
  160.4670  201.4420  145.8260 O   0  0  0  0  0  0  0  0  0  0  0  0
  162.6880  208.0410  148.4310 O   0  0  0  0  0  0  0  0  0  0  0  0
  161.3520  207.9120  150.3390 N   0  0  0  0  0  2  0  0  0  0  0  0
  161.7110  207.5040  149.0190 C   0  0  0  0  0  0  0  0  0  0  0  0
  162.0700  208.9100  151.0060 N   0  0  0  0  0  2  0  0  0  0  0  0
  159.4350  211.2540  154.7010 N   0  0  0  0  0  0  0  0  0  0  0  0
  160.2870  211.7070  152.5050 C   0  0  0  0  0  3  0  0  0  0  0  0
  160.2630  207.8980  155.7260 C   0  0  0  0  0  0  0  0  0  0  0  0
  160.8380  210.4280  152.3910 C   0  0  0  0  0  0  0  0  0  0  0  0
  160.9690  207.4110  154.6210 C   0  0  0  0  0  3  0  0  0  0  0  0
  159.7670  209.1640  155.7290 N   0  0  0  0  0  0  0  0  0  0  0  0
  160.0590  207.0590  156.8550 N   0  0  0  0  0  1  0  0  0  0  0  0
  161.4630  210.1410  151.2830 N   0  0  0  0  0  0  0  0  0  0  0  0
  159.9390  209.9970  154.6710 C   0  0  0  0  0  0  0  0  0  0  0  0
  161.1770  208.2210  153.5040 C   0  0  0  0  0  3  0  0  0  0  0  0
  160.6810  209.5270  153.4750 C   0  0  2  0  0  3  0  0  0  0  0  0
  159.5960  212.1040  153.6540 C   0  0  0  0  0  3  0  0  0  0  0  0
  161.5000  206.2230  146.9280 C   0  0  0  0  0  2  0  0  0  0  0  0
  160.4000  206.2820  145.8860 C   0  0  0  0  0  2  0  0  0  0  0  0
  161.8860  204.6530  145.1370 C   0  0  0  0  0  1  0  0  0  0  0  0
  160.8000  205.5180  144.7180 N   0  0  0  0  0  2  0  0  0  0  0  0
  1 29  1  6  0  0  0
  1 15  1  0  0  0  0
  1  2  1  0  0  0  0
  2  3  2  0  0  0  0
  3  5  1  0  0  0  0
  6  5  1  0  0  0  0
  6  4  2  0  0  0  0
  7  8  2  0  0  0  0
  8  6  1  0  0  0  0
  9  8  1  0  0  0  0
 11 10  1  0  0  0  0
 11  9  1  0  0  0  0
 12 11  2  0  0  0  0
 13 15  2  0  0  0  0
 14 16  1  0  0  0  0
 15 14  1  0  0  0  0
 16 24  1  0  0  0  0
 18 28  2  0  0  0  0
 19 22  2  0  0  0  0
 19 23  1  0  0  0  0
 20 18  1  0  0  0  0
 20 27  1  0  0  0  0
 21 19  1  0  0  0  0
 24 20  2  0  0  0  0
 25 17  2  0  0  0  0
 25 22  1  0  0  0  0
 26 21  2  0  0  0  0
 27 26  1  1  0  0  0
 27 25  1  0  0  0  0
 28 17  1  0  0  0  0
 30 29  1  0  0  0  0
 32 31  1  0  0  0  0
 32 30  1  0  0  0  0
M  END
>  <MODEL>
1

>  <REMARK>
 VINA RESULT:      -8.2      0.000      0.000
  Name = 
  10 active torsions:
  status: ('A' for Active; 'I' for Inactive)
    1  A    between atoms: N_1  and  C_5
    2  A    between atoms: C_4  and  N_18
    3  A    between atoms: C_4  and  C_30
    4  A    between atoms: C_5  and  C_28
    5  A    between atoms: C_5  and  C_30
    6  A    between atoms: N_6  and  N_17
    7  A    between atoms: N_6  and  N_23
    8  A    between atoms: C_20  and  C_24
    9  A    between atoms: C_20  and  C_31
   10  A    between atoms: C_22  and  C_24
                            x       y       z     vdW  Elec       q    Type
                         _______ _______ _______ _____ _____    ______ ____

>  <TORSDO>
F 10

$$$$
=
 OpenBabel11052411523D

 32 33  0  0  1  0  0  0  0  0999 V2000
  162.1700  210.4050  150.6960 C   0  0  1  0  0  3  0  0  0  0  0  0
  161.4370  210.6730  151.9240 N   0  0  0  0  0  0  0  0  0  0  0  0
  160.1480  210.5650  151.9740 C   0  0  0  0  0  3  0  0  0  0  0  0
  159.4890  211.7240  155.3170 O   0  0  0  0  0  0  0  0  0  0  0  0
  159.4290  210.8130  153.1870 N   0  0  0  0  0  2  0  0  0  0  0  0
  160.0040  210.9170  154.4970 C   0  0  0  0  0  0  0  0  0  0  0  0
  162.2840  210.6330  155.3320 C   0  0  0  0  0  2  0  0  0  0  0  0
  161.1450  210.0780  154.9320 C   0  0  0  0  0  0  0  0  0  0  0  0
  161.1130  208.5970  154.7170 C   0  0  0  0  0  2  0  0  0  0  0  0
  161.5890  207.6990  156.8760 O   0  0  0  0  0  1  0  0  0  0  0  0
  160.7340  207.8830  155.9710 C   0  0  0  0  0  0  0  0  0  0  0  0
  159.4450  207.3920  156.1280 O   0  0  0  0  0  0  0  0  0  0  0  0
  162.3020  208.1090  151.3100 O   0  0  0  0  0  0  0  0  0  0  0  0
  161.8360  208.5040  149.0590 N   0  0  0  0  0  2  0  0  0  0  0  0
  162.1070  208.9470  150.3890 C   0  0  0  0  0  0  0  0  0  0  0  0
  161.7790  207.1410  148.7490 N   0  0  0  0  0  0  0  0  0  0  0  0
  161.2390  202.9240  145.9180 N   0  0  0  0  0  0  0  0  0  0  0  0
  161.7280  205.2560  145.6360 C   0  0  0  0  0  3  0  0  0  0  0  0
  160.7190  202.1390  149.3990 C   0  0  0  0  0  0  0  0  0  0  0  0
  161.6330  205.5010  147.0080 C   0  0  0  0  0  0  0  0  0  0  0  0
  160.8990  203.3810  150.0180 C   0  0  0  0  0  3  0  0  0  0  0  0
  160.8370  202.0130  148.0500 N   0  0  0  0  0  0  0  0  0  0  0  0
  160.4130  200.9980  150.1890 N   0  0  0  0  0  1  0  0  0  0  0  0
  161.8350  206.7250  147.4130 N   0  0  0  0  0  0  0  0  0  0  0  0
  161.1280  203.0780  147.2600 C   0  0  0  0  0  0  0  0  0  0  0  0
  161.2010  204.5110  149.2570 C   0  0  0  0  0  3  0  0  0  0  0  0
  161.3280  204.4160  147.8680 C   0  0  1  0  0  3  0  0  0  0  0  0
  161.5300  203.9750  145.1090 C   0  0  0  0  0  2  0  0  0  0  0  0
  161.5800  211.1930  149.5340 C   0  0  0  0  0  2  0  0  0  0  0  0
  162.6750  211.8170  148.6910 C   0  0  0  0  0  2  0  0  0  0  0  0
  162.2360  212.9810  146.7230 C   0  0  0  0  0  1  0  0  0  0  0  0
  162.2150  213.0910  148.1690 N   0  0  0  0  0  2  0  0  0  0  0  0
  1 29  1  6  0  0  0
  1  2  1  0  0  0  0
  2  3  2  0  0  0  0
  3  5  1  0  0  0  0
  5  6  1  0  0  0  0
  6  8  1  0  0  0  0
  6  4  2  0  0  0  0
  8  7  2  0  0  0  0
  9  8  1  0  0  0  0
  9 11  1  0  0  0  0
 11 12  2  0  0  0  0
 11 10  1  0  0  0  0
 14 15  1  0  0  0  0
 15  1  1  0  0  0  0
 15 13  2  0  0  0  0
 16 14  1  0  0  0  0
 17 25  2  0  0  0  0
 18 20  2  0  0  0  0
 19 21  1  0  0  0  0
 19 23  1  0  0  0  0
 20 24  1  0  0  0  0
 20 27  1  0  0  0  0
 22 19  2  0  0  0  0
 24 16  2  0  0  0  0
 25 27  1  0  0  0  0
 25 22  1  0  0  0  0
 26 21  2  0  0  0  0
 27 26  1  1  0  0  0
 28 18  1  0  0  0  0
 28 17  1  0  0  0  0
 30 29  1  0  0  0  0
 31 32  1  0  0  0  0
 32 30  1  0  0  0  0
M  END
>  <MODEL>
2

>  <REMARK>
 VINA RESULT:      -7.7      3.361      8.445
  Name = 
  10 active torsions:
  status: ('A' for Active; 'I' for Inactive)
    1  A    between atoms: N_1  and  C_5
    2  A    between atoms: C_4  and  N_18
    3  A    between atoms: C_4  and  C_30
    4  A    between atoms: C_5  and  C_28
    5  A    between atoms: C_5  and  C_30
    6  A    between atoms: N_6  and  N_17
    7  A    between atoms: N_6  and  N_23
    8  A    between atoms: C_20  and  C_24
    9  A    between atoms: C_20  and  C_31
   10  A    between atoms: C_22  and  C_24
                            x       y       z     vdW  Elec       q    Type
                         _______ _______ _______ _____ _____    ______ ____

>  <TORSDO>
F 10

$$$$
=
 OpenBabel11052411523D

 32 33  0  0  1  0  0  0  0  0999 V2000
  162.2800  206.6000  150.9510 C   0  0  1  0  0  3  0  0  0  0  0  0
  161.8000  206.4850  149.5820 N   0  0  0  0  0  0  0  0  0  0  0  0
  161.8120  207.5000  148.7790 C   0  0  0  0  0  3  0  0  0  0  0  0
  160.1710  206.1120  145.8920 O   0  0  0  0  0  0  0  0  0  0  0  0
  161.3540  207.3830  147.4270 N   0  0  0  0  0  2  0  0  0  0  0  0
  161.1150  206.1540  146.7260 C   0  0  0  0  0  0  0  0  0  0  0  0
  163.1770  204.8880  146.3750 C   0  0  0  0  0  2  0  0  0  0  0  0
  161.9640  204.9550  146.9140 C   0  0  0  0  0  0  0  0  0  0  0  0
  161.3880  203.7140  147.5240 C   0  0  0  0  0  2  0  0  0  0  0  0
  161.0460  201.4710  146.7860 O   0  0  0  0  0  1  0  0  0  0  0  0
  161.0960  202.6910  146.4780 C   0  0  0  0  0  0  0  0  0  0  0  0
  160.9110  203.0790  145.1590 O   0  0  0  0  0  0  0  0  0  0  0  0
  160.5220  207.7050  152.1140 O   0  0  0  0  0  0  0  0  0  0  0  0
  162.3670  209.0420  151.6120 N   0  0  0  0  0  2  0  0  0  0  0  0
  161.6660  207.7980  151.5940 C   0  0  0  0  0  0  0  0  0  0  0  0
  161.8040  210.1780  152.2040 N   0  0  0  0  0  2  0  0  0  0  0  0
  159.4970  212.6920  156.0050 N   0  0  0  0  0  0  0  0  0  0  0  0
  161.3410  211.1960  155.6680 C   0  0  0  0  0  3  0  0  0  0  0  0
  157.8280  213.3850  152.8850 C   0  0  0  0  0  0  0  0  0  0  0  0
  161.1030  211.1170  154.2930 C   0  0  0  0  0  0  0  0  0  0  0  0
  158.5730  212.6320  151.9710 C   0  0  0  0  0  2  0  0  0  0  0  0
  158.1510  213.3900  154.2060 N   0  0  0  0  0  0  0  0  0  0  0  0
  156.7240  214.1560  152.4260 N   0  0  0  0  0  1  0  0  0  0  0  0
  161.9020  210.3660  153.5890 N   0  0  0  0  0  0  0  0  0  0  0  0
  159.1970  212.6690  154.6830 C   0  0  0  0  0  0  0  0  0  0  0  0
  159.6600  211.8720  152.4040 C   0  0  0  0  0  3  0  0  0  0  0  0
  160.0180  211.8540  153.7540 C   0  0  0  0  0  0  0  0  0  0  0  0
  160.5380  211.9780  156.5040 C   0  0  0  0  0  3  0  0  0  0  0  0
  161.9210  205.3550  151.7530 C   0  0  0  0  0  2  0  0  0  0  0  0
  161.0130  204.4410  150.9560 C   0  0  0  0  0  2  0  0  0  0  0  0
  160.8950  202.1360  150.6460 C   0  0  0  0  0  1  0  0  0  0  0  0
  160.8650  203.1780  151.6550 N   0  0  0  0  0  2  0  0  0  0  0  0
  1 15  1  0  0  0  0
  1 29  1  1  0  0  0
  2  1  1  0  0  0  0
  3  2  2  0  0  0  0
  4  6  2  0  0  0  0
  5  3  1  0  0  0  0
  6  8  1  0  0  0  0
  6  5  1  0  0  0  0
  7  8  2  0  0  0  0
  8  9  1  0  0  0  0
 11 10  1  0  0  0  0
 11  9  1  0  0  0  0
 12 11  2  0  0  0  0
 14 16  1  0  0  0  0
 15 14  1  0  0  0  0
 15 13  2  0  0  0  0
 16 24  1  0  0  0  0
 17 28  1  0  0  0  0
 18 28  2  0  0  0  0
 19 22  2  0  0  0  0
 20 18  1  0  0  0  0
 21 26  1  0  0  0  0
 21 19  1  0  0  0  0
 22 25  1  0  0  0  0
 23 19  1  0  0  0  0
 24 20  2  0  0  0  0
 25 17  2  0  0  0  0
 26 27  2  0  0  0  0
 27 20  1  0  0  0  0
 27 25  1  0  0  0  0
 30 32  1  0  0  0  0
 30 29  1  0  0  0  0
 31 32  1  0  0  0  0
M  END
>  <MODEL>
3

>  <REMARK>
 VINA RESULT:      -7.7      2.205      4.373
  Name = 
  10 active torsions:
  status: ('A' for Active; 'I' for Inactive)
    1  A    between atoms: N_1  and  C_5
    2  A    between atoms: C_4  and  N_18
    3  A    between atoms: C_4  and  C_30
    4  A    between atoms: C_5  and  C_28
    5  A    between atoms: C_5  and  C_30
    6  A    between atoms: N_6  and  N_17
    7  A    between atoms: N_6  and  N_23
    8  A    between atoms: C_20  and  C_24
    9  A    between atoms: C_20  and  C_31
   10  A    between atoms: C_22  and  C_24
                            x       y       z     vdW  Elec       q    Type
                         _______ _______ _______ _____ _____    ______ ____

>  <TORSDO>
F 10

$$$$
=
 OpenBabel11052411523D

 32 33  0  0  1  0  0  0  0  0999 V2000
  160.9370  206.4190  148.8670 C   0  0  1  0  0  3  0  0  0  0  0  0
  161.0410  205.0930  149.4570 N   0  0  0  0  0  0  0  0  0  0  0  0
  160.6700  204.8700  150.6770 C   0  0  0  0  0  3  0  0  0  0  0  0
  161.6480  201.4290  151.0750 O   0  0  0  0  0  0  0  0  0  0  0  0
  160.7580  203.5610  151.2520 N   0  0  0  0  0  2  0  0  0  0  0  0
  160.9690  202.3400  150.5290 C   0  0  0  0  0  0  0  0  0  0  0  0
  159.2150  201.4720  149.0640 C   0  0  0  0  0  2  0  0  0  0  0  0
  160.3810  202.0970  149.1920 C   0  0  0  0  0  0  0  0  0  0  0  0
  161.1900  202.3500  147.9580 C   0  0  0  0  0  2  0  0  0  0  0  0
  161.5090  200.0830  147.2850 O   0  0  0  0  0  1  0  0  0  0  0  0
  161.0580  201.2210  146.9910 C   0  0  0  0  0  0  0  0  0  0  0  0
  160.4680  201.4310  145.7530 O   0  0  0  0  0  0  0  0  0  0  0  0
  162.6980  207.8470  149.5950 O   0  0  0  0  0  0  0  0  0  0  0  0
  160.7750  207.8980  150.9150 N   0  0  0  0  0  2  0  0  0  0  0  0
  161.5280  207.4240  149.7980 C   0  0  0  0  0  0  0  0  0  0  0  0
  161.3140  208.8360  151.8030 N   0  0  0  0  0  2  0  0  0  0  0  0
  159.5440  210.4170  156.3260 N   0  0  0  0  0  0  0  0  0  0  0  0
  161.0010  208.7360  155.4280 C   0  0  0  0  0  3  0  0  0  0  0  0
  158.1700  212.4570  153.6910 C   0  0  0  0  0  0  0  0  0  0  0  0
  160.7900  209.1700  154.1170 C   0  0  0  0  0  0  0  0  0  0  0  0
  158.7450  211.8980  152.5450 C   0  0  0  0  0  2  0  0  0  0  0  0
  158.4480  211.9550  154.9230 N   0  0  0  0  0  0  0  0  0  0  0  0
  157.2880  213.5660  153.5650 N   0  0  0  0  0  1  0  0  0  0  0  0
  161.4130  208.5310  153.1660 N   0  0  0  0  0  0  0  0  0  0  0  0
  159.2850  210.8990  155.0860 C   0  0  0  0  0  0  0  0  0  0  0  0
  159.6140  210.8110  152.6510 C   0  0  0  0  0  3  0  0  0  0  0  0
  159.9210  210.2700  153.9020 C   0  0  0  0  0  0  0  0  0  0  0  0
  160.3780  209.3610  156.5130 C   0  0  0  0  0  3  0  0  0  0  0  0
  161.6710  206.4740  147.5330 C   0  0  0  0  0  2  0  0  0  0  0  0
  160.7180  206.2190  146.3810 C   0  0  0  0  0  2  0  0  0  0  0  0
  162.6950  205.0910  145.8900 C   0  0  0  0  0  1  0  0  0  0  0  0
  161.3310  205.2960  145.4430 N   0  0  0  0  0  2  0  0  0  0  0  0
  1 29  1  6  0  0  0
  1  2  1  0  0  0  0
  1 15  1  0  0  0  0
  2  3  2  0  0  0  0
  3  5  1  0  0  0  0
  6  4  2  0  0  0  0
  6  5  1  0  0  0  0
  7  8  2  0  0  0  0
  8  6  1  0  0  0  0
  9  8  1  0  0  0  0
 11 10  1  0  0  0  0
 11  9  1  0  0  0  0
 12 11  2  0  0  0  0
 13 15  2  0  0  0  0
 14 16  1  0  0  0  0
 15 14  1  0  0  0  0
 16 24  1  0  0  0  0
 17 28  1  0  0  0  0
 18 28  2  0  0  0  0
 19 22  2  0  0  0  0
 20 18  1  0  0  0  0
 21 26  1  0  0  0  0
 21 19  1  0  0  0  0
 22 25  1  0  0  0  0
 23 19  1  0  0  0  0
 24 20  2  0  0  0  0
 25 17  2  0  0  0  0
 26 27  2  0  0  0  0
 27 20  1  0  0  0  0
 27 25  1  0  0  0  0
 30 29  1  0  0  0  0
 32 31  1  0  0  0  0
 32 30  1  0  0  0  0
M  END
>  <MODEL>
4

>  <REMARK>
 VINA RESULT:      -7.5      1.122      2.492
  Name = 
  10 active torsions:
  status: ('A' for Active; 'I' for Inactive)
    1  A    between atoms: N_1  and  C_5
    2  A    between atoms: C_4  and  N_18
    3  A    between atoms: C_4  and  C_30
    4  A    between atoms: C_5  and  C_28
    5  A    between atoms: C_5  and  C_30
    6  A    between atoms: N_6  and  N_17
    7  A    between atoms: N_6  and  N_23
    8  A    between atoms: C_20  and  C_24
    9  A    between atoms: C_20  and  C_31
   10  A    between atoms: C_22  and  C_24
                            x       y       z     vdW  Elec       q    Type
                         _______ _______ _______ _____ _____    ______ ____

>  <TORSDO>
F 10

$$$$
=
 OpenBabel11052411523D

 32 33  0  0  1  0  0  0  0  0999 V2000
  161.6260  210.3190  152.1490 C   0  0  1  0  0  3  0  0  0  0  0  0
  161.1220  210.3280  153.5140 N   0  0  0  0  0  0  0  0  0  0  0  0
  161.9270  210.3560  154.5270 C   0  0  0  0  0  3  0  0  0  0  0  0
  159.6050  210.0580  157.2610 O   0  0  0  0  0  0  0  0  0  0  0  0
  161.4310  210.3800  155.8700 N   0  0  0  0  0  2  0  0  0  0  0  0
  160.0790  210.6600  156.2600 C   0  0  0  0  0  0  0  0  0  0  0  0
  159.5250  212.9560  155.6280 C   0  0  0  0  0  2  0  0  0  0  0  0
  159.2410  211.6600  155.5570 C   0  0  0  0  0  0  0  0  0  0  0  0
  157.9380  211.2500  154.9430 C   0  0  0  0  0  2  0  0  0  0  0  0
  156.4980  211.5300  156.8240 O   0  0  0  0  0  1  0  0  0  0  0  0
  156.7900  211.8850  155.6530 C   0  0  0  0  0  0  0  0  0  0  0  0
  156.0210  212.8450  155.0100 O   0  0  0  0  0  0  0  0  0  0  0  0
  161.0410  208.0170  152.3000 O   0  0  0  0  0  0  0  0  0  0  0  0
  161.8710  208.6910  150.2270 N   0  0  0  0  0  2  0  0  0  0  0  0
  161.4890  208.9480  151.5790 C   0  0  0  0  0  0  0  0  0  0  0  0
  161.7570  207.4100  149.6760 N   0  0  0  0  0  0  0  0  0  0  0  0
  161.7310  203.6900  146.1760 N   0  0  0  0  0  0  0  0  0  0  0  0
  162.1700  206.0430  146.3280 C   0  0  0  0  0  3  0  0  0  0  0  0
  160.7970  202.3540  149.3920 C   0  0  0  0  0  0  0  0  0  0  0  0
  161.8920  206.0660  147.6970 C   0  0  0  0  0  0  0  0  0  0  0  0
  160.8530  203.4840  150.2150 C   0  0  0  0  0  3  0  0  0  0  0  0
  161.0910  202.4460  148.0680 N   0  0  0  0  0  0  0  0  0  0  0  0
  160.4320  201.0970  149.9480 N   0  0  0  0  0  1  0  0  0  0  0  0
  161.9980  207.2120  148.3110 N   0  0  0  0  0  0  0  0  0  0  0  0
  161.4440  203.6260  147.4990 C   0  0  0  0  0  0  0  0  0  0  0  0
  161.2110  204.7250  149.6870 C   0  0  0  0  0  3  0  0  0  0  0  0
  161.5180  204.8540  148.3300 C   0  0  2  0  0  3  0  0  0  0  0  0
  162.0860  204.8600  145.5860 C   0  0  0  0  0  2  0  0  0  0  0  0
  160.8520  211.3070  151.2840 C   0  0  0  0  0  2  0  0  0  0  0  0
  160.1060  212.3090  152.1420 C   0  0  0  0  0  2  0  0  0  0  0  0
  158.2250  213.1860  151.0850 C   0  0  0  0  0  1  0  0  0  0  0  0
  159.6410  213.4050  151.3100 N   0  0  0  0  0  2  0  0  0  0  0  0
  1 29  1  6  0  0  0
  1  2  1  0  0  0  0
  2  3  2  0  0  0  0
  3  5  1  0  0  0  0
  5  6  1  0  0  0  0
  6  4  2  0  0  0  0
  8  7  2  0  0  0  0
  8  6  1  0  0  0  0
  9  8  1  0  0  0  0
  9 11  1  0  0  0  0
 11 10  1  0  0  0  0
 12 11  2  0  0  0  0
 14 15  1  0  0  0  0
 15  1  1  0  0  0  0
 15 13  2  0  0  0  0
 16 14  1  0  0  0  0
 17 25  2  0  0  0  0
 18 20  2  0  0  0  0
 19 23  1  0  0  0  0
 19 21  1  0  0  0  0
 20 24  1  0  0  0  0
 20 27  1  0  0  0  0
 22 19  2  0  0  0  0
 24 16  2  0  0  0  0
 25 22  1  0  0  0  0
 25 27  1  0  0  0  0
 26 21  2  0  0  0  0
 27 26  1  6  0  0  0
 28 17  1  0  0  0  0
 28 18  1  0  0  0  0
 29 30  1  0  0  0  0
 31 32  1  0  0  0  0
 32 30  1  0  0  0  0
M  END
>  <MODEL>
5

>  <REMARK>
 VINA RESULT:      -7.4      3.753      9.296
  Name = 
  10 active torsions:
  status: ('A' for Active; 'I' for Inactive)
    1  A    between atoms: N_1  and  C_5
    2  A    between atoms: C_4  and  N_18
    3  A    between atoms: C_4  and  C_30
    4  A    between atoms: C_5  and  C_28
    5  A    between atoms: C_5  and  C_30
    6  A    between atoms: N_6  and  N_17
    7  A    between atoms: N_6  and  N_23
    8  A    between atoms: C_20  and  C_24
    9  A    between atoms: C_20  and  C_31
   10  A    between atoms: C_22  and  C_24
                            x       y       z     vdW  Elec       q    Type
                         _______ _______ _______ _____ _____    ______ ____

>  <TORSDO>
F 10

$$$$
=
 OpenBabel11052411523D

 32 33  0  0  1  0  0  0  0  0999 V2000
  160.7970  206.1790  148.1090 C   0  0  1  0  0  3  0  0  0  0  0  0
  160.7090  204.7880  148.5280 N   0  0  0  0  0  0  0  0  0  0  0  0
  161.2030  203.8360  147.8040 C   0  0  0  0  0  3  0  0  0  0  0  0
  160.1470  200.9400  149.6610 O   0  0  0  0  0  0  0  0  0  0  0  0
  161.1300  202.4700  148.2240 N   0  0  0  0  0  2  0  0  0  0  0  0
  160.7960  202.0140  149.5430 C   0  0  0  0  0  0  0  0  0  0  0  0
  162.0510  202.1660  151.6360 C   0  0  0  0  0  2  0  0  0  0  0  0
  161.2250  202.7340  150.7640 C   0  0  0  0  0  0  0  0  0  0  0  0
  160.5640  204.0220  151.1480 C   0  0  0  0  0  2  0  0  0  0  0  0
  160.8260  204.4910  153.4730 O   0  0  0  0  0  1  0  0  0  0  0  0
  161.2610  204.6570  152.3040 C   0  0  0  0  0  0  0  0  0  0  0  0
  162.3740  205.4590  152.0890 O   0  0  0  0  0  0  0  0  0  0  0  0
  162.8190  206.9390  149.1100 O   0  0  0  0  0  0  0  0  0  0  0  0
  160.8640  207.7130  150.1220 N   0  0  0  0  0  2  0  0  0  0  0  0
  161.5590  206.9580  149.1280 C   0  0  0  0  0  0  0  0  0  0  0  0
  161.5600  208.4440  151.0900 N   0  0  0  0  0  2  0  0  0  0  0  0
  159.8630  211.3740  154.9140 N   0  0  0  0  0  0  0  0  0  0  0  0
  160.4710  211.5710  152.6020 C   0  0  0  0  0  3  0  0  0  0  0  0
  160.2700  207.9800  156.0580 C   0  0  0  0  0  0  0  0  0  0  0  0
  160.7880  210.2130  152.5090 C   0  0  0  0  0  0  0  0  0  0  0  0
  160.7320  207.3280  154.9100 C   0  0  0  0  0  3  0  0  0  0  0  0
  159.9890  209.3100  156.0350 N   0  0  0  0  0  0  0  0  0  0  0  0
  160.0880  207.2420  157.2600 N   0  0  0  0  0  1  0  0  0  0  0  0
  161.2030  209.7720  151.3540 N   0  0  0  0  0  0  0  0  0  0  0  0
  160.1490  210.0500  154.9090 C   0  0  0  0  0  0  0  0  0  0  0  0
  160.9140  208.0370  153.7220 C   0  0  0  0  0  3  0  0  0  0  0  0
  160.6370  209.4050  153.6640 C   0  0  1  0  0  3  0  0  0  0  0  0
  160.0150  212.1330  153.7980 C   0  0  0  0  0  3  0  0  0  0  0  0
  161.4970  206.2920  146.7600 C   0  0  0  0  0  2  0  0  0  0  0  0
  160.4940  206.2430  145.6240 C   0  0  0  0  0  2  0  0  0  0  0  0
  162.4070  205.1430  144.8790 C   0  0  0  0  0  1  0  0  0  0  0  0
  161.1200  205.6590  144.4520 N   0  0  0  0  0  2  0  0  0  0  0  0
  1 29  1  6  0  0  0
  1  2  1  0  0  0  0
  1 15  1  0  0  0  0
  3  5  1  0  0  0  0
  3  2  2  0  0  0  0
  5  6  1  0  0  0  0
  6  4  2  0  0  0  0
  6  8  1  0  0  0  0
  8  9  1  0  0  0  0
  8  7  2  0  0  0  0
  9 11  1  0  0  0  0
 11 10  1  0  0  0  0
 12 11  2  0  0  0  0
 13 15  2  0  0  0  0
 14 16  1  0  0  0  0
 15 14  1  0  0  0  0
 16 24  1  0  0  0  0
 18 28  2  0  0  0  0
 19 23  1  0  0  0  0
 20 18  1  0  0  0  0
 20 27  1  0  0  0  0
 21 19  1  0  0  0  0
 22 19  2  0  0  0  0
 24 20  2  0  0  0  0
 25 17  2  0  0  0  0
 25 22  1  0  0  0  0
 26 21  2  0  0  0  0
 27 26  1  6  0  0  0
 27 25  1  0  0  0  0
 28 17  1  0  0  0  0
 30 29  1  0  0  0  0
 32 31  1  0  0  0  0
 32 30  1  0  0  0  0
M  END
>  <MODEL>
6

>  <REMARK>
 VINA RESULT:      -7.1      1.359      2.618
  Name = 
  10 active torsions:
  status: ('A' for Active; 'I' for Inactive)
    1  A    between atoms: N_1  and  C_5
    2  A    between atoms: C_4  and  N_18
    3  A    between atoms: C_4  and  C_30
    4  A    between atoms: C_5  and  C_28
    5  A    between atoms: C_5  and  C_30
    6  A    between atoms: N_6  and  N_17
    7  A    between atoms: N_6  and  N_23
    8  A    between atoms: C_20  and  C_24
    9  A    between atoms: C_20  and  C_31
   10  A    between atoms: C_22  and  C_24
                            x       y       z     vdW  Elec       q    Type
                         _______ _______ _______ _____ _____    ______ ____

>  <TORSDO>
F 10

$$$$
=
 OpenBabel11052411523D

 32 33  0  0  1  0  0  0  0  0999 V2000
  161.9470  210.2990  151.2310 C   0  0  1  0  0  3  0  0  0  0  0  0
  161.2220  210.4420  152.4840 N   0  0  0  0  0  0  0  0  0  0  0  0
  161.8320  210.3850  153.6240 C   0  0  0  0  0  3  0  0  0  0  0  0
  159.0530  210.5650  155.9030 O   0  0  0  0  0  0  0  0  0  0  0  0
  161.1210  210.5420  154.8560 N   0  0  0  0  0  2  0  0  0  0  0  0
  159.7840  211.0440  154.9950 C   0  0  0  0  0  0  0  0  0  0  0  0
  159.2570  213.3920  154.5630 C   0  0  0  0  0  2  0  0  0  0  0  0
  159.2520  212.1320  154.1420 C   0  0  0  0  0  0  0  0  0  0  0  0
  158.4990  211.8050  152.8890 C   0  0  0  0  0  2  0  0  0  0  0  0
  159.3750  213.4580  151.4090 O   0  0  0  0  0  0  0  0  0  0  0  0
  158.3690  213.0070  152.0150 C   0  0  0  0  0  0  0  0  0  0  0  0
  157.1440  213.6480  151.8930 O   0  0  0  0  0  1  0  0  0  0  0  0
  161.7070  207.9670  151.6470 O   0  0  0  0  0  0  0  0  0  0  0  0
  162.0970  208.5380  149.4190 N   0  0  0  0  0  2  0  0  0  0  0  0
  161.9060  208.8730  150.7930 C   0  0  0  0  0  0  0  0  0  0  0  0
  162.0690  207.2060  148.9900 N   0  0  0  0  0  0  0  0  0  0  0  0
  161.5420  203.3030  145.7380 N   0  0  0  0  0  0  0  0  0  0  0  0
  162.2010  205.6100  145.7220 C   0  0  0  0  0  3  0  0  0  0  0  0
  160.6380  202.2560  149.0670 C   0  0  0  0  0  0  0  0  0  0  0  0
  161.9890  205.7400  147.0970 C   0  0  0  0  0  0  0  0  0  0  0  0
  160.8350  203.4220  149.8140 C   0  0  0  0  0  3  0  0  0  0  0  0
  160.8780  202.2400  147.7290 N   0  0  0  0  0  0  0  0  0  0  0  0
  160.1850  201.0740  149.7160 N   0  0  0  0  0  1  0  0  0  0  0  0
  162.2280  206.9060  147.6310 N   0  0  0  0  0  0  0  0  0  0  0  0
  161.3110  203.3460  147.0730 C   0  0  0  0  0  0  0  0  0  0  0  0
  161.2800  204.5900  149.1940 C   0  0  0  0  0  3  0  0  0  0  0  0
  161.5350  204.6090  147.8200 C   0  0  1  0  0  3  0  0  0  0  0  0
  161.9750  204.3980  145.0610 C   0  0  0  0  0  2  0  0  0  0  0  0
  161.3320  211.1780  150.1490 C   0  0  0  0  0  2  0  0  0  0  0  0
  162.3800  211.6160  149.1460 C   0  0  0  0  0  2  0  0  0  0  0  0
  162.5300  213.0800  147.3410 C   0  0  0  0  0  1  0  0  0  0  0  0
  161.7310  212.0110  147.9090 N   0  0  0  0  0  2  0  0  0  0  0  0
  1 29  1  6  0  0  0
  1  2  1  0  0  0  0
  2  3  2  0  0  0  0
  3  5  1  0  0  0  0
  5  6  1  0  0  0  0
  6  4  2  0  0  0  0
  8  7  2  0  0  0  0
  8  6  1  0  0  0  0
  9  8  1  0  0  0  0
 10 11  2  0  0  0  0
 11  9  1  0  0  0  0
 12 11  1  0  0  0  0
 14 15  1  0  0  0  0
 15  1  1  0  0  0  0
 15 13  2  0  0  0  0
 16 14  1  0  0  0  0
 17 25  2  0  0  0  0
 18 20  2  0  0  0  0
 19 23  1  0  0  0  0
 19 21  1  0  0  0  0
 20 24  1  0  0  0  0
 20 27  1  0  0  0  0
 22 19  2  0  0  0  0
 24 16  2  0  0  0  0
 25 22  1  0  0  0  0
 25 27  1  0  0  0  0
 26 21  2  0  0  0  0
 27 26  1  1  0  0  0
 28 18  1  0  0  0  0
 28 17  1  0  0  0  0
 30 29  1  0  0  0  0
 31 32  1  0  0  0  0
 32 30  1  0  0  0  0
M  END
>  <MODEL>
7

>  <REMARK>
 VINA RESULT:      -7.1      3.324      8.901
  Name = 
  10 active torsions:
  status: ('A' for Active; 'I' for Inactive)
    1  A    between atoms: N_1  and  C_5
    2  A    between atoms: C_4  and  N_18
    3  A    between atoms: C_4  and  C_30
    4  A    between atoms: C_5  and  C_28
    5  A    between atoms: C_5  and  C_30
    6  A    between atoms: N_6  and  N_17
    7  A    between atoms: N_6  and  N_23
    8  A    between atoms: C_20  and  C_24
    9  A    between atoms: C_20  and  C_31
   10  A    between atoms: C_22  and  C_24
                            x       y       z     vdW  Elec       q    Type
                         _______ _______ _______ _____ _____    ______ ____

>  <TORSDO>
F 10

$$$$
=
 OpenBabel11052411523D

 32 33  0  0  1  0  0  0  0  0999 V2000
  160.7280  206.5570  149.8100 C   0  0  1  0  0  3  0  0  0  0  0  0
  160.9510  205.1490  150.1040 N   0  0  0  0  0  0  0  0  0  0  0  0
  160.7270  204.6650  151.2820 C   0  0  0  0  0  3  0  0  0  0  0  0
  161.8860  201.2830  150.8710 O   0  0  0  0  0  0  0  0  0  0  0  0
  160.9320  203.2770  151.5670 N   0  0  0  0  0  2  0  0  0  0  0  0
  161.1140  202.2390  150.5930 C   0  0  0  0  0  0  0  0  0  0  0  0
  159.1680  201.7200  149.2060 C   0  0  0  0  0  2  0  0  0  0  0  0
  160.3920  202.2290  149.3000 C   0  0  0  0  0  0  0  0  0  0  0  0
  161.1100  202.5870  148.0360 C   0  0  0  0  0  2  0  0  0  0  0  0
  161.3910  200.3370  147.2930 O   0  0  0  0  0  1  0  0  0  0  0  0
  160.9860  201.4980  147.0230 C   0  0  0  0  0  0  0  0  0  0  0  0
  160.4530  201.7700  145.7710 O   0  0  0  0  0  0  0  0  0  0  0  0
  162.6260  207.7490  150.6110 O   0  0  0  0  0  0  0  0  0  0  0  0
  160.7700  207.7840  152.0230 N   0  0  0  0  0  0  0  0  0  0  0  0
  161.4350  207.3940  150.8220 C   0  0  0  0  0  0  0  0  0  0  0  0
  161.4190  208.5630  152.9870 N   0  0  0  0  0  0  0  0  0  0  0  0
  158.7320  211.9780  155.6720 N   0  0  0  0  0  0  0  0  0  0  0  0
  159.6770  209.7900  155.9390 C   0  0  0  0  0  3  0  0  0  0  0  0
  159.3970  213.2630  152.3690 C   0  0  0  0  0  0  0  0  0  0  0  0
  160.1850  209.7860  154.6370 C   0  0  0  0  0  0  0  0  0  0  0  0
  160.1240  212.2230  151.7820 C   0  0  0  0  0  2  0  0  0  0  0  0
  158.9500  213.1610  153.6500 N   0  0  0  0  0  0  0  0  0  0  0  0
  159.1250  214.4410  151.6200 N   0  0  0  0  0  1  0  0  0  0  0  0
  160.8450  208.7280  154.2540 N   0  0  0  0  0  0  0  0  0  0  0  0
  159.1890  212.0540  154.3980 C   0  0  0  0  0  0  0  0  0  0  0  0
  160.4010  211.0610  152.5030 C   0  0  0  0  0  3  0  0  0  0  0  0
  159.9560  210.9230  153.8210 C   0  0  0  0  0  0  0  0  0  0  0  0
  158.9590  210.8810  156.4390 C   0  0  0  0  0  3  0  0  0  0  0  0
  161.2410  206.9040  148.4180 C   0  0  0  0  0  2  0  0  0  0  0  0
  160.5200  206.0950  147.3580 C   0  0  0  0  0  2  0  0  0  0  0  0
  160.4830  205.5810  145.0860 C   0  0  0  0  0  1  0  0  0  0  0  0
  161.3480  206.0090  146.1690 N   0  0  0  0  0  2  0  0  0  0  0  0
  1 29  1  6  0  0  0
  1  2  1  0  0  0  0
  1 15  1  0  0  0  0
  2  3  2  0  0  0  0
  3  5  1  0  0  0  0
  6  4  2  0  0  0  0
  6  5  1  0  0  0  0
  7  8  2  0  0  0  0
  8  6  1  0  0  0  0
  9  8  1  0  0  0  0
 11 10  1  0  0  0  0
 11  9  1  0  0  0  0
 12 11  2  0  0  0  0
 13 15  2  0  0  0  0
 14 16  2  0  0  0  0
 15 14  1  0  0  0  0
 16 24  1  0  0  0  0
 17 28  1  0  0  0  0
 18 28  2  0  0  0  0
 19 22  2  0  0  0  0
 20 18  1  0  0  0  0
 21 19  1  0  0  0  0
 21 26  1  0  0  0  0
 22 25  1  0  0  0  0
 23 19  1  0  0  0  0
 24 20  2  0  0  0  0
 25 17  2  0  0  0  0
 26 27  2  0  0  0  0
 27 25  1  0  0  0  0
 27 20  1  0  0  0  0
 30 29  1  0  0  0  0
 31 32  1  0  0  0  0
 32 30  1  0  0  0  0
M  END
>  <MODEL>
8

>  <REMARK>
 VINA RESULT:      -7.1      1.490      2.910
  Name = 
  10 active torsions:
  status: ('A' for Active; 'I' for Inactive)
    1  A    between atoms: N_1  and  C_5
    2  A    between atoms: C_4  and  N_18
    3  A    between atoms: C_4  and  C_30
    4  A    between atoms: C_5  and  C_28
    5  A    between atoms: C_5  and  C_30
    6  A    between atoms: N_6  and  N_17
    7  A    between atoms: N_6  and  N_23
    8  A    between atoms: C_20  and  C_24
    9  A    between atoms: C_20  and  C_31
   10  A    between atoms: C_22  and  C_24
                            x       y       z     vdW  Elec       q    Type
                         _______ _______ _______ _____ _____    ______ ____

>  <TORSDO>
F 10

$$$$
=
 OpenBabel11052411523D

 32 33  0  0  1  0  0  0  0  0999 V2000
  160.9180  206.1410  148.1350 C   0  0  1  0  0  3  0  0  0  0  0  0
  160.7790  204.7660  148.5900 N   0  0  0  0  0  0  0  0  0  0  0  0
  161.2350  203.7780  147.8890 C   0  0  0  0  0  3  0  0  0  0  0  0
  160.0780  200.9720  149.8230 O   0  0  0  0  0  0  0  0  0  0  0  0
  161.1130  202.4260  148.3440 N   0  0  0  0  0  2  0  0  0  0  0  0
  160.7660  202.0170  149.6760 C   0  0  0  0  0  0  0  0  0  0  0  0
  162.1650  202.2450  151.6680 C   0  0  0  0  0  2  0  0  0  0  0  0
  161.2260  202.7520  150.8770 C   0  0  0  0  0  0  0  0  0  0  0  0
  160.4870  203.9690  151.3420 C   0  0  0  0  0  2  0  0  0  0  0  0
  162.3990  205.2330  152.0020 O   0  0  0  0  0  0  0  0  0  0  0  0
  161.2920  204.7360  152.3360 C   0  0  0  0  0  0  0  0  0  0  0  0
  160.8370  204.8750  153.6400 O   0  0  0  0  0  1  0  0  0  0  0  0
  162.8610  206.9780  149.2260 O   0  0  0  0  0  0  0  0  0  0  0  0
  160.8340  207.6700  150.1510 N   0  0  0  0  0  2  0  0  0  0  0  0
  161.6020  206.9460  149.1880 C   0  0  0  0  0  0  0  0  0  0  0  0
  161.4570  208.4250  151.1500 N   0  0  0  0  0  2  0  0  0  0  0  0
  159.9370  210.1150  155.7240 N   0  0  0  0  0  0  0  0  0  0  0  0
  160.9210  208.1600  154.7400 C   0  0  0  0  0  3  0  0  0  0  0  0
  159.3360  212.6400  153.2220 C   0  0  0  0  0  0  0  0  0  0  0  0
  160.9140  208.7280  153.4630 C   0  0  0  0  0  0  0  0  0  0  0  0
  159.7990  212.0240  152.0550 C   0  0  0  0  0  2  0  0  0  0  0  0
  159.3930  211.9940  154.4170 N   0  0  0  0  0  0  0  0  0  0  0  0
  158.8040  213.9580  153.1580 N   0  0  0  0  0  1  0  0  0  0  0  0
  161.3900  208.0090  152.4850 N   0  0  0  0  0  0  0  0  0  0  0  0
  159.8940  210.7370  154.5210 C   0  0  0  0  0  0  0  0  0  0  0  0
  160.3260  210.7330  152.1000 C   0  0  0  0  0  3  0  0  0  0  0  0
  160.3970  210.0400  153.3110 C   0  0  0  0  0  0  0  0  0  0  0  0
  160.4340  208.8570  155.8510 C   0  0  0  0  0  3  0  0  0  0  0  0
  161.7270  206.2030  146.8450 C   0  0  0  0  0  2  0  0  0  0  0  0
  160.8160  206.3110  145.6390 C   0  0  0  0  0  2  0  0  0  0  0  0
  160.5610  204.2840  144.5210 C   0  0  0  0  0  1  0  0  0  0  0  0
  161.3480  205.5020  144.5570 N   0  0  0  0  0  2  0  0  0  0  0  0
  1 29  1  6  0  0  0
  1  2  1  0  0  0  0
  1 15  1  0  0  0  0
  3  5  1  0  0  0  0
  3  2  2  0  0  0  0
  5  6  1  0  0  0  0
  6  4  2  0  0  0  0
  6  8  1  0  0  0  0
  8  9  1  0  0  0  0
  8  7  2  0  0  0  0
  9 11  1  0  0  0  0
 10 11  2  0  0  0  0
 11 12  1  0  0  0  0
 14 16  1  0  0  0  0
 15 13  2  0  0  0  0
 15 14  1  0  0  0  0
 16 24  1  0  0  0  0
 17 28  1  0  0  0  0
 18 28  2  0  0  0  0
 19 22  2  0  0  0  0
 20 18  1  0  0  0  0
 21 26  1  0  0  0  0
 21 19  1  0  0  0  0
 22 25  1  0  0  0  0
 23 19  1  0  0  0  0
 24 20  2  0  0  0  0
 25 17  2  0  0  0  0
 26 27  2  0  0  0  0
 27 20  1  0  0  0  0
 27 25  1  0  0  0  0
 30 29  1  0  0  0  0
 31 32  1  0  0  0  0
 32 30  1  0  0  0  0
M  END
>  <MODEL>
9

>  <REMARK>
 VINA RESULT:      -6.8      1.590      3.604
  Name = 
  10 active torsions:
  status: ('A' for Active; 'I' for Inactive)
    1  A    between atoms: N_1  and  C_5
    2  A    between atoms: C_4  and  N_18
    3  A    between atoms: C_4  and  C_30
    4  A    between atoms: C_5  and  C_28
    5  A    between atoms: C_5  and  C_30
    6  A    between atoms: N_6  and  N_17
    7  A    between atoms: N_6  and  N_23
    8  A    between atoms: C_20  and  C_24
    9  A    between atoms: C_20  and  C_31
   10  A    between atoms: C_22  and  C_24
                            x       y       z     vdW  Elec       q    Type
                         _______ _______ _______ _____ _____    ______ ____

>  <TORSDO>
F 10

$$$$
