=
 OpenBabel11052409493D

 26 30  0  0  1  0  0  0  0  0999 V2000
  162.3990  206.9630  151.6780 C   0  0  2  0  0  3  0  0  0  0  0  0
  162.3040  206.2390  153.0230 C   0  0  0  0  0  2  0  0  0  0  0  0
  160.9500  206.4640  153.6820 C   0  0  0  0  0  2  0  0  0  0  0  0
  159.2030  211.9580  153.3450 C   0  0  0  0  0  2  0  0  0  0  0  0
  160.7510  210.9460  151.6360 C   0  0  0  0  0  0  0  0  0  0  0  0
  161.8500  208.3620  151.7270 C   0  0  0  0  0  0  0  0  0  0  0  0
  160.9600  208.7630  152.7960 N   0  0  0  0  0  0  0  0  0  0  0  0
  160.4170  210.0860  152.7290 C   0  0  0  0  0  0  0  0  0  0  0  0
  160.7810  207.9440  153.9950 C   0  0  0  0  0  2  0  0  0  0  0  0
  159.6280  210.5850  153.6160 N   0  0  0  0  0  0  0  0  0  0  0  0
  161.5810  210.5210  150.6790 C   0  0  0  0  0  0  0  0  0  0  0  0
  162.1190  209.1850  150.7490 N   0  0  0  0  0  0  0  0  0  0  0  0
  159.9670  212.5370  151.7690 S   0  0  0  0  0  0  0  0  0  0  0  0
  161.9510  211.3980  149.5330 C   0  0  0  0  0  1  0  0  0  0  0  0
  161.3120  205.4610  148.3230 C   0  0  0  0  0  2  0  0  0  0  0  0
  161.7840  206.1760  150.6070 N   0  0  0  0  0  0  0  0  0  0  0  0
  160.7930  202.1230  150.1650 C   0  0  0  0  0  0  0  0  0  0  0  0
  161.4230  203.9250  151.6850 C   0  0  0  0  0  3  0  0  0  0  0  0
  160.4570  200.7880  149.9760 O   0  0  0  0  0  1  0  0  0  0  0  0
  161.1860  204.3440  149.3130 C   0  0  0  0  0  0  0  0  0  0  0  0
  161.9840  207.7400  148.8500 O   0  0  0  0  0  0  0  0  0  0  0  0
  161.4710  204.7880  150.5900 C   0  0  0  0  0  0  0  0  0  0  0  0
  160.5410  202.5390  147.6880 C   0  0  0  0  0  1  0  0  0  0  0  0
  161.7160  206.5740  149.2400 C   0  0  0  0  0  0  0  0  0  0  0  0
  160.8440  203.0100  149.0710 C   0  0  0  0  0  0  0  0  0  0  0  0
  161.0810  202.5840  151.4640 C   0  0  0  0  0  3  0  0  0  0  0  0
  1 16  1  6  0  0  0
  1  6  1  0  0  0  0
  1  2  1  0  0  0  0
  2  3  1  0  0  0  0
  3  9  1  0  0  0  0
  4 10  1  0  0  0  0
  5 13  1  0  0  0  0
  5  8  1  0  0  0  0
  6  7  1  0  0  0  0
  7  9  1  0  0  0  0
  8  7  1  0  0  0  0
  8 10  2  0  0  0  0
 11 12  1  0  0  0  0
 11  5  2  0  0  0  0
 12  6  2  0  0  0  0
 13  4  1  0  0  0  0
 14 11  1  0  0  0  0
 15 24  1  0  0  0  0
 15 20  1  0  0  0  0
 17 26  1  0  0  0  0
 19 17  1  0  0  0  0
 20 22  2  0  0  0  0
 21 24  2  0  0  0  0
 22 16  1  0  0  0  0
 22 18  1  0  0  0  0
 23 25  1  0  0  0  0
 24 16  1  0  0  0  0
 25 20  1  0  0  0  0
 25 17  2  0  0  0  0
 26 18  2  0  0  0  0
M  END
>  <MODEL>
1

>  <REMARK>
 VINA RESULT:      -9.3      0.000      0.000
  Name = 
  1 active torsions:
  status: ('A' for Active; 'I' for Inactive)
    1  A    between atoms: C_1  and  N_4
                            x       y       z     vdW  Elec       q    Type
                         _______ _______ _______ _____ _____    ______ ____

>  <TORSDO>
F 1

$$$$
=
 OpenBabel11052409493D

 26 30  0  0  1  0  0  0  0  0999 V2000
  161.5800  210.3280  153.2450 C   0  0  2  0  0  3  0  0  0  0  0  0
  162.2320  209.7770  154.5160 C   0  0  0  0  0  2  0  0  0  0  0  0
  161.2070  209.1050  155.4200 C   0  0  0  0  0  2  0  0  0  0  0  0
  156.3230  212.1520  155.8890 C   0  0  0  0  0  2  0  0  0  0  0  0
  157.7950  212.3010  153.8510 C   0  0  0  0  0  0  0  0  0  0  0  0
  160.2850  211.0440  153.5150 C   0  0  0  0  0  0  0  0  0  0  0  0
  159.5710  210.8240  154.7550 N   0  0  0  0  0  0  0  0  0  0  0  0
  158.3080  211.4790  154.9040 C   0  0  0  0  0  0  0  0  0  0  0  0
  160.1920  210.1390  155.8890 C   0  0  0  0  0  2  0  0  0  0  0  0
  157.5710  211.3910  155.9560 N   0  0  0  0  0  0  0  0  0  0  0  0
  158.5010  212.4690  152.7280 C   0  0  0  0  0  0  0  0  0  0  0  0
  159.7700  211.8000  152.5830 N   0  0  0  0  0  0  0  0  0  0  0  0
  156.2190  213.0140  154.2610 S   0  0  0  0  0  0  0  0  0  0  0  0
  157.9940  213.3230  151.6190 C   0  0  0  0  0  1  0  0  0  0  0  0
  161.7590  208.1360  150.1050 C   0  0  0  0  0  2  0  0  0  0  0  0
  161.4220  209.2820  152.2320 N   0  0  0  0  0  0  0  0  0  0  0  0
  161.1140  205.1010  152.3800 C   0  0  0  0  0  0  0  0  0  0  0  0
  161.0260  207.2070  153.6090 C   0  0  0  0  0  3  0  0  0  0  0  0
  161.0170  203.7150  152.3860 O   0  0  0  0  0  1  0  0  0  0  0  0
  161.4740  207.1900  151.2300 C   0  0  0  0  0  0  0  0  0  0  0  0
  161.9560  210.5530  150.3160 O   0  0  0  0  0  0  0  0  0  0  0  0
  161.3000  207.8770  152.4160 C   0  0  0  0  0  0  0  0  0  0  0  0
  161.5800  205.0610  149.8990 C   0  0  0  0  0  1  0  0  0  0  0  0
  161.7260  209.4370  150.8480 C   0  0  0  0  0  0  0  0  0  0  0  0
  161.3870  205.7950  151.1840 C   0  0  0  0  0  0  0  0  0  0  0  0
  160.9340  205.8090  153.5840 C   0  0  0  0  0  3  0  0  0  0  0  0
  1 16  1  6  0  0  0
  1  6  1  0  0  0  0
  1  2  1  0  0  0  0
  2  3  1  0  0  0  0
  3  9  1  0  0  0  0
  4 10  1  0  0  0  0
  5 13  1  0  0  0  0
  5  8  1  0  0  0  0
  6  7  1  0  0  0  0
  7  8  1  0  0  0  0
  7  9  1  0  0  0  0
  8 10  2  0  0  0  0
 11  5  2  0  0  0  0
 12 11  1  0  0  0  0
 12  6  2  0  0  0  0
 13  4  1  0  0  0  0
 14 11  1  0  0  0  0
 15 24  1  0  0  0  0
 15 20  1  0  0  0  0
 16 22  1  0  0  0  0
 17 19  1  0  0  0  0
 17 26  1  0  0  0  0
 20 22  2  0  0  0  0
 21 24  2  0  0  0  0
 22 18  1  0  0  0  0
 23 25  1  0  0  0  0
 24 16  1  0  0  0  0
 25 20  1  0  0  0  0
 25 17  2  0  0  0  0
 26 18  2  0  0  0  0
M  END
>  <MODEL>
2

>  <REMARK>
 VINA RESULT:      -8.7      2.190      3.677
  Name = 
  1 active torsions:
  status: ('A' for Active; 'I' for Inactive)
    1  A    between atoms: C_1  and  N_4
                            x       y       z     vdW  Elec       q    Type
                         _______ _______ _______ _____ _____    ______ ____

>  <TORSDO>
F 1

$$$$
=
 OpenBabel11052409493D

 26 30  0  0  1  0  0  0  0  0999 V2000
  161.7080  210.6860  153.9820 C   0  0  2  0  0  3  0  0  0  0  0  0
  162.3480  210.5980  155.3700 C   0  0  0  0  0  2  0  0  0  0  0  0
  161.3220  210.2260  156.4330 C   0  0  0  0  0  2  0  0  0  0  0  0
  156.3560  213.1130  155.8320 C   0  0  0  0  0  2  0  0  0  0  0  0
  157.8640  212.6350  153.8720 C   0  0  0  0  0  0  0  0  0  0  0  0
  160.3910  211.4110  153.9910 C   0  0  0  0  0  0  0  0  0  0  0  0
  159.6580  211.5860  155.2270 N   0  0  0  0  0  0  0  0  0  0  0  0
  158.3760  212.2160  155.1410 C   0  0  0  0  0  0  0  0  0  0  0  0
  160.2740  211.3260  156.5290 C   0  0  0  0  0  2  0  0  0  0  0  0
  157.6210  212.4540  156.1570 N   0  0  0  0  0  0  0  0  0  0  0  0
  158.5880  212.4490  152.7640 C   0  0  0  0  0  0  0  0  0  0  0  0
  159.8760  211.8080  152.8580 N   0  0  0  0  0  0  0  0  0  0  0  0
  156.2630  213.3960  154.0110 S   0  0  0  0  0  0  0  0  0  0  0  0
  158.0820  212.8810  151.4310 C   0  0  0  0  0  1  0  0  0  0  0  0
  160.7690  207.0920  153.0370 C   0  0  0  0  0  2  0  0  0  0  0  0
  161.5960  209.3630  153.3640 N   0  0  0  0  0  0  0  0  0  0  0  0
  161.6760  207.9780  149.4040 C   0  0  0  0  0  0  0  0  0  0  0  0
  162.1360  209.8160  150.9420 C   0  0  0  0  0  3  0  0  0  0  0  0
  161.6890  207.4800  148.1080 O   0  0  0  0  0  1  0  0  0  0  0  0
  161.2170  207.7300  151.7590 C   0  0  0  0  0  0  0  0  0  0  0  0
  160.7630  208.1670  155.2210 O   0  0  0  0  0  0  0  0  0  0  0  0
  161.6680  209.0170  151.9860 C   0  0  0  0  0  0  0  0  0  0  0  0
  160.7170  205.7950  150.2350 C   0  0  0  0  0  1  0  0  0  0  0  0
  161.0290  208.2160  153.9920 C   0  0  0  0  0  0  0  0  0  0  0  0
  161.2090  207.1840  150.4720 C   0  0  0  0  0  0  0  0  0  0  0  0
  162.1370  209.2860  149.6450 C   0  0  0  0  0  3  0  0  0  0  0  0
  1 16  1  1  0  0  0
  1  6  1  0  0  0  0
  1  2  1  0  0  0  0
  2  3  1  0  0  0  0
  3  9  1  0  0  0  0
  4 10  1  0  0  0  0
  5 13  1  0  0  0  0
  5  8  1  0  0  0  0
  6  7  1  0  0  0  0
  7  9  1  0  0  0  0
  8  7  1  0  0  0  0
  8 10  2  0  0  0  0
 11 12  1  0  0  0  0
 11  5  2  0  0  0  0
 12  6  2  0  0  0  0
 13  4  1  0  0  0  0
 14 11  1  0  0  0  0
 15 24  1  0  0  0  0
 16 24  1  0  0  0  0
 17 26  2  0  0  0  0
 17 25  1  0  0  0  0
 18 22  2  0  0  0  0
 19 17  1  0  0  0  0
 20 22  1  0  0  0  0
 20 15  1  0  0  0  0
 22 16  1  0  0  0  0
 23 25  1  0  0  0  0
 24 21  2  0  0  0  0
 25 20  2  0  0  0  0
 26 18  1  0  0  0  0
M  END
>  <MODEL>
3

>  <REMARK>
 VINA RESULT:      -8.5      2.681      4.827
  Name = 
  1 active torsions:
  status: ('A' for Active; 'I' for Inactive)
    1  A    between atoms: C_1  and  N_4
                            x       y       z     vdW  Elec       q    Type
                         _______ _______ _______ _____ _____    ______ ____

>  <TORSDO>
F 1

$$$$
=
 OpenBabel11052409493D

 26 30  0  0  1  0  0  0  0  0999 V2000
  162.2480  209.1280  151.2670 C   0  0  2  0  0  3  0  0  0  0  0  0
  161.8760  209.0060  152.7470 C   0  0  0  0  0  2  0  0  0  0  0  0
  160.4630  209.5100  153.0090 C   0  0  0  0  0  2  0  0  0  0  0  0
  159.3240  214.4530  150.2470 C   0  0  0  0  0  2  0  0  0  0  0  0
  161.0160  212.8030  149.3790 C   0  0  0  0  0  0  0  0  0  0  0  0
  161.8350  210.4430  150.6670 C   0  0  0  0  0  0  0  0  0  0  0  0
  160.8320  211.2610  151.3140 N   0  0  0  0  0  0  0  0  0  0  0  0
  160.4350  212.4600  150.6410 C   0  0  0  0  0  0  0  0  0  0  0  0
  160.3900  210.9960  152.6840 C   0  0  0  0  0  2  0  0  0  0  0  0
  159.5680  213.2930  151.1040 N   0  0  0  0  0  0  0  0  0  0  0  0
  161.9410  212.0080  148.8310 C   0  0  0  0  0  0  0  0  0  0  0  0
  162.3310  210.7990  149.5120 N   0  0  0  0  0  0  0  0  0  0  0  0
  160.3770  214.3330  148.7370 S   0  0  0  0  0  0  0  0  0  0  0  0
  162.5670  212.3440  147.5220 C   0  0  0  0  0  1  0  0  0  0  0  0
  161.4210  206.5450  148.5570 C   0  0  0  0  0  2  0  0  0  0  0  0
  161.7360  207.9940  150.4950 N   0  0  0  0  0  0  0  0  0  0  0  0
  161.0110  203.9560  151.3740 C   0  0  0  0  0  0  0  0  0  0  0  0
  161.4560  206.1930  152.2390 C   0  0  0  0  0  3  0  0  0  0  0  0
  160.7660  202.6110  151.6220 O   0  0  0  0  0  1  0  0  0  0  0  0
  161.3130  205.8040  149.8540 C   0  0  0  0  0  0  0  0  0  0  0  0
  161.9300  208.9150  148.3300 O   0  0  0  0  0  0  0  0  0  0  0  0
  161.5070  206.6570  150.9230 C   0  0  0  0  0  0  0  0  0  0  0  0
  160.8590  203.5280  148.8900 C   0  0  0  0  0  1  0  0  0  0  0  0
  161.7120  207.9220  149.0720 C   0  0  0  0  0  0  0  0  0  0  0  0
  161.0640  204.4420  150.0510 C   0  0  0  0  0  0  0  0  0  0  0  0
  161.2060  204.8320  152.4580 C   0  0  0  0  0  3  0  0  0  0  0  0
  1 16  1  6  0  0  0
  1  2  1  0  0  0  0
  2  3  1  0  0  0  0
  4 10  1  0  0  0  0
  5  8  1  0  0  0  0
  6  1  1  0  0  0  0
  6  7  1  0  0  0  0
  7  9  1  0  0  0  0
  8 10  2  0  0  0  0
  8  7  1  0  0  0  0
  9  3  1  0  0  0  0
 11  5  2  0  0  0  0
 11 12  1  0  0  0  0
 12  6  2  0  0  0  0
 13  5  1  0  0  0  0
 13  4  1  0  0  0  0
 14 11  1  0  0  0  0
 15 24  1  0  0  0  0
 15 20  1  0  0  0  0
 16 22  1  0  0  0  0
 17 19  1  0  0  0  0
 17 26  1  0  0  0  0
 18 26  2  0  0  0  0
 20 25  1  0  0  0  0
 20 22  2  0  0  0  0
 21 24  2  0  0  0  0
 22 18  1  0  0  0  0
 23 25  1  0  0  0  0
 24 16  1  0  0  0  0
 25 17  2  0  0  0  0
M  END
>  <MODEL>
4

>  <REMARK>
 VINA RESULT:      -8.4      1.830      2.527
  Name = 
  1 active torsions:
  status: ('A' for Active; 'I' for Inactive)
    1  A    between atoms: C_1  and  N_4
                            x       y       z     vdW  Elec       q    Type
                         _______ _______ _______ _____ _____    ______ ____

>  <TORSDO>
F 1

$$$$
=
 OpenBabel11052409493D

 26 30  0  0  1  0  0  0  0  0999 V2000
  162.0350  209.1380  151.7130 C   0  0  2  0  0  3  0  0  0  0  0  0
  162.1840  208.2340  152.9380 C   0  0  0  0  0  2  0  0  0  0  0  0
  160.8320  207.9150  153.5620 C   0  0  0  0  0  2  0  0  0  0  0  0
  157.4020  212.5470  153.9170 C   0  0  0  0  0  2  0  0  0  0  0  0
  159.1880  212.3460  152.1540 C   0  0  0  0  0  0  0  0  0  0  0  0
  161.0640  210.2650  151.9320 C   0  0  0  0  0  0  0  0  0  0  0  0
  160.0950  210.1990  153.0060 N   0  0  0  0  0  0  0  0  0  0  0  0
  159.1540  211.2730  153.1010 C   0  0  0  0  0  0  0  0  0  0  0  0
  160.1940  209.2010  154.0700 C   0  0  0  0  0  2  0  0  0  0  0  0
  158.2490  211.3590  154.0120 N   0  0  0  0  0  0  0  0  0  0  0  0
  160.1080  212.3530  151.1840 C   0  0  0  0  0  0  0  0  0  0  0  0
  161.0490  211.2650  151.0920 N   0  0  0  0  0  0  0  0  0  0  0  0
  157.9330  213.5640  152.4720 S   0  0  0  0  0  0  0  0  0  0  0  0
  160.1710  213.4600  150.1900 C   0  0  0  0  0  1  0  0  0  0  0  0
  161.7960  207.6800  148.1760 C   0  0  0  0  0  2  0  0  0  0  0  0
  161.7040  208.3620  150.5160 N   0  0  0  0  0  0  0  0  0  0  0  0
  160.9160  204.3040  149.7980 C   0  0  0  0  0  0  0  0  0  0  0  0
  161.1380  206.0880  151.4480 C   0  0  0  0  0  3  0  0  0  0  0  0
  160.6580  202.9680  149.5170 O   0  0  0  0  0  1  0  0  0  0  0  0
  161.4600  206.5450  149.0930 C   0  0  0  0  0  0  0  0  0  0  0  0
  162.2860  209.9590  148.8770 O   0  0  0  0  0  0  0  0  0  0  0  0
  161.4280  206.9700  150.4070 C   0  0  0  0  0  0  0  0  0  0  0  0
  161.2480  204.7590  147.3370 C   0  0  0  0  0  1  0  0  0  0  0  0
  161.9540  208.7820  149.1770 C   0  0  0  0  0  0  0  0  0  0  0  0
  161.2080  205.2100  148.7590 C   0  0  0  0  0  0  0  0  0  0  0  0
  160.8820  204.7460  151.1340 C   0  0  0  0  0  3  0  0  0  0  0  0
  1 16  1  6  0  0  0
  1  6  1  0  0  0  0
  1  2  1  0  0  0  0
  2  3  1  0  0  0  0
  3  9  1  0  0  0  0
  4 10  1  0  0  0  0
  5 13  1  0  0  0  0
  5  8  1  0  0  0  0
  6  7  1  0  0  0  0
  7  8  1  0  0  0  0
  7  9  1  0  0  0  0
  8 10  2  0  0  0  0
 11  5  2  0  0  0  0
 12 11  1  0  0  0  0
 12  6  2  0  0  0  0
 13  4  1  0  0  0  0
 14 11  1  0  0  0  0
 15 20  1  0  0  0  0
 15 24  1  0  0  0  0
 17 26  1  0  0  0  0
 19 17  1  0  0  0  0
 20 22  2  0  0  0  0
 21 24  2  0  0  0  0
 22 16  1  0  0  0  0
 22 18  1  0  0  0  0
 23 25  1  0  0  0  0
 24 16  1  0  0  0  0
 25 20  1  0  0  0  0
 25 17  2  0  0  0  0
 26 18  2  0  0  0  0
M  END
>  <MODEL>
5

>  <REMARK>
 VINA RESULT:      -8.4      1.586      2.141
  Name = 
  1 active torsions:
  status: ('A' for Active; 'I' for Inactive)
    1  A    between atoms: C_1  and  N_4
                            x       y       z     vdW  Elec       q    Type
                         _______ _______ _______ _____ _____    ______ ____

>  <TORSDO>
F 1

$$$$
=
 OpenBabel11052409493D

 26 30  0  0  1  0  0  0  0  0999 V2000
  162.0030  209.0830  152.9020 C   0  0  2  0  0  3  0  0  0  0  0  0
  162.4970  210.3280  152.1600 C   0  0  0  0  0  2  0  0  0  0  0  0
  161.7160  210.5540  150.8720 C   0  0  0  0  0  2  0  0  0  0  0  0
  160.8950  205.6770  147.8900 C   0  0  0  0  0  2  0  0  0  0  0  0
  161.1870  205.6750  150.3910 C   0  0  0  0  0  0  0  0  0  0  0  0
  161.7750  207.9110  151.9880 C   0  0  0  0  0  0  0  0  0  0  0  0
  161.6230  208.1110  150.5630 N   0  0  0  0  0  0  0  0  0  0  0  0
  161.3290  206.9560  149.7700 C   0  0  0  0  0  0  0  0  0  0  0  0
  161.9560  209.3850  149.9250 C   0  0  0  0  0  2  0  0  0  0  0  0
  161.1850  206.9780  148.4910 N   0  0  0  0  0  0  0  0  0  0  0  0
  161.3420  205.5510  151.7130 C   0  0  0  0  0  0  0  0  0  0  0  0
  161.6310  206.7200  152.5050 N   0  0  0  0  0  0  0  0  0  0  0  0
  160.8310  204.3920  149.2130 S   0  0  0  0  0  0  0  0  0  0  0  0
  161.2060  204.2290  152.3850 C   0  0  0  0  0  1  0  0  0  0  0  0
  159.4710  209.6180  155.7290 C   0  0  0  0  0  2  0  0  0  0  0  0
  160.8190  209.3810  153.7100 N   0  0  0  0  0  0  0  0  0  0  0  0
  157.8310  212.3210  153.5360 C   0  0  0  0  0  0  0  0  0  0  0  0
  159.6610  211.1880  152.3860 C   0  0  0  0  0  3  0  0  0  0  0  0
  156.8280  213.2820  153.5180 O   0  0  0  0  0  1  0  0  0  0  0  0
  159.0600  210.5690  154.6480 C   0  0  0  0  0  0  0  0  0  0  0  0
  161.3190  208.0400  155.5880 O   0  0  0  0  0  0  0  0  0  0  0  0
  159.8530  210.4080  153.5270 C   0  0  0  0  0  0  0  0  0  0  0  0
  157.1880  211.6910  155.8940 C   0  0  0  0  0  1  0  0  0  0  0  0
  160.6080  208.9250  155.0440 C   0  0  0  0  0  0  0  0  0  0  0  0
  158.0370  211.5230  154.6790 C   0  0  0  0  0  0  0  0  0  0  0  0
  158.6410  212.1490  152.3970 C   0  0  0  0  0  3  0  0  0  0  0  0
  1  2  1  6  0  0  0
  1 16  1  0  0  0  0
  3  2  1  0  0  0  0
  4 10  1  0  0  0  0
  4 13  1  0  0  0  0
  5 11  2  0  0  0  0
  6 12  2  0  0  0  0
  6  1  1  0  0  0  0
  7  6  1  0  0  0  0
  8  5  1  0  0  0  0
  8  7  1  0  0  0  0
  9  7  1  0  0  0  0
  9  3  1  0  0  0  0
 10  8  2  0  0  0  0
 11 14  1  0  0  0  0
 11 12  1  0  0  0  0
 13  5  1  0  0  0  0
 16 24  1  0  0  0  0
 17 25  1  0  0  0  0
 18 26  1  0  0  0  0
 18 22  2  0  0  0  0
 19 17  1  0  0  0  0
 20 25  2  0  0  0  0
 20 15  1  0  0  0  0
 22 16  1  0  0  0  0
 22 20  1  0  0  0  0
 24 21  2  0  0  0  0
 24 15  1  0  0  0  0
 25 23  1  0  0  0  0
 26 17  2  0  0  0  0
M  END
>  <MODEL>
6

>  <REMARK>
 VINA RESULT:      -8.2      3.217      7.439
  Name = 
  1 active torsions:
  status: ('A' for Active; 'I' for Inactive)
    1  A    between atoms: C_1  and  N_4
                            x       y       z     vdW  Elec       q    Type
                         _______ _______ _______ _____ _____    ______ ____

>  <TORSDO>
F 1

$$$$
=
 OpenBabel11052409493D

 26 30  0  0  1  0  0  0  0  0999 V2000
  160.4910  207.6770  151.6700 C   0  0  2  0  0  3  0  0  0  0  0  0
  160.9970  208.6040  150.5620 C   0  0  0  0  0  2  0  0  0  0  0  0
  162.4050  209.1050  150.8560 C   0  0  0  0  0  2  0  0  0  0  0  0
  163.0870  210.7070  156.3630 C   0  0  0  0  0  2  0  0  0  0  0  0
  161.3970  208.9700  155.6820 C   0  0  0  0  0  0  0  0  0  0  0  0
  160.7940  208.1930  153.0490 C   0  0  0  0  0  0  0  0  0  0  0  0
  161.8160  209.1990  153.2470 N   0  0  0  0  0  0  0  0  0  0  0  0
  162.1000  209.5820  154.5970 C   0  0  0  0  0  0  0  0  0  0  0  0
  162.3870  209.9460  152.1260 C   0  0  0  0  0  2  0  0  0  0  0  0
  162.9690  210.4750  154.9240 N   0  0  0  0  0  0  0  0  0  0  0  0
  160.4610  208.0470  155.4370 C   0  0  0  0  0  0  0  0  0  0  0  0
  160.1840  207.6630  154.0750 N   0  0  0  0  0  0  0  0  0  0  0  0
  161.9110  209.6050  157.2610 S   0  0  0  0  0  0  0  0  0  0  0  0
  159.7080  207.3990  156.5460 C   0  0  0  0  0  1  0  0  0  0  0  0
  161.4040  203.9720  152.0360 C   0  0  0  0  0  2  0  0  0  0  0  0
  160.9810  206.3090  151.4820 N   0  0  0  0  0  0  0  0  0  0  0  0
  161.1360  203.6890  148.2080 C   0  0  0  0  0  0  0  0  0  0  0  0
  160.8190  205.9800  148.9870 C   0  0  0  0  0  3  0  0  0  0  0  0
  161.1980  202.7890  147.1520 O   0  0  0  0  0  1  0  0  0  0  0  0
  161.2500  204.1950  150.5640 C   0  0  0  0  0  0  0  0  0  0  0  0
  161.1910  205.6870  153.7500 O   0  0  0  0  0  0  0  0  0  0  0  0
  161.0020  205.5270  150.2940 C   0  0  0  0  0  0  0  0  0  0  0  0
  161.5860  201.8130  149.8360 C   0  0  0  0  0  1  0  0  0  0  0  0
  161.1950  205.3700  152.5320 C   0  0  0  0  0  0  0  0  0  0  0  0
  161.3210  203.2500  149.5350 C   0  0  0  0  0  0  0  0  0  0  0  0
  160.8870  205.0490  147.9420 C   0  0  0  0  0  3  0  0  0  0  0  0
  1  2  1  6  0  0  0
  1  6  1  0  0  0  0
  2  3  1  0  0  0  0
  3  9  1  0  0  0  0
  4 13  1  0  0  0  0
  5 13  1  0  0  0  0
  6  7  1  0  0  0  0
  6 12  2  0  0  0  0
  7  8  1  0  0  0  0
  8 10  2  0  0  0  0
  8  5  1  0  0  0  0
  9  7  1  0  0  0  0
 10  4  1  0  0  0  0
 11  5  2  0  0  0  0
 11 14  1  0  0  0  0
 12 11  1  0  0  0  0
 15 24  1  0  0  0  0
 16  1  1  0  0  0  0
 16 24  1  0  0  0  0
 17 25  1  0  0  0  0
 18 22  2  0  0  0  0
 19 17  1  0  0  0  0
 20 15  1  0  0  0  0
 22 20  1  0  0  0  0
 22 16  1  0  0  0  0
 24 21  2  0  0  0  0
 25 23  1  0  0  0  0
 25 20  2  0  0  0  0
 26 17  2  0  0  0  0
 26 18  1  0  0  0  0
M  END
>  <MODEL>
7

>  <REMARK>
 VINA RESULT:      -7.2      2.456      3.882
  Name = 
  1 active torsions:
  status: ('A' for Active; 'I' for Inactive)
    1  A    between atoms: C_1  and  N_4
                            x       y       z     vdW  Elec       q    Type
                         _______ _______ _______ _____ _____    ______ ____

>  <TORSDO>
F 1

$$$$
=
 OpenBabel11052409493D

 26 30  0  0  1  0  0  0  0  0999 V2000
  162.3130  208.0050  151.9270 C   0  0  2  0  0  3  0  0  0  0  0  0
  162.7050  209.1700  151.0160 C   0  0  0  0  0  2  0  0  0  0  0  0
  161.7890  209.2610  149.8020 C   0  0  0  0  0  2  0  0  0  0  0  0
  160.7310  204.1030  147.4290 C   0  0  0  0  0  2  0  0  0  0  0  0
  161.2870  204.3560  149.8720 C   0  0  0  0  0  0  0  0  0  0  0  0
  162.0070  206.7450  151.1650 C   0  0  0  0  0  0  0  0  0  0  0  0
  161.7010  206.7990  149.7510 N   0  0  0  0  0  0  0  0  0  0  0  0
  161.3420  205.5680  149.1140 C   0  0  0  0  0  0  0  0  0  0  0  0
  161.9450  208.0040  148.9570 C   0  0  0  0  0  2  0  0  0  0  0  0
  161.0630  205.4600  147.8620 N   0  0  0  0  0  0  0  0  0  0  0  0
  161.5830  204.3670  151.1760 C   0  0  0  0  0  0  0  0  0  0  0  0
  161.9370  205.6120  151.8110 N   0  0  0  0  0  0  0  0  0  0  0  0
  160.8270  202.9580  148.8730 S   0  0  0  0  0  0  0  0  0  0  0  0
  161.5400  203.1190  151.9870 C   0  0  0  0  0  1  0  0  0  0  0  0
  159.8910  208.4040  154.8710 C   0  0  0  0  0  2  0  0  0  0  0  0
  161.2170  208.3770  152.8240 N   0  0  0  0  0  0  0  0  0  0  0  0
  159.1440  211.9470  153.5720 C   0  0  0  0  0  0  0  0  0  0  0  0
  160.6510  210.7240  152.0940 C   0  0  0  0  0  3  0  0  0  0  0  0
  158.4390  213.1110  153.8550 O   0  0  0  0  0  1  0  0  0  0  0  0
  159.8020  209.6900  154.1110 C   0  0  0  0  0  0  0  0  0  0  0  0
  161.2490  206.4860  154.2370 O   0  0  0  0  0  0  0  0  0  0  0  0
  160.5730  209.6370  152.9660 C   0  0  0  0  0  0  0  0  0  0  0  0
  158.2470  210.8880  155.6810 C   0  0  0  0  0  1  0  0  0  0  0  0
  160.8300  207.6450  153.9840 C   0  0  0  0  0  0  0  0  0  0  0  0
  159.0750  210.8390  154.4410 C   0  0  0  0  0  0  0  0  0  0  0  0
  159.9290  211.8840  152.4050 C   0  0  0  0  0  3  0  0  0  0  0  0
  1  2  1  6  0  0  0
  1 16  1  0  0  0  0
  3  2  1  0  0  0  0
  4 10  1  0  0  0  0
  4 13  1  0  0  0  0
  5 11  2  0  0  0  0
  6 12  2  0  0  0  0
  6  1  1  0  0  0  0
  7  6  1  0  0  0  0
  8  7  1  0  0  0  0
  8  5  1  0  0  0  0
  9  7  1  0  0  0  0
  9  3  1  0  0  0  0
 10  8  2  0  0  0  0
 11 12  1  0  0  0  0
 11 14  1  0  0  0  0
 13  5  1  0  0  0  0
 16 22  1  0  0  0  0
 16 24  1  0  0  0  0
 17 19  1  0  0  0  0
 17 25  1  0  0  0  0
 18 26  1  0  0  0  0
 18 22  2  0  0  0  0
 20 25  2  0  0  0  0
 20 15  1  0  0  0  0
 22 20  1  0  0  0  0
 24 21  2  0  0  0  0
 24 15  1  0  0  0  0
 25 23  1  0  0  0  0
 26 17  2  0  0  0  0
M  END
>  <MODEL>
8

>  <REMARK>
 VINA RESULT:      -7.0      3.029      7.345
  Name = 
  1 active torsions:
  status: ('A' for Active; 'I' for Inactive)
    1  A    between atoms: C_1  and  N_4
                            x       y       z     vdW  Elec       q    Type
                         _______ _______ _______ _____ _____    ______ ____

>  <TORSDO>
F 1

$$$$
=
 OpenBabel11052409493D

 26 30  0  0  1  0  0  0  0  0999 V2000
  162.3630  205.6010  150.8440 C   0  0  2  0  0  3  0  0  0  0  0  0
  162.1740  204.1670  151.3470 C   0  0  0  0  0  2  0  0  0  0  0  0
  160.8430  204.0020  152.0690 C   0  0  0  0  0  2  0  0  0  0  0  0
  159.7020  208.3870  155.6510 C   0  0  0  0  0  2  0  0  0  0  0  0
  161.1540  208.6750  153.6140 C   0  0  0  0  0  0  0  0  0  0  0  0
  161.9680  206.6340  151.8610 C   0  0  0  0  0  0  0  0  0  0  0  0
  161.1120  206.2790  152.9740 N   0  0  0  0  0  0  0  0  0  0  0  0
  160.7160  207.3350  153.8550 C   0  0  0  0  0  0  0  0  0  0  0  0
  160.8310  204.8830  153.3120 C   0  0  0  0  0  2  0  0  0  0  0  0
  159.9740  207.1660  154.8930 N   0  0  0  0  0  0  0  0  0  0  0  0
  161.9460  208.9430  152.5700 C   0  0  0  0  0  0  0  0  0  0  0  0
  162.3360  207.8750  151.6840 N   0  0  0  0  0  0  0  0  0  0  0  0
  160.5450  209.8130  154.8370 S   0  0  0  0  0  0  0  0  0  0  0  0
  162.4220  210.3280  152.2990 C   0  0  0  0  0  1  0  0  0  0  0  0
  160.9980  206.9870  147.5410 C   0  0  0  0  0  2  0  0  0  0  0  0
  161.6800  205.8090  149.5650 N   0  0  0  0  0  0  0  0  0  0  0  0
  160.8940  203.3650  146.2460 C   0  0  0  0  0  0  0  0  0  0  0  0
  161.5810  203.4870  148.5840 C   0  0  0  0  0  3  0  0  0  0  0  0
  160.6210  202.5920  145.1240 O   0  0  0  0  0  1  0  0  0  0  0  0
  161.0530  205.5030  147.3510 C   0  0  0  0  0  0  0  0  0  0  0  0
  161.5860  208.1680  149.5870 O   0  0  0  0  0  0  0  0  0  0  0  0
  161.4520  204.8750  148.5160 C   0  0  0  0  0  0  0  0  0  0  0  0
  160.3400  205.4550  144.9420 C   0  0  0  0  0  1  0  0  0  0  0  0
  161.4350  207.0810  148.9710 C   0  0  0  0  0  0  0  0  0  0  0  0
  160.7680  204.7680  146.1960 C   0  0  0  0  0  0  0  0  0  0  0  0
  161.2980  202.7330  147.4370 C   0  0  0  0  0  3  0  0  0  0  0  0
  1 16  1  6  0  0  0
  1  2  1  0  0  0  0
  1  6  1  0  0  0  0
  2  3  1  0  0  0  0
  3  9  1  0  0  0  0
  5  8  1  0  0  0  0
  5 13  1  0  0  0  0
  6  7  1  0  0  0  0
  7  9  1  0  0  0  0
  7  8  1  0  0  0  0
  8 10  2  0  0  0  0
 10  4  1  0  0  0  0
 11  5  2  0  0  0  0
 12  6  2  0  0  0  0
 12 11  1  0  0  0  0
 13  4  1  0  0  0  0
 14 11  1  0  0  0  0
 15 24  1  0  0  0  0
 17 26  1  0  0  0  0
 19 17  1  0  0  0  0
 20 15  1  0  0  0  0
 20 22  2  0  0  0  0
 22 18  1  0  0  0  0
 22 16  1  0  0  0  0
 23 25  1  0  0  0  0
 24 16  1  0  0  0  0
 24 21  2  0  0  0  0
 25 17  2  0  0  0  0
 25 20  1  0  0  0  0
 26 18  2  0  0  0  0
M  END
>  <MODEL>
9

>  <REMARK>
 VINA RESULT:      -7.0      2.118      3.005
  Name = 
  1 active torsions:
  status: ('A' for Active; 'I' for Inactive)
    1  A    between atoms: C_1  and  N_4
                            x       y       z     vdW  Elec       q    Type
                         _______ _______ _______ _____ _____    ______ ____

>  <TORSDO>
F 1

$$$$
