=
 OpenBabel11052411143D

 26 28  0  0  1  0  0  0  0  0999 V2000
  162.2620  206.8930  151.7070 N   0  0  0  0  0  2  0  0  0  0  0  0
  160.3930  208.2930  151.6370 O   0  0  0  0  0  0  0  0  0  0  0  0
  161.4310  207.9230  152.2480 C   0  0  0  0  0  0  0  0  0  0  0  0
  161.6110  210.4200  153.3990 S   0  0  0  0  0  0  0  0  0  0  0  0
  161.7990  208.5870  153.5340 C   0  0  1  0  0  3  0  0  0  0  0  0
  159.5020  208.6400  156.1730 N   0  0  0  0  0  0  0  0  0  0  0  0
  160.8480  208.2080  154.5930 C   0  0  0  0  0  0  0  0  0  0  0  0
  160.2640  210.5170  154.6720 C   0  0  2  0  0  3  0  0  0  0  0  0
  160.1060  209.1510  155.1210 N   0  0  0  0  0  0  0  0  0  0  0  0
  159.8610  207.3610  156.2510 N   0  0  0  0  0  0  0  0  0  0  0  0
  160.7210  207.0600  155.2770 N   0  0  0  0  0  0  0  0  0  0  0  0
  158.5890  212.1940  154.7850 C   0  0  0  0  0  1  0  0  0  0  0  0
  159.0200  211.0040  154.0650 N   0  0  0  0  0  0  0  0  0  0  0  0
  159.3200  211.4640  152.7170 C   0  0  0  0  0  1  0  0  0  0  0  0
  162.0270  206.3070  150.3940 C   0  0  1  0  0  3  0  0  0  0  0  0
  160.6210  202.2490  150.6660 C   0  0  0  0  0  3  0  0  0  0  0  0
  161.3590  204.1380  149.3420 C   0  0  0  0  0  3  0  0  0  0  0  0
  160.9030  202.8180  149.4200 C   0  0  0  0  0  0  0  0  0  0  0  0
  161.5450  204.8910  150.5070 C   0  0  0  0  0  0  0  0  0  0  0  0
  161.2620  204.3140  151.7560 C   0  0  0  0  0  3  0  0  0  0  0  0
  160.7990  202.9970  151.8340 C   0  0  0  0  0  3  0  0  0  0  0  0
  160.7050  202.0240  148.1790 C   0  0  0  0  0  1  0  0  0  0  0  0
  160.0870  206.3970  148.9700 O   0  0  0  0  0  1  0  0  0  0  0  0
  161.1000  207.1770  149.5350 C   0  0  2  0  0  3  0  0  0  0  0  0
  161.8190  207.9870  148.4520 C   0  0  0  0  0  2  0  0  0  0  0  0
  161.9770  209.3190  148.8440 O   0  0  0  0  0  1  0  0  0  0  0  0
  1  3  1  0  0  0  0
  2  3  2  0  0  0  0
  4  5  1  0  0  0  0
  4  8  1  0  0  0  0
  5  3  1  6  0  0  0
  5  7  1  0  0  0  0
  6 10  2  0  0  0  0
  7  9  1  0  0  0  0
  7 11  2  0  0  0  0
  8 13  1  6  0  0  0
  8  9  1  0  0  0  0
  9  6  1  0  0  0  0
 11 10  1  0  0  0  0
 13 12  1  0  0  0  0
 14 13  1  0  0  0  0
 15 19  1  0  0  0  0
 15  1  1  1  0  0  0
 16 21  1  0  0  0  0
 17 18  1  0  0  0  0
 17 19  2  0  0  0  0
 18 16  2  0  0  0  0
 19 20  1  0  0  0  0
 20 21  2  0  0  0  0
 22 18  1  0  0  0  0
 24 23  1  6  0  0  0
 24 15  1  0  0  0  0
 25 26  1  0  0  0  0
 25 24  1  0  0  0  0
M  END
>  <MODEL>
1

>  <REMARK>
 VINA RESULT:      -7.3      0.000      0.000
  Name = 
  6 active torsions:
  status: ('A' for Active; 'I' for Inactive)
    1  A    between atoms: C_5  and  C_26
    2  A    between atoms: C_6  and  C_16
    3  A    between atoms: C_6  and  C_18
    4  A    between atoms: N_8  and  C_10
    5  A    between atoms: N_12  and  C_16
    6  A    between atoms: C_15  and  C_16
                            x       y       z     vdW  Elec       q    Type
                         _______ _______ _______ _____ _____    ______ ____

>  <TORSDO>
F 6

$$$$
=
 OpenBabel11052411143D

 26 28  0  0  1  0  0  0  0  0999 V2000
  161.1100  205.4970  147.5670 N   0  0  0  0  0  2  0  0  0  0  0  0
  162.9100  206.8770  148.1300 O   0  0  0  0  0  0  0  0  0  0  0  0
  161.6840  206.6130  148.2530 C   0  0  0  0  0  0  0  0  0  0  0  0
  160.2270  206.4890  150.5880 S   0  0  0  0  0  0  0  0  0  0  0  0
  160.8370  207.4630  149.1410 C   0  0  1  0  0  3  0  0  0  0  0  0
  162.3600  209.6700  151.3890 N   0  0  0  0  0  0  0  0  0  0  0  0
  161.6490  208.5320  149.7480 C   0  0  0  0  0  0  0  0  0  0  0  0
  161.1420  207.5090  151.8400 C   0  0  2  0  0  3  0  0  0  0  0  0
  161.7960  208.5300  151.0510 N   0  0  0  0  0  0  0  0  0  0  0  0
  162.5880  210.3460  150.2660 N   0  0  0  0  0  0  0  0  0  0  0  0
  162.1370  209.6620  149.2130 N   0  0  0  0  0  0  0  0  0  0  0  0
  161.5920  206.3130  153.8390 C   0  0  0  0  0  1  0  0  0  0  0  0
  162.1350  206.6890  152.5420 N   0  0  0  0  0  0  0  0  0  0  0  0
  162.2880  205.4370  151.8150 C   0  0  0  0  0  1  0  0  0  0  0  0
  161.9130  204.5540  146.7980 C   0  0  1  0  0  3  0  0  0  0  0  0
  160.8940  200.4900  147.7760 C   0  0  0  0  0  3  0  0  0  0  0  0
  161.4360  202.7490  148.4610 C   0  0  0  0  0  3  0  0  0  0  0  0
  161.1050  201.4300  148.7890 C   0  0  0  0  0  0  0  0  0  0  0  0
  161.5480  203.1360  147.1210 C   0  0  0  0  0  0  0  0  0  0  0  0
  161.3340  202.1880  146.1070 C   0  0  0  0  0  3  0  0  0  0  0  0
  161.0100  200.8680  146.4350 C   0  0  0  0  0  3  0  0  0  0  0  0
  160.9900  201.0240  150.2150 C   0  0  0  0  0  1  0  0  0  0  0  0
  162.7710  205.8490  144.9580 O   0  0  0  0  0  1  0  0  0  0  0  0
  161.8560  204.8480  145.2930 C   0  0  2  0  0  3  0  0  0  0  0  0
  160.4590  205.2010  144.7720 C   0  0  0  0  0  2  0  0  0  0  0  0
  160.2130  206.5710  144.8860 O   0  0  0  0  0  1  0  0  0  0  0  0
  1  3  1  0  0  0  0
  2  3  2  0  0  0  0
  4  8  1  0  0  0  0
  5  3  1  6  0  0  0
  5  7  1  0  0  0  0
  5  4  1  0  0  0  0
  7  9  1  0  0  0  0
  8 13  1  6  0  0  0
  9  6  1  0  0  0  0
  9  8  1  0  0  0  0
 10  6  2  0  0  0  0
 11  7  2  0  0  0  0
 11 10  1  0  0  0  0
 13 12  1  0  0  0  0
 14 13  1  0  0  0  0
 15 19  1  0  0  0  0
 15  1  1  1  0  0  0
 16 18  1  0  0  0  0
 17 18  2  0  0  0  0
 18 22  1  0  0  0  0
 19 17  1  0  0  0  0
 20 21  1  0  0  0  0
 20 19  2  0  0  0  0
 21 16  2  0  0  0  0
 24 23  1  1  0  0  0
 24 15  1  0  0  0  0
 25 26  1  0  0  0  0
 25 24  1  0  0  0  0
M  END
>  <MODEL>
2

>  <REMARK>
 VINA RESULT:      -7.2      3.162      4.953
  Name = 
  6 active torsions:
  status: ('A' for Active; 'I' for Inactive)
    1  A    between atoms: C_5  and  C_26
    2  A    between atoms: C_6  and  C_16
    3  A    between atoms: C_6  and  C_18
    4  A    between atoms: N_8  and  C_10
    5  A    between atoms: N_12  and  C_16
    6  A    between atoms: C_15  and  C_16
                            x       y       z     vdW  Elec       q    Type
                         _______ _______ _______ _____ _____    ______ ____

>  <TORSDO>
F 6

$$$$
=
 OpenBabel11052411143D

 26 28  0  0  1  0  0  0  0  0999 V2000
  161.6000  208.6570  152.1350 N   0  0  0  0  0  2  0  0  0  0  0  0
  160.3990  208.6050  154.1380 O   0  0  0  0  0  0  0  0  0  0  0  0
  161.1260  209.2580  153.3430 C   0  0  0  0  0  0  0  0  0  0  0  0
  160.0680  211.7990  153.2350 S   0  0  0  0  0  0  0  0  0  0  0  0
  161.4720  210.6750  153.6610 C   0  0  1  0  0  3  0  0  0  0  0  0
  161.2530  211.8090  156.9640 N   0  0  0  0  0  0  0  0  0  0  0  0
  161.6350  210.8450  155.1150 C   0  0  0  0  0  0  0  0  0  0  0  0
  159.7730  212.3270  154.9900 C   0  0  2  0  0  3  0  0  0  0  0  0
  160.7980  211.6360  155.7410 N   0  0  0  0  0  0  0  0  0  0  0  0
  162.3600  211.0790  157.0800 N   0  0  0  0  0  0  0  0  0  0  0  0
  162.6370  210.4690  155.9260 N   0  0  0  0  0  0  0  0  0  0  0  0
  157.7630  213.0540  156.0190 C   0  0  0  0  0  1  0  0  0  0  0  0
  158.4400  211.9060  155.4340 N   0  0  0  0  0  0  0  0  0  0  0  0
  157.6550  211.5600  154.2580 C   0  0  0  0  0  1  0  0  0  0  0  0
  161.1860  207.3260  151.7070 C   0  0  1  0  0  3  0  0  0  0  0  0
  162.0040  206.6440  147.5380 C   0  0  0  0  0  3  0  0  0  0  0  0
  161.1510  205.8750  149.6700 C   0  0  0  0  0  3  0  0  0  0  0  0
  161.4130  205.6450  148.3160 C   0  0  0  0  0  0  0  0  0  0  0  0
  161.4690  207.1090  150.2500 C   0  0  0  0  0  0  0  0  0  0  0  0
  162.0620  208.1100  149.4650 C   0  0  0  0  0  3  0  0  0  0  0  0
  162.3310  207.8770  148.1120 C   0  0  0  0  0  3  0  0  0  0  0  0
  161.0750  204.3320  147.7060 C   0  0  0  0  0  1  0  0  0  0  0  0
  163.0810  205.9180  152.1760 O   0  0  0  0  0  1  0  0  0  0  0  0
  161.7840  206.2260  152.5940 C   0  0  2  0  0  3  0  0  0  0  0  0
  160.9330  204.9560  152.6830 C   0  0  0  0  0  2  0  0  0  0  0  0
  161.5960  203.8670  152.1140 O   0  0  0  0  0  1  0  0  0  0  0  0
  1  3  1  0  0  0  0
  3  2  2  0  0  0  0
  4  5  1  0  0  0  0
  4  8  1  0  0  0  0
  5  3  1  1  0  0  0
  5  7  1  0  0  0  0
  6 10  2  0  0  0  0
  7  9  1  0  0  0  0
  7 11  2  0  0  0  0
  8 13  1  1  0  0  0
  8  9  1  0  0  0  0
  9  6  1  0  0  0  0
 11 10  1  0  0  0  0
 13 12  1  0  0  0  0
 14 13  1  0  0  0  0
 15  1  1  1  0  0  0
 15 24  1  0  0  0  0
 16 21  2  0  0  0  0
 16 18  1  0  0  0  0
 17 19  1  0  0  0  0
 18 17  2  0  0  0  0
 19 15  1  0  0  0  0
 20 19  2  0  0  0  0
 21 20  1  0  0  0  0
 22 18  1  0  0  0  0
 24 23  1  6  0  0  0
 24 25  1  0  0  0  0
 26 25  1  0  0  0  0
M  END
>  <MODEL>
3

>  <REMARK>
 VINA RESULT:      -7.1      2.454      3.500
  Name = 
  6 active torsions:
  status: ('A' for Active; 'I' for Inactive)
    1  A    between atoms: C_5  and  C_26
    2  A    between atoms: C_6  and  C_16
    3  A    between atoms: C_6  and  C_18
    4  A    between atoms: N_8  and  C_10
    5  A    between atoms: N_12  and  C_16
    6  A    between atoms: C_15  and  C_16
                            x       y       z     vdW  Elec       q    Type
                         _______ _______ _______ _____ _____    ______ ____

>  <TORSDO>
F 6

$$$$
=
 OpenBabel11052411143D

 26 28  0  0  1  0  0  0  0  0999 V2000
  162.1260  207.3630  148.9170 N   0  0  0  0  0  2  0  0  0  0  0  0
  160.1680  206.5710  147.9160 O   0  0  0  0  0  0  0  0  0  0  0  0
  161.4280  206.5990  147.9290 C   0  0  0  0  0  0  0  0  0  0  0  0
  162.7810  204.2160  147.6460 S   0  0  0  0  0  0  0  0  0  0  0  0
  162.1900  205.8080  146.9180 C   0  0  1  0  0  3  0  0  0  0  0  0
  160.4550  203.9530  144.5100 N   0  0  0  0  0  0  0  0  0  0  0  0
  161.2980  205.3900  145.8230 C   0  0  0  0  0  0  0  0  0  0  0  0
  161.7590  203.1560  146.5160 C   0  0  2  0  0  3  0  0  0  0  0  0
  161.0920  204.1060  145.6520 N   0  0  0  0  0  0  0  0  0  0  0  0
  160.2460  205.1690  144.0100 N   0  0  0  0  0  0  0  0  0  0  0  0
  160.7780  206.0970  144.8070 N   0  0  0  0  0  0  0  0  0  0  0  0
  161.2020  200.9920  147.3140 C   0  0  0  0  0  1  0  0  0  0  0  0
  160.7770  202.3850  147.2850 N   0  0  0  0  0  0  0  0  0  0  0  0
  160.8330  202.8280  148.6700 C   0  0  0  0  0  1  0  0  0  0  0  0
  161.4400  208.0430  150.0090 C   0  0  1  0  0  3  0  0  0  0  0  0
  161.2050  205.5170  153.4840 C   0  0  0  0  0  3  0  0  0  0  0  0
  161.3260  205.7860  151.0800 C   0  0  0  0  0  3  0  0  0  0  0  0
  161.2500  204.9570  152.2030 C   0  0  0  0  0  0  0  0  0  0  0  0
  161.3680  207.1770  151.2310 C   0  0  0  0  0  0  0  0  0  0  0  0
  161.3220  207.7350  152.5190 C   0  0  0  0  0  3  0  0  0  0  0  0
  161.2390  206.9050  153.6420 C   0  0  0  0  0  3  0  0  0  0  0  0
  161.2050  203.4800  152.0370 C   0  0  0  0  0  1  0  0  0  0  0  0
  161.2480  210.1280  151.1970 O   0  0  0  0  0  1  0  0  0  0  0  0
  162.0510  209.4210  150.2990 C   0  0  2  0  0  3  0  0  0  0  0  0
  162.3300  210.2620  149.0500 C   0  0  0  0  0  2  0  0  0  0  0  0
  161.8690  211.5710  149.2140 O   0  0  0  0  0  1  0  0  0  0  0  0
  2  3  2  0  0  0  0
  3  1  1  0  0  0  0
  5  4  1  0  0  0  0
  5  3  1  1  0  0  0
  6  9  1  0  0  0  0
  7  5  1  0  0  0  0
  8 13  1  1  0  0  0
  8  4  1  0  0  0  0
  9  7  1  0  0  0  0
  9  8  1  0  0  0  0
 10  6  2  0  0  0  0
 10 11  1  0  0  0  0
 11  7  2  0  0  0  0
 13 12  1  0  0  0  0
 13 14  1  0  0  0  0
 15  1  1  6  0  0  0
 15 24  1  0  0  0  0
 15 19  1  0  0  0  0
 16 21  1  0  0  0  0
 17 19  2  0  0  0  0
 17 18  1  0  0  0  0
 18 16  2  0  0  0  0
 19 20  1  0  0  0  0
 20 21  2  0  0  0  0
 22 18  1  0  0  0  0
 24 23  1  1  0  0  0
 25 26  1  0  0  0  0
 25 24  1  0  0  0  0
M  END
>  <MODEL>
4

>  <REMARK>
 VINA RESULT:      -6.9      4.078      7.482
  Name = 
  6 active torsions:
  status: ('A' for Active; 'I' for Inactive)
    1  A    between atoms: C_5  and  C_26
    2  A    between atoms: C_6  and  C_16
    3  A    between atoms: C_6  and  C_18
    4  A    between atoms: N_8  and  C_10
    5  A    between atoms: N_12  and  C_16
    6  A    between atoms: C_15  and  C_16
                            x       y       z     vdW  Elec       q    Type
                         _______ _______ _______ _____ _____    ______ ____

>  <TORSDO>
F 6

$$$$
=
 OpenBabel11052411143D

 26 28  0  0  1  0  0  0  0  0999 V2000
  160.1910  211.9540  152.0750 N   0  0  0  0  0  2  0  0  0  0  0  0
  158.1740  212.7880  152.9110 O   0  0  0  0  0  0  0  0  0  0  0  0
  159.1110  212.8920  152.0740 C   0  0  0  0  0  0  0  0  0  0  0  0
  160.6980  214.1360  150.1980 S   0  0  0  0  0  0  0  0  0  0  0  0
  159.0730  213.9910  151.0650 C   0  0  1  0  0  3  0  0  0  0  0  0
  157.5720  213.4300  147.9540 N   0  0  0  0  0  0  0  0  0  0  0  0
  158.1240  213.6600  149.9880 C   0  0  0  0  0  0  0  0  0  0  0  0
  160.0130  213.6800  148.5350 C   0  0  2  0  0  3  0  0  0  0  0  0
  158.5970  213.5010  148.7760 N   0  0  0  0  0  0  0  0  0  0  0  0
  156.4680  213.5120  148.6930 N   0  0  0  0  0  0  0  0  0  0  0  0
  156.7810  213.6720  149.9800 N   0  0  0  0  0  0  0  0  0  0  0  0
  160.7480  212.5030  146.6100 C   0  0  0  0  0  1  0  0  0  0  0  0
  160.6130  212.4290  148.0580 N   0  0  0  0  0  0  0  0  0  0  0  0
  161.9760  212.3560  148.5640 C   0  0  0  0  0  1  0  0  0  0  0  0
  160.2120  210.7850  152.9460 C   0  0  1  0  0  3  0  0  0  0  0  0
  162.1690  207.4280  151.0980 C   0  0  0  0  0  3  0  0  0  0  0  0
  160.7700  208.3490  152.8460 C   0  0  0  0  0  3  0  0  0  0  0  0
  161.4020  207.2520  152.2530 C   0  0  0  0  0  0  0  0  0  0  0  0
  160.8930  209.6240  152.2830 C   0  0  0  0  0  0  0  0  0  0  0  0
  161.6650  209.7960  151.1230 C   0  0  0  0  0  3  0  0  0  0  0  0
  162.3030  208.7000  150.5330 C   0  0  0  0  0  3  0  0  0  0  0  0
  161.2680  205.9000  152.8570 C   0  0  0  0  0  1  0  0  0  0  0  0
  162.1470  210.7250  154.3760 O   0  0  0  0  0  1  0  0  0  0  0  0
  160.8050  211.1070  154.3240 C   0  0  2  0  0  3  0  0  0  0  0  0
  160.0290  210.5060  155.5000 C   0  0  0  0  0  2  0  0  0  0  0  0
  158.6510  210.6080  155.2960 O   0  0  0  0  0  1  0  0  0  0  0  0
  3  1  1  0  0  0  0
  3  2  2  0  0  0  0
  4  5  1  0  0  0  0
  5  3  1  1  0  0  0
  6 10  2  0  0  0  0
  6  9  1  0  0  0  0
  7  5  1  0  0  0  0
  8 13  1  1  0  0  0
  8  9  1  0  0  0  0
  8  4  1  0  0  0  0
  9  7  1  0  0  0  0
 10 11  1  0  0  0  0
 11  7  2  0  0  0  0
 12 13  1  0  0  0  0
 13 14  1  0  0  0  0
 15  1  1  6  0  0  0
 15 24  1  0  0  0  0
 16 18  1  0  0  0  0
 18 17  2  0  0  0  0
 18 22  1  0  0  0  0
 19 17  1  0  0  0  0
 19 15  1  0  0  0  0
 20 19  2  0  0  0  0
 21 16  2  0  0  0  0
 21 20  1  0  0  0  0
 24 23  1  6  0  0  0
 24 25  1  0  0  0  0
 26 25  1  0  0  0  0
M  END
>  <MODEL>
5

>  <REMARK>
 VINA RESULT:      -6.7      3.999      6.792
  Name = 
  6 active torsions:
  status: ('A' for Active; 'I' for Inactive)
    1  A    between atoms: C_5  and  C_26
    2  A    between atoms: C_6  and  C_16
    3  A    between atoms: C_6  and  C_18
    4  A    between atoms: N_8  and  C_10
    5  A    between atoms: N_12  and  C_16
    6  A    between atoms: C_15  and  C_16
                            x       y       z     vdW  Elec       q    Type
                         _______ _______ _______ _____ _____    ______ ____

>  <TORSDO>
F 6

$$$$
=
 OpenBabel11052411143D

 26 28  0  0  1  0  0  0  0  0999 V2000
  161.2510  209.3380  151.5880 N   0  0  0  0  0  2  0  0  0  0  0  0
  163.2040  210.2730  152.4670 O   0  0  0  0  0  0  0  0  0  0  0  0
  161.9600  210.0980  152.5710 C   0  0  0  0  0  0  0  0  0  0  0  0
  159.5780  209.8750  153.9370 S   0  0  0  0  0  0  0  0  0  0  0  0
  161.2340  210.6720  153.7420 C   0  0  1  0  0  3  0  0  0  0  0  0
  162.0310  209.5850  156.9720 N   0  0  0  0  0  0  0  0  0  0  0  0
  161.9390  210.3370  154.9910 C   0  0  0  0  0  0  0  0  0  0  0  0
  159.9780  209.1180  155.5830 C   0  0  2  0  0  3  0  0  0  0  0  0
  161.3220  209.5750  155.8620 N   0  0  0  0  0  0  0  0  0  0  0  0
  163.1070  210.3350  156.7460 N   0  0  0  0  0  0  0  0  0  0  0  0
  163.0720  210.8360  155.5100 N   0  0  0  0  0  0  0  0  0  0  0  0
  161.1560  207.2000  154.8310 C   0  0  0  0  0  1  0  0  0  0  0  0
  159.9430  207.6540  155.4970 N   0  0  0  0  0  0  0  0  0  0  0  0
  160.0250  207.1150  156.8460 C   0  0  0  0  0  1  0  0  0  0  0  0
  161.9250  208.6420  150.5000 C   0  0  1  0  0  3  0  0  0  0  0  0
  160.5840  204.5650  150.1920 C   0  0  0  0  0  3  0  0  0  0  0  0
  161.4820  206.3930  151.5010 C   0  0  0  0  0  3  0  0  0  0  0  0
  161.0480  205.0670  151.4110 C   0  0  0  0  0  0  0  0  0  0  0  0
  161.4450  207.2260  150.3770 C   0  0  0  0  0  0  0  0  0  0  0  0
  160.9770  206.7180  149.1550 C   0  0  0  0  0  3  0  0  0  0  0  0
  160.5500  205.3890  149.0630 C   0  0  0  0  0  3  0  0  0  0  0  0
  161.0920  204.1860  152.6090 C   0  0  0  0  0  1  0  0  0  0  0  0
  162.6440  208.8260  148.2100 O   0  0  0  0  0  1  0  0  0  0  0  0
  161.8260  209.4130  149.1770 C   0  0  2  0  0  3  0  0  0  0  0  0
  162.1270  210.9110  149.2970 C   0  0  0  0  0  2  0  0  0  0  0  0
  161.5810  211.6190  148.2240 O   0  0  0  0  0  1  0  0  0  0  0  0
  1  3  1  0  0  0  0
  2  3  2  0  0  0  0
  4  8  1  0  0  0  0
  5  3  1  6  0  0  0
  5  4  1  0  0  0  0
  5  7  1  0  0  0  0
  7 11  2  0  0  0  0
  7  9  1  0  0  0  0
  8 13  1  6  0  0  0
  8  9  1  0  0  0  0
  9  6  1  0  0  0  0
 10  6  2  0  0  0  0
 11 10  1  0  0  0  0
 12 13  1  0  0  0  0
 13 14  1  0  0  0  0
 15  1  1  1  0  0  0
 16 18  1  0  0  0  0
 18 17  2  0  0  0  0
 18 22  1  0  0  0  0
 19 15  1  0  0  0  0
 19 17  1  0  0  0  0
 20 19  2  0  0  0  0
 21 20  1  0  0  0  0
 21 16  2  0  0  0  0
 24 23  1  6  0  0  0
 24 25  1  0  0  0  0
 24 15  1  0  0  0  0
 26 25  1  0  0  0  0
M  END
>  <MODEL>
6

>  <REMARK>
 VINA RESULT:      -6.6      2.045      3.364
  Name = 
  6 active torsions:
  status: ('A' for Active; 'I' for Inactive)
    1  A    between atoms: C_5  and  C_26
    2  A    between atoms: C_6  and  C_16
    3  A    between atoms: C_6  and  C_18
    4  A    between atoms: N_8  and  C_10
    5  A    between atoms: N_12  and  C_16
    6  A    between atoms: C_15  and  C_16
                            x       y       z     vdW  Elec       q    Type
                         _______ _______ _______ _____ _____    ______ ____

>  <TORSDO>
F 6

$$$$
=
 OpenBabel11052411143D

 26 28  0  0  1  0  0  0  0  0999 V2000
  161.0810  209.6750  152.2620 N   0  0  0  0  0  2  0  0  0  0  0  0
  160.4580  207.5360  152.9670 O   0  0  0  0  0  0  0  0  0  0  0  0
  161.2050  208.2500  152.2460 C   0  0  0  0  0  0  0  0  0  0  0  0
  162.5460  205.8620  151.9480 S   0  0  0  0  0  0  0  0  0  0  0  0
  162.2390  207.5970  151.3900 C   0  0  1  0  0  3  0  0  0  0  0  0
  161.3390  206.3280  148.2560 N   0  0  0  0  0  0  0  0  0  0  0  0
  161.7370  207.4440  150.0130 C   0  0  0  0  0  0  0  0  0  0  0  0
  161.9250  205.0960  150.3760 C   0  0  2  0  0  3  0  0  0  0  0  0
  161.5800  206.2290  149.5460 N   0  0  0  0  0  0  0  0  0  0  0  0
  161.3150  207.6240  147.9570 N   0  0  0  0  0  0  0  0  0  0  0  0
  161.5780  208.3560  149.0410 N   0  0  0  0  0  0  0  0  0  0  0  0
  160.7960  203.0930  149.7910 C   0  0  0  0  0  1  0  0  0  0  0  0
  160.7390  204.2740  150.6400 N   0  0  0  0  0  0  0  0  0  0  0  0
  160.8300  203.7680  152.0020 C   0  0  0  0  0  1  0  0  0  0  0  0
  160.1860  210.3730  153.1760 C   0  0  1  0  0  3  0  0  0  0  0  0
  161.4970  209.8980  157.2460 C   0  0  0  0  0  3  0  0  0  0  0  0
  161.8730  210.7010  154.9930 C   0  0  0  0  0  3  0  0  0  0  0  0
  162.3070  210.5520  156.3130 C   0  0  0  0  0  0  0  0  0  0  0  0
  160.6230  210.2070  154.6010 C   0  0  0  0  0  0  0  0  0  0  0  0
  159.8130  209.5520  155.5410 C   0  0  0  0  0  3  0  0  0  0  0  0
  160.2500  209.3960  156.8610 C   0  0  0  0  0  3  0  0  0  0  0  0
  163.6370  211.0770  156.7230 C   0  0  0  0  0  1  0  0  0  0  0  0
  158.7240  212.2850  153.1400 O   0  0  0  0  0  1  0  0  0  0  0  0
  160.0000  211.8450  152.7840 C   0  0  2  0  0  3  0  0  0  0  0  0
  160.2800  212.1450  151.3090 C   0  0  0  0  0  2  0  0  0  0  0  0
  159.9210  213.4550  150.9860 O   0  0  0  0  0  1  0  0  0  0  0  0
  3  1  1  0  0  0  0
  3  2  2  0  0  0  0
  5  4  1  0  0  0  0
  5  3  1  1  0  0  0
  6  9  1  0  0  0  0
  7  5  1  0  0  0  0
  8 13  1  1  0  0  0
  8  4  1  0  0  0  0
  9  7  1  0  0  0  0
  9  8  1  0  0  0  0
 10  6  2  0  0  0  0
 10 11  1  0  0  0  0
 11  7  2  0  0  0  0
 12 13  1  0  0  0  0
 13 14  1  0  0  0  0
 15  1  1  6  0  0  0
 15 19  1  0  0  0  0
 17 18  1  0  0  0  0
 18 22  1  0  0  0  0
 18 16  2  0  0  0  0
 19 17  2  0  0  0  0
 19 20  1  0  0  0  0
 20 21  2  0  0  0  0
 21 16  1  0  0  0  0
 24 23  1  6  0  0  0
 24 15  1  0  0  0  0
 25 24  1  0  0  0  0
 26 25  1  0  0  0  0
M  END
>  <MODEL>
7

>  <REMARK>
 VINA RESULT:      -6.6      2.690      7.207
  Name = 
  6 active torsions:
  status: ('A' for Active; 'I' for Inactive)
    1  A    between atoms: C_5  and  C_26
    2  A    between atoms: C_6  and  C_16
    3  A    between atoms: C_6  and  C_18
    4  A    between atoms: N_8  and  C_10
    5  A    between atoms: N_12  and  C_16
    6  A    between atoms: C_15  and  C_16
                            x       y       z     vdW  Elec       q    Type
                         _______ _______ _______ _____ _____    ______ ____

>  <TORSDO>
F 6

$$$$
=
 OpenBabel11052411143D

 26 28  0  0  1  0  0  0  0  0999 V2000
  161.5190  205.4960  151.0920 N   0  0  0  0  0  2  0  0  0  0  0  0
  160.1290  207.3610  150.8670 O   0  0  0  0  0  0  0  0  0  0  0  0
  161.1350  206.8350  151.4160 C   0  0  0  0  0  0  0  0  0  0  0  0
  162.0410  209.3980  151.8620 S   0  0  0  0  0  0  0  0  0  0  0  0
  161.9380  207.6310  152.3910 C   0  0  1  0  0  3  0  0  0  0  0  0
  160.4590  208.7100  155.3730 N   0  0  0  0  0  0  0  0  0  0  0  0
  161.2470  207.6880  153.6910 C   0  0  0  0  0  0  0  0  0  0  0  0
  161.1140  210.0410  153.3350 C   0  0  2  0  0  3  0  0  0  0  0  0
  160.8450  208.8590  154.1240 N   0  0  0  0  0  0  0  0  0  0  0  0
  160.5990  207.4220  155.6780 N   0  0  0  0  0  0  0  0  0  0  0  0
  161.1070  206.7520  154.6430 N   0  0  0  0  0  0  0  0  0  0  0  0
  159.3210  211.4270  154.0370 C   0  0  0  0  0  1  0  0  0  0  0  0
  159.8590  210.6730  152.9140 N   0  0  0  0  0  0  0  0  0  0  0  0
  160.1670  211.6700  151.8990 C   0  0  0  0  0  1  0  0  0  0  0  0
  160.8570  204.7210  150.0500 C   0  0  1  0  0  3  0  0  0  0  0  0
  162.2050  205.8490  146.1230 C   0  0  0  0  0  3  0  0  0  0  0  0
  161.3030  204.1970  147.6460 C   0  0  0  0  0  3  0  0  0  0  0  0
  161.7390  204.5540  146.3660 C   0  0  0  0  0  0  0  0  0  0  0  0
  161.3210  205.1340  148.6850 C   0  0  0  0  0  0  0  0  0  0  0  0
  161.7900  206.4340  148.4360 C   0  0  0  0  0  3  0  0  0  0  0  0
  162.2320  206.7890  147.1570 C   0  0  0  0  0  3  0  0  0  0  0  0
  161.7190  203.5530  145.2670 C   0  0  0  0  0  1  0  0  0  0  0  0
  159.8900  202.5360  149.7540 O   0  0  0  0  0  1  0  0  0  0  0  0
  160.9910  203.2110  150.2860 C   0  0  2  0  0  3  0  0  0  0  0  0
  161.2050  202.8180  151.7510 C   0  0  0  0  0  2  0  0  0  0  0  0
  162.2430  201.8920  151.8750 O   0  0  0  0  0  1  0  0  0  0  0  0
  1  3  1  0  0  0  0
  2  3  2  0  0  0  0
  4  5  1  0  0  0  0
  4  8  1  0  0  0  0
  5  3  1  6  0  0  0
  5  7  1  0  0  0  0
  6 10  2  0  0  0  0
  7  9  1  0  0  0  0
  7 11  2  0  0  0  0
  8 13  1  6  0  0  0
  8  9  1  0  0  0  0
  9  6  1  0  0  0  0
 11 10  1  0  0  0  0
 13 12  1  0  0  0  0
 14 13  1  0  0  0  0
 15 24  1  0  0  0  0
 15  1  1  1  0  0  0
 16 18  2  0  0  0  0
 16 21  1  0  0  0  0
 17 19  2  0  0  0  0
 18 17  1  0  0  0  0
 19 15  1  0  0  0  0
 20 19  1  0  0  0  0
 21 20  2  0  0  0  0
 22 18  1  0  0  0  0
 24 23  1  1  0  0  0
 24 25  1  0  0  0  0
 25 26  1  0  0  0  0
M  END
>  <MODEL>
8

>  <REMARK>
 VINA RESULT:      -6.6      2.095      3.315
  Name = 
  6 active torsions:
  status: ('A' for Active; 'I' for Inactive)
    1  A    between atoms: C_5  and  C_26
    2  A    between atoms: C_6  and  C_16
    3  A    between atoms: C_6  and  C_18
    4  A    between atoms: N_8  and  C_10
    5  A    between atoms: N_12  and  C_16
    6  A    between atoms: C_15  and  C_16
                            x       y       z     vdW  Elec       q    Type
                         _______ _______ _______ _____ _____    ______ ____

>  <TORSDO>
F 6

$$$$
=
 OpenBabel11052411143D

 26 28  0  0  1  0  0  0  0  0999 V2000
  161.4540  207.3540  151.9930 N   0  0  0  0  0  2  0  0  0  0  0  0
  160.4620  206.8240  154.0410 O   0  0  0  0  0  0  0  0  0  0  0  0
  161.1280  207.6450  153.3550 C   0  0  0  0  0  0  0  0  0  0  0  0
  161.1410  210.3550  152.8600 S   0  0  0  0  0  0  0  0  0  0  0  0
  161.5570  208.9360  153.9690 C   0  0  1  0  0  3  0  0  0  0  0  0
  159.5760  210.4140  156.4460 N   0  0  0  0  0  0  0  0  0  0  0  0
  160.7800  209.2000  155.1920 C   0  0  0  0  0  0  0  0  0  0  0  0
  159.9410  211.1180  154.0530 C   0  0  2  0  0  3  0  0  0  0  0  0
  159.9950  210.2510  155.2090 N   0  0  0  0  0  0  0  0  0  0  0  0
  160.0900  209.4230  157.1710 N   0  0  0  0  0  0  0  0  0  0  0  0
  160.8660  208.6470  156.4130 N   0  0  0  0  0  0  0  0  0  0  0  0
  157.6840  211.7310  154.4520 C   0  0  0  0  0  1  0  0  0  0  0  0
  158.5890  211.1280  153.4830 N   0  0  0  0  0  0  0  0  0  0  0  0
  158.5820  212.0320  152.3420 C   0  0  0  0  0  1  0  0  0  0  0  0
  160.9480  206.1750  151.3010 C   0  0  1  0  0  3  0  0  0  0  0  0
  162.0860  206.1350  147.1520 C   0  0  0  0  0  3  0  0  0  0  0  0
  161.2030  205.0070  149.1050 C   0  0  0  0  0  3  0  0  0  0  0  0
  161.5700  204.9850  147.7550 C   0  0  0  0  0  0  0  0  0  0  0  0
  161.3410  206.1810  149.8540 C   0  0  0  0  0  0  0  0  0  0  0  0
  161.8590  207.3350  149.2430 C   0  0  0  0  0  3  0  0  0  0  0  0
  162.2320  207.3100  147.8950 C   0  0  0  0  0  3  0  0  0  0  0  0
  161.4230  203.7340  146.9650 C   0  0  0  0  0  1  0  0  0  0  0  0
  162.6960  204.5890  151.7790 O   0  0  0  0  0  1  0  0  0  0  0  0
  161.3490  204.8770  152.0140 C   0  0  2  0  0  3  0  0  0  0  0  0
  160.4730  203.6690  151.6640 C   0  0  0  0  0  2  0  0  0  0  0  0
  161.2390  202.5060  151.5670 O   0  0  0  0  0  1  0  0  0  0  0  0
  1  3  1  0  0  0  0
  3  2  2  0  0  0  0
  4  5  1  0  0  0  0
  4  8  1  0  0  0  0
  5  3  1  6  0  0  0
  5  7  1  0  0  0  0
  6 10  2  0  0  0  0
  7  9  1  0  0  0  0
  7 11  2  0  0  0  0
  8 13  1  6  0  0  0
  8  9  1  0  0  0  0
  9  6  1  0  0  0  0
 11 10  1  0  0  0  0
 13 12  1  0  0  0  0
 14 13  1  0  0  0  0
 15  1  1  1  0  0  0
 15 24  1  0  0  0  0
 16 18  2  0  0  0  0
 16 21  1  0  0  0  0
 17 19  2  0  0  0  0
 18 17  1  0  0  0  0
 19 15  1  0  0  0  0
 20 19  1  0  0  0  0
 21 20  2  0  0  0  0
 22 18  1  0  0  0  0
 24 23  1  6  0  0  0
 25 24  1  0  0  0  0
 26 25  1  0  0  0  0
M  END
>  <MODEL>
9

>  <REMARK>
 VINA RESULT:      -6.5      1.906      3.060
  Name = 
  6 active torsions:
  status: ('A' for Active; 'I' for Inactive)
    1  A    between atoms: C_5  and  C_26
    2  A    between atoms: C_6  and  C_16
    3  A    between atoms: C_6  and  C_18
    4  A    between atoms: N_8  and  C_10
    5  A    between atoms: N_12  and  C_16
    6  A    between atoms: C_15  and  C_16
                            x       y       z     vdW  Elec       q    Type
                         _______ _______ _______ _____ _____    ______ ____

>  <TORSDO>
F 6

$$$$
