=
 OpenBabel11052412123D

 56 63  0  0  1  0  0  0  0  0999 V2000
  161.3320  213.3830  144.7640 C   0  0  0  0  0  0  0  0  0  0  0  0
  162.5330  213.9470  142.7470 C   0  0  0  0  0  0  0  0  0  0  0  0
  163.6090  213.3910  144.9800 N   0  0  0  0  0  0  0  0  0  0  0  0
  160.0960  213.5310  144.1360 C   0  0  0  0  0  3  0  0  0  0  0  0
  161.3000  214.0920  142.0900 C   0  0  0  0  0  3  0  0  0  0  0  0
  163.0480  213.0500  146.2940 C   0  0  0  0  0  3  0  0  0  0  0  0
  161.5900  213.0650  146.1210 N   0  0  0  0  0  0  0  0  0  0  0  0
  160.0800  213.8880  142.7720 C   0  0  0  0  0  0  0  0  0  0  0  0
  162.5070  213.5900  144.1060 C   0  0  0  0  0  0  0  0  0  0  0  0
  159.8760  213.9020  147.6640 C   0  0  0  0  0  2  0  0  0  0  0  0
  160.5920  212.6580  147.1110 C   0  0  2  0  0  3  0  0  0  0  0  0
  160.4260  213.2900  150.0630 C   0  0  2  0  0  3  0  0  0  0  0  0
  161.2230  211.7850  148.2140 C   0  0  0  0  0  2  0  0  0  0  0  0
  159.3150  213.6510  149.0620 C   0  0  0  0  0  2  0  0  0  0  0  0
  161.6460  212.6310  149.4110 C   0  0  0  0  0  2  0  0  0  0  0  0
  159.8950  212.4070  151.0880 N   0  0  0  0  0  2  0  0  0  0  0  0
  158.9160  212.8230  152.0400 C   0  0  0  0  0  0  0  0  0  0  0  0
  158.4850  214.0090  152.0340 O   0  0  0  0  0  0  0  0  0  0  0  0
  161.6960  211.3790  155.8780 O   0  0  0  0  0  1  0  0  0  0  0  0
  160.2290  210.3340  154.2820 C   0  0  1  0  0  3  0  0  0  0  0  0
  160.9050  211.6280  154.7570 C   0  0  1  0  0  3  0  0  0  0  0  0
  159.9000  212.7400  155.0910 C   0  0  0  0  0  2  0  0  0  0  0  0
  158.5200  211.8690  153.1250 C   0  0  2  0  0  3  0  0  0  0  0  0
  158.4970  212.5020  154.5220 C   0  0  0  0  0  2  0  0  0  0  0  0
  159.3680  210.5940  153.0450 C   0  0  0  0  0  2  0  0  0  0  0  0
  161.4380  209.0530  153.8640 S   0  0  2  0  0  3  0  0  0  0  0  0
  160.8460  208.3680  152.6420 O   0  0  0  0  0  1  0  0  0  0  0  0
  161.2750  207.8660  155.1120 O   0  0  0  0  0  0  0  0  0  0  0  0
  159.3350  207.2320  156.2010 O   0  0  0  0  0  0  0  0  0  0  0  0
  160.1310  207.0780  155.2370 C   0  0  0  0  0  3  0  0  0  0  0  0
  158.8080  214.1010  142.0610 C   0  0  0  0  0  0  0  0  0  0  0  0
  157.2400  214.2650  140.5220 C   0  0  0  0  0  0  0  0  0  0  0  0
  158.6530  214.0280  140.7460 C   0  0  0  0  0  3  0  0  0  0  0  0
  156.6280  214.2650  139.2390 N   0  0  0  0  0  1  0  0  0  0  0  0
  156.5730  214.4500  141.6080 N   0  0  0  0  0  0  0  0  0  0  0  0
  157.4970  214.3690  142.7270 C   0  0  0  0  0  2  0  0  0  0  0  0
  163.7470  214.1820  142.0220 N   0  0  0  0  0  2  0  0  0  0  0  0
  163.7980  214.4250  140.5880 C   0  0  0  0  0  2  0  0  0  0  0  0
  162.3090  213.3370  138.8530 C   0  0  0  0  0  0  0  0  0  0  0  0
  163.3120  213.2580  139.8680 N   0  0  0  0  0  2  0  0  0  0  0  0
  161.7770  214.4420  138.5660 O   0  0  0  0  0  0  0  0  0  0  0  0
  160.4820  211.6270  138.6700 C   0  0  2  0  0  3  0  0  0  0  0  0
  162.1130  209.5650  138.3160 C   0  0  0  0  0  2  0  0  0  0  0  0
  161.8420  212.0990  138.1460 C   0  0  2  0  0  3  0  0  0  0  0  0
  160.4060  207.7670  137.7870 C   0  0  0  0  0  2  0  0  0  0  0  0
  158.6550  212.0460  137.0200 C   0  0  0  0  0  2  0  0  0  0  0  0
  161.7540  210.8630  139.0460 C   0  0  1  0  0  0  0  0  0  0  0  0
  159.5440  208.7700  137.0120 C   0  0  0  0  0  2  0  0  0  0  0  0
  156.7280  209.3810  138.6210 C   0  0  0  0  0  1  0  0  0  0  0  0
  159.0110  209.8110  137.8840 N   0  0  2  0  0  0  0  0  0  0  0  0
  161.2860  208.4040  138.8620 C   0  0  0  0  0  2  0  0  0  0  0  0
  157.6030  209.9880  137.5440 C   0  0  2  0  0  3  0  0  0  0  0  0
  157.3370  211.4700  137.4450 C   0  0  0  0  0  2  0  0  0  0  0  0
  159.6940  211.0460  137.4960 C   0  0  2  0  0  3  0  0  0  0  0  0
  161.0530  210.7670  141.4710 C   0  0  0  0  0  1  0  0  0  0  0  0
  162.1970  211.0210  140.5050 C   0  0  0  0  0  2  0  0  0  0  0  0
  1  7  1  0  0  0  0
  2  9  1  0  0  0  0
  3  6  2  0  0  0  0
  4  1  1  0  0  0  0
  5  2  2  0  0  0  0
  5  8  1  0  0  0  0
  7  6  1  0  0  0  0
  7 11  1  0  0  0  0
  8  4  2  0  0  0  0
  9  1  2  0  0  0  0
  9  3  1  0  0  0  0
 10 14  1  0  0  0  0
 11 10  1  0  0  0  0
 11 13  1  0  0  0  0
 12 16  1  0  0  0  0
 13 15  1  0  0  0  0
 14 12  1  0  0  0  0
 15 12  1  0  0  0  0
 16 17  1  0  0  0  0
 18 17  2  0  0  0  0
 20 26  1  6  0  0  0
 20 21  1  0  0  0  0
 21 22  1  0  0  0  0
 21 19  1  1  0  0  0
 23 17  1  6  0  0  0
 23 24  1  0  0  0  0
 24 22  1  0  0  0  0
 25 23  1  0  0  0  0
 25 20  1  0  0  0  0
 26 27  1  6  0  0  0
 26 28  1  0  0  0  0
 28 30  1  0  0  0  0
 30 29  2  0  0  0  0
 31 36  1  0  0  0  0
 31  8  1  0  0  0  0
 32 33  1  0  0  0  0
 32 35  2  0  0  0  0
 33 31  2  0  0  0  0
 34 32  1  0  0  0  0
 35 36  1  0  0  0  0
 37  2  1  0  0  0  0
 38 37  1  0  0  0  0
 39 40  1  0  0  0  0
 40 38  1  0  0  0  0
 41 39  2  0  0  0  0
 42 47  1  0  0  0  0
 43 51  1  0  0  0  0
 43 47  1  0  0  0  0
 44 42  1  0  0  0  0
 44 39  1  0  0  0  0
 44 47  1  0  0  0  0
 45 51  1  0  0  0  0
 46 53  1  0  0  0  0
 46 54  1  0  0  0  0
 47 56  1  0  0  0  0
 48 45  1  0  0  0  0
 48 50  1  0  0  0  0
 52 50  1  0  0  0  0
 52 49  1  0  0  0  0
 53 52  1  0  0  0  0
 54 50  1  0  0  0  0
 54 42  1  0  0  0  0
 56 55  1  0  0  0  0
M  END
>  <MODEL>
1

>  <REMARK>
 VINA RESULT:      -5.0      0.000      0.000
  Name = 
  12 active torsions:
  status: ('A' for Active; 'I' for Inactive)
    1  A    between atoms: N_3  and  C_32
    2  A    between atoms: C_4  and  C_26
    3  A    between atoms: C_5  and  C_22
    4  A    between atoms: N_8  and  C_46
    5  A    between atoms: C_9  and  S_21
    6  A    between atoms: C_11  and  C_42
    7  A    between atoms: C_13  and  N_17
    8  A    between atoms: N_17  and  C_46
    9  A    between atoms: C_18  and  O_56
   10  A    between atoms: S_21  and  O_56
   11  A    between atoms: C_29  and  N_39
   12  A    between atoms: C_31  and  C_40
                            x       y       z     vdW  Elec       q    Type
                         _______ _______ _______ _____ _____    ______ ____

>  <TORSDO>
F 12

$$$$
=
 OpenBabel11052412123D

 56 63  0  0  1  0  0  0  0  0999 V2000
  161.5750  210.0010  151.1200 C   0  0  0  0  0  0  0  0  0  0  0  0
  161.7160  208.1370  152.6480 C   0  0  0  0  0  0  0  0  0  0  0  0
  162.5270  208.1160  150.2410 N   0  0  0  0  0  0  0  0  0  0  0  0
  160.9550  210.8070  152.0730 C   0  0  0  0  0  3  0  0  0  0  0  0
  161.1020  208.9330  153.6280 C   0  0  0  0  0  3  0  0  0  0  0  0
  162.5060  209.1300  149.1780 C   0  0  0  0  0  3  0  0  0  0  0  0
  161.8800  210.3180  149.7720 N   0  0  0  0  0  0  0  0  0  0  0  0
  160.7180  210.2640  153.3530 C   0  0  0  0  0  0  0  0  0  0  0  0
  161.9350  208.7140  151.3860 C   0  0  0  0  0  0  0  0  0  0  0  0
  160.5600  212.3850  149.7720 C   0  0  0  0  0  2  0  0  0  0  0  0
  161.7530  211.6370  149.1530 C   0  0  2  0  0  3  0  0  0  0  0  0
  159.4940  212.7900  147.5060 C   0  0  2  0  0  3  0  0  0  0  0  0
  161.6640  211.5260  147.6170 C   0  0  0  0  0  2  0  0  0  0  0  0
  159.9930  213.4300  148.8120 C   0  0  0  0  0  2  0  0  0  0  0  0
  160.2120  211.4840  147.1510 C   0  0  0  0  0  2  0  0  0  0  0  0
  159.6430  213.7320  146.4090 N   0  0  0  0  0  2  0  0  0  0  0  0
  159.1740  213.4640  145.0870 C   0  0  0  0  0  0  0  0  0  0  0  0
  158.6210  212.3620  144.8180 O   0  0  0  0  0  0  0  0  0  0  0  0
  160.5660  212.4410  140.4440 O   0  0  0  0  0  1  0  0  0  0  0  0
  161.2240  213.9770  142.1750 C   0  0  1  0  0  3  0  0  0  0  0  0
  160.3140  212.8110  141.7640 C   0  0  1  0  0  3  0  0  0  0  0  0
  158.8210  213.1340  141.9170 C   0  0  0  0  0  2  0  0  0  0  0  0
  159.4800  214.4530  144.0040 C   0  0  2  0  0  3  0  0  0  0  0  0
  158.5360  214.3550  142.7990 C   0  0  0  0  0  2  0  0  0  0  0  0
  160.9640  214.3830  143.6260 C   0  0  0  0  0  2  0  0  0  0  0  0
  162.9770  213.5560  142.0150 S   0  0  2  0  0  3  0  0  0  0  0  0
  163.6370  214.2630  143.1890 O   0  0  0  0  0  1  0  0  0  0  0  0
  163.5260  214.4530  140.6420 O   0  0  0  0  0  0  0  0  0  0  0  0
  163.7550  214.2440  138.3500 O   0  0  0  0  0  0  0  0  0  0  0  0
  164.0320  213.8250  139.5040 C   0  0  0  0  0  3  0  0  0  0  0  0
  160.0290  211.0500  154.3920 C   0  0  0  0  0  0  0  0  0  0  0  0
  158.5650  212.2410  155.5280 C   0  0  0  0  0  0  0  0  0  0  0  0
  158.8470  211.6300  154.2440 C   0  0  0  0  0  3  0  0  0  0  0  0
  157.3790  212.9660  155.8200 N   0  0  0  0  0  1  0  0  0  0  0  0
  159.4880  212.0400  156.4040 N   0  0  0  0  0  0  0  0  0  0  0  0
  160.5400  211.2540  155.7810 C   0  0  0  0  0  2  0  0  0  0  0  0
  162.0730  206.7840  152.9640 N   0  0  0  0  0  2  0  0  0  0  0  0
  161.1610  205.6580  152.8380 C   0  0  0  0  0  2  0  0  0  0  0  0
  161.1370  204.9500  150.4060 C   0  0  0  0  0  0  0  0  0  0  0  0
  161.5900  204.7890  151.7530 N   0  0  0  0  0  2  0  0  0  0  0  0
  160.3050  205.8510  150.1170 O   0  0  0  0  0  0  0  0  0  0  0  0
  160.5990  203.9270  148.1790 C   0  0  2  0  0  3  0  0  0  0  0  0
  161.5620  201.5280  148.7750 C   0  0  0  0  0  2  0  0  0  0  0  0
  161.6090  204.0210  149.3280 C   0  0  2  0  0  3  0  0  0  0  0  0
  161.3890  200.4300  146.4970 C   0  0  0  0  0  2  0  0  0  0  0  0
  161.4100  205.1020  146.1320 C   0  0  0  0  0  2  0  0  0  0  0  0
  160.7470  202.7660  149.1660 C   0  0  1  0  0  0  0  0  0  0  0  0
  161.7670  201.7430  145.8020 C   0  0  0  0  0  2  0  0  0  0  0  0
  159.1900  202.9760  144.1480 C   0  0  0  0  0  1  0  0  0  0  0  0
  160.7550  202.7730  146.0060 N   0  0  2  0  0  0  0  0  0  0  0  0
  160.7380  200.6180  147.8670 C   0  0  0  0  0  2  0  0  0  0  0  0
  160.5220  203.4200  144.7190 C   0  0  2  0  0  3  0  0  0  0  0  0
  160.5070  204.9110  144.9490 C   0  0  0  0  0  2  0  0  0  0  0  0
  161.3760  203.7770  146.8720 C   0  0  2  0  0  3  0  0  0  0  0  0
  160.0420  202.1210  151.5050 C   0  0  0  0  0  1  0  0  0  0  0  0
  159.5740  202.5860  150.1360 C   0  0  0  0  0  2  0  0  0  0  0  0
  1  9  2  0  0  0  0
  1  4  1  0  0  0  0
  2 37  1  0  0  0  0
  2  5  2  0  0  0  0
  3  9  1  0  0  0  0
  4  8  2  0  0  0  0
  6  7  1  0  0  0  0
  6  3  2  0  0  0  0
  7  1  1  0  0  0  0
  8  5  1  0  0  0  0
  8 31  1  0  0  0  0
  9  2  1  0  0  0  0
 11 10  1  0  0  0  0
 11  7  1  0  0  0  0
 12 14  1  0  0  0  0
 13 11  1  0  0  0  0
 14 10  1  0  0  0  0
 15 12  1  0  0  0  0
 15 13  1  0  0  0  0
 16 12  1  0  0  0  0
 17 16  1  0  0  0  0
 18 17  2  0  0  0  0
 20 26  1  1  0  0  0
 20 25  1  0  0  0  0
 21 19  1  6  0  0  0
 21 22  1  0  0  0  0
 21 20  1  0  0  0  0
 22 24  1  0  0  0  0
 23 17  1  1  0  0  0
 24 23  1  0  0  0  0
 25 23  1  0  0  0  0
 26 27  1  1  0  0  0
 28 26  1  0  0  0  0
 29 30  2  0  0  0  0
 30 28  1  0  0  0  0
 31 36  1  0  0  0  0
 32 34  1  0  0  0  0
 32 35  2  0  0  0  0
 33 31  2  0  0  0  0
 33 32  1  0  0  0  0
 36 35  1  0  0  0  0
 38 37  1  0  0  0  0
 39 40  1  0  0  0  0
 40 38  1  0  0  0  0
 41 39  2  0  0  0  0
 42 47  1  0  0  0  0
 42 44  1  0  0  0  0
 43 47  1  0  0  0  0
 44 39  1  0  0  0  0
 45 51  1  0  0  0  0
 46 54  1  0  0  0  0
 47 44  1  0  0  0  0
 47 56  1  0  0  0  0
 48 50  1  0  0  0  0
 48 45  1  0  0  0  0
 49 52  1  0  0  0  0
 50 54  1  0  0  0  0
 51 43  1  0  0  0  0
 52 53  1  0  0  0  0
 52 50  1  0  0  0  0
 53 46  1  0  0  0  0
 54 42  1  0  0  0  0
 56 55  1  0  0  0  0
M  END
>  <MODEL>
2

>  <REMARK>
 VINA RESULT:      -3.5      5.351     11.695
  Name = 
  12 active torsions:
  status: ('A' for Active; 'I' for Inactive)
    1  A    between atoms: N_3  and  C_32
    2  A    between atoms: C_4  and  C_26
    3  A    between atoms: C_5  and  C_22
    4  A    between atoms: N_8  and  C_46
    5  A    between atoms: C_9  and  S_21
    6  A    between atoms: C_11  and  C_42
    7  A    between atoms: C_13  and  N_17
    8  A    between atoms: N_17  and  C_46
    9  A    between atoms: C_18  and  O_56
   10  A    between atoms: S_21  and  O_56
   11  A    between atoms: C_29  and  N_39
   12  A    between atoms: C_31  and  C_40
                            x       y       z     vdW  Elec       q    Type
                         _______ _______ _______ _____ _____    ______ ____

>  <TORSDO>
F 12

$$$$
=
 OpenBabel11052412123D

 56 63  0  0  1  0  0  0  0  0999 V2000
  161.5690  205.3650  147.2920 C   0  0  0  0  0  0  0  0  0  0  0  0
  161.0250  205.1450  144.9500 C   0  0  0  0  0  0  0  0  0  0  0  0
  161.3290  207.3480  146.1780 N   0  0  0  0  0  0  0  0  0  0  0  0
  161.5810  203.9830  147.4760 C   0  0  0  0  0  3  0  0  0  0  0  0
  161.0410  203.7500  145.1090 C   0  0  0  0  0  3  0  0  0  0  0  0
  161.6370  207.6690  147.5780 C   0  0  0  0  0  3  0  0  0  0  0  0
  161.7720  206.3780  148.2630 N   0  0  0  0  0  0  0  0  0  0  0  0
  161.3160  203.1600  146.3620 C   0  0  0  0  0  0  0  0  0  0  0  0
  161.2930  205.9310  146.0840 C   0  0  0  0  0  0  0  0  0  0  0  0
  161.3260  205.0920  150.3040 C   0  0  0  0  0  2  0  0  0  0  0  0
  162.2080  206.1660  149.6440 C   0  0  2  0  0  3  0  0  0  0  0  0
  160.7140  206.6200  152.2330 C   0  0  2  0  0  3  0  0  0  0  0  0
  162.2330  207.4920  150.4300 C   0  0  0  0  0  2  0  0  0  0  0  0
  161.2880  205.2530  151.8220 C   0  0  0  0  0  2  0  0  0  0  0  0
  160.9230  207.7130  151.1800 C   0  0  0  0  0  2  0  0  0  0  0  0
  161.3100  207.0450  153.4890 N   0  0  0  0  0  2  0  0  0  0  0  0
  160.6970  206.8100  154.7580 C   0  0  0  0  0  0  0  0  0  0  0  0
  159.5790  206.2280  154.8270 O   0  0  0  0  0  0  0  0  0  0  0  0
  159.2210  210.8220  157.2610 O   0  0  0  0  0  1  0  0  0  0  0  0
  161.3060  209.9130  156.4730 C   0  0  1  0  0  3  0  0  0  0  0  0
  159.7780  209.7690  156.5350 C   0  0  1  0  0  3  0  0  0  0  0  0
  159.3260  208.4400  157.1550 C   0  0  0  0  0  2  0  0  0  0  0  0
  161.3380  207.3890  155.9820 C   0  0  2  0  0  3  0  0  0  0  0  0
  160.4280  207.3760  157.2160 C   0  0  0  0  0  2  0  0  0  0  0  0
  161.9260  208.7700  155.6690 C   0  0  0  0  0  2  0  0  0  0  0  0
  161.8080  211.4750  155.7090 S   0  0  2  0  0  3  0  0  0  0  0  0
  161.6970  212.4920  156.8350 O   0  0  0  0  0  1  0  0  0  0  0  0
  160.5020  211.8940  154.6550 O   0  0  0  0  0  0  0  0  0  0  0  0
  160.4970  212.1120  152.3520 O   0  0  0  0  0  0  0  0  0  0  0  0
  160.3970  211.3720  153.3660 C   0  0  0  0  0  3  0  0  0  0  0  0
  161.2730  201.6940  146.4990 C   0  0  0  0  0  0  0  0  0  0  0  0
  161.1660  199.5290  146.1030 C   0  0  0  0  0  0  0  0  0  0  0  0
  161.0910  200.8440  145.4980 C   0  0  0  0  0  3  0  0  0  0  0  0
  161.0350  198.3130  145.3810 N   0  0  0  0  0  1  0  0  0  0  0  0
  161.3940  199.5610  147.3710 N   0  0  0  0  0  0  0  0  0  0  0  0
  161.4880  200.9530  147.7790 C   0  0  0  0  0  2  0  0  0  0  0  0
  160.7220  205.7020  143.6640 N   0  0  0  0  0  2  0  0  0  0  0  0
  161.6490  205.6980  142.5430 C   0  0  0  0  0  2  0  0  0  0  0  0
  162.3290  207.2940  140.6970 C   0  0  0  0  0  0  0  0  0  0  0  0
  161.7590  207.0360  141.9830 N   0  0  0  0  0  2  0  0  0  0  0  0
  162.7960  206.3500  140.0060 O   0  0  0  0  0  0  0  0  0  0  0  0
  161.0540  209.3900  140.1700 C   0  0  2  0  0  3  0  0  0  0  0  0
  162.3770  209.9220  137.9320 C   0  0  0  0  0  2  0  0  0  0  0  0
  162.4200  208.6960  140.1720 C   0  0  2  0  0  3  0  0  0  0  0  0
  161.4240  212.2140  137.4180 C   0  0  0  0  0  2  0  0  0  0  0  0
  160.8960  211.1350  141.9470 C   0  0  0  0  0  2  0  0  0  0  0  0
  161.6760  208.9170  138.8530 C   0  0  1  0  0  0  0  0  0  0  0  0
  161.3850  212.5660  138.9080 C   0  0  0  0  0  2  0  0  0  0  0  0
  158.2710  212.7600  139.9850 C   0  0  0  0  0  1  0  0  0  0  0  0
  160.4480  211.7200  139.6390 N   0  0  2  0  0  0  0  0  0  0  0  0
  161.3460  210.7140  137.1310 C   0  0  0  0  0  2  0  0  0  0  0  0
  159.6770  212.5860  140.5250 C   0  0  2  0  0  3  0  0  0  0  0  0
  159.6230  211.9270  141.8810 C   0  0  0  0  0  2  0  0  0  0  0  0
  161.2690  210.8670  140.5000 C   0  0  2  0  0  3  0  0  0  0  0  0
  161.7770  207.1800  137.0210 C   0  0  0  0  0  1  0  0  0  0  0  0
  160.9950  207.7010  138.2150 C   0  0  0  0  0  2  0  0  0  0  0  0
  1  4  1  0  0  0  0
  1  7  1  0  0  0  0
  2  5  2  0  0  0  0
  2  9  1  0  0  0  0
  3  6  2  0  0  0  0
  5  8  1  0  0  0  0
  6  7  1  0  0  0  0
  7 11  1  0  0  0  0
  8 31  1  0  0  0  0
  8  4  2  0  0  0  0
  9  3  1  0  0  0  0
  9  1  2  0  0  0  0
 10 14  1  0  0  0  0
 11 10  1  0  0  0  0
 11 13  1  0  0  0  0
 12 16  1  0  0  0  0
 13 15  1  0  0  0  0
 14 12  1  0  0  0  0
 15 12  1  0  0  0  0
 16 17  1  0  0  0  0
 17 18  2  0  0  0  0
 20 26  1  6  0  0  0
 20 21  1  0  0  0  0
 21 22  1  0  0  0  0
 21 19  1  1  0  0  0
 22 24  1  0  0  0  0
 23 17  1  6  0  0  0
 23 24  1  0  0  0  0
 25 23  1  0  0  0  0
 25 20  1  0  0  0  0
 26 27  1  1  0  0  0
 28 26  1  0  0  0  0
 29 30  2  0  0  0  0
 30 28  1  0  0  0  0
 31 36  1  0  0  0  0
 32 35  2  0  0  0  0
 33 32  1  0  0  0  0
 33 31  2  0  0  0  0
 34 32  1  0  0  0  0
 35 36  1  0  0  0  0
 37  2  1  0  0  0  0
 38 37  1  0  0  0  0
 39 40  1  0  0  0  0
 40 38  1  0  0  0  0
 41 39  2  0  0  0  0
 42 44  1  0  0  0  0
 42 54  1  0  0  0  0
 43 47  1  0  0  0  0
 44 39  1  0  0  0  0
 45 48  1  0  0  0  0
 47 42  1  0  0  0  0
 47 44  1  0  0  0  0
 48 50  1  0  0  0  0
 49 52  1  0  0  0  0
 50 54  1  0  0  0  0
 50 52  1  0  0  0  0
 51 45  1  0  0  0  0
 51 43  1  0  0  0  0
 52 53  1  0  0  0  0
 53 46  1  0  0  0  0
 54 46  1  0  0  0  0
 55 56  1  0  0  0  0
 56 47  1  0  0  0  0
M  END
>  <MODEL>
3

>  <REMARK>
 VINA RESULT:      -2.9      5.466      7.847
  Name = 
  12 active torsions:
  status: ('A' for Active; 'I' for Inactive)
    1  A    between atoms: N_3  and  C_32
    2  A    between atoms: C_4  and  C_26
    3  A    between atoms: C_5  and  C_22
    4  A    between atoms: N_8  and  C_46
    5  A    between atoms: C_9  and  S_21
    6  A    between atoms: C_11  and  C_42
    7  A    between atoms: C_13  and  N_17
    8  A    between atoms: N_17  and  C_46
    9  A    between atoms: C_18  and  O_56
   10  A    between atoms: S_21  and  O_56
   11  A    between atoms: C_29  and  N_39
   12  A    between atoms: C_31  and  C_40
                            x       y       z     vdW  Elec       q    Type
                         _______ _______ _______ _____ _____    ______ ____

>  <TORSDO>
F 12

$$$$
