=
 OpenBabel11052411143D

 26 29  0  0  1  0  0  0  0  0999 V2000
  162.2220  208.9800  151.5280 C   0  0  0  0  0  2  0  0  0  0  0  0
  160.9440  208.2350  151.8430 C   0  0  1  0  0  3  0  0  0  0  0  0
  160.9440  206.9060  151.1250 C   0  0  0  0  0  0  0  0  0  0  0  0
  161.3360  207.8250  148.7830 C   0  0  0  0  0  3  0  0  0  0  0  0
  162.8860  210.9130  150.3360 O   0  0  0  0  0  1  0  0  0  0  0  0
  161.1200  208.1860  156.1190 C   0  0  0  0  0  2  0  0  0  0  0  0
  161.1130  205.7630  153.2900 C   0  0  0  0  0  3  0  0  0  0  0  0
  161.0120  206.8910  153.9810 C   0  0  0  0  0  0  0  0  0  0  0  0
  160.7520  208.1310  153.2940 N   0  0  0  0  0  0  0  0  0  0  0  0
  161.0180  205.7420  151.8190 C   0  0  0  0  0  0  0  0  0  0  0  0
  162.4980  209.7050  148.0320 O   0  0  0  0  0  0  0  0  0  0  0  0
  161.9790  209.1340  149.0280 C   0  0  0  0  0  0  0  0  0  0  0  0
  160.9110  206.8930  149.6460 C   0  0  0  0  0  3  0  0  0  0  0  0
  160.9960  206.8100  155.4790 C   0  0  0  0  0  2  0  0  0  0  0  0
  160.5310  209.3810  154.0310 C   0  0  0  0  0  2  0  0  0  0  0  0
  160.1200  209.1330  155.4810 C   0  0  2  0  0  3  0  0  0  0  0  0
  161.9530  209.8730  150.3400 C   0  0  1  0  0  3  0  0  0  0  0  0
  161.0290  204.4050  151.1710 C   0  0  0  0  0  0  0  0  0  0  0  0
  161.1700  202.9500  147.7480 N   0  0  0  0  0  1  0  0  0  0  0  0
  161.1020  201.9880  151.2860 C   0  0  0  0  0  3  0  0  0  0  0  0
  161.0800  204.3090  149.7730 C   0  0  0  0  0  3  0  0  0  0  0  0
  161.1360  201.9260  149.9280 N   0  0  0  0  0  0  0  0  0  0  0  0
  161.1280  203.0520  149.1660 C   0  0  0  0  0  0  0  0  0  0  0  0
  161.0540  203.2270  151.9300 C   0  0  0  0  0  3  0  0  0  0  0  0
  160.1060  210.4430  156.2460 C   0  0  0  0  0  2  0  0  0  0  0  0
  160.7710  211.4790  155.4730 N   0  0  0  0  0  1  0  0  0  0  0  0
  2  1  1  1  0  0  0
  2  9  1  0  0  0  0
  3 10  2  0  0  0  0
  3  2  1  0  0  0  0
  4 12  1  0  0  0  0
  4 13  2  0  0  0  0
  7  8  2  0  0  0  0
  8 14  1  0  0  0  0
  9  8  1  0  0  0  0
  9 15  1  0  0  0  0
 10  7  1  0  0  0  0
 11 12  2  0  0  0  0
 12 17  1  0  0  0  0
 13  3  1  0  0  0  0
 14  6  1  0  0  0  0
 15 16  1  0  0  0  0
 16  6  1  0  0  0  0
 16 25  1  1  0  0  0
 17  5  1  6  0  0  0
 17  1  1  0  0  0  0
 18 10  1  0  0  0  0
 18 24  1  0  0  0  0
 19 23  1  0  0  0  0
 20 24  2  0  0  0  0
 21 18  2  0  0  0  0
 22 20  1  0  0  0  0
 23 21  1  0  0  0  0
 23 22  2  0  0  0  0
 26 25  1  0  0  0  0
M  END
>  <MODEL>
1

>  <REMARK>
 VINA RESULT:      -8.4      0.000      0.000
  Name = 
  2 active torsions:
  status: ('A' for Active; 'I' for Inactive)
    1  A    between atoms: C_1  and  C_18
    2  A    between atoms: C_16  and  C_25
                            x       y       z     vdW  Elec       q    Type
                         _______ _______ _______ _____ _____    ______ ____

>  <TORSDO>
F 2

$$$$
=
 OpenBabel11052411143D

 26 29  0  0  1  0  0  0  0  0999 V2000
  160.4700  208.9440  152.4450 C   0  0  0  0  0  2  0  0  0  0  0  0
  161.6630  208.3090  151.7660 C   0  0  1  0  0  3  0  0  0  0  0  0
  161.5290  206.8050  151.8140 C   0  0  0  0  0  0  0  0  0  0  0  0
  161.2460  206.6050  154.3370 C   0  0  0  0  0  3  0  0  0  0  0  0
  160.0160  210.1870  154.4060 O   0  0  0  0  0  1  0  0  0  0  0  0
  161.4620  210.2020  147.9340 C   0  0  0  0  0  2  0  0  0  0  0  0
  161.2320  206.7770  149.3780 C   0  0  0  0  0  3  0  0  0  0  0  0
  161.4450  208.0810  149.2590 C   0  0  0  0  0  0  0  0  0  0  0  0
  161.8360  208.8510  150.4140 N   0  0  0  0  0  0  0  0  0  0  0  0
  161.3310  206.0880  150.6780 C   0  0  0  0  0  0  0  0  0  0  0  0
  160.2880  208.0430  155.9060 O   0  0  0  0  0  0  0  0  0  0  0  0
  160.7400  207.9360  154.7350 C   0  0  0  0  0  0  0  0  0  0  0  0
  161.5680  206.1260  153.1280 C   0  0  0  0  0  3  0  0  0  0  0  0
  161.4460  208.6810  147.8850 C   0  0  0  0  0  2  0  0  0  0  0  0
  162.1810  210.2730  150.3020 C   0  0  0  0  0  2  0  0  0  0  0  0
  162.5570  210.6670  148.8750 C   0  0  2  0  0  3  0  0  0  0  0  0
  160.8360  209.1810  153.8910 C   0  0  1  0  0  3  0  0  0  0  0  0
  161.1860  204.6100  150.6620 C   0  0  0  0  0  0  0  0  0  0  0  0
  160.5660  201.8810  148.2070 N   0  0  0  0  0  1  0  0  0  0  0  0
  161.2550  202.4560  151.7630 C   0  0  0  0  0  3  0  0  0  0  0  0
  160.9320  203.9480  149.4520 C   0  0  0  0  0  3  0  0  0  0  0  0
  160.9930  201.8430  150.5780 N   0  0  0  0  0  0  0  0  0  0  0  0
  160.8330  202.5550  149.4310 C   0  0  0  0  0  0  0  0  0  0  0  0
  161.3620  203.8470  151.8250 C   0  0  0  0  0  3  0  0  0  0  0  0
  162.7030  212.1740  148.7760 C   0  0  0  0  0  2  0  0  0  0  0  0
  162.5440  212.5990  147.3950 N   0  0  0  0  0  1  0  0  0  0  0  0
  1 17  1  0  0  0  0
  2  3  1  0  0  0  0
  2  1  1  6  0  0  0
  3 13  1  0  0  0  0
  4 12  1  0  0  0  0
  6 16  1  0  0  0  0
  7 10  1  0  0  0  0
  8  7  2  0  0  0  0
  8  9  1  0  0  0  0
  9  2  1  0  0  0  0
 10  3  2  0  0  0  0
 12 11  2  0  0  0  0
 13  4  2  0  0  0  0
 14  6  1  0  0  0  0
 14  8  1  0  0  0  0
 15  9  1  0  0  0  0
 16 25  1  1  0  0  0
 16 15  1  0  0  0  0
 17  5  1  1  0  0  0
 17 12  1  0  0  0  0
 18 10  1  0  0  0  0
 18 24  1  0  0  0  0
 19 23  1  0  0  0  0
 20 24  2  0  0  0  0
 21 18  2  0  0  0  0
 22 20  1  0  0  0  0
 23 21  1  0  0  0  0
 23 22  2  0  0  0  0
 26 25  1  0  0  0  0
M  END
>  <MODEL>
2

>  <REMARK>
 VINA RESULT:      -8.1      2.521      4.758
  Name = 
  2 active torsions:
  status: ('A' for Active; 'I' for Inactive)
    1  A    between atoms: C_1  and  C_18
    2  A    between atoms: C_16  and  C_25
                            x       y       z     vdW  Elec       q    Type
                         _______ _______ _______ _____ _____    ______ ____

>  <TORSDO>
F 2

$$$$
=
 OpenBabel11052411143D

 26 29  0  0  1  0  0  0  0  0999 V2000
  162.2830  208.9660  151.3070 C   0  0  0  0  0  2  0  0  0  0  0  0
  161.0140  208.1580  151.4550 C   0  0  1  0  0  3  0  0  0  0  0  0
  161.0340  207.0040  150.4800 C   0  0  0  0  0  0  0  0  0  0  0  0
  161.4230  208.3880  148.3780 C   0  0  0  0  0  3  0  0  0  0  0  0
  162.9260  211.1110  150.5410 O   0  0  0  0  0  1  0  0  0  0  0  0
  161.1740  207.2360  155.6300 C   0  0  0  0  0  2  0  0  0  0  0  0
  161.2100  205.4430  152.3660 C   0  0  0  0  0  3  0  0  0  0  0  0
  161.0920  206.4050  153.2730 C   0  0  0  0  0  0  0  0  0  0  0  0
  160.8180  207.7560  152.8520 N   0  0  0  0  0  0  0  0  0  0  0  0
  161.1210  205.7230  150.9210 C   0  0  0  0  0  0  0  0  0  0  0  0
  162.5630  210.3960  148.0350 O   0  0  0  0  0  0  0  0  0  0  0  0
  162.0480  209.6270  148.8900 C   0  0  0  0  0  0  0  0  0  0  0  0
  161.0070  207.2940  149.0290 C   0  0  0  0  0  3  0  0  0  0  0  0
  161.0710  206.0190  154.7220 C   0  0  0  0  0  2  0  0  0  0  0  0
  160.5780  208.8250  153.8280 C   0  0  0  0  0  2  0  0  0  0  0  0
  160.1640  208.2810  155.1930 C   0  0  2  0  0  3  0  0  0  0  0  0
  162.0070  210.0810  150.3260 C   0  0  1  0  0  3  0  0  0  0  0  0
  161.1520  204.5480  150.0120 C   0  0  0  0  0  0  0  0  0  0  0  0
  160.3300  200.9190  150.0930 N   0  0  0  0  0  1  0  0  0  0  0  0
  161.5030  203.5570  147.8320 C   0  0  0  0  0  3  0  0  0  0  0  0
  160.7420  203.2920  150.4820 C   0  0  0  0  0  3  0  0  0  0  0  0
  161.1150  202.3490  148.3200 N   0  0  0  0  0  0  0  0  0  0  0  0
  160.7360  202.1960  149.6170 C   0  0  0  0  0  0  0  0  0  0  0  0
  161.5230  204.6770  148.6660 C   0  0  0  0  0  3  0  0  0  0  0  0
  160.1300  209.4060  156.2110 C   0  0  0  0  0  2  0  0  0  0  0  0
  159.2250  210.4530  155.7660 N   0  0  0  0  0  1  0  0  0  0  0  0
  2  1  1  1  0  0  0
  2  9  1  0  0  0  0
  3 10  2  0  0  0  0
  3  2  1  0  0  0  0
  4 12  1  0  0  0  0
  4 13  2  0  0  0  0
  7  8  2  0  0  0  0
  8 14  1  0  0  0  0
  9  8  1  0  0  0  0
  9 15  1  0  0  0  0
 10  7  1  0  0  0  0
 11 12  2  0  0  0  0
 12 17  1  0  0  0  0
 13  3  1  0  0  0  0
 14  6  1  0  0  0  0
 15 16  1  0  0  0  0
 16  6  1  0  0  0  0
 16 25  1  1  0  0  0
 17  5  1  6  0  0  0
 17  1  1  0  0  0  0
 18 21  1  0  0  0  0
 18 10  1  0  0  0  0
 20 22  2  0  0  0  0
 20 24  1  0  0  0  0
 22 23  1  0  0  0  0
 23 19  1  0  0  0  0
 23 21  2  0  0  0  0
 24 18  2  0  0  0  0
 26 25  1  0  0  0  0
M  END
>  <MODEL>
3

>  <REMARK>
 VINA RESULT:      -7.8      0.900      1.497
  Name = 
  2 active torsions:
  status: ('A' for Active; 'I' for Inactive)
    1  A    between atoms: C_1  and  C_18
    2  A    between atoms: C_16  and  C_25
                            x       y       z     vdW  Elec       q    Type
                         _______ _______ _______ _____ _____    ______ ____

>  <TORSDO>
F 2

$$$$
=
 OpenBabel11052411143D

 26 29  0  0  1  0  0  0  0  0999 V2000
  160.6850  206.2540  148.8750 C   0  0  0  0  0  2  0  0  0  0  0  0
  161.6220  205.6510  149.8980 C   0  0  1  0  0  3  0  0  0  0  0  0
  161.6200  206.5010  151.1470 C   0  0  0  0  0  0  0  0  0  0  0  0
  162.2200  208.7030  150.0170 C   0  0  0  0  0  3  0  0  0  0  0  0
  160.8310  207.3280  146.7720 O   0  0  0  0  0  1  0  0  0  0  0  0
  160.0040  201.6990  150.1800 C   0  0  0  0  0  2  0  0  0  0  0  0
  160.5220  204.6730  152.3620 C   0  0  0  0  0  3  0  0  0  0  0  0
  160.5880  203.8430  151.3290 C   0  0  0  0  0  0  0  0  0  0  0  0
  161.2880  204.2410  150.1340 N   0  0  0  0  0  0  0  0  0  0  0  0
  161.1030  206.0270  152.3090 C   0  0  0  0  0  0  0  0  0  0  0  0
  161.7460  209.5290  147.8860 O   0  0  0  0  0  0  0  0  0  0  0  0
  161.7840  208.5040  148.6180 C   0  0  0  0  0  0  0  0  0  0  0  0
  162.1490  207.8810  151.0720 C   0  0  0  0  0  3  0  0  0  0  0  0
  160.0810  202.4430  151.5070 C   0  0  0  0  0  2  0  0  0  0  0  0
  161.4730  203.3140  149.0120 C   0  0  0  0  0  2  0  0  0  0  0  0
  161.3160  201.8550  149.4340 C   0  0  2  0  0  3  0  0  0  0  0  0
  161.4990  207.1660  147.9870 C   0  0  1  0  0  3  0  0  0  0  0  0
  161.0670  206.8160  153.5670 C   0  0  0  0  0  0  0  0  0  0  0  0
  161.2850  210.3690  154.6560 N   0  0  0  0  0  1  0  0  0  0  0  0
  160.7670  206.9820  155.9640 C   0  0  0  0  0  3  0  0  0  0  0  0
  161.2060  208.2110  153.5200 C   0  0  0  0  0  3  0  0  0  0  0  0
  160.9200  208.3300  155.8880 N   0  0  0  0  0  0  0  0  0  0  0  0
  161.1350  208.9550  154.7000 C   0  0  0  0  0  0  0  0  0  0  0  0
  160.8310  206.2030  154.8060 C   0  0  0  0  0  3  0  0  0  0  0  0
  161.3100  200.9590  148.2100 C   0  0  0  0  0  2  0  0  0  0  0  0
  160.8310  201.6970  147.0540 N   0  0  0  0  0  1  0  0  0  0  0  0
  2  1  1  6  0  0  0
  2  9  1  0  0  0  0
  2  3  1  0  0  0  0
  3 10  2  0  0  0  0
  4 13  2  0  0  0  0
  6 14  1  0  0  0  0
  8 14  1  0  0  0  0
  8  7  2  0  0  0  0
  9  8  1  0  0  0  0
 10  7  1  0  0  0  0
 10 18  1  0  0  0  0
 11 12  2  0  0  0  0
 12  4  1  0  0  0  0
 13  3  1  0  0  0  0
 15 16  1  0  0  0  0
 15  9  1  0  0  0  0
 16 25  1  6  0  0  0
 16  6  1  0  0  0  0
 17  5  1  6  0  0  0
 17 12  1  0  0  0  0
 17  1  1  0  0  0  0
 18 24  1  0  0  0  0
 19 23  1  0  0  0  0
 21 18  2  0  0  0  0
 21 23  1  0  0  0  0
 22 20  1  0  0  0  0
 23 22  2  0  0  0  0
 24 20  2  0  0  0  0
 26 25  1  0  0  0  0
M  END
>  <MODEL>
4

>  <REMARK>
 VINA RESULT:      -7.3      1.429      6.401
  Name = 
  2 active torsions:
  status: ('A' for Active; 'I' for Inactive)
    1  A    between atoms: C_1  and  C_18
    2  A    between atoms: C_16  and  C_25
                            x       y       z     vdW  Elec       q    Type
                         _______ _______ _______ _____ _____    ______ ____

>  <TORSDO>
F 2

$$$$
=
 OpenBabel11052411143D

 26 29  0  0  1  0  0  0  0  0999 V2000
  161.9450  204.1100  150.0500 C   0  0  0  0  0  2  0  0  0  0  0  0
  161.0200  205.0070  149.2580 C   0  0  1  0  0  3  0  0  0  0  0  0
  161.2040  206.4390  149.7000 C   0  0  0  0  0  0  0  0  0  0  0  0
  160.7800  206.0500  152.1800 C   0  0  0  0  0  3  0  0  0  0  0  0
  161.7750  202.4260  151.7040 O   0  0  0  0  0  1  0  0  0  0  0  0
  162.1960  203.9870  145.2710 C   0  0  0  0  0  2  0  0  0  0  0  0
  162.1710  206.9670  147.5060 C   0  0  0  0  0  3  0  0  0  0  0  0
  161.9390  205.7520  147.0260 C   0  0  0  0  0  0  0  0  0  0  0  0
  161.2070  204.7960  147.8180 N   0  0  0  0  0  0  0  0  0  0  0  0
  161.7440  207.3610  148.8620 C   0  0  0  0  0  0  0  0  0  0  0  0
  161.1950  204.2070  153.5510 O   0  0  0  0  0  0  0  0  0  0  0  0
  161.0920  204.6170  152.3640 C   0  0  0  0  0  0  0  0  0  0  0  0
  160.8310  206.8140  151.0820 C   0  0  0  0  0  3  0  0  0  0  0  0
  162.2950  205.4710  145.5960 C   0  0  0  0  0  2  0  0  0  0  0  0
  160.8410  203.4800  147.2810 C   0  0  0  0  0  2  0  0  0  0  0  0
  160.8610  203.4510  145.7550 C   0  0  2  0  0  3  0  0  0  0  0  0
  161.1790  203.6050  151.2510 C   0  0  1  0  0  3  0  0  0  0  0  0
  161.9560  208.7810  149.2400 C   0  0  0  0  0  0  0  0  0  0  0  0
  161.9730  212.1380  147.6320 N   0  0  0  0  0  1  0  0  0  0  0  0
  162.3280  210.5070  150.8970 C   0  0  0  0  0  3  0  0  0  0  0  0
  161.8790  209.7820  148.2610 C   0  0  0  0  0  3  0  0  0  0  0  0
  162.2620  211.4530  149.9240 N   0  0  0  0  0  0  0  0  0  0  0  0
  162.0420  211.1210  148.6240 C   0  0  0  0  0  0  0  0  0  0  0  0
  162.1700  209.1570  150.5740 C   0  0  0  0  0  3  0  0  0  0  0  0
  160.6800  202.0280  145.2610 C   0  0  0  0  0  2  0  0  0  0  0  0
  160.8310  201.0950  146.3640 N   0  0  0  0  0  1  0  0  0  0  0  0
  1 17  1  0  0  0  0
  2  3  1  0  0  0  0
  2  1  1  1  0  0  0
  3 13  1  0  0  0  0
  4 12  1  0  0  0  0
  6 14  1  0  0  0  0
  6 16  1  0  0  0  0
  7 10  1  0  0  0  0
  8  7  2  0  0  0  0
  8  9  1  0  0  0  0
  9  2  1  0  0  0  0
 10 18  1  0  0  0  0
 10  3  2  0  0  0  0
 12 11  2  0  0  0  0
 13  4  2  0  0  0  0
 14  8  1  0  0  0  0
 15  9  1  0  0  0  0
 16 25  1  1  0  0  0
 16 15  1  0  0  0  0
 17  5  1  1  0  0  0
 17 12  1  0  0  0  0
 18 24  1  0  0  0  0
 19 23  1  0  0  0  0
 21 23  1  0  0  0  0
 21 18  2  0  0  0  0
 22 20  1  0  0  0  0
 23 22  2  0  0  0  0
 24 20  2  0  0  0  0
 25 26  1  0  0  0  0
M  END
>  <MODEL>
5

>  <REMARK>
 VINA RESULT:      -7.3      3.468      7.974
  Name = 
  2 active torsions:
  status: ('A' for Active; 'I' for Inactive)
    1  A    between atoms: C_1  and  C_18
    2  A    between atoms: C_16  and  C_25
                            x       y       z     vdW  Elec       q    Type
                         _______ _______ _______ _____ _____    ______ ____

>  <TORSDO>
F 2

$$$$
=
 OpenBabel11052411143D

 26 29  0  0  1  0  0  0  0  0999 V2000
  160.6030  206.9890  150.5570 C   0  0  0  0  0  2  0  0  0  0  0  0
  161.7440  207.9220  150.8940 C   0  0  1  0  0  3  0  0  0  0  0  0
  161.9910  208.8570  149.7340 C   0  0  0  0  0  0  0  0  0  0  0  0
  162.3010  207.0610  147.9560 C   0  0  0  0  0  3  0  0  0  0  0  0
  160.2830  204.6880  150.1100 O   0  0  0  0  0  1  0  0  0  0  0  0
  160.2910  209.6210  154.5430 C   0  0  0  0  0  2  0  0  0  0  0  0
  161.2060  210.7330  151.1080 C   0  0  0  0  0  3  0  0  0  0  0  0
  161.0670  209.9810  152.1930 C   0  0  0  0  0  0  0  0  0  0  0  0
  161.4930  208.6040  152.1690 N   0  0  0  0  0  0  0  0  0  0  0  0
  161.7390  210.1860  149.8470 C   0  0  0  0  0  0  0  0  0  0  0  0
  161.3740  204.9310  147.7290 O   0  0  0  0  0  0  0  0  0  0  0  0
  161.5830  205.8950  148.5130 C   0  0  0  0  0  0  0  0  0  0  0  0
  162.4680  208.2940  148.4520 C   0  0  0  0  0  3  0  0  0  0  0  0
  160.6340  210.6420  153.4670 C   0  0  0  0  0  2  0  0  0  0  0  0
  161.4520  207.7710  153.3760 C   0  0  0  0  0  2  0  0  0  0  0  0
  161.4130  208.6060  154.6550 C   0  0  2  0  0  3  0  0  0  0  0  0
  161.1950  205.7340  149.9600 C   0  0  1  0  0  3  0  0  0  0  0  0
  161.9560  211.1540  148.7410 C   0  0  0  0  0  0  0  0  0  0  0  0
  160.0200  212.7520  145.9930 N   0  0  0  0  0  1  0  0  0  0  0  0
  163.3440  212.7340  147.5420 C   0  0  0  0  0  3  0  0  0  0  0  0
  160.8960  211.4840  147.8850 C   0  0  0  0  0  3  0  0  0  0  0  0
  162.3020  213.0230  146.7190 N   0  0  0  0  0  0  0  0  0  0  0  0
  161.0910  212.4220  146.8700 C   0  0  0  0  0  0  0  0  0  0  0  0
  163.1880  211.8020  148.5700 C   0  0  0  0  0  3  0  0  0  0  0  0
  161.1650  207.7080  155.8520 C   0  0  0  0  0  2  0  0  0  0  0  0
  159.7630  207.3290  155.9090 N   0  0  0  0  0  1  0  0  0  0  0  0
  2  1  1  6  0  0  0
  2  9  1  0  0  0  0
  3 10  2  0  0  0  0
  3  2  1  0  0  0  0
  4 13  2  0  0  0  0
  4 12  1  0  0  0  0
  6 16  1  0  0  0  0
  7  8  2  0  0  0  0
  8 14  1  0  0  0  0
  9  8  1  0  0  0  0
  9 15  1  0  0  0  0
 10  7  1  0  0  0  0
 11 12  2  0  0  0  0
 12 17  1  0  0  0  0
 13  3  1  0  0  0  0
 14  6  1  0  0  0  0
 15 16  1  0  0  0  0
 16 25  1  1  0  0  0
 17  5  1  6  0  0  0
 17  1  1  0  0  0  0
 18 10  1  0  0  0  0
 19 23  1  0  0  0  0
 20 24  2  0  0  0  0
 21 18  2  0  0  0  0
 22 23  2  0  0  0  0
 22 20  1  0  0  0  0
 23 21  1  0  0  0  0
 24 18  1  0  0  0  0
 25 26  1  0  0  0  0
M  END
>  <MODEL>
6

>  <REMARK>
 VINA RESULT:      -7.2      3.333      5.911
  Name = 
  2 active torsions:
  status: ('A' for Active; 'I' for Inactive)
    1  A    between atoms: C_1  and  C_18
    2  A    between atoms: C_16  and  C_25
                            x       y       z     vdW  Elec       q    Type
                         _______ _______ _______ _____ _____    ______ ____

>  <TORSDO>
F 2

$$$$
=
 OpenBabel11052411143D

 26 29  0  0  1  0  0  0  0  0999 V2000
  161.2060  209.1550  148.5390 C   0  0  0  0  0  2  0  0  0  0  0  0
  162.1520  208.2570  149.3040 C   0  0  1  0  0  3  0  0  0  0  0  0
  161.9310  208.4390  150.7870 C   0  0  0  0  0  0  0  0  0  0  0  0
  162.2580  210.9640  150.8360 C   0  0  0  0  0  3  0  0  0  0  0  0
  161.3280  211.0780  147.1660 O   0  0  0  0  0  1  0  0  0  0  0  0
  161.1530  204.4620  147.5960 C   0  0  0  0  0  2  0  0  0  0  0  0
  161.0490  206.1520  150.9130 C   0  0  0  0  0  3  0  0  0  0  0  0
  161.3150  205.8960  149.6390 C   0  0  0  0  0  0  0  0  0  0  0  0
  162.0270  206.8680  148.8470 N   0  0  0  0  0  0  0  0  0  0  0  0
  161.4150  207.4350  151.5410 C   0  0  0  0  0  0  0  0  0  0  0  0
  161.8100  212.6140  149.2460 O   0  0  0  0  0  0  0  0  0  0  0  0
  161.9560  211.3780  149.4490 C   0  0  0  0  0  0  0  0  0  0  0  0
  162.2420  209.7490  151.4000 C   0  0  0  0  0  3  0  0  0  0  0  0
  161.0220  204.5230  149.1110 C   0  0  0  0  0  2  0  0  0  0  0  0
  162.4300  206.5800  147.4660 C   0  0  0  0  0  2  0  0  0  0  0  0
  162.4740  205.0810  147.1760 C   0  0  2  0  0  3  0  0  0  0  0  0
  161.9280  210.4530  148.2610 C   0  0  1  0  0  3  0  0  0  0  0  0
  161.1700  207.5550  153.0010 C   0  0  0  0  0  0  0  0  0  0  0  0
  160.2280  210.1660  155.4810 N   0  0  0  0  0  1  0  0  0  0  0  0
  160.9330  206.5780  155.2040 C   0  0  0  0  0  3  0  0  0  0  0  0
  160.8300  208.8000  153.5510 C   0  0  0  0  0  3  0  0  0  0  0  0
  160.6210  207.8000  155.7110 N   0  0  0  0  0  0  0  0  0  0  0  0
  160.5630  208.9040  154.9180 C   0  0  0  0  0  0  0  0  0  0  0  0
  161.2060  206.4330  153.8420 C   0  0  0  0  0  3  0  0  0  0  0  0
  162.6930  204.8460  145.6930 C   0  0  0  0  0  2  0  0  0  0  0  0
  161.6160  205.4520  144.9280 N   0  0  0  0  0  1  0  0  0  0  0  0
  2  1  1  6  0  0  0
  2  3  1  0  0  0  0
  3 13  1  0  0  0  0
  3 10  2  0  0  0  0
  4 13  2  0  0  0  0
  6 14  1  0  0  0  0
  7 10  1  0  0  0  0
  8  7  2  0  0  0  0
  9  2  1  0  0  0  0
  9  8  1  0  0  0  0
 10 18  1  0  0  0  0
 11 12  2  0  0  0  0
 12  4  1  0  0  0  0
 14  8  1  0  0  0  0
 15  9  1  0  0  0  0
 16 25  1  6  0  0  0
 16 15  1  0  0  0  0
 16  6  1  0  0  0  0
 17  5  1  6  0  0  0
 17  1  1  0  0  0  0
 17 12  1  0  0  0  0
 18 21  2  0  0  0  0
 18 24  1  0  0  0  0
 20 22  1  0  0  0  0
 21 23  1  0  0  0  0
 23 19  1  0  0  0  0
 23 22  2  0  0  0  0
 24 20  2  0  0  0  0
 26 25  1  0  0  0  0
M  END
>  <MODEL>
7

>  <REMARK>
 VINA RESULT:      -7.0      1.972      6.373
  Name = 
  2 active torsions:
  status: ('A' for Active; 'I' for Inactive)
    1  A    between atoms: C_1  and  C_18
    2  A    between atoms: C_16  and  C_25
                            x       y       z     vdW  Elec       q    Type
                         _______ _______ _______ _____ _____    ______ ____

>  <TORSDO>
F 2

$$$$
=
 OpenBabel11052411143D

 26 29  0  0  1  0  0  0  0  0999 V2000
  162.0780  206.9530  151.7260 C   0  0  0  0  0  2  0  0  0  0  0  0
  161.1290  207.3750  150.6270 C   0  0  1  0  0  3  0  0  0  0  0  0
  161.2850  208.8550  150.3670 C   0  0  0  0  0  0  0  0  0  0  0  0
  160.8840  209.6290  152.7590 C   0  0  0  0  0  3  0  0  0  0  0  0
  161.9560  206.2030  153.9670 O   0  0  0  0  0  1  0  0  0  0  0  0
  162.3040  204.6740  147.5230 C   0  0  0  0  0  2  0  0  0  0  0  0
  162.2260  208.3430  148.1590 C   0  0  0  0  0  3  0  0  0  0  0  0
  162.0190  207.0390  148.2870 C   0  0  0  0  0  0  0  0  0  0  0  0
  161.3120  206.5360  149.4380 N   0  0  0  0  0  0  0  0  0  0  0  0
  161.7990  209.3030  149.1930 C   0  0  0  0  0  0  0  0  0  0  0  0
  161.3470  208.6190  154.8120 O   0  0  0  0  0  0  0  0  0  0  0  0
  161.2290  208.4420  153.5690 C   0  0  0  0  0  0  0  0  0  0  0  0
  160.9120  209.8110  151.4330 C   0  0  0  0  0  3  0  0  0  0  0  0
  162.3730  206.1450  147.1360 C   0  0  0  0  0  2  0  0  0  0  0  0
  160.9730  205.1140  149.5640 C   0  0  0  0  0  2  0  0  0  0  0  0
  160.9840  204.3940  148.2170 C   0  0  2  0  0  3  0  0  0  0  0  0
  161.3320  207.0360  153.0370 C   0  0  1  0  0  3  0  0  0  0  0  0
  161.9820  210.7440  148.8810 C   0  0  0  0  0  0  0  0  0  0  0  0
  160.2080  213.9740  149.4010 N   0  0  0  0  0  1  0  0  0  0  0  0
  163.3000  212.5780  148.0090 C   0  0  0  0  0  3  0  0  0  0  0  0
  161.0080  211.6720  149.2740 C   0  0  0  0  0  3  0  0  0  0  0  0
  162.3310  213.4530  148.3890 N   0  0  0  0  0  0  0  0  0  0  0  0
  161.1990  213.0300  149.0120 C   0  0  0  0  0  0  0  0  0  0  0  0
  163.1460  211.2120  148.2530 C   0  0  0  0  0  3  0  0  0  0  0  0
  160.8310  202.8990  148.4270 C   0  0  0  0  0  2  0  0  0  0  0  0
  160.4770  202.6240  149.8100 N   0  0  0  0  0  1  0  0  0  0  0  0
  1 17  1  0  0  0  0
  2  1  1  1  0  0  0
  3  2  1  0  0  0  0
  3 13  1  0  0  0  0
  4 12  1  0  0  0  0
  6 16  1  0  0  0  0
  7  8  2  0  0  0  0
  7 10  1  0  0  0  0
  8  9  1  0  0  0  0
  9 15  1  0  0  0  0
  9  2  1  0  0  0  0
 10  3  2  0  0  0  0
 12 11  2  0  0  0  0
 13  4  2  0  0  0  0
 14  6  1  0  0  0  0
 14  8  1  0  0  0  0
 16 25  1  1  0  0  0
 16 15  1  0  0  0  0
 17 12  1  0  0  0  0
 17  5  1  1  0  0  0
 18 10  1  0  0  0  0
 18 21  1  0  0  0  0
 20 24  1  0  0  0  0
 20 22  2  0  0  0  0
 22 23  1  0  0  0  0
 23 21  2  0  0  0  0
 23 19  1  0  0  0  0
 24 18  2  0  0  0  0
 25 26  1  0  0  0  0
M  END
>  <MODEL>
8

>  <REMARK>
 VINA RESULT:      -6.9      3.102      7.453
  Name = 
  2 active torsions:
  status: ('A' for Active; 'I' for Inactive)
    1  A    between atoms: C_1  and  C_18
    2  A    between atoms: C_16  and  C_25
                            x       y       z     vdW  Elec       q    Type
                         _______ _______ _______ _____ _____    ______ ____

>  <TORSDO>
F 2

$$$$
=
 OpenBabel11052411143D

 26 29  0  0  1  0  0  0  0  0999 V2000
  162.3200  208.9950  150.9570 C   0  0  0  0  0  2  0  0  0  0  0  0
  161.0870  208.1260  150.8590 C   0  0  1  0  0  3  0  0  0  0  0  0
  161.1800  207.2540  149.6290 C   0  0  0  0  0  0  0  0  0  0  0  0
  161.5460  209.1330  147.9510 C   0  0  0  0  0  3  0  0  0  0  0  0
  162.8800  211.2870  150.7670 O   0  0  0  0  0  1  0  0  0  0  0  0
  161.2050  206.1990  154.6780 C   0  0  0  0  0  2  0  0  0  0  0  0
  161.3890  205.2800  151.0730 C   0  0  0  0  0  3  0  0  0  0  0  0
  161.2090  205.9800  152.1860 C   0  0  0  0  0  0  0  0  0  0  0  0
  160.8810  207.3810  152.1070 N   0  0  0  0  0  0  0  0  0  0  0  0
  161.3160  205.9080  149.7410 C   0  0  0  0  0  0  0  0  0  0  0  0
  162.6000  211.2060  148.1530 O   0  0  0  0  0  0  0  0  0  0  0  0
  162.1030  210.2280  148.7730 C   0  0  0  0  0  0  0  0  0  0  0  0
  161.1680  207.8960  148.2960 C   0  0  0  0  0  3  0  0  0  0  0  0
  161.1770  205.2440  153.4930 C   0  0  0  0  0  2  0  0  0  0  0  0
  160.5730  208.1630  153.3090 C   0  0  0  0  0  2  0  0  0  0  0  0
  160.1580  207.2800  154.4840 C   0  0  2  0  0  3  0  0  0  0  0  0
  162.0140  210.3080  150.2750 C   0  0  1  0  0  3  0  0  0  0  0  0
  161.4190  204.9990  148.5700 C   0  0  0  0  0  0  0  0  0  0  0  0
  162.3470  205.1580  144.9700 N   0  0  0  0  0  1  0  0  0  0  0  0
  161.3280  202.7920  147.5800 C   0  0  0  0  0  3  0  0  0  0  0  0
  161.8190  205.5070  147.3260 C   0  0  0  0  0  3  0  0  0  0  0  0
  161.7030  203.3150  146.3830 N   0  0  0  0  0  0  0  0  0  0  0  0
  161.9510  204.6440  146.2360 C   0  0  0  0  0  0  0  0  0  0  0  0
  161.1860  203.6220  148.6940 C   0  0  0  0  0  3  0  0  0  0  0  0
  160.0520  208.1130  155.7470 C   0  0  0  0  0  2  0  0  0  0  0  0
  160.0700  207.2490  156.9160 N   0  0  0  0  0  1  0  0  0  0  0  0
  2  1  1  1  0  0  0
  2  9  1  0  0  0  0
  3 10  2  0  0  0  0
  3  2  1  0  0  0  0
  4 13  2  0  0  0  0
  4 12  1  0  0  0  0
  7  8  2  0  0  0  0
  8 14  1  0  0  0  0
  9  8  1  0  0  0  0
  9 15  1  0  0  0  0
 10  7  1  0  0  0  0
 11 12  2  0  0  0  0
 12 17  1  0  0  0  0
 13  3  1  0  0  0  0
 14  6  1  0  0  0  0
 15 16  1  0  0  0  0
 16  6  1  0  0  0  0
 16 25  1  1  0  0  0
 17  5  1  1  0  0  0
 17  1  1  0  0  0  0
 18 24  1  0  0  0  0
 18 10  1  0  0  0  0
 19 23  1  0  0  0  0
 20 24  2  0  0  0  0
 21 18  2  0  0  0  0
 22 20  1  0  0  0  0
 23 22  2  0  0  0  0
 23 21  1  0  0  0  0
 25 26  1  0  0  0  0
M  END
>  <MODEL>
9

>  <REMARK>
 VINA RESULT:      -6.8      1.724      2.440
  Name = 
  2 active torsions:
  status: ('A' for Active; 'I' for Inactive)
    1  A    between atoms: C_1  and  C_18
    2  A    between atoms: C_16  and  C_25
                            x       y       z     vdW  Elec       q    Type
                         _______ _______ _______ _____ _____    ______ ____

>  <TORSDO>
F 2

$$$$
