=
 OpenBabel11042420463D

 27 30  0  0  1  0  0  0  0  0999 V2000
  160.7780  202.9180  148.4920 F   0  0  0  0  0  0  0  0  0  0  0  0
  161.5690  206.3140  147.1560 C   0  0  2  0  0  3  0  0  0  0  0  0
  161.0830  205.6200  149.3570 N   0  0  0  0  0  0  0  0  0  0  0  0
  161.2630  206.0310  152.3020 N   0  0  0  0  0  2  0  0  0  0  0  0
  161.0700  202.3410  152.0700 C   0  0  0  0  0  3  0  0  0  0  0  0
  161.6560  208.5660  148.0300 O   0  0  0  0  0  1  0  0  0  0  0  0
  161.2610  207.3700  151.7820 C   0  0  0  0  0  0  0  0  0  0  0  0
  162.0690  206.6700  149.5080 C   0  0  2  0  0  3  0  0  0  0  0  0
  161.0350  204.5220  150.2850 C   0  0  0  0  0  0  0  0  0  0  0  0
  160.5770  205.5430  147.9970 C   0  0  0  0  0  2  0  0  0  0  0  0
  161.6110  207.6570  150.5270 C   0  0  0  0  0  3  0  0  0  0  0  0
  161.2080  203.6400  152.5470 C   0  0  0  0  0  3  0  0  0  0  0  0
  162.2480  207.2970  148.1140 C   0  0  1  0  0  3  0  0  0  0  0  0
  160.8920  203.1920  149.8150 C   0  0  0  0  0  0  0  0  0  0  0  0
  161.1960  204.7370  151.6790 C   0  0  0  0  0  0  0  0  0  0  0  0
  160.7800  200.8470  150.2500 F   0  0  0  0  0  0  0  0  0  0  0  0
  160.9080  202.1160  150.7080 C   0  0  0  0  0  0  0  0  0  0  0  0
  160.8740  208.4910  152.6810 C   0  0  0  0  0  0  0  0  0  0  0  0
  160.1190  210.6110  154.2810 N   0  0  0  0  0  0  0  0  0  0  0  0
  160.7030  209.7730  152.1410 C   0  0  0  0  0  3  0  0  0  0  0  0
  160.2830  209.4010  154.8170 N   0  0  0  0  0  0  0  0  0  0  0  0
  160.6530  208.3270  154.0680 C   0  0  0  0  0  0  0  0  0  0  0  0
  160.3210  210.8310  152.9590 C   0  0  0  0  0  3  0  0  0  0  0  0
  160.8600  207.0260  154.7670 C   0  0  0  0  0  1  0  0  0  0  0  0
  160.8880  206.9520  145.9490 C   0  0  0  0  0  2  0  0  0  0  0  0
  160.4150  205.8920  144.9650 C   0  0  0  0  0  2  0  0  0  0  0  0
  161.5290  205.0480  144.5710 N   0  0  0  0  0  1  0  0  0  0  0  0
  1 14  1  0  0  0  0
  2 25  1  6  0  0  0
  2 10  1  0  0  0  0
  2 13  1  0  0  0  0
  3  8  1  0  0  0  0
  3  9  1  0  0  0  0
  5 12  1  0  0  0  0
  7  4  1  0  0  0  0
  7 18  1  0  0  0  0
  8 11  1  1  0  0  0
  9 15  1  0  0  0  0
 10  3  1  0  0  0  0
 11  7  2  0  0  0  0
 13  6  1  1  0  0  0
 13  8  1  0  0  0  0
 14  9  2  0  0  0  0
 14 17  1  0  0  0  0
 15  4  1  0  0  0  0
 15 12  2  0  0  0  0
 16 17  1  0  0  0  0
 17  5  2  0  0  0  0
 18 22  1  0  0  0  0
 19 21  1  0  0  0  0
 20 18  2  0  0  0  0
 20 23  1  0  0  0  0
 22 24  1  0  0  0  0
 22 21  2  0  0  0  0
 23 19  2  0  0  0  0
 26 25  1  0  0  0  0
 27 26  1  0  0  0  0
M  END
>  <MODEL>
1

>  <REMARK>
 VINA RESULT:      -8.5      0.000      0.000
  Name = 
  3 active torsions:
  status: ('A' for Active; 'I' for Inactive)
    1  A    between atoms: C_1  and  C_17
    2  A    between atoms: C_3  and  C_9
    3  A    between atoms: C_4  and  C_17
                            x       y       z     vdW  Elec       q    Type
                         _______ _______ _______ _____ _____    ______ ____

>  <TORSDO>
F 3

$$$$
=
 OpenBabel11042420463D

 27 30  0  0  1  0  0  0  0  0999 V2000
  161.2310  210.4560  151.9350 F   0  0  0  0  0  0  0  0  0  0  0  0
  161.2390  207.4720  154.1800 C   0  0  2  0  0  3  0  0  0  0  0  0
  161.2570  207.6050  151.8270 N   0  0  0  0  0  0  0  0  0  0  0  0
  161.8780  206.4100  149.1690 N   0  0  0  0  0  2  0  0  0  0  0  0
  162.2260  210.0270  148.4640 C   0  0  0  0  0  3  0  0  0  0  0  0
  161.1230  205.0730  153.9100 O   0  0  0  0  0  1  0  0  0  0  0  0
  161.5770  205.2650  149.9830 C   0  0  0  0  0  0  0  0  0  0  0  0
  162.0780  206.4540  152.1390 C   0  0  2  0  0  3  0  0  0  0  0  0
  161.5420  208.4150  150.6730 C   0  0  0  0  0  0  0  0  0  0  0  0
  160.5400  208.0930  152.9920 C   0  0  0  0  0  2  0  0  0  0  0  0
  161.6560  205.2860  151.3150 C   0  0  0  0  0  3  0  0  0  0  0  0
  162.2410  208.6410  148.3520 C   0  0  0  0  0  3  0  0  0  0  0  0
  161.9120  206.2030  153.6490 C   0  0  1  0  0  3  0  0  0  0  0  0
  161.5290  209.8290  150.7700 C   0  0  0  0  0  0  0  0  0  0  0  0
  161.9070  207.8210  149.4360 C   0  0  0  0  0  0  0  0  0  0  0  0
  161.8620  211.9730  149.7720 F   0  0  0  0  0  0  0  0  0  0  0  0
  161.8680  210.6210  149.6680 C   0  0  0  0  0  0  0  0  0  0  0  0
  161.1820  203.9930  149.3190 C   0  0  0  0  0  0  0  0  0  0  0  0
  160.3850  201.6250  148.1440 N   0  0  0  0  0  0  0  0  0  0  0  0
  160.5150  203.0110  150.0640 C   0  0  0  0  0  3  0  0  0  0  0  0
  161.0240  202.5420  147.4180 N   0  0  0  0  0  0  0  0  0  0  0  0
  161.4350  203.7230  147.9530 C   0  0  0  0  0  0  0  0  0  0  0  0
  160.1180  201.8230  149.4580 C   0  0  0  0  0  3  0  0  0  0  0  0
  162.1870  204.6650  147.0750 C   0  0  0  0  0  1  0  0  0  0  0  0
  160.2670  207.2540  155.3370 C   0  0  0  0  0  2  0  0  0  0  0  0
  160.5900  208.1760  156.5020 C   0  0  0  0  0  2  0  0  0  0  0  0
  162.0130  208.4650  156.5300 N   0  0  0  0  0  1  0  0  0  0  0  0
  2 25  1  1  0  0  0
  3  8  1  0  0  0  0
  3 10  1  0  0  0  0
  4 15  1  0  0  0  0
  4  7  1  0  0  0  0
  5 17  1  0  0  0  0
  7 11  2  0  0  0  0
  8 11  1  6  0  0  0
  8 13  1  0  0  0  0
  9 14  1  0  0  0  0
  9  3  1  0  0  0  0
 10  2  1  0  0  0  0
 12  5  2  0  0  0  0
 12 15  1  0  0  0  0
 13  6  1  6  0  0  0
 13  2  1  0  0  0  0
 14  1  1  0  0  0  0
 15  9  2  0  0  0  0
 17 16  1  0  0  0  0
 17 14  2  0  0  0  0
 18  7  1  0  0  0  0
 18 20  1  0  0  0  0
 19 23  1  0  0  0  0
 21 22  1  0  0  0  0
 21 19  2  0  0  0  0
 22 18  2  0  0  0  0
 23 20  2  0  0  0  0
 24 22  1  0  0  0  0
 25 26  1  0  0  0  0
 26 27  1  0  0  0  0
M  END
>  <MODEL>
2

>  <REMARK>
 VINA RESULT:      -8.5      3.357      7.620
  Name = 
  3 active torsions:
  status: ('A' for Active; 'I' for Inactive)
    1  A    between atoms: C_1  and  C_17
    2  A    between atoms: C_3  and  C_9
    3  A    between atoms: C_4  and  C_17
                            x       y       z     vdW  Elec       q    Type
                         _______ _______ _______ _____ _____    ______ ____

>  <TORSDO>
F 3

$$$$
=
 OpenBabel11042420463D

 27 30  0  0  1  0  0  0  0  0999 V2000
  160.5340  206.0940  152.8080 F   0  0  0  0  0  0  0  0  0  0  0  0
  161.5700  205.8430  149.2300 C   0  0  2  0  0  3  0  0  0  0  0  0
  161.2720  207.7400  150.5970 N   0  0  0  0  0  0  0  0  0  0  0  0
  161.8560  210.5910  151.2350 N   0  0  0  0  0  2  0  0  0  0  0  0
  161.1850  209.1930  154.5960 C   0  0  0  0  0  3  0  0  0  0  0  0
  162.0380  207.3830  147.4260 O   0  0  0  0  0  1  0  0  0  0  0  0
  161.9560  210.5470  149.8030 C   0  0  0  0  0  0  0  0  0  0  0  0
  162.3910  208.0720  149.7400 C   0  0  2  0  0  3  0  0  0  0  0  0
  161.2020  208.2520  151.9400 C   0  0  0  0  0  0  0  0  0  0  0  0
  160.5990  206.5270  150.1650 C   0  0  0  0  0  2  0  0  0  0  0  0
  162.1850  209.4170  149.1300 C   0  0  0  0  0  3  0  0  0  0  0  0
  161.5380  210.0420  153.5530 C   0  0  0  0  0  3  0  0  0  0  0  0
  162.4760  206.9520  148.6870 C   0  0  1  0  0  3  0  0  0  0  0  0
  160.8400  207.3990  153.0130 C   0  0  0  0  0  0  0  0  0  0  0  0
  161.5560  209.5960  152.2270 C   0  0  0  0  0  0  0  0  0  0  0  0
  160.4950  207.0520  155.3500 F   0  0  0  0  0  0  0  0  0  0  0  0
  160.8330  207.8750  154.3280 C   0  0  0  0  0  0  0  0  0  0  0  0
  161.8220  211.8130  149.0320 C   0  0  0  0  0  0  0  0  0  0  0  0
  161.5990  214.1190  147.5300 N   0  0  0  0  0  0  0  0  0  0  0  0
  162.6060  212.0020  147.8860 C   0  0  0  0  0  3  0  0  0  0  0  0
  160.8480  213.9630  148.6210 N   0  0  0  0  0  0  0  0  0  0  0  0
  160.9230  212.8440  149.3910 C   0  0  0  0  0  0  0  0  0  0  0  0
  162.4820  213.1680  147.1380 C   0  0  0  0  0  3  0  0  0  0  0  0
  160.0800  212.7830  150.6190 C   0  0  0  0  0  1  0  0  0  0  0  0
  160.8310  205.0330  148.1670 C   0  0  0  0  0  2  0  0  0  0  0  0
  161.2100  203.5620  148.2400 C   0  0  0  0  0  2  0  0  0  0  0  0
  160.8320  203.0140  149.5310 N   0  0  0  0  0  1  0  0  0  0  0  0
  1 14  1  0  0  0  0
  2 25  1  6  0  0  0
  2 10  1  0  0  0  0
  3  9  1  0  0  0  0
  4 15  1  0  0  0  0
  7  4  1  0  0  0  0
  8 11  1  6  0  0  0
  8  3  1  0  0  0  0
  9 15  2  0  0  0  0
  9 14  1  0  0  0  0
 10  3  1  0  0  0  0
 11  7  2  0  0  0  0
 12  5  2  0  0  0  0
 13  6  1  6  0  0  0
 13  2  1  0  0  0  0
 13  8  1  0  0  0  0
 14 17  2  0  0  0  0
 15 12  1  0  0  0  0
 17  5  1  0  0  0  0
 17 16  1  0  0  0  0
 18 22  1  0  0  0  0
 18  7  1  0  0  0  0
 19 21  1  0  0  0  0
 20 18  2  0  0  0  0
 21 22  2  0  0  0  0
 22 24  1  0  0  0  0
 23 19  2  0  0  0  0
 23 20  1  0  0  0  0
 25 26  1  0  0  0  0
 26 27  1  0  0  0  0
M  END
>  <MODEL>
3

>  <REMARK>
 VINA RESULT:      -7.7      3.607      5.200
  Name = 
  3 active torsions:
  status: ('A' for Active; 'I' for Inactive)
    1  A    between atoms: C_1  and  C_17
    2  A    between atoms: C_3  and  C_9
    3  A    between atoms: C_4  and  C_17
                            x       y       z     vdW  Elec       q    Type
                         _______ _______ _______ _____ _____    ______ ____

>  <TORSDO>
F 3

$$$$
=
 OpenBabel11042420463D

 27 30  0  0  1  0  0  0  0  0999 V2000
  160.9860  211.4370  151.7200 F   0  0  0  0  0  0  0  0  0  0  0  0
  160.8310  208.9640  154.5130 C   0  0  2  0  0  3  0  0  0  0  0  0
  161.0600  208.6240  152.1910 N   0  0  0  0  0  0  0  0  0  0  0  0
  161.9360  206.9420  149.8930 N   0  0  0  0  0  2  0  0  0  0  0  0
  162.2970  210.3550  148.5050 C   0  0  0  0  0  3  0  0  0  0  0  0
  160.7730  206.5570  154.7240 O   0  0  0  0  0  1  0  0  0  0  0  0
  161.5780  205.9740  150.8930 C   0  0  0  0  0  0  0  0  0  0  0  0
  161.8650  207.5850  152.8000 C   0  0  2  0  0  3  0  0  0  0  0  0
  161.4380  209.1960  150.9260 C   0  0  0  0  0  0  0  0  0  0  0  0
  160.2350  209.3130  153.1680 C   0  0  0  0  0  2  0  0  0  0  0  0
  161.5350  206.2630  152.1950 C   0  0  0  0  0  3  0  0  0  0  0  0
  162.3400  208.9750  148.6770 C   0  0  0  0  0  3  0  0  0  0  0  0
  161.5670  207.6370  154.3090 C   0  0  1  0  0  3  0  0  0  0  0  0
  161.3970  210.6000  150.7340 C   0  0  0  0  0  0  0  0  0  0  0  0
  161.9210  208.3790  149.8710 C   0  0  0  0  0  0  0  0  0  0  0  0
  161.7900  212.5100  149.3570 F   0  0  0  0  0  0  0  0  0  0  0  0
  161.8230  211.1660  149.5290 C   0  0  0  0  0  0  0  0  0  0  0  0
  161.2620  204.5830  150.4680 C   0  0  0  0  0  0  0  0  0  0  0  0
  160.6390  201.9890  149.7570 N   0  0  0  0  0  0  0  0  0  0  0  0
  161.1470  203.5800  151.4400 C   0  0  0  0  0  3  0  0  0  0  0  0
  160.7510  202.9260  148.8150 N   0  0  0  0  0  0  0  0  0  0  0  0
  161.0540  204.2160  149.1180 C   0  0  0  0  0  0  0  0  0  0  0  0
  160.8310  202.2780  151.0670 C   0  0  0  0  0  3  0  0  0  0  0  0
  161.2060  205.1810  147.9910 C   0  0  0  0  0  1  0  0  0  0  0  0
  159.7620  208.9520  155.6020 C   0  0  0  0  0  2  0  0  0  0  0  0
  160.3390  209.3860  156.9400 C   0  0  0  0  0  2  0  0  0  0  0  0
  161.4120  210.3430  156.7310 N   0  0  0  0  0  1  0  0  0  0  0  0
  2 25  1  1  0  0  0
  3  8  1  0  0  0  0
  3 10  1  0  0  0  0
  4  7  1  0  0  0  0
  5 12  2  0  0  0  0
  5 17  1  0  0  0  0
  7 11  2  0  0  0  0
  8 11  1  6  0  0  0
  8 13  1  0  0  0  0
  9  3  1  0  0  0  0
 10  2  1  0  0  0  0
 12 15  1  0  0  0  0
 13  2  1  0  0  0  0
 13  6  1  6  0  0  0
 14  9  1  0  0  0  0
 14  1  1  0  0  0  0
 15  4  1  0  0  0  0
 15  9  2  0  0  0  0
 16 17  1  0  0  0  0
 17 14  2  0  0  0  0
 18  7  1  0  0  0  0
 18 20  1  0  0  0  0
 19 23  1  0  0  0  0
 21 22  1  0  0  0  0
 21 19  2  0  0  0  0
 22 18  2  0  0  0  0
 23 20  2  0  0  0  0
 24 22  1  0  0  0  0
 25 26  1  0  0  0  0
 27 26  1  0  0  0  0
M  END
>  <MODEL>
4

>  <REMARK>
 VINA RESULT:      -7.5      3.518      7.672
  Name = 
  3 active torsions:
  status: ('A' for Active; 'I' for Inactive)
    1  A    between atoms: C_1  and  C_17
    2  A    between atoms: C_3  and  C_9
    3  A    between atoms: C_4  and  C_17
                            x       y       z     vdW  Elec       q    Type
                         _______ _______ _______ _____ _____    ______ ____

>  <TORSDO>
F 3

$$$$
=
 OpenBabel11042420463D

 27 30  0  0  1  0  0  0  0  0999 V2000
  160.9990  205.0410  148.1990 F   0  0  0  0  0  0  0  0  0  0  0  0
  162.0860  208.5260  148.9840 C   0  0  2  0  0  3  0  0  0  0  0  0
  161.3140  206.8160  150.4110 N   0  0  0  0  0  0  0  0  0  0  0  0
  161.1580  205.5690  153.1120 N   0  0  0  0  0  2  0  0  0  0  0  0
  160.8390  202.6150  150.9040 C   0  0  0  0  0  3  0  0  0  0  0  0
  162.1640  209.9410  150.9420 O   0  0  0  0  0  1  0  0  0  0  0  0
  161.2750  206.9710  153.4030 C   0  0  0  0  0  0  0  0  0  0  0  0
  162.3180  207.5180  151.1830 C   0  0  2  0  0  3  0  0  0  0  0  0
  161.1080  205.4030  150.5890 C   0  0  0  0  0  0  0  0  0  0  0  0
  160.9700  207.5280  149.1930 C   0  0  0  0  0  2  0  0  0  0  0  0
  161.7850  207.8470  152.5350 C   0  0  0  0  0  3  0  0  0  0  0  0
  160.9740  203.4370  152.0170 C   0  0  0  0  0  3  0  0  0  0  0  0
  162.6880  208.7720  150.3710 C   0  0  1  0  0  3  0  0  0  0  0  0
  160.9660  204.5520  149.4640 C   0  0  0  0  0  0  0  0  0  0  0  0
  161.1120  204.8230  151.8850 C   0  0  0  0  0  0  0  0  0  0  0  0
  160.7050  202.3630  148.5480 F   0  0  0  0  0  0  0  0  0  0  0  0
  160.8310  203.1700  149.6290 C   0  0  0  0  0  0  0  0  0  0  0  0
  160.8320  207.4700  154.7330 C   0  0  0  0  0  0  0  0  0  0  0  0
  160.0560  208.3330  157.2390 N   0  0  0  0  0  0  0  0  0  0  0  0
  160.7710  206.5780  155.8130 C   0  0  0  0  0  3  0  0  0  0  0  0
  160.1000  209.1970  156.2240 N   0  0  0  0  0  0  0  0  0  0  0  0
  160.4770  208.8180  154.9730 C   0  0  0  0  0  0  0  0  0  0  0  0
  160.3800  207.0280  157.0700 C   0  0  0  0  0  3  0  0  0  0  0  0
  160.4470  209.8450  153.8930 C   0  0  0  0  0  1  0  0  0  0  0  0
  161.5810  209.7750  148.2660 C   0  0  0  0  0  2  0  0  0  0  0  0
  162.6280  210.8770  148.2860 C   0  0  0  0  0  2  0  0  0  0  0  0
  161.9830  212.1770  148.2420 N   0  0  0  0  0  1  0  0  0  0  0  0
  1 14  1  0  0  0  0
  2 25  1  1  0  0  0
  2 10  1  0  0  0  0
  2 13  1  0  0  0  0
  3  9  1  0  0  0  0
  3  8  1  0  0  0  0
  4  7  1  0  0  0  0
  5 12  1  0  0  0  0
  7 18  1  0  0  0  0
  8 11  1  1  0  0  0
  9 15  1  0  0  0  0
 10  3  1  0  0  0  0
 11  7  2  0  0  0  0
 13  6  1  1  0  0  0
 13  8  1  0  0  0  0
 14 17  1  0  0  0  0
 14  9  2  0  0  0  0
 15 12  2  0  0  0  0
 15  4  1  0  0  0  0
 16 17  1  0  0  0  0
 17  5  2  0  0  0  0
 18 22  2  0  0  0  0
 18 20  1  0  0  0  0
 20 23  2  0  0  0  0
 21 19  2  0  0  0  0
 22 21  1  0  0  0  0
 23 19  1  0  0  0  0
 24 22  1  0  0  0  0
 25 26  1  0  0  0  0
 27 26  1  0  0  0  0
M  END
>  <MODEL>
5

>  <REMARK>
 VINA RESULT:      -7.3      2.128      3.153
  Name = 
  3 active torsions:
  status: ('A' for Active; 'I' for Inactive)
    1  A    between atoms: C_1  and  C_17
    2  A    between atoms: C_3  and  C_9
    3  A    between atoms: C_4  and  C_17
                            x       y       z     vdW  Elec       q    Type
                         _______ _______ _______ _____ _____    ______ ____

>  <TORSDO>
F 3

$$$$
=
 OpenBabel11042420463D

 27 30  0  0  1  0  0  0  0  0999 V2000
  161.0860  206.0460  154.5920 F   0  0  0  0  0  0  0  0  0  0  0  0
  162.0640  206.9750  151.1110 C   0  0  2  0  0  3  0  0  0  0  0  0
  160.9250  208.2230  152.7550 N   0  0  0  0  0  0  0  0  0  0  0  0
  160.1010  210.8420  153.9100 N   0  0  0  0  0  2  0  0  0  0  0  0
  160.2200  208.6980  156.9250 C   0  0  0  0  0  3  0  0  0  0  0  0
  161.7220  208.8590  149.6360 O   0  0  0  0  0  1  0  0  0  0  0  0
  160.1890  211.1160  152.5030 C   0  0  0  0  0  0  0  0  0  0  0  0
  161.7410  209.1920  152.0530 C   0  0  2  0  0  3  0  0  0  0  0  0
  160.6410  208.3840  154.1560 C   0  0  0  0  0  0  0  0  0  0  0  0
  160.9000  206.9400  152.0740 C   0  0  0  0  0  2  0  0  0  0  0  0
  160.9140  210.3710  151.6670 C   0  0  0  0  0  3  0  0  0  0  0  0
  160.1140  209.7900  156.0710 C   0  0  0  0  0  3  0  0  0  0  0  0
  162.3290  208.4580  150.8350 C   0  0  1  0  0  3  0  0  0  0  0  0
  160.7410  207.2790  155.0390 C   0  0  0  0  0  0  0  0  0  0  0  0
  160.3210  209.6580  154.6940 C   0  0  0  0  0  0  0  0  0  0  0  0
  160.6360  206.3840  157.2500 F   0  0  0  0  0  0  0  0  0  0  0  0
  160.5290  207.4440  156.4110 C   0  0  0  0  0  0  0  0  0  0  0  0
  159.4600  212.2910  151.9510 C   0  0  0  0  0  0  0  0  0  0  0  0
  158.1440  214.4530  150.8480 N   0  0  0  0  0  0  0  0  0  0  0  0
  159.9820  212.9550  150.8320 C   0  0  0  0  0  3  0  0  0  0  0  0
  157.6330  213.8400  151.9170 N   0  0  0  0  0  0  0  0  0  0  0  0
  158.2460  212.7710  152.4930 C   0  0  0  0  0  0  0  0  0  0  0  0
  159.3070  214.0410  150.2860 C   0  0  0  0  0  3  0  0  0  0  0  0
  157.6240  212.1850  153.7150 C   0  0  0  0  0  1  0  0  0  0  0  0
  161.7800  206.1260  149.8740 C   0  0  0  0  0  2  0  0  0  0  0  0
  160.8530  204.9680  150.2080 C   0  0  0  0  0  2  0  0  0  0  0  0
  161.0420  203.8890  149.2540 N   0  0  0  0  0  1  0  0  0  0  0  0
  1 14  1  0  0  0  0
  2 25  1  6  0  0  0
  2 10  1  0  0  0  0
  3  9  1  0  0  0  0
  4 15  1  0  0  0  0
  7  4  1  0  0  0  0
  8 11  1  6  0  0  0
  8  3  1  0  0  0  0
  9 15  2  0  0  0  0
  9 14  1  0  0  0  0
 10  3  1  0  0  0  0
 11  7  2  0  0  0  0
 12  5  2  0  0  0  0
 13  6  1  6  0  0  0
 13  2  1  0  0  0  0
 13  8  1  0  0  0  0
 14 17  2  0  0  0  0
 15 12  1  0  0  0  0
 17  5  1  0  0  0  0
 17 16  1  0  0  0  0
 18 22  1  0  0  0  0
 18  7  1  0  0  0  0
 19 21  1  0  0  0  0
 20 18  2  0  0  0  0
 21 22  2  0  0  0  0
 22 24  1  0  0  0  0
 23 20  1  0  0  0  0
 23 19  2  0  0  0  0
 25 26  1  0  0  0  0
 27 26  1  0  0  0  0
M  END
>  <MODEL>
6

>  <REMARK>
 VINA RESULT:      -7.0      3.129      5.410
  Name = 
  3 active torsions:
  status: ('A' for Active; 'I' for Inactive)
    1  A    between atoms: C_1  and  C_17
    2  A    between atoms: C_3  and  C_9
    3  A    between atoms: C_4  and  C_17
                            x       y       z     vdW  Elec       q    Type
                         _______ _______ _______ _____ _____    ______ ____

>  <TORSDO>
F 3

$$$$
=
 OpenBabel11042420463D

 27 30  0  0  1  0  0  0  0  0999 V2000
  160.6760  202.6760  149.8520 F   0  0  0  0  0  0  0  0  0  0  0  0
  161.8650  204.0950  146.6090 C   0  0  2  0  0  3  0  0  0  0  0  0
  161.4330  205.1590  148.6680 N   0  0  0  0  0  0  0  0  0  0  0  0
  161.8690  207.4220  150.5570 N   0  0  0  0  0  2  0  0  0  0  0  0
  161.1230  204.6390  152.8810 C   0  0  0  0  0  3  0  0  0  0  0  0
  162.3400  206.2940  145.7250 O   0  0  0  0  0  1  0  0  0  0  0  0
  162.0290  208.0340  149.2670 C   0  0  0  0  0  0  0  0  0  0  0  0
  162.5700  205.8660  148.1160 C   0  0  2  0  0  3  0  0  0  0  0  0
  161.2870  205.0050  150.0910 C   0  0  0  0  0  0  0  0  0  0  0  0
  160.8300  204.2610  147.6990 C   0  0  0  0  0  2  0  0  0  0  0  0
  162.3320  207.3370  148.1700 C   0  0  0  0  0  3  0  0  0  0  0  0
  161.4820  205.8750  152.3550 C   0  0  0  0  0  3  0  0  0  0  0  0
  162.7440  205.3470  146.6780 C   0  0  1  0  0  3  0  0  0  0  0  0
  160.9190  203.7520  150.6420 C   0  0  0  0  0  0  0  0  0  0  0  0
  161.5720  206.0790  150.9740 C   0  0  0  0  0  0  0  0  0  0  0  0
  160.4940  202.3750  152.5460 F   0  0  0  0  0  0  0  0  0  0  0  0
  160.8380  203.5790  152.0270 C   0  0  0  0  0  0  0  0  0  0  0  0
  161.8730  209.5090  149.1450 C   0  0  0  0  0  0  0  0  0  0  0  0
  161.5330  212.2330  148.8500 N   0  0  0  0  0  0  0  0  0  0  0  0
  161.6160  210.0680  147.8860 C   0  0  0  0  0  3  0  0  0  0  0  0
  161.7830  211.7230  150.0570 N   0  0  0  0  0  0  0  0  0  0  0  0
  161.9560  210.3880  150.2500 C   0  0  0  0  0  0  0  0  0  0  0  0
  161.4450  211.4420  147.7530 C   0  0  0  0  0  3  0  0  0  0  0  0
  162.2820  209.9190  151.6280 C   0  0  0  0  0  1  0  0  0  0  0  0
  161.2040  203.8410  145.2570 C   0  0  0  0  0  2  0  0  0  0  0  0
  160.1730  202.7280  145.3540 C   0  0  0  0  0  2  0  0  0  0  0  0
  160.8290  201.4640  145.6400 N   0  0  0  0  0  1  0  0  0  0  0  0
  1 14  1  0  0  0  0
  2 25  1  6  0  0  0
  2 13  1  0  0  0  0
  2 10  1  0  0  0  0
  3  9  1  0  0  0  0
  4 15  1  0  0  0  0
  7  4  1  0  0  0  0
  8 11  1  6  0  0  0
  8  3  1  0  0  0  0
  9 14  2  0  0  0  0
  9 15  1  0  0  0  0
 10  3  1  0  0  0  0
 11  7  2  0  0  0  0
 12  5  1  0  0  0  0
 13  6  1  6  0  0  0
 13  8  1  0  0  0  0
 14 17  1  0  0  0  0
 15 12  2  0  0  0  0
 17 16  1  0  0  0  0
 17  5  2  0  0  0  0
 18  7  1  0  0  0  0
 18 22  1  0  0  0  0
 19 21  1  0  0  0  0
 20 18  2  0  0  0  0
 21 22  2  0  0  0  0
 22 24  1  0  0  0  0
 23 20  1  0  0  0  0
 23 19  2  0  0  0  0
 25 26  1  0  0  0  0
 26 27  1  0  0  0  0
M  END
>  <MODEL>
7

>  <REMARK>
 VINA RESULT:      -7.0      2.528      3.206
  Name = 
  3 active torsions:
  status: ('A' for Active; 'I' for Inactive)
    1  A    between atoms: C_1  and  C_17
    2  A    between atoms: C_3  and  C_9
    3  A    between atoms: C_4  and  C_17
                            x       y       z     vdW  Elec       q    Type
                         _______ _______ _______ _____ _____    ______ ____

>  <TORSDO>
F 3

$$$$
=
 OpenBabel11042420463D

 27 30  0  0  1  0  0  0  0  0999 V2000
  160.4870  213.2910  151.0790 F   0  0  0  0  0  0  0  0  0  0  0  0
  160.2750  211.2720  154.2130 C   0  0  2  0  0  3  0  0  0  0  0  0
  160.7580  210.6050  152.0040 N   0  0  0  0  0  0  0  0  0  0  0  0
  161.9950  208.6880  150.0880 N   0  0  0  0  0  2  0  0  0  0  0  0
  162.1940  211.8670  148.2010 C   0  0  0  0  0  3  0  0  0  0  0  0
  160.4040  208.9310  154.8040 O   0  0  0  0  0  1  0  0  0  0  0  0
  161.6270  207.8530  151.1970 C   0  0  0  0  0  0  0  0  0  0  0  0
  161.5860  209.7580  152.8360 C   0  0  2  0  0  3  0  0  0  0  0  0
  161.2060  211.0120  150.6990 C   0  0  0  0  0  0  0  0  0  0  0  0
  159.7850  211.3490  152.7850 C   0  0  0  0  0  2  0  0  0  0  0  0
  161.4320  208.3320  152.4270 C   0  0  0  0  0  3  0  0  0  0  0  0
  162.3400  210.5420  148.5970 C   0  0  0  0  0  3  0  0  0  0  0  0
  161.1390  210.0090  154.2870 C   0  0  1  0  0  3  0  0  0  0  0  0
  161.0630  212.3590  150.2800 C   0  0  0  0  0  0  0  0  0  0  0  0
  161.8590  210.0960  149.8330 C   0  0  0  0  0  0  0  0  0  0  0  0
  161.4220  214.0650  148.6490 F   0  0  0  0  0  0  0  0  0  0  0  0
  161.5540  212.7740  149.0380 C   0  0  0  0  0  0  0  0  0  0  0  0
  161.4750  206.3890  150.9780 C   0  0  0  0  0  0  0  0  0  0  0  0
  161.1760  203.6630  150.6550 N   0  0  0  0  0  0  0  0  0  0  0  0
  161.7270  205.5090  152.0380 C   0  0  0  0  0  3  0  0  0  0  0  0
  160.9370  204.4820  149.6300 N   0  0  0  0  0  0  0  0  0  0  0  0
  161.0700  205.8310  149.7430 C   0  0  0  0  0  0  0  0  0  0  0  0
  161.5700  204.1380  151.8620 C   0  0  0  0  0  3  0  0  0  0  0  0
  160.8300  206.6600  148.5270 C   0  0  0  0  0  1  0  0  0  0  0  0
  159.1100  211.3180  155.1980 C   0  0  0  0  0  2  0  0  0  0  0  0
  158.0590  212.3240  154.7530 C   0  0  0  0  0  2  0  0  0  0  0  0
  156.7370  211.7260  154.8240 N   0  0  0  0  0  1  0  0  0  0  0  0
  2 13  1  0  0  0  0
  2 25  1  1  0  0  0
  3 10  1  0  0  0  0
  3  8  1  0  0  0  0
  4  7  1  0  0  0  0
  5 12  2  0  0  0  0
  5 17  1  0  0  0  0
  7 11  2  0  0  0  0
  8 11  1  6  0  0  0
  8 13  1  0  0  0  0
  9  3  1  0  0  0  0
 10  2  1  0  0  0  0
 12 15  1  0  0  0  0
 13  6  1  6  0  0  0
 14  9  1  0  0  0  0
 14  1  1  0  0  0  0
 15  4  1  0  0  0  0
 15  9  2  0  0  0  0
 16 17  1  0  0  0  0
 17 14  2  0  0  0  0
 18  7  1  0  0  0  0
 18 20  1  0  0  0  0
 19 23  1  0  0  0  0
 21 22  1  0  0  0  0
 21 19  2  0  0  0  0
 22 18  2  0  0  0  0
 23 20  2  0  0  0  0
 24 22  1  0  0  0  0
 26 27  1  0  0  0  0
 26 25  1  0  0  0  0
M  END
>  <MODEL>
8

>  <REMARK>
 VINA RESULT:      -6.7      3.990      7.966
  Name = 
  3 active torsions:
  status: ('A' for Active; 'I' for Inactive)
    1  A    between atoms: C_1  and  C_17
    2  A    between atoms: C_3  and  C_9
    3  A    between atoms: C_4  and  C_17
                            x       y       z     vdW  Elec       q    Type
                         _______ _______ _______ _____ _____    ______ ____

>  <TORSDO>
F 3

$$$$
=
 OpenBabel11042420463D

 27 30  0  0  1  0  0  0  0  0999 V2000
  160.8170  205.9860  154.2340 F   0  0  0  0  0  0  0  0  0  0  0  0
  161.7930  206.1230  150.6320 C   0  0  2  0  0  3  0  0  0  0  0  0
  161.1530  207.8520  152.1020 N   0  0  0  0  0  0  0  0  0  0  0  0
  161.1670  210.7280  152.8790 N   0  0  0  0  0  2  0  0  0  0  0  0
  160.8740  209.0630  156.1720 C   0  0  0  0  0  3  0  0  0  0  0  0
  161.8960  207.8110  148.9050 O   0  0  0  0  0  1  0  0  0  0  0  0
  161.2380  210.7740  151.4450 C   0  0  0  0  0  0  0  0  0  0  0  0
  162.1610  208.4450  151.2470 C   0  0  2  0  0  3  0  0  0  0  0  0
  161.0140  208.2740  153.4700 C   0  0  0  0  0  0  0  0  0  0  0  0
  160.7280  206.5510  151.6170 C   0  0  0  0  0  2  0  0  0  0  0  0
  161.6730  209.7480  150.7110 C   0  0  0  0  0  3  0  0  0  0  0  0
  161.0230  210.0150  155.1700 C   0  0  0  0  0  3  0  0  0  0  0  0
  162.4430  207.4180  150.1360 C   0  0  1  0  0  3  0  0  0  0  0  0
  160.8590  207.3150  154.5030 C   0  0  0  0  0  0  0  0  0  0  0  0
  161.0970  209.6460  153.8230 C   0  0  0  0  0  0  0  0  0  0  0  0
  160.6480  206.7920  156.8230 F   0  0  0  0  0  0  0  0  0  0  0  0
  160.7880  207.7150  155.8410 C   0  0  0  0  0  0  0  0  0  0  0  0
  160.8330  212.0230  150.7440 C   0  0  0  0  0  0  0  0  0  0  0  0
  160.0700  214.3770  149.5190 N   0  0  0  0  0  0  0  0  0  0  0  0
  159.9810  212.9260  151.3930 C   0  0  0  0  0  3  0  0  0  0  0  0
  160.8750  213.5280  148.8800 N   0  0  0  0  0  0  0  0  0  0  0  0
  161.2780  212.3580  149.4440 C   0  0  0  0  0  0  0  0  0  0  0  0
  159.6060  214.1090  150.7650 C   0  0  0  0  0  3  0  0  0  0  0  0
  162.1390  211.4510  148.6310 C   0  0  0  0  0  1  0  0  0  0  0  0
  161.2060  205.2320  149.5400 C   0  0  0  0  0  2  0  0  0  0  0  0
  160.8380  203.8630  150.0900 C   0  0  0  0  0  2  0  0  0  0  0  0
  160.8330  202.8820  149.0200 N   0  0  0  0  0  1  0  0  0  0  0  0
  1 14  1  0  0  0  0
  2 25  1  6  0  0  0
  2 10  1  0  0  0  0
  3  9  1  0  0  0  0
  4 15  1  0  0  0  0
  7  4  1  0  0  0  0
  8 11  1  6  0  0  0
  8  3  1  0  0  0  0
  9 15  2  0  0  0  0
  9 14  1  0  0  0  0
 10  3  1  0  0  0  0
 11  7  2  0  0  0  0
 12  5  2  0  0  0  0
 13  6  1  6  0  0  0
 13  2  1  0  0  0  0
 13  8  1  0  0  0  0
 14 17  2  0  0  0  0
 15 12  1  0  0  0  0
 17  5  1  0  0  0  0
 17 16  1  0  0  0  0
 18 20  1  0  0  0  0
 18  7  1  0  0  0  0
 19 23  1  0  0  0  0
 21 22  1  0  0  0  0
 21 19  2  0  0  0  0
 22 18  2  0  0  0  0
 23 20  2  0  0  0  0
 24 22  1  0  0  0  0
 25 26  1  0  0  0  0
 27 26  1  0  0  0  0
M  END
>  <MODEL>
9

>  <REMARK>
 VINA RESULT:      -6.6      3.319      5.342
  Name = 
  3 active torsions:
  status: ('A' for Active; 'I' for Inactive)
    1  A    between atoms: C_1  and  C_17
    2  A    between atoms: C_3  and  C_9
    3  A    between atoms: C_4  and  C_17
                            x       y       z     vdW  Elec       q    Type
                         _______ _______ _______ _____ _____    ______ ____

>  <TORSDO>
F 3

$$$$
