=
 OpenBabel11042422223D

 43 48  0  0  1  0  0  0  0  0999 V2000
  161.5670  210.6350  149.1050 C   0  0  1  0  0  3  0  0  0  0  0  0
  161.9660  211.0010  150.5480 C   0  0  0  0  0  2  0  0  0  0  0  0
  158.9940  211.0320  155.8880 C   0  0  0  0  0  0  0  0  0  0  0  0
  160.9360  210.5130  151.5600 C   0  0  1  0  0  3  0  0  0  0  0  0
  159.2360  211.7010  154.6820 C   0  0  0  0  0  3  0  0  0  0  0  0
  161.6950  209.2670  152.6720 S   0  0  0  0  0  0  0  0  0  0  0  0
  160.3910  209.1820  155.1580 C   0  0  0  0  0  3  0  0  0  0  0  0
  160.6370  209.8660  153.9680 C   0  0  0  0  0  0  0  0  0  0  0  0
  158.1270  211.6620  156.9170 C   0  0  0  0  0  1  0  0  0  0  0  0
  159.2720  212.2600  151.7800 O   0  0  0  0  0  1  0  0  0  0  0  0
  159.5530  209.7640  156.1230 C   0  0  0  0  0  3  0  0  0  0  0  0
  160.0470  211.0950  153.7150 C   0  0  0  0  0  0  0  0  0  0  0  0
  160.3930  211.6810  152.3990 C   0  0  1  0  0  3  0  0  0  0  0  0
  161.4740  211.8550  148.1590 C   0  0  2  0  0  3  0  0  0  0  0  0
  161.0150  213.1190  148.9030 C   0  0  0  0  0  2  0  0  0  0  0  0
  163.1530  213.9140  148.1200 O   0  0  0  0  0  1  0  0  0  0  0  0
  161.9350  214.3160  148.6960 C   0  0  0  0  0  2  0  0  0  0  0  0
  160.5940  211.5890  146.9300 C   0  0  0  0  0  2  0  0  0  0  0  0
  161.8990  213.0910  145.3580 O   0  0  0  0  0  1  0  0  0  0  0  0
  159.5170  212.6110  144.8990 C   0  0  1  0  0  3  0  0  0  0  0  0
  160.6640  212.7010  145.8950 C   0  0  1  0  0  0  0  0  0  0  0  0
  159.6080  213.7710  145.8890 C   0  0  0  0  0  2  0  0  0  0  0  0
  160.0020  212.9240  143.5450 N   0  0  0  0  0  0  0  0  0  0  0  0
  160.2800  211.6390  142.8940 C   0  0  0  0  0  1  0  0  0  0  0  0
  158.7800  212.8820  141.5540 O   0  0  0  0  0  1  0  0  0  0  0  0
  158.9930  213.6180  142.7340 C   0  0  0  0  0  2  0  0  0  0  0  0
  162.4330  209.5020  148.5500 C   0  0  0  0  0  2  0  0  0  0  0  0
  161.8990  207.2640  147.5720 C   0  0  0  0  0  3  0  0  0  0  0  0
  160.6720  206.4950  149.3440 C   0  0  0  0  0  0  0  0  0  0  0  0
  161.0590  206.0950  147.9650 C   0  0  2  0  0  3  0  0  0  0  0  0
  161.7440  204.7520  147.9340 C   0  0  0  0  0  0  0  0  0  0  0  0
  161.0480  207.6860  149.6470 N   0  0  0  0  0  0  0  0  0  0  0  0
  161.7440  208.1830  148.5170 C   0  0  0  0  0  0  0  0  0  0  0  0
  160.3800  205.5190  150.3360 N   0  0  0  0  0  0  0  0  0  0  0  0
  161.5030  203.8480  148.8910 C   0  0  0  0  0  3  0  0  0  0  0  0
  160.7490  204.1860  150.0710 N   0  0  0  0  0  0  0  0  0  0  0  0
  162.4220  204.2940  146.6800 C   0  0  0  0  0  2  0  0  0  0  0  0
  160.7400  204.1360  144.8120 N   0  0  0  0  0  0  0  0  0  0  0  0
  161.4450  203.5680  145.8120 C   0  0  0  0  0  0  0  0  0  0  0  0
  160.8340  205.5170  144.3460 C   0  0  0  0  0  1  0  0  0  0  0  0
  160.9980  202.2760  146.0150 C   0  0  0  0  0  3  0  0  0  0  0  0
  159.8940  203.2510  144.3230 N   0  0  0  0  0  0  0  0  0  0  0  0
  160.0240  202.1100  145.0370 C   0  0  0  0  0  3  0  0  0  0  0  0
  1 27  1  6  0  0  0
  1  2  1  0  0  0  0
  3 11  1  0  0  0  0
  3  9  1  0  0  0  0
  4  2  1  6  0  0  0
  4 13  1  0  0  0  0
  4  6  1  0  0  0  0
  5  3  2  0  0  0  0
  6  8  1  0  0  0  0
  7 11  2  0  0  0  0
  8  7  1  0  0  0  0
 12  8  2  0  0  0  0
 12  5  1  0  0  0  0
 13 10  1  6  0  0  0
 13 12  1  0  0  0  0
 14 18  1  6  0  0  0
 14 15  1  0  0  0  0
 14  1  1  0  0  0  0
 16 17  1  0  0  0  0
 17 15  1  0  0  0  0
 20 23  1  6  0  0  0
 20 22  1  0  0  0  0
 20 21  1  0  0  0  0
 21 19  1  6  0  0  0
 21 18  1  0  0  0  0
 22 21  1  0  0  0  0
 24 23  1  0  0  0  0
 25 26  1  0  0  0  0
 26 23  1  0  0  0  0
 28 33  2  0  0  0  0
 29 32  2  0  0  0  0
 29 34  1  0  0  0  0
 30 28  1  1  0  0  0
 30 29  1  0  0  0  0
 31 30  1  0  0  0  0
 31 35  2  0  0  0  0
 33 27  1  0  0  0  0
 33 32  1  0  0  0  0
 35 36  1  0  0  0  0
 36 34  2  0  0  0  0
 37 31  1  0  0  0  0
 38 39  1  0  0  0  0
 39 41  2  0  0  0  0
 39 37  1  0  0  0  0
 40 38  1  0  0  0  0
 42 38  1  0  0  0  0
 42 43  2  0  0  0  0
 43 41  1  0  0  0  0
M  END
>  <MODEL>
1

>  <REMARK>
 VINA RESULT:      -6.7      0.000      0.000
  Name = 
  13 active torsions:
  status: ('A' for Active; 'I' for Inactive)
    1  A    between atoms: C_3  and  C_25
    2  A    between atoms: C_3  and  C_27
    3  A    between atoms: C_4  and  C_13
    4  A    between atoms: C_4  and  C_21
    5  A    between atoms: C_8  and  C_22
    6  A    between atoms: C_9  and  C_22
    7  A    between atoms: C_14  and  N_37
    8  A    between atoms: C_19  and  C_26
    9  A    between atoms: C_19  and  C_27
   10  A    between atoms: C_21  and  C_27
   11  A    between atoms: C_21  and  C_35
   12  A    between atoms: C_23  and  C_35
   13  A    between atoms: C_36  and  N_37
                            x       y       z     vdW  Elec       q    Type
                         _______ _______ _______ _____ _____    ______ ____

>  <TORSDO>
F 13

$$$$
=
 OpenBabel11042422223D

 43 48  0  0  1  0  0  0  0  0999 V2000
  161.4500  213.7930  148.1510 C   0  0  1  0  0  3  0  0  0  0  0  0
  161.1240  214.2390  146.7120 C   0  0  0  0  0  2  0  0  0  0  0  0
  162.0940  211.8460  141.1720 C   0  0  0  0  0  0  0  0  0  0  0  0
  161.3230  213.1080  145.7100 C   0  0  1  0  0  3  0  0  0  0  0  0
  162.6270  212.5870  142.2340 C   0  0  0  0  0  3  0  0  0  0  0  0
  159.7110  212.6350  144.9750 S   0  0  0  0  0  0  0  0  0  0  0  0
  160.0400  211.5020  142.4260 C   0  0  0  0  0  3  0  0  0  0  0  0
  160.5760  212.2550  143.4690 C   0  0  0  0  0  0  0  0  0  0  0  0
  162.9010  211.6390  139.9430 C   0  0  0  0  0  1  0  0  0  0  0  0
  163.6180  213.2330  144.9430 O   0  0  0  0  0  1  0  0  0  0  0  0
  160.8090  211.2840  141.2710 C   0  0  0  0  0  3  0  0  0  0  0  0
  161.8620  212.7690  143.3930 C   0  0  0  0  0  0  0  0  0  0  0  0
  162.2900  213.5290  144.5910 C   0  0  1  0  0  3  0  0  0  0  0  0
  160.1990  213.4560  148.9940 C   0  0  2  0  0  3  0  0  0  0  0  0
  158.9140  213.9940  148.3460 C   0  0  0  0  0  2  0  0  0  0  0  0
  156.7690  212.9360  148.6520 O   0  0  0  0  0  1  0  0  0  0  0  0
  157.9530  212.9000  147.8960 C   0  0  0  0  0  2  0  0  0  0  0  0
  160.3190  213.9250  150.4510 C   0  0  0  0  0  2  0  0  0  0  0  0
  158.6550  212.1180  151.0790 O   0  0  0  0  0  1  0  0  0  0  0  0
  159.5010  213.6630  152.8150 C   0  0  1  0  0  3  0  0  0  0  0  0
  159.2230  213.3720  151.3480 C   0  0  1  0  0  0  0  0  0  0  0  0
  158.3280  214.3220  152.0920 C   0  0  0  0  0  2  0  0  0  0  0  0
  159.1350  212.4980  153.6360 N   0  0  0  0  0  0  0  0  0  0  0  0
  160.3810  211.7750  153.9160 C   0  0  0  0  0  1  0  0  0  0  0  0
  157.8930  211.7670  155.4760 O   0  0  0  0  0  1  0  0  0  0  0  0
  158.5520  212.8830  154.9290 C   0  0  0  0  0  2  0  0  0  0  0  0
  162.5110  212.6900  148.1730 C   0  0  0  0  0  2  0  0  0  0  0  0
  161.7100  210.3220  148.1880 C   0  0  0  0  0  3  0  0  0  0  0  0
  161.8250  210.0240  150.4540 C   0  0  0  0  0  0  0  0  0  0  0  0
  161.3670  209.3120  149.2310 C   0  0  2  0  0  3  0  0  0  0  0  0
  162.0230  207.9620  149.0810 C   0  0  0  0  0  0  0  0  0  0  0  0
  162.1980  211.2320  150.2220 N   0  0  0  0  0  0  0  0  0  0  0  0
  162.0550  211.4330  148.8260 C   0  0  0  0  0  0  0  0  0  0  0  0
  162.2560  209.3070  151.6030 N   0  0  0  0  0  0  0  0  0  0  0  0
  162.4690  207.3040  150.1590 C   0  0  0  0  0  3  0  0  0  0  0  0
  162.5190  207.9320  151.4550 N   0  0  0  0  0  0  0  0  0  0  0  0
  161.8790  207.2050  147.7970 C   0  0  0  0  0  2  0  0  0  0  0  0
  162.1680  204.7420  147.3600 N   0  0  0  0  0  0  0  0  0  0  0  0
  161.6560  205.7550  148.0870 C   0  0  0  0  0  0  0  0  0  0  0  0
  163.0720  204.8500  146.2180 C   0  0  0  0  0  1  0  0  0  0  0  0
  160.7670  205.2520  149.0170 C   0  0  0  0  0  3  0  0  0  0  0  0
  161.6920  203.6000  147.8140 N   0  0  0  0  0  0  0  0  0  0  0  0
  160.8320  203.8770  148.8210 C   0  0  0  0  0  3  0  0  0  0  0  0
  1  2  1  6  0  0  0
  1 27  1  0  0  0  0
  1 14  1  0  0  0  0
  3 11  2  0  0  0  0
  3  5  1  0  0  0  0
  4  2  1  1  0  0  0
  5 12  2  0  0  0  0
  6  4  1  0  0  0  0
  7  8  2  0  0  0  0
  8  6  1  0  0  0  0
  9  3  1  0  0  0  0
 11  7  1  0  0  0  0
 12  8  1  0  0  0  0
 12 13  1  0  0  0  0
 13 10  1  1  0  0  0
 13  4  1  0  0  0  0
 14 15  1  6  0  0  0
 14 18  1  0  0  0  0
 17 15  1  0  0  0  0
 17 16  1  0  0  0  0
 18 21  1  0  0  0  0
 20 23  1  1  0  0  0
 21 19  1  6  0  0  0
 21 22  1  0  0  0  0
 21 20  1  0  0  0  0
 22 20  1  0  0  0  0
 23 24  1  0  0  0  0
 23 26  1  0  0  0  0
 26 25  1  0  0  0  0
 27 33  1  0  0  0  0
 28 33  2  0  0  0  0
 29 34  1  0  0  0  0
 30 28  1  6  0  0  0
 30 29  1  0  0  0  0
 31 30  1  0  0  0  0
 31 35  2  0  0  0  0
 32 29  2  0  0  0  0
 33 32  1  0  0  0  0
 35 36  1  0  0  0  0
 36 34  2  0  0  0  0
 37 39  1  0  0  0  0
 37 31  1  0  0  0  0
 38 42  1  0  0  0  0
 38 39  1  0  0  0  0
 39 41  2  0  0  0  0
 40 38  1  0  0  0  0
 42 43  2  0  0  0  0
 43 41  1  0  0  0  0
M  END
>  <MODEL>
2

>  <REMARK>
 VINA RESULT:      -5.8      2.782      7.892
  Name = 
  13 active torsions:
  status: ('A' for Active; 'I' for Inactive)
    1  A    between atoms: C_3  and  C_25
    2  A    between atoms: C_3  and  C_27
    3  A    between atoms: C_4  and  C_13
    4  A    between atoms: C_4  and  C_21
    5  A    between atoms: C_8  and  C_22
    6  A    between atoms: C_9  and  C_22
    7  A    between atoms: C_14  and  N_37
    8  A    between atoms: C_19  and  C_26
    9  A    between atoms: C_19  and  C_27
   10  A    between atoms: C_21  and  C_27
   11  A    between atoms: C_21  and  C_35
   12  A    between atoms: C_23  and  C_35
   13  A    between atoms: C_36  and  N_37
                            x       y       z     vdW  Elec       q    Type
                         _______ _______ _______ _____ _____    ______ ____

>  <TORSDO>
F 13

$$$$
=
 OpenBabel11042422223D

 43 48  0  0  1  0  0  0  0  0999 V2000
  161.6020  211.2560  151.0450 C   0  0  1  0  0  3  0  0  0  0  0  0
  162.3820  210.0360  150.5160 C   0  0  0  0  0  2  0  0  0  0  0  0
  161.2740  204.0380  150.9080 C   0  0  0  0  0  0  0  0  0  0  0  0
  161.5120  208.7850  150.4740 C   0  0  1  0  0  3  0  0  0  0  0  0
  161.6210  205.2090  151.5930 C   0  0  0  0  0  3  0  0  0  0  0  0
  161.5400  208.0620  148.7880 S   0  0  0  0  0  0  0  0  0  0  0  0
  161.0220  205.3020  148.8470 C   0  0  0  0  0  3  0  0  0  0  0  0
  161.3850  206.4580  149.5370 C   0  0  0  0  0  0  0  0  0  0  0  0
  161.2260  202.7460  151.6380 C   0  0  0  0  0  1  0  0  0  0  0  0
  161.3920  207.9250  152.7360 O   0  0  0  0  0  1  0  0  0  0  0  0
  160.9530  204.0830  149.5400 C   0  0  0  0  0  3  0  0  0  0  0  0
  161.6540  206.4240  150.8980 C   0  0  0  0  0  0  0  0  0  0  0  0
  162.0060  207.7380  151.4850 C   0  0  1  0  0  3  0  0  0  0  0  0
  161.4100  212.3730  149.9930 C   0  0  2  0  0  3  0  0  0  0  0  0
  160.1500  213.2060  150.2710 C   0  0  0  0  0  2  0  0  0  0  0  0
  157.8910  213.6540  149.5570 O   0  0  0  0  0  1  0  0  0  0  0  0
  159.1480  213.1980  149.1230 C   0  0  0  0  0  2  0  0  0  0  0  0
  161.4120  211.8410  148.5530 C   0  0  0  0  0  2  0  0  0  0  0  0
  163.6170  211.9500  147.3050 O   0  0  0  0  0  1  0  0  0  0  0  0
  161.6990  213.3040  146.5270 C   0  0  1  0  0  3  0  0  0  0  0  0
  162.4030  212.5610  147.6530 C   0  0  1  0  0  0  0  0  0  0  0  0
  162.4270  214.0630  147.6350 C   0  0  0  0  0  2  0  0  0  0  0  0
  162.4640  213.1640  145.2780 N   0  0  0  0  0  0  0  0  0  0  0  0
  161.5330  212.6350  144.2750 C   0  0  0  0  0  1  0  0  0  0  0  0
  163.8440  214.2110  143.7080 O   0  0  0  0  0  1  0  0  0  0  0  0
  162.9620  214.4530  144.7770 C   0  0  0  0  0  2  0  0  0  0  0  0
  160.3000  210.8400  151.7320 C   0  0  0  0  0  2  0  0  0  0  0  0
  159.8550  212.4750  153.5710 C   0  0  0  0  0  3  0  0  0  0  0  0
  160.0380  210.9800  155.2950 C   0  0  0  0  0  0  0  0  0  0  0  0
  159.8610  212.4390  155.0620 C   0  0  2  0  0  3  0  0  0  0  0  0
  158.6240  212.9750  155.7380 C   0  0  0  0  0  0  0  0  0  0  0  0
  160.2540  210.3220  154.2120 N   0  0  0  0  0  0  0  0  0  0  0  0
  160.2110  211.2660  153.1560 C   0  0  0  0  0  0  0  0  0  0  0  0
  159.5400  210.3590  156.4710 N   0  0  0  0  0  0  0  0  0  0  0  0
  158.1280  212.3650  156.8220 C   0  0  0  0  0  3  0  0  0  0  0  0
  158.6280  211.0870  157.2600 N   0  0  0  0  0  0  0  0  0  0  0  0
  158.1450  214.3580  155.4210 C   0  0  0  0  0  2  0  0  0  0  0  0
  155.7040  214.0890  154.8610 N   0  0  0  0  0  0  0  0  0  0  0  0
  156.9830  214.2880  154.4820 C   0  0  0  0  0  0  0  0  0  0  0  0
  155.2010  213.9720  156.2260 C   0  0  0  0  0  1  0  0  0  0  0  0
  157.0690  214.2420  153.1030 C   0  0  0  0  0  3  0  0  0  0  0  0
  154.9490  213.9710  153.7860 N   0  0  0  0  0  0  0  0  0  0  0  0
  155.7510  214.0550  152.7000 C   0  0  0  0  0  3  0  0  0  0  0  0
  1  2  1  6  0  0  0
  1 27  1  0  0  0  0
  3  5  1  0  0  0  0
  3  9  1  0  0  0  0
  4  2  1  6  0  0  0
  4 13  1  0  0  0  0
  6  8  1  0  0  0  0
  6  4  1  0  0  0  0
  7  8  2  0  0  0  0
  7 11  1  0  0  0  0
  8 12  1  0  0  0  0
 11  3  2  0  0  0  0
 12 13  1  0  0  0  0
 12  5  2  0  0  0  0
 13 10  1  1  0  0  0
 14 18  1  6  0  0  0
 14 15  1  0  0  0  0
 14  1  1  0  0  0  0
 17 16  1  0  0  0  0
 17 15  1  0  0  0  0
 20 23  1  6  0  0  0
 20 22  1  0  0  0  0
 20 21  1  0  0  0  0
 21 19  1  6  0  0  0
 21 18  1  0  0  0  0
 22 21  1  0  0  0  0
 24 23  1  0  0  0  0
 25 26  1  0  0  0  0
 26 23  1  0  0  0  0
 27 33  1  0  0  0  0
 29 34  1  0  0  0  0
 30 28  1  6  0  0  0
 30 29  1  0  0  0  0
 30 31  1  0  0  0  0
 31 35  2  0  0  0  0
 32 29  2  0  0  0  0
 33 28  2  0  0  0  0
 33 32  1  0  0  0  0
 34 36  2  0  0  0  0
 35 36  1  0  0  0  0
 37 31  1  0  0  0  0
 38 40  1  0  0  0  0
 39 38  1  0  0  0  0
 39 37  1  0  0  0  0
 41 39  2  0  0  0  0
 42 38  1  0  0  0  0
 43 41  1  0  0  0  0
 43 42  2  0  0  0  0
M  END
>  <MODEL>
3

>  <REMARK>
 VINA RESULT:      -5.7      3.632      8.276
  Name = 
  13 active torsions:
  status: ('A' for Active; 'I' for Inactive)
    1  A    between atoms: C_3  and  C_25
    2  A    between atoms: C_3  and  C_27
    3  A    between atoms: C_4  and  C_13
    4  A    between atoms: C_4  and  C_21
    5  A    between atoms: C_8  and  C_22
    6  A    between atoms: C_9  and  C_22
    7  A    between atoms: C_14  and  N_37
    8  A    between atoms: C_19  and  C_26
    9  A    between atoms: C_19  and  C_27
   10  A    between atoms: C_21  and  C_27
   11  A    between atoms: C_21  and  C_35
   12  A    between atoms: C_23  and  C_35
   13  A    between atoms: C_36  and  N_37
                            x       y       z     vdW  Elec       q    Type
                         _______ _______ _______ _____ _____    ______ ____

>  <TORSDO>
F 13

$$$$
=
 OpenBabel11042422223D

 43 48  0  0  1  0  0  0  0  0999 V2000
  161.0700  207.7120  151.8370 C   0  0  1  0  0  3  0  0  0  0  0  0
  162.1050  208.7020  151.2690 C   0  0  0  0  0  2  0  0  0  0  0  0
  162.1100  213.1610  147.0890 C   0  0  0  0  0  0  0  0  0  0  0  0
  161.4640  209.7030  150.3140 C   0  0  1  0  0  3  0  0  0  0  0  0
  162.4050  211.8210  147.3680 C   0  0  0  0  0  3  0  0  0  0  0  0
  161.2350  211.3150  151.1610 S   0  0  0  0  0  0  0  0  0  0  0  0
  161.2030  213.4410  149.3260 C   0  0  0  0  0  3  0  0  0  0  0  0
  161.5160  212.1100  149.5970 C   0  0  0  0  0  0  0  0  0  0  0  0
  162.4390  213.7240  145.7540 C   0  0  0  0  0  1  0  0  0  0  0  0
  161.9930  208.9780  148.0640 O   0  0  0  0  0  1  0  0  0  0  0  0
  161.4910  213.9700  148.0580 C   0  0  0  0  0  3  0  0  0  0  0  0
  162.0820  211.2970  148.6250 C   0  0  0  0  0  0  0  0  0  0  0  0
  162.3360  209.9050  149.0630 C   0  0  1  0  0  3  0  0  0  0  0  0
  161.1800  206.2900  151.2410 C   0  0  2  0  0  3  0  0  0  0  0  0
  161.8480  205.3120  152.2200 C   0  0  0  0  0  2  0  0  0  0  0  0
  161.0660  203.1170  151.6020 O   0  0  0  0  0  1  0  0  0  0  0  0
  160.9730  204.1190  152.5830 C   0  0  0  0  0  2  0  0  0  0  0  0
  161.8820  206.2690  149.8770 C   0  0  0  0  0  2  0  0  0  0  0  0
  159.9890  206.2640  148.1890 O   0  0  0  0  0  1  0  0  0  0  0  0
  161.9380  204.7790  147.8510 C   0  0  1  0  0  3  0  0  0  0  0  0
  161.0600  205.5890  148.7930 C   0  0  1  0  0  0  0  0  0  0  0  0
  160.9440  204.0910  148.7850 C   0  0  0  0  0  2  0  0  0  0  0  0
  161.4650  204.9350  146.4650 N   0  0  0  0  0  0  0  0  0  0  0  0
  162.4170  205.8290  145.7970 C   0  0  0  0  0  1  0  0  0  0  0  0
  160.4330  203.7030  144.7680 O   0  0  0  0  0  1  0  0  0  0  0  0
  161.4630  203.6650  145.7260 C   0  0  0  0  0  2  0  0  0  0  0  0
  161.0540  207.7290  153.3670 C   0  0  0  0  0  2  0  0  0  0  0  0
  160.0820  210.0100  153.6850 C   0  0  0  0  0  3  0  0  0  0  0  0
  161.4670  210.6440  155.3930 C   0  0  0  0  0  0  0  0  0  0  0  0
  160.4010  211.2050  154.5200 C   0  0  2  0  0  3  0  0  0  0  0  0
  159.2550  211.7760  155.3170 C   0  0  0  0  0  0  0  0  0  0  0  0
  161.8190  209.4550  155.0570 N   0  0  0  0  0  0  0  0  0  0  0  0
  161.0070  209.0970  153.9510 C   0  0  0  0  0  0  0  0  0  0  0  0
  161.6890  211.1580  156.7000 N   0  0  0  0  0  0  0  0  0  0  0  0
  159.4540  212.2200  156.5640 C   0  0  0  0  0  3  0  0  0  0  0  0
  160.7000  211.9940  157.2520 N   0  0  0  0  0  0  0  0  0  0  0  0
  157.9860  212.1610  154.6210 C   0  0  0  0  0  2  0  0  0  0  0  0
  155.9060  211.8460  156.0060 N   0  0  0  0  0  0  0  0  0  0  0  0
  156.9670  212.5880  155.6270 C   0  0  0  0  0  0  0  0  0  0  0  0
  155.5850  210.4900  155.5720 C   0  0  0  0  0  1  0  0  0  0  0  0
  156.8650  213.8530  156.1770 C   0  0  0  0  0  3  0  0  0  0  0  0
  155.1510  212.5560  156.8200 N   0  0  0  0  0  0  0  0  0  0  0  0
  155.7050  213.7840  156.9410 C   0  0  0  0  0  3  0  0  0  0  0  0
  1  2  1  1  0  0  0
  1 27  1  0  0  0  0
  3  5  2  0  0  0  0
  3 11  1  0  0  0  0
  4  6  1  0  0  0  0
  4  2  1  1  0  0  0
  5 12  1  0  0  0  0
  7  8  1  0  0  0  0
  8  6  1  0  0  0  0
  9  3  1  0  0  0  0
 11  7  2  0  0  0  0
 12 13  1  0  0  0  0
 12  8  2  0  0  0  0
 13 10  1  6  0  0  0
 13  4  1  0  0  0  0
 14 18  1  6  0  0  0
 14  1  1  0  0  0  0
 14 15  1  0  0  0  0
 15 17  1  0  0  0  0
 16 17  1  0  0  0  0
 20 23  1  6  0  0  0
 20 22  1  0  0  0  0
 20 21  1  0  0  0  0
 21 19  1  6  0  0  0
 21 18  1  0  0  0  0
 22 21  1  0  0  0  0
 24 23  1  0  0  0  0
 25 26  1  0  0  0  0
 26 23  1  0  0  0  0
 27 33  1  0  0  0  0
 28 33  2  0  0  0  0
 29 34  1  0  0  0  0
 30 28  1  6  0  0  0
 30 31  1  0  0  0  0
 30 29  1  0  0  0  0
 31 35  2  0  0  0  0
 32 29  2  0  0  0  0
 33 32  1  0  0  0  0
 34 36  2  0  0  0  0
 35 36  1  0  0  0  0
 37 31  1  0  0  0  0
 37 39  1  0  0  0  0
 38 42  1  0  0  0  0
 39 38  1  0  0  0  0
 39 41  2  0  0  0  0
 40 38  1  0  0  0  0
 41 43  1  0  0  0  0
 42 43  2  0  0  0  0
M  END
>  <MODEL>
4

>  <REMARK>
 VINA RESULT:      -5.7      4.137      9.465
  Name = 
  13 active torsions:
  status: ('A' for Active; 'I' for Inactive)
    1  A    between atoms: C_3  and  C_25
    2  A    between atoms: C_3  and  C_27
    3  A    between atoms: C_4  and  C_13
    4  A    between atoms: C_4  and  C_21
    5  A    between atoms: C_8  and  C_22
    6  A    between atoms: C_9  and  C_22
    7  A    between atoms: C_14  and  N_37
    8  A    between atoms: C_19  and  C_26
    9  A    between atoms: C_19  and  C_27
   10  A    between atoms: C_21  and  C_27
   11  A    between atoms: C_21  and  C_35
   12  A    between atoms: C_23  and  C_35
   13  A    between atoms: C_36  and  N_37
                            x       y       z     vdW  Elec       q    Type
                         _______ _______ _______ _____ _____    ______ ____

>  <TORSDO>
F 13

$$$$
=
 OpenBabel11042422223D

 43 48  0  0  1  0  0  0  0  0999 V2000
  160.9070  209.8850  152.7080 C   0  0  1  0  0  3  0  0  0  0  0  0
  160.2100  208.5100  152.6980 C   0  0  0  0  0  2  0  0  0  0  0  0
  161.2980  203.5540  149.2910 C   0  0  0  0  0  0  0  0  0  0  0  0
  161.0840  207.4390  152.0560 C   0  0  1  0  0  3  0  0  0  0  0  0
  160.9000  204.8960  149.3070 C   0  0  0  0  0  3  0  0  0  0  0  0
  161.1790  205.9710  153.1520 S   0  0  0  0  0  0  0  0  0  0  0  0
  161.6960  203.6300  151.6880 C   0  0  0  0  0  3  0  0  0  0  0  0
  161.2820  204.9610  151.6930 C   0  0  0  0  0  0  0  0  0  0  0  0
  161.2950  202.8010  148.0110 C   0  0  0  0  0  1  0  0  0  0  0  0
  161.0400  207.8270  149.6640 O   0  0  0  0  0  1  0  0  0  0  0  0
  161.7170  202.9220  150.4760 C   0  0  0  0  0  3  0  0  0  0  0  0
  160.9150  205.6000  150.5170 C   0  0  0  0  0  0  0  0  0  0  0  0
  160.5190  207.0170  150.6880 C   0  0  1  0  0  3  0  0  0  0  0  0
  161.5650  210.2380  154.0610 C   0  0  2  0  0  3  0  0  0  0  0  0
  161.5580  209.0420  155.0270 C   0  0  0  0  0  2  0  0  0  0  0  0
  163.1390  210.2920  156.3510 O   0  0  0  0  0  1  0  0  0  0  0  0
  162.0690  209.3820  156.4220 C   0  0  0  0  0  2  0  0  0  0  0  0
  160.9470  211.4790  154.7180 C   0  0  0  0  0  2  0  0  0  0  0  0
  158.9140  210.4670  155.8480 O   0  0  0  0  0  1  0  0  0  0  0  0
  158.7670  212.7280  154.8560 C   0  0  1  0  0  3  0  0  0  0  0  0
  159.4420  211.3660  154.9090 C   0  0  1  0  0  0  0  0  0  0  0  0
  158.5260  211.6890  153.7630 C   0  0  0  0  0  2  0  0  0  0  0  0
  157.7050  212.8020  155.8730 N   0  0  0  0  0  0  0  0  0  0  0  0
  158.2570  213.5640  156.9990 C   0  0  0  0  0  1  0  0  0  0  0  0
  155.5050  213.4200  156.3640 O   0  0  0  0  0  1  0  0  0  0  0  0
  156.5180  213.5240  155.3930 C   0  0  0  0  0  2  0  0  0  0  0  0
  161.8500  210.0480  151.5140 C   0  0  0  0  0  2  0  0  0  0  0  0
  161.7540  211.2910  149.3470 C   0  0  0  0  0  3  0  0  0  0  0  0
  160.5310  213.0640  150.1210 C   0  0  0  0  0  0  0  0  0  0  0  0
  161.2410  212.6170  148.8930 C   0  0  2  0  0  3  0  0  0  0  0  0
  160.3340  212.5940  147.6890 C   0  0  0  0  0  0  0  0  0  0  0  0
  160.7120  212.2780  151.1210 N   0  0  0  0  0  0  0  0  0  0  0  0
  161.5310  211.2190  150.6530 C   0  0  0  0  0  0  0  0  0  0  0  0
  159.4200  213.9480  150.0450 N   0  0  0  0  0  0  0  0  0  0  0  0
  159.2620  213.3950  147.6350 C   0  0  0  0  0  3  0  0  0  0  0  0
  158.8300  214.1510  148.7830 N   0  0  0  0  0  0  0  0  0  0  0  0
  160.7970  211.9430  146.4220 C   0  0  0  0  0  2  0  0  0  0  0  0
  160.8060  213.1980  144.2390 N   0  0  0  0  0  0  0  0  0  0  0  0
  161.3020  212.9820  145.4740 C   0  0  0  0  0  0  0  0  0  0  0  0
  159.6670  212.5250  143.6210 C   0  0  0  0  0  1  0  0  0  0  0  0
  162.4430  213.7430  145.6520 C   0  0  0  0  0  3  0  0  0  0  0  0
  161.5430  214.1040  143.6280 N   0  0  0  0  0  0  0  0  0  0  0  0
  162.5510  214.4530  144.4610 C   0  0  0  0  0  3  0  0  0  0  0  0
  1 27  1  6  0  0  0
  1 14  1  0  0  0  0
  2  1  1  0  0  0  0
  3  5  2  0  0  0  0
  3 11  1  0  0  0  0
  4  2  1  1  0  0  0
  4  6  1  0  0  0  0
  5 12  1  0  0  0  0
  7  8  1  0  0  0  0
  8  6  1  0  0  0  0
  9  3  1  0  0  0  0
 11  7  2  0  0  0  0
 12 13  1  0  0  0  0
 12  8  2  0  0  0  0
 13 10  1  6  0  0  0
 13  4  1  0  0  0  0
 14 18  1  1  0  0  0
 14 15  1  0  0  0  0
 15 17  1  0  0  0  0
 16 17  1  0  0  0  0
 18 21  1  0  0  0  0
 20 21  1  0  0  0  0
 20 23  1  1  0  0  0
 21 19  1  1  0  0  0
 22 20  1  0  0  0  0
 22 21  1  0  0  0  0
 23 24  1  0  0  0  0
 26 23  1  0  0  0  0
 26 25  1  0  0  0  0
 28 33  2  0  0  0  0
 29 32  2  0  0  0  0
 30 28  1  1  0  0  0
 30 29  1  0  0  0  0
 31 30  1  0  0  0  0
 33 32  1  0  0  0  0
 33 27  1  0  0  0  0
 34 29  1  0  0  0  0
 35 31  2  0  0  0  0
 35 36  1  0  0  0  0
 36 34  2  0  0  0  0
 37 31  1  0  0  0  0
 38 39  1  0  0  0  0
 39 41  2  0  0  0  0
 39 37  1  0  0  0  0
 40 38  1  0  0  0  0
 42 38  1  0  0  0  0
 42 43  2  0  0  0  0
 43 41  1  0  0  0  0
M  END
>  <MODEL>
5

>  <REMARK>
 VINA RESULT:      -5.6      3.885      8.753
  Name = 
  13 active torsions:
  status: ('A' for Active; 'I' for Inactive)
    1  A    between atoms: C_3  and  C_25
    2  A    between atoms: C_3  and  C_27
    3  A    between atoms: C_4  and  C_13
    4  A    between atoms: C_4  and  C_21
    5  A    between atoms: C_8  and  C_22
    6  A    between atoms: C_9  and  C_22
    7  A    between atoms: C_14  and  N_37
    8  A    between atoms: C_19  and  C_26
    9  A    between atoms: C_19  and  C_27
   10  A    between atoms: C_21  and  C_27
   11  A    between atoms: C_21  and  C_35
   12  A    between atoms: C_23  and  C_35
   13  A    between atoms: C_36  and  N_37
                            x       y       z     vdW  Elec       q    Type
                         _______ _______ _______ _____ _____    ______ ____

>  <TORSDO>
F 13

$$$$
=
 OpenBabel11042422223D

 43 48  0  0  1  0  0  0  0  0999 V2000
  161.8890  210.4260  150.6300 C   0  0  1  0  0  3  0  0  0  0  0  0
  162.6250  209.0880  150.4150 C   0  0  0  0  0  2  0  0  0  0  0  0
  160.8600  203.3060  149.5210 C   0  0  0  0  0  0  0  0  0  0  0  0
  161.6740  207.9880  149.9580 C   0  0  1  0  0  3  0  0  0  0  0  0
  161.1370  204.3110  150.4550 C   0  0  0  0  0  3  0  0  0  0  0  0
  162.0580  207.5080  148.2300 S   0  0  0  0  0  0  0  0  0  0  0  0
  161.2700  204.8640  147.7010 C   0  0  0  0  0  3  0  0  0  0  0  0
  161.5580  205.8530  148.6410 C   0  0  0  0  0  0  0  0  0  0  0  0
  160.4990  201.9440  149.9910 C   0  0  0  0  0  1  0  0  0  0  0  0
  160.8970  206.8490  151.9510 O   0  0  0  0  0  1  0  0  0  0  0  0
  160.9050  203.5820  148.1430 C   0  0  0  0  0  3  0  0  0  0  0  0
  161.4660  205.5940  150.0010 C   0  0  0  0  0  0  0  0  0  0  0  0
  161.7870  206.7530  150.8670 C   0  0  1  0  0  3  0  0  0  0  0  0
  161.7180  211.2550  149.3360 C   0  0  2  0  0  3  0  0  0  0  0  0
  163.0600  211.4840  148.6250 C   0  0  0  0  0  2  0  0  0  0  0  0
  163.4700  213.7840  148.0280 O   0  0  0  0  0  1  0  0  0  0  0  0
  163.0000  212.5530  147.5400 C   0  0  0  0  0  2  0  0  0  0  0  0
  160.9860  212.5830  149.5730 C   0  0  0  0  0  2  0  0  0  0  0  0
  159.7920  212.0500  147.4010 O   0  0  0  0  0  1  0  0  0  0  0  0
  158.8510  213.7480  148.9320 C   0  0  1  0  0  3  0  0  0  0  0  0
  160.0540  212.9620  148.4330 C   0  0  1  0  0  0  0  0  0  0  0  0
  159.9080  214.4070  148.0480 C   0  0  0  0  0  2  0  0  0  0  0  0
  157.6380  213.3180  148.2170 N   0  0  0  0  0  0  0  0  0  0  0  0
  156.5140  213.5300  149.1350 C   0  0  0  0  0  1  0  0  0  0  0  0
  156.7370  213.3150  146.0600 O   0  0  0  0  0  1  0  0  0  0  0  0
  157.3810  214.1240  147.0150 C   0  0  0  0  0  2  0  0  0  0  0  0
  160.5840  210.2340  151.4050 C   0  0  0  0  0  2  0  0  0  0  0  0
  160.4580  211.7090  153.4190 C   0  0  0  0  0  3  0  0  0  0  0  0
  160.7950  210.0590  154.9690 C   0  0  0  0  0  0  0  0  0  0  0  0
  160.6560  211.5380  154.8880 C   0  0  2  0  0  3  0  0  0  0  0  0
  159.5440  212.0530  155.7670 C   0  0  0  0  0  0  0  0  0  0  0  0
  160.8370  209.4940  153.8150 N   0  0  0  0  0  0  0  0  0  0  0  0
  160.7010  210.5320  152.8590 C   0  0  0  0  0  0  0  0  0  0  0  0
  160.4250  209.3510  156.1450 N   0  0  0  0  0  0  0  0  0  0  0  0
  159.1650  211.3640  156.8510 C   0  0  0  0  0  3  0  0  0  0  0  0
  159.6580  210.0350  157.1070 N   0  0  0  0  0  0  0  0  0  0  0  0
  159.0910  213.4740  155.6360 C   0  0  0  0  0  2  0  0  0  0  0  0
  156.8720  213.3700  154.4500 N   0  0  0  0  0  0  0  0  0  0  0  0
  157.5980  213.5270  155.5750 C   0  0  0  0  0  0  0  0  0  0  0  0
  157.3770  213.0600  153.1160 C   0  0  0  0  0  1  0  0  0  0  0  0
  156.7680  213.9110  156.6110 C   0  0  0  0  0  3  0  0  0  0  0  0
  155.6000  213.5820  154.7240 N   0  0  0  0  0  0  0  0  0  0  0  0
  155.5040  213.9190  156.0310 C   0  0  0  0  0  3  0  0  0  0  0  0
  1  2  1  6  0  0  0
  1 27  1  0  0  0  0
  3  9  1  0  0  0  0
  3  5  1  0  0  0  0
  4  2  1  1  0  0  0
  4 13  1  0  0  0  0
  6  8  1  0  0  0  0
  6  4  1  0  0  0  0
  7 11  1  0  0  0  0
  7  8  2  0  0  0  0
  8 12  1  0  0  0  0
 11  3  2  0  0  0  0
 12  5  2  0  0  0  0
 12 13  1  0  0  0  0
 13 10  1  1  0  0  0
 14 15  1  1  0  0  0
 14 18  1  0  0  0  0
 14  1  1  0  0  0  0
 17 16  1  0  0  0  0
 17 15  1  0  0  0  0
 20 23  1  6  0  0  0
 21 19  1  6  0  0  0
 21 20  1  0  0  0  0
 21 18  1  0  0  0  0
 22 21  1  0  0  0  0
 22 20  1  0  0  0  0
 23 24  1  0  0  0  0
 25 26  1  0  0  0  0
 26 23  1  0  0  0  0
 27 33  1  0  0  0  0
 29 34  1  0  0  0  0
 30 28  1  6  0  0  0
 30 29  1  0  0  0  0
 30 31  1  0  0  0  0
 31 35  2  0  0  0  0
 32 29  2  0  0  0  0
 33 28  2  0  0  0  0
 33 32  1  0  0  0  0
 34 36  2  0  0  0  0
 35 36  1  0  0  0  0
 37 31  1  0  0  0  0
 38 42  1  0  0  0  0
 38 39  1  0  0  0  0
 39 37  1  0  0  0  0
 39 41  2  0  0  0  0
 40 38  1  0  0  0  0
 42 43  2  0  0  0  0
 43 41  1  0  0  0  0
M  END
>  <MODEL>
6

>  <REMARK>
 VINA RESULT:      -5.4      3.645      8.364
  Name = 
  13 active torsions:
  status: ('A' for Active; 'I' for Inactive)
    1  A    between atoms: C_3  and  C_25
    2  A    between atoms: C_3  and  C_27
    3  A    between atoms: C_4  and  C_13
    4  A    between atoms: C_4  and  C_21
    5  A    between atoms: C_8  and  C_22
    6  A    between atoms: C_9  and  C_22
    7  A    between atoms: C_14  and  N_37
    8  A    between atoms: C_19  and  C_26
    9  A    between atoms: C_19  and  C_27
   10  A    between atoms: C_21  and  C_27
   11  A    between atoms: C_21  and  C_35
   12  A    between atoms: C_23  and  C_35
   13  A    between atoms: C_36  and  N_37
                            x       y       z     vdW  Elec       q    Type
                         _______ _______ _______ _____ _____    ______ ____

>  <TORSDO>
F 13

$$$$
=
 OpenBabel11042422223D

 43 48  0  0  1  0  0  0  0  0999 V2000
  162.3060  210.0130  149.7220 C   0  0  1  0  0  3  0  0  0  0  0  0
  161.1830  208.9580  149.6790 C   0  0  0  0  0  2  0  0  0  0  0  0
  160.8560  202.8560  149.7880 C   0  0  0  0  0  0  0  0  0  0  0  0
  161.7240  207.5480  149.8840 C   0  0  1  0  0  3  0  0  0  0  0  0
  160.8490  204.0120  148.9980 C   0  0  0  0  0  3  0  0  0  0  0  0
  161.3980  206.9990  151.6040 S   0  0  0  0  0  0  0  0  0  0  0  0
  161.2460  204.2000  151.7750 C   0  0  0  0  0  3  0  0  0  0  0  0
  161.2220  205.3440  150.9800 C   0  0  0  0  0  0  0  0  0  0  0  0
  160.6480  201.5300  149.1520 C   0  0  0  0  0  1  0  0  0  0  0  0
  161.8040  206.4920  147.7050 O   0  0  0  0  0  1  0  0  0  0  0  0
  161.0740  202.9420  151.1740 C   0  0  0  0  0  3  0  0  0  0  0  0
  161.0550  205.2560  149.6050 C   0  0  0  0  0  0  0  0  0  0  0  0
  161.0710  206.5600  148.9020 C   0  0  1  0  0  3  0  0  0  0  0  0
  162.2440  211.0320  148.5610 C   0  0  2  0  0  3  0  0  0  0  0  0
  162.8510  212.3860  148.9590 C   0  0  0  0  0  2  0  0  0  0  0  0
  164.3060  211.8260  147.1200 O   0  0  0  0  0  1  0  0  0  0  0  0
  164.0430  212.7960  148.1030 C   0  0  0  0  0  2  0  0  0  0  0  0
  160.8270  211.2080  147.9980 C   0  0  0  0  0  2  0  0  0  0  0  0
  161.4000  212.9500  146.2460 O   0  0  0  0  0  1  0  0  0  0  0  0
  159.1320  212.9030  147.2330 C   0  0  1  0  0  3  0  0  0  0  0  0
  160.6120  212.5610  147.3390 C   0  0  1  0  0  0  0  0  0  0  0  0
  160.0590  213.6980  148.1520 C   0  0  0  0  0  2  0  0  0  0  0  0
  158.8570  213.5460  145.9380 N   0  0  0  0  0  0  0  0  0  0  0  0
  158.7630  212.4670  144.9480 C   0  0  0  0  0  1  0  0  0  0  0  0
  156.8630  213.9270  147.0960 O   0  0  0  0  0  1  0  0  0  0  0  0
  157.5750  214.2630  145.9290 C   0  0  0  0  0  2  0  0  0  0  0  0
  162.4110  210.6690  151.1000 C   0  0  0  0  0  2  0  0  0  0  0  0
  160.5430  210.3220  152.7250 C   0  0  0  0  0  3  0  0  0  0  0  0
  159.3880  212.2270  152.1990 C   0  0  0  0  0  0  0  0  0  0  0  0
  159.2560  211.0080  153.0410 C   0  0  2  0  0  3  0  0  0  0  0  0
  159.0290  211.3430  154.4940 C   0  0  0  0  0  0  0  0  0  0  0  0
  160.4220  212.2020  151.4370 N   0  0  0  0  0  0  0  0  0  0  0  0
  161.0940  210.9850  151.7160 C   0  0  0  0  0  0  0  0  0  0  0  0
  158.7440  213.4410  152.5610 N   0  0  0  0  0  0  0  0  0  0  0  0
  158.4620  212.5060  154.8390 C   0  0  0  0  0  3  0  0  0  0  0  0
  158.2320  213.5460  153.8690 N   0  0  0  0  0  0  0  0  0  0  0  0
  159.1160  210.2620  155.5270 C   0  0  0  0  0  2  0  0  0  0  0  0
  161.0820  208.8870  156.2910 N   0  0  0  0  0  0  0  0  0  0  0  0
  160.5400  210.0700  155.9390 C   0  0  0  0  0  0  0  0  0  0  0  0
  160.4260  207.5820  156.2770 C   0  0  0  0  0  1  0  0  0  0  0  0
  161.4480  211.0840  156.1840 C   0  0  0  0  0  3  0  0  0  0  0  0
  162.3200  209.0830  156.7010 N   0  0  0  0  0  0  0  0  0  0  0  0
  162.5700  210.4110  156.6530 C   0  0  0  0  0  3  0  0  0  0  0  0
  1  2  1  1  0  0  0
  1 27  1  0  0  0  0
  3 11  1  0  0  0  0
  4  2  1  1  0  0  0
  4  6  1  0  0  0  0
  5 12  1  0  0  0  0
  5  3  2  0  0  0  0
  8  6  1  0  0  0  0
  8  7  1  0  0  0  0
  9  3  1  0  0  0  0
 11  7  2  0  0  0  0
 12  8  2  0  0  0  0
 13 10  1  6  0  0  0
 13 12  1  0  0  0  0
 13  4  1  0  0  0  0
 14 18  1  1  0  0  0
 14 15  1  0  0  0  0
 14  1  1  0  0  0  0
 16 17  1  0  0  0  0
 17 15  1  0  0  0  0
 20 23  1  6  0  0  0
 20 21  1  0  0  0  0
 20 22  1  0  0  0  0
 21 19  1  6  0  0  0
 21 18  1  0  0  0  0
 21 22  1  0  0  0  0
 24 23  1  0  0  0  0
 26 23  1  0  0  0  0
 26 25  1  0  0  0  0
 27 33  1  0  0  0  0
 29 34  1  0  0  0  0
 29 30  1  0  0  0  0
 30 28  1  1  0  0  0
 30 31  1  0  0  0  0
 31 35  2  0  0  0  0
 31 37  1  0  0  0  0
 32 33  1  0  0  0  0
 32 29  2  0  0  0  0
 33 28  2  0  0  0  0
 34 36  2  0  0  0  0
 36 35  1  0  0  0  0
 37 39  1  0  0  0  0
 38 42  1  0  0  0  0
 39 41  2  0  0  0  0
 39 38  1  0  0  0  0
 40 38  1  0  0  0  0
 41 43  1  0  0  0  0
 43 42  2  0  0  0  0
M  END
>  <MODEL>
7

>  <REMARK>
 VINA RESULT:      -5.4      3.530      7.645
  Name = 
  13 active torsions:
  status: ('A' for Active; 'I' for Inactive)
    1  A    between atoms: C_3  and  C_25
    2  A    between atoms: C_3  and  C_27
    3  A    between atoms: C_4  and  C_13
    4  A    between atoms: C_4  and  C_21
    5  A    between atoms: C_8  and  C_22
    6  A    between atoms: C_9  and  C_22
    7  A    between atoms: C_14  and  N_37
    8  A    between atoms: C_19  and  C_26
    9  A    between atoms: C_19  and  C_27
   10  A    between atoms: C_21  and  C_27
   11  A    between atoms: C_21  and  C_35
   12  A    between atoms: C_23  and  C_35
   13  A    between atoms: C_36  and  N_37
                            x       y       z     vdW  Elec       q    Type
                         _______ _______ _______ _____ _____    ______ ____

>  <TORSDO>
F 13

$$$$
=
 OpenBabel11042422223D

 43 48  0  0  1  0  0  0  0  0999 V2000
  162.1760  210.0990  150.9320 C   0  0  1  0  0  3  0  0  0  0  0  0
  161.0880  209.0340  151.1740 C   0  0  0  0  0  2  0  0  0  0  0  0
  160.8310  203.1490  149.5470 C   0  0  0  0  0  0  0  0  0  0  0  0
  161.6340  207.6210  151.0080 C   0  0  1  0  0  3  0  0  0  0  0  0
  160.8570  204.4800  149.1150 C   0  0  0  0  0  3  0  0  0  0  0  0
  161.2130  206.6120  152.4820 S   0  0  0  0  0  0  0  0  0  0  0  0
  161.0860  203.8780  151.8520 C   0  0  0  0  0  3  0  0  0  0  0  0
  161.0950  205.2000  151.4100 C   0  0  0  0  0  0  0  0  0  0  0  0
  160.6780  202.0560  148.5530 C   0  0  0  0  0  1  0  0  0  0  0  0
  161.8560  207.2190  148.6300 O   0  0  0  0  0  1  0  0  0  0  0  0
  160.9650  202.8410  150.9130 C   0  0  0  0  0  3  0  0  0  0  0  0
  161.0110  205.5030  150.0580 C   0  0  0  0  0  0  0  0  0  0  0  0
  161.0530  206.9520  149.7510 C   0  0  1  0  0  3  0  0  0  0  0  0
  161.6390  211.4020  150.2990 C   0  0  2  0  0  3  0  0  0  0  0  0
  160.2160  211.7250  150.7810 C   0  0  0  0  0  2  0  0  0  0  0  0
  158.7680  213.3390  151.8360 O   0  0  0  0  0  1  0  0  0  0  0  0
  160.0650  213.1380  151.3320 C   0  0  0  0  0  2  0  0  0  0  0  0
  161.7110  211.3930  148.7650 C   0  0  0  0  0  2  0  0  0  0  0  0
  162.0220  213.8980  148.5210 O   0  0  0  0  0  1  0  0  0  0  0  0
  161.0540  212.5950  146.6550 C   0  0  1  0  0  3  0  0  0  0  0  0
  161.3430  212.7300  148.1430 C   0  0  1  0  0  0  0  0  0  0  0  0
  159.9440  212.9510  147.6410 C   0  0  0  0  0  2  0  0  0  0  0  0
  161.6170  213.7440  145.9280 N   0  0  0  0  0  0  0  0  0  0  0  0
  162.9150  213.3100  145.3990 C   0  0  0  0  0  1  0  0  0  0  0  0
  160.3750  212.9840  144.0990 O   0  0  0  0  0  1  0  0  0  0  0  0
  160.7880  214.1440  144.7820 C   0  0  0  0  0  2  0  0  0  0  0  0
  163.0220  210.3370  152.1850 C   0  0  0  0  0  2  0  0  0  0  0  0
  161.1020  211.0490  153.6190 C   0  0  0  0  0  3  0  0  0  0  0  0
  161.5750  209.6710  155.3850 C   0  0  0  0  0  0  0  0  0  0  0  0
  160.6370  210.7620  155.0070 C   0  0  2  0  0  3  0  0  0  0  0  0
  159.1940  210.3450  155.1450 C   0  0  0  0  0  0  0  0  0  0  0  0
  162.4870  209.4650  154.5030 N   0  0  0  0  0  0  0  0  0  0  0  0
  162.2300  210.3730  153.4450 C   0  0  0  0  0  0  0  0  0  0  0  0
  161.2040  208.6810  156.3350 N   0  0  0  0  0  0  0  0  0  0  0  0
  158.8490  209.3810  156.0090 C   0  0  0  0  0  3  0  0  0  0  0  0
  159.8430  208.5860  156.6830 N   0  0  0  0  0  0  0  0  0  0  0  0
  158.1120  211.2140  154.5830 C   0  0  0  0  0  2  0  0  0  0  0  0
  156.0220  211.3840  155.9770 N   0  0  0  0  0  0  0  0  0  0  0  0
  157.2820  211.7710  155.6950 C   0  0  0  0  0  0  0  0  0  0  0  0
  155.2590  210.3290  155.3160 C   0  0  0  0  0  1  0  0  0  0  0  0
  157.6130  212.8660  156.4710 C   0  0  0  0  0  3  0  0  0  0  0  0
  155.5410  212.1460  156.9400 N   0  0  0  0  0  0  0  0  0  0  0  0
  156.4840  213.0610  157.2590 C   0  0  0  0  0  3  0  0  0  0  0  0
  1  2  1  1  0  0  0
  1 27  1  0  0  0  0
  3 11  1  0  0  0  0
  4  2  1  1  0  0  0
  4  6  1  0  0  0  0
  5  3  2  0  0  0  0
  5 12  1  0  0  0  0
  8  7  1  0  0  0  0
  8  6  1  0  0  0  0
  9  3  1  0  0  0  0
 11  7  2  0  0  0  0
 12  8  2  0  0  0  0
 13 10  1  6  0  0  0
 13 12  1  0  0  0  0
 13  4  1  0  0  0  0
 14 18  1  6  0  0  0
 14 15  1  0  0  0  0
 14  1  1  0  0  0  0
 15 17  1  0  0  0  0
 17 16  1  0  0  0  0
 20 23  1  6  0  0  0
 20 22  1  0  0  0  0
 20 21  1  0  0  0  0
 21 19  1  1  0  0  0
 21 18  1  0  0  0  0
 22 21  1  0  0  0  0
 24 23  1  0  0  0  0
 25 26  1  0  0  0  0
 26 23  1  0  0  0  0
 27 33  1  0  0  0  0
 29 34  1  0  0  0  0
 30 28  1  6  0  0  0
 30 31  1  0  0  0  0
 30 29  1  0  0  0  0
 31 35  2  0  0  0  0
 32 29  2  0  0  0  0
 33 28  2  0  0  0  0
 33 32  1  0  0  0  0
 34 36  2  0  0  0  0
 35 36  1  0  0  0  0
 37 31  1  0  0  0  0
 37 39  1  0  0  0  0
 38 42  1  0  0  0  0
 39 38  1  0  0  0  0
 39 41  2  0  0  0  0
 40 38  1  0  0  0  0
 41 43  1  0  0  0  0
 42 43  2  0  0  0  0
M  END
>  <MODEL>
8

>  <REMARK>
 VINA RESULT:      -5.3      3.369      8.019
  Name = 
  13 active torsions:
  status: ('A' for Active; 'I' for Inactive)
    1  A    between atoms: C_3  and  C_25
    2  A    between atoms: C_3  and  C_27
    3  A    between atoms: C_4  and  C_13
    4  A    between atoms: C_4  and  C_21
    5  A    between atoms: C_8  and  C_22
    6  A    between atoms: C_9  and  C_22
    7  A    between atoms: C_14  and  N_37
    8  A    between atoms: C_19  and  C_26
    9  A    between atoms: C_19  and  C_27
   10  A    between atoms: C_21  and  C_27
   11  A    between atoms: C_21  and  C_35
   12  A    between atoms: C_23  and  C_35
   13  A    between atoms: C_36  and  N_37
                            x       y       z     vdW  Elec       q    Type
                         _______ _______ _______ _____ _____    ______ ____

>  <TORSDO>
F 13

$$$$
=
 OpenBabel11042422223D

 43 48  0  0  1  0  0  0  0  0999 V2000
  162.0620  206.9930  151.4770 C   0  0  1  0  0  3  0  0  0  0  0  0
  162.6630  208.4030  151.3150 C   0  0  0  0  0  2  0  0  0  0  0  0
  160.9890  213.5220  148.4250 C   0  0  0  0  0  0  0  0  0  0  0  0
  161.6720  209.3710  150.6800 C   0  0  1  0  0  3  0  0  0  0  0  0
  161.6610  212.2970  148.3370 C   0  0  0  0  0  3  0  0  0  0  0  0
  161.1200  210.6040  151.9220 S   0  0  0  0  0  0  0  0  0  0  0  0
  160.3070  212.9980  150.6990 C   0  0  0  0  0  3  0  0  0  0  0  0
  160.9940  211.7880  150.6030 C   0  0  0  0  0  0  0  0  0  0  0  0
  160.9970  214.4510  147.2670 C   0  0  0  0  0  1  0  0  0  0  0  0
  162.1090  209.3750  148.2970 O   0  0  0  0  0  1  0  0  0  0  0  0
  160.2930  213.8680  149.5970 C   0  0  0  0  0  3  0  0  0  0  0  0
  161.6400  211.4240  149.4300 C   0  0  0  0  0  0  0  0  0  0  0  0
  162.3060  210.1010  149.4850 C   0  0  1  0  0  3  0  0  0  0  0  0
  161.6000  206.6780  152.9190 C   0  0  2  0  0  3  0  0  0  0  0  0
  161.0200  205.2600  153.0340 C   0  0  0  0  0  2  0  0  0  0  0  0
  161.0200  203.0960  151.9680 O   0  0  0  0  0  1  0  0  0  0  0  0
  161.8220  204.2100  152.2740 C   0  0  0  0  0  2  0  0  0  0  0  0
  160.6180  207.7210  153.4710 C   0  0  0  0  0  2  0  0  0  0  0  0
  161.9810  207.7060  155.6100 O   0  0  0  0  0  1  0  0  0  0  0  0
  159.9910  209.1640  155.4330 C   0  0  1  0  0  3  0  0  0  0  0  0
  160.7530  207.9310  154.9710 C   0  0  1  0  0  0  0  0  0  0  0  0
  159.5460  207.7630  155.8510 C   0  0  0  0  0  2  0  0  0  0  0  0
  160.7730  209.8840  156.4510 N   0  0  0  0  0  0  0  0  0  0  0  0
  161.8000  210.6430  155.7290 C   0  0  0  0  0  1  0  0  0  0  0  0
  158.7820  211.1090  156.4780 O   0  0  0  0  0  1  0  0  0  0  0  0
  159.9600  210.8510  157.2030 C   0  0  0  0  0  2  0  0  0  0  0  0
  160.9900  206.7120  150.4220 C   0  0  0  0  0  2  0  0  0  0  0  0
  161.1160  204.6030  149.0850 C   0  0  0  0  0  3  0  0  0  0  0  0
  162.3190  205.4740  147.3440 C   0  0  0  0  0  0  0  0  0  0  0  0
  161.7900  204.1700  147.8270 C   0  0  2  0  0  3  0  0  0  0  0  0
  160.9080  203.5000  146.8040 C   0  0  0  0  0  0  0  0  0  0  0  0
  162.1480  206.4290  148.1860 N   0  0  0  0  0  0  0  0  0  0  0  0
  161.4660  205.8660  149.2940 C   0  0  0  0  0  0  0  0  0  0  0  0
  162.5200  205.7150  145.9580 N   0  0  0  0  0  0  0  0  0  0  0  0
  161.0680  203.7590  145.5000 C   0  0  0  0  0  3  0  0  0  0  0  0
  161.9360  204.8150  145.0450 N   0  0  0  0  0  0  0  0  0  0  0  0
  160.0910  202.3070  147.1950 C   0  0  0  0  0  2  0  0  0  0  0  0
  160.4490  200.4960  145.4820 N   0  0  0  0  0  0  0  0  0  0  0  0
  160.7330  201.0620  146.6730 C   0  0  0  0  0  0  0  0  0  0  0  0
  159.5340  201.0060  144.4640 C   0  0  0  0  0  1  0  0  0  0  0  0
  161.5660  200.2260  147.3930 C   0  0  0  0  0  3  0  0  0  0  0  0
  161.1040  199.3570  145.3770 N   0  0  0  0  0  0  0  0  0  0  0  0
  161.7900  199.1620  146.5270 C   0  0  0  0  0  3  0  0  0  0  0  0
  1 27  1  6  0  0  0
  1 14  1  0  0  0  0
  2  1  1  0  0  0  0
  3 11  1  0  0  0  0
  4  2  1  1  0  0  0
  4  6  1  0  0  0  0
  5  3  2  0  0  0  0
  5 12  1  0  0  0  0
  8  7  1  0  0  0  0
  8  6  1  0  0  0  0
  9  3  1  0  0  0  0
 11  7  2  0  0  0  0
 12 13  1  0  0  0  0
 12  8  2  0  0  0  0
 13 10  1  6  0  0  0
 13  4  1  0  0  0  0
 14 15  1  6  0  0  0
 14 18  1  0  0  0  0
 16 17  1  0  0  0  0
 17 15  1  0  0  0  0
 18 21  1  0  0  0  0
 20 22  1  0  0  0  0
 20 23  1  1  0  0  0
 21 20  1  0  0  0  0
 21 19  1  1  0  0  0
 21 22  1  0  0  0  0
 23 26  1  0  0  0  0
 24 23  1  0  0  0  0
 25 26  1  0  0  0  0
 28 33  2  0  0  0  0
 29 30  1  0  0  0  0
 29 32  2  0  0  0  0
 30 28  1  1  0  0  0
 31 37  1  0  0  0  0
 31 30  1  0  0  0  0
 32 33  1  0  0  0  0
 33 27  1  0  0  0  0
 34 29  1  0  0  0  0
 35 31  2  0  0  0  0
 36 35  1  0  0  0  0
 36 34  2  0  0  0  0
 38 39  1  0  0  0  0
 39 37  1  0  0  0  0
 39 41  2  0  0  0  0
 40 38  1  0  0  0  0
 42 38  1  0  0  0  0
 42 43  2  0  0  0  0
 43 41  1  0  0  0  0
M  END
>  <MODEL>
9

>  <REMARK>
 VINA RESULT:      -5.3      2.989      7.400
  Name = 
  13 active torsions:
  status: ('A' for Active; 'I' for Inactive)
    1  A    between atoms: C_3  and  C_25
    2  A    between atoms: C_3  and  C_27
    3  A    between atoms: C_4  and  C_13
    4  A    between atoms: C_4  and  C_21
    5  A    between atoms: C_8  and  C_22
    6  A    between atoms: C_9  and  C_22
    7  A    between atoms: C_14  and  N_37
    8  A    between atoms: C_19  and  C_26
    9  A    between atoms: C_19  and  C_27
   10  A    between atoms: C_21  and  C_27
   11  A    between atoms: C_21  and  C_35
   12  A    between atoms: C_23  and  C_35
   13  A    between atoms: C_36  and  N_37
                            x       y       z     vdW  Elec       q    Type
                         _______ _______ _______ _____ _____    ______ ____

>  <TORSDO>
F 13

$$$$
