=
 OpenBabel11042421223D

 33 38  0  0  1  0  0  0  0  0999 V2000
  160.8190  208.8580  154.8100 N   0  0  1  0  0  0  0  0  0  0  0  0
  161.0920  207.6250  155.5480 C   0  0  0  0  0  2  0  0  0  0  0  0
  161.1190  206.2070  149.1140 C   0  0  0  0  0  0  0  0  0  0  0  0
  161.2320  207.4900  148.4050 C   0  0  0  0  0  0  0  0  0  0  0  0
  161.2840  204.8160  151.0220 C   0  0  0  0  0  2  0  0  0  0  0  0
  161.1960  206.1800  150.4360 C   0  0  0  0  0  0  0  0  0  0  0  0
  161.0350  210.0010  152.5840 C   0  0  1  0  0  3  0  0  0  0  0  0
  160.3570  206.4260  154.9540 C   0  0  2  0  0  3  0  0  0  0  0  0
  161.3210  205.4760  154.2840 C   0  0  0  0  0  2  0  0  0  0  0  0
  162.2730  210.1130  151.2760 S   0  0  0  0  0  0  0  0  0  0  0  0
  160.2080  211.5280  154.3070 C   0  0  0  0  0  0  0  0  0  0  0  0
  159.8000  214.4530  156.4950 O   0  0  0  0  0  0  0  0  0  0  0  0
  161.4150  208.8000  153.4620 C   0  0  2  0  0  3  0  0  0  0  0  0
  161.0550  211.2350  153.3640 N   0  0  0  0  0  0  0  0  0  0  0  0
  160.4530  206.3800  153.4280 C   0  0  2  0  0  3  0  0  0  0  0  0
  159.3750  209.1160  154.7400 C   0  0  0  0  0  2  0  0  0  0  0  0
  159.6070  213.2780  156.0900 C   0  0  0  0  0  0  0  0  0  0  0  0
  161.1170  204.6250  148.2970 S   0  0  0  0  0  0  0  0  0  0  0  0
  158.6700  212.4520  156.7750 N   0  0  0  0  0  1  0  0  0  0  0  0
  161.6030  208.6580  149.1480 N   0  0  0  0  0  0  0  0  0  0  0  0
  160.3530  212.7940  154.9660 N   0  0  0  0  0  2  0  0  0  0  0  0
  161.6410  203.8740  149.8770 C   0  0  2  0  0  3  0  0  0  0  0  0
  159.0490  210.6140  154.6460 C   0  0  0  0  0  2  0  0  0  0  0  0
  161.0800  207.5540  147.1570 O   0  0  0  0  0  0  0  0  0  0  0  0
  161.0750  207.4720  151.2270 C   0  0  2  0  0  3  0  0  0  0  0  0
  161.6380  208.6580  150.4500 C   0  0  0  0  0  0  0  0  0  0  0  0
  161.3740  207.4100  152.7480 C   0  0  1  0  0  3  0  0  0  0  0  0
  161.0650  202.4730  150.0710 C   0  0  0  0  0  2  0  0  0  0  0  0
  159.0920  201.2840  149.3970 O   0  0  0  0  0  1  0  0  0  0  0  0
  160.1740  202.0230  148.9150 C   0  0  2  0  0  3  0  0  0  0  0  0
  160.9070  201.4890  146.5960 O   0  0  0  0  0  0  0  0  0  0  0  0
  160.9620  201.2000  147.9540 C   0  0  0  0  0  0  0  0  0  0  0  0
  161.6920  200.2590  148.3640 O   0  0  0  0  0  1  0  0  0  0  0  0
  1 16  1  6  0  0  0
  1  2  1  0  0  0  0
  3  6  2  0  0  0  0
  4  3  1  0  0  0  0
  4 20  1  0  0  0  0
  6  5  1  0  0  0  0
  6 25  1  0  0  0  0
  7 10  1  6  0  0  0
  7 14  1  0  0  0  0
  7 13  1  0  0  0  0
  8  9  1  1  0  0  0
  8  2  1  0  0  0  0
 11 23  1  0  0  0  0
 11 21  1  0  0  0  0
 13  1  1  0  0  0  0
 14 11  2  0  0  0  0
 15  9  1  0  0  0  0
 15  8  1  0  0  0  0
 17 12  2  0  0  0  0
 17 19  1  0  0  0  0
 18  3  1  0  0  0  0
 18 22  1  0  0  0  0
 20 26  2  0  0  0  0
 21 17  1  0  0  0  0
 22 28  1  0  0  0  0
 22  5  1  0  0  0  0
 23 16  1  0  0  0  0
 24  4  2  0  0  0  0
 25 27  1  0  0  0  0
 26 25  1  0  0  0  0
 26 10  1  0  0  0  0
 27 15  1  0  0  0  0
 27 13  1  0  0  0  0
 30 29  1  0  0  0  0
 30 28  1  0  0  0  0
 31 32  2  0  0  0  0
 32 33  1  0  0  0  0
 32 30  1  0  0  0  0
M  END
>  <MODEL>
1

>  <REMARK>
 VINA RESULT:      -6.8      0.000      0.000
  Name = 
  3 active torsions:
  status: ('A' for Active; 'I' for Inactive)
    1  A    between atoms: C_12  and  C_14
    2  A    between atoms: C_12  and  C_31
    3  A    between atoms: C_14  and  C_26
                            x       y       z     vdW  Elec       q    Type
                         _______ _______ _______ _____ _____    ______ ____

>  <TORSDO>
F 3

$$$$
=
 OpenBabel11042421223D

 33 38  0  0  1  0  0  0  0  0999 V2000
  162.1440  207.3610  149.1990 N   0  0  1  0  0  0  0  0  0  0  0  0
  162.7360  208.6840  149.0010 C   0  0  0  0  0  2  0  0  0  0  0  0
  160.2890  208.4330  155.1130 C   0  0  0  0  0  0  0  0  0  0  0  0
  160.0600  207.0120  155.4130 C   0  0  0  0  0  0  0  0  0  0  0  0
  161.2470  210.2150  153.8850 C   0  0  0  0  0  2  0  0  0  0  0  0
  160.8800  208.7770  153.9790 C   0  0  0  0  0  0  0  0  0  0  0  0
  161.4190  205.6800  150.9190 C   0  0  1  0  0  3  0  0  0  0  0  0
  161.8770  209.7930  149.6030 C   0  0  2  0  0  3  0  0  0  0  0  0
  162.5370  210.3910  150.8220 C   0  0  0  0  0  2  0  0  0  0  0  0
  162.0370  205.0620  152.4970 S   0  0  0  0  0  0  0  0  0  0  0  0
  161.2740  204.7720  148.6520 C   0  0  0  0  0  0  0  0  0  0  0  0
  161.6400  202.5810  145.7240 O   0  0  0  0  0  0  0  0  0  0  0  0
  162.1640  206.9920  150.6270 C   0  0  2  0  0  3  0  0  0  0  0  0
  161.6930  204.6910  149.8810 N   0  0  0  0  0  0  0  0  0  0  0  0
  161.3660  209.4420  151.0020 C   0  0  2  0  0  3  0  0  0  0  0  0
  160.7800  207.3140  148.6580 C   0  0  0  0  0  2  0  0  0  0  0  0
  161.3520  203.6330  146.3500 C   0  0  0  0  0  0  0  0  0  0  0  0
  160.0300  209.7430  156.2910 S   0  0  0  0  0  0  0  0  0  0  0  0
  160.7950  204.7340  145.6390 N   0  0  0  0  0  1  0  0  0  0  0  0
  160.6450  206.0240  154.5540 N   0  0  0  0  0  0  0  0  0  0  0  0
  161.6150  203.7040  147.7580 N   0  0  0  0  0  2  0  0  0  0  0  0
  161.1640  210.7770  155.3000 C   0  0  2  0  0  3  0  0  0  0  0  0
  160.3820  205.9050  148.1910 C   0  0  0  0  0  2  0  0  0  0  0  0
  159.4270  206.6620  156.4430 O   0  0  0  0  0  0  0  0  0  0  0  0
  161.0270  207.7560  152.8630 C   0  0  2  0  0  3  0  0  0  0  0  0
  161.1900  206.3440  153.4150 C   0  0  0  0  0  0  0  0  0  0  0  0
  161.9030  208.1500  151.6450 C   0  0  1  0  0  3  0  0  0  0  0  0
  160.7690  212.2520  155.3210 C   0  0  0  0  0  2  0  0  0  0  0  0
  159.2070  213.0150  153.6670 O   0  0  0  0  0  1  0  0  0  0  0  0
  159.3050  212.4890  154.9560 C   0  0  2  0  0  3  0  0  0  0  0  0
  159.4400  214.4500  156.4840 O   0  0  0  0  0  1  0  0  0  0  0  0
  158.6800  213.4260  155.9340 C   0  0  0  0  0  0  0  0  0  0  0  0
  157.4660  213.3090  156.2470 O   0  0  0  0  0  0  0  0  0  0  0  0
  1 16  1  1  0  0  0
  1 13  1  0  0  0  0
  2  1  1  0  0  0  0
  3  4  1  0  0  0  0
  3 18  1  0  0  0  0
  4 24  2  0  0  0  0
  5  6  1  0  0  0  0
  5 22  1  0  0  0  0
  6  3  2  0  0  0  0
  7 14  1  6  0  0  0
  7 10  1  0  0  0  0
  8  2  1  1  0  0  0
  8  9  1  0  0  0  0
  8 15  1  0  0  0  0
  9 15  1  0  0  0  0
 10 26  1  0  0  0  0
 11 14  2  0  0  0  0
 12 17  2  0  0  0  0
 13  7  1  0  0  0  0
 13 27  1  0  0  0  0
 15 27  1  0  0  0  0
 17 21  1  0  0  0  0
 19 17  1  0  0  0  0
 20  4  1  0  0  0  0
 21 11  1  0  0  0  0
 22 28  1  0  0  0  0
 22 18  1  0  0  0  0
 23 11  1  0  0  0  0
 23 16  1  0  0  0  0
 25 26  1  0  0  0  0
 25  6  1  0  0  0  0
 26 20  2  0  0  0  0
 27 25  1  0  0  0  0
 29 30  1  0  0  0  0
 30 28  1  0  0  0  0
 30 32  1  0  0  0  0
 32 33  2  0  0  0  0
 32 31  1  0  0  0  0
M  END
>  <MODEL>
2

>  <REMARK>
 VINA RESULT:      -6.4      2.974      9.346
  Name = 
  3 active torsions:
  status: ('A' for Active; 'I' for Inactive)
    1  A    between atoms: C_12  and  C_14
    2  A    between atoms: C_12  and  C_31
    3  A    between atoms: C_14  and  C_26
                            x       y       z     vdW  Elec       q    Type
                         _______ _______ _______ _____ _____    ______ ____

>  <TORSDO>
F 3

$$$$
=
 OpenBabel11042421223D

 33 38  0  0  1  0  0  0  0  0999 V2000
  161.9120  205.9430  149.2070 N   0  0  1  0  0  0  0  0  0  0  0  0
  162.4040  207.0790  148.4270 C   0  0  0  0  0  2  0  0  0  0  0  0
  160.0680  209.3770  154.1430 C   0  0  0  0  0  0  0  0  0  0  0  0
  159.9480  208.2180  155.0410 C   0  0  0  0  0  0  0  0  0  0  0  0
  160.8770  210.4970  152.2220 C   0  0  0  0  0  2  0  0  0  0  0  0
  160.6170  209.2260  152.9480 C   0  0  0  0  0  0  0  0  0  0  0  0
  161.3360  205.1420  151.5160 C   0  0  1  0  0  3  0  0  0  0  0  0
  161.4750  208.2860  148.5250 C   0  0  2  0  0  3  0  0  0  0  0  0
  162.1080  209.3940  149.3320 C   0  0  0  0  0  2  0  0  0  0  0  0
  162.0200  205.3120  153.1770 S   0  0  0  0  0  0  0  0  0  0  0  0
  161.2250  203.3280  149.8780 C   0  0  0  0  0  0  0  0  0  0  0  0
  161.7080  200.1040  148.1800 O   0  0  0  0  0  0  0  0  0  0  0  0
  161.9790  206.2360  150.6500 C   0  0  2  0  0  3  0  0  0  0  0  0
  161.6670  203.8170  151.0000 N   0  0  0  0  0  0  0  0  0  0  0  0
  161.0110  208.5520  149.9590 C   0  0  2  0  0  3  0  0  0  0  0  0
  160.5480  205.5830  148.8010 C   0  0  0  0  0  2  0  0  0  0  0  0
  161.3530  201.3050  148.2990 C   0  0  0  0  0  0  0  0  0  0  0  0
  159.7320  211.0520  154.6450 S   0  0  0  0  0  0  0  0  0  0  0  0
  160.7070  201.9500  147.2060 N   0  0  0  0  0  1  0  0  0  0  0  0
  160.5910  206.9910  154.6720 N   0  0  0  0  0  0  0  0  0  0  0  0
  161.6300  201.9990  149.5220 N   0  0  0  0  0  2  0  0  0  0  0  0
  160.7740  211.6150  153.2540 C   0  0  2  0  0  3  0  0  0  0  0  0
  160.2460  204.0910  149.0110 C   0  0  0  0  0  2  0  0  0  0  0  0
  159.3570  208.3160  156.1480 O   0  0  0  0  0  0  0  0  0  0  0  0
  160.8220  207.8310  152.3810 C   0  0  2  0  0  3  0  0  0  0  0  0
  161.0950  206.8130  153.4840 C   0  0  0  0  0  0  0  0  0  0  0  0
  161.6490  207.7040  151.0750 C   0  0  1  0  0  3  0  0  0  0  0  0
  160.2730  212.9250  152.6500 C   0  0  0  0  0  2  0  0  0  0  0  0
  159.9690  213.3440  150.3070 O   0  0  0  0  0  1  0  0  0  0  0  0
  159.3960  212.7220  151.4170 C   0  0  2  0  0  3  0  0  0  0  0  0
  157.2970  213.7840  150.5980 O   0  0  0  0  0  0  0  0  0  0  0  0
  158.0340  213.2810  151.6620 C   0  0  0  0  0  0  0  0  0  0  0  0
  157.5400  213.2790  152.8200 O   0  0  0  0  0  1  0  0  0  0  0  0
  1  2  1  6  0  0  0
  1 13  1  0  0  0  0
  3 18  1  0  0  0  0
  3  4  1  0  0  0  0
  4 24  2  0  0  0  0
  5  6  1  0  0  0  0
  5 22  1  0  0  0  0
  6  3  2  0  0  0  0
  7 14  1  6  0  0  0
  7 10  1  0  0  0  0
  8  2  1  1  0  0  0
  8  9  1  0  0  0  0
  8 15  1  0  0  0  0
  9 15  1  0  0  0  0
 10 26  1  0  0  0  0
 11 14  2  0  0  0  0
 12 17  2  0  0  0  0
 13 27  1  0  0  0  0
 13  7  1  0  0  0  0
 15 27  1  0  0  0  0
 16 23  1  0  0  0  0
 16  1  1  0  0  0  0
 17 21  1  0  0  0  0
 19 17  1  0  0  0  0
 20  4  1  0  0  0  0
 21 11  1  0  0  0  0
 22 18  1  0  0  0  0
 23 11  1  0  0  0  0
 25  6  1  0  0  0  0
 25 26  1  0  0  0  0
 26 20  2  0  0  0  0
 27 25  1  0  0  0  0
 28 22  1  0  0  0  0
 29 30  1  0  0  0  0
 30 32  1  0  0  0  0
 30 28  1  0  0  0  0
 31 32  2  0  0  0  0
 32 33  1  0  0  0  0
M  END
>  <MODEL>
3

>  <REMARK>
 VINA RESULT:      -5.4      3.310      9.114
  Name = 
  3 active torsions:
  status: ('A' for Active; 'I' for Inactive)
    1  A    between atoms: C_12  and  C_14
    2  A    between atoms: C_12  and  C_31
    3  A    between atoms: C_14  and  C_26
                            x       y       z     vdW  Elec       q    Type
                         _______ _______ _______ _____ _____    ______ ____

>  <TORSDO>
F 3

$$$$
=
 OpenBabel11042421223D

 33 38  0  0  1  0  0  0  0  0999 V2000
  161.7730  206.6580  152.7620 N   0  0  1  0  0  0  0  0  0  0  0  0
  162.1100  205.2980  153.1850 C   0  0  0  0  0  2  0  0  0  0  0  0
  160.8280  205.1760  146.7230 C   0  0  0  0  0  0  0  0  0  0  0  0
  160.8770  206.5700  146.2620 C   0  0  0  0  0  0  0  0  0  0  0  0
  161.2730  203.4330  148.2620 C   0  0  0  0  0  2  0  0  0  0  0  0
  161.1540  204.8870  147.9740 C   0  0  0  0  0  0  0  0  0  0  0  0
  161.6250  208.2120  150.7950 C   0  0  1  0  0  3  0  0  0  0  0  0
  161.2080  204.2550  152.5320 C   0  0  2  0  0  3  0  0  0  0  0  0
  161.9700  203.4370  151.5170 C   0  0  0  0  0  2  0  0  0  0  0  0
  162.5950  208.5560  149.3130 S   0  0  0  0  0  0  0  0  0  0  0  0
  161.2320  209.3860  152.9060 C   0  0  0  0  0  0  0  0  0  0  0  0
  161.4180  211.8300  155.6450 O   0  0  0  0  0  0  0  0  0  0  0  0
  162.0970  206.8550  151.3370 C   0  0  2  0  0  3  0  0  0  0  0  0
  161.8650  209.2680  151.7750 N   0  0  0  0  0  0  0  0  0  0  0  0
  161.0080  204.5080  151.0360 C   0  0  2  0  0  3  0  0  0  0  0  0
  160.3600  206.9520  153.0300 C   0  0  0  0  0  2  0  0  0  0  0  0
  161.0840  210.7610  155.0710 C   0  0  0  0  0  0  0  0  0  0  0  0
  160.5780  203.7860  145.6380 S   0  0  0  0  0  0  0  0  0  0  0  0
  160.2490  209.8350  155.7590 N   0  0  0  0  0  1  0  0  0  0  0  0
  161.4490  207.5620  147.1240 N   0  0  0  0  0  0  0  0  0  0  0  0
  161.5720  210.4940  153.7500 N   0  0  0  0  0  2  0  0  0  0  0  0
  161.3510  202.7290  146.9120 C   0  0  2  0  0  3  0  0  0  0  0  0
  160.1090  208.4450  153.2890 C   0  0  0  0  0  2  0  0  0  0  0  0
  160.4930  206.8830  145.1040 O   0  0  0  0  0  0  0  0  0  0  0  0
  161.2610  206.0000  149.0030 C   0  0  2  0  0  3  0  0  0  0  0  0
  161.7320  207.3040  148.3690 C   0  0  0  0  0  0  0  0  0  0  0  0
  161.8400  205.6340  150.3940 C   0  0  1  0  0  3  0  0  0  0  0  0
  160.7420  201.3280  146.9470 C   0  0  0  0  0  2  0  0  0  0  0  0
  159.7370  200.5570  144.9090 O   0  0  0  0  0  1  0  0  0  0  0  0
  160.9250  200.5590  145.6400 C   0  0  2  0  0  3  0  0  0  0  0  0
  161.3430  198.2160  144.9060 O   0  0  0  0  0  0  0  0  0  0  0  0
  161.3450  199.1570  145.9280 C   0  0  0  0  0  0  0  0  0  0  0  0
  161.7210  198.8250  147.0830 O   0  0  0  0  0  1  0  0  0  0  0  0
  1 16  1  6  0  0  0
  1  2  1  0  0  0  0
  3  6  2  0  0  0  0
  4  3  1  0  0  0  0
  4 20  1  0  0  0  0
  6  5  1  0  0  0  0
  6 25  1  0  0  0  0
  7 10  1  6  0  0  0
  7 13  1  0  0  0  0
  7 14  1  0  0  0  0
  8  9  1  6  0  0  0
  8  2  1  0  0  0  0
 11 23  1  0  0  0  0
 11 21  1  0  0  0  0
 13  1  1  0  0  0  0
 14 11  2  0  0  0  0
 15  9  1  0  0  0  0
 15  8  1  0  0  0  0
 16 23  1  0  0  0  0
 17 12  2  0  0  0  0
 17 19  1  0  0  0  0
 18  3  1  0  0  0  0
 18 22  1  0  0  0  0
 20 26  2  0  0  0  0
 21 17  1  0  0  0  0
 22 28  1  0  0  0  0
 22  5  1  0  0  0  0
 24  4  2  0  0  0  0
 25 27  1  0  0  0  0
 26 25  1  0  0  0  0
 26 10  1  0  0  0  0
 27 15  1  0  0  0  0
 27 13  1  0  0  0  0
 29 30  1  0  0  0  0
 30 32  1  0  0  0  0
 30 28  1  0  0  0  0
 31 32  2  0  0  0  0
 32 33  1  0  0  0  0
M  END
>  <MODEL>
4

>  <REMARK>
 VINA RESULT:      -5.3      1.998      3.007
  Name = 
  3 active torsions:
  status: ('A' for Active; 'I' for Inactive)
    1  A    between atoms: C_12  and  C_14
    2  A    between atoms: C_12  and  C_31
    3  A    between atoms: C_14  and  C_26
                            x       y       z     vdW  Elec       q    Type
                         _______ _______ _______ _____ _____    ______ ____

>  <TORSDO>
F 3

$$$$
=
 OpenBabel11042421223D

 33 38  0  0  1  0  0  0  0  0999 V2000
  161.8740  205.5560  148.6980 N   0  0  1  0  0  0  0  0  0  0  0  0
  162.3340  206.7540  147.9950 C   0  0  0  0  0  2  0  0  0  0  0  0
  160.3030  208.5550  153.9980 C   0  0  0  0  0  0  0  0  0  0  0  0
  160.2200  207.3240  154.7980 C   0  0  0  0  0  0  0  0  0  0  0  0
  161.0220  209.8360  152.1420 C   0  0  0  0  0  2  0  0  0  0  0  0
  160.7900  208.5070  152.7680 C   0  0  0  0  0  0  0  0  0  0  0  0
  161.4090  204.5600  150.9560 C   0  0  1  0  0  3  0  0  0  0  0  0
  161.4200  207.9510  148.2430 C   0  0  2  0  0  3  0  0  0  0  0  0
  162.0990  208.9830  149.1100 C   0  0  0  0  0  2  0  0  0  0  0  0
  162.1760  204.5850  152.5890 S   0  0  0  0  0  0  0  0  0  0  0  0
  161.2050  202.8950  149.1750 C   0  0  0  0  0  0  0  0  0  0  0  0
  161.5800  199.8280  147.1840 O   0  0  0  0  0  0  0  0  0  0  0  0
  162.0160  205.7230  150.1560 C   0  0  2  0  0  3  0  0  0  0  0  0
  161.7050  203.2840  150.3120 N   0  0  0  0  0  0  0  0  0  0  0  0
  161.0300  208.0930  149.7160 C   0  0  2  0  0  3  0  0  0  0  0  0
  160.4890  205.2360  148.3320 C   0  0  0  0  0  2  0  0  0  0  0  0
  161.2390  201.0160  147.4230 C   0  0  0  0  0  0  0  0  0  0  0  0
  160.0030  210.1820  154.6590 S   0  0  0  0  0  0  0  0  0  0  0  0
  160.5440  201.7540  146.4240 N   0  0  0  0  0  1  0  0  0  0  0  0
  160.8350  206.1320  154.2920 N   0  0  0  0  0  0  0  0  0  0  0  0
  161.5820  201.6010  148.6860 N   0  0  0  0  0  2  0  0  0  0  0  0
  160.9780  210.8600  153.2710 C   0  0  2  0  0  3  0  0  0  0  0  0
  160.1890  203.7320  148.4270 C   0  0  0  0  0  2  0  0  0  0  0  0
  159.6850  207.3280  155.9370 O   0  0  0  0  0  0  0  0  0  0  0  0
  160.9570  207.1650  152.0730 C   0  0  2  0  0  3  0  0  0  0  0  0
  161.2770  206.0560  153.0690 C   0  0  0  0  0  0  0  0  0  0  0  0
  161.7170  207.1500  150.7210 C   0  0  1  0  0  3  0  0  0  0  0  0
  160.4560  212.2190  152.8080 C   0  0  0  0  0  2  0  0  0  0  0  0
  158.7200  212.6700  151.2130 O   0  0  0  0  0  1  0  0  0  0  0  0
  158.9580  212.2200  152.5120 C   0  0  2  0  0  3  0  0  0  0  0  0
  158.9620  213.7110  154.5070 O   0  0  0  0  0  1  0  0  0  0  0  0
  158.2460  213.0950  153.4890 C   0  0  0  0  0  0  0  0  0  0  0  0
  157.0080  213.2960  153.3850 O   0  0  0  0  0  0  0  0  0  0  0  0
  1  2  1  6  0  0  0
  1 13  1  0  0  0  0
  3 18  1  0  0  0  0
  3  4  1  0  0  0  0
  4 24  2  0  0  0  0
  5  6  1  0  0  0  0
  5 22  1  0  0  0  0
  6  3  2  0  0  0  0
  7 14  1  6  0  0  0
  7 10  1  0  0  0  0
  8  2  1  1  0  0  0
  8  9  1  0  0  0  0
  8 15  1  0  0  0  0
  9 15  1  0  0  0  0
 10 26  1  0  0  0  0
 11 14  2  0  0  0  0
 12 17  2  0  0  0  0
 13 27  1  0  0  0  0
 13  7  1  0  0  0  0
 15 27  1  0  0  0  0
 16 23  1  0  0  0  0
 16  1  1  0  0  0  0
 17 21  1  0  0  0  0
 19 17  1  0  0  0  0
 20  4  1  0  0  0  0
 21 11  1  0  0  0  0
 22 18  1  0  0  0  0
 23 11  1  0  0  0  0
 25  6  1  0  0  0  0
 25 26  1  0  0  0  0
 26 20  2  0  0  0  0
 27 25  1  0  0  0  0
 28 22  1  0  0  0  0
 29 30  1  0  0  0  0
 30 28  1  0  0  0  0
 30 32  1  0  0  0  0
 32 31  1  0  0  0  0
 33 32  2  0  0  0  0
M  END
>  <MODEL>
5

>  <REMARK>
 VINA RESULT:      -5.1      3.184      9.347
  Name = 
  3 active torsions:
  status: ('A' for Active; 'I' for Inactive)
    1  A    between atoms: C_12  and  C_14
    2  A    between atoms: C_12  and  C_31
    3  A    between atoms: C_14  and  C_26
                            x       y       z     vdW  Elec       q    Type
                         _______ _______ _______ _____ _____    ______ ____

>  <TORSDO>
F 3

$$$$
=
 OpenBabel11042421223D

 33 38  0  0  1  0  0  0  0  0999 V2000
  161.8810  206.4470  150.0350 N   0  0  1  0  0  0  0  0  0  0  0  0
  162.5020  207.3290  149.0460 C   0  0  0  0  0  2  0  0  0  0  0  0
  159.5290  211.0920  153.5630 C   0  0  0  0  0  0  0  0  0  0  0  0
  159.2610  210.2240  154.7190 C   0  0  0  0  0  0  0  0  0  0  0  0
  160.6090  211.6470  151.5320 C   0  0  0  0  0  2  0  0  0  0  0  0
  160.2210  210.6220  152.5360 C   0  0  0  0  0  0  0  0  0  0  0  0
  160.9930  206.3070  152.3800 C   0  0  1  0  0  3  0  0  0  0  0  0
  161.6050  208.5110  148.6890 C   0  0  2  0  0  3  0  0  0  0  0  0
  162.1630  209.8010  149.2390 C   0  0  0  0  0  2  0  0  0  0  0  0
  161.4640  206.9300  154.0060 S   0  0  0  0  0  0  0  0  0  0  0  0
  161.0370  204.1130  151.2980 C   0  0  0  0  0  0  0  0  0  0  0  0
  161.6340  200.5490  150.6220 O   0  0  0  0  0  0  0  0  0  0  0  0
  161.7730  207.1250  151.3400 C   0  0  2  0  0  3  0  0  0  0  0  0
  161.3460  204.8930  152.2920 N   0  0  0  0  0  0  0  0  0  0  0  0
  160.9710  209.1560  149.9230 C   0  0  2  0  0  3  0  0  0  0  0  0
  160.5700  205.9820  149.5690 C   0  0  0  0  0  2  0  0  0  0  0  0
  161.3030  201.7350  150.3610 C   0  0  0  0  0  0  0  0  0  0  0  0
  159.1820  212.8390  153.5410 S   0  0  0  0  0  0  0  0  0  0  0  0
  160.8210  202.0510  149.0590 N   0  0  0  0  0  1  0  0  0  0  0  0
  159.9070  208.9460  154.7860 N   0  0  0  0  0  0  0  0  0  0  0  0
  161.4430  202.7390  151.3750 N   0  0  0  0  0  2  0  0  0  0  0  0
  160.4090  213.0040  152.1980 C   0  0  2  0  0  3  0  0  0  0  0  0
  160.1990  204.6020  150.1360 C   0  0  0  0  0  2  0  0  0  0  0  0
  158.5360  210.6180  155.6700 O   0  0  0  0  0  0  0  0  0  0  0  0
  160.4540  209.1260  152.4030 C   0  0  2  0  0  3  0  0  0  0  0  0
  160.5530  208.4520  153.7670 C   0  0  0  0  0  0  0  0  0  0  0  0
  161.4360  208.6510  151.3010 C   0  0  1  0  0  3  0  0  0  0  0  0
  160.0290  214.0950  151.1990 C   0  0  0  0  0  2  0  0  0  0  0  0
  161.0030  214.3990  149.0270 O   0  0  0  0  0  1  0  0  0  0  0  0
  160.0870  213.6290  149.7460 C   0  0  2  0  0  3  0  0  0  0  0  0
  157.6160  213.3370  149.8390 O   0  0  0  0  0  1  0  0  0  0  0  0
  158.7370  213.7340  149.1210 C   0  0  0  0  0  0  0  0  0  0  0  0
  158.6030  214.2000  147.9590 O   0  0  0  0  0  0  0  0  0  0  0  0
  1  2  1  6  0  0  0
  1 13  1  0  0  0  0
  3  4  1  0  0  0  0
  4 20  1  0  0  0  0
  4 24  2  0  0  0  0
  5 22  1  0  0  0  0
  5  6  1  0  0  0  0
  6  3  2  0  0  0  0
  7 14  1  1  0  0  0
  7 10  1  0  0  0  0
  8  2  1  1  0  0  0
  8  9  1  0  0  0  0
  8 15  1  0  0  0  0
  9 15  1  0  0  0  0
 11 21  1  0  0  0  0
 11 14  2  0  0  0  0
 13  7  1  0  0  0  0
 15 27  1  0  0  0  0
 16  1  1  0  0  0  0
 16 23  1  0  0  0  0
 17 12  2  0  0  0  0
 17 21  1  0  0  0  0
 18  3  1  0  0  0  0
 19 17  1  0  0  0  0
 22 18  1  0  0  0  0
 23 11  1  0  0  0  0
 25  6  1  0  0  0  0
 25 26  1  0  0  0  0
 26 10  1  0  0  0  0
 26 20  2  0  0  0  0
 27 13  1  0  0  0  0
 27 25  1  0  0  0  0
 28 22  1  0  0  0  0
 29 30  1  0  0  0  0
 30 28  1  0  0  0  0
 32 30  1  0  0  0  0
 32 31  1  0  0  0  0
 33 32  2  0  0  0  0
M  END
>  <MODEL>
6

>  <REMARK>
 VINA RESULT:      -5.0      3.594      8.865
  Name = 
  3 active torsions:
  status: ('A' for Active; 'I' for Inactive)
    1  A    between atoms: C_12  and  C_14
    2  A    between atoms: C_12  and  C_31
    3  A    between atoms: C_14  and  C_26
                            x       y       z     vdW  Elec       q    Type
                         _______ _______ _______ _____ _____    ______ ____

>  <TORSDO>
F 3

$$$$
=
 OpenBabel11042421223D

 33 38  0  0  1  0  0  0  0  0999 V2000
  160.5090  202.9910  149.7910 N   0  0  1  0  0  0  0  0  0  0  0  0
  160.0610  202.7980  151.1700 C   0  0  0  0  0  2  0  0  0  0  0  0
  162.0830  209.0350  150.5270 C   0  0  0  0  0  0  0  0  0  0  0  0
  162.1550  209.3040  149.0830 C   0  0  0  0  0  0  0  0  0  0  0  0
  161.3790  207.8080  152.4240 C   0  0  0  0  0  2  0  0  0  0  0  0
  161.6000  207.8790  150.9560 C   0  0  0  0  0  0  0  0  0  0  0  0
  160.9600  204.6980  148.0050 C   0  0  1  0  0  3  0  0  0  0  0  0
  160.9830  203.4850  152.1740 C   0  0  2  0  0  3  0  0  0  0  0  0
  160.3070  204.6800  152.8030 C   0  0  0  0  0  2  0  0  0  0  0  0
  160.1870  206.2160  147.4100 S   0  0  0  0  0  0  0  0  0  0  0  0
  161.1590  202.4160  147.1440 C   0  0  0  0  0  0  0  0  0  0  0  0
  160.7700  199.4050  145.0730 O   0  0  0  0  0  0  0  0  0  0  0  0
  160.3640  204.4020  149.3890 C   0  0  2  0  0  3  0  0  0  0  0  0
  160.6580  203.6150  147.0730 N   0  0  0  0  0  0  0  0  0  0  0  0
  161.3680  204.9000  151.7400 C   0  0  2  0  0  3  0  0  0  0  0  0
  161.8940  202.5310  149.6240 C   0  0  0  0  0  2  0  0  0  0  0  0
  161.1180  200.0790  146.0760 C   0  0  0  0  0  0  0  0  0  0  0  0
  162.3920  210.2670  151.7760 S   0  0  0  0  0  0  0  0  0  0  0  0
  161.8210  199.4380  147.1350 N   0  0  0  0  0  1  0  0  0  0  0  0
  161.5340  208.3820  148.1790 N   0  0  0  0  0  0  0  0  0  0  0  0
  160.7750  201.4700  146.1370 N   0  0  0  0  0  2  0  0  0  0  0  0
  161.4270  209.2420  152.9400 C   0  0  2  0  0  3  0  0  0  0  0  0
  162.1830  202.0450  148.1950 C   0  0  0  0  0  2  0  0  0  0  0  0
  162.6860  210.3590  148.6470 O   0  0  0  0  0  0  0  0  0  0  0  0
  161.4260  206.7250  149.9820 C   0  0  2  0  0  3  0  0  0  0  0  0
  161.0950  207.2220  148.5790 C   0  0  0  0  0  0  0  0  0  0  0  0
  160.6710  205.4690  150.4900 C   0  0  1  0  0  3  0  0  0  0  0  0
  161.9600  209.3330  154.3680 C   0  0  0  0  0  2  0  0  0  0  0  0
  161.1080  210.4130  156.3350 O   0  0  0  0  0  1  0  0  0  0  0  0
  160.8540  209.3890  155.4210 C   0  0  2  0  0  3  0  0  0  0  0  0
  159.9630  207.0720  155.6200 O   0  0  0  0  0  0  0  0  0  0  0  0
  160.7640  208.0830  156.1360 C   0  0  0  0  0  0  0  0  0  0  0  0
  161.4250  207.8820  157.1890 O   0  0  0  0  0  1  0  0  0  0  0  0
  1 16  1  1  0  0  0
  1  2  1  0  0  0  0
  3  6  2  0  0  0  0
  3 18  1  0  0  0  0
  4  3  1  0  0  0  0
  5 22  1  0  0  0  0
  6  5  1  0  0  0  0
  7 14  1  6  0  0  0
  7 13  1  0  0  0  0
  8  2  1  6  0  0  0
  8  9  1  0  0  0  0
 10  7  1  0  0  0  0
 10 26  1  0  0  0  0
 11 23  1  0  0  0  0
 12 17  2  0  0  0  0
 13  1  1  0  0  0  0
 13 27  1  0  0  0  0
 14 11  2  0  0  0  0
 15  8  1  0  0  0  0
 15  9  1  0  0  0  0
 17 21  1  0  0  0  0
 17 19  1  0  0  0  0
 18 22  1  0  0  0  0
 20 26  2  0  0  0  0
 20  4  1  0  0  0  0
 21 11  1  0  0  0  0
 22 28  1  0  0  0  0
 23 16  1  0  0  0  0
 24  4  2  0  0  0  0
 25 27  1  0  0  0  0
 25  6  1  0  0  0  0
 26 25  1  0  0  0  0
 27 15  1  0  0  0  0
 28 30  1  0  0  0  0
 30 32  1  0  0  0  0
 30 29  1  0  0  0  0
 31 32  2  0  0  0  0
 32 33  1  0  0  0  0
M  END
>  <MODEL>
7

>  <REMARK>
 VINA RESULT:      -4.7      3.459      8.885
  Name = 
  3 active torsions:
  status: ('A' for Active; 'I' for Inactive)
    1  A    between atoms: C_12  and  C_14
    2  A    between atoms: C_12  and  C_31
    3  A    between atoms: C_14  and  C_26
                            x       y       z     vdW  Elec       q    Type
                         _______ _______ _______ _____ _____    ______ ____

>  <TORSDO>
F 3

$$$$
