=
 OpenBabel11052411383D

 43 48  0  0  1  0  0  0  0  0999 V2000
  161.6270  206.6170  150.6390 C   0  0  0  0  0  0  0  0  0  0  0  0
  162.1640  210.5220  149.0080 C   0  0  0  0  0  0  0  0  0  0  0  0
  161.4530  205.5120  149.7450 C   0  0  0  0  0  0  0  0  0  0  0  0
  161.9910  209.4030  148.1750 C   0  0  0  0  0  3  0  0  0  0  0  0
  161.5960  207.0530  147.8540 C   0  0  0  0  0  3  0  0  0  0  0  0
  160.9790  201.7910  149.5890 O   0  0  0  0  0  1  0  0  0  0  0  0
  161.7860  207.9300  150.1060 C   0  0  0  0  0  0  0  0  0  0  0  0
  161.1310  203.1270  149.2190 C   0  0  0  0  0  0  0  0  0  0  0  0
  162.1210  210.3450  150.3870 C   0  0  0  0  0  3  0  0  0  0  0  0
  161.3260  204.1520  150.1830 C   0  0  0  0  0  0  0  0  0  0  0  0
  161.4270  205.7680  148.3460 C   0  0  0  0  0  0  0  0  0  0  0  0
  161.7900  208.1290  148.7100 C   0  0  0  0  0  0  0  0  0  0  0  0
  161.2390  204.7390  147.4290 C   0  0  0  0  0  3  0  0  0  0  0  0
  161.9290  209.0630  150.9300 C   0  0  0  0  0  3  0  0  0  0  0  0
  161.0890  203.4320  147.8620 C   0  0  0  0  0  3  0  0  0  0  0  0
  162.4920  211.8170  148.4970 N   0  0  0  0  0  0  0  0  0  0  0  0
  161.8010  212.5240  147.6520 C   0  0  0  0  0  0  0  0  0  0  0  0
  162.3560  213.8280  147.2170 C   0  0  0  0  0  0  0  0  0  0  0  0
  163.2200  214.4330  147.9000 O   0  0  0  0  0  1  0  0  0  0  0  0
  161.9170  214.3880  146.0240 O   0  0  0  0  0  0  0  0  0  0  0  0
  160.5400  212.0750  147.2250 O   0  0  0  0  0  0  0  0  0  0  0  0
  158.7310  213.4500  145.6420 C   0  0  0  0  0  2  0  0  0  0  0  0
  156.3780  213.9320  145.5520 O   0  0  0  0  0  0  0  0  0  0  0  0
  157.2070  213.5770  147.7740 C   0  0  0  0  0  2  0  0  0  0  0  0
  159.3580  212.4860  147.8060 N   0  0  0  0  0  0  0  0  0  0  0  0
  158.5000  213.1880  147.1180 C   0  0  0  0  0  0  0  0  0  0  0  0
  156.3790  214.4530  146.8620 C   0  0  0  0  0  2  0  0  0  0  0  0
  157.6310  214.3000  145.0250 C   0  0  0  0  0  2  0  0  0  0  0  0
  160.4390  203.2780  152.3690 C   0  0  0  0  0  2  0  0  0  0  0  0
  161.4080  203.8110  151.6320 C   0  0  0  0  0  3  0  0  0  0  0  0
  161.6120  206.3830  152.0290 O   0  0  0  0  0  0  0  0  0  0  0  0
  160.8040  206.2850  154.2830 C   0  0  0  0  0  2  0  0  0  0  0  0
  160.7550  207.0260  152.9620 C   0  0  1  0  0  3  0  0  0  0  0  0
  161.5970  207.5730  154.1070 C   0  0  1  0  0  3  0  0  0  0  0  0
  160.8970  208.7460  154.7240 C   0  0  0  0  0  0  0  0  0  0  0  0
  159.4310  210.8610  155.8560 C   0  0  0  0  0  3  0  0  0  0  0  0
  159.9190  210.9720  154.5410 C   0  0  0  0  0  0  0  0  0  0  0  0
  159.6680  209.7000  156.5990 C   0  0  0  0  0  3  0  0  0  0  0  0
  160.3950  208.6440  156.0330 C   0  0  0  0  0  3  0  0  0  0  0  0
  160.6440  209.9070  153.9800 C   0  0  0  0  0  3  0  0  0  0  0  0
  158.8760  213.2120  154.2800 O   0  0  0  0  0  1  0  0  0  0  0  0
  160.1470  212.3090  152.5880 O   0  0  0  0  0  0  0  0  0  0  0  0
  159.6540  212.1810  153.7440 C   0  0  0  0  0  0  0  0  0  0  0  0
  1 31  1  0  0  0  0
  2  9  1  0  0  0  0
  3 10  1  0  0  0  0
  3  1  2  0  0  0  0
  4 12  1  0  0  0  0
  4  2  2  0  0  0  0
  5 11  2  0  0  0  0
  5 12  1  0  0  0  0
  7  1  1  0  0  0  0
  7 14  1  0  0  0  0
  8  6  1  0  0  0  0
  8 10  2  0  0  0  0
  9 14  2  0  0  0  0
 10 30  1  0  0  0  0
 11  3  1  0  0  0  0
 12  7  2  0  0  0  0
 13 15  2  0  0  0  0
 13 11  1  0  0  0  0
 15  8  1  0  0  0  0
 16  2  1  0  0  0  0
 17 16  2  0  0  0  0
 18 17  1  0  0  0  0
 18 19  1  0  0  0  0
 20 18  2  0  0  0  0
 21 17  1  0  0  0  0
 21 25  1  0  0  0  0
 22 26  1  0  0  0  0
 23 27  1  0  0  0  0
 26 24  1  0  0  0  0
 26 25  2  0  0  0  0
 27 24  1  0  0  0  0
 28 23  1  0  0  0  0
 28 22  1  0  0  0  0
 30 29  2  0  0  0  0
 33 31  1  6  0  0  0
 33 34  1  0  0  0  0
 33 32  1  0  0  0  0
 34 32  1  0  0  0  0
 34 35  1  1  0  0  0
 35 39  1  0  0  0  0
 36 38  1  0  0  0  0
 37 36  2  0  0  0  0
 39 38  2  0  0  0  0
 40 37  1  0  0  0  0
 40 35  2  0  0  0  0
 42 43  2  0  0  0  0
 43 41  1  0  0  0  0
 43 37  1  0  0  0  0
M  END
>  <MODEL>
1

>  <REMARK>
 VINA RESULT:      -9.2      0.000      0.000
  Name = 
  9 active torsions:
  status: ('A' for Active; 'I' for Inactive)
    1  A    between atoms: C_2  and  O_43
    2  A    between atoms: C_3  and  N_10
    3  A    between atoms: C_6  and  C_36
    4  A    between atoms: C_11  and  O_43
    5  A    between atoms: C_18  and  C_31
    6  A    between atoms: C_19  and  C_32
    7  A    between atoms: C_20  and  C_38
    8  A    between atoms: N_22  and  O_35
    9  A    between atoms: C_31  and  O_35
                            x       y       z     vdW  Elec       q    Type
                         _______ _______ _______ _____ _____    ______ ____

>  <TORSDO>
F 9

$$$$
=
 OpenBabel11052411383D

 43 48  0  0  1  0  0  0  0  0999 V2000
  161.6050  205.9840  149.8880 C   0  0  0  0  0  0  0  0  0  0  0  0
  161.9880  210.1520  149.0660 C   0  0  0  0  0  0  0  0  0  0  0  0
  161.4740  205.0720  148.7930 C   0  0  0  0  0  0  0  0  0  0  0  0
  161.8580  209.2140  148.0270 C   0  0  0  0  0  3  0  0  0  0  0  0
  161.5570  206.9600  147.2450 C   0  0  0  0  0  3  0  0  0  0  0  0
  161.1470  201.4400  147.9010 O   0  0  0  0  0  1  0  0  0  0  0  0
  161.7120  207.3810  149.6270 C   0  0  0  0  0  0  0  0  0  0  0  0
  161.2470  202.8270  147.8030 C   0  0  0  0  0  0  0  0  0  0  0  0
  161.9520  209.7030  150.3830 C   0  0  0  0  0  3  0  0  0  0  0  0
  161.4010  203.6470  148.9520 C   0  0  0  0  0  0  0  0  0  0  0  0
  161.4380  205.5980  147.4720 C   0  0  0  0  0  0  0  0  0  0  0  0
  161.7080  207.8530  148.2980 C   0  0  0  0  0  0  0  0  0  0  0  0
  161.2900  204.7640  146.3680 C   0  0  0  0  0  3  0  0  0  0  0  0
  161.8110  208.3340  150.6600 C   0  0  0  0  0  3  0  0  0  0  0  0
  161.1920  203.3930  146.5330 C   0  0  0  0  0  3  0  0  0  0  0  0
  162.2650  211.5340  148.8230 N   0  0  0  0  0  0  0  0  0  0  0  0
  161.7550  212.2830  147.8900 C   0  0  0  0  0  0  0  0  0  0  0  0
  162.2230  213.6860  147.7900 C   0  0  0  0  0  0  0  0  0  0  0  0
  162.2190  214.4510  148.7870 O   0  0  0  0  0  1  0  0  0  0  0  0
  162.6850  214.1610  146.5690 O   0  0  0  0  0  0  0  0  0  0  0  0
  160.7470  211.7760  147.0530 O   0  0  0  0  0  0  0  0  0  0  0  0
  160.5770  212.5210  144.3910 C   0  0  0  0  0  2  0  0  0  0  0  0
  158.9160  213.1590  142.7750 O   0  0  0  0  0  0  0  0  0  0  0  0
  158.3250  213.7060  145.0340 C   0  0  0  0  0  2  0  0  0  0  0  0
  159.6510  212.5160  146.6600 N   0  0  0  0  0  0  0  0  0  0  0  0
  159.5540  212.9410  145.4310 C   0  0  0  0  0  0  0  0  0  0  0  0
  158.4240  214.1870  143.6050 C   0  0  0  0  0  2  0  0  0  0  0  0
  160.3010  213.1340  143.0260 C   0  0  0  0  0  2  0  0  0  0  0  0
  160.5660  202.2920  150.8990 C   0  0  0  0  0  2  0  0  0  0  0  0
  161.4970  203.0300  150.3050 C   0  0  0  0  0  3  0  0  0  0  0  0
  161.6000  205.4780  151.2050 O   0  0  0  0  0  0  0  0  0  0  0  0
  160.8450  204.9950  153.4280 C   0  0  0  0  0  2  0  0  0  0  0  0
  160.8060  205.9760  152.2730 C   0  0  1  0  0  3  0  0  0  0  0  0
  161.7080  206.2500  153.4690 C   0  0  1  0  0  3  0  0  0  0  0  0
  161.0920  207.3180  154.3230 C   0  0  0  0  0  0  0  0  0  0  0  0
  159.7830  209.2800  155.8520 C   0  0  0  0  0  3  0  0  0  0  0  0
  160.5090  209.6540  154.7080 C   0  0  0  0  0  0  0  0  0  0  0  0
  159.7050  207.9340  156.2280 C   0  0  0  0  0  3  0  0  0  0  0  0
  160.3540  206.9570  155.4620 C   0  0  0  0  0  3  0  0  0  0  0  0
  161.1550  208.6670  153.9440 C   0  0  0  0  0  3  0  0  0  0  0  0
  160.4380  212.0780  155.2450 O   0  0  0  0  0  1  0  0  0  0  0  0
  160.7860  211.3690  153.0840 O   0  0  0  0  0  0  0  0  0  0  0  0
  160.5770  211.0650  154.2920 C   0  0  0  0  0  0  0  0  0  0  0  0
  1 31  1  0  0  0  0
  2  9  1  0  0  0  0
  3 10  1  0  0  0  0
  3  1  2  0  0  0  0
  4 12  1  0  0  0  0
  4  2  2  0  0  0  0
  5 11  2  0  0  0  0
  5 12  1  0  0  0  0
  7  1  1  0  0  0  0
  7 14  1  0  0  0  0
  8  6  1  0  0  0  0
  8 10  2  0  0  0  0
  9 14  2  0  0  0  0
 10 30  1  0  0  0  0
 11  3  1  0  0  0  0
 12  7  2  0  0  0  0
 13 15  2  0  0  0  0
 13 11  1  0  0  0  0
 15  8  1  0  0  0  0
 16  2  1  0  0  0  0
 17 16  2  0  0  0  0
 18 17  1  0  0  0  0
 18 19  1  0  0  0  0
 20 18  2  0  0  0  0
 21 17  1  0  0  0  0
 22 26  1  0  0  0  0
 23 28  1  0  0  0  0
 23 27  1  0  0  0  0
 24 26  1  0  0  0  0
 25 21  1  0  0  0  0
 26 25  2  0  0  0  0
 27 24  1  0  0  0  0
 28 22  1  0  0  0  0
 30 29  2  0  0  0  0
 32 34  1  0  0  0  0
 33 31  1  6  0  0  0
 33 32  1  0  0  0  0
 33 34  1  0  0  0  0
 34 35  1  1  0  0  0
 35 39  1  0  0  0  0
 36 38  1  0  0  0  0
 37 36  2  0  0  0  0
 39 38  2  0  0  0  0
 40 35  2  0  0  0  0
 40 37  1  0  0  0  0
 42 43  2  0  0  0  0
 43 37  1  0  0  0  0
 43 41  1  0  0  0  0
M  END
>  <MODEL>
2

>  <REMARK>
 VINA RESULT:      -9.1      1.335      1.655
  Name = 
  9 active torsions:
  status: ('A' for Active; 'I' for Inactive)
    1  A    between atoms: C_2  and  O_43
    2  A    between atoms: C_3  and  N_10
    3  A    between atoms: C_6  and  C_36
    4  A    between atoms: C_11  and  O_43
    5  A    between atoms: C_18  and  C_31
    6  A    between atoms: C_19  and  C_32
    7  A    between atoms: C_20  and  C_38
    8  A    between atoms: N_22  and  O_35
    9  A    between atoms: C_31  and  O_35
                            x       y       z     vdW  Elec       q    Type
                         _______ _______ _______ _____ _____    ______ ____

>  <TORSDO>
F 9

$$$$
=
 OpenBabel11052411383D

 43 48  0  0  1  0  0  0  0  0999 V2000
  160.9920  209.7070  152.3570 C   0  0  0  0  0  0  0  0  0  0  0  0
  162.0060  207.5930  148.7920 C   0  0  0  0  0  0  0  0  0  0  0  0
  160.8200  208.9700  153.5720 C   0  0  0  0  0  0  0  0  0  0  0  0
  161.8270  206.9190  150.0130 C   0  0  0  0  0  3  0  0  0  0  0  0
  161.2780  206.9020  152.3540 C   0  0  0  0  0  3  0  0  0  0  0  0
  160.0640  209.3080  157.2340 O   0  0  0  0  0  1  0  0  0  0  0  0
  161.3100  209.0090  151.1550 C   0  0  0  0  0  0  0  0  0  0  0  0
  160.3600  208.7660  155.9840 C   0  0  0  0  0  0  0  0  0  0  0  0
  161.8090  208.9700  148.7520 C   0  0  0  0  0  3  0  0  0  0  0  0
  160.5390  209.5850  154.8380 C   0  0  0  0  0  0  0  0  0  0  0  0
  160.9560  207.5550  153.5340 C   0  0  0  0  0  0  0  0  0  0  0  0
  161.4710  207.6080  151.1730 C   0  0  0  0  0  0  0  0  0  0  0  0
  160.7780  206.7830  154.6770 C   0  0  0  0  0  3  0  0  0  0  0  0
  161.4610  209.6700  149.9200 C   0  0  0  0  0  3  0  0  0  0  0  0
  160.4810  207.3830  155.8890 C   0  0  0  0  0  3  0  0  0  0  0  0
  162.4880  206.9390  147.6160 N   0  0  0  0  0  0  0  0  0  0  0  0
  162.0760  205.8070  147.1250 C   0  0  0  0  0  0  0  0  0  0  0  0
  162.7540  205.2850  145.9140 C   0  0  0  0  0  0  0  0  0  0  0  0
  163.8590  204.6900  145.9870 O   0  0  0  0  0  1  0  0  0  0  0  0
  162.1490  205.4480  144.6750 O   0  0  0  0  0  0  0  0  0  0  0  0
  160.9790  205.1460  147.7030 O   0  0  0  0  0  0  0  0  0  0  0  0
  161.1360  203.8210  150.1300 C   0  0  0  0  0  2  0  0  0  0  0  0
  160.4220  201.7570  151.1340 O   0  0  0  0  0  0  0  0  0  0  0  0
  160.7580  201.6110  148.7640 C   0  0  0  0  0  2  0  0  0  0  0  0
  160.8380  203.7730  147.6980 N   0  0  0  0  0  0  0  0  0  0  0  0
  160.9620  203.0980  148.8070 C   0  0  0  0  0  0  0  0  0  0  0  0
  161.0230  200.9890  150.1160 C   0  0  0  0  0  2  0  0  0  0  0  0
  161.2810  202.8590  151.3000 C   0  0  0  0  0  2  0  0  0  0  0  0
  159.4100  211.7560  155.4220 C   0  0  0  0  0  2  0  0  0  0  0  0
  160.4470  211.0680  154.9560 C   0  0  0  0  0  3  0  0  0  0  0  0
  160.8180  211.1060  152.3720 O   0  0  0  0  0  0  0  0  0  0  0  0
  159.6990  213.2130  152.1480 C   0  0  0  0  0  2  0  0  0  0  0  0
  159.9010  211.8290  151.5630 C   0  0  1  0  0  3  0  0  0  0  0  0
  160.6220  213.0240  150.9510 C   0  0  1  0  0  3  0  0  0  0  0  0
  159.9510  213.4050  149.6660 C   0  0  0  0  0  0  0  0  0  0  0  0
  158.5780  213.9910  147.2840 C   0  0  0  0  0  3  0  0  0  0  0  0
  159.7950  213.2870  147.2360 C   0  0  0  0  0  0  0  0  0  0  0  0
  158.0460  214.3940  148.5140 C   0  0  0  0  0  3  0  0  0  0  0  0
  158.7290  214.0980  149.7010 C   0  0  0  0  0  3  0  0  0  0  0  0
  160.4710  212.9920  148.4320 C   0  0  0  0  0  3  0  0  0  0  0  0
  159.5270  212.1840  145.0270 O   0  0  0  0  0  0  0  0  0  0  0  0
  161.5580  213.0630  145.6560 O   0  0  0  0  0  1  0  0  0  0  0  0
  160.3490  212.8380  145.9490 C   0  0  0  0  0  0  0  0  0  0  0  0
  1 31  1  0  0  0  0
  1  3  1  0  0  0  0
  2  4  2  0  0  0  0
  3 10  1  0  0  0  0
  4 12  1  0  0  0  0
  5 11  1  0  0  0  0
  7 12  1  0  0  0  0
  7  1  2  0  0  0  0
  8  6  1  0  0  0  0
  9  2  1  0  0  0  0
  9 14  2  0  0  0  0
 10 30  1  0  0  0  0
 10  8  2  0  0  0  0
 11  3  2  0  0  0  0
 11 13  1  0  0  0  0
 12  5  2  0  0  0  0
 13 15  2  0  0  0  0
 14  7  1  0  0  0  0
 15  8  1  0  0  0  0
 16  2  1  0  0  0  0
 17 16  2  0  0  0  0
 17 21  1  0  0  0  0
 18 19  1  0  0  0  0
 18 17  1  0  0  0  0
 20 18  2  0  0  0  0
 22 28  1  0  0  0  0
 23 28  1  0  0  0  0
 24 26  1  0  0  0  0
 24 27  1  0  0  0  0
 25 21  1  0  0  0  0
 25 26  2  0  0  0  0
 26 22  1  0  0  0  0
 27 23  1  0  0  0  0
 30 29  2  0  0  0  0
 33 32  1  0  0  0  0
 33 31  1  1  0  0  0
 34 35  1  6  0  0  0
 34 33  1  0  0  0  0
 34 32  1  0  0  0  0
 35 39  1  0  0  0  0
 36 38  1  0  0  0  0
 37 36  2  0  0  0  0
 37 40  1  0  0  0  0
 38 39  2  0  0  0  0
 40 35  2  0  0  0  0
 41 43  2  0  0  0  0
 42 43  1  0  0  0  0
 43 37  1  0  0  0  0
M  END
>  <MODEL>
3

>  <REMARK>
 VINA RESULT:      -8.7      2.581      8.101
  Name = 
  9 active torsions:
  status: ('A' for Active; 'I' for Inactive)
    1  A    between atoms: C_2  and  O_43
    2  A    between atoms: C_3  and  N_10
    3  A    between atoms: C_6  and  C_36
    4  A    between atoms: C_11  and  O_43
    5  A    between atoms: C_18  and  C_31
    6  A    between atoms: C_19  and  C_32
    7  A    between atoms: C_20  and  C_38
    8  A    between atoms: N_22  and  O_35
    9  A    between atoms: C_31  and  O_35
                            x       y       z     vdW  Elec       q    Type
                         _______ _______ _______ _____ _____    ______ ____

>  <TORSDO>
F 9

$$$$
=
 OpenBabel11052411383D

 43 48  0  0  1  0  0  0  0  0999 V2000
  161.4660  209.4430  152.4510 C   0  0  0  0  0  0  0  0  0  0  0  0
  161.7590  207.7500  148.5460 C   0  0  0  0  0  0  0  0  0  0  0  0
  161.1140  208.5950  153.5480 C   0  0  0  0  0  0  0  0  0  0  0  0
  161.4180  206.9610  149.6580 C   0  0  0  0  0  3  0  0  0  0  0  0
  160.9330  206.7120  152.0000 C   0  0  0  0  0  3  0  0  0  0  0  0
  160.5590  208.5200  157.2610 O   0  0  0  0  0  1  0  0  0  0  0  0
  161.5470  208.8940  151.1380 C   0  0  0  0  0  0  0  0  0  0  0  0
  160.6630  208.1310  155.9250 C   0  0  0  0  0  0  0  0  0  0  0  0
  161.9660  209.1140  148.7300 C   0  0  0  0  0  3  0  0  0  0  0  0
  161.0470  209.0450  154.9090 C   0  0  0  0  0  0  0  0  0  0  0  0
  160.8360  207.2250  153.2850 C   0  0  0  0  0  0  0  0  0  0  0  0
  161.2980  207.5210  150.9310 C   0  0  0  0  0  0  0  0  0  0  0  0
  160.4660  206.3550  154.3060 C   0  0  0  0  0  3  0  0  0  0  0  0
  161.8570  209.6800  150.0110 C   0  0  0  0  0  3  0  0  0  0  0  0
  160.3780  206.8050  155.6130 C   0  0  0  0  0  3  0  0  0  0  0  0
  162.0090  207.1910  147.2540 N   0  0  0  0  0  0  0  0  0  0  0  0
  161.7560  205.9760  146.8650 C   0  0  0  0  0  0  0  0  0  0  0  0
  162.1440  205.5910  145.4860 C   0  0  0  0  0  0  0  0  0  0  0  0
  163.2570  205.0610  145.2430 O   0  0  0  0  0  1  0  0  0  0  0  0
  161.2540  205.8140  144.4440 O   0  0  0  0  0  0  0  0  0  0  0  0
  161.0790  205.0890  147.7190 O   0  0  0  0  0  0  0  0  0  0  0  0
  160.9150  203.5490  150.0140 C   0  0  0  0  0  2  0  0  0  0  0  0
  160.3060  201.3210  150.6810 O   0  0  0  0  0  0  0  0  0  0  0  0
  161.1410  201.4630  148.4370 C   0  0  0  0  0  2  0  0  0  0  0  0
  161.1350  203.7170  147.5790 N   0  0  0  0  0  0  0  0  0  0  0  0
  161.1220  202.9510  148.6340 C   0  0  0  0  0  0  0  0  0  0  0  0
  161.2050  200.7410  149.7630 C   0  0  0  0  0  2  0  0  0  0  0  0
  160.9490  202.4970  151.1120 C   0  0  0  0  0  2  0  0  0  0  0  0
  162.3870  210.8490  156.0390 C   0  0  0  0  0  2  0  0  0  0  0  0
  161.3880  210.4540  155.2590 C   0  0  0  0  0  3  0  0  0  0  0  0
  161.7030  210.8130  152.6920 O   0  0  0  0  0  0  0  0  0  0  0  0
  160.3570  212.5020  151.6540 C   0  0  0  0  0  2  0  0  0  0  0  0
  160.7010  211.7870  152.9460 C   0  0  1  0  0  3  0  0  0  0  0  0
  159.4400  211.4050  152.1810 C   0  0  1  0  0  3  0  0  0  0  0  0
  158.2420  211.9730  152.8810 C   0  0  0  0  0  0  0  0  0  0  0  0
  156.1040  213.1370  154.2870 C   0  0  0  0  0  3  0  0  0  0  0  0
  156.5480  211.8470  154.6290 C   0  0  0  0  0  0  0  0  0  0  0  0
  156.7270  213.8440  153.2530 C   0  0  0  0  0  3  0  0  0  0  0  0
  157.7960  213.2650  152.5560 C   0  0  0  0  0  3  0  0  0  0  0  0
  157.6220  211.2750  153.9270 C   0  0  0  0  0  3  0  0  0  0  0  0
  155.0890  210.0110  155.4510 O   0  0  0  0  0  0  0  0  0  0  0  0
  156.1280  211.4310  156.9330 O   0  0  0  0  0  1  0  0  0  0  0  0
  155.9130  211.1050  155.7310 C   0  0  0  0  0  0  0  0  0  0  0  0
  1 31  1  0  0  0  0
  1  3  1  0  0  0  0
  2  9  1  0  0  0  0
  2  4  2  0  0  0  0
  3 10  1  0  0  0  0
  4 12  1  0  0  0  0
  5 11  1  0  0  0  0
  7  1  2  0  0  0  0
  8  6  1  0  0  0  0
  9 14  2  0  0  0  0
 10 30  1  0  0  0  0
 10  8  2  0  0  0  0
 11  3  2  0  0  0  0
 11 13  1  0  0  0  0
 12  7  1  0  0  0  0
 12  5  2  0  0  0  0
 13 15  2  0  0  0  0
 14  7  1  0  0  0  0
 15  8  1  0  0  0  0
 16  2  1  0  0  0  0
 17 16  2  0  0  0  0
 17 21  1  0  0  0  0
 18 17  1  0  0  0  0
 19 18  1  0  0  0  0
 20 18  2  0  0  0  0
 22 28  1  0  0  0  0
 23 28  1  0  0  0  0
 24 26  1  0  0  0  0
 24 27  1  0  0  0  0
 25 21  1  0  0  0  0
 25 26  2  0  0  0  0
 26 22  1  0  0  0  0
 27 23  1  0  0  0  0
 30 29  2  0  0  0  0
 32 34  1  0  0  0  0
 32 33  1  0  0  0  0
 33 31  1  6  0  0  0
 34 35  1  1  0  0  0
 34 33  1  0  0  0  0
 35 40  1  0  0  0  0
 36 37  1  0  0  0  0
 37 43  1  0  0  0  0
 38 36  2  0  0  0  0
 39 35  2  0  0  0  0
 39 38  1  0  0  0  0
 40 37  2  0  0  0  0
 41 43  2  0  0  0  0
 43 42  1  0  0  0  0
M  END
>  <MODEL>
4

>  <REMARK>
 VINA RESULT:      -8.3      3.640      7.411
  Name = 
  9 active torsions:
  status: ('A' for Active; 'I' for Inactive)
    1  A    between atoms: C_2  and  O_43
    2  A    between atoms: C_3  and  N_10
    3  A    between atoms: C_6  and  C_36
    4  A    between atoms: C_11  and  O_43
    5  A    between atoms: C_18  and  C_31
    6  A    between atoms: C_19  and  C_32
    7  A    between atoms: C_20  and  C_38
    8  A    between atoms: N_22  and  O_35
    9  A    between atoms: C_31  and  O_35
                            x       y       z     vdW  Elec       q    Type
                         _______ _______ _______ _____ _____    ______ ____

>  <TORSDO>
F 9

$$$$
=
 OpenBabel11052411383D

 43 48  0  0  1  0  0  0  0  0999 V2000
  161.2060  208.3570  152.3330 C   0  0  0  0  0  0  0  0  0  0  0  0
  161.9940  210.6640  148.8320 C   0  0  0  0  0  0  0  0  0  0  0  0
  161.1120  209.0260  153.5950 C   0  0  0  0  0  0  0  0  0  0  0  0
  161.8900  211.2710  150.0950 C   0  0  0  0  0  3  0  0  0  0  0  0
  161.5870  211.1470  152.4780 C   0  0  0  0  0  3  0  0  0  0  0  0
  160.4610  208.5040  157.2560 O   0  0  0  0  0  1  0  0  0  0  0  0
  161.4900  209.1140  151.1590 C   0  0  0  0  0  0  0  0  0  0  0  0
  160.7450  209.1060  156.0300 C   0  0  0  0  0  0  0  0  0  0  0  0
  161.8730  209.2810  148.7410 C   0  0  0  0  0  3  0  0  0  0  0  0
  160.7910  208.3580  154.8240 C   0  0  0  0  0  0  0  0  0  0  0  0
  161.3240  210.4320  153.6370 C   0  0  0  0  0  0  0  0  0  0  0  0
  161.6570  210.5120  151.2440 C   0  0  0  0  0  0  0  0  0  0  0  0
  161.2670  211.1350  154.8360 C   0  0  0  0  0  3  0  0  0  0  0  0
  161.6280  208.5140  149.8920 C   0  0  0  0  0  3  0  0  0  0  0  0
  160.9840  210.4770  156.0210 C   0  0  0  0  0  3  0  0  0  0  0  0
  162.1100  211.4190  147.6240 N   0  0  0  0  0  0  0  0  0  0  0  0
  161.4520  212.4950  147.3060 C   0  0  0  0  0  0  0  0  0  0  0  0
  161.6950  213.0930  145.9710 C   0  0  0  0  0  0  0  0  0  0  0  0
  162.5760  213.9730  145.7990 O   0  0  0  0  0  1  0  0  0  0  0  0
  160.9400  212.6640  144.8880 O   0  0  0  0  0  0  0  0  0  0  0  0
  160.5870  213.0920  148.2390 O   0  0  0  0  0  0  0  0  0  0  0  0
  158.8410  213.3780  150.3690 C   0  0  0  0  0  2  0  0  0  0  0  0
  156.7540  214.4510  150.8910 O   0  0  0  0  0  0  0  0  0  0  0  0
  156.9880  213.8670  148.5770 C   0  0  0  0  0  2  0  0  0  0  0  0
  159.2710  213.4000  147.9570 N   0  0  0  0  0  0  0  0  0  0  0  0
  158.3980  213.4870  148.9220 C   0  0  0  0  0  0  0  0  0  0  0  0
  156.1030  213.8370  149.8020 C   0  0  0  0  0  2  0  0  0  0  0  0
  157.6760  213.4870  151.3410 C   0  0  0  0  0  2  0  0  0  0  0  0
  159.4800  206.3060  155.4580 C   0  0  0  0  0  2  0  0  0  0  0  0
  160.4960  206.8970  154.8380 C   0  0  0  0  0  3  0  0  0  0  0  0
  161.0400  206.9580  152.2850 O   0  0  0  0  0  0  0  0  0  0  0  0
  161.8610  204.7370  151.9160 C   0  0  0  0  0  2  0  0  0  0  0  0
  161.5990  206.0970  151.3020 C   0  0  1  0  0  3  0  0  0  0  0  0
  160.6290  204.9500  151.0450 C   0  0  1  0  0  3  0  0  0  0  0  0
  160.8340  204.4270  149.6560 C   0  0  0  0  0  0  0  0  0  0  0  0
  161.3870  203.4210  147.0900 C   0  0  0  0  0  3  0  0  0  0  0  0
  161.2520  204.8070  147.2840 C   0  0  0  0  0  0  0  0  0  0  0  0
  161.2530  202.5420  148.1700 C   0  0  0  0  0  3  0  0  0  0  0  0
  160.9820  203.0450  149.4500 C   0  0  0  0  0  3  0  0  0  0  0  0
  160.9830  205.3020  148.5710 C   0  0  0  0  0  3  0  0  0  0  0  0
  162.6600  205.8710  145.5360 O   0  0  0  0  0  0  0  0  0  0  0  0
  160.4300  206.4050  145.7260 O   0  0  0  0  0  1  0  0  0  0  0  0
  161.4140  205.7400  146.1570 C   0  0  0  0  0  0  0  0  0  0  0  0
  1  3  1  0  0  0  0
  2  4  2  0  0  0  0
  3 11  2  0  0  0  0
  3 10  1  0  0  0  0
  4 12  1  0  0  0  0
  5 11  1  0  0  0  0
  7 12  1  0  0  0  0
  7  1  2  0  0  0  0
  8  6  1  0  0  0  0
  9  2  1  0  0  0  0
  9 14  2  0  0  0  0
 10 30  1  0  0  0  0
 10  8  2  0  0  0  0
 11 13  1  0  0  0  0
 12  5  2  0  0  0  0
 13 15  2  0  0  0  0
 14  7  1  0  0  0  0
 15  8  1  0  0  0  0
 16  2  1  0  0  0  0
 17 16  2  0  0  0  0
 17 21  1  0  0  0  0
 18 17  1  0  0  0  0
 19 18  1  0  0  0  0
 20 18  2  0  0  0  0
 22 28  1  0  0  0  0
 23 28  1  0  0  0  0
 24 26  1  0  0  0  0
 24 27  1  0  0  0  0
 25 21  1  0  0  0  0
 25 26  2  0  0  0  0
 26 22  1  0  0  0  0
 27 23  1  0  0  0  0
 30 29  2  0  0  0  0
 31  1  1  0  0  0  0
 33 32  1  0  0  0  0
 33 31  1  1  0  0  0
 34 35  1  6  0  0  0
 34 33  1  0  0  0  0
 34 32  1  0  0  0  0
 36 37  2  0  0  0  0
 36 38  1  0  0  0  0
 37 40  1  0  0  0  0
 38 39  2  0  0  0  0
 39 35  1  0  0  0  0
 40 35  2  0  0  0  0
 41 43  2  0  0  0  0
 42 43  1  0  0  0  0
 43 37  1  0  0  0  0
M  END
>  <MODEL>
5

>  <REMARK>
 VINA RESULT:      -8.3      2.126      6.161
  Name = 
  9 active torsions:
  status: ('A' for Active; 'I' for Inactive)
    1  A    between atoms: C_2  and  O_43
    2  A    between atoms: C_3  and  N_10
    3  A    between atoms: C_6  and  C_36
    4  A    between atoms: C_11  and  O_43
    5  A    between atoms: C_18  and  C_31
    6  A    between atoms: C_19  and  C_32
    7  A    between atoms: C_20  and  C_38
    8  A    between atoms: N_22  and  O_35
    9  A    between atoms: C_31  and  O_35
                            x       y       z     vdW  Elec       q    Type
                         _______ _______ _______ _____ _____    ______ ____

>  <TORSDO>
F 9

$$$$
=
 OpenBabel11052411383D

 43 48  0  0  1  0  0  0  0  0999 V2000
  161.1150  208.3340  152.2900 C   0  0  0  0  0  0  0  0  0  0  0  0
  162.0640  210.7450  148.9020 C   0  0  0  0  0  0  0  0  0  0  0  0
  160.9790  208.9610  153.5690 C   0  0  0  0  0  0  0  0  0  0  0  0
  161.9180  211.3110  150.1800 C   0  0  0  0  0  3  0  0  0  0  0  0
  161.5210  211.1120  152.5430 C   0  0  0  0  0  3  0  0  0  0  0  0
  160.1800  208.3270  157.1820 O   0  0  0  0  0  1  0  0  0  0  0  0
  161.4530  209.1260  151.1540 C   0  0  0  0  0  0  0  0  0  0  0  0
  160.5190  208.9650  155.9900 C   0  0  0  0  0  0  0  0  0  0  0  0
  161.9310  209.3670  148.7590 C   0  0  0  0  0  3  0  0  0  0  0  0
  160.6020  208.2570  154.7620 C   0  0  0  0  0  0  0  0  0  0  0  0
  161.2060  210.3620  153.6660 C   0  0  0  0  0  0  0  0  0  0  0  0
  161.6320  210.5180  151.2920 C   0  0  0  0  0  0  0  0  0  0  0  0
  161.1110  211.0250  154.8860 C   0  0  0  0  0  3  0  0  0  0  0  0
  161.6330  208.5670  149.8740 C   0  0  0  0  0  3  0  0  0  0  0  0
  160.7740  210.3320  156.0360 C   0  0  0  0  0  3  0  0  0  0  0  0
  162.2360  211.5390  147.7250 N   0  0  0  0  0  0  0  0  0  0  0  0
  161.5710  212.6070  147.3960 C   0  0  0  0  0  0  0  0  0  0  0  0
  161.8820  213.2500  146.0970 C   0  0  0  0  0  0  0  0  0  0  0  0
  161.4380  212.7900  145.0150 O   0  0  0  0  0  0  0  0  0  0  0  0
  162.6740  214.3910  146.0780 O   0  0  0  0  0  1  0  0  0  0  0  0
  160.6330  213.1540  148.2880 O   0  0  0  0  0  0  0  0  0  0  0  0
  158.8290  213.4910  150.3620 C   0  0  0  0  0  2  0  0  0  0  0  0
  156.6630  214.4530  150.7620 O   0  0  0  0  0  0  0  0  0  0  0  0
  156.9820  213.6970  148.5080 C   0  0  0  0  0  2  0  0  0  0  0  0
  159.3050  213.3440  147.9620 N   0  0  0  0  0  0  0  0  0  0  0  0
  158.4090  213.4480  148.9040 C   0  0  0  0  0  0  0  0  0  0  0  0
  156.0770  213.7060  149.7190 C   0  0  0  0  0  2  0  0  0  0  0  0
  157.6400  213.5970  151.3040 C   0  0  0  0  0  2  0  0  0  0  0  0
  160.9870  205.8290  155.2950 C   0  0  0  0  0  2  0  0  0  0  0  0
  160.2900  206.8000  154.7150 C   0  0  0  0  0  3  0  0  0  0  0  0
  160.9340  206.9390  152.1880 O   0  0  0  0  0  0  0  0  0  0  0  0
  161.6100  204.6760  151.7830 C   0  0  0  0  0  2  0  0  0  0  0  0
  161.5810  206.0930  151.2470 C   0  0  1  0  0  3  0  0  0  0  0  0
  160.5760  205.0690  150.7360 C   0  0  1  0  0  3  0  0  0  0  0  0
  160.9770  204.6200  149.3630 C   0  0  0  0  0  0  0  0  0  0  0  0
  161.5690  203.8250  146.7330 C   0  0  0  0  0  3  0  0  0  0  0  0
  161.2460  202.8570  147.7010 C   0  0  0  0  0  0  0  0  0  0  0  0
  161.5910  205.1820  147.0740 C   0  0  0  0  0  3  0  0  0  0  0  0
  161.2910  205.5770  148.3840 C   0  0  0  0  0  3  0  0  0  0  0  0
  160.9440  203.2630  149.0110 C   0  0  0  0  0  3  0  0  0  0  0  0
  161.5320  200.4620  148.2980 O   0  0  0  0  0  1  0  0  0  0  0  0
  160.8310  201.0670  146.1910 O   0  0  0  0  0  0  0  0  0  0  0  0
  161.1980  201.4290  147.3440 C   0  0  0  0  0  0  0  0  0  0  0  0
  1  3  1  0  0  0  0
  2  4  2  0  0  0  0
  3 11  2  0  0  0  0
  3 10  1  0  0  0  0
  4 12  1  0  0  0  0
  5 11  1  0  0  0  0
  7 12  1  0  0  0  0
  7  1  2  0  0  0  0
  8 15  1  0  0  0  0
  8  6  1  0  0  0  0
  9  2  1  0  0  0  0
  9 14  2  0  0  0  0
 10  8  2  0  0  0  0
 11 13  1  0  0  0  0
 12  5  2  0  0  0  0
 13 15  2  0  0  0  0
 14  7  1  0  0  0  0
 16  2  1  0  0  0  0
 17 16  2  0  0  0  0
 17 21  1  0  0  0  0
 18 17  1  0  0  0  0
 19 18  2  0  0  0  0
 20 18  1  0  0  0  0
 22 28  1  0  0  0  0
 23 28  1  0  0  0  0
 24 26  1  0  0  0  0
 24 27  1  0  0  0  0
 25 21  1  0  0  0  0
 25 26  2  0  0  0  0
 26 22  1  0  0  0  0
 27 23  1  0  0  0  0
 30 10  1  0  0  0  0
 30 29  2  0  0  0  0
 31  1  1  0  0  0  0
 33 32  1  0  0  0  0
 33 31  1  1  0  0  0
 34 35  1  6  0  0  0
 34 33  1  0  0  0  0
 34 32  1  0  0  0  0
 36 38  2  0  0  0  0
 36 37  1  0  0  0  0
 37 40  2  0  0  0  0
 38 39  1  0  0  0  0
 39 35  2  0  0  0  0
 40 35  1  0  0  0  0
 42 43  2  0  0  0  0
 43 37  1  0  0  0  0
 43 41  1  0  0  0  0
M  END
>  <MODEL>
6

>  <REMARK>
 VINA RESULT:      -8.2      1.805      6.562
  Name = 
  9 active torsions:
  status: ('A' for Active; 'I' for Inactive)
    1  A    between atoms: C_2  and  O_43
    2  A    between atoms: C_3  and  N_10
    3  A    between atoms: C_6  and  C_36
    4  A    between atoms: C_11  and  O_43
    5  A    between atoms: C_18  and  C_31
    6  A    between atoms: C_19  and  C_32
    7  A    between atoms: C_20  and  C_38
    8  A    between atoms: N_22  and  O_35
    9  A    between atoms: C_31  and  O_35
                            x       y       z     vdW  Elec       q    Type
                         _______ _______ _______ _____ _____    ______ ____

>  <TORSDO>
F 9

$$$$
=
 OpenBabel11052411383D

 43 48  0  0  1  0  0  0  0  0999 V2000
  161.6150  205.6080  149.8750 C   0  0  0  0  0  0  0  0  0  0  0  0
  161.9520  209.7430  148.8790 C   0  0  0  0  0  0  0  0  0  0  0  0
  161.4480  204.6540  148.8220 C   0  0  0  0  0  0  0  0  0  0  0  0
  161.7890  208.7650  147.8830 C   0  0  0  0  0  3  0  0  0  0  0  0
  161.4680  206.4810  147.1990 C   0  0  0  0  0  3  0  0  0  0  0  0
  161.1040  200.9890  148.0830 O   0  0  0  0  0  1  0  0  0  0  0  0
  161.7080  206.9950  149.5570 C   0  0  0  0  0  0  0  0  0  0  0  0
  161.1940  202.3720  147.9290 C   0  0  0  0  0  0  0  0  0  0  0  0
  161.9650  209.3450  150.2130 C   0  0  0  0  0  3  0  0  0  0  0  0
  161.3870  203.2370  149.0380 C   0  0  0  0  0  0  0  0  0  0  0  0
  161.3620  205.1280  147.4830 C   0  0  0  0  0  0  0  0  0  0  0  0
  161.6540  207.4150  148.2110 C   0  0  0  0  0  0  0  0  0  0  0  0
  161.1780  204.2520  146.4180 C   0  0  0  0  0  3  0  0  0  0  0  0
  161.8400  207.9870  150.5470 C   0  0  0  0  0  3  0  0  0  0  0  0
  161.0920  202.8880  146.6400 C   0  0  0  0  0  3  0  0  0  0  0  0
  162.2150  211.1140  148.5730 N   0  0  0  0  0  0  0  0  0  0  0  0
  161.6490  212.1580  149.1060 C   0  0  0  0  0  0  0  0  0  0  0  0
  162.0400  213.4960  148.6020 C   0  0  0  0  0  0  0  0  0  0  0  0
  161.2240  214.4520  148.5780 O   0  0  0  0  0  1  0  0  0  0  0  0
  163.3390  213.6990  148.1540 O   0  0  0  0  0  0  0  0  0  0  0  0
  160.7430  212.0020  150.1680 O   0  0  0  0  0  0  0  0  0  0  0  0
  159.2100  211.5310  152.4250 C   0  0  0  0  0  2  0  0  0  0  0  0
  158.0950  212.7570  154.1660 O   0  0  0  0  0  0  0  0  0  0  0  0
  158.2730  213.9610  152.1000 C   0  0  0  0  0  2  0  0  0  0  0  0
  159.9130  213.0140  150.6060 N   0  0  0  0  0  0  0  0  0  0  0  0
  159.1280  212.8200  151.6290 C   0  0  0  0  0  0  0  0  0  0  0  0
  157.3730  213.5310  153.2350 C   0  0  0  0  0  2  0  0  0  0  0  0
  158.2030  211.4890  153.5650 C   0  0  0  0  0  2  0  0  0  0  0  0
  160.6790  201.8590  151.0200 C   0  0  0  0  0  2  0  0  0  0  0  0
  161.5330  202.6730  150.4100 C   0  0  0  0  0  3  0  0  0  0  0  0
  161.6600  205.1550  151.2100 O   0  0  0  0  0  0  0  0  0  0  0  0
  160.8220  204.6450  153.3970 C   0  0  0  0  0  2  0  0  0  0  0  0
  160.8750  205.6670  152.2780 C   0  0  1  0  0  3  0  0  0  0  0  0
  161.7650  205.8370  153.5030 C   0  0  1  0  0  3  0  0  0  0  0  0
  161.2020  206.9130  154.3820 C   0  0  0  0  0  0  0  0  0  0  0  0
  160.0230  208.9590  155.9070 C   0  0  0  0  0  3  0  0  0  0  0  0
  161.1950  209.2180  155.1760 C   0  0  0  0  0  0  0  0  0  0  0  0
  159.4390  207.6880  155.8730 C   0  0  0  0  0  3  0  0  0  0  0  0
  160.0240  206.6700  155.1090 C   0  0  0  0  0  3  0  0  0  0  0  0
  161.7740  208.1930  154.4090 C   0  0  0  0  0  3  0  0  0  0  0  0
  161.0110  211.6810  155.4480 O   0  0  0  0  0  1  0  0  0  0  0  0
  163.0430  210.7040  154.9900 O   0  0  0  0  0  0  0  0  0  0  0  0
  161.8030  210.5590  155.1870 C   0  0  0  0  0  0  0  0  0  0  0  0
  1 31  1  0  0  0  0
  2  9  1  0  0  0  0
  3 10  1  0  0  0  0
  3  1  2  0  0  0  0
  4 12  1  0  0  0  0
  4  2  2  0  0  0  0
  5 11  2  0  0  0  0
  5 12  1  0  0  0  0
  7  1  1  0  0  0  0
  7 14  1  0  0  0  0
  8  6  1  0  0  0  0
  8 10  2  0  0  0  0
  9 14  2  0  0  0  0
 10 30  1  0  0  0  0
 11  3  1  0  0  0  0
 12  7  2  0  0  0  0
 13 15  2  0  0  0  0
 13 11  1  0  0  0  0
 15  8  1  0  0  0  0
 16  2  1  0  0  0  0
 16 17  2  0  0  0  0
 17 21  1  0  0  0  0
 18 17  1  0  0  0  0
 19 18  1  0  0  0  0
 20 18  2  0  0  0  0
 21 25  1  0  0  0  0
 22 28  1  0  0  0  0
 24 27  1  0  0  0  0
 25 26  2  0  0  0  0
 26 24  1  0  0  0  0
 26 22  1  0  0  0  0
 27 23  1  0  0  0  0
 28 23  1  0  0  0  0
 30 29  2  0  0  0  0
 32 34  1  0  0  0  0
 33 31  1  6  0  0  0
 33 32  1  0  0  0  0
 33 34  1  0  0  0  0
 34 35  1  1  0  0  0
 35 40  2  0  0  0  0
 35 39  1  0  0  0  0
 37 43  1  0  0  0  0
 37 36  2  0  0  0  0
 38 36  1  0  0  0  0
 39 38  2  0  0  0  0
 40 37  1  0  0  0  0
 42 43  2  0  0  0  0
 43 41  1  0  0  0  0
M  END
>  <MODEL>
7

>  <REMARK>
 VINA RESULT:      -7.7      2.290      3.150
  Name = 
  9 active torsions:
  status: ('A' for Active; 'I' for Inactive)
    1  A    between atoms: C_2  and  O_43
    2  A    between atoms: C_3  and  N_10
    3  A    between atoms: C_6  and  C_36
    4  A    between atoms: C_11  and  O_43
    5  A    between atoms: C_18  and  C_31
    6  A    between atoms: C_19  and  C_32
    7  A    between atoms: C_20  and  C_38
    8  A    between atoms: N_22  and  O_35
    9  A    between atoms: C_31  and  O_35
                            x       y       z     vdW  Elec       q    Type
                         _______ _______ _______ _____ _____    ______ ____

>  <TORSDO>
F 9

$$$$
=
 OpenBabel11052411383D

 43 48  0  0  1  0  0  0  0  0999 V2000
  161.4170  204.7880  149.4710 C   0  0  0  0  0  0  0  0  0  0  0  0
  161.3030  206.1890  153.4990 C   0  0  0  0  0  0  0  0  0  0  0  0
  161.2380  203.3900  149.2200 C   0  0  0  0  0  0  0  0  0  0  0  0
  161.1320  204.8270  153.1970 C   0  0  0  0  0  3  0  0  0  0  0  0
  161.0460  203.0080  151.6250 C   0  0  0  0  0  3  0  0  0  0  0  0
  161.0160  200.8080  146.5030 O   0  0  0  0  0  1  0  0  0  0  0  0
  161.4020  205.2650  150.8140 C   0  0  0  0  0  0  0  0  0  0  0  0
  161.0400  201.4180  147.7580 C   0  0  0  0  0  0  0  0  0  0  0  0
  161.5510  207.0800  152.4600 C   0  0  0  0  0  3  0  0  0  0  0  0
  161.1970  202.8210  147.9030 C   0  0  0  0  0  0  0  0  0  0  0  0
  161.0690  202.5170  150.3290 C   0  0  0  0  0  0  0  0  0  0  0  0
  161.1940  204.3660  151.8810 C   0  0  0  0  0  0  0  0  0  0  0  0
  160.9130  201.1460  150.1500 C   0  0  0  0  0  3  0  0  0  0  0  0
  161.6040  206.6230  151.1330 C   0  0  0  0  0  3  0  0  0  0  0  0
  160.9020  200.6020  148.8770 C   0  0  0  0  0  3  0  0  0  0  0  0
  161.1260  206.7110  154.8180 N   0  0  0  0  0  0  0  0  0  0  0  0
  161.1250  207.9630  155.1710 C   0  0  0  0  0  0  0  0  0  0  0  0
  160.9710  208.2810  156.6110 C   0  0  0  0  0  0  0  0  0  0  0  0
  159.9620  207.9060  157.2610 O   0  0  0  0  0  1  0  0  0  0  0  0
  161.9680  209.0010  157.2570 O   0  0  0  0  0  0  0  0  0  0  0  0
  161.2060  208.9700  154.1940 O   0  0  0  0  0  0  0  0  0  0  0  0
  160.5120  211.4770  155.1430 C   0  0  0  0  0  2  0  0  0  0  0  0
  159.2930  213.4250  154.4380 O   0  0  0  0  0  0  0  0  0  0  0  0
  158.5080  211.3850  153.4510 C   0  0  0  0  0  2  0  0  0  0  0  0
  160.0950  209.5810  153.6480 N   0  0  0  0  0  0  0  0  0  0  0  0
  159.6940  210.7350  154.1030 C   0  0  0  0  0  0  0  0  0  0  0  0
  158.1370  212.6690  154.1590 C   0  0  0  0  0  2  0  0  0  0  0  0
  159.8680  212.7920  155.5570 C   0  0  0  0  0  2  0  0  0  0  0  0
  162.4230  203.9900  146.0430 C   0  0  0  0  0  2  0  0  0  0  0  0
  161.3060  203.6910  146.6970 C   0  0  0  0  0  3  0  0  0  0  0  0
  161.6280  205.6590  148.3820 O   0  0  0  0  0  0  0  0  0  0  0  0
  162.3660  207.5210  147.0660 C   0  0  0  0  0  2  0  0  0  0  0  0
  162.2500  206.9340  148.4590 C   0  0  1  0  0  3  0  0  0  0  0  0
  161.2570  207.9930  147.9980 C   0  0  1  0  0  3  0  0  0  0  0  0
  161.5940  209.3050  148.6410 C   0  0  0  0  0  0  0  0  0  0  0  0
  162.0570  211.7750  149.9000 C   0  0  0  0  0  3  0  0  0  0  0  0
  161.8980  211.7200  148.5040 C   0  0  0  0  0  0  0  0  0  0  0  0
  161.9810  210.6050  150.6640 C   0  0  0  0  0  3  0  0  0  0  0  0
  161.7450  209.3750  150.0360 C   0  0  0  0  0  3  0  0  0  0  0  0
  161.6580  210.4830  147.8830 C   0  0  0  0  0  3  0  0  0  0  0  0
  162.3940  214.1440  148.2740 O   0  0  0  0  0  1  0  0  0  0  0  0
  161.6330  212.9300  146.4730 O   0  0  0  0  0  0  0  0  0  0  0  0
  161.9540  212.9490  147.6950 C   0  0  0  0  0  0  0  0  0  0  0  0
  1  7  1  0  0  0  0
  2 16  1  0  0  0  0
  3  1  2  0  0  0  0
  3 11  1  0  0  0  0
  4  2  1  0  0  0  0
  5 12  1  0  0  0  0
  6  8  1  0  0  0  0
  7 14  2  0  0  0  0
  7 12  1  0  0  0  0
  8 10  2  0  0  0  0
  8 15  1  0  0  0  0
  9  2  2  0  0  0  0
 10  3  1  0  0  0  0
 11  5  2  0  0  0  0
 12  4  2  0  0  0  0
 13 11  1  0  0  0  0
 14  9  1  0  0  0  0
 15 13  2  0  0  0  0
 16 17  2  0  0  0  0
 17 18  1  0  0  0  0
 18 20  2  0  0  0  0
 18 19  1  0  0  0  0
 21 17  1  0  0  0  0
 22 28  1  0  0  0  0
 23 28  1  0  0  0  0
 24 26  1  0  0  0  0
 24 27  1  0  0  0  0
 25 26  2  0  0  0  0
 25 21  1  0  0  0  0
 26 22  1  0  0  0  0
 27 23  1  0  0  0  0
 29 30  2  0  0  0  0
 30 10  1  0  0  0  0
 31  1  1  0  0  0  0
 32 34  1  0  0  0  0
 32 33  1  0  0  0  0
 33 31  1  6  0  0  0
 34 33  1  0  0  0  0
 34 35  1  1  0  0  0
 35 39  1  0  0  0  0
 36 38  1  0  0  0  0
 37 36  2  0  0  0  0
 39 38  2  0  0  0  0
 40 37  1  0  0  0  0
 40 35  2  0  0  0  0
 42 43  2  0  0  0  0
 43 41  1  0  0  0  0
 43 37  1  0  0  0  0
M  END
>  <MODEL>
8

>  <REMARK>
 VINA RESULT:      -7.1      2.575      6.718
  Name = 
  9 active torsions:
  status: ('A' for Active; 'I' for Inactive)
    1  A    between atoms: C_2  and  O_43
    2  A    between atoms: C_3  and  N_10
    3  A    between atoms: C_6  and  C_36
    4  A    between atoms: C_11  and  O_43
    5  A    between atoms: C_18  and  C_31
    6  A    between atoms: C_19  and  C_32
    7  A    between atoms: C_20  and  C_38
    8  A    between atoms: N_22  and  O_35
    9  A    between atoms: C_31  and  O_35
                            x       y       z     vdW  Elec       q    Type
                         _______ _______ _______ _____ _____    ______ ____

>  <TORSDO>
F 9

$$$$
=
 OpenBabel11052411383D

 43 48  0  0  1  0  0  0  0  0999 V2000
  161.0830  210.3060  151.6720 C   0  0  0  0  0  0  0  0  0  0  0  0
  161.6230  206.0760  151.8040 C   0  0  0  0  0  0  0  0  0  0  0  0
  161.3060  210.9940  150.4370 C   0  0  0  0  0  0  0  0  0  0  0  0
  161.8270  206.8000  150.6160 C   0  0  0  0  0  3  0  0  0  0  0  0
  161.9110  208.8680  149.3930 C   0  0  0  0  0  3  0  0  0  0  0  0
  161.2020  214.3650  148.7880 O   0  0  0  0  0  1  0  0  0  0  0  0
  161.2810  208.8950  151.7340 C   0  0  0  0  0  0  0  0  0  0  0  0
  161.3680  212.9970  149.0050 C   0  0  0  0  0  0  0  0  0  0  0  0
  161.2750  206.7690  152.9590 C   0  0  0  0  0  3  0  0  0  0  0  0
  161.0940  212.4020  150.2650 C   0  0  0  0  0  0  0  0  0  0  0  0
  161.7380  210.2420  149.3090 C   0  0  0  0  0  0  0  0  0  0  0  0
  161.6740  208.1870  150.5800 C   0  0  0  0  0  0  0  0  0  0  0  0
  161.9920  210.8560  148.0880 C   0  0  0  0  0  3  0  0  0  0  0  0
  161.1100  208.1630  152.9260 C   0  0  0  0  0  3  0  0  0  0  0  0
  161.8120  212.2210  147.9390 C   0  0  0  0  0  3  0  0  0  0  0  0
  161.6510  204.6470  151.8480 N   0  0  0  0  0  0  0  0  0  0  0  0
  161.3110  203.8270  150.8970 C   0  0  0  0  0  0  0  0  0  0  0  0
  161.3730  202.3720  151.1770 C   0  0  0  0  0  0  0  0  0  0  0  0
  160.5930  201.5630  150.6140 O   0  0  0  0  0  0  0  0  0  0  0  0
  162.3190  201.8930  152.0730 O   0  0  0  0  0  1  0  0  0  0  0  0
  160.9590  204.3240  149.6310 O   0  0  0  0  0  0  0  0  0  0  0  0
  160.7310  205.8160  147.3100 C   0  0  0  0  0  2  0  0  0  0  0  0
  161.7050  205.9430  145.1160 O   0  0  0  0  0  0  0  0  0  0  0  0
  161.7530  203.7420  146.0680 C   0  0  0  0  0  2  0  0  0  0  0  0
  161.3820  203.7470  148.4510 N   0  0  0  0  0  0  0  0  0  0  0  0
  161.2410  204.3870  147.3230 C   0  0  0  0  0  0  0  0  0  0  0  0
  161.4300  204.5850  144.8550 C   0  0  0  0  0  2  0  0  0  0  0  0
  160.6200  206.3790  145.9010 C   0  0  0  0  0  2  0  0  0  0  0  0
  159.4920  213.9930  151.3740 C   0  0  0  0  0  2  0  0  0  0  0  0
  160.5830  213.2350  151.3910 C   0  0  0  0  0  3  0  0  0  0  0  0
  160.6950  211.0460  152.8090 O   0  0  0  0  0  0  0  0  0  0  0  0
  159.6310  210.3480  154.8390 C   0  0  0  0  0  2  0  0  0  0  0  0
  159.4370  210.9500  153.4620 C   0  0  1  0  0  3  0  0  0  0  0  0
  159.4500  211.8530  154.6880 C   0  0  1  0  0  3  0  0  0  0  0  0
  158.0480  212.2790  155.0080 C   0  0  0  0  0  0  0  0  0  0  0  0
  155.3670  212.9150  155.5640 C   0  0  0  0  0  3  0  0  0  0  0  0
  155.9540  213.3460  154.3610 C   0  0  0  0  0  0  0  0  0  0  0  0
  156.1130  212.1670  156.4820 C   0  0  0  0  0  3  0  0  0  0  0  0
  157.4470  211.8460  156.2020 C   0  0  0  0  0  3  0  0  0  0  0  0
  157.2930  213.0170  154.0870 C   0  0  0  0  0  3  0  0  0  0  0  0
  155.7380  214.4520  152.1470 O   0  0  0  0  0  0  0  0  0  0  0  0
  153.9780  214.4490  153.6290 O   0  0  0  0  0  1  0  0  0  0  0  0
  155.1710  214.1140  153.3790 C   0  0  0  0  0  0  0  0  0  0  0  0
  1  7  1  0  0  0  0
  1 31  1  0  0  0  0
  2 16  1  0  0  0  0
  2  9  1  0  0  0  0
  3  1  2  0  0  0  0
  4  2  2  0  0  0  0
  5 12  1  0  0  0  0
  6  8  1  0  0  0  0
  7 14  1  0  0  0  0
  8 10  2  0  0  0  0
 10  3  1  0  0  0  0
 10 30  1  0  0  0  0
 11  5  2  0  0  0  0
 11  3  1  0  0  0  0
 12  4  1  0  0  0  0
 12  7  2  0  0  0  0
 13 11  1  0  0  0  0
 14  9  2  0  0  0  0
 15 13  2  0  0  0  0
 15  8  1  0  0  0  0
 17 18  1  0  0  0  0
 17 16  2  0  0  0  0
 18 20  1  0  0  0  0
 19 18  2  0  0  0  0
 21 17  1  0  0  0  0
 22 26  1  0  0  0  0
 23 28  1  0  0  0  0
 24 26  1  0  0  0  0
 25 21  1  0  0  0  0
 26 25  2  0  0  0  0
 27 23  1  0  0  0  0
 27 24  1  0  0  0  0
 28 22  1  0  0  0  0
 29 30  2  0  0  0  0
 33 31  1  6  0  0  0
 33 34  1  0  0  0  0
 33 32  1  0  0  0  0
 34 32  1  0  0  0  0
 34 35  1  1  0  0  0
 35 39  1  0  0  0  0
 36 38  1  0  0  0  0
 37 36  2  0  0  0  0
 39 38  2  0  0  0  0
 40 37  1  0  0  0  0
 40 35  2  0  0  0  0
 41 43  2  0  0  0  0
 43 42  1  0  0  0  0
 43 37  1  0  0  0  0
M  END
>  <MODEL>
9

>  <REMARK>
 VINA RESULT:      -7.1      2.966      7.563
  Name = 
  9 active torsions:
  status: ('A' for Active; 'I' for Inactive)
    1  A    between atoms: C_2  and  O_43
    2  A    between atoms: C_3  and  N_10
    3  A    between atoms: C_6  and  C_36
    4  A    between atoms: C_11  and  O_43
    5  A    between atoms: C_18  and  C_31
    6  A    between atoms: C_19  and  C_32
    7  A    between atoms: C_20  and  C_38
    8  A    between atoms: N_22  and  O_35
    9  A    between atoms: C_31  and  O_35
                            x       y       z     vdW  Elec       q    Type
                         _______ _______ _______ _____ _____    ______ ____

>  <TORSDO>
F 9

$$$$
