=
 OpenBabel11052411253D

 43 45  0  0  1  0  0  0  0  0999 V2000
  161.4570  208.6020  152.0470 N   0  0  0  0  0  0  0  0  0  0  0  0
  161.5480  208.0670  149.7870 O   0  0  0  0  0  0  0  0  0  0  0  0
  161.4160  207.6590  150.9650 C   0  0  0  0  0  0  0  0  0  0  0  0
  160.5940  207.4560  155.4020 C   0  0  0  0  0  2  0  0  0  0  0  0
  160.6020  207.2390  153.9040 C   0  0  0  0  0  2  0  0  0  0  0  0
  161.6950  208.1570  153.4260 C   0  0  2  0  0  3  0  0  0  0  0  0
  161.0540  208.8200  155.6670 N   0  0  0  0  0  0  0  0  0  0  0  0
  161.7070  209.2860  154.4420 C   0  0  0  0  0  2  0  0  0  0  0  0
  159.8710  209.6500  155.8580 C   0  0  0  0  0  2  0  0  0  0  0  0
  159.8440  210.2400  157.2530 C   0  0  0  0  0  2  0  0  0  0  0  0
  159.1430  211.5870  157.2460 C   0  0  1  0  0  3  0  0  0  0  0  0
  160.0020  212.5880  156.6420 N   0  0  0  0  0  1  0  0  0  0  0  0
  157.8610  211.4760  156.4550 C   0  0  0  0  0  1  0  0  0  0  0  0
  161.3820  210.0330  151.7200 C   0  0  0  0  0  2  0  0  0  0  0  0
  160.0380  210.6050  152.1490 C   0  0  0  0  0  2  0  0  0  0  0  0
  160.1010  212.1090  152.1300 C   0  0  0  0  0  2  0  0  0  0  0  0
  158.7780  212.6600  151.8690 N   0  0  0  0  0  0  0  0  0  0  0  0
  158.0130  212.7470  153.1200 C   0  0  0  0  0  2  0  0  0  0  0  0
  157.0960  213.9700  153.1900 C   0  0  0  0  0  2  0  0  0  0  0  0
  155.8350  213.6200  153.9520 C   0  0  0  0  0  1  0  0  0  0  0  0
  158.9470  213.9970  151.3020 C   0  0  0  0  0  2  0  0  0  0  0  0
  159.2480  213.8980  149.8730 C   0  0  0  0  0  0  0  0  0  0  0  0
  159.5050  213.8060  148.6980 C   0  0  0  0  0  0  0  0  0  0  0  0
  159.7990  213.6940  147.3350 N   0  0  0  0  0  2  0  0  0  0  0  0
  160.6980  212.6510  146.8490 C   0  0  1  0  0  3  0  0  0  0  0  0
  160.1610  212.0210  145.6940 O   0  0  0  0  0  0  0  0  0  0  0  0
  162.8860  213.4950  147.7410 O   0  0  0  0  0  1  0  0  0  0  0  0
  160.2890  212.8970  144.5930 C   0  0  0  0  0  2  0  0  0  0  0  0
  161.9100  214.0030  143.2290 O   0  0  0  0  0  1  0  0  0  0  0  0
  162.1000  213.1820  146.6420 C   0  0  0  0  0  0  0  0  0  0  0  0
  162.5720  213.3940  145.4150 C   0  0  0  0  0  3  0  0  0  0  0  0
  161.7620  213.0260  144.2110 C   0  0  1  0  0  3  0  0  0  0  0  0
  161.1230  206.2030  151.1750 C   0  0  0  0  0  2  0  0  0  0  0  0
  161.7010  205.2790  150.1000 C   0  0  0  0  0  2  0  0  0  0  0  0
  160.3100  206.1930  146.6580 O   0  0  0  0  0  0  0  0  0  0  0  0
  161.5020  203.0020  147.8330 C   0  0  2  0  0  3  0  0  0  0  0  0
  160.8060  204.9750  148.9640 N   0  0  0  0  0  0  0  0  0  0  0  0
  160.6720  202.9290  149.9780 F   0  0  0  0  0  0  0  0  0  0  0  0
  161.8410  204.0000  146.7380 C   0  0  0  0  0  2  0  0  0  0  0  0
  160.8830  201.7660  147.2030 C   0  0  0  0  0  1  0  0  0  0  0  0
  161.4070  205.5330  147.4490 S   0  0  0  0  0  0  0  0  0  0  0  0
  160.5560  203.5890  148.7990 N   0  0  0  0  0  0  0  0  0  0  0  0
  162.5790  206.4580  147.5950 O   0  0  0  0  0  0  0  0  0  0  0  0
  2  3  2  0  0  0  0
  3 33  1  0  0  0  0
  3  1  1  0  0  0  0
  4  7  1  0  0  0  0
  5  4  1  0  0  0  0
  6  1  1  6  0  0  0
  6  5  1  0  0  0  0
  6  8  1  0  0  0  0
  7  9  1  0  0  0  0
  8  7  1  0  0  0  0
  9 10  1  0  0  0  0
 11 13  1  6  0  0  0
 11 10  1  0  0  0  0
 12 11  1  0  0  0  0
 14  1  1  0  0  0  0
 14 15  1  0  0  0  0
 16 15  1  0  0  0  0
 17 16  1  0  0  0  0
 17 18  1  0  0  0  0
 18 19  1  0  0  0  0
 19 20  1  0  0  0  0
 21 17  1  0  0  0  0
 22 21  1  0  0  0  0
 23 22  3  0  0  0  0
 24 23  1  0  0  0  0
 25 24  1  6  0  0  0
 26 25  1  0  0  0  0
 28 26  1  0  0  0  0
 30 25  1  0  0  0  0
 30 27  1  0  0  0  0
 31 30  2  0  0  0  0
 32 29  1  6  0  0  0
 32 28  1  0  0  0  0
 32 31  1  0  0  0  0
 34 33  1  0  0  0  0
 35 41  2  0  0  0  0
 36 40  1  6  0  0  0
 36 42  1  0  0  0  0
 37 34  1  0  0  0  0
 39 41  1  0  0  0  0
 39 36  1  0  0  0  0
 41 43  2  0  0  0  0
 41 37  1  0  0  0  0
 42 37  1  0  0  0  0
 42 38  1  0  0  0  0
M  END
>  <MODEL>
1

>  <REMARK>
 VINA RESULT:      -6.2      0.000      0.000
  Name = 
  17 active torsions:
  status: ('A' for Active; 'I' for Inactive)
    1  A    between atoms: C_1  and  C_10
    2  A    between atoms: C_2  and  C_24
    3  A    between atoms: C_2  and  C_32
    4  A    between atoms: C_3  and  N_40
    5  A    between atoms: C_5  and  C_26
    6  A    between atoms: C_5  and  N_30
    7  A    between atoms: C_6  and  C_36
    8  A    between atoms: C_6  and  N_38
    9  A    between atoms: C_7  and  N_8
   10  A    between atoms: C_7  and  C_26
   11  A    between atoms: N_8  and  C_27
   12  A    between atoms: C_10  and  N_30
   13  A    between atoms: C_14  and  C_36
   14  A    between atoms: C_15  and  N_40
   15  A    between atoms: C_19  and  C_22
   16  A    between atoms: N_21  and  C_24
   17  A    between atoms: C_22  and  N_30
                            x       y       z     vdW  Elec       q    Type
                         _______ _______ _______ _____ _____    ______ ____

>  <TORSDO>
F 17

$$$$
=
 OpenBabel11052411253D

 43 45  0  0  1  0  0  0  0  0999 V2000
  160.6220  209.3820  153.4570 N   0  0  0  0  0  0  0  0  0  0  0  0
  160.8430  208.7980  151.2190 O   0  0  0  0  0  0  0  0  0  0  0  0
  160.9920  208.4630  152.4180 C   0  0  0  0  0  0  0  0  0  0  0  0
  160.4260  208.8000  157.0540 C   0  0  0  0  0  2  0  0  0  0  0  0
  160.2170  208.3180  155.6340 C   0  0  0  0  0  2  0  0  0  0  0  0
  161.1220  209.2110  154.8280 C   0  0  2  0  0  3  0  0  0  0  0  0
  160.7840  210.2190  157.0050 N   0  0  0  0  0  0  0  0  0  0  0  0
  161.1820  210.5020  155.6250 C   0  0  0  0  0  2  0  0  0  0  0  0
  159.5690  210.9830  157.2610 C   0  0  0  0  0  2  0  0  0  0  0  0
  159.7750  212.4500  156.9420 C   0  0  0  0  0  2  0  0  0  0  0  0
  158.6250  212.9770  156.1020 C   0  0  1  0  0  3  0  0  0  0  0  0
  157.4640  213.2060  156.9420 N   0  0  0  0  0  1  0  0  0  0  0  0
  159.0420  214.2740  155.4490 C   0  0  0  0  0  1  0  0  0  0  0  0
  159.8380  210.5680  153.0850 C   0  0  0  0  0  2  0  0  0  0  0  0
  160.6220  211.4400  152.1130 C   0  0  0  0  0  2  0  0  0  0  0  0
  159.9480  212.7800  151.9830 C   0  0  0  0  0  2  0  0  0  0  0  0
  159.6350  213.0460  150.5850 N   0  0  0  0  0  0  0  0  0  0  0  0
  158.2170  213.4060  150.4470 C   0  0  0  0  0  2  0  0  0  0  0  0
  157.7470  214.4360  151.4770 C   0  0  0  0  0  2  0  0  0  0  0  0
  156.5970  213.8660  152.2790 C   0  0  0  0  0  1  0  0  0  0  0  0
  160.4710  214.1580  150.1370 C   0  0  0  0  0  2  0  0  0  0  0  0
  161.0130  213.8710  148.8080 C   0  0  0  0  0  0  0  0  0  0  0  0
  161.4730  213.6330  147.7190 C   0  0  0  0  0  0  0  0  0  0  0  0
  162.0060  213.3490  146.4570 N   0  0  0  0  0  2  0  0  0  0  0  0
  161.7680  214.2450  145.3280 C   0  0  1  0  0  3  0  0  0  0  0  0
  162.9520  214.4120  144.5600 O   0  0  0  0  0  0  0  0  0  0  0  0
  159.2990  213.9260  145.0170 O   0  0  0  0  0  1  0  0  0  0  0  0
  163.1830  213.2370  143.8110 C   0  0  0  0  0  2  0  0  0  0  0  0
  162.2550  211.8800  142.0760 O   0  0  0  0  0  1  0  0  0  0  0  0
  160.5810  213.7930  144.5060 C   0  0  0  0  0  0  0  0  0  0  0  0
  160.7570  213.2280  143.3120 C   0  0  0  0  0  3  0  0  0  0  0  0
  162.1250  213.1110  142.7170 C   0  0  1  0  0  3  0  0  0  0  0  0
  161.4630  207.0680  152.7050 C   0  0  0  0  0  2  0  0  0  0  0  0
  161.8970  206.2790  151.4670 C   0  0  0  0  0  2  0  0  0  0  0  0
  159.9470  206.4300  148.1820 O   0  0  0  0  0  0  0  0  0  0  0  0
  161.2190  203.5400  149.9170 C   0  0  2  0  0  3  0  0  0  0  0  0
  160.8040  205.7770  150.6080 N   0  0  0  0  0  0  0  0  0  0  0  0
  160.7830  204.0580  152.1160 F   0  0  0  0  0  0  0  0  0  0  0  0
  161.3920  204.2110  148.5640 C   0  0  0  0  0  2  0  0  0  0  0  0
  160.4570  202.2390  149.7320 C   0  0  0  0  0  1  0  0  0  0  0  0
  161.1440  205.9000  148.9230 S   0  0  0  0  0  0  0  0  0  0  0  0
  160.4810  204.4170  150.8430 N   0  0  0  0  0  0  0  0  0  0  0  0
  162.3550  206.7390  148.6360 O   0  0  0  0  0  0  0  0  0  0  0  0
  2  3  2  0  0  0  0
  3 33  1  0  0  0  0
  3  1  1  0  0  0  0
  5  4  1  0  0  0  0
  6  1  1  6  0  0  0
  6  8  1  0  0  0  0
  6  5  1  0  0  0  0
  7  4  1  0  0  0  0
  7  9  1  0  0  0  0
  8  7  1  0  0  0  0
 10  9  1  0  0  0  0
 11 13  1  1  0  0  0
 11 10  1  0  0  0  0
 11 12  1  0  0  0  0
 14  1  1  0  0  0  0
 15 14  1  0  0  0  0
 16 15  1  0  0  0  0
 17 16  1  0  0  0  0
 18 17  1  0  0  0  0
 18 19  1  0  0  0  0
 19 20  1  0  0  0  0
 21 17  1  0  0  0  0
 22 21  1  0  0  0  0
 23 22  3  0  0  0  0
 24 23  1  0  0  0  0
 25 24  1  1  0  0  0
 26 25  1  0  0  0  0
 28 26  1  0  0  0  0
 30 27  1  0  0  0  0
 30 25  1  0  0  0  0
 31 30  2  0  0  0  0
 32 29  1  1  0  0  0
 32 31  1  0  0  0  0
 32 28  1  0  0  0  0
 34 33  1  0  0  0  0
 35 41  2  0  0  0  0
 36 40  1  6  0  0  0
 36 42  1  0  0  0  0
 37 42  1  0  0  0  0
 37 34  1  0  0  0  0
 39 41  1  0  0  0  0
 39 36  1  0  0  0  0
 41 37  1  0  0  0  0
 42 38  1  0  0  0  0
 43 41  2  0  0  0  0
M  END
>  <MODEL>
2

>  <REMARK>
 VINA RESULT:      -6.1      1.670      2.236
  Name = 
  17 active torsions:
  status: ('A' for Active; 'I' for Inactive)
    1  A    between atoms: C_1  and  C_10
    2  A    between atoms: C_2  and  C_24
    3  A    between atoms: C_2  and  C_32
    4  A    between atoms: C_3  and  N_40
    5  A    between atoms: C_5  and  C_26
    6  A    between atoms: C_5  and  N_30
    7  A    between atoms: C_6  and  C_36
    8  A    between atoms: C_6  and  N_38
    9  A    between atoms: C_7  and  N_8
   10  A    between atoms: C_7  and  C_26
   11  A    between atoms: N_8  and  C_27
   12  A    between atoms: C_10  and  N_30
   13  A    between atoms: C_14  and  C_36
   14  A    between atoms: C_15  and  N_40
   15  A    between atoms: C_19  and  C_22
   16  A    between atoms: N_21  and  C_24
   17  A    between atoms: C_22  and  N_30
                            x       y       z     vdW  Elec       q    Type
                         _______ _______ _______ _____ _____    ______ ____

>  <TORSDO>
F 17

$$$$
=
 OpenBabel11052411253D

 43 45  0  0  1  0  0  0  0  0999 V2000
  161.8540  208.3040  149.1320 N   0  0  0  0  0  0  0  0  0  0  0  0
  162.4820  210.2030  150.3130 O   0  0  0  0  0  0  0  0  0  0  0  0
  161.9640  209.7280  149.2760 C   0  0  0  0  0  0  0  0  0  0  0  0
  160.7020  205.7920  146.7480 C   0  0  0  0  0  2  0  0  0  0  0  0
  160.4020  206.8160  147.8220 C   0  0  0  0  0  2  0  0  0  0  0  0
  161.6230  207.6950  147.8150 C   0  0  2  0  0  3  0  0  0  0  0  0
  162.1540  205.6260  146.6710 N   0  0  0  0  0  0  0  0  0  0  0  0
  162.7430  206.7760  147.3590 C   0  0  0  0  0  2  0  0  0  0  0  0
  162.4990  204.4440  147.4510 C   0  0  0  0  0  2  0  0  0  0  0  0
  161.3400  203.4680  147.4970 C   0  0  0  0  0  2  0  0  0  0  0  0
  161.2210  202.8500  148.8790 C   0  0  1  0  0  3  0  0  0  0  0  0
  160.8210  203.8610  149.8400 N   0  0  0  0  0  1  0  0  0  0  0  0
  160.1880  201.7490  148.8430 C   0  0  0  0  0  1  0  0  0  0  0  0
  162.1050  207.4670  150.3130 C   0  0  0  0  0  2  0  0  0  0  0  0
  160.8950  207.4780  151.2380 C   0  0  0  0  0  2  0  0  0  0  0  0
  161.2530  206.8190  152.5430 C   0  0  0  0  0  2  0  0  0  0  0  0
  160.7400  207.6080  153.6570 N   0  0  0  0  0  0  0  0  0  0  0  0
  161.0140  206.9220  154.9260 C   0  0  0  0  0  2  0  0  0  0  0  0
  161.0810  207.8680  156.1270 C   0  0  0  0  0  2  0  0  0  0  0  0
  160.2390  207.3180  157.2590 C   0  0  0  0  0  1  0  0  0  0  0  0
  161.4150  208.9040  153.6420 C   0  0  0  0  0  2  0  0  0  0  0  0
  160.4420  209.9700  153.3950 C   0  0  0  0  0  0  0  0  0  0  0  0
  159.6420  210.8450  153.1770 C   0  0  0  0  0  0  0  0  0  0  0  0
  158.7080  211.8550  152.9240 N   0  0  0  0  0  2  0  0  0  0  0  0
  158.2880  212.7670  153.9850 C   0  0  1  0  0  3  0  0  0  0  0  0
  158.0370  214.0650  153.4640 O   0  0  0  0  0  0  0  0  0  0  0  0
  157.3240  211.1300  155.6240 O   0  0  0  0  0  1  0  0  0  0  0  0
  156.8190  214.0460  152.7500 C   0  0  0  0  0  2  0  0  0  0  0  0
  154.4680  213.7060  153.0210 O   0  0  0  0  0  1  0  0  0  0  0  0
  157.1230  212.2020  154.7680 C   0  0  0  0  0  0  0  0  0  0  0  0
  155.8960  212.6960  154.6110 C   0  0  0  0  0  3  0  0  0  0  0  0
  155.6560  213.8800  153.7270 C   0  0  1  0  0  3  0  0  0  0  0  0
  161.3920  210.6870  148.2730 C   0  0  0  0  0  2  0  0  0  0  0  0
  162.2370  211.9420  148.0450 C   0  0  0  0  0  2  0  0  0  0  0  0
  160.6690  214.4530  145.6250 O   0  0  0  0  0  0  0  0  0  0  0  0
  159.2470  213.0000  148.6000 C   0  0  2  0  0  3  0  0  0  0  0  0
  161.4840  213.1920  147.8150 N   0  0  0  0  0  0  0  0  0  0  0  0
  161.0350  213.0050  150.0500 F   0  0  0  0  0  0  0  0  0  0  0  0
  158.9420  213.0520  147.1120 C   0  0  0  0  0  2  0  0  0  0  0  0
  158.2210  213.8350  149.3470 C   0  0  0  0  0  1  0  0  0  0  0  0
  160.5230  213.1620  146.3850 S   0  0  0  0  0  0  0  0  0  0  0  0
  160.5990  213.5210  148.8740 N   0  0  0  0  0  0  0  0  0  0  0  0
  160.8390  211.9920  145.5000 O   0  0  0  0  0  0  0  0  0  0  0  0
  1  3  1  0  0  0  0
  1 14  1  0  0  0  0
  3  2  2  0  0  0  0
  4  5  1  0  0  0  0
  6  5  1  0  0  0  0
  6  1  1  1  0  0  0
  7  4  1  0  0  0  0
  7  8  1  0  0  0  0
  7  9  1  0  0  0  0
  8  6  1  0  0  0  0
  9 10  1  0  0  0  0
 10 11  1  0  0  0  0
 11 13  1  6  0  0  0
 11 12  1  0  0  0  0
 14 15  1  0  0  0  0
 15 16  1  0  0  0  0
 16 17  1  0  0  0  0
 17 18  1  0  0  0  0
 18 19  1  0  0  0  0
 19 20  1  0  0  0  0
 21 17  1  0  0  0  0
 22 21  1  0  0  0  0
 23 22  3  0  0  0  0
 24 23  1  0  0  0  0
 25 24  1  6  0  0  0
 25 30  1  0  0  0  0
 26 25  1  0  0  0  0
 28 26  1  0  0  0  0
 28 32  1  0  0  0  0
 30 27  1  0  0  0  0
 31 30  2  0  0  0  0
 32 29  1  6  0  0  0
 32 31  1  0  0  0  0
 33  3  1  0  0  0  0
 34 33  1  0  0  0  0
 35 41  2  0  0  0  0
 36 42  1  0  0  0  0
 36 40  1  1  0  0  0
 37 34  1  0  0  0  0
 37 42  1  0  0  0  0
 39 36  1  0  0  0  0
 41 39  1  0  0  0  0
 41 37  1  0  0  0  0
 42 38  1  0  0  0  0
 43 41  2  0  0  0  0
M  END
>  <MODEL>
3

>  <REMARK>
 VINA RESULT:      -5.8      3.376      8.441
  Name = 
  17 active torsions:
  status: ('A' for Active; 'I' for Inactive)
    1  A    between atoms: C_1  and  C_10
    2  A    between atoms: C_2  and  C_24
    3  A    between atoms: C_2  and  C_32
    4  A    between atoms: C_3  and  N_40
    5  A    between atoms: C_5  and  C_26
    6  A    between atoms: C_5  and  N_30
    7  A    between atoms: C_6  and  C_36
    8  A    between atoms: C_6  and  N_38
    9  A    between atoms: C_7  and  N_8
   10  A    between atoms: C_7  and  C_26
   11  A    between atoms: N_8  and  C_27
   12  A    between atoms: C_10  and  N_30
   13  A    between atoms: C_14  and  C_36
   14  A    between atoms: C_15  and  N_40
   15  A    between atoms: C_19  and  C_22
   16  A    between atoms: N_21  and  C_24
   17  A    between atoms: C_22  and  N_30
                            x       y       z     vdW  Elec       q    Type
                         _______ _______ _______ _____ _____    ______ ____

>  <TORSDO>
F 17

$$$$
=
 OpenBabel11052411253D

 43 45  0  0  1  0  0  0  0  0999 V2000
  162.0220  210.0290  150.9830 N   0  0  0  0  0  0  0  0  0  0  0  0
  161.9440  209.6050  148.7000 O   0  0  0  0  0  0  0  0  0  0  0  0
  162.0660  210.4550  149.6130 C   0  0  0  0  0  0  0  0  0  0  0  0
  160.7940  211.2140  154.2080 C   0  0  0  0  0  2  0  0  0  0  0  0
  161.7020  210.3090  153.4030 C   0  0  0  0  0  2  0  0  0  0  0  0
  161.7740  210.9930  152.0640 C   0  0  2  0  0  3  0  0  0  0  0  0
  159.8760  211.8800  153.2830 N   0  0  0  0  0  0  0  0  0  0  0  0
  160.4470  211.7220  151.9430 C   0  0  0  0  0  2  0  0  0  0  0  0
  158.6240  211.1350  153.3000 C   0  0  0  0  0  2  0  0  0  0  0  0
  157.4950  211.9870  153.8450 C   0  0  0  0  0  2  0  0  0  0  0  0
  157.0940  211.5130  155.2310 C   0  0  1  0  0  3  0  0  0  0  0  0
  156.7360  212.6500  156.0580 N   0  0  0  0  0  1  0  0  0  0  0  0
  155.9130  210.5790  155.1140 C   0  0  0  0  0  1  0  0  0  0  0  0
  162.1050  208.5890  151.2630 C   0  0  0  0  0  2  0  0  0  0  0  0
  160.8310  207.8870  150.8100 C   0  0  0  0  0  2  0  0  0  0  0  0
  160.4780  206.8020  151.7920 C   0  0  0  0  0  2  0  0  0  0  0  0
  161.6910  206.2280  152.3580 N   0  0  0  0  0  0  0  0  0  0  0  0
  161.8220  206.6180  153.7680 C   0  0  0  0  0  2  0  0  0  0  0  0
  160.4800  206.8840  154.4540 C   0  0  0  0  0  2  0  0  0  0  0  0
  160.7160  207.3450  155.8760 C   0  0  0  0  0  1  0  0  0  0  0  0
  161.5930  204.7720  152.2570 C   0  0  0  0  0  2  0  0  0  0  0  0
  161.4530  204.3780  150.8550 C   0  0  0  0  0  0  0  0  0  0  0  0
  161.3380  204.0670  149.6950 C   0  0  0  0  0  0  0  0  0  0  0  0
  161.2110  203.7080  148.3490 N   0  0  0  0  0  2  0  0  0  0  0  0
  161.9720  204.4040  147.3160 C   0  0  1  0  0  3  0  0  0  0  0  0
  162.3630  203.5060  146.2870 O   0  0  0  0  0  0  0  0  0  0  0  0
  161.0880  206.7350  147.6040 O   0  0  0  0  0  1  0  0  0  0  0  0
  161.2340  203.1910  145.4980 C   0  0  0  0  0  2  0  0  0  0  0  0
  159.6180  204.1620  144.0280 O   0  0  0  0  0  1  0  0  0  0  0  0
  161.2220  205.6140  146.8000 C   0  0  0  0  0  0  0  0  0  0  0  0
  160.6530  205.5970  145.5950 C   0  0  0  0  0  3  0  0  0  0  0  0
  160.8180  204.4180  144.6880 C   0  0  1  0  0  3  0  0  0  0  0  0
  162.3530  211.8740  149.2180 C   0  0  0  0  0  2  0  0  0  0  0  0
  161.1260  212.6610  148.7520 C   0  0  0  0  0  2  0  0  0  0  0  0
  158.3020  212.1830  146.2190 O   0  0  0  0  0  0  0  0  0  0  0  0
  161.2580  214.2230  145.9400 C   0  0  2  0  0  3  0  0  0  0  0  0
  160.6870  212.4070  147.3640 N   0  0  0  0  0  0  0  0  0  0  0  0
  162.8710  212.8790  146.8810 F   0  0  0  0  0  0  0  0  0  0  0  0
  159.7500  214.4130  145.9230 C   0  0  0  0  0  2  0  0  0  0  0  0
  161.8030  214.4530  144.5400 C   0  0  0  0  0  1  0  0  0  0  0  0
  159.1790  213.1440  146.9750 S   0  0  0  0  0  0  0  0  0  0  0  0
  161.6090  212.8640  146.3870 N   0  0  0  0  0  0  0  0  0  0  0  0
  158.4620  213.6700  148.1840 O   0  0  0  0  0  0  0  0  0  0  0  0
  1 14  1  0  0  0  0
  2  3  2  0  0  0  0
  3  1  1  0  0  0  0
  5  4  1  0  0  0  0
  6  1  1  6  0  0  0
  6  5  1  0  0  0  0
  7  9  1  0  0  0  0
  7  4  1  0  0  0  0
  8  6  1  0  0  0  0
  8  7  1  0  0  0  0
  9 10  1  0  0  0  0
 10 11  1  0  0  0  0
 11 13  1  6  0  0  0
 11 12  1  0  0  0  0
 15 14  1  0  0  0  0
 15 16  1  0  0  0  0
 16 17  1  0  0  0  0
 17 18  1  0  0  0  0
 18 19  1  0  0  0  0
 19 20  1  0  0  0  0
 21 17  1  0  0  0  0
 22 21  1  0  0  0  0
 23 22  3  0  0  0  0
 24 23  1  0  0  0  0
 25 24  1  1  0  0  0
 26 25  1  0  0  0  0
 28 26  1  0  0  0  0
 30 25  1  0  0  0  0
 30 27  1  0  0  0  0
 31 30  2  0  0  0  0
 32 29  1  1  0  0  0
 32 28  1  0  0  0  0
 32 31  1  0  0  0  0
 33  3  1  0  0  0  0
 34 33  1  0  0  0  0
 35 41  2  0  0  0  0
 36 40  1  6  0  0  0
 36 42  1  0  0  0  0
 37 34  1  0  0  0  0
 39 36  1  0  0  0  0
 39 41  1  0  0  0  0
 41 37  1  0  0  0  0
 41 43  2  0  0  0  0
 42 38  1  0  0  0  0
 42 37  1  0  0  0  0
M  END
>  <MODEL>
4

>  <REMARK>
 VINA RESULT:      -5.7      2.899      7.378
  Name = 
  17 active torsions:
  status: ('A' for Active; 'I' for Inactive)
    1  A    between atoms: C_1  and  C_10
    2  A    between atoms: C_2  and  C_24
    3  A    between atoms: C_2  and  C_32
    4  A    between atoms: C_3  and  N_40
    5  A    between atoms: C_5  and  C_26
    6  A    between atoms: C_5  and  N_30
    7  A    between atoms: C_6  and  C_36
    8  A    between atoms: C_6  and  N_38
    9  A    between atoms: C_7  and  N_8
   10  A    between atoms: C_7  and  C_26
   11  A    between atoms: N_8  and  C_27
   12  A    between atoms: C_10  and  N_30
   13  A    between atoms: C_14  and  C_36
   14  A    between atoms: C_15  and  N_40
   15  A    between atoms: C_19  and  C_22
   16  A    between atoms: N_21  and  C_24
   17  A    between atoms: C_22  and  N_30
                            x       y       z     vdW  Elec       q    Type
                         _______ _______ _______ _____ _____    ______ ____

>  <TORSDO>
F 17

$$$$
=
 OpenBabel11052411253D

 43 45  0  0  1  0  0  0  0  0999 V2000
  161.9950  210.6420  149.4780 N   0  0  0  0  0  0  0  0  0  0  0  0
  161.2830  208.6190  150.3730 O   0  0  0  0  0  0  0  0  0  0  0  0
  161.8250  209.2180  149.4140 C   0  0  0  0  0  0  0  0  0  0  0  0
  162.4530  213.6400  147.4500 C   0  0  0  0  0  2  0  0  0  0  0  0
  162.8960  212.7480  148.5890 C   0  0  0  0  0  2  0  0  0  0  0  0
  162.2560  211.4250  148.2630 C   0  0  2  0  0  3  0  0  0  0  0  0
  161.1590  213.1540  146.9670 N   0  0  0  0  0  0  0  0  0  0  0  0
  161.0020  211.7960  147.4910 C   0  0  0  0  0  2  0  0  0  0  0  0
  160.1260  213.9710  147.5910 C   0  0  0  0  0  2  0  0  0  0  0  0
  158.9000  214.0630  146.7050 C   0  0  0  0  0  2  0  0  0  0  0  0
  157.7140  213.3860  147.3690 C   0  0  1  0  0  3  0  0  0  0  0  0
  156.8030  214.3860  147.8920 N   0  0  0  0  0  1  0  0  0  0  0  0
  156.9970  212.5300  146.3510 C   0  0  0  0  0  1  0  0  0  0  0  0
  161.7730  211.3080  150.7700 C   0  0  0  0  0  2  0  0  0  0  0  0
  160.3340  211.7950  150.8760 C   0  0  0  0  0  2  0  0  0  0  0  0
  160.3140  213.1850  151.4520 C   0  0  0  0  0  2  0  0  0  0  0  0
  159.2130  213.3160  152.3980 N   0  0  0  0  0  0  0  0  0  0  0  0
  158.2590  214.3270  151.9230 C   0  0  0  0  0  2  0  0  0  0  0  0
  156.9330  214.3200  152.6880 C   0  0  0  0  0  2  0  0  0  0  0  0
  155.7820  214.4520  151.7140 C   0  0  0  0  0  1  0  0  0  0  0  0
  158.5470  212.0190  152.5020 C   0  0  0  0  0  2  0  0  0  0  0  0
  158.7880  211.4390  153.8240 C   0  0  0  0  0  0  0  0  0  0  0  0
  158.9720  210.9640  154.9170 C   0  0  0  0  0  0  0  0  0  0  0  0
  159.1830  210.4080  156.1830 N   0  0  0  0  0  2  0  0  0  0  0  0
  160.4200  209.6950  156.4880 C   0  0  1  0  0  3  0  0  0  0  0  0
  160.1420  208.3960  156.9930 O   0  0  0  0  0  0  0  0  0  0  0  0
  162.0020  210.8540  154.9230 O   0  0  0  0  0  1  0  0  0  0  0  0
  159.7160  207.5710  155.9290 C   0  0  0  0  0  2  0  0  0  0  0  0
  160.4490  206.6060  153.8680 O   0  0  0  0  0  1  0  0  0  0  0  0
  161.3590  209.6850  155.3010 C   0  0  0  0  0  0  0  0  0  0  0  0
  161.5410  208.5740  154.5880 C   0  0  0  0  0  3  0  0  0  0  0  0
  160.8940  207.2890  154.9980 C   0  0  1  0  0  3  0  0  0  0  0  0
  162.3610  208.3920  148.2820 C   0  0  0  0  0  2  0  0  0  0  0  0
  162.3530  206.8830  148.5410 C   0  0  0  0  0  2  0  0  0  0  0  0
  160.3500  205.7220  145.4980 O   0  0  0  0  0  0  0  0  0  0  0  0
  161.4410  203.8020  148.3450 C   0  0  2  0  0  3  0  0  0  0  0  0
  161.2080  206.1390  147.9760 N   0  0  0  0  0  0  0  0  0  0  0  0
  161.0920  205.2660  150.0860 F   0  0  0  0  0  0  0  0  0  0  0  0
  161.6340  203.7940  146.8370 C   0  0  0  0  0  2  0  0  0  0  0  0
  160.5810  202.6140  148.7410 C   0  0  0  0  0  1  0  0  0  0  0  0
  161.5200  205.4830  146.4130 S   0  0  0  0  0  0  0  0  0  0  0  0
  160.7900  205.0500  148.7810 N   0  0  0  0  0  0  0  0  0  0  0  0
  162.7830  206.0150  145.8020 O   0  0  0  0  0  0  0  0  0  0  0  0
  1 14  1  0  0  0  0
  3  1  1  0  0  0  0
  3  2  2  0  0  0  0
  4  5  1  0  0  0  0
  6  5  1  0  0  0  0
  6  1  1  1  0  0  0
  7  4  1  0  0  0  0
  7  8  1  0  0  0  0
  7  9  1  0  0  0  0
  8  6  1  0  0  0  0
 10 11  1  0  0  0  0
 10  9  1  0  0  0  0
 11 13  1  6  0  0  0
 11 12  1  0  0  0  0
 14 15  1  0  0  0  0
 15 16  1  0  0  0  0
 16 17  1  0  0  0  0
 17 21  1  0  0  0  0
 18 17  1  0  0  0  0
 18 19  1  0  0  0  0
 20 19  1  0  0  0  0
 21 22  1  0  0  0  0
 22 23  3  0  0  0  0
 23 24  1  0  0  0  0
 25 24  1  6  0  0  0
 25 26  1  0  0  0  0
 27 30  1  0  0  0  0
 28 26  1  0  0  0  0
 30 25  1  0  0  0  0
 31 32  1  0  0  0  0
 31 30  2  0  0  0  0
 32 29  1  6  0  0  0
 32 28  1  0  0  0  0
 33 34  1  0  0  0  0
 33  3  1  0  0  0  0
 35 41  2  0  0  0  0
 36 40  1  6  0  0  0
 36 42  1  0  0  0  0
 37 34  1  0  0  0  0
 37 42  1  0  0  0  0
 39 36  1  0  0  0  0
 41 39  1  0  0  0  0
 41 37  1  0  0  0  0
 42 38  1  0  0  0  0
 43 41  2  0  0  0  0
M  END
>  <MODEL>
5

>  <REMARK>
 VINA RESULT:      -5.6      2.475      6.958
  Name = 
  17 active torsions:
  status: ('A' for Active; 'I' for Inactive)
    1  A    between atoms: C_1  and  C_10
    2  A    between atoms: C_2  and  C_24
    3  A    between atoms: C_2  and  C_32
    4  A    between atoms: C_3  and  N_40
    5  A    between atoms: C_5  and  C_26
    6  A    between atoms: C_5  and  N_30
    7  A    between atoms: C_6  and  C_36
    8  A    between atoms: C_6  and  N_38
    9  A    between atoms: C_7  and  N_8
   10  A    between atoms: C_7  and  C_26
   11  A    between atoms: N_8  and  C_27
   12  A    between atoms: C_10  and  N_30
   13  A    between atoms: C_14  and  C_36
   14  A    between atoms: C_15  and  N_40
   15  A    between atoms: C_19  and  C_22
   16  A    between atoms: N_21  and  C_24
   17  A    between atoms: C_22  and  N_30
                            x       y       z     vdW  Elec       q    Type
                         _______ _______ _______ _____ _____    ______ ____

>  <TORSDO>
F 17

$$$$
=
 OpenBabel11052411253D

 43 45  0  0  1  0  0  0  0  0999 V2000
  161.9510  208.5030  149.6020 N   0  0  0  0  0  0  0  0  0  0  0  0
  162.6950  210.3160  150.8510 O   0  0  0  0  0  0  0  0  0  0  0  0
  162.2420  209.9000  149.7590 C   0  0  0  0  0  0  0  0  0  0  0  0
  160.7500  206.1370  147.0980 C   0  0  0  0  0  2  0  0  0  0  0  0
  160.4710  207.2090  148.1290 C   0  0  0  0  0  2  0  0  0  0  0  0
  161.7950  207.9110  148.2670 C   0  0  2  0  0  3  0  0  0  0  0  0
  162.1640  205.7700  147.1940 N   0  0  0  0  0  0  0  0  0  0  0  0
  162.8220  206.8390  147.9470 C   0  0  0  0  0  2  0  0  0  0  0  0
  162.2470  204.5640  148.0090 C   0  0  0  0  0  2  0  0  0  0  0  0
  160.9480  203.7860  147.9570 C   0  0  0  0  0  2  0  0  0  0  0  0
  161.2240  202.2920  147.9740 C   0  0  1  0  0  3  0  0  0  0  0  0
  160.4540  201.6590  149.0290 N   0  0  0  0  0  1  0  0  0  0  0  0
  160.8360  201.7010  146.6400 C   0  0  0  0  0  1  0  0  0  0  0  0
  161.9420  207.6590  150.8050 C   0  0  0  0  0  2  0  0  0  0  0  0
  160.7490  208.0040  151.6870 C   0  0  0  0  0  2  0  0  0  0  0  0
  161.1920  208.0960  153.1220 C   0  0  0  0  0  2  0  0  0  0  0  0
  160.7540  206.9160  153.8560 N   0  0  0  0  0  0  0  0  0  0  0  0
  161.6100  205.7700  153.5220 C   0  0  0  0  0  2  0  0  0  0  0  0
  160.8310  204.5540  153.0140 C   0  0  0  0  0  2  0  0  0  0  0  0
  161.3420  204.1560  151.6460 C   0  0  0  0  0  1  0  0  0  0  0  0
  160.8550  207.2070  155.2850 C   0  0  0  0  0  2  0  0  0  0  0  0
  160.2360  208.5010  155.5750 C   0  0  0  0  0  0  0  0  0  0  0  0
  159.7260  209.5710  155.8000 C   0  0  0  0  0  0  0  0  0  0  0  0
  159.1290  210.8090  156.0580 N   0  0  0  0  0  2  0  0  0  0  0  0
  159.7790  212.0510  155.6500 C   0  0  1  0  0  3  0  0  0  0  0  0
  160.7200  211.8100  154.6120 O   0  0  0  0  0  0  0  0  0  0  0  0
  158.0180  213.7140  156.3040 O   0  0  0  0  0  1  0  0  0  0  0  0
  160.0230  211.5670  153.4080 C   0  0  0  0  0  2  0  0  0  0  0  0
  158.5520  212.5940  151.8280 O   0  0  0  0  0  1  0  0  0  0  0  0
  158.7630  213.1160  155.2990 C   0  0  0  0  0  0  0  0  0  0  0  0
  158.5460  213.4560  154.0290 C   0  0  0  0  0  3  0  0  0  0  0  0
  159.3650  212.8590  152.9280 C   0  0  1  0  0  3  0  0  0  0  0  0
  161.9320  210.9130  148.6960 C   0  0  0  0  0  2  0  0  0  0  0  0
  161.2970  212.2040  149.2180 C   0  0  0  0  0  2  0  0  0  0  0  0
  162.7500  214.4190  146.4620 O   0  0  0  0  0  0  0  0  0  0  0  0
  159.6300  212.6190  146.4950 C   0  0  2  0  0  3  0  0  0  0  0  0
  161.1220  213.2830  148.2240 N   0  0  0  0  0  0  0  0  0  0  0  0
  158.9020  212.9410  148.6550 F   0  0  0  0  0  0  0  0  0  0  0  0
  160.9040  212.6530  145.6680 C   0  0  0  0  0  2  0  0  0  0  0  0
  158.4910  213.2060  145.6780 C   0  0  0  0  0  1  0  0  0  0  0  0
  162.1220  213.1030  146.8320 S   0  0  0  0  0  0  0  0  0  0  0  0
  159.7940  213.3930  147.7380 N   0  0  0  0  0  0  0  0  0  0  0  0
  163.1750  212.0490  147.0080 O   0  0  0  0  0  0  0  0  0  0  0  0
  1  3  1  0  0  0  0
  1 14  1  0  0  0  0
  3  2  2  0  0  0  0
  4  7  1  0  0  0  0
  4  5  1  0  0  0  0
  5  6  1  0  0  0  0
  6  1  1  1  0  0  0
  7  8  1  0  0  0  0
  7  9  1  0  0  0  0
  8  6  1  0  0  0  0
 10 11  1  0  0  0  0
 10  9  1  0  0  0  0
 11 13  1  6  0  0  0
 11 12  1  0  0  0  0
 14 15  1  0  0  0  0
 15 16  1  0  0  0  0
 16 17  1  0  0  0  0
 17 21  1  0  0  0  0
 18 17  1  0  0  0  0
 19 18  1  0  0  0  0
 20 19  1  0  0  0  0
 21 22  1  0  0  0  0
 22 23  3  0  0  0  0
 23 24  1  0  0  0  0
 25 24  1  6  0  0  0
 26 25  1  0  0  0  0
 28 26  1  0  0  0  0
 30 25  1  0  0  0  0
 30 27  1  0  0  0  0
 31 30  2  0  0  0  0
 32 29  1  6  0  0  0
 32 28  1  0  0  0  0
 32 31  1  0  0  0  0
 33 34  1  0  0  0  0
 33  3  1  0  0  0  0
 35 41  2  0  0  0  0
 36 40  1  6  0  0  0
 36 42  1  0  0  0  0
 37 34  1  0  0  0  0
 39 36  1  0  0  0  0
 39 41  1  0  0  0  0
 41 43  2  0  0  0  0
 41 37  1  0  0  0  0
 42 37  1  0  0  0  0
 42 38  1  0  0  0  0
M  END
>  <MODEL>
6

>  <REMARK>
 VINA RESULT:      -5.5      3.250      8.645
  Name = 
  17 active torsions:
  status: ('A' for Active; 'I' for Inactive)
    1  A    between atoms: C_1  and  C_10
    2  A    between atoms: C_2  and  C_24
    3  A    between atoms: C_2  and  C_32
    4  A    between atoms: C_3  and  N_40
    5  A    between atoms: C_5  and  C_26
    6  A    between atoms: C_5  and  N_30
    7  A    between atoms: C_6  and  C_36
    8  A    between atoms: C_6  and  N_38
    9  A    between atoms: C_7  and  N_8
   10  A    between atoms: C_7  and  C_26
   11  A    between atoms: N_8  and  C_27
   12  A    between atoms: C_10  and  N_30
   13  A    between atoms: C_14  and  C_36
   14  A    between atoms: C_15  and  N_40
   15  A    between atoms: C_19  and  C_22
   16  A    between atoms: N_21  and  C_24
   17  A    between atoms: C_22  and  N_30
                            x       y       z     vdW  Elec       q    Type
                         _______ _______ _______ _____ _____    ______ ____

>  <TORSDO>
F 17

$$$$
=
 OpenBabel11052411253D

 43 45  0  0  1  0  0  0  0  0999 V2000
  161.1720  207.4170  152.9030 N   0  0  0  0  0  0  0  0  0  0  0  0
  161.3680  208.4160  154.9920 O   0  0  0  0  0  0  0  0  0  0  0  0
  161.1160  208.5580  153.7720 C   0  0  0  0  0  0  0  0  0  0  0  0
  162.7050  208.3410  149.7230 C   0  0  0  0  0  2  0  0  0  0  0  0
  162.6960  207.4930  150.9770 C   0  0  0  0  0  2  0  0  0  0  0  0
  161.2690  207.5820  151.4460 C   0  0  2  0  0  3  0  0  0  0  0  0
  161.6740  209.3710  149.8620 N   0  0  0  0  0  0  0  0  0  0  0  0
  160.7950  208.9380  150.9500 C   0  0  0  0  0  2  0  0  0  0  0  0
  162.3350  210.5900  150.3110 C   0  0  0  0  0  2  0  0  0  0  0  0
  161.7000  211.8130  149.6800 C   0  0  0  0  0  2  0  0  0  0  0  0
  161.9260  211.8130  148.1780 C   0  0  1  0  0  3  0  0  0  0  0  0
  160.8550  212.5340  147.5170 N   0  0  0  0  0  1  0  0  0  0  0  0
  163.2480  212.4780  147.8750 C   0  0  0  0  0  1  0  0  0  0  0  0
  161.2590  206.0840  153.5160 C   0  0  0  0  0  2  0  0  0  0  0  0
  161.8800  205.0910  152.5420 C   0  0  0  0  0  2  0  0  0  0  0  0
  160.8750  204.0240  152.2010 C   0  0  0  0  0  2  0  0  0  0  0  0
  161.0970  203.5460  150.8420 N   0  0  0  0  0  0  0  0  0  0  0  0
  160.8240  202.1050  150.7650 C   0  0  0  0  0  2  0  0  0  0  0  0
  160.2180  201.6700  149.4290 C   0  0  0  0  0  2  0  0  0  0  0  0
  161.2190  200.8330  148.6620 C   0  0  0  0  0  1  0  0  0  0  0  0
  160.1870  204.2680  149.9540 C   0  0  0  0  0  2  0  0  0  0  0  0
  160.9500  204.9640  148.9180 C   0  0  0  0  0  0  0  0  0  0  0  0
  161.5890  205.5410  148.0730 C   0  0  0  0  0  0  0  0  0  0  0  0
  162.3350  206.2040  147.0930 N   0  0  0  0  0  2  0  0  0  0  0  0
  162.2050  205.8420  145.6840 C   0  0  1  0  0  3  0  0  0  0  0  0
  163.1000  204.7910  145.3490 O   0  0  0  0  0  0  0  0  0  0  0  0
  159.8440  206.5720  145.2510 O   0  0  0  0  0  1  0  0  0  0  0  0
  162.6120  203.5820  145.8920 C   0  0  0  0  0  2  0  0  0  0  0  0
  160.7780  202.0520  145.7680 O   0  0  0  0  0  1  0  0  0  0  0  0
  160.7670  205.5400  145.3220 C   0  0  0  0  0  0  0  0  0  0  0  0
  160.3680  204.2860  145.1130 C   0  0  0  0  0  3  0  0  0  0  0  0
  161.3500  203.1570  145.1410 C   0  0  1  0  0  3  0  0  0  0  0  0
  160.6690  209.9100  153.3000 C   0  0  0  0  0  2  0  0  0  0  0  0
  159.8410  210.6950  154.3200 C   0  0  0  0  0  2  0  0  0  0  0  0
  159.5800  213.9360  152.3090 O   0  0  0  0  0  0  0  0  0  0  0  0
  158.3150  213.2220  155.6060 C   0  0  2  0  0  3  0  0  0  0  0  0
  159.9600  212.1660  154.2510 N   0  0  0  0  0  0  0  0  0  0  0  0
  160.0250  211.9900  156.5300 F   0  0  0  0  0  0  0  0  0  0  0  0
  157.7650  213.6350  154.2510 C   0  0  0  0  0  2  0  0  0  0  0  0
  158.2040  214.3940  156.5660 C   0  0  0  0  0  1  0  0  0  0  0  0
  158.8720  212.8900  153.1280 S   0  0  0  0  0  0  0  0  0  0  0  0
  159.7260  212.8100  155.4930 N   0  0  0  0  0  0  0  0  0  0  0  0
  158.2060  211.8850  152.2350 O   0  0  0  0  0  0  0  0  0  0  0  0
  1 14  1  0  0  0  0
  1  3  1  0  0  0  0
  3  2  2  0  0  0  0
  4  7  1  0  0  0  0
  4  5  1  0  0  0  0
  5  6  1  0  0  0  0
  6  1  1  1  0  0  0
  7  9  1  0  0  0  0
  7  8  1  0  0  0  0
  8  6  1  0  0  0  0
 10  9  1  0  0  0  0
 11 13  1  1  0  0  0
 11 10  1  0  0  0  0
 12 11  1  0  0  0  0
 15 14  1  0  0  0  0
 16 15  1  0  0  0  0
 17 16  1  0  0  0  0
 18 17  1  0  0  0  0
 19 18  1  0  0  0  0
 20 19  1  0  0  0  0
 21 17  1  0  0  0  0
 22 21  1  0  0  0  0
 23 22  3  0  0  0  0
 24 23  1  0  0  0  0
 25 24  1  1  0  0  0
 26 25  1  0  0  0  0
 26 28  1  0  0  0  0
 27 30  1  0  0  0  0
 30 25  1  0  0  0  0
 31 32  1  0  0  0  0
 31 30  2  0  0  0  0
 32 29  1  1  0  0  0
 32 28  1  0  0  0  0
 33  3  1  0  0  0  0
 33 34  1  0  0  0  0
 35 41  2  0  0  0  0
 36 40  1  1  0  0  0
 37 34  1  0  0  0  0
 37 42  1  0  0  0  0
 39 36  1  0  0  0  0
 41 37  1  0  0  0  0
 41 39  1  0  0  0  0
 42 36  1  0  0  0  0
 42 38  1  0  0  0  0
 43 41  2  0  0  0  0
M  END
>  <MODEL>
7

>  <REMARK>
 VINA RESULT:      -5.5      3.589      9.009
  Name = 
  17 active torsions:
  status: ('A' for Active; 'I' for Inactive)
    1  A    between atoms: C_1  and  C_10
    2  A    between atoms: C_2  and  C_24
    3  A    between atoms: C_2  and  C_32
    4  A    between atoms: C_3  and  N_40
    5  A    between atoms: C_5  and  C_26
    6  A    between atoms: C_5  and  N_30
    7  A    between atoms: C_6  and  C_36
    8  A    between atoms: C_6  and  N_38
    9  A    between atoms: C_7  and  N_8
   10  A    between atoms: C_7  and  C_26
   11  A    between atoms: N_8  and  C_27
   12  A    between atoms: C_10  and  N_30
   13  A    between atoms: C_14  and  C_36
   14  A    between atoms: C_15  and  N_40
   15  A    between atoms: C_19  and  C_22
   16  A    between atoms: N_21  and  C_24
   17  A    between atoms: C_22  and  N_30
                            x       y       z     vdW  Elec       q    Type
                         _______ _______ _______ _____ _____    ______ ____

>  <TORSDO>
F 17

$$$$
=
 OpenBabel11052411253D

 43 45  0  0  1  0  0  0  0  0999 V2000
  160.5040  211.8670  151.2870 N   0  0  0  0  0  0  0  0  0  0  0  0
  161.8980  211.9300  149.4290 O   0  0  0  0  0  0  0  0  0  0  0  0
  160.9350  212.4440  150.0440 C   0  0  0  0  0  0  0  0  0  0  0  0
  158.0830  213.3340  153.5890 C   0  0  0  0  0  2  0  0  0  0  0  0
  159.1720  213.4990  152.5510 C   0  0  0  0  0  2  0  0  0  0  0  0
  159.1780  212.1730  151.8400 C   0  0  2  0  0  3  0  0  0  0  0  0
  158.0040  211.9160  153.9440 N   0  0  0  0  0  0  0  0  0  0  0  0
  158.7080  211.1820  152.8910 C   0  0  0  0  0  2  0  0  0  0  0  0
  158.7660  211.7310  155.1730 C   0  0  0  0  0  2  0  0  0  0  0  0
  158.8860  210.2610  155.5190 C   0  0  0  0  0  2  0  0  0  0  0  0
  160.3160  209.9200  155.8980 C   0  0  1  0  0  3  0  0  0  0  0  0
  160.8230  208.8760  155.0270 N   0  0  0  0  0  1  0  0  0  0  0  0
  161.1740  211.1550  155.7600 C   0  0  0  0  0  1  0  0  0  0  0  0
  161.3720  210.8660  151.9220 C   0  0  0  0  0  2  0  0  0  0  0  0
  161.3770  209.5760  151.1120 C   0  0  0  0  0  2  0  0  0  0  0  0
  162.5570  208.7330  151.5140 C   0  0  0  0  0  2  0  0  0  0  0  0
  162.3850  207.3710  151.0270 N   0  0  0  0  0  0  0  0  0  0  0  0
  162.4520  206.4240  152.1470 C   0  0  0  0  0  2  0  0  0  0  0  0
  161.0890  206.1340  152.7820 C   0  0  0  0  0  2  0  0  0  0  0  0
  160.9100  204.6390  152.9450 C   0  0  0  0  0  1  0  0  0  0  0  0
  161.0760  207.2810  150.3830 C   0  0  0  0  0  2  0  0  0  0  0  0
  160.9290  205.9790  149.7310 C   0  0  0  0  0  0  0  0  0  0  0  0
  160.8190  204.9010  149.2010 C   0  0  0  0  0  0  0  0  0  0  0  0
  160.6890  203.6490  148.5920 N   0  0  0  0  0  2  0  0  0  0  0  0
  161.7020  203.1630  147.6600 C   0  0  1  0  0  3  0  0  0  0  0  0
  161.5990  201.7550  147.4920 O   0  0  0  0  0  0  0  0  0  0  0  0
  162.0970  205.2390  146.3080 O   0  0  0  0  0  1  0  0  0  0  0  0
  160.4690  201.4690  146.6950 C   0  0  0  0  0  2  0  0  0  0  0  0
  159.5620  201.7900  144.5070 O   0  0  0  0  0  1  0  0  0  0  0  0
  161.6590  203.9250  146.3530 C   0  0  0  0  0  0  0  0  0  0  0  0
  161.1650  203.3580  145.2520 C   0  0  0  0  0  3  0  0  0  0  0  0
  160.7250  201.9280  145.2610 C   0  0  1  0  0  3  0  0  0  0  0  0
  160.3400  213.7050  149.4920 C   0  0  0  0  0  2  0  0  0  0  0  0
  160.9390  214.1560  148.1580 C   0  0  0  0  0  2  0  0  0  0  0  0
  159.2470  211.8910  145.5840 O   0  0  0  0  0  0  0  0  0  0  0  0
  162.1890  213.9340  145.1990 C   0  0  2  0  0  3  0  0  0  0  0  0
  161.0390  213.1160  147.1130 N   0  0  0  0  0  0  0  0  0  0  0  0
  163.2660  213.6260  147.2090 F   0  0  0  0  0  0  0  0  0  0  0  0
  160.8080  213.8150  144.5760 C   0  0  0  0  0  2  0  0  0  0  0  0
  163.2280  213.4580  144.1980 C   0  0  0  0  0  1  0  0  0  0  0  0
  159.8230  213.2450  145.8980 S   0  0  0  0  0  0  0  0  0  0  0  0
  162.2800  213.1230  146.4260 N   0  0  0  0  0  0  0  0  0  0  0  0
  158.7330  214.2070  146.2690 O   0  0  0  0  0  0  0  0  0  0  0  0
  1 14  1  0  0  0  0
  2  3  2  0  0  0  0
  3  1  1  0  0  0  0
  4  7  1  0  0  0  0
  5  4  1  0  0  0  0
  6  1  1  1  0  0  0
  6  5  1  0  0  0  0
  6  8  1  0  0  0  0
  7  9  1  0  0  0  0
  8  7  1  0  0  0  0
  9 10  1  0  0  0  0
 10 11  1  0  0  0  0
 11 13  1  6  0  0  0
 12 11  1  0  0  0  0
 15 16  1  0  0  0  0
 15 14  1  0  0  0  0
 17 16  1  0  0  0  0
 17 18  1  0  0  0  0
 18 19  1  0  0  0  0
 19 20  1  0  0  0  0
 21 17  1  0  0  0  0
 22 21  1  0  0  0  0
 23 22  3  0  0  0  0
 24 23  1  0  0  0  0
 25 24  1  1  0  0  0
 26 25  1  0  0  0  0
 27 30  1  0  0  0  0
 28 26  1  0  0  0  0
 30 25  1  0  0  0  0
 31 32  1  0  0  0  0
 31 30  2  0  0  0  0
 32 29  1  6  0  0  0
 32 28  1  0  0  0  0
 33  3  1  0  0  0  0
 34 33  1  0  0  0  0
 35 41  2  0  0  0  0
 36 40  1  6  0  0  0
 36 42  1  0  0  0  0
 37 34  1  0  0  0  0
 39 36  1  0  0  0  0
 39 41  1  0  0  0  0
 41 43  2  0  0  0  0
 41 37  1  0  0  0  0
 42 37  1  0  0  0  0
 42 38  1  0  0  0  0
M  END
>  <MODEL>
8

>  <REMARK>
 VINA RESULT:      -5.4      2.782      7.969
  Name = 
  17 active torsions:
  status: ('A' for Active; 'I' for Inactive)
    1  A    between atoms: C_1  and  C_10
    2  A    between atoms: C_2  and  C_24
    3  A    between atoms: C_2  and  C_32
    4  A    between atoms: C_3  and  N_40
    5  A    between atoms: C_5  and  C_26
    6  A    between atoms: C_5  and  N_30
    7  A    between atoms: C_6  and  C_36
    8  A    between atoms: C_6  and  N_38
    9  A    between atoms: C_7  and  N_8
   10  A    between atoms: C_7  and  C_26
   11  A    between atoms: N_8  and  C_27
   12  A    between atoms: C_10  and  N_30
   13  A    between atoms: C_14  and  C_36
   14  A    between atoms: C_15  and  N_40
   15  A    between atoms: C_19  and  C_22
   16  A    between atoms: N_21  and  C_24
   17  A    between atoms: C_22  and  N_30
                            x       y       z     vdW  Elec       q    Type
                         _______ _______ _______ _____ _____    ______ ____

>  <TORSDO>
F 17

$$$$
=
 OpenBabel11052411253D

 43 45  0  0  1  0  0  0  0  0999 V2000
  161.7030  206.0710  151.4790 N   0  0  0  0  0  0  0  0  0  0  0  0
  160.8470  204.6420  153.1000 O   0  0  0  0  0  0  0  0  0  0  0  0
  161.2080  204.7930  151.9090 C   0  0  0  0  0  0  0  0  0  0  0  0
  162.9040  207.7800  148.4870 C   0  0  0  0  0  2  0  0  0  0  0  0
  163.1530  206.8500  149.6560 C   0  0  0  0  0  2  0  0  0  0  0  0
  161.7690  206.4120  150.0520 C   0  0  2  0  0  3  0  0  0  0  0  0
  161.5850  208.3890  148.6640 N   0  0  0  0  0  0  0  0  0  0  0  0
  160.8790  207.5770  149.6570 C   0  0  0  0  0  2  0  0  0  0  0  0
  161.7890  209.7040  149.2590 C   0  0  0  0  0  2  0  0  0  0  0  0
  161.9550  210.7630  148.1870 C   0  0  0  0  0  2  0  0  0  0  0  0
  162.2970  212.1030  148.8150 C   0  0  1  0  0  3  0  0  0  0  0  0
  163.1880  212.8440  147.9420 N   0  0  0  0  0  1  0  0  0  0  0  0
  161.0250  212.8910  149.0260 C   0  0  0  0  0  1  0  0  0  0  0  0
  162.0190  207.0720  152.5070 C   0  0  0  0  0  2  0  0  0  0  0  0
  160.8190  207.9770  152.7540 C   0  0  0  0  0  2  0  0  0  0  0  0
  160.8550  208.4850  154.1700 C   0  0  0  0  0  2  0  0  0  0  0  0
  160.5590  209.9120  154.1950 N   0  0  0  0  0  0  0  0  0  0  0  0
  161.6920  210.6510  154.7660 C   0  0  0  0  0  2  0  0  0  0  0  0
  161.5980  210.8340  156.2830 C   0  0  0  0  0  2  0  0  0  0  0  0
  162.7120  210.0650  156.9600 C   0  0  0  0  0  1  0  0  0  0  0  0
  160.3280  210.3510  152.8200 C   0  0  0  0  0  2  0  0  0  0  0  0
  159.5440  211.5870  152.8160 C   0  0  0  0  0  0  0  0  0  0  0  0
  158.8890  212.5990  152.8200 C   0  0  0  0  0  0  0  0  0  0  0  0
  158.1300  213.7740  152.8310 N   0  0  0  0  0  2  0  0  0  0  0  0
  157.5970  214.3070  154.0820 C   0  0  1  0  0  3  0  0  0  0  0  0
  156.1760  214.2920  154.0720 O   0  0  0  0  0  0  0  0  0  0  0  0
  159.5170  213.8280  155.6250 O   0  0  0  0  0  1  0  0  0  0  0  0
  155.7300  212.9620  154.2380 C   0  0  0  0  0  2  0  0  0  0  0  0
  155.7320  211.1400  155.7860 O   0  0  0  0  0  1  0  0  0  0  0  0
  158.1930  213.6010  155.2810 C   0  0  0  0  0  0  0  0  0  0  0  0
  157.4710  212.7290  155.9840 C   0  0  0  0  0  3  0  0  0  0  0  0
  156.0280  212.4960  155.6620 C   0  0  1  0  0  3  0  0  0  0  0  0
  161.1940  203.5900  151.0130 C   0  0  0  0  0  2  0  0  0  0  0  0
  160.9260  203.9020  149.5390 C   0  0  0  0  0  2  0  0  0  0  0  0
  161.7630  200.4410  148.1470 O   0  0  0  0  0  0  0  0  0  0  0  0
  160.8330  203.4260  146.3560 C   0  0  2  0  0  3  0  0  0  0  0  0
  161.6460  203.0610  148.5610 N   0  0  0  0  0  0  0  0  0  0  0  0
  161.9760  205.0610  147.5020 F   0  0  0  0  0  0  0  0  0  0  0  0
  160.3110  202.0100  146.5390 C   0  0  0  0  0  2  0  0  0  0  0  0
  161.3770  203.5770  144.9460 C   0  0  0  0  0  1  0  0  0  0  0  0
  160.8120  201.6070  148.1600 S   0  0  0  0  0  0  0  0  0  0  0  0
  161.9000  203.7180  147.3300 N   0  0  0  0  0  0  0  0  0  0  0  0
  159.6550  201.3320  149.0750 O   0  0  0  0  0  0  0  0  0  0  0  0
  1  3  1  0  0  0  0
  1 14  1  0  0  0  0
  3  2  2  0  0  0  0
  4  7  1  0  0  0  0
  4  5  1  0  0  0  0
  5  6  1  0  0  0  0
  6  1  1  1  0  0  0
  7  9  1  0  0  0  0
  7  8  1  0  0  0  0
  8  6  1  0  0  0  0
 10 11  1  0  0  0  0
 10  9  1  0  0  0  0
 11 13  1  6  0  0  0
 12 11  1  0  0  0  0
 14 15  1  0  0  0  0
 15 16  1  0  0  0  0
 16 17  1  0  0  0  0
 17 18  1  0  0  0  0
 18 19  1  0  0  0  0
 19 20  1  0  0  0  0
 21 17  1  0  0  0  0
 22 21  1  0  0  0  0
 22 23  3  0  0  0  0
 23 24  1  0  0  0  0
 25 24  1  6  0  0  0
 25 30  1  0  0  0  0
 26 25  1  0  0  0  0
 26 28  1  0  0  0  0
 28 32  1  0  0  0  0
 30 27  1  0  0  0  0
 30 31  2  0  0  0  0
 32 29  1  6  0  0  0
 32 31  1  0  0  0  0
 33  3  1  0  0  0  0
 34 33  1  0  0  0  0
 35 41  2  0  0  0  0
 36 40  1  6  0  0  0
 36 39  1  0  0  0  0
 36 42  1  0  0  0  0
 37 34  1  0  0  0  0
 39 41  1  0  0  0  0
 41 37  1  0  0  0  0
 41 43  2  0  0  0  0
 42 38  1  0  0  0  0
 42 37  1  0  0  0  0
M  END
>  <MODEL>
9

>  <REMARK>
 VINA RESULT:      -5.3      3.726      6.681
  Name = 
  17 active torsions:
  status: ('A' for Active; 'I' for Inactive)
    1  A    between atoms: C_1  and  C_10
    2  A    between atoms: C_2  and  C_24
    3  A    between atoms: C_2  and  C_32
    4  A    between atoms: C_3  and  N_40
    5  A    between atoms: C_5  and  C_26
    6  A    between atoms: C_5  and  N_30
    7  A    between atoms: C_6  and  C_36
    8  A    between atoms: C_6  and  N_38
    9  A    between atoms: C_7  and  N_8
   10  A    between atoms: C_7  and  C_26
   11  A    between atoms: N_8  and  C_27
   12  A    between atoms: C_10  and  N_30
   13  A    between atoms: C_14  and  C_36
   14  A    between atoms: C_15  and  N_40
   15  A    between atoms: C_19  and  C_22
   16  A    between atoms: N_21  and  C_24
   17  A    between atoms: C_22  and  N_30
                            x       y       z     vdW  Elec       q    Type
                         _______ _______ _______ _____ _____    ______ ____

>  <TORSDO>
F 17

$$$$
