=
 OpenBabel11042421023D

 28 30  0  0  1  0  0  0  0  0999 V2000
  160.2940  210.3500  155.5240 C   0  0  2  0  0  3  0  0  0  0  0  0
  160.9000  209.3920  153.2000 C   0  0  0  0  0  0  0  0  0  0  0  0
  161.1060  206.9680  152.9510 C   0  0  0  0  0  0  0  0  0  0  0  0
  161.3760  208.4890  150.9040 C   0  0  0  0  0  2  0  0  0  0  0  0
  161.7440  206.9880  149.3330 C   0  0  0  0  0  2  0  0  0  0  0  0
  161.4240  205.5500  149.7280 C   0  0  0  0  0  2  0  0  0  0  0  0
  160.5610  207.9270  155.1060 C   0  0  0  0  0  3  0  0  0  0  0  0
  160.5650  205.4960  150.9850 C   0  0  0  0  0  2  0  0  0  0  0  0
  162.3750  207.6630  150.3830 O   0  0  0  0  0  0  0  0  0  0  0  0
  161.1650  208.2680  152.3820 C   0  0  0  0  0  0  0  0  0  0  0  0
  160.6050  209.2150  154.5740 C   0  0  0  0  0  0  0  0  0  0  0  0
  161.4500  205.7140  152.2010 C   0  0  0  0  0  2  0  0  0  0  0  0
  160.9410  210.7680  152.6050 C   0  0  0  0  0  1  0  0  0  0  0  0
  160.8150  206.8180  154.3050 C   0  0  0  0  0  3  0  0  0  0  0  0
  158.3110  213.2640  154.1150 C   0  0  0  0  0  3  0  0  0  0  0  0
  156.7590  211.4750  154.6120 C   0  0  0  0  0  3  0  0  0  0  0  0
  159.1310  211.1730  155.0310 C   0  0  0  0  0  0  0  0  0  0  0  0
  157.8190  210.6800  155.0580 C   0  0  0  0  0  3  0  0  0  0  0  0
  156.9980  212.7710  154.1360 C   0  0  0  0  0  0  0  0  0  0  0  0
  159.3700  212.4700  154.5620 C   0  0  0  0  0  3  0  0  0  0  0  0
  155.7450  213.8600  152.4400 O   0  0  0  0  0  0  0  0  0  0  0  0
  155.8790  213.6030  153.6670 C   0  0  0  0  0  0  0  0  0  0  0  0
  154.9590  214.1170  154.5730 O   0  0  0  0  0  1  0  0  0  0  0  0
  161.4770  211.1580  155.8780 N   0  0  0  0  0  0  0  0  0  0  0  0
  161.0350  213.0290  157.2610 O   0  0  0  0  0  1  0  0  0  0  0  0
  161.3500  211.6660  157.2500 C   0  0  0  0  0  2  0  0  0  0  0  0
  163.0680  210.1760  157.2220 C   0  0  0  0  0  1  0  0  0  0  0  0
  162.6090  210.3230  155.8500 N   0  0  0  0  0  2  0  0  0  0  0  0
  1 24  1  6  0  0  0
  2 11  1  0  0  0  0
  3 14  2  0  0  0  0
  4 10  1  0  0  0  0
  5  6  1  0  0  0  0
  5  9  1  0  0  0  0
  6  8  1  0  0  0  0
  8 12  1  0  0  0  0
  9  4  1  0  0  0  0
 10  3  1  0  0  0  0
 10  2  2  0  0  0  0
 11  7  2  0  0  0  0
 11  1  1  0  0  0  0
 12  3  1  0  0  0  0
 13  2  1  0  0  0  0
 14  7  1  0  0  0  0
 15 19  2  0  0  0  0
 15 20  1  0  0  0  0
 16 18  2  0  0  0  0
 17 18  1  0  0  0  0
 17  1  1  0  0  0  0
 19 16  1  0  0  0  0
 20 17  2  0  0  0  0
 21 22  2  0  0  0  0
 22 19  1  0  0  0  0
 22 23  1  0  0  0  0
 24 26  1  0  0  0  0
 26 25  1  0  0  0  0
 28 24  1  0  0  0  0
 28 27  1  0  0  0  0
M  END
>  <MODEL>
1

>  <REMARK>
 VINA RESULT:      -6.6      0.000      0.000
  Name = 
  6 active torsions:
  status: ('A' for Active; 'I' for Inactive)
    1  A    between atoms: C_5  and  N_10
    2  A    between atoms: C_5  and  C_15
    3  A    between atoms: C_5  and  C_21
    4  A    between atoms: N_10  and  C_16
    5  A    between atoms: N_10  and  N_17
    6  A    between atoms: C_18  and  C_26
                            x       y       z     vdW  Elec       q    Type
                         _______ _______ _______ _____ _____    ______ ____

>  <TORSDO>
F 6

$$$$
=
 OpenBabel11042421023D

 28 30  0  0  1  0  0  0  0  0999 V2000
  160.9520  209.2560  154.7410 C   0  0  2  0  0  3  0  0  0  0  0  0
  160.9700  207.6820  152.6900 C   0  0  0  0  0  0  0  0  0  0  0  0
  161.5680  208.6100  150.5080 C   0  0  0  0  0  0  0  0  0  0  0  0
  161.0890  206.1010  150.7400 C   0  0  0  0  0  2  0  0  0  0  0  0
  161.4080  205.4370  148.6630 C   0  0  0  0  0  2  0  0  0  0  0  0
  162.1130  206.4480  147.7640 C   0  0  0  0  0  2  0  0  0  0  0  0
  161.5140  210.0370  152.4630 C   0  0  0  0  0  3  0  0  0  0  0  0
  162.7830  207.5460  148.5800 C   0  0  0  0  0  2  0  0  0  0  0  0
  160.4730  206.0720  149.4870 O   0  0  0  0  0  0  0  0  0  0  0  0
  161.1740  207.5000  151.3020 C   0  0  0  0  0  0  0  0  0  0  0  0
  161.1330  208.9640  153.2690 C   0  0  0  0  0  0  0  0  0  0  0  0
  161.7310  208.5530  149.0170 C   0  0  0  0  0  2  0  0  0  0  0  0
  160.5720  206.5120  153.5400 C   0  0  0  0  0  1  0  0  0  0  0  0
  161.7220  209.8630  151.0990 C   0  0  0  0  0  3  0  0  0  0  0  0
  158.0750  211.3780  156.0170 C   0  0  0  0  0  3  0  0  0  0  0  0
  159.3930  212.7360  154.5080 C   0  0  0  0  0  3  0  0  0  0  0  0
  160.0450  210.4410  154.9570 C   0  0  0  0  0  0  0  0  0  0  0  0
  160.2630  211.6610  154.3030 C   0  0  0  0  0  3  0  0  0  0  0  0
  158.2950  212.6020  155.3680 C   0  0  0  0  0  0  0  0  0  0  0  0
  158.9440  210.3040  155.8100 C   0  0  0  0  0  3  0  0  0  0  0  0
  157.1610  214.1670  156.7450 O   0  0  0  0  0  1  0  0  0  0  0  0
  157.3820  213.7360  155.5820 C   0  0  0  0  0  0  0  0  0  0  0  0
  156.7540  214.3440  154.5010 O   0  0  0  0  0  0  0  0  0  0  0  0
  162.2260  209.3490  155.4810 N   0  0  0  0  0  0  0  0  0  0  0  0
  163.5700  210.9680  156.5670 O   0  0  0  0  0  1  0  0  0  0  0  0
  162.7010  210.7380  155.4950 C   0  0  0  0  0  2  0  0  0  0  0  0
  161.3890  207.6570  156.7990 C   0  0  0  0  0  1  0  0  0  0  0  0
  161.9910  208.9800  156.8180 N   0  0  0  0  0  2  0  0  0  0  0  0
  1 17  1  0  0  0  0
  1 24  1  6  0  0  0
  2 11  1  0  0  0  0
  2 13  1  0  0  0  0
  3 14  2  0  0  0  0
  3 10  1  0  0  0  0
  4 10  1  0  0  0  0
  5  9  1  0  0  0  0
  6  8  1  0  0  0  0
  6  5  1  0  0  0  0
  7 11  2  0  0  0  0
  8 12  1  0  0  0  0
  9  4  1  0  0  0  0
 10  2  2  0  0  0  0
 11  1  1  0  0  0  0
 12  3  1  0  0  0  0
 14  7  1  0  0  0  0
 16 19  1  0  0  0  0
 17 20  2  0  0  0  0
 18 16  2  0  0  0  0
 18 17  1  0  0  0  0
 19 22  1  0  0  0  0
 19 15  2  0  0  0  0
 20 15  1  0  0  0  0
 22 21  1  0  0  0  0
 23 22  2  0  0  0  0
 24 26  1  0  0  0  0
 24 28  1  0  0  0  0
 26 25  1  0  0  0  0
 27 28  1  0  0  0  0
M  END
>  <MODEL>
2

>  <REMARK>
 VINA RESULT:      -6.0      1.588      2.813
  Name = 
  6 active torsions:
  status: ('A' for Active; 'I' for Inactive)
    1  A    between atoms: C_5  and  N_10
    2  A    between atoms: C_5  and  C_15
    3  A    between atoms: C_5  and  C_21
    4  A    between atoms: N_10  and  C_16
    5  A    between atoms: N_10  and  N_17
    6  A    between atoms: C_18  and  C_26
                            x       y       z     vdW  Elec       q    Type
                         _______ _______ _______ _____ _____    ______ ____

>  <TORSDO>
F 6

$$$$
=
 OpenBabel11042421023D

 28 30  0  0  1  0  0  0  0  0999 V2000
  161.0860  207.3120  150.3430 C   0  0  2  0  0  3  0  0  0  0  0  0
  160.9520  209.0030  152.2940 C   0  0  0  0  0  0  0  0  0  0  0  0
  161.1820  208.1710  154.5820 C   0  0  0  0  0  0  0  0  0  0  0  0
  160.9320  210.6880  154.1580 C   0  0  0  0  0  2  0  0  0  0  0  0
  161.0220  211.4530  156.2230 C   0  0  0  0  0  2  0  0  0  0  0  0
  161.5210  210.4530  157.2610 C   0  0  0  0  0  2  0  0  0  0  0  0
  161.2800  206.6340  152.7130 C   0  0  0  0  0  3  0  0  0  0  0  0
  162.2080  209.2640  156.6010 C   0  0  0  0  0  2  0  0  0  0  0  0
  160.1580  210.8360  155.3120 O   0  0  0  0  0  0  0  0  0  0  0  0
  160.9830  209.2550  153.6860 C   0  0  0  0  0  0  0  0  0  0  0  0
  161.0920  207.6800  151.8090 C   0  0  0  0  0  0  0  0  0  0  0  0
  161.1500  208.3070  156.0760 C   0  0  0  0  0  2  0  0  0  0  0  0
  160.7610  210.1430  151.3390 C   0  0  0  0  0  1  0  0  0  0  0  0
  161.3170  206.8770  154.0830 C   0  0  0  0  0  3  0  0  0  0  0  0
  160.6720  203.9290  148.6720 C   0  0  0  0  0  3  0  0  0  0  0  0
  161.0960  203.5530  151.0240 C   0  0  0  0  0  3  0  0  0  0  0  0
  161.0190  205.8180  150.1530 C   0  0  0  0  0  0  0  0  0  0  0  0
  161.1830  204.9330  151.2280 C   0  0  0  0  0  3  0  0  0  0  0  0
  160.8420  203.0420  149.7450 C   0  0  0  0  0  0  0  0  0  0  0  0
  160.7580  205.3090  148.8770 C   0  0  0  0  0  3  0  0  0  0  0  0
  160.0390  200.8770  150.2920 O   0  0  0  0  0  1  0  0  0  0  0  0
  160.7510  201.5890  149.5350 C   0  0  0  0  0  0  0  0  0  0  0  0
  161.4530  200.9850  148.4980 O   0  0  0  0  0  0  0  0  0  0  0  0
  162.1710  207.9530  149.5740 N   0  0  0  0  0  0  0  0  0  0  0  0
  162.6870  206.9650  147.4850 O   0  0  0  0  0  1  0  0  0  0  0  0
  162.9520  206.9370  148.8590 C   0  0  0  0  0  2  0  0  0  0  0  0
  162.3160  210.0490  148.6320 C   0  0  0  0  0  1  0  0  0  0  0  0
  161.5920  208.7890  148.6020 N   0  0  0  0  0  2  0  0  0  0  0  0
  1 24  1  1  0  0  0
  1 11  1  0  0  0  0
  2 10  1  0  0  0  0
  3 12  1  0  0  0  0
  4  9  1  0  0  0  0
  5  6  1  0  0  0  0
  7 14  2  0  0  0  0
  8  6  1  0  0  0  0
  9  5  1  0  0  0  0
 10  4  1  0  0  0  0
 10  3  2  0  0  0  0
 11  2  2  0  0  0  0
 11  7  1  0  0  0  0
 12  8  1  0  0  0  0
 13  2  1  0  0  0  0
 14  3  1  0  0  0  0
 15 20  2  0  0  0  0
 15 19  1  0  0  0  0
 16 18  1  0  0  0  0
 17  1  1  0  0  0  0
 17 18  2  0  0  0  0
 19 16  2  0  0  0  0
 20 17  1  0  0  0  0
 22 19  1  0  0  0  0
 22 21  1  0  0  0  0
 23 22  2  0  0  0  0
 25 26  1  0  0  0  0
 26 24  1  0  0  0  0
 28 27  1  0  0  0  0
 28 24  1  0  0  0  0
M  END
>  <MODEL>
3

>  <REMARK>
 VINA RESULT:      -5.5      3.335      8.290
  Name = 
  6 active torsions:
  status: ('A' for Active; 'I' for Inactive)
    1  A    between atoms: C_5  and  N_10
    2  A    between atoms: C_5  and  C_15
    3  A    between atoms: C_5  and  C_21
    4  A    between atoms: N_10  and  C_16
    5  A    between atoms: N_10  and  N_17
    6  A    between atoms: C_18  and  C_26
                            x       y       z     vdW  Elec       q    Type
                         _______ _______ _______ _____ _____    ______ ____

>  <TORSDO>
F 6

$$$$
=
 OpenBabel11042421023D

 28 30  0  0  1  0  0  0  0  0999 V2000
  161.0790  204.7220  147.0960 C   0  0  2  0  0  3  0  0  0  0  0  0
  161.1260  206.2600  149.1730 C   0  0  0  0  0  0  0  0  0  0  0  0
  160.9240  205.2430  151.3880 C   0  0  0  0  0  0  0  0  0  0  0  0
  161.2920  207.7720  151.1730 C   0  0  0  0  0  2  0  0  0  0  0  0
  161.3370  208.3530  153.2990 C   0  0  0  0  0  2  0  0  0  0  0  0
  161.4880  207.1950  154.2810 C   0  0  0  0  0  2  0  0  0  0  0  0
  160.8670  203.8570  149.4040 C   0  0  0  0  0  3  0  0  0  0  0  0
  161.9540  205.9270  153.5780 C   0  0  0  0  0  2  0  0  0  0  0  0
  160.4560  208.0170  152.2660 O   0  0  0  0  0  0  0  0  0  0  0  0
  161.0690  206.4020  150.5800 C   0  0  0  0  0  0  0  0  0  0  0  0
  161.0150  204.9770  148.5850 C   0  0  0  0  0  0  0  0  0  0  0  0
  160.7680  205.2810  152.8800 C   0  0  0  0  0  2  0  0  0  0  0  0
  161.2980  207.4760  148.3120 C   0  0  0  0  0  1  0  0  0  0  0  0
  160.8150  203.9900  150.7870 C   0  0  0  0  0  3  0  0  0  0  0  0
  160.6120  201.4310  145.2610 C   0  0  0  0  0  3  0  0  0  0  0  0
  161.5790  200.9480  147.4260 C   0  0  0  0  0  3  0  0  0  0  0  0
  161.1070  203.2440  146.7940 C   0  0  0  0  0  0  0  0  0  0  0  0
  161.5840  202.3130  147.7280 C   0  0  0  0  0  3  0  0  0  0  0  0
  161.0950  200.4990  146.1910 C   0  0  0  0  0  0  0  0  0  0  0  0
  160.6170  202.7960  145.5640 C   0  0  0  0  0  3  0  0  0  0  0  0
  161.9550  198.2960  146.3850 O   0  0  0  0  0  1  0  0  0  0  0  0
  161.0920  199.0610  145.8780 C   0  0  0  0  0  0  0  0  0  0  0  0
  160.1350  198.5320  145.0190 O   0  0  0  0  0  0  0  0  0  0  0  0
  162.1490  205.4790  146.4180 N   0  0  0  0  0  0  0  0  0  0  0  0
  163.8160  204.3000  145.2180 O   0  0  0  0  0  1  0  0  0  0  0  0
  163.4140  204.7380  146.4850 C   0  0  0  0  0  2  0  0  0  0  0  0
  160.4920  206.2040  144.9930 C   0  0  0  0  0  1  0  0  0  0  0  0
  161.8130  205.6000  145.0570 N   0  0  0  0  0  2  0  0  0  0  0  0
  1 24  1  1  0  0  0
  1 11  1  0  0  0  0
  2 10  1  0  0  0  0
  3 12  1  0  0  0  0
  4  9  1  0  0  0  0
  5  6  1  0  0  0  0
  7 14  2  0  0  0  0
  8  6  1  0  0  0  0
  9  5  1  0  0  0  0
 10  4  1  0  0  0  0
 10  3  2  0  0  0  0
 11  2  2  0  0  0  0
 11  7  1  0  0  0  0
 12  8  1  0  0  0  0
 13  2  1  0  0  0  0
 14  3  1  0  0  0  0
 15 20  2  0  0  0  0
 15 19  1  0  0  0  0
 16 18  1  0  0  0  0
 17  1  1  0  0  0  0
 17 18  2  0  0  0  0
 19 16  2  0  0  0  0
 20 17  1  0  0  0  0
 22 19  1  0  0  0  0
 22 21  1  0  0  0  0
 23 22  2  0  0  0  0
 24 26  1  0  0  0  0
 25 26  1  0  0  0  0
 27 28  1  0  0  0  0
 28 24  1  0  0  0  0
M  END
>  <MODEL>
4

>  <REMARK>
 VINA RESULT:      -5.5      5.327     10.775
  Name = 
  6 active torsions:
  status: ('A' for Active; 'I' for Inactive)
    1  A    between atoms: C_5  and  N_10
    2  A    between atoms: C_5  and  C_15
    3  A    between atoms: C_5  and  C_21
    4  A    between atoms: N_10  and  C_16
    5  A    between atoms: N_10  and  N_17
    6  A    between atoms: C_18  and  C_26
                            x       y       z     vdW  Elec       q    Type
                         _______ _______ _______ _____ _____    ______ ____

>  <TORSDO>
F 6

$$$$
=
 OpenBabel11042421023D

 28 30  0  0  1  0  0  0  0  0999 V2000
  161.8430  205.1860  150.2240 C   0  0  2  0  0  3  0  0  0  0  0  0
  161.3520  206.7580  152.2160 C   0  0  0  0  0  0  0  0  0  0  0  0
  161.3050  209.1710  151.8200 C   0  0  0  0  0  0  0  0  0  0  0  0
  160.7570  208.2490  154.1500 C   0  0  0  0  0  2  0  0  0  0  0  0
  160.3430  210.1220  155.2350 C   0  0  0  0  0  2  0  0  0  0  0  0
  160.1460  211.3500  154.3510 C   0  0  0  0  0  2  0  0  0  0  0  0
  161.7790  207.6480  149.9980 C   0  0  0  0  0  3  0  0  0  0  0  0
  159.9020  210.9570  152.9000 C   0  0  0  0  0  2  0  0  0  0  0  0
  161.3950  209.3320  154.7610 O   0  0  0  0  0  0  0  0  0  0  0  0
  161.1850  208.0730  152.7120 C   0  0  0  0  0  0  0  0  0  0  0  0
  161.6610  206.5500  150.8500 C   0  0  0  0  0  0  0  0  0  0  0  0
  161.2310  210.6060  152.2500 C   0  0  0  0  0  2  0  0  0  0  0  0
  161.2090  205.5910  153.1470 C   0  0  0  0  0  1  0  0  0  0  0  0
  161.6100  208.9420  150.4800 C   0  0  0  0  0  3  0  0  0  0  0  0
  162.0250  204.3520  146.5250 C   0  0  0  0  0  3  0  0  0  0  0  0
  160.4500  206.1670  146.8050 C   0  0  0  0  0  3  0  0  0  0  0  0
  161.5670  205.2220  148.7420 C   0  0  0  0  0  0  0  0  0  0  0  0
  160.6710  206.1450  148.1850 C   0  0  0  0  0  3  0  0  0  0  0  0
  161.1240  205.2700  145.9660 C   0  0  0  0  0  0  0  0  0  0  0  0
  162.2460  204.3310  147.9050 C   0  0  0  0  0  3  0  0  0  0  0  0
  161.4130  206.1910  143.7990 O   0  0  0  0  0  0  0  0  0  0  0  0
  160.8880  205.2960  144.5140 C   0  0  0  0  0  0  0  0  0  0  0  0
  160.0830  204.3340  143.9170 O   0  0  0  0  0  1  0  0  0  0  0  0
  161.1150  204.1140  150.9310 N   0  0  0  0  0  0  0  0  0  0  0  0
  160.0900  202.4410  149.6040 O   0  0  0  0  0  1  0  0  0  0  0  0
  159.9310  203.7160  150.1600 C   0  0  0  0  0  2  0  0  0  0  0  0
  161.3800  202.0990  152.0110 C   0  0  0  0  0  1  0  0  0  0  0  0
  161.9530  202.9870  151.0130 N   0  0  0  0  0  2  0  0  0  0  0  0
  1 11  1  0  0  0  0
  1 24  1  1  0  0  0
  2 10  1  0  0  0  0
  2 13  1  0  0  0  0
  3 12  1  0  0  0  0
  3 10  2  0  0  0  0
  4  9  1  0  0  0  0
  6  5  1  0  0  0  0
  7 14  2  0  0  0  0
  7 11  1  0  0  0  0
  8  6  1  0  0  0  0
  9  5  1  0  0  0  0
 10  4  1  0  0  0  0
 11  2  2  0  0  0  0
 12  8  1  0  0  0  0
 14  3  1  0  0  0  0
 15 20  1  0  0  0  0
 16 18  2  0  0  0  0
 17  1  1  0  0  0  0
 18 17  1  0  0  0  0
 19 15  2  0  0  0  0
 19 16  1  0  0  0  0
 20 17  2  0  0  0  0
 21 22  2  0  0  0  0
 22 19  1  0  0  0  0
 23 22  1  0  0  0  0
 24 28  1  0  0  0  0
 25 26  1  0  0  0  0
 26 24  1  0  0  0  0
 28 27  1  0  0  0  0
M  END
>  <MODEL>
5

>  <REMARK>
 VINA RESULT:      -5.1      3.783      8.754
  Name = 
  6 active torsions:
  status: ('A' for Active; 'I' for Inactive)
    1  A    between atoms: C_5  and  N_10
    2  A    between atoms: C_5  and  C_15
    3  A    between atoms: C_5  and  C_21
    4  A    between atoms: N_10  and  C_16
    5  A    between atoms: N_10  and  N_17
    6  A    between atoms: C_18  and  C_26
                            x       y       z     vdW  Elec       q    Type
                         _______ _______ _______ _____ _____    ______ ____

>  <TORSDO>
F 6

$$$$
=
 OpenBabel11042421023D

 28 30  0  0  1  0  0  0  0  0999 V2000
  161.3290  208.7810  154.1290 C   0  0  2  0  0  3  0  0  0  0  0  0
  159.6070  210.6930  153.8830 C   0  0  0  0  0  0  0  0  0  0  0  0
  159.7510  212.1550  151.9270 C   0  0  0  0  0  0  0  0  0  0  0  0
  157.8470  212.4670  153.6170 C   0  0  0  0  0  2  0  0  0  0  0  0
  156.7650  214.1510  152.6950 C   0  0  0  0  0  2  0  0  0  0  0  0
  157.1520  214.4530  151.2510 C   0  0  0  0  0  2  0  0  0  0  0  0
  161.3470  210.3580  152.2240 C   0  0  0  0  0  3  0  0  0  0  0  0
  157.9260  213.2980  150.6300 C   0  0  0  0  0  2  0  0  0  0  0  0
  157.8970  213.8550  153.4620 O   0  0  0  0  0  0  0  0  0  0  0  0
  159.1140  211.7950  153.1450 C   0  0  0  0  0  0  0  0  0  0  0  0
  160.7380  209.9780  153.4200 C   0  0  0  0  0  0  0  0  0  0  0  0
  159.3680  213.3510  151.1080 C   0  0  0  0  0  2  0  0  0  0  0  0
  158.9290  210.2940  155.1600 C   0  0  0  0  0  1  0  0  0  0  0  0
  160.8640  211.4370  151.4920 C   0  0  0  0  0  3  0  0  0  0  0  0
  161.5450  205.1440  153.0620 C   0  0  0  0  0  3  0  0  0  0  0  0
  160.7950  206.4380  151.1590 C   0  0  0  0  0  3  0  0  0  0  0  0
  161.2440  207.5410  153.2740 C   0  0  0  0  0  0  0  0  0  0  0  0
  160.8470  207.6020  151.9310 C   0  0  0  0  0  3  0  0  0  0  0  0
  161.1430  205.2020  151.7190 C   0  0  0  0  0  0  0  0  0  0  0  0
  161.5970  206.3080  153.8330 C   0  0  0  0  0  3  0  0  0  0  0  0
  161.2270  202.8470  151.4380 O   0  0  0  0  0  1  0  0  0  0  0  0
  161.0870  203.9790  150.9030 C   0  0  0  0  0  0  0  0  0  0  0  0
  160.8790  204.0610  149.5310 O   0  0  0  0  0  0  0  0  0  0  0  0
  160.8030  208.5900  155.4940 N   0  0  0  0  0  0  0  0  0  0  0  0
  159.8840  206.9200  156.9000 O   0  0  0  0  0  1  0  0  0  0  0  0
  160.0460  207.3350  155.5730 C   0  0  0  0  0  2  0  0  0  0  0  0
  162.2190  209.8110  156.8370 C   0  0  0  0  0  1  0  0  0  0  0  0
  161.8920  208.4720  156.3770 N   0  0  0  0  0  2  0  0  0  0  0  0
  1 24  1  1  0  0  0
  2 13  1  0  0  0  0
  3 10  1  0  0  0  0
  5  9  1  0  0  0  0
  6  5  1  0  0  0  0
  7 11  2  0  0  0  0
  8 12  1  0  0  0  0
  8  6  1  0  0  0  0
  9  4  1  0  0  0  0
 10  4  1  0  0  0  0
 10  2  2  0  0  0  0
 11  2  1  0  0  0  0
 11  1  1  0  0  0  0
 12  3  1  0  0  0  0
 14  3  2  0  0  0  0
 14  7  1  0  0  0  0
 15 20  1  0  0  0  0
 16 19  1  0  0  0  0
 16 18  2  0  0  0  0
 17 20  2  0  0  0  0
 17  1  1  0  0  0  0
 18 17  1  0  0  0  0
 19 15  2  0  0  0  0
 22 21  1  0  0  0  0
 22 19  1  0  0  0  0
 23 22  2  0  0  0  0
 24 26  1  0  0  0  0
 24 28  1  0  0  0  0
 26 25  1  0  0  0  0
 28 27  1  0  0  0  0
M  END
>  <MODEL>
6

>  <REMARK>
 VINA RESULT:      -5.1      2.331      6.958
  Name = 
  6 active torsions:
  status: ('A' for Active; 'I' for Inactive)
    1  A    between atoms: C_5  and  N_10
    2  A    between atoms: C_5  and  C_15
    3  A    between atoms: C_5  and  C_21
    4  A    between atoms: N_10  and  C_16
    5  A    between atoms: N_10  and  N_17
    6  A    between atoms: C_18  and  C_26
                            x       y       z     vdW  Elec       q    Type
                         _______ _______ _______ _____ _____    ______ ____

>  <TORSDO>
F 6

$$$$
=
 OpenBabel11042421023D

 28 30  0  0  1  0  0  0  0  0999 V2000
  161.9700  209.5600  150.7330 C   0  0  2  0  0  3  0  0  0  0  0  0
  161.6900  207.0530  151.2980 C   0  0  0  0  0  0  0  0  0  0  0  0
  160.9170  205.5360  149.5410 C   0  0  0  0  0  0  0  0  0  0  0  0
  161.5390  204.6060  151.8490 C   0  0  0  0  0  2  0  0  0  0  0  0
  161.1630  202.4570  151.5300 C   0  0  0  0  0  2  0  0  0  0  0  0
  160.9940  202.0420  150.0730 C   0  0  0  0  0  2  0  0  0  0  0  0
  161.1810  207.8980  149.0790 C   0  0  0  0  0  3  0  0  0  0  0  0
  161.4930  203.1240  149.1240 C   0  0  0  0  0  2  0  0  0  0  0  0
  160.5070  203.6670  151.7820 O   0  0  0  0  0  0  0  0  0  0  0  0
  161.3350  205.7470  150.8820 C   0  0  0  0  0  0  0  0  0  0  0  0
  161.6010  208.1350  150.3880 C   0  0  0  0  0  0  0  0  0  0  0  0
  160.4400  204.2140  149.0150 C   0  0  0  0  0  2  0  0  0  0  0  0
  162.1500  207.2830  152.7060 C   0  0  0  0  0  1  0  0  0  0  0  0
  160.8370  206.6160  148.6640 C   0  0  0  0  0  3  0  0  0  0  0  0
  161.9010  210.5890  154.3860 C   0  0  0  0  0  3  0  0  0  0  0  0
  159.6140  210.3360  153.6380 C   0  0  0  0  0  3  0  0  0  0  0  0
  161.4450  209.9480  152.0920 C   0  0  0  0  0  0  0  0  0  0  0  0
  160.0700  209.9910  152.3620 C   0  0  0  0  0  3  0  0  0  0  0  0
  160.5260  210.6380  154.6570 C   0  0  0  0  0  0  0  0  0  0  0  0
  162.3560  210.2430  153.1110 C   0  0  0  0  0  3  0  0  0  0  0  0
  158.8500  210.7620  156.3330 O   0  0  0  0  0  0  0  0  0  0  0  0
  160.0410  211.0010  155.9980 C   0  0  0  0  0  0  0  0  0  0  0  0
  160.8930  211.6140  156.9100 O   0  0  0  0  0  1  0  0  0  0  0  0
  161.6260  210.5270  149.6720 N   0  0  0  0  0  0  0  0  0  0  0  0
  160.4690  212.5620  150.0270 O   0  0  0  0  0  1  0  0  0  0  0  0
  161.6880  211.8960  150.1980 C   0  0  0  0  0  2  0  0  0  0  0  0
  162.8050  211.7730  148.1370 C   0  0  0  0  0  1  0  0  0  0  0  0
  162.5920  210.4310  148.6540 N   0  0  0  0  0  2  0  0  0  0  0  0
  1 24  1  6  0  0  0
  1 17  1  0  0  0  0
  2 13  1  0  0  0  0
  3 10  2  0  0  0  0
  5  9  1  0  0  0  0
  6  5  1  0  0  0  0
  7 11  1  0  0  0  0
  8  6  1  0  0  0  0
  9  4  1  0  0  0  0
 10  2  1  0  0  0  0
 10  4  1  0  0  0  0
 11  1  1  0  0  0  0
 11  2  2  0  0  0  0
 12  8  1  0  0  0  0
 12  3  1  0  0  0  0
 14  7  2  0  0  0  0
 14  3  1  0  0  0  0
 15 19  1  0  0  0  0
 16 19  2  0  0  0  0
 17 18  2  0  0  0  0
 17 20  1  0  0  0  0
 18 16  1  0  0  0  0
 19 22  1  0  0  0  0
 20 15  2  0  0  0  0
 22 21  2  0  0  0  0
 22 23  1  0  0  0  0
 24 26  1  0  0  0  0
 25 26  1  0  0  0  0
 27 28  1  0  0  0  0
 28 24  1  0  0  0  0
M  END
>  <MODEL>
7

>  <REMARK>
 VINA RESULT:      -5.1      3.104      5.144
  Name = 
  6 active torsions:
  status: ('A' for Active; 'I' for Inactive)
    1  A    between atoms: C_5  and  N_10
    2  A    between atoms: C_5  and  C_15
    3  A    between atoms: C_5  and  C_21
    4  A    between atoms: N_10  and  C_16
    5  A    between atoms: N_10  and  N_17
    6  A    between atoms: C_18  and  C_26
                            x       y       z     vdW  Elec       q    Type
                         _______ _______ _______ _____ _____    ______ ____

>  <TORSDO>
F 6

$$$$
=
 OpenBabel11042421023D

 28 30  0  0  1  0  0  0  0  0999 V2000
  161.1620  210.1990  154.2670 C   0  0  2  0  0  3  0  0  0  0  0  0
  158.8830  211.4200  154.2650 C   0  0  0  0  0  0  0  0  0  0  0  0
  158.4500  213.0900  152.5310 C   0  0  0  0  0  0  0  0  0  0  0  0
  156.6160  212.5030  154.2250 C   0  0  0  0  0  2  0  0  0  0  0  0
  154.9920  213.8220  153.5300 C   0  0  0  0  0  2  0  0  0  0  0  0
  155.2010  214.4270  152.1460 C   0  0  0  0  0  2  0  0  0  0  0  0
  160.5730  211.9270  152.5970 C   0  0  0  0  0  3  0  0  0  0  0  0
  156.2990  213.7010  151.3810 C   0  0  0  0  0  2  0  0  0  0  0  0
  156.1840  213.8310  154.2620 O   0  0  0  0  0  0  0  0  0  0  0  0
  158.0180  212.3750  153.6800 C   0  0  0  0  0  0  0  0  0  0  0  0
  160.1730  211.2050  153.7220 C   0  0  0  0  0  0  0  0  0  0  0  0
  157.6530  214.1810  151.8790 C   0  0  0  0  0  2  0  0  0  0  0  0
  158.4280  210.6470  155.4670 C   0  0  0  0  0  1  0  0  0  0  0  0
  159.7240  212.8620  152.0140 C   0  0  0  0  0  3  0  0  0  0  0  0
  161.5120  207.8770  151.2840 C   0  0  0  0  0  3  0  0  0  0  0  0
  160.8330  206.5490  153.1890 C   0  0  0  0  0  3  0  0  0  0  0  0
  161.1740  208.9390  153.4380 C   0  0  0  0  0  0  0  0  0  0  0  0
  160.8310  207.6960  153.9880 C   0  0  0  0  0  3  0  0  0  0  0  0
  161.1750  206.6320  151.8330 C   0  0  0  0  0  0  0  0  0  0  0  0
  161.5090  209.0240  152.0830 C   0  0  0  0  0  3  0  0  0  0  0  0
  161.5120  204.3080  151.4840 O   0  0  0  0  0  1  0  0  0  0  0  0
  161.1760  205.4210  150.9970 C   0  0  0  0  0  0  0  0  0  0  0  0
  160.8080  205.4930  149.6580 O   0  0  0  0  0  0  0  0  0  0  0  0
  161.0060  209.9490  155.7130 N   0  0  0  0  0  0  0  0  0  0  0  0
  161.1070  208.1320  157.2290 O   0  0  0  0  0  1  0  0  0  0  0  0
  161.6810  208.7000  156.0850 C   0  0  0  0  0  2  0  0  0  0  0  0
  163.0710  210.7100  156.3890 C   0  0  0  0  0  1  0  0  0  0  0  0
  161.6450  210.9880  156.4140 N   0  0  0  0  0  2  0  0  0  0  0  0
  1 24  1  1  0  0  0
  2 13  1  0  0  0  0
  3 10  1  0  0  0  0
  4  9  1  0  0  0  0
  5  9  1  0  0  0  0
  6  5  1  0  0  0  0
  7 11  2  0  0  0  0
  8 12  1  0  0  0  0
  8  6  1  0  0  0  0
 10  4  1  0  0  0  0
 10  2  2  0  0  0  0
 11  2  1  0  0  0  0
 11  1  1  0  0  0  0
 12  3  1  0  0  0  0
 14  3  2  0  0  0  0
 14  7  1  0  0  0  0
 15 19  2  0  0  0  0
 15 20  1  0  0  0  0
 16 18  2  0  0  0  0
 17 18  1  0  0  0  0
 17  1  1  0  0  0  0
 19 16  1  0  0  0  0
 20 17  2  0  0  0  0
 22 21  1  0  0  0  0
 22 19  1  0  0  0  0
 23 22  2  0  0  0  0
 24 26  1  0  0  0  0
 24 28  1  0  0  0  0
 26 25  1  0  0  0  0
 27 28  1  0  0  0  0
M  END
>  <MODEL>
8

>  <REMARK>
 VINA RESULT:      -4.9      1.781      6.863
  Name = 
  6 active torsions:
  status: ('A' for Active; 'I' for Inactive)
    1  A    between atoms: C_5  and  N_10
    2  A    between atoms: C_5  and  C_15
    3  A    between atoms: C_5  and  C_21
    4  A    between atoms: N_10  and  C_16
    5  A    between atoms: N_10  and  N_17
    6  A    between atoms: C_18  and  C_26
                            x       y       z     vdW  Elec       q    Type
                         _______ _______ _______ _____ _____    ______ ____

>  <TORSDO>
F 6

$$$$
=
 OpenBabel11042421023D

 28 30  0  0  1  0  0  0  0  0999 V2000
  161.4340  208.6660  154.2650 C   0  0  2  0  0  3  0  0  0  0  0  0
  160.2590  210.6230  153.0530 C   0  0  0  0  0  0  0  0  0  0  0  0
  158.1550  211.4720  153.9660 C   0  0  0  0  0  0  0  0  0  0  0  0
  159.2040  212.6010  151.9160 C   0  0  0  0  0  2  0  0  0  0  0  0
  157.7350  214.2020  151.5430 C   0  0  0  0  0  2  0  0  0  0  0  0
  156.7530  214.4530  152.6820 C   0  0  0  0  0  2  0  0  0  0  0  0
  159.2930  209.6280  155.0450 C   0  0  0  0  0  3  0  0  0  0  0  0
  157.2270  213.8100  153.9790 C   0  0  0  0  0  2  0  0  0  0  0  0
  157.9430  212.8300  151.3590 O   0  0  0  0  0  0  0  0  0  0  0  0
  159.1720  211.5270  152.9770 C   0  0  0  0  0  0  0  0  0  0  0  0
  160.3100  209.6630  154.0920 C   0  0  0  0  0  0  0  0  0  0  0  0
  156.9180  212.3220  153.9380 C   0  0  0  0  0  2  0  0  0  0  0  0
  161.3470  210.6860  152.0230 C   0  0  0  0  0  1  0  0  0  0  0  0
  158.2260  210.5180  154.9790 C   0  0  0  0  0  3  0  0  0  0  0  0
  160.9870  206.8540  150.9600 C   0  0  0  0  0  3  0  0  0  0  0  0
  161.3320  205.1900  152.6830 C   0  0  0  0  0  3  0  0  0  0  0  0
  161.3360  207.5490  153.2570 C   0  0  0  0  0  0  0  0  0  0  0  0
  161.4470  206.2040  153.6380 C   0  0  0  0  0  3  0  0  0  0  0  0
  161.1030  205.5090  151.3380 C   0  0  0  0  0  0  0  0  0  0  0  0
  161.1010  207.8670  151.9150 C   0  0  0  0  0  3  0  0  0  0  0  0
  160.8410  203.2390  150.6960 O   0  0  0  0  0  1  0  0  0  0  0  0
  160.9840  204.4380  150.3360 C   0  0  0  0  0  0  0  0  0  0  0  0
  161.0290  204.7380  148.9790 O   0  0  0  0  0  0  0  0  0  0  0  0
  161.5860  208.1910  155.6540 N   0  0  0  0  0  0  0  0  0  0  0  0
  162.9100  210.1550  155.6980 O   0  0  0  0  0  1  0  0  0  0  0  0
  162.2010  209.2370  156.4810 C   0  0  0  0  0  2  0  0  0  0  0  0
  160.4630  206.9840  157.2610 C   0  0  0  0  0  1  0  0  0  0  0  0
  160.3060  207.9460  156.1830 N   0  0  0  0  0  2  0  0  0  0  0  0
  1 24  1  1  0  0  0
  2 11  1  0  0  0  0
  3 14  2  0  0  0  0
  4 10  1  0  0  0  0
  5  6  1  0  0  0  0
  6  8  1  0  0  0  0
  9  5  1  0  0  0  0
  9  4  1  0  0  0  0
 10  2  2  0  0  0  0
 10  3  1  0  0  0  0
 11  1  1  0  0  0  0
 11  7  2  0  0  0  0
 12  3  1  0  0  0  0
 12  8  1  0  0  0  0
 13  2  1  0  0  0  0
 14  7  1  0  0  0  0
 15 19  2  0  0  0  0
 15 20  1  0  0  0  0
 16 18  2  0  0  0  0
 17 18  1  0  0  0  0
 17  1  1  0  0  0  0
 19 16  1  0  0  0  0
 20 17  2  0  0  0  0
 22 21  1  0  0  0  0
 22 19  1  0  0  0  0
 23 22  2  0  0  0  0
 24 28  1  0  0  0  0
 24 26  1  0  0  0  0
 25 26  1  0  0  0  0
 28 27  1  0  0  0  0
M  END
>  <MODEL>
9

>  <REMARK>
 VINA RESULT:      -4.9      2.024      6.689
  Name = 
  6 active torsions:
  status: ('A' for Active; 'I' for Inactive)
    1  A    between atoms: C_5  and  N_10
    2  A    between atoms: C_5  and  C_15
    3  A    between atoms: C_5  and  C_21
    4  A    between atoms: N_10  and  C_16
    5  A    between atoms: N_10  and  N_17
    6  A    between atoms: C_18  and  C_26
                            x       y       z     vdW  Elec       q    Type
                         _______ _______ _______ _____ _____    ______ ____

>  <TORSDO>
F 6

$$$$
