=
 OpenBabel11042423133D

 29 30  0  0  1  0  0  0  0  0999 V2000
  161.4990  205.8720  146.2170 C   0  0  0  0  0  3  0  0  0  0  0  0
  162.1800  208.2860  149.7950 C   0  0  1  0  0  3  0  0  0  0  0  0
  161.1350  205.2300  148.9040 C   0  0  0  0  0  0  0  0  0  0  0  0
  161.0370  206.5700  148.4470 C   0  0  0  0  0  0  0  0  0  0  0  0
  162.6660  206.2950  151.2860 C   0  0  0  0  0  2  0  0  0  0  0  0
  160.8740  204.7700  150.3180 C   0  0  0  0  0  2  0  0  0  0  0  0
  161.2340  206.8440  147.1280 N   0  0  0  0  0  0  0  0  0  0  0  0
  161.3970  204.2270  147.9680 C   0  0  0  0  0  3  0  0  0  0  0  0
  162.5770  207.8130  151.1920 C   0  0  0  0  0  2  0  0  0  0  0  0
  160.8240  207.7240  149.3710 C   0  0  0  0  0  2  0  0  0  0  0  0
  161.5800  204.5410  146.6220 C   0  0  0  0  0  0  0  0  0  0  0  0
  161.2610  205.7310  151.4410 C   0  0  1  0  0  3  0  0  0  0  0  0
  161.2220  205.7770  153.8480 N   0  0  0  0  0  1  0  0  0  0  0  0
  160.8060  203.6840  152.8650 N   0  0  0  0  0  2  0  0  0  0  0  0
  161.0990  205.0760  152.7720 C   0  0  0  0  0  0  0  0  0  0  0  0
  162.0490  210.4480  148.6330 C   0  0  0  0  0  3  0  0  0  0  0  0
  162.1440  209.7780  149.7810 C   0  0  0  0  0  3  0  0  0  0  0  0
  162.0130  211.9390  148.6260 C   0  0  0  0  0  2  0  0  0  0  0  0
  162.5690  212.4230  147.4410 O   0  0  0  0  0  0  0  0  0  0  0  0
  160.1570  211.9100  146.2030 F   0  0  0  0  0  0  0  0  0  0  0  0
  161.2720  213.0990  146.5860 P   0  0  1  0  0  0  0  0  0  0  0  0
  160.5240  214.2910  147.5260 O   0  0  0  0  0  1  0  0  0  0  0  0
  161.7890  213.7230  145.3110 O   0  0  0  0  0  0  0  0  0  0  0  0
  161.8890  203.4720  145.6350 C   0  0  0  0  0  2  0  0  0  0  0  0
  160.6710  202.7680  145.2760 N   0  0  0  0  0  2  0  0  0  0  0  0
  160.8280  201.4000  145.7340 C   0  0  0  0  0  2  0  0  0  0  0  0
  160.3770  201.2970  147.1790 C   0  0  0  0  0  2  0  0  0  0  0  0
  161.4160  200.5580  148.0010 C   0  0  0  0  0  2  0  0  0  0  0  0
  161.2720  200.8760  149.3520 O   0  0  0  0  0  1  0  0  0  0  0  0
  1 11  2  0  0  0  0
  1  7  1  0  0  0  0
  2 17  1  1  0  0  0
  2  9  1  0  0  0  0
  3  6  1  0  0  0  0
  4  3  1  0  0  0  0
  4 10  1  0  0  0  0
  5 12  1  0  0  0  0
  6 12  1  0  0  0  0
  7  4  2  0  0  0  0
  8  3  2  0  0  0  0
  9  5  1  0  0  0  0
 10  2  1  0  0  0  0
 11  8  1  0  0  0  0
 12 15  1  1  0  0  0
 15 14  2  0  0  0  0
 15 13  1  0  0  0  0
 16 17  2  0  0  0  0
 18 16  1  0  0  0  0
 19 18  1  0  0  0  0
 20 21  1  0  0  0  0
 21 23  2  6  0  0  0
 21 19  1  0  0  0  0
 21 22  1  0  0  0  0
 24 11  1  0  0  0  0
 25 24  1  0  0  0  0
 25 26  1  0  0  0  0
 26 27  1  0  0  0  0
 27 28  1  0  0  0  0
 28 29  1  0  0  0  0
M  END
>  <MODEL>
1

>  <REMARK>
 VINA RESULT:      -7.1      0.000      0.000
  Name = 
  10 active torsions:
  status: ('A' for Active; 'I' for Inactive)
    1  A    between atoms: C_2  and  C_23
    2  A    between atoms: P_7  and  O_19
    3  A    between atoms: C_13  and  C_16
    4  A    between atoms: C_14  and  C_24
    5  A    between atoms: C_16  and  O_19
    6  A    between atoms: N_18  and  C_20
    7  A    between atoms: N_18  and  C_25
    8  A    between atoms: C_20  and  C_28
    9  A    between atoms: C_24  and  C_25
   10  A    between atoms: C_27  and  C_29
                            x       y       z     vdW  Elec       q    Type
                         _______ _______ _______ _____ _____    ______ ____

>  <TORSDO>
F 10

$$$$
=
 OpenBabel11042423133D

 29 30  0  0  1  0  0  0  0  0999 V2000
  161.1080  203.8600  148.4980 C   0  0  0  0  0  3  0  0  0  0  0  0
  162.0310  207.9600  149.6930 C   0  0  1  0  0  3  0  0  0  0  0  0
  160.7870  205.1210  150.9630 C   0  0  0  0  0  0  0  0  0  0  0  0
  160.7520  205.8550  149.7500 C   0  0  0  0  0  0  0  0  0  0  0  0
  162.4460  207.3690  152.1220 C   0  0  0  0  0  2  0  0  0  0  0  0
  160.5410  205.6950  152.3370 C   0  0  0  0  0  2  0  0  0  0  0  0
  160.9250  205.2040  148.5670 N   0  0  0  0  0  0  0  0  0  0  0  0
  160.9630  203.7370  150.8960 C   0  0  0  0  0  3  0  0  0  0  0  0
  162.4410  208.4720  151.0720 C   0  0  0  0  0  2  0  0  0  0  0  0
  160.6320  207.3430  149.7100 C   0  0  0  0  0  2  0  0  0  0  0  0
  161.1240  203.0990  149.6660 C   0  0  0  0  0  0  0  0  0  0  0  0
  161.0160  207.1260  152.5840 C   0  0  1  0  0  3  0  0  0  0  0  0
  160.7260  206.5620  154.9070 N   0  0  0  0  0  1  0  0  0  0  0  0
  160.8490  208.8590  154.4260 N   0  0  0  0  0  2  0  0  0  0  0  0
  160.8560  207.4920  154.0210 C   0  0  0  0  0  0  0  0  0  0  0  0
  162.1560  210.3530  149.1460 C   0  0  0  0  0  3  0  0  0  0  0  0
  162.0800  209.0920  148.7210 C   0  0  0  0  0  3  0  0  0  0  0  0
  162.2060  211.4790  148.1690 C   0  0  0  0  0  2  0  0  0  0  0  0
  160.9750  211.6040  147.5230 O   0  0  0  0  0  0  0  0  0  0  0  0
  160.0240  212.9790  145.3270 F   0  0  0  0  0  0  0  0  0  0  0  0
  161.0910  213.0300  146.6170 P   0  0  1  0  0  0  0  0  0  0  0  0
  160.7290  214.3640  147.5940 O   0  0  0  0  0  1  0  0  0  0  0  0
  162.5000  213.1700  146.0890 O   0  0  0  0  0  0  0  0  0  0  0  0
  161.3420  201.6290  149.6030 C   0  0  0  0  0  2  0  0  0  0  0  0
  160.6160  201.0720  148.4760 N   0  0  0  0  0  2  0  0  0  0  0  0
  161.5230  200.1570  147.8070 C   0  0  0  0  0  2  0  0  0  0  0  0
  161.1950  200.1130  146.3270 C   0  0  0  0  0  2  0  0  0  0  0  0
  160.5590  201.4190  145.8910 C   0  0  0  0  0  2  0  0  0  0  0  0
  159.8790  201.2410  144.6850 O   0  0  0  0  0  1  0  0  0  0  0  0
  1  7  2  0  0  0  0
  1 11  1  0  0  0  0
  2 17  1  6  0  0  0
  2 10  1  0  0  0  0
  2  9  1  0  0  0  0
  3  6  1  0  0  0  0
  4  3  2  0  0  0  0
  5 12  1  0  0  0  0
  6 12  1  0  0  0  0
  7  4  1  0  0  0  0
  8  3  1  0  0  0  0
  9  5  1  0  0  0  0
 10  4  1  0  0  0  0
 11  8  2  0  0  0  0
 12 15  1  1  0  0  0
 15 14  2  0  0  0  0
 15 13  1  0  0  0  0
 17 16  2  0  0  0  0
 18 16  1  0  0  0  0
 19 18  1  0  0  0  0
 21 20  1  6  0  0  0
 21 19  1  0  0  0  0
 21 22  1  0  0  0  0
 23 21  2  0  0  0  0
 24 11  1  0  0  0  0
 25 24  1  0  0  0  0
 26 25  1  0  0  0  0
 27 26  1  0  0  0  0
 28 27  1  0  0  0  0
 29 28  1  0  0  0  0
M  END
>  <MODEL>
2

>  <REMARK>
 VINA RESULT:      -6.7      1.804      2.434
  Name = 
  10 active torsions:
  status: ('A' for Active; 'I' for Inactive)
    1  A    between atoms: C_2  and  C_23
    2  A    between atoms: P_7  and  O_19
    3  A    between atoms: C_13  and  C_16
    4  A    between atoms: C_14  and  C_24
    5  A    between atoms: C_16  and  O_19
    6  A    between atoms: N_18  and  C_20
    7  A    between atoms: N_18  and  C_25
    8  A    between atoms: C_20  and  C_28
    9  A    between atoms: C_24  and  C_25
   10  A    between atoms: C_27  and  C_29
                            x       y       z     vdW  Elec       q    Type
                         _______ _______ _______ _____ _____    ______ ____

>  <TORSDO>
F 10

$$$$
=
 OpenBabel11042423133D

 29 30  0  0  1  0  0  0  0  0999 V2000
  162.1170  209.1070  148.5510 C   0  0  0  0  0  3  0  0  0  0  0  0
  161.1470  206.3850  151.8290 C   0  0  1  0  0  3  0  0  0  0  0  0
  162.1270  209.5440  151.3030 C   0  0  0  0  0  0  0  0  0  0  0  0
  162.3490  208.2520  150.7630 C   0  0  0  0  0  0  0  0  0  0  0  0
  160.3840  208.2250  153.3940 C   0  0  0  0  0  2  0  0  0  0  0  0
  162.1940  209.9000  152.7690 C   0  0  0  0  0  2  0  0  0  0  0  0
  162.3240  208.0780  149.4130 N   0  0  0  0  0  0  0  0  0  0  0  0
  161.9250  210.6080  150.4200 C   0  0  0  0  0  3  0  0  0  0  0  0
  160.5630  206.7250  153.1980 C   0  0  0  0  0  2  0  0  0  0  0  0
  162.5120  207.0370  151.6160 C   0  0  0  0  0  2  0  0  0  0  0  0
  161.9190  210.3960  149.0420 C   0  0  0  0  0  0  0  0  0  0  0  0
  161.7290  208.8350  153.7620 C   0  0  1  0  0  3  0  0  0  0  0  0
  161.5510  210.6570  155.3260 N   0  0  0  0  0  2  0  0  0  0  0  0
  161.8250  208.5240  156.2750 N   0  0  0  0  0  1  0  0  0  0  0  0
  161.6980  209.3870  155.1470 C   0  0  0  0  0  0  0  0  0  0  0  0
  160.7350  204.2580  150.6660 C   0  0  0  0  0  3  0  0  0  0  0  0
  161.2630  204.9010  151.7070 C   0  0  0  0  0  3  0  0  0  0  0  0
  160.8560  202.7760  150.5500 C   0  0  0  0  0  2  0  0  0  0  0  0
  159.9740  202.3010  149.5780 O   0  0  0  0  0  0  0  0  0  0  0  0
  162.0280  203.1850  147.9610 F   0  0  0  0  0  0  0  0  0  0  0  0
  160.9440  201.9390  148.2380 P   0  0  1  0  0  0  0  0  0  0  0  0
  161.7950  200.5020  148.5160 O   0  0  0  0  0  1  0  0  0  0  0  0
  160.0650  201.7670  147.0200 O   0  0  0  0  0  0  0  0  0  0  0  0
  161.6720  211.5270  148.1080 C   0  0  0  0  0  2  0  0  0  0  0  0
  162.8930  212.2940  147.9330 N   0  0  0  0  0  2  0  0  0  0  0  0
  162.5080  213.5570  147.3310 C   0  0  0  0  0  2  0  0  0  0  0  0
  161.8990  213.3020  145.9660 C   0  0  0  0  0  2  0  0  0  0  0  0
  162.6750  214.0470  144.8970 C   0  0  0  0  0  2  0  0  0  0  0  0
  163.4520  213.1530  144.1590 O   0  0  0  0  0  1  0  0  0  0  0  0
  1 11  2  0  0  0  0
  1  7  1  0  0  0  0
  2 17  1  1  0  0  0
  2  9  1  0  0  0  0
  3  6  1  0  0  0  0
  4  3  1  0  0  0  0
  4 10  1  0  0  0  0
  5 12  1  0  0  0  0
  6 12  1  0  0  0  0
  7  4  2  0  0  0  0
  8  3  2  0  0  0  0
  9  5  1  0  0  0  0
 10  2  1  0  0  0  0
 11  8  1  0  0  0  0
 12 15  1  1  0  0  0
 15 13  2  0  0  0  0
 15 14  1  0  0  0  0
 16 17  2  0  0  0  0
 18 16  1  0  0  0  0
 19 18  1  0  0  0  0
 20 21  1  0  0  0  0
 21 23  2  6  0  0  0
 21 22  1  0  0  0  0
 21 19  1  0  0  0  0
 24 11  1  0  0  0  0
 25 24  1  0  0  0  0
 26 25  1  0  0  0  0
 27 26  1  0  0  0  0
 28 27  1  0  0  0  0
 29 28  1  0  0  0  0
M  END
>  <MODEL>
3

>  <REMARK>
 VINA RESULT:      -6.6      4.118      8.305
  Name = 
  10 active torsions:
  status: ('A' for Active; 'I' for Inactive)
    1  A    between atoms: C_2  and  C_23
    2  A    between atoms: P_7  and  O_19
    3  A    between atoms: C_13  and  C_16
    4  A    between atoms: C_14  and  C_24
    5  A    between atoms: C_16  and  O_19
    6  A    between atoms: N_18  and  C_20
    7  A    between atoms: N_18  and  C_25
    8  A    between atoms: C_20  and  C_28
    9  A    between atoms: C_24  and  C_25
   10  A    between atoms: C_27  and  C_29
                            x       y       z     vdW  Elec       q    Type
                         _______ _______ _______ _____ _____    ______ ____

>  <TORSDO>
F 10

$$$$
=
 OpenBabel11042423133D

 29 30  0  0  1  0  0  0  0  0999 V2000
  161.0660  208.0550  155.8750 C   0  0  0  0  0  3  0  0  0  0  0  0
  161.6900  205.6080  152.3100 C   0  0  1  0  0  3  0  0  0  0  0  0
  161.2510  208.8070  153.1990 C   0  0  0  0  0  0  0  0  0  0  0  0
  160.7850  207.5210  153.5710 C   0  0  0  0  0  0  0  0  0  0  0  0
  162.8280  207.4550  151.0000 C   0  0  0  0  0  2  0  0  0  0  0  0
  161.3090  209.3390  151.7870 C   0  0  0  0  0  2  0  0  0  0  0  0
  160.7210  207.1870  154.8890 N   0  0  0  0  0  0  0  0  0  0  0  0
  161.5960  209.7070  154.2100 C   0  0  0  0  0  3  0  0  0  0  0  0
  162.3830  205.9980  151.0060 C   0  0  0  0  0  2  0  0  0  0  0  0
  160.4510  206.4620  152.5710 C   0  0  0  0  0  2  0  0  0  0  0  0
  161.5050  209.3370  155.5520 C   0  0  0  0  0  0  0  0  0  0  0  0
  161.6260  208.3330  150.6810 C   0  0  1  0  0  3  0  0  0  0  0  0
  161.8020  208.3460  148.2800 N   0  0  0  0  0  2  0  0  0  0  0  0
  161.9970  210.4410  149.3250 N   0  0  0  0  0  1  0  0  0  0  0  0
  161.8120  209.0290  149.3750 C   0  0  0  0  0  0  0  0  0  0  0  0
  161.0700  203.5750  151.0750 C   0  0  0  0  0  3  0  0  0  0  0  0
  161.3140  204.1650  152.2450 C   0  0  0  0  0  3  0  0  0  0  0  0
  160.6950  202.1320  151.0180 C   0  0  0  0  0  2  0  0  0  0  0  0
  161.5930  201.4380  150.2060 O   0  0  0  0  0  0  0  0  0  0  0  0
  159.2530  201.5430  148.7450 F   0  0  0  0  0  0  0  0  0  0  0  0
  160.9250  201.5010  148.6500 P   0  0  1  0  0  0  0  0  0  0  0  0
  161.4780  202.8830  147.8430 O   0  0  0  0  0  0  0  0  0  0  0  0
  161.3470  200.2730  147.8780 O   0  0  0  0  0  1  0  0  0  0  0  0
  161.9030  210.2890  156.6230 C   0  0  0  0  0  2  0  0  0  0  0  0
  161.1970  211.5460  156.4510 N   0  0  0  0  0  2  0  0  0  0  0  0
  159.9050  211.3900  157.0930 C   0  0  0  0  0  2  0  0  0  0  0  0
  158.8120  211.8530  156.1490 C   0  0  0  0  0  2  0  0  0  0  0  0
  159.4070  212.6680  155.0170 C   0  0  0  0  0  2  0  0  0  0  0  0
  159.0710  212.0970  153.7890 O   0  0  0  0  0  1  0  0  0  0  0  0
  2 17  1  6  0  0  0
  2 10  1  0  0  0  0
  3  4  2  0  0  0  0
  3  8  1  0  0  0  0
  4  7  1  0  0  0  0
  5  9  1  0  0  0  0
  6  3  1  0  0  0  0
  7  1  2  0  0  0  0
  8 11  2  0  0  0  0
  9  2  1  0  0  0  0
 10  4  1  0  0  0  0
 11  1  1  0  0  0  0
 11 24  1  0  0  0  0
 12 15  1  6  0  0  0
 12  5  1  0  0  0  0
 12  6  1  0  0  0  0
 13 15  2  0  0  0  0
 14 15  1  0  0  0  0
 16 17  2  0  0  0  0
 18 16  1  0  0  0  0
 19 18  1  0  0  0  0
 21 22  2  6  0  0  0
 21 20  1  0  0  0  0
 21 19  1  0  0  0  0
 23 21  1  0  0  0  0
 25 24  1  0  0  0  0
 25 26  1  0  0  0  0
 27 26  1  0  0  0  0
 28 27  1  0  0  0  0
 29 28  1  0  0  0  0
M  END
>  <MODEL>
4

>  <REMARK>
 VINA RESULT:      -6.3      4.816      9.500
  Name = 
  10 active torsions:
  status: ('A' for Active; 'I' for Inactive)
    1  A    between atoms: C_2  and  C_23
    2  A    between atoms: P_7  and  O_19
    3  A    between atoms: C_13  and  C_16
    4  A    between atoms: C_14  and  C_24
    5  A    between atoms: C_16  and  O_19
    6  A    between atoms: N_18  and  C_20
    7  A    between atoms: N_18  and  C_25
    8  A    between atoms: C_20  and  C_28
    9  A    between atoms: C_24  and  C_25
   10  A    between atoms: C_27  and  C_29
                            x       y       z     vdW  Elec       q    Type
                         _______ _______ _______ _____ _____    ______ ____

>  <TORSDO>
F 10

$$$$
=
 OpenBabel11042423133D

 29 30  0  0  1  0  0  0  0  0999 V2000
  161.7900  207.2890  146.9260 C   0  0  0  0  0  3  0  0  0  0  0  0
  162.0470  207.4670  151.2840 C   0  0  1  0  0  3  0  0  0  0  0  0
  161.2070  205.3430  148.8340 C   0  0  0  0  0  0  0  0  0  0  0  0
  161.1000  206.7250  149.1350 C   0  0  0  0  0  0  0  0  0  0  0  0
  162.4720  204.9830  151.5580 C   0  0  0  0  0  2  0  0  0  0  0  0
  160.8360  204.2150  149.7660 C   0  0  0  0  0  2  0  0  0  0  0  0
  161.4060  207.6450  148.1790 N   0  0  0  0  0  0  0  0  0  0  0  0
  161.5920  204.9740  147.5430 C   0  0  0  0  0  3  0  0  0  0  0  0
  162.3330  206.3280  152.2610 C   0  0  0  0  0  2  0  0  0  0  0  0
  160.7580  207.2300  150.4990 C   0  0  0  0  0  2  0  0  0  0  0  0
  161.8850  205.9420  146.5830 C   0  0  0  0  0  0  0  0  0  0  0  0
  161.0820  204.4420  151.2580 C   0  0  1  0  0  3  0  0  0  0  0  0
  160.1640  203.2470  153.1360 N   0  0  0  0  0  1  0  0  0  0  0  0
  161.2970  201.9340  151.5500 N   0  0  0  0  0  2  0  0  0  0  0  0
  160.8240  203.1910  152.0280 C   0  0  0  0  0  0  0  0  0  0  0  0
  160.7740  209.2280  152.4310 C   0  0  0  0  0  3  0  0  0  0  0  0
  161.9550  208.7470  152.0470 C   0  0  0  0  0  3  0  0  0  0  0  0
  160.6890  210.5080  153.1940 C   0  0  0  0  0  2  0  0  0  0  0  0
  160.0740  210.2870  154.4280 O   0  0  0  0  0  0  0  0  0  0  0  0
  162.7760  210.7040  154.8030 F   0  0  0  0  0  0  0  0  0  0  0  0
  161.3270  210.3520  155.5650 P   0  0  1  0  0  0  0  0  0  0  0  0
  160.9940  211.5430  156.7200 O   0  0  0  0  0  1  0  0  0  0  0  0
  161.4430  209.0120  156.2540 O   0  0  0  0  0  0  0  0  0  0  0  0
  162.3240  205.5420  145.2200 C   0  0  0  0  0  2  0  0  0  0  0  0
  161.9450  204.1630  144.9660 N   0  0  0  0  0  2  0  0  0  0  0  0
  160.5800  204.1900  144.4750 C   0  0  0  0  0  2  0  0  0  0  0  0
  159.8580  202.9320  144.9200 C   0  0  0  0  0  2  0  0  0  0  0  0
  160.8340  201.9670  145.5650 C   0  0  0  0  0  2  0  0  0  0  0  0
  160.4450  201.6990  146.8780 O   0  0  0  0  0  1  0  0  0  0  0  0
  1  7  1  0  0  0  0
  2 17  1  1  0  0  0
  2  9  1  0  0  0  0
  3  4  1  0  0  0  0
  3  6  1  0  0  0  0
  4 10  1  0  0  0  0
  5  9  1  0  0  0  0
  6 12  1  0  0  0  0
  7  4  2  0  0  0  0
  8  3  2  0  0  0  0
 10  2  1  0  0  0  0
 11  1  2  0  0  0  0
 11  8  1  0  0  0  0
 12  5  1  0  0  0  0
 12 15  1  1  0  0  0
 14 15  2  0  0  0  0
 15 13  1  0  0  0  0
 16 18  1  0  0  0  0
 17 16  2  0  0  0  0
 18 19  1  0  0  0  0
 19 21  1  0  0  0  0
 21 20  1  6  0  0  0
 21 23  2  0  0  0  0
 21 22  1  0  0  0  0
 24 11  1  0  0  0  0
 25 24  1  0  0  0  0
 26 27  1  0  0  0  0
 26 25  1  0  0  0  0
 27 28  1  0  0  0  0
 28 29  1  0  0  0  0
M  END
>  <MODEL>
5

>  <REMARK>
 VINA RESULT:      -6.0      4.081      4.516
  Name = 
  10 active torsions:
  status: ('A' for Active; 'I' for Inactive)
    1  A    between atoms: C_2  and  C_23
    2  A    between atoms: P_7  and  O_19
    3  A    between atoms: C_13  and  C_16
    4  A    between atoms: C_14  and  C_24
    5  A    between atoms: C_16  and  O_19
    6  A    between atoms: N_18  and  C_20
    7  A    between atoms: N_18  and  C_25
    8  A    between atoms: C_20  and  C_28
    9  A    between atoms: C_24  and  C_25
   10  A    between atoms: C_27  and  C_29
                            x       y       z     vdW  Elec       q    Type
                         _______ _______ _______ _____ _____    ______ ____

>  <TORSDO>
F 10

$$$$
=
 OpenBabel11042423133D

 29 30  0  0  1  0  0  0  0  0999 V2000
  161.8520  210.6210  150.5720 C   0  0  0  0  0  3  0  0  0  0  0  0
  161.6360  207.3400  153.4480 C   0  0  1  0  0  3  0  0  0  0  0  0
  161.3610  207.9090  150.1590 C   0  0  0  0  0  0  0  0  0  0  0  0
  161.0270  208.5400  151.3850 C   0  0  0  0  0  0  0  0  0  0  0  0
  162.3800  205.5740  151.7900 C   0  0  0  0  0  2  0  0  0  0  0  0
  161.0620  206.4720  149.8070 C   0  0  0  0  0  2  0  0  0  0  0  0
  161.2950  209.8640  151.5520 N   0  0  0  0  0  0  0  0  0  0  0  0
  161.9240  208.6870  149.1450 C   0  0  0  0  0  3  0  0  0  0  0  0
  161.9800  205.8680  153.2300 C   0  0  0  0  0  2  0  0  0  0  0  0
  160.4810  207.7900  152.5550 C   0  0  0  0  0  2  0  0  0  0  0  0
  162.1720  210.0450  149.3440 C   0  0  0  0  0  0  0  0  0  0  0  0
  161.1190  205.4550  150.9460 C   0  0  1  0  0  3  0  0  0  0  0  0
  160.8620  203.0790  151.2430 N   0  0  0  0  0  1  0  0  0  0  0  0
  160.9290  203.8240  149.0160 N   0  0  0  0  0  2  0  0  0  0  0  0
  160.9650  204.0670  150.4190 C   0  0  0  0  0  0  0  0  0  0  0  0
  160.5820  208.6120  155.2680 C   0  0  0  0  0  3  0  0  0  0  0  0
  161.2850  207.5470  154.8850 C   0  0  0  0  0  3  0  0  0  0  0  0
  160.2340  208.8130  156.7050 C   0  0  0  0  0  2  0  0  0  0  0  0
  160.9430  209.8990  157.2200 O   0  0  0  0  0  0  0  0  0  0  0  0
  161.0830  211.4440  154.9370 F   0  0  0  0  0  0  0  0  0  0  0  0
  160.3220  211.2550  156.4170 P   0  0  1  0  0  0  0  0  0  0  0  0
  158.6580  211.0660  156.1740 O   0  0  0  0  0  0  0  0  0  0  0  0
  160.5640  212.4860  157.2590 O   0  0  0  0  0  1  0  0  0  0  0  0
  162.8010  210.8600  148.2710 C   0  0  0  0  0  2  0  0  0  0  0  0
  162.6600  212.2720  148.5800 N   0  0  0  0  0  2  0  0  0  0  0  0
  161.9690  212.8790  147.4570 C   0  0  0  0  0  2  0  0  0  0  0  0
  160.7280  213.5940  147.9530 C   0  0  0  0  0  2  0  0  0  0  0  0
  159.4920  213.0290  147.2810 C   0  0  0  0  0  2  0  0  0  0  0  0
  159.8610  212.1370  146.2730 O   0  0  0  0  0  1  0  0  0  0  0  0
  1  7  1  0  0  0  0
  2 17  1  1  0  0  0
  3  4  1  0  0  0  0
  4  7  2  0  0  0  0
  4 10  1  0  0  0  0
  5  9  1  0  0  0  0
  6  3  1  0  0  0  0
  6 12  1  0  0  0  0
  8 11  1  0  0  0  0
  8  3  2  0  0  0  0
  9  2  1  0  0  0  0
 10  2  1  0  0  0  0
 11  1  2  0  0  0  0
 12 15  1  6  0  0  0
 12  5  1  0  0  0  0
 14 15  2  0  0  0  0
 15 13  1  0  0  0  0
 16 18  1  0  0  0  0
 17 16  2  0  0  0  0
 18 19  1  0  0  0  0
 21 20  1  6  0  0  0
 21 19  1  0  0  0  0
 21 23  1  0  0  0  0
 22 21  2  0  0  0  0
 24 25  1  0  0  0  0
 24 11  1  0  0  0  0
 26 27  1  0  0  0  0
 26 25  1  0  0  0  0
 28 27  1  0  0  0  0
 29 28  1  0  0  0  0
M  END
>  <MODEL>
6

>  <REMARK>
 VINA RESULT:      -5.6      4.727      7.554
  Name = 
  10 active torsions:
  status: ('A' for Active; 'I' for Inactive)
    1  A    between atoms: C_2  and  C_23
    2  A    between atoms: P_7  and  O_19
    3  A    between atoms: C_13  and  C_16
    4  A    between atoms: C_14  and  C_24
    5  A    between atoms: C_16  and  O_19
    6  A    between atoms: N_18  and  C_20
    7  A    between atoms: N_18  and  C_25
    8  A    between atoms: C_20  and  C_28
    9  A    between atoms: C_24  and  C_25
   10  A    between atoms: C_27  and  C_29
                            x       y       z     vdW  Elec       q    Type
                         _______ _______ _______ _____ _____    ______ ____

>  <TORSDO>
F 10

$$$$
=
 OpenBabel11042423133D

 29 30  0  0  1  0  0  0  0  0999 V2000
  161.6990  208.7470  156.2880 C   0  0  0  0  0  3  0  0  0  0  0  0
  161.6330  206.9400  152.3110 C   0  0  1  0  0  3  0  0  0  0  0  0
  161.5260  209.9480  153.7800 C   0  0  0  0  0  0  0  0  0  0  0  0
  161.0450  208.6330  154.0010 C   0  0  0  0  0  0  0  0  0  0  0  0
  162.6710  208.9480  151.1650 C   0  0  0  0  0  2  0  0  0  0  0  0
  161.4050  210.7160  152.4850 C   0  0  0  0  0  2  0  0  0  0  0  0
  161.1590  208.0760  155.2380 N   0  0  0  0  0  0  0  0  0  0  0  0
  162.0730  210.6450  154.8600 C   0  0  0  0  0  3  0  0  0  0  0  0
  162.1450  207.5280  150.9970 C   0  0  0  0  0  2  0  0  0  0  0  0
  160.5010  207.7770  152.9040 C   0  0  0  0  0  2  0  0  0  0  0  0
  162.1620  210.0500  156.1180 C   0  0  0  0  0  0  0  0  0  0  0  0
  161.4910  209.9080  151.1910 C   0  0  1  0  0  3  0  0  0  0  0  0
  161.9080  210.3590  148.8630 N   0  0  0  0  0  2  0  0  0  0  0  0
  161.1220  212.1780  150.1270 N   0  0  0  0  0  1  0  0  0  0  0  0
  161.5210  210.8140  150.0070 C   0  0  0  0  0  0  0  0  0  0  0  0
  161.4140  204.9330  150.9090 C   0  0  0  0  0  3  0  0  0  0  0  0
  161.1650  205.5440  152.0660 C   0  0  0  0  0  3  0  0  0  0  0  0
  160.9440  203.5380  150.6710 C   0  0  0  0  0  2  0  0  0  0  0  0
  160.9890  203.2450  149.3070 O   0  0  0  0  0  0  0  0  0  0  0  0
  161.2500  200.7860  150.5310 F   0  0  0  0  0  0  0  0  0  0  0  0
  160.6400  201.5920  149.1950 P   0  0  1  0  0  0  0  0  0  0  0  0
  158.9650  201.3620  149.1150 O   0  0  0  0  0  1  0  0  0  0  0  0
  161.2780  201.0320  147.9450 O   0  0  0  0  0  0  0  0  0  0  0  0
  162.7730  210.7870  157.2570 C   0  0  0  0  0  2  0  0  0  0  0  0
  164.2080  210.8930  157.0600 N   0  0  0  0  0  2  0  0  0  0  0  0
  164.5500  212.2920  157.2340 C   0  0  0  0  0  2  0  0  0  0  0  0
  166.0590  212.4450  157.2510 C   0  0  0  0  0  2  0  0  0  0  0  0
  166.5810  212.6600  155.8430 C   0  0  0  0  0  2  0  0  0  0  0  0
  167.9760  212.6190  155.8380 O   0  0  0  0  0  1  0  0  0  0  0  0
  2 17  1  6  0  0  0
  2 10  1  0  0  0  0
  3  4  2  0  0  0  0
  3  8  1  0  0  0  0
  4  7  1  0  0  0  0
  5 12  1  0  0  0  0
  6  3  1  0  0  0  0
  7  1  2  0  0  0  0
  8 11  2  0  0  0  0
  9  5  1  0  0  0  0
  9  2  1  0  0  0  0
 10  4  1  0  0  0  0
 11  1  1  0  0  0  0
 11 24  1  0  0  0  0
 12 15  1  6  0  0  0
 12  6  1  0  0  0  0
 13 15  2  0  0  0  0
 15 14  1  0  0  0  0
 16 17  2  0  0  0  0
 18 16  1  0  0  0  0
 19 18  1  0  0  0  0
 21 23  2  6  0  0  0
 21 19  1  0  0  0  0
 21 20  1  0  0  0  0
 22 21  1  0  0  0  0
 25 26  1  0  0  0  0
 25 24  1  0  0  0  0
 26 27  1  0  0  0  0
 28 27  1  0  0  0  0
 29 28  1  0  0  0  0
M  END
>  <MODEL>
7

>  <REMARK>
 VINA RESULT:      -5.4      5.619     10.104
  Name = 
  10 active torsions:
  status: ('A' for Active; 'I' for Inactive)
    1  A    between atoms: C_2  and  C_23
    2  A    between atoms: P_7  and  O_19
    3  A    between atoms: C_13  and  C_16
    4  A    between atoms: C_14  and  C_24
    5  A    between atoms: C_16  and  O_19
    6  A    between atoms: N_18  and  C_20
    7  A    between atoms: N_18  and  C_25
    8  A    between atoms: C_20  and  C_28
    9  A    between atoms: C_24  and  C_25
   10  A    between atoms: C_27  and  C_29
                            x       y       z     vdW  Elec       q    Type
                         _______ _______ _______ _____ _____    ______ ____

>  <TORSDO>
F 10

$$$$
=
 OpenBabel11042423133D

 29 30  0  0  1  0  0  0  0  0999 V2000
  161.2440  206.7790  150.4630 C   0  0  0  0  0  3  0  0  0  0  0  0
  160.8140  210.8590  151.9680 C   0  0  1  0  0  3  0  0  0  0  0  0
  161.9200  209.2060  149.2730 C   0  0  0  0  0  0  0  0  0  0  0  0
  161.8990  209.0590  150.6830 C   0  0  0  0  0  0  0  0  0  0  0  0
  160.5920  211.8950  149.6660 C   0  0  0  0  0  2  0  0  0  0  0  0
  162.3520  210.4490  148.5320 C   0  0  0  0  0  2  0  0  0  0  0  0
  161.5510  207.8600  151.2260 N   0  0  0  0  0  0  0  0  0  0  0  0
  161.6160  208.0940  148.4850 C   0  0  0  0  0  3  0  0  0  0  0  0
  160.5900  212.1410  151.1700 C   0  0  0  0  0  2  0  0  0  0  0  0
  162.1460  210.1980  151.6180 C   0  0  0  0  0  2  0  0  0  0  0  0
  161.2770  206.8760  149.0740 C   0  0  0  0  0  0  0  0  0  0  0  0
  162.0330  211.7920  149.1890 C   0  0  1  0  0  3  0  0  0  0  0  0
  163.3570  212.8010  147.4500 N   0  0  0  0  0  2  0  0  0  0  0  0
  161.6040  214.1210  148.2880 N   0  0  0  0  0  1  0  0  0  0  0  0
  162.3680  212.9180  148.2700 C   0  0  0  0  0  0  0  0  0  0  0  0
  159.9920  210.4850  154.2540 C   0  0  0  0  0  3  0  0  0  0  0  0
  160.7690  211.1810  153.4250 C   0  0  0  0  0  3  0  0  0  0  0  0
  159.9530  210.8120  155.7090 C   0  0  0  0  0  2  0  0  0  0  0  0
  159.8570  209.6390  156.4590 O   0  0  0  0  0  0  0  0  0  0  0  0
  161.4030  208.1790  154.6990 F   0  0  0  0  0  0  0  0  0  0  0  0
  161.3370  208.8470  156.2340 P   0  0  1  0  0  0  0  0  0  0  0  0
  162.6110  209.9440  156.4260 O   0  0  0  0  0  0  0  0  0  0  0  0
  161.4730  207.7450  157.2600 O   0  0  0  0  0  1  0  0  0  0  0  0
  160.9240  205.7040  148.2290 C   0  0  0  0  0  2  0  0  0  0  0  0
  160.8700  204.5060  149.0480 N   0  0  0  0  0  2  0  0  0  0  0  0
  161.4360  203.4320  148.2530 C   0  0  0  0  0  2  0  0  0  0  0  0
  160.4930  202.2440  148.2650 C   0  0  0  0  0  2  0  0  0  0  0  0
  161.1920  201.0260  148.8370 C   0  0  0  0  0  2  0  0  0  0  0  0
  160.7230  200.7660  150.1260 O   0  0  0  0  0  1  0  0  0  0  0  0
  1  7  1  0  0  0  0
  2 17  1  1  0  0  0
  3  4  1  0  0  0  0
  4  7  2  0  0  0  0
  4 10  1  0  0  0  0
  5  9  1  0  0  0  0
  6 12  1  0  0  0  0
  6  3  1  0  0  0  0
  8 11  1  0  0  0  0
  8  3  2  0  0  0  0
  9  2  1  0  0  0  0
 10  2  1  0  0  0  0
 11  1  2  0  0  0  0
 12 15  1  6  0  0  0
 12  5  1  0  0  0  0
 13 15  2  0  0  0  0
 15 14  1  0  0  0  0
 16 18  1  0  0  0  0
 17 16  2  0  0  0  0
 18 19  1  0  0  0  0
 21 20  1  6  0  0  0
 21 22  2  0  0  0  0
 21 19  1  0  0  0  0
 21 23  1  0  0  0  0
 24 25  1  0  0  0  0
 24 11  1  0  0  0  0
 26 27  1  0  0  0  0
 26 25  1  0  0  0  0
 27 28  1  0  0  0  0
 28 29  1  0  0  0  0
M  END
>  <MODEL>
8

>  <REMARK>
 VINA RESULT:      -5.2      4.982      6.690
  Name = 
  10 active torsions:
  status: ('A' for Active; 'I' for Inactive)
    1  A    between atoms: C_2  and  C_23
    2  A    between atoms: P_7  and  O_19
    3  A    between atoms: C_13  and  C_16
    4  A    between atoms: C_14  and  C_24
    5  A    between atoms: C_16  and  O_19
    6  A    between atoms: N_18  and  C_20
    7  A    between atoms: N_18  and  C_25
    8  A    between atoms: C_20  and  C_28
    9  A    between atoms: C_24  and  C_25
   10  A    between atoms: C_27  and  C_29
                            x       y       z     vdW  Elec       q    Type
                         _______ _______ _______ _____ _____    ______ ____

>  <TORSDO>
F 10

$$$$
=
 OpenBabel11042423133D

 29 30  0  0  1  0  0  0  0  0999 V2000
  161.3420  206.4370  150.4340 C   0  0  0  0  0  3  0  0  0  0  0  0
  161.0640  210.4270  152.1930 C   0  0  1  0  0  3  0  0  0  0  0  0
  161.9350  208.9250  149.3280 C   0  0  0  0  0  0  0  0  0  0  0  0
  162.0280  208.6990  150.7250 C   0  0  0  0  0  0  0  0  0  0  0  0
  160.6610  211.5910  149.9790 C   0  0  0  0  0  2  0  0  0  0  0  0
  162.3120  210.2070  148.6250 C   0  0  0  0  0  2  0  0  0  0  0  0
  161.7180  207.4730  151.2280 N   0  0  0  0  0  0  0  0  0  0  0  0
  161.5590  207.8600  148.5070 C   0  0  0  0  0  3  0  0  0  0  0  0
  160.7840  211.7520  151.4880 C   0  0  0  0  0  2  0  0  0  0  0  0
  162.3580  209.7840  151.6980 C   0  0  0  0  0  2  0  0  0  0  0  0
  161.2610  206.6120  149.0540 C   0  0  0  0  0  0  0  0  0  0  0  0
  162.0570  211.5110  149.3790 C   0  0  1  0  0  3  0  0  0  0  0  0
  163.1500  212.5740  147.5160 N   0  0  0  0  0  2  0  0  0  0  0  0
  161.6700  213.9310  148.7350 N   0  0  0  0  0  1  0  0  0  0  0  0
  162.3230  212.6870  148.5000 C   0  0  0  0  0  0  0  0  0  0  0  0
  160.1130  210.3720  154.4590 C   0  0  0  0  0  3  0  0  0  0  0  0
  161.1410  210.6670  153.6650 C   0  0  0  0  0  3  0  0  0  0  0  0
  160.1970  210.6150  155.9280 C   0  0  0  0  0  2  0  0  0  0  0  0
  160.8160  211.8410  156.1750 O   0  0  0  0  0  0  0  0  0  0  0  0
  159.2880  213.5580  154.6460 F   0  0  0  0  0  0  0  0  0  0  0  0
  159.5590  212.9770  156.1930 P   0  0  1  0  0  0  0  0  0  0  0  0
  158.1440  212.2580  156.7810 O   0  0  0  0  0  0  0  0  0  0  0  0
  159.9420  214.1280  157.0940 O   0  0  0  0  0  1  0  0  0  0  0  0
  160.8320  205.4890  148.1770 C   0  0  0  0  0  2  0  0  0  0  0  0
  161.9250  204.5470  148.0150 N   0  0  0  0  0  2  0  0  0  0  0  0
  161.9540  204.1800  146.6110 C   0  0  0  0  0  2  0  0  0  0  0  0
  162.3770  205.3780  145.7830 C   0  0  0  0  0  2  0  0  0  0  0  0
  161.5940  205.4220  144.4850 C   0  0  0  0  0  2  0  0  0  0  0  0
  160.3440  204.8260  144.6600 O   0  0  0  0  0  1  0  0  0  0  0  0
  1  7  1  0  0  0  0
  2 17  1  1  0  0  0
  3  4  1  0  0  0  0
  4  7  2  0  0  0  0
  4 10  1  0  0  0  0
  5  9  1  0  0  0  0
  6  3  1  0  0  0  0
  6 12  1  0  0  0  0
  8 11  1  0  0  0  0
  8  3  2  0  0  0  0
  9  2  1  0  0  0  0
 10  2  1  0  0  0  0
 11  1  2  0  0  0  0
 12 15  1  6  0  0  0
 12  5  1  0  0  0  0
 13 15  2  0  0  0  0
 15 14  1  0  0  0  0
 16 18  1  0  0  0  0
 17 16  2  0  0  0  0
 18 19  1  0  0  0  0
 19 21  1  0  0  0  0
 21 20  1  6  0  0  0
 21 22  2  0  0  0  0
 21 23  1  0  0  0  0
 24 11  1  0  0  0  0
 25 24  1  0  0  0  0
 26 25  1  0  0  0  0
 27 26  1  0  0  0  0
 28 29  1  0  0  0  0
 28 27  1  0  0  0  0
M  END
>  <MODEL>
9

>  <REMARK>
 VINA RESULT:      -5.2      4.888      6.579
  Name = 
  10 active torsions:
  status: ('A' for Active; 'I' for Inactive)
    1  A    between atoms: C_2  and  C_23
    2  A    between atoms: P_7  and  O_19
    3  A    between atoms: C_13  and  C_16
    4  A    between atoms: C_14  and  C_24
    5  A    between atoms: C_16  and  O_19
    6  A    between atoms: N_18  and  C_20
    7  A    between atoms: N_18  and  C_25
    8  A    between atoms: C_20  and  C_28
    9  A    between atoms: C_24  and  C_25
   10  A    between atoms: C_27  and  C_29
                            x       y       z     vdW  Elec       q    Type
                         _______ _______ _______ _____ _____    ______ ____

>  <TORSDO>
F 10

$$$$
