=
 OpenBabel11052410313D

 45 50  0  0  1  0  0  0  0  0999 V2000
  161.6450  208.8070  150.8440 N   0  0  0  0  0  2  0  0  0  0  0  0
  160.5550  206.8670  151.7210 N   0  0  0  0  0  0  0  0  0  0  0  0
  161.3920  211.0900  151.5900 N   0  0  0  0  0  0  0  0  0  0  0  0
  160.6400  208.1590  151.6300 C   0  0  0  0  0  3  0  0  0  0  0  0
  161.7600  210.2290  150.6820 C   0  0  0  0  0  0  0  0  0  0  0  0
  157.4930  213.8260  152.4100 C   0  0  0  0  0  3  0  0  0  0  0  0
  158.5750  212.5060  154.5930 C   0  0  0  0  0  0  0  0  0  0  0  0
  158.8350  212.0640  153.3220 C   0  0  0  0  0  0  0  0  0  0  0  0
  161.0170  210.8200  152.9450 C   0  0  1  0  0  3  0  0  0  0  0  0
  157.8090  213.6450  154.8270 C   0  0  0  0  0  3  0  0  0  0  0  0
  161.8770  210.5710  153.9350 C   0  0  0  0  0  2  0  0  0  0  0  0
  159.8660  210.7920  154.9030 C   0  0  0  0  0  0  0  0  0  0  0  0
  159.2760  211.7440  155.5610 N   0  0  0  0  0  0  0  0  0  0  0  0
  159.6080  210.8030  153.4280 C   0  0  1  0  0  3  0  0  0  0  0  0
  157.2600  214.3060  153.7150 C   0  0  0  0  0  3  0  0  0  0  0  0
  158.2840  212.6850  152.2030 C   0  0  0  0  0  3  0  0  0  0  0  0
  161.2150  210.4590  155.1920 N   0  0  0  0  0  2  0  0  0  0  0  0
  162.5020  205.5610  151.5420 O   0  0  0  0  0  0  0  0  0  0  0  0
  161.3930  205.9120  151.0520 C   0  0  0  0  0  0  0  0  0  0  0  0
  161.4810  204.5830  147.0220 N   0  0  0  0  0  0  0  0  0  0  0  0
  162.0600  205.8630  147.4280 C   0  0  0  0  0  2  0  0  0  0  0  0
  161.5530  204.0150  149.4280 C   0  0  0  0  0  2  0  0  0  0  0  0
  160.8550  203.1820  145.2560 O   0  0  0  0  0  1  0  0  0  0  0  0
  161.2830  204.3090  145.6290 C   0  0  0  0  0  0  0  0  0  0  0  0
  161.5490  205.2850  144.6770 O   0  0  0  0  0  0  0  0  0  0  0  0
  161.3040  206.4440  148.6250 C   0  0  0  0  0  2  0  0  0  0  0  0
  161.1740  203.5540  148.0230 C   0  0  0  0  0  2  0  0  0  0  0  0
  160.9740  205.4040  149.7100 C   0  0  0  0  0  3  0  0  0  0  0  0
  162.4200  210.8490  149.1400 S   0  0  0  0  0  0  0  0  0  0  0  0
  161.2150  212.2100  149.0430 C   0  0  0  0  0  2  0  0  0  0  0  0
  160.1340  213.4830  147.1400 C   0  0  0  0  0  0  0  0  0  0  0  0
  161.2650  212.8400  147.7310 N   0  0  0  0  0  2  0  0  0  0  0  0
  159.0450  213.5780  147.7730 O   0  0  0  0  0  0  0  0  0  0  0  0
  160.5540  212.0950  144.3360 C   0  0  1  0  0  3  0  0  0  0  0  0
  161.4410  212.2220  142.3640 C   0  0  1  0  0  3  0  0  0  0  0  0
  161.7090  214.4520  145.4470 C   0  0  0  0  0  2  0  0  0  0  0  0
  161.8740  212.6330  143.7730 C   0  0  1  0  0  3  0  0  0  0  0  0
  162.0540  214.1380  144.0020 C   0  0  0  0  0  2  0  0  0  0  0  0
  160.2600  214.0530  145.7650 C   0  0  1  0  0  3  0  0  0  0  0  0
  159.6450  213.1720  144.7550 N   0  0  0  0  0  2  0  0  0  0  0  0
  160.1600  211.6340  142.9410 C   0  0  0  0  0  2  0  0  0  0  0  0
  161.1150  213.3680  141.5210 N   0  0  0  0  0  2  0  0  0  0  0  0
  161.5860  213.4860  140.1790 C   0  0  0  0  0  0  0  0  0  0  0  0
  161.2080  214.4530  139.4710 O   0  0  0  0  0  0  0  0  0  0  0  0
  162.4540  212.5380  139.6470 O   0  0  0  0  0  1  0  0  0  0  0  0
  1  4  1  0  0  0  0
  4  2  2  0  0  0  0
  5  1  1  0  0  0  0
  5  3  2  0  0  0  0
  6 15  1  0  0  0  0
  7 10  1  0  0  0  0
  7 13  1  0  0  0  0
  8  7  2  0  0  0  0
  9  3  1  1  0  0  0
  9 14  1  0  0  0  0
  9 11  1  0  0  0  0
 11 17  1  0  0  0  0
 12 17  1  0  0  0  0
 12 13  2  0  0  0  0
 14  8  1  1  0  0  0
 14 12  1  0  0  0  0
 15 10  2  0  0  0  0
 16  6  2  0  0  0  0
 16  8  1  0  0  0  0
 19 18  2  0  0  0  0
 19  2  1  0  0  0  0
 20 21  1  0  0  0  0
 20 27  1  0  0  0  0
 21 26  1  0  0  0  0
 22 28  1  0  0  0  0
 23 24  1  0  0  0  0
 24 20  1  0  0  0  0
 25 24  2  0  0  0  0
 26 28  1  0  0  0  0
 27 22  1  0  0  0  0
 28 19  1  0  0  0  0
 29  5  1  0  0  0  0
 30 29  1  0  0  0  0
 31 32  1  0  0  0  0
 31 33  2  0  0  0  0
 32 30  1  0  0  0  0
 34 41  1  6  0  0  0
 34 40  1  0  0  0  0
 35 42  1  6  0  0  0
 35 41  1  0  0  0  0
 35 37  1  0  0  0  0
 36 39  1  0  0  0  0
 37 38  1  6  0  0  0
 37 34  1  0  0  0  0
 38 36  1  0  0  0  0
 39 31  1  1  0  0  0
 40 39  1  0  0  0  0
 43 42  1  0  0  0  0
 44 43  2  0  0  0  0
 45 43  1  0  0  0  0
M  END
>  <MODEL>
1

>  <REMARK>
 VINA RESULT:      -7.6      0.000      0.000
  Name = 
  8 active torsions:
  status: ('A' for Active; 'I' for Inactive)
    1  A    between atoms: C_1  and  C_28
    2  A    between atoms: S_9  and  C_17
    3  A    between atoms: S_9  and  C_39
    4  A    between atoms: C_12  and  N_18
    5  A    between atoms: C_17  and  N_33
    6  A    between atoms: C_19  and  N_26
    7  A    between atoms: N_22  and  C_23
    8  A    between atoms: C_23  and  C_36
                            x       y       z     vdW  Elec       q    Type
                         _______ _______ _______ _____ _____    ______ ____

>  <TORSDO>
F 8

$$$$
=
 OpenBabel11052410313D

 45 50  0  0  1  0  0  0  0  0999 V2000
  161.9890  209.3370  149.0350 N   0  0  0  0  0  2  0  0  0  0  0  0
  160.9320  207.1930  149.1150 N   0  0  0  0  0  0  0  0  0  0  0  0
  161.7670  211.1380  150.6290 N   0  0  0  0  0  0  0  0  0  0  0  0
  161.0150  208.4180  149.5380 C   0  0  0  0  0  3  0  0  0  0  0  0
  162.0980  210.7100  149.4420 C   0  0  0  0  0  0  0  0  0  0  0  0
  158.3880  213.6540  152.9980 C   0  0  0  0  0  3  0  0  0  0  0  0
  159.3990  211.4110  154.2720 C   0  0  0  0  0  0  0  0  0  0  0  0
  159.5050  211.5370  152.9120 C   0  0  0  0  0  0  0  0  0  0  0  0
  161.4450  210.3510  151.7810 C   0  0  1  0  0  3  0  0  0  0  0  0
  158.8310  212.4120  155.0560 C   0  0  0  0  0  3  0  0  0  0  0  0
  162.3210  209.6070  152.4590 C   0  0  0  0  0  2  0  0  0  0  0  0
  160.4340  209.6030  153.6720 C   0  0  0  0  0  0  0  0  0  0  0  0
  160.0390  210.2340  154.7360 N   0  0  0  0  0  0  0  0  0  0  0  0
  160.0840  210.2790  152.3820 C   0  0  1  0  0  3  0  0  0  0  0  0
  158.3160  213.5450  154.4020 C   0  0  0  0  0  3  0  0  0  0  0  0
  158.9820  212.6360  152.2350 C   0  0  0  0  0  3  0  0  0  0  0  0
  161.7330  209.0330  153.6250 N   0  0  0  0  0  2  0  0  0  0  0  0
  162.1850  207.2710  147.1260 O   0  0  0  0  0  0  0  0  0  0  0  0
  161.7420  206.5910  148.0930 C   0  0  0  0  0  0  0  0  0  0  0  0
  161.1250  202.4020  148.3770 N   0  0  0  0  0  0  0  0  0  0  0  0
  160.6260  203.3280  149.3940 C   0  0  0  0  0  2  0  0  0  0  0  0
  161.3430  204.4050  146.9440 C   0  0  0  0  0  2  0  0  0  0  0  0
  161.4970  200.1750  147.7630 O   0  0  0  0  0  0  0  0  0  0  0  0
  161.1420  200.9960  148.6540 C   0  0  0  0  0  0  0  0  0  0  0  0
  160.7790  200.5230  149.9080 O   0  0  0  0  0  1  0  0  0  0  0  0
  161.5370  204.5540  149.5030 C   0  0  0  0  0  2  0  0  0  0  0  0
  161.5340  202.8940  147.0570 C   0  0  0  0  0  2  0  0  0  0  0  0
  161.9800  205.1160  148.1410 C   0  0  0  0  0  3  0  0  0  0  0  0
  162.6980  211.8970  148.2460 S   0  0  0  0  0  0  0  0  0  0  0  0
  161.0470  212.1800  147.5340 C   0  0  0  0  0  2  0  0  0  0  0  0
  160.1150  212.8050  145.2650 C   0  0  0  0  0  0  0  0  0  0  0  0
  161.1590  212.8390  146.2400 N   0  0  0  0  0  2  0  0  0  0  0  0
  159.0160  212.2370  145.5180 O   0  0  0  0  0  0  0  0  0  0  0  0
  160.8240  211.6020  142.4330 C   0  0  1  0  0  3  0  0  0  0  0  0
  161.8720  211.8750  140.5570 C   0  0  1  0  0  3  0  0  0  0  0  0
  161.7950  213.9220  143.7740 C   0  0  0  0  0  2  0  0  0  0  0  0
  162.1680  212.2140  142.0200 C   0  0  1  0  0  3  0  0  0  0  0  0
  162.2730  213.7070  142.3500 C   0  0  0  0  0  2  0  0  0  0  0  0
  160.3380  213.4610  143.9410 C   0  0  1  0  0  3  0  0  0  0  0  0
  159.8450  212.6230  142.8310 N   0  0  0  0  0  2  0  0  0  0  0  0
  160.5690  211.2140  140.9850 C   0  0  0  0  0  2  0  0  0  0  0  0
  161.5790  213.0590  139.7560 N   0  0  0  0  0  2  0  0  0  0  0  0
  162.3960  213.4570  138.6560 C   0  0  0  0  0  0  0  0  0  0  0  0
  162.0520  214.4390  137.9490 O   0  0  0  0  0  0  0  0  0  0  0  0
  163.5650  212.7670  138.3550 O   0  0  0  0  0  1  0  0  0  0  0  0
  1  5  1  0  0  0  0
  1  4  1  0  0  0  0
  2  4  2  0  0  0  0
  5  3  2  0  0  0  0
  6 15  1  0  0  0  0
  7 13  1  0  0  0  0
  7 10  1  0  0  0  0
  8  7  2  0  0  0  0
  9  3  1  1  0  0  0
  9 14  1  0  0  0  0
  9 11  1  0  0  0  0
 11 17  1  0  0  0  0
 12 13  2  0  0  0  0
 14  8  1  1  0  0  0
 14 12  1  0  0  0  0
 15 10  2  0  0  0  0
 16  8  1  0  0  0  0
 16  6  2  0  0  0  0
 17 12  1  0  0  0  0
 18 19  2  0  0  0  0
 19 28  1  0  0  0  0
 19  2  1  0  0  0  0
 20 24  1  0  0  0  0
 20 21  1  0  0  0  0
 21 26  1  0  0  0  0
 22 27  1  0  0  0  0
 22 28  1  0  0  0  0
 23 24  2  0  0  0  0
 24 25  1  0  0  0  0
 27 20  1  0  0  0  0
 28 26  1  0  0  0  0
 29  5  1  0  0  0  0
 30 29  1  0  0  0  0
 31 33  2  0  0  0  0
 31 32  1  0  0  0  0
 32 30  1  0  0  0  0
 34 41  1  6  0  0  0
 34 40  1  0  0  0  0
 35 42  1  6  0  0  0
 35 41  1  0  0  0  0
 35 37  1  0  0  0  0
 36 39  1  0  0  0  0
 37 38  1  6  0  0  0
 37 34  1  0  0  0  0
 38 36  1  0  0  0  0
 39 31  1  1  0  0  0
 40 39  1  0  0  0  0
 43 42  1  0  0  0  0
 44 43  2  0  0  0  0
 45 43  1  0  0  0  0
M  END
>  <MODEL>
2

>  <REMARK>
 VINA RESULT:      -7.3      1.858      2.393
  Name = 
  8 active torsions:
  status: ('A' for Active; 'I' for Inactive)
    1  A    between atoms: C_1  and  C_28
    2  A    between atoms: S_9  and  C_17
    3  A    between atoms: S_9  and  C_39
    4  A    between atoms: C_12  and  N_18
    5  A    between atoms: C_17  and  N_33
    6  A    between atoms: C_19  and  N_26
    7  A    between atoms: N_22  and  C_23
    8  A    between atoms: C_23  and  C_36
                            x       y       z     vdW  Elec       q    Type
                         _______ _______ _______ _____ _____    ______ ____

>  <TORSDO>
F 8

$$$$
=
 OpenBabel11052410313D

 45 50  0  0  1  0  0  0  0  0999 V2000
  160.5950  212.2880  151.2260 N   0  0  0  0  0  2  0  0  0  0  0  0
  160.5840  213.9430  149.4980 N   0  0  0  0  0  0  0  0  0  0  0  0
  159.3200  212.3040  153.2760 N   0  0  0  0  0  0  0  0  0  0  0  0
  160.2850  213.5870  150.7110 C   0  0  0  0  0  3  0  0  0  0  0  0
  160.3200  211.8580  152.5680 C   0  0  0  0  0  0  0  0  0  0  0  0
  156.8100  213.3940  157.2600 C   0  0  0  0  0  3  0  0  0  0  0  0
  155.6800  214.1160  154.8360 C   0  0  0  0  0  0  0  0  0  0  0  0
  157.0280  213.8900  154.9270 C   0  0  0  0  0  0  0  0  0  0  0  0
  158.2240  213.1090  152.8260 C   0  0  1  0  0  3  0  0  0  0  0  0
  154.8350  213.9460  155.9300 C   0  0  0  0  0  3  0  0  0  0  0  0
  157.5900  212.9460  151.6630 C   0  0  0  0  0  2  0  0  0  0  0  0
  156.3920  214.4520  152.8160 C   0  0  0  0  0  0  0  0  0  0  0  0
  155.2910  214.4000  153.5030 N   0  0  0  0  0  0  0  0  0  0  0  0
  157.6370  214.2260  153.6170 C   0  0  1  0  0  3  0  0  0  0  0  0
  155.4170  213.5860  157.1580 C   0  0  0  0  0  3  0  0  0  0  0  0
  157.6350  213.5550  156.1360 C   0  0  0  0  0  3  0  0  0  0  0  0
  156.4680  213.8180  151.5480 N   0  0  0  0  0  2  0  0  0  0  0  0
  162.1490  212.3020  148.8750 O   0  0  0  0  0  0  0  0  0  0  0  0
  161.2770  213.1460  148.5260 C   0  0  0  0  0  0  0  0  0  0  0  0
  161.4530  212.9360  144.2910 N   0  0  0  0  0  0  0  0  0  0  0  0
  162.6480  213.1560  145.1050 C   0  0  0  0  0  2  0  0  0  0  0  0
  160.4040  212.1690  146.3950 C   0  0  0  0  0  2  0  0  0  0  0  0
  160.5170  212.8970  142.1470 O   0  0  0  0  0  0  0  0  0  0  0  0
  161.5150  213.1540  142.8760 C   0  0  0  0  0  0  0  0  0  0  0  0
  162.6700  213.6600  142.2930 O   0  0  0  0  0  1  0  0  0  0  0  0
  162.2960  213.9090  146.3910 C   0  0  0  0  0  2  0  0  0  0  0  0
  160.2200  212.4240  144.9000 C   0  0  0  0  0  2  0  0  0  0  0  0
  161.0170  213.3950  147.0750 C   0  0  0  0  0  3  0  0  0  0  0  0
  161.4230  210.6640  153.3120 S   0  0  0  0  0  0  0  0  0  0  0  0
  160.2870  209.2700  153.0250 C   0  0  0  0  0  2  0  0  0  0  0  0
  161.1850  207.0210  152.2870 C   0  0  0  0  0  0  0  0  0  0  0  0
  160.8270  208.3760  152.0100 N   0  0  0  0  0  2  0  0  0  0  0  0
  160.9900  206.5270  153.4330 O   0  0  0  0  0  0  0  0  0  0  0  0
  161.1430  207.3540  149.1480 C   0  0  1  0  0  3  0  0  0  0  0  0
  161.1080  206.3670  147.2200 C   0  0  1  0  0  3  0  0  0  0  0  0
  160.8570  205.0390  150.7870 C   0  0  0  0  0  2  0  0  0  0  0  0
  160.4660  206.1000  148.5830 C   0  0  1  0  0  3  0  0  0  0  0  0
  160.9060  204.8120  149.2870 C   0  0  0  0  0  2  0  0  0  0  0  0
  161.7850  206.1930  151.1990 C   0  0  1  0  0  3  0  0  0  0  0  0
  162.2400  207.0270  150.0710 N   0  0  0  0  0  2  0  0  0  0  0  0
  161.7270  207.6430  147.7740 C   0  0  0  0  0  2  0  0  0  0  0  0
  162.1650  205.4120  146.9030 N   0  0  0  0  0  2  0  0  0  0  0  0
  162.3980  204.9470  145.5730 C   0  0  0  0  0  0  0  0  0  0  0  0
  163.3730  204.1870  145.3430 O   0  0  0  0  0  1  0  0  0  0  0  0
  161.5610  205.3300  144.5310 O   0  0  0  0  0  0  0  0  0  0  0  0
  1  5  1  0  0  0  0
  2  4  2  0  0  0  0
  4  1  1  0  0  0  0
  5  3  2  0  0  0  0
  5 29  1  0  0  0  0
  7  8  2  0  0  0  0
  7 10  1  0  0  0  0
  8 16  1  0  0  0  0
  9  3  1  1  0  0  0
  9 14  1  0  0  0  0
 10 15  2  0  0  0  0
 11  9  1  0  0  0  0
 12 13  2  0  0  0  0
 13  7  1  0  0  0  0
 14 12  1  6  0  0  0
 14  8  1  0  0  0  0
 15  6  1  0  0  0  0
 16  6  2  0  0  0  0
 17 11  1  0  0  0  0
 17 12  1  0  0  0  0
 19 18  2  0  0  0  0
 19  2  1  0  0  0  0
 20 27  1  0  0  0  0
 20 21  1  0  0  0  0
 21 26  1  0  0  0  0
 22 28  1  0  0  0  0
 23 24  2  0  0  0  0
 24 20  1  0  0  0  0
 25 24  1  0  0  0  0
 26 28  1  0  0  0  0
 27 22  1  0  0  0  0
 28 19  1  0  0  0  0
 30 29  1  0  0  0  0
 31 33  2  0  0  0  0
 32 31  1  0  0  0  0
 32 30  1  0  0  0  0
 34 41  1  6  0  0  0
 34 40  1  0  0  0  0
 35 42  1  1  0  0  0
 35 41  1  0  0  0  0
 35 37  1  0  0  0  0
 36 39  1  0  0  0  0
 37 34  1  0  0  0  0
 37 38  1  1  0  0  0
 38 36  1  0  0  0  0
 39 31  1  1  0  0  0
 40 39  1  0  0  0  0
 43 42  1  0  0  0  0
 44 43  1  0  0  0  0
 45 43  2  0  0  0  0
M  END
>  <MODEL>
3

>  <REMARK>
 VINA RESULT:      -7.3      2.156      7.373
  Name = 
  8 active torsions:
  status: ('A' for Active; 'I' for Inactive)
    1  A    between atoms: C_1  and  C_28
    2  A    between atoms: S_9  and  C_17
    3  A    between atoms: S_9  and  C_39
    4  A    between atoms: C_12  and  N_18
    5  A    between atoms: C_17  and  N_33
    6  A    between atoms: C_19  and  N_26
    7  A    between atoms: N_22  and  C_23
    8  A    between atoms: C_23  and  C_36
                            x       y       z     vdW  Elec       q    Type
                         _______ _______ _______ _____ _____    ______ ____

>  <TORSDO>
F 8

$$$$
=
 OpenBabel11052410313D

 45 50  0  0  1  0  0  0  0  0999 V2000
  160.5370  211.3560  151.7850 N   0  0  0  0  0  2  0  0  0  0  0  0
  160.7740  209.0070  152.1680 N   0  0  0  0  0  0  0  0  0  0  0  0
  159.1700  212.9110  153.0270 N   0  0  0  0  0  0  0  0  0  0  0  0
  160.1350  210.1180  152.3780 C   0  0  0  0  0  3  0  0  0  0  0  0
  159.8450  212.6030  151.9550 C   0  0  0  0  0  0  0  0  0  0  0  0
  154.9300  214.0340  155.0580 C   0  0  0  0  0  3  0  0  0  0  0  0
  156.7200  212.6040  156.6150 C   0  0  0  0  0  0  0  0  0  0  0  0
  156.8340  212.5950  155.2490 C   0  0  0  0  0  0  0  0  0  0  0  0
  159.1490  212.2100  154.2760 C   0  0  1  0  0  3  0  0  0  0  0  0
  155.7460  213.3600  157.2610 C   0  0  0  0  0  3  0  0  0  0  0  0
  160.2200  211.9960  155.0430 C   0  0  0  0  0  2  0  0  0  0  0  0
  158.4480  211.3450  156.2550 C   0  0  0  0  0  0  0  0  0  0  0  0
  157.7710  211.8760  157.2280 N   0  0  0  0  0  0  0  0  0  0  0  0
  157.9140  211.6450  154.8880 C   0  0  1  0  0  3  0  0  0  0  0  0
  154.8380  214.0780  156.4640 C   0  0  0  0  0  3  0  0  0  0  0  0
  155.9340  213.2780  154.4340 C   0  0  0  0  0  3  0  0  0  0  0  0
  159.8670  211.3760  156.2780 N   0  0  0  0  0  2  0  0  0  0  0  0
  162.7120  209.7890  151.0890 O   0  0  0  0  0  0  0  0  0  0  0  0
  161.9180  208.8330  151.3180 C   0  0  0  0  0  0  0  0  0  0  0  0
  161.1570  205.1260  149.3980 N   0  0  0  0  0  0  0  0  0  0  0  0
  160.5910  205.4500  150.7080 C   0  0  0  0  0  2  0  0  0  0  0  0
  161.5670  207.5560  149.1960 C   0  0  0  0  0  2  0  0  0  0  0  0
  161.5220  203.4890  147.7670 O   0  0  0  0  0  0  0  0  0  0  0  0
  161.1070  203.7740  148.9250 C   0  0  0  0  0  0  0  0  0  0  0  0
  160.6140  202.7630  149.7390 O   0  0  0  0  0  1  0  0  0  0  0  0
  161.5220  206.3850  151.4830 C   0  0  0  0  0  2  0  0  0  0  0  0
  161.7030  206.1840  148.5400 C   0  0  0  0  0  2  0  0  0  0  0  0
  162.1080  207.5220  150.6270 C   0  0  0  0  0  3  0  0  0  0  0  0
  159.8940  213.7830  150.6120 S   0  0  0  0  0  0  0  0  0  0  0  0
  161.0150  212.7590  149.6070 C   0  0  0  0  0  2  0  0  0  0  0  0
  160.6380  213.4330  147.1960 C   0  0  0  0  0  0  0  0  0  0  0  0
  160.4450  212.5300  148.2860 N   0  0  0  0  0  2  0  0  0  0  0  0
  161.3690  214.4530  147.3290 O   0  0  0  0  0  0  0  0  0  0  0  0
  161.7820  213.2670  144.2580 C   0  0  1  0  0  3  0  0  0  0  0  0
  161.4220  213.6080  142.1500 C   0  0  1  0  0  3  0  0  0  0  0  0
  159.3770  214.4200  145.2660 C   0  0  0  0  0  2  0  0  0  0  0  0
  161.0510  214.3400  143.4420 C   0  0  1  0  0  3  0  0  0  0  0  0
  159.5540  214.4170  143.7580 C   0  0  0  0  0  2  0  0  0  0  0  0
  159.9690  213.1470  145.8910 C   0  0  1  0  0  3  0  0  0  0  0  0
  160.8520  212.3900  144.9840 N   0  0  0  0  0  2  0  0  0  0  0  0
  162.1960  212.5820  142.9660 C   0  0  0  0  0  2  0  0  0  0  0  0
  160.2720  212.9640  141.5220 N   0  0  0  0  0  2  0  0  0  0  0  0
  160.2100  212.7140  140.1180 C   0  0  0  0  0  0  0  0  0  0  0  0
  159.2330  212.0830  139.6410 O   0  0  0  0  0  1  0  0  0  0  0  0
  161.2230  213.1580  139.2740 O   0  0  0  0  0  0  0  0  0  0  0  0
  1  5  1  0  0  0  0
  1  4  1  0  0  0  0
  2  4  2  0  0  0  0
  5  3  2  0  0  0  0
  6 15  1  0  0  0  0
  7 13  1  0  0  0  0
  7 10  1  0  0  0  0
  8  7  2  0  0  0  0
  9  3  1  1  0  0  0
  9 14  1  0  0  0  0
  9 11  1  0  0  0  0
 11 17  1  0  0  0  0
 12 17  1  0  0  0  0
 12 13  2  0  0  0  0
 14  8  1  1  0  0  0
 14 12  1  0  0  0  0
 15 10  2  0  0  0  0
 16  6  2  0  0  0  0
 16  8  1  0  0  0  0
 18 19  2  0  0  0  0
 19  2  1  0  0  0  0
 20 21  1  0  0  0  0
 21 26  1  0  0  0  0
 22 28  1  0  0  0  0
 23 24  2  0  0  0  0
 24 20  1  0  0  0  0
 24 25  1  0  0  0  0
 27 22  1  0  0  0  0
 27 20  1  0  0  0  0
 28 19  1  0  0  0  0
 28 26  1  0  0  0  0
 29  5  1  0  0  0  0
 30 29  1  0  0  0  0
 31 33  2  0  0  0  0
 31 32  1  0  0  0  0
 32 30  1  0  0  0  0
 34 41  1  6  0  0  0
 34 40  1  0  0  0  0
 35 42  1  1  0  0  0
 35 41  1  0  0  0  0
 35 37  1  0  0  0  0
 36 39  1  0  0  0  0
 37 38  1  1  0  0  0
 37 34  1  0  0  0  0
 38 36  1  0  0  0  0
 39 31  1  1  0  0  0
 40 39  1  0  0  0  0
 43 42  1  0  0  0  0
 44 43  1  0  0  0  0
 45 43  2  0  0  0  0
M  END
>  <MODEL>
4

>  <REMARK>
 VINA RESULT:      -7.2      1.988      2.732
  Name = 
  8 active torsions:
  status: ('A' for Active; 'I' for Inactive)
    1  A    between atoms: C_1  and  C_28
    2  A    between atoms: S_9  and  C_17
    3  A    between atoms: S_9  and  C_39
    4  A    between atoms: C_12  and  N_18
    5  A    between atoms: C_17  and  N_33
    6  A    between atoms: C_19  and  N_26
    7  A    between atoms: N_22  and  C_23
    8  A    between atoms: C_23  and  C_36
                            x       y       z     vdW  Elec       q    Type
                         _______ _______ _______ _____ _____    ______ ____

>  <TORSDO>
F 8

$$$$
=
 OpenBabel11052410313D

 45 50  0  0  1  0  0  0  0  0999 V2000
  161.6940  212.9890  145.9710 N   0  0  0  0  0  2  0  0  0  0  0  0
  161.1650  214.3980  144.1130 N   0  0  0  0  0  0  0  0  0  0  0  0
  160.5020  212.8170  148.0640 N   0  0  0  0  0  0  0  0  0  0  0  0
  161.0020  214.0830  145.3620 C   0  0  0  0  0  3  0  0  0  0  0  0
  161.5790  212.6230  147.3550 C   0  0  0  0  0  0  0  0  0  0  0  0
  158.1670  214.4530  151.9670 C   0  0  0  0  0  3  0  0  0  0  0  0
  156.6860  214.2040  149.6390 C   0  0  0  0  0  0  0  0  0  0  0  0
  158.0520  214.2970  149.5800 C   0  0  0  0  0  0  0  0  0  0  0  0
  159.2090  213.2150  147.5940 C   0  0  1  0  0  3  0  0  0  0  0  0
  156.0080  214.1820  150.8540 C   0  0  0  0  0  3  0  0  0  0  0  0
  158.5330  212.6000  146.6220 C   0  0  0  0  0  2  0  0  0  0  0  0
  157.1150  214.0900  147.5170 C   0  0  0  0  0  0  0  0  0  0  0  0
  156.1240  214.0100  148.3520 N   0  0  0  0  0  0  0  0  0  0  0  0
  158.4430  214.3650  148.1510 C   0  0  1  0  0  3  0  0  0  0  0  0
  156.7660  214.3140  152.0310 C   0  0  0  0  0  3  0  0  0  0  0  0
  158.8260  214.4530  150.7270 C   0  0  0  0  0  3  0  0  0  0  0  0
  157.2290  213.1520  146.4580 N   0  0  0  0  0  2  0  0  0  0  0  0
  163.2970  213.7320  143.3780 O   0  0  0  0  0  0  0  0  0  0  0  0
  162.0500  213.7550  143.1830 C   0  0  0  0  0  0  0  0  0  0  0  0
  161.1400  211.1230  139.9800 N   0  0  0  0  0  0  0  0  0  0  0  0
  162.5190  211.4390  140.3550 C   0  0  0  0  0  2  0  0  0  0  0  0
  160.5410  212.0140  142.2080 C   0  0  0  0  0  2  0  0  0  0  0  0
  159.7090  210.1180  138.4260 O   0  0  0  0  0  1  0  0  0  0  0  0
  160.8830  210.4660  138.7330 C   0  0  0  0  0  0  0  0  0  0  0  0
  161.9200  210.2160  137.8440 O   0  0  0  0  0  0  0  0  0  0  0  0
  162.6120  212.8520  140.9360 C   0  0  0  0  0  2  0  0  0  0  0  0
  160.0350  211.4060  140.9020 C   0  0  0  0  0  2  0  0  0  0  0  0
  161.4800  213.1890  141.9230 C   0  0  0  0  0  3  0  0  0  0  0  0
  163.0000  211.8830  148.1510 S   0  0  0  0  0  0  0  0  0  0  0  0
  162.0120  211.1820  149.5100 C   0  0  0  0  0  2  0  0  0  0  0  0
  162.1760  209.0330  150.8370 C   0  0  0  0  0  0  0  0  0  0  0  0
  162.2200  209.7430  149.5990 N   0  0  0  0  0  2  0  0  0  0  0  0
  161.8950  209.6320  151.9120 O   0  0  0  0  0  0  0  0  0  0  0  0
  160.8460  206.6480  149.2520 C   0  0  1  0  0  3  0  0  0  0  0  0
  160.2610  204.5620  149.2680 C   0  0  1  0  0  3  0  0  0  0  0  0
  161.6970  206.8450  151.9660 C   0  0  0  0  0  2  0  0  0  0  0  0
  160.2700  205.6910  150.3030 C   0  0  1  0  0  3  0  0  0  0  0  0
  161.2010  205.4870  151.5020 C   0  0  0  0  0  2  0  0  0  0  0  0
  162.4580  207.5650  150.8420 C   0  0  1  0  0  3  0  0  0  0  0  0
  162.2570  206.9710  149.5070 N   0  0  0  0  0  2  0  0  0  0  0  0
  160.7740  205.5370  148.2170 C   0  0  0  0  0  2  0  0  0  0  0  0
  161.2790  203.5510  149.5340 N   0  0  0  0  0  2  0  0  0  0  0  0
  161.0180  202.1540  149.4010 C   0  0  0  0  0  0  0  0  0  0  0  0
  161.9540  201.3300  149.5630 O   0  0  0  0  0  1  0  0  0  0  0  0
  159.7420  201.6970  149.0890 O   0  0  0  0  0  0  0  0  0  0  0  0
  1  5  1  0  0  0  0
  2  4  2  0  0  0  0
  4  1  1  0  0  0  0
  5  3  2  0  0  0  0
  5 29  1  0  0  0  0
  6 15  1  0  0  0  0
  7 10  1  0  0  0  0
  8  7  2  0  0  0  0
  8 16  1  0  0  0  0
  9  3  1  1  0  0  0
  9 14  1  0  0  0  0
 10 15  2  0  0  0  0
 11  9  1  0  0  0  0
 12 13  2  0  0  0  0
 13  7  1  0  0  0  0
 14 12  1  6  0  0  0
 14  8  1  0  0  0  0
 16  6  2  0  0  0  0
 17 11  1  0  0  0  0
 17 12  1  0  0  0  0
 19 18  2  0  0  0  0
 19  2  1  0  0  0  0
 20 21  1  0  0  0  0
 20 27  1  0  0  0  0
 21 26  1  0  0  0  0
 23 24  1  0  0  0  0
 24 20  1  0  0  0  0
 25 24  2  0  0  0  0
 26 28  1  0  0  0  0
 27 22  1  0  0  0  0
 28 22  1  0  0  0  0
 28 19  1  0  0  0  0
 29 30  1  0  0  0  0
 30 32  1  0  0  0  0
 31 33  2  0  0  0  0
 32 31  1  0  0  0  0
 34 41  1  6  0  0  0
 34 40  1  0  0  0  0
 34 37  1  0  0  0  0
 35 42  1  1  0  0  0
 35 37  1  0  0  0  0
 37 38  1  1  0  0  0
 38 36  1  0  0  0  0
 39 31  1  6  0  0  0
 39 36  1  0  0  0  0
 40 39  1  0  0  0  0
 41 35  1  0  0  0  0
 43 42  1  0  0  0  0
 43 44  1  0  0  0  0
 45 43  2  0  0  0  0
M  END
>  <MODEL>
5

>  <REMARK>
 VINA RESULT:      -6.7      2.955      8.848
  Name = 
  8 active torsions:
  status: ('A' for Active; 'I' for Inactive)
    1  A    between atoms: C_1  and  C_28
    2  A    between atoms: S_9  and  C_17
    3  A    between atoms: S_9  and  C_39
    4  A    between atoms: C_12  and  N_18
    5  A    between atoms: C_17  and  N_33
    6  A    between atoms: C_19  and  N_26
    7  A    between atoms: N_22  and  C_23
    8  A    between atoms: C_23  and  C_36
                            x       y       z     vdW  Elec       q    Type
                         _______ _______ _______ _____ _____    ______ ____

>  <TORSDO>
F 8

$$$$
=
 OpenBabel11052410313D

 45 50  0  0  1  0  0  0  0  0999 V2000
  160.7420  212.4420  150.3840 N   0  0  0  0  0  2  0  0  0  0  0  0
  160.8530  214.2980  148.8790 N   0  0  0  0  0  0  0  0  0  0  0  0
  159.2970  212.1990  152.3030 N   0  0  0  0  0  0  0  0  0  0  0  0
  160.4560  213.7930  150.0080 C   0  0  0  0  0  3  0  0  0  0  0  0
  160.3600  211.8480  151.6340 C   0  0  0  0  0  0  0  0  0  0  0  0
  156.8150  213.3140  156.2980 C   0  0  0  0  0  3  0  0  0  0  0  0
  155.7170  214.1110  153.8820 C   0  0  0  0  0  0  0  0  0  0  0  0
  157.0570  213.8370  153.9730 C   0  0  0  0  0  0  0  0  0  0  0  0
  158.2310  213.0480  151.8640 C   0  0  1  0  0  3  0  0  0  0  0  0
  154.8640  213.9550  154.9710 C   0  0  0  0  0  3  0  0  0  0  0  0
  157.5960  212.9240  150.6960 C   0  0  0  0  0  2  0  0  0  0  0  0
  156.4470  214.4530  151.8690 C   0  0  0  0  0  0  0  0  0  0  0  0
  155.3420  214.4290  152.5520 N   0  0  0  0  0  0  0  0  0  0  0  0
  157.6810  214.1730  152.6700 C   0  0  1  0  0  3  0  0  0  0  0  0
  155.4290  213.5550  156.1940 C   0  0  0  0  0  3  0  0  0  0  0  0
  157.6480  213.4630  155.1780 C   0  0  0  0  0  3  0  0  0  0  0  0
  156.5050  213.8370  150.5920 N   0  0  0  0  0  2  0  0  0  0  0  0
  162.7710  213.1470  148.1540 O   0  0  0  0  0  0  0  0  0  0  0  0
  161.6370  213.6300  147.8790 C   0  0  0  0  0  0  0  0  0  0  0  0
  161.0960  212.5940  143.7990 N   0  0  0  0  0  0  0  0  0  0  0  0
  162.4080  212.9510  144.3400 C   0  0  0  0  0  2  0  0  0  0  0  0
  160.4330  212.2690  146.1590 C   0  0  0  0  0  2  0  0  0  0  0  0
  159.8120  212.1510  141.8940 O   0  0  0  0  0  1  0  0  0  0  0  0
  160.9150  212.5300  142.3790 C   0  0  0  0  0  0  0  0  0  0  0  0
  161.9440  212.8950  141.5220 O   0  0  0  0  0  0  0  0  0  0  0  0
  162.2650  213.9450  145.4940 C   0  0  0  0  0  2  0  0  0  0  0  0
  159.9950  212.2300  144.6970 C   0  0  0  0  0  2  0  0  0  0  0  0
  161.1310  213.5950  146.4730 C   0  0  0  0  0  3  0  0  0  0  0  0
  161.4140  210.5760  152.3180 S   0  0  0  0  0  0  0  0  0  0  0  0
  162.2440  210.2540  150.7300 C   0  0  0  0  0  2  0  0  0  0  0  0
  161.8380  208.2870  149.1890 C   0  0  0  0  0  0  0  0  0  0  0  0
  162.2560  208.8260  150.4440 N   0  0  0  0  0  2  0  0  0  0  0  0
  161.4880  209.0500  148.2460 O   0  0  0  0  0  0  0  0  0  0  0  0
  161.9360  206.5120  146.5800 C   0  0  1  0  0  3  0  0  0  0  0  0
  161.3020  204.6840  145.6050 C   0  0  1  0  0  3  0  0  0  0  0  0
  160.3990  206.2450  148.9660 C   0  0  0  0  0  2  0  0  0  0  0  0
  160.6490  205.6780  146.5680 C   0  0  1  0  0  3  0  0  0  0  0  0
  160.2810  205.1240  147.9480 C   0  0  0  0  0  2  0  0  0  0  0  0
  161.8300  206.8050  149.0030 C   0  0  1  0  0  3  0  0  0  0  0  0
  162.6610  206.3980  147.8540 N   0  0  0  0  0  2  0  0  0  0  0  0
  162.5530  205.5510  145.5760 C   0  0  0  0  0  2  0  0  0  0  0  0
  161.6100  203.4070  146.2420 N   0  0  0  0  0  2  0  0  0  0  0  0
  160.9650  202.1920  145.8630 C   0  0  0  0  0  0  0  0  0  0  0  0
  161.3250  201.1070  146.3870 O   0  0  0  0  0  1  0  0  0  0  0  0
  159.9460  202.1950  144.9160 O   0  0  0  0  0  0  0  0  0  0  0  0
  1  5  1  0  0  0  0
  2  4  2  0  0  0  0
  4  1  1  0  0  0  0
  5  3  2  0  0  0  0
  5 29  1  0  0  0  0
  7  8  2  0  0  0  0
  7 10  1  0  0  0  0
  8 16  1  0  0  0  0
  9  3  1  1  0  0  0
  9 14  1  0  0  0  0
 10 15  2  0  0  0  0
 11  9  1  0  0  0  0
 12 13  2  0  0  0  0
 13  7  1  0  0  0  0
 14 12  1  6  0  0  0
 14  8  1  0  0  0  0
 15  6  1  0  0  0  0
 16  6  2  0  0  0  0
 17 11  1  0  0  0  0
 17 12  1  0  0  0  0
 19 18  2  0  0  0  0
 19  2  1  0  0  0  0
 20 21  1  0  0  0  0
 20 27  1  0  0  0  0
 21 26  1  0  0  0  0
 22 28  1  0  0  0  0
 23 24  1  0  0  0  0
 24 20  1  0  0  0  0
 25 24  2  0  0  0  0
 26 28  1  0  0  0  0
 27 22  1  0  0  0  0
 28 19  1  0  0  0  0
 30 29  1  0  0  0  0
 31 32  1  0  0  0  0
 32 30  1  0  0  0  0
 33 31  2  0  0  0  0
 34 41  1  6  0  0  0
 34 40  1  0  0  0  0
 35 42  1  1  0  0  0
 35 37  1  0  0  0  0
 36 39  1  0  0  0  0
 37 34  1  0  0  0  0
 37 38  1  1  0  0  0
 38 36  1  0  0  0  0
 39 31  1  6  0  0  0
 40 39  1  0  0  0  0
 41 35  1  0  0  0  0
 43 42  1  0  0  0  0
 43 44  1  0  0  0  0
 45 43  2  0  0  0  0
M  END
>  <MODEL>
6

>  <REMARK>
 VINA RESULT:      -6.4      2.235      7.414
  Name = 
  8 active torsions:
  status: ('A' for Active; 'I' for Inactive)
    1  A    between atoms: C_1  and  C_28
    2  A    between atoms: S_9  and  C_17
    3  A    between atoms: S_9  and  C_39
    4  A    between atoms: C_12  and  N_18
    5  A    between atoms: C_17  and  N_33
    6  A    between atoms: C_19  and  N_26
    7  A    between atoms: N_22  and  C_23
    8  A    between atoms: C_23  and  C_36
                            x       y       z     vdW  Elec       q    Type
                         _______ _______ _______ _____ _____    ______ ____

>  <TORSDO>
F 8

$$$$
=
 OpenBabel11052410313D

 45 50  0  0  1  0  0  0  0  0999 V2000
  159.7720  212.9450  148.0620 N   0  0  0  0  0  2  0  0  0  0  0  0
  158.2430  214.4000  146.9360 N   0  0  0  0  0  0  0  0  0  0  0  0
  160.3770  212.9820  150.3990 N   0  0  0  0  0  0  0  0  0  0  0  0
  158.9710  214.1270  147.9770 C   0  0  0  0  0  3  0  0  0  0  0  0
  160.6210  212.6150  149.1720 C   0  0  0  0  0  0  0  0  0  0  0  0
  159.8290  211.1400  154.8340 C   0  0  0  0  0  3  0  0  0  0  0  0
  157.7390  212.6700  153.8500 C   0  0  0  0  0  0  0  0  0  0  0  0
  158.9980  212.8030  153.3240 C   0  0  0  0  0  0  0  0  0  0  0  0
  159.1760  213.5720  150.9100 C   0  0  1  0  0  3  0  0  0  0  0  0
  157.4600  211.7410  154.8490 C   0  0  0  0  0  3  0  0  0  0  0  0
  158.1030  213.8670  150.1730 C   0  0  0  0  0  2  0  0  0  0  0  0
  157.4920  214.1750  152.3090 C   0  0  0  0  0  0  0  0  0  0  0  0
  156.8020  213.4820  153.1640 N   0  0  0  0  0  0  0  0  0  0  0  0
  158.9670  213.9150  152.3440 C   0  0  1  0  0  3  0  0  0  0  0  0
  158.5260  210.9730  155.3470 C   0  0  0  0  0  3  0  0  0  0  0  0
  160.0770  212.0720  153.8140 C   0  0  0  0  0  3  0  0  0  0  0  0
  157.0240  214.3330  150.9790 N   0  0  0  0  0  2  0  0  0  0  0  0
  157.2480  212.7450  145.5940 O   0  0  0  0  0  0  0  0  0  0  0  0
  158.1500  213.6170  145.7360 C   0  0  0  0  0  0  0  0  0  0  0  0
  160.4990  213.0800  142.2420 N   0  0  0  0  0  0  0  0  0  0  0  0
  160.2400  211.9850  143.1780 C   0  0  0  0  0  2  0  0  0  0  0  0
  158.5930  214.2060  143.3450 C   0  0  0  0  0  2  0  0  0  0  0  0
  161.7010  213.8300  140.3810 O   0  0  0  0  0  0  0  0  0  0  0  0
  161.5150  212.9270  141.2440 C   0  0  0  0  0  0  0  0  0  0  0  0
  162.3130  211.7910  141.2210 O   0  0  0  0  0  1  0  0  0  0  0  0
  160.0700  212.5180  144.6020 C   0  0  0  0  0  2  0  0  0  0  0  0
  159.6760  214.2950  142.2730 C   0  0  0  0  0  2  0  0  0  0  0  0
  159.2000  213.7850  144.6860 C   0  0  0  0  0  3  0  0  0  0  0  0
  162.1050  211.6720  148.8450 S   0  0  0  0  0  0  0  0  0  0  0  0
  162.0820  210.8620  150.4750 C   0  0  0  0  0  2  0  0  0  0  0  0
  161.8850  208.4900  151.3360 C   0  0  0  0  0  0  0  0  0  0  0  0
  162.2770  209.4260  150.3310 N   0  0  0  0  0  2  0  0  0  0  0  0
  161.2930  208.8790  152.3820 O   0  0  0  0  0  0  0  0  0  0  0  0
  161.1480  206.5320  148.9720 C   0  0  1  0  0  3  0  0  0  0  0  0
  160.6210  204.5140  148.3850 C   0  0  1  0  0  3  0  0  0  0  0  0
  161.1160  206.1470  151.7960 C   0  0  0  0  0  2  0  0  0  0  0  0
  160.2920  205.4130  149.5790 C   0  0  1  0  0  3  0  0  0  0  0  0
  160.8100  204.9330  150.9380 C   0  0  0  0  0  2  0  0  0  0  0  0
  162.1750  207.0390  151.1290 C   0  0  1  0  0  3  0  0  0  0  0  0
  162.4060  206.7300  149.7050 N   0  0  0  0  0  2  0  0  0  0  0  0
  161.4180  205.6520  147.7620 C   0  0  0  0  0  2  0  0  0  0  0  0
  161.5240  203.4230  148.7390 N   0  0  0  0  0  2  0  0  0  0  0  0
  161.0760  202.0740  148.8670 C   0  0  0  0  0  0  0  0  0  0  0  0
  161.9100  201.1610  149.0930 O   0  0  0  0  0  1  0  0  0  0  0  0
  159.7270  201.7600  148.7380 O   0  0  0  0  0  0  0  0  0  0  0  0
  1  5  1  0  0  0  0
  2  4  2  0  0  0  0
  4  1  1  0  0  0  0
  5  3  2  0  0  0  0
  6 15  1  0  0  0  0
  7 10  1  0  0  0  0
  8 16  1  0  0  0  0
  8  7  2  0  0  0  0
  9  3  1  1  0  0  0
  9 14  1  0  0  0  0
 10 15  2  0  0  0  0
 11  9  1  0  0  0  0
 11 17  1  0  0  0  0
 12 13  2  0  0  0  0
 13  7  1  0  0  0  0
 14 12  1  6  0  0  0
 14  8  1  0  0  0  0
 16  6  2  0  0  0  0
 17 12  1  0  0  0  0
 18 19  2  0  0  0  0
 19  2  1  0  0  0  0
 20 27  1  0  0  0  0
 20 21  1  0  0  0  0
 21 26  1  0  0  0  0
 22 28  1  0  0  0  0
 23 24  2  0  0  0  0
 24 20  1  0  0  0  0
 25 24  1  0  0  0  0
 26 28  1  0  0  0  0
 27 22  1  0  0  0  0
 28 19  1  0  0  0  0
 29  5  1  0  0  0  0
 29 30  1  0  0  0  0
 31 33  2  0  0  0  0
 32 30  1  0  0  0  0
 32 31  1  0  0  0  0
 34 41  1  6  0  0  0
 34 37  1  0  0  0  0
 34 40  1  0  0  0  0
 35 42  1  1  0  0  0
 35 37  1  0  0  0  0
 37 38  1  1  0  0  0
 38 36  1  0  0  0  0
 39 31  1  6  0  0  0
 39 36  1  0  0  0  0
 40 39  1  0  0  0  0
 41 35  1  0  0  0  0
 42 43  1  0  0  0  0
 43 44  1  0  0  0  0
 45 43  2  0  0  0  0
M  END
>  <MODEL>
7

>  <REMARK>
 VINA RESULT:      -6.1      2.123      8.350
  Name = 
  8 active torsions:
  status: ('A' for Active; 'I' for Inactive)
    1  A    between atoms: C_1  and  C_28
    2  A    between atoms: S_9  and  C_17
    3  A    between atoms: S_9  and  C_39
    4  A    between atoms: C_12  and  N_18
    5  A    between atoms: C_17  and  N_33
    6  A    between atoms: C_19  and  N_26
    7  A    between atoms: N_22  and  C_23
    8  A    between atoms: C_23  and  C_36
                            x       y       z     vdW  Elec       q    Type
                         _______ _______ _______ _____ _____    ______ ____

>  <TORSDO>
F 8

$$$$
=
 OpenBabel11052410313D

 45 50  0  0  1  0  0  0  0  0999 V2000
  161.1910  212.2710  149.8190 N   0  0  0  0  0  2  0  0  0  0  0  0
  161.0780  214.0730  148.2500 N   0  0  0  0  0  0  0  0  0  0  0  0
  160.0750  212.1170  151.9550 N   0  0  0  0  0  0  0  0  0  0  0  0
  160.8650  213.6130  149.4460 C   0  0  0  0  0  3  0  0  0  0  0  0
  161.0110  211.7250  151.1350 C   0  0  0  0  0  0  0  0  0  0  0  0
  158.1970  213.2860  156.2520 C   0  0  0  0  0  3  0  0  0  0  0  0
  156.7700  214.0700  154.0110 C   0  0  0  0  0  0  0  0  0  0  0  0
  158.1070  213.7870  153.9120 C   0  0  0  0  0  0  0  0  0  0  0  0
  158.9630  212.9710  151.6640 C   0  0  1  0  0  3  0  0  0  0  0  0
  156.0810  213.9290  155.2120 C   0  0  0  0  0  3  0  0  0  0  0  0
  158.1660  212.8420  150.6010 C   0  0  0  0  0  2  0  0  0  0  0  0
  157.2060  214.3890  151.9110 C   0  0  0  0  0  0  0  0  0  0  0  0
  156.2110  214.3790  152.7450 N   0  0  0  0  0  0  0  0  0  0  0  0
  158.5400  214.1060  152.5300 C   0  0  1  0  0  3  0  0  0  0  0  0
  156.8130  213.5360  156.3460 C   0  0  0  0  0  3  0  0  0  0  0  0
  158.8620  213.4190  155.0230 C   0  0  0  0  0  3  0  0  0  0  0  0
  157.0770  213.7620  150.6440 N   0  0  0  0  0  2  0  0  0  0  0  0
  162.7370  212.6860  147.3260 O   0  0  0  0  0  0  0  0  0  0  0  0
  161.6810  213.3580  147.1600 C   0  0  0  0  0  0  0  0  0  0  0  0
  160.5990  212.6080  143.1260 N   0  0  0  0  0  0  0  0  0  0  0  0
  161.9920  212.5820  143.5710 C   0  0  0  0  0  2  0  0  0  0  0  0
  160.0370  212.4170  145.5260 C   0  0  0  0  0  2  0  0  0  0  0  0
  159.1140  212.5760  141.3180 O   0  0  0  0  0  1  0  0  0  0  0  0
  160.3090  212.6300  141.7230 C   0  0  0  0  0  0  0  0  0  0  0  0
  161.3380  212.7230  140.7940 O   0  0  0  0  0  0  0  0  0  0  0  0
  162.2050  213.5500  144.7380 C   0  0  0  0  0  2  0  0  0  0  0  0
  159.5040  212.5340  144.1000 C   0  0  0  0  0  2  0  0  0  0  0  0
  161.0890  213.4960  145.7950 C   0  0  0  0  0  3  0  0  0  0  0  0
  162.1460  210.4580  151.6840 S   0  0  0  0  0  0  0  0  0  0  0  0
  160.8140  209.2860  152.0940 C   0  0  0  0  0  2  0  0  0  0  0  0
  161.4630  206.8740  152.5040 C   0  0  0  0  0  0  0  0  0  0  0  0
  161.1490  207.9510  151.6190 N   0  0  0  0  0  2  0  0  0  0  0  0
  161.4060  207.0330  153.7550 O   0  0  0  0  0  0  0  0  0  0  0  0
  160.9050  205.5870  149.6760 C   0  0  1  0  0  3  0  0  0  0  0  0
  160.5220  203.7760  148.5510 C   0  0  1  0  0  3  0  0  0  0  0  0
  160.8370  204.4550  152.2910 C   0  0  0  0  0  2  0  0  0  0  0  0
  160.1100  204.3010  149.9280 C   0  0  1  0  0  3  0  0  0  0  0  0
  160.6280  203.5020  151.1290 C   0  0  0  0  0  2  0  0  0  0  0  0
  161.8500  205.5520  151.9280 C   0  0  1  0  0  3  0  0  0  0  0  0
  162.1320  205.6510  150.4830 N   0  0  0  0  0  2  0  0  0  0  0  0
  161.2580  205.0820  148.2850 C   0  0  0  0  0  2  0  0  0  0  0  0
  161.4850  202.6820  148.6340 N   0  0  0  0  0  2  0  0  0  0  0  0
  161.0840  201.3120  148.6450 C   0  0  0  0  0  0  0  0  0  0  0  0
  161.9590  200.4090  148.6360 O   0  0  0  0  0  0  0  0  0  0  0  0
  159.7370  200.9680  148.6600 O   0  0  0  0  0  1  0  0  0  0  0  0
  1  5  1  0  0  0  0
  2  4  2  0  0  0  0
  4  1  1  0  0  0  0
  5 29  1  0  0  0  0
  5  3  2  0  0  0  0
  6 15  1  0  0  0  0
  7 10  1  0  0  0  0
  8  7  2  0  0  0  0
  8 16  1  0  0  0  0
  9  3  1  1  0  0  0
  9 14  1  0  0  0  0
 10 15  2  0  0  0  0
 11 17  1  0  0  0  0
 11  9  1  0  0  0  0
 12 13  2  0  0  0  0
 13  7  1  0  0  0  0
 14 12  1  6  0  0  0
 14  8  1  0  0  0  0
 16  6  2  0  0  0  0
 17 12  1  0  0  0  0
 19 18  2  0  0  0  0
 19  2  1  0  0  0  0
 20 21  1  0  0  0  0
 20 27  1  0  0  0  0
 21 26  1  0  0  0  0
 22 28  1  0  0  0  0
 23 24  1  0  0  0  0
 24 20  1  0  0  0  0
 25 24  2  0  0  0  0
 26 28  1  0  0  0  0
 27 22  1  0  0  0  0
 28 19  1  0  0  0  0
 29 30  1  0  0  0  0
 31 33  2  0  0  0  0
 32 30  1  0  0  0  0
 32 31  1  0  0  0  0
 34 41  1  6  0  0  0
 34 37  1  0  0  0  0
 34 40  1  0  0  0  0
 35 42  1  1  0  0  0
 35 37  1  0  0  0  0
 37 38  1  1  0  0  0
 38 36  1  0  0  0  0
 39 36  1  0  0  0  0
 39 31  1  6  0  0  0
 40 39  1  0  0  0  0
 41 35  1  0  0  0  0
 42 43  1  0  0  0  0
 43 45  1  0  0  0  0
 44 43  2  0  0  0  0
M  END
>  <MODEL>
8

>  <REMARK>
 VINA RESULT:      -5.8      2.178      8.423
  Name = 
  8 active torsions:
  status: ('A' for Active; 'I' for Inactive)
    1  A    between atoms: C_1  and  C_28
    2  A    between atoms: S_9  and  C_17
    3  A    between atoms: S_9  and  C_39
    4  A    between atoms: C_12  and  N_18
    5  A    between atoms: C_17  and  N_33
    6  A    between atoms: C_19  and  N_26
    7  A    between atoms: N_22  and  C_23
    8  A    between atoms: C_23  and  C_36
                            x       y       z     vdW  Elec       q    Type
                         _______ _______ _______ _____ _____    ______ ____

>  <TORSDO>
F 8

$$$$
=
 OpenBabel11052410313D

 45 50  0  0  1  0  0  0  0  0999 V2000
  161.2950  208.8130  152.4100 N   0  0  0  0  0  2  0  0  0  0  0  0
  160.7720  206.7860  153.5670 N   0  0  0  0  0  0  0  0  0  0  0  0
  160.6990  211.0630  153.0560 N   0  0  0  0  0  0  0  0  0  0  0  0
  160.5760  208.0580  153.3900 C   0  0  0  0  0  3  0  0  0  0  0  0
  161.0900  210.2110  152.1490 C   0  0  0  0  0  0  0  0  0  0  0  0
  156.3370  212.7310  154.3040 C   0  0  0  0  0  3  0  0  0  0  0  0
  158.0290  211.9870  156.3690 C   0  0  0  0  0  0  0  0  0  0  0  0
  158.2280  211.4980  155.1050 C   0  0  0  0  0  0  0  0  0  0  0  0
  160.6000  210.8490  154.4680 C   0  0  1  0  0  3  0  0  0  0  0  0
  157.0140  212.8990  156.6460 C   0  0  0  0  0  3  0  0  0  0  0  0
  161.6210  210.9460  155.3220 C   0  0  0  0  0  2  0  0  0  0  0  0
  159.7770  210.7240  156.5810 C   0  0  0  0  0  0  0  0  0  0  0  0
  159.0390  211.5480  157.2610 N   0  0  0  0  0  0  0  0  0  0  0  0
  159.3300  210.5080  155.1680 C   0  0  1  0  0  3  0  0  0  0  0  0
  156.1570  213.2670  155.5950 C   0  0  0  0  0  3  0  0  0  0  0  0
  157.3810  211.8260  154.0490 C   0  0  0  0  0  3  0  0  0  0  0  0
  161.1920  210.7950  156.6740 N   0  0  0  0  0  2  0  0  0  0  0  0
  162.8190  206.3680  152.4880 O   0  0  0  0  0  0  0  0  0  0  0  0
  161.6740  205.9540  152.8220 C   0  0  0  0  0  0  0  0  0  0  0  0
  160.8660  202.5600  150.4060 N   0  0  0  0  0  0  0  0  0  0  0  0
  160.4700  203.9090  150.0020 C   0  0  0  0  0  2  0  0  0  0  0  0
  162.3720  203.6950  152.0050 C   0  0  0  0  0  2  0  0  0  0  0  0
  160.7150  200.2630  149.9910 O   0  0  0  0  0  1  0  0  0  0  0  0
  160.3290  201.4310  149.7060 C   0  0  0  0  0  0  0  0  0  0  0  0
  159.3700  201.6080  148.7180 O   0  0  0  0  0  0  0  0  0  0  0  0
  160.1740  204.7760  151.2290 C   0  0  0  0  0  2  0  0  0  0  0  0
  161.8600  202.3610  151.4660 C   0  0  0  0  0  2  0  0  0  0  0  0
  161.2010  204.6130  152.3620 C   0  0  0  0  0  3  0  0  0  0  0  0
  161.3640  210.8050  150.4850 S   0  0  0  0  0  0  0  0  0  0  0  0
  162.3060  209.3260  149.9930 C   0  0  0  0  0  2  0  0  0  0  0  0
  161.9390  207.4850  148.2960 C   0  0  0  0  0  0  0  0  0  0  0  0
  161.4450  208.3890  149.2860 N   0  0  0  0  0  2  0  0  0  0  0  0
  163.1730  207.4290  148.0350 O   0  0  0  0  0  0  0  0  0  0  0  0
  162.3420  204.7120  146.8420 C   0  0  1  0  0  3  0  0  0  0  0  0
  161.7440  203.4140  145.2140 C   0  0  1  0  0  3  0  0  0  0  0  0
  160.8140  207.0040  146.1070 C   0  0  0  0  0  2  0  0  0  0  0  0
  161.9410  204.9220  145.3770 C   0  0  1  0  0  3  0  0  0  0  0  0
  160.6820  205.7810  145.2170 C   0  0  0  0  0  2  0  0  0  0  0  0
  160.9750  206.5960  147.5800 C   0  0  1  0  0  3  0  0  0  0  0  0
  161.3030  205.1710  147.7750 N   0  0  0  0  0  2  0  0  0  0  0  0
  162.2020  203.2100  146.6510 C   0  0  0  0  0  2  0  0  0  0  0  0
  160.3370  203.0430  145.0940 N   0  0  0  0  0  2  0  0  0  0  0  0
  159.8910  201.6930  145.2180 C   0  0  0  0  0  0  0  0  0  0  0  0
  158.6600  201.4400  145.1870 O   0  0  0  0  0  0  0  0  0  0  0  0
  160.8040  200.6570  145.3780 O   0  0  0  0  0  1  0  0  0  0  0  0
  1  4  1  0  0  0  0
  4  2  2  0  0  0  0
  5  1  1  0  0  0  0
  5  3  2  0  0  0  0
  6 15  1  0  0  0  0
  7 10  1  0  0  0  0
  7 13  1  0  0  0  0
  8  7  2  0  0  0  0
  9  3  1  1  0  0  0
  9 14  1  0  0  0  0
  9 11  1  0  0  0  0
 11 17  1  0  0  0  0
 12 17  1  0  0  0  0
 12 13  2  0  0  0  0
 14  8  1  6  0  0  0
 14 12  1  0  0  0  0
 15 10  2  0  0  0  0
 16  6  2  0  0  0  0
 16  8  1  0  0  0  0
 18 19  2  0  0  0  0
 19  2  1  0  0  0  0
 20 27  1  0  0  0  0
 21 20  1  0  0  0  0
 21 26  1  0  0  0  0
 22 28  1  0  0  0  0
 24 23  1  0  0  0  0
 24 20  1  0  0  0  0
 25 24  2  0  0  0  0
 26 28  1  0  0  0  0
 27 22  1  0  0  0  0
 28 19  1  0  0  0  0
 29  5  1  0  0  0  0
 30 29  1  0  0  0  0
 31 32  1  0  0  0  0
 32 30  1  0  0  0  0
 33 31  2  0  0  0  0
 34 41  1  6  0  0  0
 34 40  1  0  0  0  0
 35 42  1  1  0  0  0
 35 37  1  0  0  0  0
 35 41  1  0  0  0  0
 36 39  1  0  0  0  0
 37 38  1  1  0  0  0
 37 34  1  0  0  0  0
 38 36  1  0  0  0  0
 39 40  1  0  0  0  0
 39 31  1  6  0  0  0
 42 43  1  0  0  0  0
 43 45  1  0  0  0  0
 44 43  2  0  0  0  0
M  END
>  <MODEL>
9

>  <REMARK>
 VINA RESULT:      -5.6      4.548      5.951
  Name = 
  8 active torsions:
  status: ('A' for Active; 'I' for Inactive)
    1  A    between atoms: C_1  and  C_28
    2  A    between atoms: S_9  and  C_17
    3  A    between atoms: S_9  and  C_39
    4  A    between atoms: C_12  and  N_18
    5  A    between atoms: C_17  and  N_33
    6  A    between atoms: C_19  and  N_26
    7  A    between atoms: N_22  and  C_23
    8  A    between atoms: C_23  and  C_36
                            x       y       z     vdW  Elec       q    Type
                         _______ _______ _______ _____ _____    ______ ____

>  <TORSDO>
F 8

$$$$
