=
 OpenBabel11052409563D

 29 28  0  0  1  0  0  0  0  0999 V2000
  161.2300  204.2720  152.1130 C   0  0  0  0  0  3  0  0  0  0  0  0
  160.6010  204.5580  149.7700 C   0  0  0  0  0  3  0  0  0  0  0  0
  162.6640  205.9120  153.0210 O   0  0  0  0  0  0  0  0  0  0  0  0
  161.7790  206.4650  150.8640 C   0  0  1  0  0  3  0  0  0  0  0  0
  160.5890  203.8120  151.0390 C   0  0  0  0  0  3  0  0  0  0  0  0
  161.9410  205.5560  152.0540 C   0  0  0  0  0  0  0  0  0  0  0  0
  161.1770  205.7610  149.6650 C   0  0  0  0  0  0  0  0  0  0  0  0
  161.1900  206.4390  148.3320 C   0  0  0  0  0  2  0  0  0  0  0  0
  161.2800  204.2810  146.3280 N   0  0  0  0  0  2  0  0  0  0  0  0
  163.5040  204.8850  145.9530 O   0  0  0  0  0  0  0  0  0  0  0  0
  162.3990  206.0960  147.5960 N   0  0  0  0  0  2  0  0  0  0  0  0
  162.4360  205.0800  146.5930 C   0  0  0  0  0  0  0  0  0  0  0  0
  161.2740  203.2080  145.3430 C   0  0  0  0  0  2  0  0  0  0  0  0
  160.7210  201.9300  145.9520 C   0  0  0  0  0  2  0  0  0  0  0  0
  159.9120  201.2720  145.0250 O   0  0  0  0  0  1  0  0  0  0  0  0
  160.7490  207.8890  151.3350 S   0  0  0  0  0  0  0  0  0  0  0  0
  162.0730  209.0670  150.9330 C   0  0  0  0  0  2  0  0  0  0  0  0
  162.3300  209.9810  152.1190 C   0  0  0  0  0  2  0  0  0  0  0  0
  161.0670  210.1420  152.9520 C   0  0  1  0  0  3  0  0  0  0  0  0
  161.4880  211.0960  155.0820 O   0  0  0  0  0  0  0  0  0  0  0  0
  161.3730  210.0340  154.4170 C   0  0  0  0  0  0  0  0  0  0  0  0
  160.4780  207.8650  155.2290 C   0  0  0  0  0  1  0  0  0  0  0  0
  161.5300  208.8070  155.0750 O   0  0  0  0  0  0  0  0  0  0  0  0
  160.3540  211.4480  152.6170 C   0  0  0  0  0  2  0  0  0  0  0  0
  158.8470  211.2900  152.7300 C   0  0  0  0  0  1  0  0  0  0  0  0
  158.2520  212.2100  153.9410 C   0  0  0  0  0  1  0  0  0  0  0  0
  158.0170  211.5340  153.8150 O   0  0  0  0  0  0  0  0  0  0  0  0
  157.2300  211.4480  154.7950 C   0  0  0  0  0  2  0  0  0  0  0  0
  155.8660  211.6730  154.6580 O   0  0  0  0  0  1  0  0  0  0  0  0
  2  5  1  0  0  0  0
  4 16  1  1  0  0  0
  4  6  1  0  0  0  0
  5  1  2  0  0  0  0
  6  1  1  0  0  0  0
  6  3  2  0  0  0  0
  7  2  2  0  0  0  0
  7  4  1  0  0  0  0
  8  7  1  0  0  0  0
  9 12  1  0  0  0  0
 10 12  2  0  0  0  0
 11  8  1  0  0  0  0
 12 11  1  0  0  0  0
 13 14  1  0  0  0  0
 13  9  1  0  0  0  0
 15 14  1  0  0  0  0
 17 16  1  0  0  0  0
 17 18  1  0  0  0  0
 19 18  1  6  0  0  0
 19 21  1  0  0  0  0
 21 23  1  0  0  0  0
 21 20  2  0  0  0  0
 23 22  1  0  0  0  0
 24 25  1  0  0  0  0
 24 19  1  0  0  0  0
 27 26  1  0  0  0  0
 27 28  1  0  0  0  0
 29 28  1  0  0  0  0
M  END
>  <MODEL>
1

>  <REMARK>
 VINA RESULT:      -6.4      0.000      0.000
  Name = 
  14 active torsions:
  status: ('A' for Active; 'I' for Inactive)
    1  A    between atoms: C_2  and  C_13
    2  A    between atoms: C_2  and  C_17
    3  A    between atoms: C_6  and  C_11
    4  A    between atoms: C_7  and  N_24
    5  A    between atoms: C_7  and  C_26
    6  A    between atoms: N_9  and  C_11
    7  A    between atoms: C_10  and  C_19
    8  A    between atoms: C_10  and  C_25
    9  A    between atoms: C_10  and  C_29
   10  A    between atoms: C_15  and  S_28
   11  A    between atoms: C_17  and  C_25
   12  A    between atoms: C_18  and  S_28
   13  A    between atoms: C_18  and  C_29
   14  A    between atoms: C_19  and  O_23
                            x       y       z     vdW  Elec       q    Type
                         _______ _______ _______ _____ _____    ______ ____

>  <TORSDO>
F 14

$$$$
=
 OpenBabel11052409563D

 29 28  0  0  1  0  0  0  0  0999 V2000
  161.1130  206.3760  153.9810 C   0  0  0  0  0  3  0  0  0  0  0  0
  160.8540  208.8040  154.0280 C   0  0  0  0  0  3  0  0  0  0  0  0
  160.8900  205.3390  151.8720 O   0  0  0  0  0  0  0  0  0  0  0  0
  161.0200  207.7300  151.7830 C   0  0  1  0  0  3  0  0  0  0  0  0
  161.0610  207.5040  154.6870 C   0  0  0  0  0  3  0  0  0  0  0  0
  160.9890  206.4150  152.5170 C   0  0  0  0  0  0  0  0  0  0  0  0
  160.7950  208.9180  152.6960 C   0  0  0  0  0  0  0  0  0  0  0  0
  160.5360  210.2640  152.1000 C   0  0  0  0  0  2  0  0  0  0  0  0
  159.6780  213.0130  151.4760 N   0  0  0  0  0  2  0  0  0  0  0  0
  157.9490  212.6930  153.0120 O   0  0  0  0  0  0  0  0  0  0  0  0
  159.4140  210.9110  152.7660 N   0  0  0  0  0  2  0  0  0  0  0  0
  158.9680  212.2270  152.4370 C   0  0  0  0  0  0  0  0  0  0  0  0
  159.2880  214.3730  151.1300 C   0  0  0  0  0  2  0  0  0  0  0  0
  158.4380  214.3790  149.8710 C   0  0  0  0  0  2  0  0  0  0  0  0
  158.9640  213.4870  148.9360 O   0  0  0  0  0  1  0  0  0  0  0  0
  162.6160  207.8970  150.9240 S   0  0  0  0  0  0  0  0  0  0  0  0
  161.8030  208.3220  149.3550 C   0  0  0  0  0  2  0  0  0  0  0  0
  162.1690  207.3030  148.2890 C   0  0  0  0  0  2  0  0  0  0  0  0
  160.9150  206.6740  147.7000 C   0  0  1  0  0  3  0  0  0  0  0  0
  160.1630  206.2180  145.4970 O   0  0  0  0  0  0  0  0  0  0  0  0
  161.1470  206.2430  146.2820 C   0  0  0  0  0  0  0  0  0  0  0  0
  162.7350  204.5470  145.4050 C   0  0  0  0  0  1  0  0  0  0  0  0
  162.4070  205.8740  145.7920 O   0  0  0  0  0  0  0  0  0  0  0  0
  160.4210  205.5230  148.5690 C   0  0  0  0  0  2  0  0  0  0  0  0
  161.5360  204.5240  148.8340 C   0  0  0  0  0  1  0  0  0  0  0  0
  161.1230  203.0340  148.3080 C   0  0  0  0  0  1  0  0  0  0  0  0
  160.9770  203.2630  148.9820 O   0  0  0  0  0  0  0  0  0  0  0  0
  160.3900  202.2250  149.3860 C   0  0  0  0  0  2  0  0  0  0  0  0
  161.0490  201.2580  150.1340 O   0  0  0  0  0  1  0  0  0  0  0  0
  1  5  2  0  0  0  0
  2  5  1  0  0  0  0
  3  6  2  0  0  0  0
  4 16  1  1  0  0  0
  4  6  1  0  0  0  0
  4  7  1  0  0  0  0
  6  1  1  0  0  0  0
  7  2  2  0  0  0  0
  8  7  1  0  0  0  0
  8 11  1  0  0  0  0
  9 12  1  0  0  0  0
 12 11  1  0  0  0  0
 12 10  2  0  0  0  0
 13  9  1  0  0  0  0
 14 13  1  0  0  0  0
 15 14  1  0  0  0  0
 17 16  1  0  0  0  0
 18 17  1  0  0  0  0
 19 18  1  1  0  0  0
 19 24  1  0  0  0  0
 20 21  2  0  0  0  0
 21 19  1  0  0  0  0
 22 23  1  0  0  0  0
 23 21  1  0  0  0  0
 24 25  1  0  0  0  0
 26 27  1  0  0  0  0
 27 28  1  0  0  0  0
 28 29  1  0  0  0  0
M  END
>  <MODEL>
2

>  <REMARK>
 VINA RESULT:      -6.4      3.204      8.579
  Name = 
  14 active torsions:
  status: ('A' for Active; 'I' for Inactive)
    1  A    between atoms: C_2  and  C_13
    2  A    between atoms: C_2  and  C_17
    3  A    between atoms: C_6  and  C_11
    4  A    between atoms: C_7  and  N_24
    5  A    between atoms: C_7  and  C_26
    6  A    between atoms: N_9  and  C_11
    7  A    between atoms: C_10  and  C_19
    8  A    between atoms: C_10  and  C_25
    9  A    between atoms: C_10  and  C_29
   10  A    between atoms: C_15  and  S_28
   11  A    between atoms: C_17  and  C_25
   12  A    between atoms: C_18  and  S_28
   13  A    between atoms: C_18  and  C_29
   14  A    between atoms: C_19  and  O_23
                            x       y       z     vdW  Elec       q    Type
                         _______ _______ _______ _____ _____    ______ ____

>  <TORSDO>
F 14

$$$$
=
 OpenBabel11052409563D

 29 28  0  0  1  0  0  0  0  0999 V2000
  161.2470  205.8720  153.6430 C   0  0  0  0  0  3  0  0  0  0  0  0
  161.0420  208.2930  153.8920 C   0  0  0  0  0  3  0  0  0  0  0  0
  160.7980  204.9960  151.4970 O   0  0  0  0  0  0  0  0  0  0  0  0
  160.9650  207.3860  151.5700 C   0  0  1  0  0  3  0  0  0  0  0  0
  161.2870  206.9450  154.4310 C   0  0  0  0  0  3  0  0  0  0  0  0
  160.9800  206.0210  152.2060 C   0  0  0  0  0  0  0  0  0  0  0  0
  160.8530  208.5060  152.5840 C   0  0  0  0  0  0  0  0  0  0  0  0
  160.5630  209.8950  152.1160 C   0  0  0  0  0  2  0  0  0  0  0  0
  158.4660  211.4810  153.4460 N   0  0  0  0  0  2  0  0  0  0  0  0
  160.1580  212.3680  154.7890 O   0  0  0  0  0  0  0  0  0  0  0  0
  160.8510  210.8600  153.1680 N   0  0  0  0  0  2  0  0  0  0  0  0
  159.8350  211.5990  153.8450 C   0  0  0  0  0  0  0  0  0  0  0  0
  157.3950  212.2390  154.0780 C   0  0  0  0  0  2  0  0  0  0  0  0
  156.6990  211.3960  155.1350 C   0  0  0  0  0  2  0  0  0  0  0  0
  157.3960  211.4740  156.3410 O   0  0  0  0  0  1  0  0  0  0  0  0
  162.4710  207.5960  150.5700 S   0  0  0  0  0  0  0  0  0  0  0  0
  161.5220  207.6080  149.0200 C   0  0  0  0  0  2  0  0  0  0  0  0
  162.3280  206.9480  147.9140 C   0  0  0  0  0  2  0  0  0  0  0  0
  161.5230  205.8360  147.2590 C   0  0  1  0  0  3  0  0  0  0  0  0
  163.5740  204.9160  146.5030 O   0  0  0  0  0  0  0  0  0  0  0  0
  162.3530  205.0940  146.2530 C   0  0  0  0  0  0  0  0  0  0  0  0
  161.1790  205.3930  144.0860 C   0  0  0  0  0  1  0  0  0  0  0  0
  161.8300  204.5860  145.0570 O   0  0  0  0  0  0  0  0  0  0  0  0
  160.9300  204.9000  148.3060 C   0  0  0  0  0  2  0  0  0  0  0  0
  161.6420  203.5560  148.3000 C   0  0  0  0  0  1  0  0  0  0  0  0
  160.5680  202.3270  148.2550 C   0  0  0  0  0  1  0  0  0  0  0  0
  161.2180  202.2310  147.9440 O   0  0  0  0  0  0  0  0  0  0  0  0
  160.8820  201.3300  147.1310 C   0  0  0  0  0  2  0  0  0  0  0  0
  160.5770  201.6170  145.8070 O   0  0  0  0  0  1  0  0  0  0  0  0
  1  5  2  0  0  0  0
  2  5  1  0  0  0  0
  3  6  2  0  0  0  0
  4 16  1  1  0  0  0
  4  6  1  0  0  0  0
  4  7  1  0  0  0  0
  6  1  1  0  0  0  0
  7  2  2  0  0  0  0
  8  7  1  0  0  0  0
  8 11  1  0  0  0  0
  9 12  1  0  0  0  0
  9 13  1  0  0  0  0
 11 12  1  0  0  0  0
 12 10  2  0  0  0  0
 13 14  1  0  0  0  0
 14 15  1  0  0  0  0
 17 16  1  0  0  0  0
 18 17  1  0  0  0  0
 19 18  1  1  0  0  0
 19 24  1  0  0  0  0
 21 20  2  0  0  0  0
 21 19  1  0  0  0  0
 22 23  1  0  0  0  0
 23 21  1  0  0  0  0
 25 24  1  0  0  0  0
 27 26  1  0  0  0  0
 28 27  1  0  0  0  0
 29 28  1  0  0  0  0
M  END
>  <MODEL>
3

>  <REMARK>
 VINA RESULT:      -6.4      2.840      9.215
  Name = 
  14 active torsions:
  status: ('A' for Active; 'I' for Inactive)
    1  A    between atoms: C_2  and  C_13
    2  A    between atoms: C_2  and  C_17
    3  A    between atoms: C_6  and  C_11
    4  A    between atoms: C_7  and  N_24
    5  A    between atoms: C_7  and  C_26
    6  A    between atoms: N_9  and  C_11
    7  A    between atoms: C_10  and  C_19
    8  A    between atoms: C_10  and  C_25
    9  A    between atoms: C_10  and  C_29
   10  A    between atoms: C_15  and  S_28
   11  A    between atoms: C_17  and  C_25
   12  A    between atoms: C_18  and  S_28
   13  A    between atoms: C_18  and  C_29
   14  A    between atoms: C_19  and  O_23
                            x       y       z     vdW  Elec       q    Type
                         _______ _______ _______ _____ _____    ______ ____

>  <TORSDO>
F 14

$$$$
=
 OpenBabel11052409563D

 29 29  0  0  1  0  0  0  0  0999 V2000
  161.9680  209.4570  149.9980 C   0  0  0  0  0  3  0  0  0  0  0  0
  161.7450  208.8080  152.3420 C   0  0  0  0  0  3  0  0  0  0  0  0
  162.5850  207.7480  148.4910 O   0  0  0  0  0  0  0  0  0  0  0  0
  162.0030  206.9660  150.6810 C   0  0  1  0  0  3  0  0  0  0  0  0
  161.7320  209.8080  151.2610 C   0  0  0  0  0  3  0  0  0  0  0  0
  162.2200  208.0500  149.6570 C   0  0  0  0  0  0  0  0  0  0  0  0
  161.9070  207.5030  152.0940 C   0  0  0  0  0  0  0  0  0  0  0  0
  161.9560  206.5520  153.2460 C   0  0  0  0  0  2  0  0  0  0  0  0
  161.6980  207.9520  155.8260 N   0  0  0  0  0  2  0  0  0  0  0  0
  159.4400  207.3560  155.7860 O   0  0  0  0  0  0  0  0  0  0  0  0
  160.7090  206.5970  153.9980 N   0  0  0  0  0  2  0  0  0  0  0  0
  160.5680  207.3100  155.2270 C   0  0  0  0  0  0  0  0  0  0  0  0
  161.6180  208.6610  157.0960 C   0  0  0  0  0  2  0  0  0  0  0  0
  162.1130  210.0890  156.9400 C   0  0  0  0  0  2  0  0  0  0  0  0
  162.4620  210.3300  155.6110 O   0  0  0  0  0  1  0  0  0  0  0  0
  160.4950  206.0390  150.2600 S   0  0  0  0  0  0  0  0  0  0  0  0
  161.3140  204.4430  150.5480 C   0  0  0  0  0  2  0  0  0  0  0  0
  160.6090  203.3500  149.7630 C   0  0  0  0  0  2  0  0  0  0  0  0
  161.4510  202.9230  148.5700 C   0  0  1  0  0  3  0  0  0  0  0  0
  161.1540  200.6290  149.0920 O   0  0  0  0  0  0  0  0  0  0  0  0
  161.1570  201.5030  148.1860 C   0  0  0  0  0  0  0  0  0  0  0  0
  161.2650  199.8500  146.3370 C   0  0  0  0  0  1  0  0  0  0  0  0
  160.8810  201.1090  146.8700 O   0  0  0  0  0  0  0  0  0  0  0  0
  161.2600  203.8780  147.3960 C   0  0  0  0  0  2  0  0  0  0  0  0
  162.5990  204.2870  146.8030 C   0  0  0  0  0  2  0  0  0  0  0  0
  162.4390  205.6090  145.8570 C   0  0  0  0  0  2  0  0  0  0  0  0
  162.4120  205.9000  145.1910 O   0  0  0  0  0  0  0  0  0  0  0  0
  161.2710  205.4730  144.8710 C   0  0  0  0  0  2  0  0  0  0  0  0
  160.1370  206.2670  144.9840 O   0  0  0  0  0  1  0  0  0  0  0  0
  1  5  2  0  0  0  0
  3  6  2  0  0  0  0
  4 16  1  6  0  0  0
  4  7  1  0  0  0  0
  5  2  1  0  0  0  0
  6  1  1  0  0  0  0
  6  4  1  0  0  0  0
  7  2  2  0  0  0  0
  7  8  1  0  0  0  0
  8 11  1  0  0  0  0
  9 13  1  0  0  0  0
 11 12  1  0  0  0  0
 12 10  2  0  0  0  0
 12  9  1  0  0  0  0
 14 13  1  0  0  0  0
 15 14  1  0  0  0  0
 16 17  1  0  0  0  0
 18 17  1  0  0  0  0
 19 24  1  6  0  0  0
 19 18  1  0  0  0  0
 21 19  1  0  0  0  0
 21 20  2  0  0  0  0
 22 23  1  0  0  0  0
 23 21  1  0  0  0  0
 25 24  1  0  0  0  0
 26 25  1  0  0  0  0
 27 26  1  0  0  0  0
 28 29  1  0  0  0  0
 28 27  1  0  0  0  0
M  END
>  <MODEL>
4

>  <REMARK>
 VINA RESULT:      -6.2      3.274      9.247
  Name = 
  14 active torsions:
  status: ('A' for Active; 'I' for Inactive)
    1  A    between atoms: C_2  and  C_13
    2  A    between atoms: C_2  and  C_17
    3  A    between atoms: C_6  and  C_11
    4  A    between atoms: C_7  and  N_24
    5  A    between atoms: C_7  and  C_26
    6  A    between atoms: N_9  and  C_11
    7  A    between atoms: C_10  and  C_19
    8  A    between atoms: C_10  and  C_25
    9  A    between atoms: C_10  and  C_29
   10  A    between atoms: C_15  and  S_28
   11  A    between atoms: C_17  and  C_25
   12  A    between atoms: C_18  and  S_28
   13  A    between atoms: C_18  and  C_29
   14  A    between atoms: C_19  and  O_23
                            x       y       z     vdW  Elec       q    Type
                         _______ _______ _______ _____ _____    ______ ____

>  <TORSDO>
F 14

$$$$
=
 OpenBabel11052409563D

 29 28  0  0  1  0  0  0  0  0999 V2000
  161.0680  204.8290  152.4220 C   0  0  0  0  0  3  0  0  0  0  0  0
  161.2500  205.3670  150.0470 C   0  0  0  0  0  3  0  0  0  0  0  0
  162.0470  206.3650  153.9230 O   0  0  0  0  0  0  0  0  0  0  0  0
  161.9160  207.1470  151.6610 C   0  0  1  0  0  3  0  0  0  0  0  0
  160.8440  204.4870  151.1540 C   0  0  0  0  0  3  0  0  0  0  0  0
  161.7060  206.1150  152.7370 C   0  0  0  0  0  0  0  0  0  0  0  0
  161.7790  206.5770  150.2650 C   0  0  0  0  0  0  0  0  0  0  0  0
  162.2110  207.3960  149.0910 C   0  0  0  0  0  2  0  0  0  0  0  0
  162.4090  205.6530  146.7240 N   0  0  0  0  0  2  0  0  0  0  0  0
  160.3180  206.4770  146.0910 O   0  0  0  0  0  0  0  0  0  0  0  0
  161.1960  207.3660  148.0460 N   0  0  0  0  0  2  0  0  0  0  0  0
  161.2670  206.4920  146.9190 C   0  0  0  0  0  0  0  0  0  0  0  0
  162.5490  204.7700  145.5740 C   0  0  0  0  0  2  0  0  0  0  0  0
  161.7450  203.4970  145.7790 C   0  0  0  0  0  2  0  0  0  0  0  0
  160.6880  203.4490  144.8710 O   0  0  0  0  0  1  0  0  0  0  0  0
  160.7300  208.5080  151.9000 S   0  0  0  0  0  0  0  0  0  0  0  0
  162.0640  209.7250  152.1030 C   0  0  0  0  0  2  0  0  0  0  0  0
  162.0270  210.3040  153.5070 C   0  0  0  0  0  2  0  0  0  0  0  0
  160.6700  210.0580  154.1490 C   0  0  1  0  0  3  0  0  0  0  0  0
  161.9430  209.2610  155.9850 O   0  0  0  0  0  0  0  0  0  0  0  0
  160.8140  209.2890  155.4300 C   0  0  0  0  0  0  0  0  0  0  0  0
  159.7410  207.2040  156.2460 C   0  0  0  0  0  1  0  0  0  0  0  0
  159.7490  208.6080  156.0350 O   0  0  0  0  0  0  0  0  0  0  0  0
  159.9180  211.3680  154.3570 C   0  0  0  0  0  2  0  0  0  0  0  0
  158.7880  211.5130  153.3500 C   0  0  0  0  0  1  0  0  0  0  0  0
  159.2630  212.4020  152.0640 C   0  0  0  0  0  1  0  0  0  0  0  0
  158.5810  212.1790  151.9450 O   0  0  0  0  0  0  0  0  0  0  0  0
  158.1240  213.2700  151.5130 C   0  0  0  0  0  2  0  0  0  0  0  0
  158.0060  213.5240  150.1520 O   0  0  0  0  0  1  0  0  0  0  0  0
  1  6  1  0  0  0  0
  2  7  2  0  0  0  0
  2  5  1  0  0  0  0
  4 16  1  1  0  0  0
  4  6  1  0  0  0  0
  5  1  2  0  0  0  0
  6  3  2  0  0  0  0
  7  4  1  0  0  0  0
  8  7  1  0  0  0  0
  9 12  1  0  0  0  0
 10 12  2  0  0  0  0
 11  8  1  0  0  0  0
 12 11  1  0  0  0  0
 13 14  1  0  0  0  0
 13  9  1  0  0  0  0
 15 14  1  0  0  0  0
 16 17  1  0  0  0  0
 17 18  1  0  0  0  0
 19 18  1  1  0  0  0
 19 24  1  0  0  0  0
 19 21  1  0  0  0  0
 21 20  2  0  0  0  0
 21 23  1  0  0  0  0
 23 22  1  0  0  0  0
 25 24  1  0  0  0  0
 27 26  1  0  0  0  0
 28 27  1  0  0  0  0
 29 28  1  0  0  0  0
M  END
>  <MODEL>
5

>  <REMARK>
 VINA RESULT:      -6.2      1.644      2.030
  Name = 
  14 active torsions:
  status: ('A' for Active; 'I' for Inactive)
    1  A    between atoms: C_2  and  C_13
    2  A    between atoms: C_2  and  C_17
    3  A    between atoms: C_6  and  C_11
    4  A    between atoms: C_7  and  N_24
    5  A    between atoms: C_7  and  C_26
    6  A    between atoms: N_9  and  C_11
    7  A    between atoms: C_10  and  C_19
    8  A    between atoms: C_10  and  C_25
    9  A    between atoms: C_10  and  C_29
   10  A    between atoms: C_15  and  S_28
   11  A    between atoms: C_17  and  C_25
   12  A    between atoms: C_18  and  S_28
   13  A    between atoms: C_18  and  C_29
   14  A    between atoms: C_19  and  O_23
                            x       y       z     vdW  Elec       q    Type
                         _______ _______ _______ _____ _____    ______ ____

>  <TORSDO>
F 14

$$$$
=
 OpenBabel11052409563D

 29 28  0  0  1  0  0  0  0  0999 V2000
  162.3210  207.2870  147.5170 C   0  0  0  0  0  3  0  0  0  0  0  0
  161.3140  205.2500  148.4120 C   0  0  0  0  0  3  0  0  0  0  0  0
  161.8590  209.2850  148.6860 O   0  0  0  0  0  0  0  0  0  0  0  0
  161.1760  207.2950  149.8330 C   0  0  1  0  0  3  0  0  0  0  0  0
  162.1090  205.9760  147.4080 C   0  0  0  0  0  3  0  0  0  0  0  0
  161.7820  208.0290  148.6660 C   0  0  0  0  0  0  0  0  0  0  0  0
  160.8460  205.8510  149.5120 C   0  0  0  0  0  0  0  0  0  0  0  0
  160.0070  205.0600  150.4640 C   0  0  0  0  0  2  0  0  0  0  0  0
  160.5540  202.2140  149.9380 N   0  0  0  0  0  2  0  0  0  0  0  0
  161.9380  202.2570  151.8180 O   0  0  0  0  0  0  0  0  0  0  0  0
  160.8480  204.2450  151.3300 N   0  0  0  0  0  2  0  0  0  0  0  0
  161.1500  202.8770  151.0560 C   0  0  0  0  0  0  0  0  0  0  0  0
  160.8000  200.8110  149.6340 C   0  0  0  0  0  2  0  0  0  0  0  0
  161.4050  200.6650  148.2470 C   0  0  0  0  0  2  0  0  0  0  0  0
  160.8780  201.6340  147.3930 O   0  0  0  0  0  1  0  0  0  0  0  0
  162.3190  207.3750  151.2470 S   0  0  0  0  0  0  0  0  0  0  0  0
  161.0030  207.9390  152.3660 C   0  0  0  0  0  2  0  0  0  0  0  0
  161.3470  209.3110  152.9200 C   0  0  0  0  0  2  0  0  0  0  0  0
  160.5690  209.5800  154.1990 C   0  0  1  0  0  3  0  0  0  0  0  0
  162.3040  210.7000  155.3670 O   0  0  0  0  0  0  0  0  0  0  0  0
  161.4970  209.7350  155.3690 C   0  0  0  0  0  0  0  0  0  0  0  0
  160.6680  207.7100  156.5420 C   0  0  0  0  0  1  0  0  0  0  0  0
  161.5000  208.8570  156.4610 O   0  0  0  0  0  0  0  0  0  0  0  0
  159.6540  210.7890  154.0390 C   0  0  0  0  0  2  0  0  0  0  0  0
  158.6880  210.8990  155.2070 C   0  0  0  0  0  1  0  0  0  0  0  0
  157.2880  211.6010  154.7440 C   0  0  0  0  0  1  0  0  0  0  0  0
  157.3080  211.0560  155.2240 O   0  0  0  0  0  0  0  0  0  0  0  0
  156.0820  211.0460  155.5140 C   0  0  0  0  0  2  0  0  0  0  0  0
  155.2000  210.1520  154.9230 O   0  0  0  0  0  1  0  0  0  0  0  0
  1  6  1  0  0  0  0
  2  7  2  0  0  0  0
  4 16  1  1  0  0  0
  5  1  2  0  0  0  0
  5  2  1  0  0  0  0
  6  3  2  0  0  0  0
  6  4  1  0  0  0  0
  7  4  1  0  0  0  0
  7  8  1  0  0  0  0
  8 11  1  0  0  0  0
  9 12  1  0  0  0  0
 12 11  1  0  0  0  0
 12 10  2  0  0  0  0
 13  9  1  0  0  0  0
 14 13  1  0  0  0  0
 15 14  1  0  0  0  0
 16 17  1  0  0  0  0
 17 18  1  0  0  0  0
 19 18  1  6  0  0  0
 19 21  1  0  0  0  0
 20 21  2  0  0  0  0
 21 23  1  0  0  0  0
 23 22  1  0  0  0  0
 24 19  1  0  0  0  0
 24 25  1  0  0  0  0
 26 27  1  0  0  0  0
 27 28  1  0  0  0  0
 29 28  1  0  0  0  0
M  END
>  <MODEL>
6

>  <REMARK>
 VINA RESULT:      -5.8      2.259      3.189
  Name = 
  14 active torsions:
  status: ('A' for Active; 'I' for Inactive)
    1  A    between atoms: C_2  and  C_13
    2  A    between atoms: C_2  and  C_17
    3  A    between atoms: C_6  and  C_11
    4  A    between atoms: C_7  and  N_24
    5  A    between atoms: C_7  and  C_26
    6  A    between atoms: N_9  and  C_11
    7  A    between atoms: C_10  and  C_19
    8  A    between atoms: C_10  and  C_25
    9  A    between atoms: C_10  and  C_29
   10  A    between atoms: C_15  and  S_28
   11  A    between atoms: C_17  and  C_25
   12  A    between atoms: C_18  and  S_28
   13  A    between atoms: C_18  and  C_29
   14  A    between atoms: C_19  and  O_23
                            x       y       z     vdW  Elec       q    Type
                         _______ _______ _______ _____ _____    ______ ____

>  <TORSDO>
F 14

$$$$
=
 OpenBabel11052409563D

 29 29  0  0  1  0  0  0  0  0999 V2000
  161.3710  206.9080  154.8390 C   0  0  0  0  0  3  0  0  0  0  0  0
  160.7740  209.2540  154.5140 C   0  0  0  0  0  3  0  0  0  0  0  0
  161.0890  205.4870  152.9750 O   0  0  0  0  0  0  0  0  0  0  0  0
  160.8660  207.8200  152.4750 C   0  0  1  0  0  3  0  0  0  0  0  0
  161.2300  208.1300  155.3490 C   0  0  0  0  0  3  0  0  0  0  0  0
  161.0970  206.6660  153.4150 C   0  0  0  0  0  0  0  0  0  0  0  0
  160.5660  209.1160  153.1990 C   0  0  0  0  0  0  0  0  0  0  0  0
  160.0580  210.2900  152.4240 C   0  0  0  0  0  2  0  0  0  0  0  0
  157.9120  211.7920  153.7720 N   0  0  0  0  0  2  0  0  0  0  0  0
  159.5700  213.2640  154.5080 O   0  0  0  0  0  0  0  0  0  0  0  0
  160.3000  211.5270  153.1540 N   0  0  0  0  0  2  0  0  0  0  0  0
  159.2700  212.2360  153.8440 C   0  0  0  0  0  0  0  0  0  0  0  0
  156.8190  212.4980  154.4260 C   0  0  0  0  0  2  0  0  0  0  0  0
  156.2200  213.5360  153.4910 C   0  0  0  0  0  2  0  0  0  0  0  0
  155.0830  214.0990  154.0710 O   0  0  0  0  0  1  0  0  0  0  0  0
  162.3270  208.0230  151.4090 S   0  0  0  0  0  0  0  0  0  0  0  0
  161.3610  207.6930  149.9060 C   0  0  0  0  0  2  0  0  0  0  0  0
  160.7720  206.2940  149.9660 C   0  0  0  0  0  2  0  0  0  0  0  0
  161.3280  205.4330  148.8420 C   0  0  1  0  0  3  0  0  0  0  0  0
  160.9440  203.1860  148.1840 O   0  0  0  0  0  0  0  0  0  0  0  0
  161.1490  203.9740  149.1440 C   0  0  0  0  0  0  0  0  0  0  0  0
  160.8810  202.1050  150.7560 C   0  0  0  0  0  1  0  0  0  0  0  0
  161.2050  203.4520  150.4430 O   0  0  0  0  0  0  0  0  0  0  0  0
  160.7070  205.8140  147.5020 C   0  0  0  0  0  2  0  0  0  0  0  0
  161.7810  206.1430  146.4780 C   0  0  0  0  0  2  0  0  0  0  0  0
  161.3770  205.5700  145.0030 C   0  0  0  0  0  2  0  0  0  0  0  0
  161.5090  205.1980  144.3920 O   0  0  0  0  0  0  0  0  0  0  0  0
  161.5600  204.0490  144.9060 C   0  0  0  0  0  2  0  0  0  0  0  0
  160.4680  203.1920  144.8860 O   0  0  0  0  0  1  0  0  0  0  0  0
  1  5  2  0  0  0  0
  2  5  1  0  0  0  0
  3  6  2  0  0  0  0
  4 16  1  1  0  0  0
  4  7  1  0  0  0  0
  4  6  1  0  0  0  0
  6  1  1  0  0  0  0
  7  2  2  0  0  0  0
  8 11  1  0  0  0  0
  8  7  1  0  0  0  0
  9 12  1  0  0  0  0
  9 13  1  0  0  0  0
 11 12  1  0  0  0  0
 12 10  2  0  0  0  0
 14 15  1  0  0  0  0
 14 13  1  0  0  0  0
 17 18  1  0  0  0  0
 17 16  1  0  0  0  0
 19 24  1  6  0  0  0
 19 21  1  0  0  0  0
 19 18  1  0  0  0  0
 20 21  2  0  0  0  0
 21 23  1  0  0  0  0
 23 22  1  0  0  0  0
 25 24  1  0  0  0  0
 26 25  1  0  0  0  0
 27 28  1  0  0  0  0
 27 26  1  0  0  0  0
 29 28  1  0  0  0  0
M  END
>  <MODEL>
7

>  <REMARK>
 VINA RESULT:      -5.7      3.008      9.111
  Name = 
  14 active torsions:
  status: ('A' for Active; 'I' for Inactive)
    1  A    between atoms: C_2  and  C_13
    2  A    between atoms: C_2  and  C_17
    3  A    between atoms: C_6  and  C_11
    4  A    between atoms: C_7  and  N_24
    5  A    between atoms: C_7  and  C_26
    6  A    between atoms: N_9  and  C_11
    7  A    between atoms: C_10  and  C_19
    8  A    between atoms: C_10  and  C_25
    9  A    between atoms: C_10  and  C_29
   10  A    between atoms: C_15  and  S_28
   11  A    between atoms: C_17  and  C_25
   12  A    between atoms: C_18  and  S_28
   13  A    between atoms: C_18  and  C_29
   14  A    between atoms: C_19  and  O_23
                            x       y       z     vdW  Elec       q    Type
                         _______ _______ _______ _____ _____    ______ ____

>  <TORSDO>
F 14

$$$$
=
 OpenBabel11052409563D

 29 29  0  0  1  0  0  0  0  0999 V2000
  162.3190  207.3250  147.5090 C   0  0  0  0  0  3  0  0  0  0  0  0
  161.3470  205.2930  148.4540 C   0  0  0  0  0  3  0  0  0  0  0  0
  161.8700  209.3350  148.6630 O   0  0  0  0  0  0  0  0  0  0  0  0
  161.2270  207.3550  149.8500 C   0  0  1  0  0  3  0  0  0  0  0  0
  162.1140  206.0110  147.4230 C   0  0  0  0  0  3  0  0  0  0  0  0
  161.8010  208.0780  148.6600 C   0  0  0  0  0  0  0  0  0  0  0  0
  160.9000  205.9060  149.5560 C   0  0  0  0  0  0  0  0  0  0  0  0
  160.0880  205.1220  150.5370 C   0  0  0  0  0  2  0  0  0  0  0  0
  160.3630  202.2590  149.8980 N   0  0  0  0  0  2  0  0  0  0  0  0
  161.9150  202.1430  151.6390 O   0  0  0  0  0  0  0  0  0  0  0  0
  160.9400  204.2210  151.3010 N   0  0  0  0  0  2  0  0  0  0  0  0
  161.1100  202.8430  150.9690 C   0  0  0  0  0  0  0  0  0  0  0  0
  160.4700  200.8510  149.5400 C   0  0  0  0  0  2  0  0  0  0  0  0
  161.2750  200.6870  148.2620 C   0  0  0  0  0  2  0  0  0  0  0  0
  160.8710  201.6330  147.3200 O   0  0  0  0  0  1  0  0  0  0  0  0
  162.4010  207.4620  151.2370 S   0  0  0  0  0  0  0  0  0  0  0  0
  161.1100  208.0480  152.3740 C   0  0  0  0  0  2  0  0  0  0  0  0
  161.3110  209.5250  152.6680 C   0  0  0  0  0  2  0  0  0  0  0  0
  160.3140  210.0000  153.7150 C   0  0  1  0  0  3  0  0  0  0  0  0
  160.7670  211.6060  155.4010 O   0  0  0  0  0  0  0  0  0  0  0  0
  161.0190  210.4550  154.9600 C   0  0  0  0  0  0  0  0  0  0  0  0
  161.5760  208.4550  156.3220 C   0  0  0  0  0  1  0  0  0  0  0  0
  161.9370  209.6540  155.6520 O   0  0  0  0  0  0  0  0  0  0  0  0
  159.4050  211.0860  153.1510 C   0  0  0  0  0  2  0  0  0  0  0  0
  160.1130  211.8800  152.0650 C   0  0  0  0  0  2  0  0  0  0  0  0
  159.1000  212.9570  151.3730 C   0  0  0  0  0  2  0  0  0  0  0  0
  158.7950  213.5000  150.9960 O   0  0  0  0  0  0  0  0  0  0  0  0
  159.8050  213.8130  150.3120 C   0  0  0  0  0  2  0  0  0  0  0  0
  159.9790  213.3510  149.0140 O   0  0  0  0  0  1  0  0  0  0  0  0
  1  6  1  0  0  0  0
  2  7  2  0  0  0  0
  4 16  1  1  0  0  0
  5  1  2  0  0  0  0
  5  2  1  0  0  0  0
  6  3  2  0  0  0  0
  6  4  1  0  0  0  0
  7  4  1  0  0  0  0
  7  8  1  0  0  0  0
  8 11  1  0  0  0  0
  9 12  1  0  0  0  0
 12 11  1  0  0  0  0
 12 10  2  0  0  0  0
 13  9  1  0  0  0  0
 14 13  1  0  0  0  0
 15 14  1  0  0  0  0
 16 17  1  0  0  0  0
 17 18  1  0  0  0  0
 19 18  1  6  0  0  0
 19 21  1  0  0  0  0
 21 20  2  0  0  0  0
 21 23  1  0  0  0  0
 23 22  1  0  0  0  0
 24 19  1  0  0  0  0
 25 24  1  0  0  0  0
 26 25  1  0  0  0  0
 27 26  1  0  0  0  0
 28 27  1  0  0  0  0
 29 28  1  0  0  0  0
M  END
>  <MODEL>
8

>  <REMARK>
 VINA RESULT:      -5.6      2.595      3.619
  Name = 
  14 active torsions:
  status: ('A' for Active; 'I' for Inactive)
    1  A    between atoms: C_2  and  C_13
    2  A    between atoms: C_2  and  C_17
    3  A    between atoms: C_6  and  C_11
    4  A    between atoms: C_7  and  N_24
    5  A    between atoms: C_7  and  C_26
    6  A    between atoms: N_9  and  C_11
    7  A    between atoms: C_10  and  C_19
    8  A    between atoms: C_10  and  C_25
    9  A    between atoms: C_10  and  C_29
   10  A    between atoms: C_15  and  S_28
   11  A    between atoms: C_17  and  C_25
   12  A    between atoms: C_18  and  S_28
   13  A    between atoms: C_18  and  C_29
   14  A    between atoms: C_19  and  O_23
                            x       y       z     vdW  Elec       q    Type
                         _______ _______ _______ _____ _____    ______ ____

>  <TORSDO>
F 14

$$$$
=
 OpenBabel11052409563D

 29 29  0  0  1  0  0  0  0  0999 V2000
  161.8830  209.8230  150.4180 C   0  0  0  0  0  3  0  0  0  0  0  0
  161.4590  208.9110  152.6440 C   0  0  0  0  0  3  0  0  0  0  0  0
  162.6650  208.3010  148.7920 O   0  0  0  0  0  0  0  0  0  0  0  0
  161.9000  207.2710  150.8170 C   0  0  1  0  0  3  0  0  0  0  0  0
  161.5270  210.0270  151.6860 C   0  0  0  0  0  3  0  0  0  0  0  0
  162.1890  208.4650  149.9460 C   0  0  0  0  0  0  0  0  0  0  0  0
  161.6670  207.6440  152.2670 C   0  0  0  0  0  0  0  0  0  0  0  0
  161.6270  206.5680  153.3040 C   0  0  0  0  0  2  0  0  0  0  0  0
  161.7320  207.8840  155.9380 N   0  0  0  0  0  2  0  0  0  0  0  0
  159.4250  207.5480  156.0640 O   0  0  0  0  0  0  0  0  0  0  0  0
  160.4560  206.7230  154.1560 N   0  0  0  0  0  2  0  0  0  0  0  0
  160.4930  207.3980  155.4140 C   0  0  0  0  0  0  0  0  0  0  0  0
  161.8330  208.5460  157.2320 C   0  0  0  0  0  2  0  0  0  0  0  0
  162.1130  210.0290  157.0500 C   0  0  0  0  0  2  0  0  0  0  0  0
  161.3870  210.5210  155.9650 O   0  0  0  0  0  1  0  0  0  0  0  0
  160.4530  206.3870  150.1570 S   0  0  0  0  0  0  0  0  0  0  0  0
  161.4990  205.1900  149.2780 C   0  0  0  0  0  2  0  0  0  0  0  0
  161.4990  205.4960  147.7900 C   0  0  0  0  0  2  0  0  0  0  0  0
  161.4050  204.2110  146.9810 C   0  0  1  0  0  3  0  0  0  0  0  0
  163.3250  204.0440  145.5980 O   0  0  0  0  0  0  0  0  0  0  0  0
  162.1070  204.3550  145.6630 C   0  0  0  0  0  0  0  0  0  0  0  0
  160.4760  205.8290  144.5090 C   0  0  0  0  0  1  0  0  0  0  0  0
  161.4670  204.8120  144.5030 O   0  0  0  0  0  0  0  0  0  0  0  0
  161.9340  203.0230  147.7780 C   0  0  0  0  0  2  0  0  0  0  0  0
  160.9930  201.8340  147.6720 C   0  0  0  0  0  2  0  0  0  0  0  0
  160.0580  201.7090  149.0060 C   0  0  0  0  0  2  0  0  0  0  0  0
  159.7970  201.3730  149.5960 O   0  0  0  0  0  0  0  0  0  0  0  0
  160.8740  201.3260  150.2470 C   0  0  0  0  0  2  0  0  0  0  0  0
  161.1760  202.2630  151.2270 O   0  0  0  0  0  1  0  0  0  0  0  0
  1  5  2  0  0  0  0
  3  6  2  0  0  0  0
  4 16  1  6  0  0  0
  4  7  1  0  0  0  0
  5  2  1  0  0  0  0
  6  1  1  0  0  0  0
  6  4  1  0  0  0  0
  7  2  2  0  0  0  0
  7  8  1  0  0  0  0
  8 11  1  0  0  0  0
  9 13  1  0  0  0  0
 11 12  1  0  0  0  0
 12  9  1  0  0  0  0
 12 10  2  0  0  0  0
 14 13  1  0  0  0  0
 15 14  1  0  0  0  0
 17 16  1  0  0  0  0
 18 17  1  0  0  0  0
 19 24  1  1  0  0  0
 19 18  1  0  0  0  0
 20 21  2  0  0  0  0
 21 19  1  0  0  0  0
 23 22  1  0  0  0  0
 23 21  1  0  0  0  0
 25 24  1  0  0  0  0
 25 26  1  0  0  0  0
 26 27  1  0  0  0  0
 27 28  1  0  0  0  0
 28 29  1  0  0  0  0
M  END
>  <MODEL>
9

>  <REMARK>
 VINA RESULT:      -5.5      3.235      9.255
  Name = 
  14 active torsions:
  status: ('A' for Active; 'I' for Inactive)
    1  A    between atoms: C_2  and  C_13
    2  A    between atoms: C_2  and  C_17
    3  A    between atoms: C_6  and  C_11
    4  A    between atoms: C_7  and  N_24
    5  A    between atoms: C_7  and  C_26
    6  A    between atoms: N_9  and  C_11
    7  A    between atoms: C_10  and  C_19
    8  A    between atoms: C_10  and  C_25
    9  A    between atoms: C_10  and  C_29
   10  A    between atoms: C_15  and  S_28
   11  A    between atoms: C_17  and  C_25
   12  A    between atoms: C_18  and  S_28
   13  A    between atoms: C_18  and  C_29
   14  A    between atoms: C_19  and  O_23
                            x       y       z     vdW  Elec       q    Type
                         _______ _______ _______ _____ _____    ______ ____

>  <TORSDO>
F 14

$$$$
