=
 OpenBabel11042422493D

 38 40  0  0  1  0  0  0  0  0999 V2000
  160.9920  207.6990  153.6810 C   0  0  0  0  0  2  0  0  0  0  0  0
  161.4040  208.4350  151.3700 C   0  0  0  0  0  3  0  0  0  0  0  0
  161.4770  207.4520  152.2770 C   0  0  0  0  0  0  0  0  0  0  0  0
  161.1220  210.1360  153.1390 C   0  0  0  0  0  0  0  0  0  0  0  0
  160.8350  209.7870  151.7030 C   0  0  1  0  0  3  0  0  0  0  0  0
  161.2730  209.0780  154.1020 N   0  0  0  0  0  0  0  0  0  0  0  0
  161.1790  211.3430  153.4990 O   0  0  0  0  0  0  0  0  0  0  0  0
  160.1150  210.9370  157.2590 O   0  0  0  0  0  0  0  0  0  0  0  0
  160.6050  208.2890  157.2270 N   0  0  0  0  0  0  0  0  0  0  0  0
  158.8070  209.5500  155.6110 O   0  0  0  0  0  0  0  0  0  0  0  0
  159.7210  207.1880  156.8740 C   0  0  0  0  0  1  0  0  0  0  0  0
  160.0840  209.7090  156.3920 S   0  0  0  0  0  0  0  0  0  0  0  0
  161.5660  209.4150  155.5000 C   0  0  1  0  0  3  0  0  0  0  0  0
  161.8020  208.1730  156.3780 C   0  0  0  0  0  2  0  0  0  0  0  0
  163.2790  205.9930  151.6300 N   0  0  0  0  0  2  0  0  0  0  0  0
  161.1570  204.9900  151.8930 N   0  0  0  0  0  2  0  0  0  0  0  0
  162.0220  206.1310  151.9150 C   0  0  0  0  0  0  0  0  0  0  0  0
  161.6390  203.6990  151.6320 N   0  0  0  0  0  2  0  0  0  0  0  0
  160.6100  203.0000  150.8760 C   0  0  0  0  0  2  0  0  0  0  0  0
  161.3050  204.3380  148.8810 C   0  0  0  0  0  3  0  0  0  0  0  0
  160.7570  202.0010  148.5910 C   0  0  0  0  0  3  0  0  0  0  0  0
  161.5720  204.4230  147.5120 C   0  0  0  0  0  0  0  0  0  0  0  0
  160.8860  203.1180  149.4190 C   0  0  0  0  0  0  0  0  0  0  0  0
  160.9060  200.9480  146.3310 C   0  0  0  0  0  1  0  0  0  0  0  0
  161.0400  202.1250  147.2280 C   0  0  0  0  0  0  0  0  0  0  0  0
  161.4390  203.3230  146.7210 N   0  0  0  0  0  0  0  0  0  0  0  0
  162.0320  205.7110  146.9240 C   0  0  0  0  0  2  0  0  0  0  0  0
  162.3130  205.5320  145.5090 N   0  0  0  0  0  1  0  0  0  0  0  0
  161.9260  209.2810  149.1040 O   0  0  0  0  0  0  0  0  0  0  0  0
  161.3950  210.7920  150.8090 N   0  0  0  0  0  2  0  0  0  0  0  0
  161.9460  210.4670  149.5310 C   0  0  0  0  0  0  0  0  0  0  0  0
  162.5190  211.5450  148.6820 C   0  0  0  0  0  2  0  0  0  0  0  0
  161.6340  211.8000  147.5500 N   0  0  0  0  0  2  0  0  0  0  0  0
  161.4300  213.2380  147.3760 C   0  0  2  0  0  3  0  0  0  0  0  0
  161.8420  213.9420  148.5130 O   0  0  0  0  0  1  0  0  0  0  0  0
  159.9780  213.5570  147.0300 C   0  0  0  0  0  2  0  0  0  0  0  0
  158.0130  212.9640  145.6100 C   0  0  0  0  0  1  0  0  0  0  0  0
  159.4580  212.6330  145.9400 C   0  0  0  0  0  2  0  0  0  0  0  0
  1  6  1  0  0  0  0
  2  5  1  0  0  0  0
  2  3  2  0  0  0  0
  3  1  1  0  0  0  0
  4  7  2  0  0  0  0
  4  6  1  0  0  0  0
  5 30  1  6  0  0  0
  5  4  1  0  0  0  0
 10 12  2  0  0  0  0
 11  9  1  0  0  0  0
 12  9  1  0  0  0  0
 12  8  2  0  0  0  0
 13  6  1  6  0  0  0
 13 14  1  0  0  0  0
 13 12  1  0  0  0  0
 14  9  1  0  0  0  0
 15 17  2  0  0  0  0
 16 17  1  0  0  0  0
 17  3  1  0  0  0  0
 18 16  1  0  0  0  0
 19 18  1  0  0  0  0
 20 23  1  0  0  0  0
 21 23  2  0  0  0  0
 22 20  2  0  0  0  0
 23 19  1  0  0  0  0
 24 25  1  0  0  0  0
 25 21  1  0  0  0  0
 26 25  2  0  0  0  0
 26 22  1  0  0  0  0
 27 22  1  0  0  0  0
 28 27  1  0  0  0  0
 29 31  2  0  0  0  0
 31 30  1  0  0  0  0
 32 31  1  0  0  0  0
 33 32  1  0  0  0  0
 34 33  1  0  0  0  0
 34 35  1  1  0  0  0
 36 34  1  0  0  0  0
 37 38  1  0  0  0  0
 38 36  1  0  0  0  0
M  END
>  <MODEL>
1

>  <REMARK>
 VINA RESULT:      -7.4      0.000      0.000
  Name = 
  12 active torsions:
  status: ('A' for Active; 'I' for Inactive)
    1  A    between atoms: C_1  and  C_22
    2  A    between atoms: C_6  and  N_18
    3  A    between atoms: C_6  and  C_37
    4  A    between atoms: C_9  and  C_30
    5  A    between atoms: C_10  and  N_18
    6  A    between atoms: C_10  and  C_19
    7  A    between atoms: N_16  and  N_26
    8  A    between atoms: C_19  and  C_32
    9  A    between atoms: C_21  and  N_35
   10  A    between atoms: C_24  and  C_36
   11  A    between atoms: N_25  and  C_29
   12  A    between atoms: N_26  and  C_36
                            x       y       z     vdW  Elec       q    Type
                         _______ _______ _______ _____ _____    ______ ____

>  <TORSDO>
F 12

$$$$
=
 OpenBabel11042422493D

 38 40  0  0  1  0  0  0  0  0999 V2000
  161.6000  209.0750  148.6070 C   0  0  0  0  0  2  0  0  0  0  0  0
  161.9500  210.6360  150.4760 C   0  0  0  0  0  3  0  0  0  0  0  0
  161.9360  210.4380  149.1510 C   0  0  0  0  0  0  0  0  0  0  0  0
  162.0690  208.2060  150.9030 C   0  0  0  0  0  0  0  0  0  0  0  0
  161.6250  209.5360  151.4500 C   0  0  1  0  0  3  0  0  0  0  0  0
  162.1240  208.0150  149.4790 N   0  0  0  0  0  0  0  0  0  0  0  0
  162.3400  207.2570  151.6880 O   0  0  0  0  0  0  0  0  0  0  0  0
  161.5250  204.2220  149.3580 O   0  0  0  0  0  0  0  0  0  0  0  0
  161.5550  205.7610  147.1480 N   0  0  0  0  0  0  0  0  0  0  0  0
  159.8870  206.1340  149.2730 O   0  0  0  0  0  0  0  0  0  0  0  0
  160.4740  206.5140  146.5300 C   0  0  0  0  0  1  0  0  0  0  0  0
  161.2240  205.5990  148.8360 S   0  0  0  0  0  0  0  0  0  0  0  0
  162.5680  206.7220  148.9440 C   0  0  1  0  0  3  0  0  0  0  0  0
  162.6520  206.7080  147.4070 C   0  0  0  0  0  2  0  0  0  0  0  0
  163.3990  212.1180  148.2410 N   0  0  0  0  0  2  0  0  0  0  0  0
  161.2490  211.9640  147.2770 N   0  0  0  0  0  2  0  0  0  0  0  0
  162.2400  211.5400  148.2200 C   0  0  0  0  0  0  0  0  0  0  0  0
  161.5130  212.9540  146.3190 N   0  0  0  0  0  2  0  0  0  0  0  0
  160.2290  213.4230  145.8200 C   0  0  0  0  0  2  0  0  0  0  0  0
  159.1220  213.8430  143.6170 C   0  0  0  0  0  3  0  0  0  0  0  0
  161.2170  212.6360  143.6640 C   0  0  0  0  0  3  0  0  0  0  0  0
  159.1050  213.7160  142.2260 C   0  0  0  0  0  0  0  0  0  0  0  0
  160.1830  213.2890  144.3390 C   0  0  0  0  0  0  0  0  0  0  0  0
  162.2570  211.8450  141.5360 C   0  0  0  0  0  1  0  0  0  0  0  0
  161.1670  212.5370  142.2710 C   0  0  0  0  0  0  0  0  0  0  0  0
  160.1210  213.0760  141.5860 N   0  0  0  0  0  0  0  0  0  0  0  0
  157.9900  214.3120  141.4400 C   0  0  0  0  0  2  0  0  0  0  0  0
  157.4350  213.3140  140.5410 N   0  0  0  0  0  1  0  0  0  0  0  0
  160.3780  210.7690  153.7140 O   0  0  0  0  0  0  0  0  0  0  0  0
  162.2680  209.8060  152.7300 N   0  0  0  0  0  2  0  0  0  0  0  0
  161.5920  210.4470  153.8130 C   0  0  0  0  0  0  0  0  0  0  0  0
  162.3210  210.7070  155.0830 C   0  0  0  0  0  2  0  0  0  0  0  0
  161.3640  210.9880  156.1490 N   0  0  0  0  0  2  0  0  0  0  0  0
  161.5520  210.0560  157.2610 C   0  0  2  0  0  3  0  0  0  0  0  0
  162.8480  209.5270  157.2560 O   0  0  0  0  0  1  0  0  0  0  0  0
  160.5060  208.9440  157.2380 C   0  0  0  0  0  2  0  0  0  0  0  0
  160.1860  207.3180  155.3720 C   0  0  0  0  0  1  0  0  0  0  0  0
  161.0490  207.6940  156.5630 C   0  0  0  0  0  2  0  0  0  0  0  0
  1  3  1  0  0  0  0
  1  6  1  0  0  0  0
  2  5  1  0  0  0  0
  3  2  2  0  0  0  0
  4  5  1  0  0  0  0
  4  7  2  0  0  0  0
  5 30  1  1  0  0  0
  6  4  1  0  0  0  0
  9 14  1  0  0  0  0
  9 12  1  0  0  0  0
 11  9  1  0  0  0  0
 12 13  1  0  0  0  0
 12 10  2  0  0  0  0
 12  8  2  0  0  0  0
 13 14  1  6  0  0  0
 13  6  1  0  0  0  0
 16 17  1  0  0  0  0
 17 15  2  0  0  0  0
 17  3  1  0  0  0  0
 18 16  1  0  0  0  0
 19 18  1  0  0  0  0
 20 23  1  0  0  0  0
 21 23  2  0  0  0  0
 22 20  2  0  0  0  0
 23 19  1  0  0  0  0
 24 25  1  0  0  0  0
 25 21  1  0  0  0  0
 26 22  1  0  0  0  0
 26 25  2  0  0  0  0
 27 22  1  0  0  0  0
 28 27  1  0  0  0  0
 29 31  2  0  0  0  0
 30 31  1  0  0  0  0
 31 32  1  0  0  0  0
 32 33  1  0  0  0  0
 33 34  1  0  0  0  0
 34 35  1  6  0  0  0
 36 34  1  0  0  0  0
 37 38  1  0  0  0  0
 38 36  1  0  0  0  0
M  END
>  <MODEL>
2

>  <REMARK>
 VINA RESULT:      -6.5      3.249      8.908
  Name = 
  12 active torsions:
  status: ('A' for Active; 'I' for Inactive)
    1  A    between atoms: C_1  and  C_22
    2  A    between atoms: C_6  and  N_18
    3  A    between atoms: C_6  and  C_37
    4  A    between atoms: C_9  and  C_30
    5  A    between atoms: C_10  and  N_18
    6  A    between atoms: C_10  and  C_19
    7  A    between atoms: N_16  and  N_26
    8  A    between atoms: C_19  and  C_32
    9  A    between atoms: C_21  and  N_35
   10  A    between atoms: C_24  and  C_36
   11  A    between atoms: N_25  and  C_29
   12  A    between atoms: N_26  and  C_36
                            x       y       z     vdW  Elec       q    Type
                         _______ _______ _______ _____ _____    ______ ____

>  <TORSDO>
F 12

$$$$
=
 OpenBabel11042422493D

 38 40  0  0  1  0  0  0  0  0999 V2000
  161.8980  211.2660  150.2680 C   0  0  0  0  0  2  0  0  0  0  0  0
  160.6500  210.0990  152.0380 C   0  0  0  0  0  3  0  0  0  0  0  0
  161.3780  210.0110  150.9170 C   0  0  0  0  0  0  0  0  0  0  0  0
  160.2150  212.4980  151.6460 C   0  0  0  0  0  0  0  0  0  0  0  0
  160.3440  211.4200  152.6880 C   0  0  1  0  0  3  0  0  0  0  0  0
  160.9400  212.3700  150.4100 N   0  0  0  0  0  0  0  0  0  0  0  0
  159.5200  213.5250  151.8770 O   0  0  0  0  0  0  0  0  0  0  0  0
  162.7060  214.4530  147.7070 O   0  0  0  0  0  0  0  0  0  0  0  0
  160.5660  212.9040  147.1830 N   0  0  0  0  0  0  0  0  0  0  0  0
  162.9010  212.0040  148.2650 O   0  0  0  0  0  0  0  0  0  0  0  0
  160.5070  211.4900  146.8450 C   0  0  0  0  0  1  0  0  0  0  0  0
  161.9930  213.1940  148.1140 S   0  0  0  0  0  0  0  0  0  0  0  0
  160.8060  213.4150  149.3870 C   0  0  1  0  0  3  0  0  0  0  0  0
  159.7030  213.1060  148.3580 C   0  0  0  0  0  2  0  0  0  0  0  0
  161.9280  208.6010  149.0450 N   0  0  0  0  0  2  0  0  0  0  0  0
  161.7060  207.5300  151.1380 N   0  0  0  0  0  2  0  0  0  0  0  0
  161.6780  208.7000  150.3130 C   0  0  0  0  0  0  0  0  0  0  0  0
  162.0630  206.2720  150.6290 N   0  0  0  0  0  2  0  0  0  0  0  0
  160.8330  205.5140  150.4580 C   0  0  0  0  0  2  0  0  0  0  0  0
  161.3590  204.9490  148.0790 C   0  0  0  0  0  3  0  0  0  0  0  0
  160.8250  203.1610  149.6160 C   0  0  0  0  0  3  0  0  0  0  0  0
  161.5220  204.0000  147.0660 C   0  0  0  0  0  0  0  0  0  0  0  0
  160.9990  204.5230  149.3610 C   0  0  0  0  0  0  0  0  0  0  0  0
  160.8220  200.7900  148.8320 C   0  0  0  0  0  1  0  0  0  0  0  0
  161.0040  202.2430  148.5780 C   0  0  0  0  0  0  0  0  0  0  0  0
  161.3480  202.6770  147.3350 N   0  0  0  0  0  0  0  0  0  0  0  0
  161.9200  204.4350  145.6990 C   0  0  0  0  0  2  0  0  0  0  0  0
  162.3330  205.8280  145.7270 N   0  0  0  0  0  1  0  0  0  0  0  0
  160.0480  212.1720  155.4360 O   0  0  0  0  0  0  0  0  0  0  0  0
  159.1180  211.3130  153.4690 N   0  0  0  0  0  2  0  0  0  0  0  0
  159.0460  211.6850  154.8470 C   0  0  0  0  0  0  0  0  0  0  0  0
  157.7640  211.5280  155.5840 C   0  0  0  0  0  2  0  0  0  0  0  0
  157.2120  212.8440  155.8940 N   0  0  0  0  0  2  0  0  0  0  0  0
  155.8960  213.0020  155.2740 C   0  0  2  0  0  3  0  0  0  0  0  0
  155.6340  211.9550  154.3830 O   0  0  0  0  0  1  0  0  0  0  0  0
  155.7670  214.3560  154.5800 C   0  0  0  0  0  2  0  0  0  0  0  0
  155.7270  214.4530  152.0870 C   0  0  0  0  0  1  0  0  0  0  0  0
  154.8930  214.2570  153.3400 C   0  0  0  0  0  2  0  0  0  0  0  0
  1  6  1  0  0  0  0
  1  3  1  0  0  0  0
  2  5  1  0  0  0  0
  3  2  2  0  0  0  0
  4  7  2  0  0  0  0
  4  5  1  0  0  0  0
  5 30  1  6  0  0  0
  6  4  1  0  0  0  0
  8 12  2  0  0  0  0
  9 12  1  0  0  0  0
  9 14  1  0  0  0  0
 11  9  1  0  0  0  0
 12 10  2  0  0  0  0
 12 13  1  0  0  0  0
 13 14  1  6  0  0  0
 13  6  1  0  0  0  0
 15 17  2  0  0  0  0
 17  3  1  0  0  0  0
 17 16  1  0  0  0  0
 18 16  1  0  0  0  0
 19 18  1  0  0  0  0
 20 23  1  0  0  0  0
 22 26  1  0  0  0  0
 22 20  2  0  0  0  0
 23 21  2  0  0  0  0
 23 19  1  0  0  0  0
 25 24  1  0  0  0  0
 25 21  1  0  0  0  0
 26 25  2  0  0  0  0
 27 28  1  0  0  0  0
 27 22  1  0  0  0  0
 30 31  1  0  0  0  0
 31 29  2  0  0  0  0
 31 32  1  0  0  0  0
 32 33  1  0  0  0  0
 34 35  1  6  0  0  0
 34 33  1  0  0  0  0
 36 34  1  0  0  0  0
 37 38  1  0  0  0  0
 38 36  1  0  0  0  0
M  END
>  <MODEL>
3

>  <REMARK>
 VINA RESULT:      -6.4      3.405      6.167
  Name = 
  12 active torsions:
  status: ('A' for Active; 'I' for Inactive)
    1  A    between atoms: C_1  and  C_22
    2  A    between atoms: C_6  and  N_18
    3  A    between atoms: C_6  and  C_37
    4  A    between atoms: C_9  and  C_30
    5  A    between atoms: C_10  and  N_18
    6  A    between atoms: C_10  and  C_19
    7  A    between atoms: N_16  and  N_26
    8  A    between atoms: C_19  and  C_32
    9  A    between atoms: C_21  and  N_35
   10  A    between atoms: C_24  and  C_36
   11  A    between atoms: N_25  and  C_29
   12  A    between atoms: N_26  and  C_36
                            x       y       z     vdW  Elec       q    Type
                         _______ _______ _______ _____ _____    ______ ____

>  <TORSDO>
F 12

$$$$
=
 OpenBabel11042422493D

 38 40  0  0  1  0  0  0  0  0999 V2000
  160.8430  207.9180  153.6980 C   0  0  0  0  0  2  0  0  0  0  0  0
  161.2290  208.5930  151.3640 C   0  0  0  0  0  3  0  0  0  0  0  0
  161.2830  207.6250  152.2880 C   0  0  0  0  0  0  0  0  0  0  0  0
  161.0600  210.3370  153.1050 C   0  0  0  0  0  0  0  0  0  0  0  0
  160.7240  209.9740  151.6840 C   0  0  1  0  0  3  0  0  0  0  0  0
  161.1910  209.2920  154.0850 N   0  0  0  0  0  0  0  0  0  0  0  0
  161.1750  211.5470  153.4410 O   0  0  0  0  0  0  0  0  0  0  0  0
  160.1460  211.1900  157.2580 O   0  0  0  0  0  0  0  0  0  0  0  0
  160.6240  208.5400  157.2390 N   0  0  0  0  0  0  0  0  0  0  0  0
  158.7790  209.7920  155.6700 O   0  0  0  0  0  0  0  0  0  0  0  0
  159.7240  207.4390  156.9280 C   0  0  0  0  0  1  0  0  0  0  0  0
  160.0810  209.9530  156.4070 S   0  0  0  0  0  0  0  0  0  0  0  0
  161.5310  209.6430  155.4690 C   0  0  1  0  0  3  0  0  0  0  0  0
  161.7910  208.4090  156.3530 C   0  0  0  0  0  2  0  0  0  0  0  0
  163.0230  206.0630  151.7190 N   0  0  0  0  0  2  0  0  0  0  0  0
  160.8330  205.1910  151.8600 N   0  0  0  0  0  2  0  0  0  0  0  0
  161.7650  206.2760  151.9400 C   0  0  0  0  0  0  0  0  0  0  0  0
  161.2490  203.8740  151.6100 N   0  0  0  0  0  2  0  0  0  0  0  0
  160.2360  203.2570  150.7670 C   0  0  0  0  0  2  0  0  0  0  0  0
  160.6560  201.9930  148.6510 C   0  0  0  0  0  3  0  0  0  0  0  0
  161.2040  204.3460  148.7370 C   0  0  0  0  0  3  0  0  0  0  0  0
  161.1020  201.9600  147.3270 C   0  0  0  0  0  0  0  0  0  0  0  0
  160.7170  203.1950  149.3610 C   0  0  0  0  0  0  0  0  0  0  0  0
  162.1560  205.4880  146.7310 C   0  0  0  0  0  1  0  0  0  0  0  0
  161.6340  204.2740  147.4100 C   0  0  0  0  0  0  0  0  0  0  0  0
  161.5740  203.0930  146.7370 N   0  0  0  0  0  0  0  0  0  0  0  0
  161.0310  200.6920  146.5510 C   0  0  0  0  0  2  0  0  0  0  0  0
  161.8420  199.6740  147.1970 N   0  0  0  0  0  1  0  0  0  0  0  0
  159.4570  212.3730  150.7680 O   0  0  0  0  0  0  0  0  0  0  0  0
  161.3030  210.9370  150.7570 N   0  0  0  0  0  2  0  0  0  0  0  0
  160.6050  212.1060  150.3220 C   0  0  0  0  0  0  0  0  0  0  0  0
  161.2540  213.0340  149.3580 C   0  0  0  0  0  2  0  0  0  0  0  0
  160.2350  213.8360  148.6880 N   0  0  0  0  0  2  0  0  0  0  0  0
  160.0920  213.4140  147.2940 C   0  0  2  0  0  3  0  0  0  0  0  0
  159.0630  212.4750  147.1590 O   0  0  0  0  0  1  0  0  0  0  0  0
  161.4060  212.8710  146.7390 C   0  0  0  0  0  2  0  0  0  0  0  0
  162.1840  213.2070  144.3920 C   0  0  0  0  0  1  0  0  0  0  0  0
  162.0340  213.8490  145.7590 C   0  0  0  0  0  2  0  0  0  0  0  0
  1  6  1  0  0  0  0
  2  5  1  0  0  0  0
  2  3  2  0  0  0  0
  3  1  1  0  0  0  0
  4  7  2  0  0  0  0
  4  6  1  0  0  0  0
  5 30  1  6  0  0  0
  5  4  1  0  0  0  0
 10 12  2  0  0  0  0
 11  9  1  0  0  0  0
 12  9  1  0  0  0  0
 12  8  2  0  0  0  0
 13  6  1  6  0  0  0
 13 14  1  0  0  0  0
 13 12  1  0  0  0  0
 14  9  1  0  0  0  0
 15 17  2  0  0  0  0
 16 17  1  0  0  0  0
 17  3  1  0  0  0  0
 18 16  1  0  0  0  0
 19 18  1  0  0  0  0
 20 23  1  0  0  0  0
 21 23  2  0  0  0  0
 22 20  2  0  0  0  0
 23 19  1  0  0  0  0
 24 25  1  0  0  0  0
 25 21  1  0  0  0  0
 26 22  1  0  0  0  0
 26 25  2  0  0  0  0
 27 28  1  0  0  0  0
 27 22  1  0  0  0  0
 31 30  1  0  0  0  0
 31 29  2  0  0  0  0
 32 31  1  0  0  0  0
 33 32  1  0  0  0  0
 34 35  1  1  0  0  0
 34 33  1  0  0  0  0
 36 34  1  0  0  0  0
 37 38  1  0  0  0  0
 38 36  1  0  0  0  0
M  END
>  <MODEL>
4

>  <REMARK>
 VINA RESULT:      -6.4      1.347      2.231
  Name = 
  12 active torsions:
  status: ('A' for Active; 'I' for Inactive)
    1  A    between atoms: C_1  and  C_22
    2  A    between atoms: C_6  and  N_18
    3  A    between atoms: C_6  and  C_37
    4  A    between atoms: C_9  and  C_30
    5  A    between atoms: C_10  and  N_18
    6  A    between atoms: C_10  and  C_19
    7  A    between atoms: N_16  and  N_26
    8  A    between atoms: C_19  and  C_32
    9  A    between atoms: C_21  and  N_35
   10  A    between atoms: C_24  and  C_36
   11  A    between atoms: N_25  and  C_29
   12  A    between atoms: N_26  and  C_36
                            x       y       z     vdW  Elec       q    Type
                         _______ _______ _______ _____ _____    ______ ____

>  <TORSDO>
F 12

$$$$
=
 OpenBabel11042422493D

 38 40  0  0  1  0  0  0  0  0999 V2000
  161.9640  211.9060  149.7960 C   0  0  0  0  0  2  0  0  0  0  0  0
  160.4940  210.9690  151.5320 C   0  0  0  0  0  3  0  0  0  0  0  0
  161.3870  210.7430  150.5600 C   0  0  0  0  0  0  0  0  0  0  0  0
  160.0550  213.2480  150.6910 C   0  0  0  0  0  0  0  0  0  0  0  0
  160.0540  212.3580  151.9040 C   0  0  1  0  0  3  0  0  0  0  0  0
  160.9630  212.9650  149.6120 N   0  0  0  0  0  0  0  0  0  0  0  0
  159.3030  214.2600  150.6450 O   0  0  0  0  0  0  0  0  0  0  0  0
  161.7330  213.2480  145.8580 O   0  0  0  0  0  0  0  0  0  0  0  0
  159.2870  213.7200  146.8810 N   0  0  0  0  0  0  0  0  0  0  0  0
  160.6600  211.3810  147.1660 O   0  0  0  0  0  0  0  0  0  0  0  0
  158.2040  212.7890  147.1580 C   0  0  0  0  0  1  0  0  0  0  0  0
  160.7880  212.8670  146.9630 S   0  0  0  0  0  0  0  0  0  0  0  0
  160.9570  213.8250  148.4220 C   0  0  1  0  0  3  0  0  0  0  0  0
  159.5740  214.4370  148.1350 C   0  0  0  0  0  2  0  0  0  0  0  0
  162.1580  209.0610  149.0200 N   0  0  0  0  0  2  0  0  0  0  0  0
  161.8630  208.3780  151.2610 N   0  0  0  0  0  2  0  0  0  0  0  0
  161.8150  209.3710  150.2300 C   0  0  0  0  0  0  0  0  0  0  0  0
  162.3360  207.0800  151.0190 N   0  0  0  0  0  2  0  0  0  0  0  0
  161.2380  206.1650  151.2910 C   0  0  0  0  0  2  0  0  0  0  0  0
  161.4250  205.4630  148.8970 C   0  0  0  0  0  3  0  0  0  0  0  0
  160.8920  203.7980  150.5670 C   0  0  0  0  0  3  0  0  0  0  0  0
  161.3720  204.4680  147.9180 C   0  0  0  0  0  0  0  0  0  0  0  0
  161.1730  205.1240  150.2300 C   0  0  0  0  0  0  0  0  0  0  0  0
  160.5550  201.4150  149.9000 C   0  0  0  0  0  1  0  0  0  0  0  0
  160.8540  202.8300  149.5600 C   0  0  0  0  0  0  0  0  0  0  0  0
  161.0940  203.1820  148.2670 N   0  0  0  0  0  0  0  0  0  0  0  0
  161.6510  204.8090  146.4970 C   0  0  0  0  0  2  0  0  0  0  0  0
  161.6060  203.6050  145.6850 N   0  0  0  0  0  1  0  0  0  0  0  0
  159.2550  213.7240  154.2910 O   0  0  0  0  0  0  0  0  0  0  0  0
  158.7270  212.3100  152.5040 N   0  0  0  0  0  2  0  0  0  0  0  0
  158.4020  212.9990  153.7130 C   0  0  0  0  0  0  0  0  0  0  0  0
  157.0300  212.8870  154.2770 C   0  0  0  0  0  2  0  0  0  0  0  0
  156.9350  211.6850  155.1000 N   0  0  0  0  0  2  0  0  0  0  0  0
  156.9480  212.0390  156.5200 C   0  0  2  0  0  3  0  0  0  0  0  0
  156.6400  213.3930  156.7010 O   0  0  0  0  0  1  0  0  0  0  0  0
  158.2860  211.6910  157.1680 C   0  0  0  0  0  2  0  0  0  0  0  0
  160.5420  210.9900  156.3650 C   0  0  0  0  0  1  0  0  0  0  0  0
  159.0550  210.6830  156.3290 C   0  0  0  0  0  2  0  0  0  0  0  0
  1  3  1  0  0  0  0
  2  5  1  0  0  0  0
  3  2  2  0  0  0  0
  4  5  1  0  0  0  0
  5 30  1  6  0  0  0
  6  1  1  0  0  0  0
  6  4  1  0  0  0  0
  7  4  2  0  0  0  0
  8 12  2  0  0  0  0
  9 12  1  0  0  0  0
  9 11  1  0  0  0  0
  9 14  1  0  0  0  0
 12 10  2  0  0  0  0
 12 13  1  0  0  0  0
 13 14  1  1  0  0  0
 13  6  1  0  0  0  0
 15 17  2  0  0  0  0
 17  3  1  0  0  0  0
 17 16  1  0  0  0  0
 18 16  1  0  0  0  0
 18 19  1  0  0  0  0
 20 23  1  0  0  0  0
 22 26  1  0  0  0  0
 22 20  2  0  0  0  0
 23 21  2  0  0  0  0
 23 19  1  0  0  0  0
 25 24  1  0  0  0  0
 25 21  1  0  0  0  0
 26 25  2  0  0  0  0
 27 22  1  0  0  0  0
 28 27  1  0  0  0  0
 30 31  1  0  0  0  0
 31 32  1  0  0  0  0
 31 29  2  0  0  0  0
 32 33  1  0  0  0  0
 33 34  1  0  0  0  0
 34 35  1  6  0  0  0
 34 36  1  0  0  0  0
 38 37  1  0  0  0  0
 38 36  1  0  0  0  0
M  END
>  <MODEL>
5

>  <REMARK>
 VINA RESULT:      -6.4      3.138      6.875
  Name = 
  12 active torsions:
  status: ('A' for Active; 'I' for Inactive)
    1  A    between atoms: C_1  and  C_22
    2  A    between atoms: C_6  and  N_18
    3  A    between atoms: C_6  and  C_37
    4  A    between atoms: C_9  and  C_30
    5  A    between atoms: C_10  and  N_18
    6  A    between atoms: C_10  and  C_19
    7  A    between atoms: N_16  and  N_26
    8  A    between atoms: C_19  and  C_32
    9  A    between atoms: C_21  and  N_35
   10  A    between atoms: C_24  and  C_36
   11  A    between atoms: N_25  and  C_29
   12  A    between atoms: N_26  and  C_36
                            x       y       z     vdW  Elec       q    Type
                         _______ _______ _______ _____ _____    ______ ____

>  <TORSDO>
F 12

$$$$
=
 OpenBabel11042422493D

 38 40  0  0  1  0  0  0  0  0999 V2000
  159.2360  213.3010  153.6580 C   0  0  0  0  0  2  0  0  0  0  0  0
  159.8980  211.4860  152.1350 C   0  0  0  0  0  3  0  0  0  0  0  0
  159.3980  212.7200  152.2780 C   0  0  0  0  0  0  0  0  0  0  0  0
  159.4580  210.9600  154.5070 C   0  0  0  0  0  0  0  0  0  0  0  0
  160.3240  210.6560  153.3150 C   0  0  1  0  0  3  0  0  0  0  0  0
  158.8590  212.2630  154.6270 N   0  0  0  0  0  0  0  0  0  0  0  0
  159.3020  210.0990  155.4150 O   0  0  0  0  0  0  0  0  0  0  0  0
  155.8580  214.2520  155.9680 O   0  0  0  0  0  0  0  0  0  0  0  0
  155.9760  211.5630  156.0530 N   0  0  0  0  0  0  0  0  0  0  0  0
  156.1690  213.0510  153.7760 O   0  0  0  0  0  0  0  0  0  0  0  0
  155.5910  210.5870  155.0440 C   0  0  0  0  0  1  0  0  0  0  0  0
  156.3990  213.0400  155.2630 S   0  0  0  0  0  0  0  0  0  0  0  0
  158.0040  212.5580  155.7830 C   0  0  1  0  0  3  0  0  0  0  0  0
  157.3800  211.2940  156.4030 C   0  0  0  0  0  2  0  0  0  0  0  0
  159.7840  214.4530  150.6530 N   0  0  0  0  0  2  0  0  0  0  0  0
  157.7650  213.2460  150.4420 N   0  0  0  0  0  2  0  0  0  0  0  0
  159.0070  213.5180  151.1010 C   0  0  0  0  0  0  0  0  0  0  0  0
  157.3820  213.9220  149.2740 N   0  0  0  0  0  2  0  0  0  0  0  0
  157.2320  212.9210  148.2280 C   0  0  0  0  0  2  0  0  0  0  0  0
  159.6180  212.9460  147.4770 C   0  0  0  0  0  3  0  0  0  0  0  0
  157.8820  213.4800  145.8810 C   0  0  0  0  0  3  0  0  0  0  0  0
  160.5700  213.1350  146.4730 C   0  0  0  0  0  0  0  0  0  0  0  0
  158.2650  213.1300  147.1780 C   0  0  0  0  0  0  0  0  0  0  0  0
  158.4750  214.0270  143.5170 C   0  0  0  0  0  1  0  0  0  0  0  0
  158.8640  213.6530  144.9020 C   0  0  0  0  0  0  0  0  0  0  0  0
  160.1770  213.4770  145.2150 N   0  0  0  0  0  0  0  0  0  0  0  0
  162.0140  212.9300  146.7700 C   0  0  0  0  0  2  0  0  0  0  0  0
  162.2670  213.1880  148.1780 N   0  0  0  0  0  1  0  0  0  0  0  0
  162.3480  209.1650  151.9440 O   0  0  0  0  0  0  0  0  0  0  0  0
  160.2500  209.2410  152.9750 N   0  0  0  0  0  2  0  0  0  0  0  0
  161.2890  208.5620  152.2670 C   0  0  0  0  0  0  0  0  0  0  0  0
  161.1330  207.1200  151.9380 C   0  0  0  0  0  2  0  0  0  0  0  0
  161.8760  206.8130  150.7190 N   0  0  0  0  0  2  0  0  0  0  0  0
  161.1410  205.8440  149.9050 C   0  0  2  0  0  3  0  0  0  0  0  0
  160.2120  206.4880  149.0800 O   0  0  0  0  0  1  0  0  0  0  0  0
  160.4620  204.7890  150.7750 C   0  0  0  0  0  2  0  0  0  0  0  0
  160.7670  202.6900  149.4590 C   0  0  0  0  0  1  0  0  0  0  0  0
  161.1950  203.4590  150.6970 C   0  0  0  0  0  2  0  0  0  0  0  0
  1  6  1  0  0  0  0
  2  3  2  0  0  0  0
  2  5  1  0  0  0  0
  3  1  1  0  0  0  0
  4  6  1  0  0  0  0
  4  7  2  0  0  0  0
  5 30  1  6  0  0  0
  5  4  1  0  0  0  0
  9 14  1  0  0  0  0
 10 12  2  0  0  0  0
 11  9  1  0  0  0  0
 12 13  1  0  0  0  0
 12  8  2  0  0  0  0
 12  9  1  0  0  0  0
 13  6  1  6  0  0  0
 13 14  1  0  0  0  0
 15 17  2  0  0  0  0
 16 17  1  0  0  0  0
 17  3  1  0  0  0  0
 18 16  1  0  0  0  0
 19 18  1  0  0  0  0
 21 23  2  0  0  0  0
 22 27  1  0  0  0  0
 22 20  2  0  0  0  0
 23 20  1  0  0  0  0
 23 19  1  0  0  0  0
 24 25  1  0  0  0  0
 25 26  2  0  0  0  0
 25 21  1  0  0  0  0
 26 22  1  0  0  0  0
 27 28  1  0  0  0  0
 29 31  2  0  0  0  0
 31 30  1  0  0  0  0
 32 31  1  0  0  0  0
 33 32  1  0  0  0  0
 34 35  1  1  0  0  0
 34 33  1  0  0  0  0
 34 36  1  0  0  0  0
 37 38  1  0  0  0  0
 38 36  1  0  0  0  0
M  END
>  <MODEL>
6

>  <REMARK>
 VINA RESULT:      -6.2      3.185      7.777
  Name = 
  12 active torsions:
  status: ('A' for Active; 'I' for Inactive)
    1  A    between atoms: C_1  and  C_22
    2  A    between atoms: C_6  and  N_18
    3  A    between atoms: C_6  and  C_37
    4  A    between atoms: C_9  and  C_30
    5  A    between atoms: C_10  and  N_18
    6  A    between atoms: C_10  and  C_19
    7  A    between atoms: N_16  and  N_26
    8  A    between atoms: C_19  and  C_32
    9  A    between atoms: C_21  and  N_35
   10  A    between atoms: C_24  and  C_36
   11  A    between atoms: N_25  and  C_29
   12  A    between atoms: N_26  and  C_36
                            x       y       z     vdW  Elec       q    Type
                         _______ _______ _______ _____ _____    ______ ____

>  <TORSDO>
F 12

$$$$
=
 OpenBabel11042422493D

 38 40  0  0  1  0  0  0  0  0999 V2000
  161.6790  211.9700  149.8140 C   0  0  0  0  0  2  0  0  0  0  0  0
  160.6550  210.6290  151.6050 C   0  0  0  0  0  3  0  0  0  0  0  0
  161.3370  210.6490  150.4520 C   0  0  0  0  0  0  0  0  0  0  0  0
  159.9270  212.9680  151.2920 C   0  0  0  0  0  0  0  0  0  0  0  0
  160.2270  211.8920  152.3000 C   0  0  1  0  0  3  0  0  0  0  0  0
  160.6050  212.9500  150.0230 N   0  0  0  0  0  0  0  0  0  0  0  0
  159.1280  213.9010  151.5780 O   0  0  0  0  0  0  0  0  0  0  0  0
  160.9880  214.1160  146.3820 O   0  0  0  0  0  0  0  0  0  0  0  0
  158.5890  213.7760  147.5560 N   0  0  0  0  0  0  0  0  0  0  0  0
  160.4860  211.8320  147.3180 O   0  0  0  0  0  0  0  0  0  0  0  0
  157.7770  212.5740  147.6720 C   0  0  0  0  0  1  0  0  0  0  0  0
  160.2480  213.3150  147.4160 S   0  0  0  0  0  0  0  0  0  0  0  0
  160.3050  213.9920  149.0330 C   0  0  1  0  0  3  0  0  0  0  0  0
  158.7990  214.2910  148.9190 C   0  0  0  0  0  2  0  0  0  0  0  0
  162.3290  209.4160  148.6390 N   0  0  0  0  0  2  0  0  0  0  0  0
  161.5540  208.1460  150.4740 N   0  0  0  0  0  2  0  0  0  0  0  0
  161.7610  209.3940  149.8030 C   0  0  0  0  0  0  0  0  0  0  0  0
  162.0080  206.9320  149.9360 N   0  0  0  0  0  2  0  0  0  0  0  0
  160.8830  206.0100  149.9480 C   0  0  0  0  0  2  0  0  0  0  0  0
  160.8930  203.6120  149.2370 C   0  0  0  0  0  3  0  0  0  0  0  0
  161.4240  205.3190  147.6080 C   0  0  0  0  0  3  0  0  0  0  0  0
  161.0720  202.6420  148.2470 C   0  0  0  0  0  0  0  0  0  0  0  0
  161.0810  204.9590  148.9140 C   0  0  0  0  0  0  0  0  0  0  0  0
  161.9540  204.6840  145.2520 C   0  0  0  0  0  1  0  0  0  0  0  0
  161.5870  204.3200  146.6450 C   0  0  0  0  0  0  0  0  0  0  0  0
  161.4080  203.0130  146.9810 N   0  0  0  0  0  0  0  0  0  0  0  0
  160.8630  201.2050  148.5700 C   0  0  0  0  0  2  0  0  0  0  0  0
  161.1660  200.9660  149.9710 N   0  0  0  0  0  1  0  0  0  0  0  0
  160.2630  211.3950  155.1200 O   0  0  0  0  0  0  0  0  0  0  0  0
  159.0580  211.6260  153.1290 N   0  0  0  0  0  2  0  0  0  0  0  0
  159.1500  211.3620  154.5310 C   0  0  0  0  0  0  0  0  0  0  0  0
  157.9140  211.0790  155.3080 C   0  0  0  0  0  2  0  0  0  0  0  0
  156.7950  211.8220  154.7370 N   0  0  0  0  0  2  0  0  0  0  0  0
  156.3700  212.8830  155.6500 C   0  0  2  0  0  3  0  0  0  0  0  0
  155.5440  212.3740  156.6590 O   0  0  0  0  0  1  0  0  0  0  0  0
  155.6800  214.0200  154.9000 C   0  0  0  0  0  2  0  0  0  0  0  0
  155.2050  214.1980  152.4570 C   0  0  0  0  0  1  0  0  0  0  0  0
  156.2890  214.2160  153.5210 C   0  0  0  0  0  2  0  0  0  0  0  0
  1  6  1  0  0  0  0
  1  3  1  0  0  0  0
  2  5  1  0  0  0  0
  3  2  2  0  0  0  0
  4  7  2  0  0  0  0
  4  5  1  0  0  0  0
  5 30  1  6  0  0  0
  6  4  1  0  0  0  0
  8 12  2  0  0  0  0
  9 11  1  0  0  0  0
  9 14  1  0  0  0  0
 10 12  2  0  0  0  0
 12  9  1  0  0  0  0
 12 13  1  0  0  0  0
 13 14  1  1  0  0  0
 13  6  1  0  0  0  0
 15 17  2  0  0  0  0
 17  3  1  0  0  0  0
 17 16  1  0  0  0  0
 18 19  1  0  0  0  0
 18 16  1  0  0  0  0
 21 23  2  0  0  0  0
 22 27  1  0  0  0  0
 22 20  2  0  0  0  0
 23 20  1  0  0  0  0
 23 19  1  0  0  0  0
 24 25  1  0  0  0  0
 25 26  2  0  0  0  0
 25 21  1  0  0  0  0
 26 22  1  0  0  0  0
 27 28  1  0  0  0  0
 30 31  1  0  0  0  0
 31 29  2  0  0  0  0
 31 32  1  0  0  0  0
 33 32  1  0  0  0  0
 33 34  1  0  0  0  0
 34 35  1  1  0  0  0
 36 34  1  0  0  0  0
 37 38  1  0  0  0  0
 38 36  1  0  0  0  0
M  END
>  <MODEL>
7

>  <REMARK>
 VINA RESULT:      -6.1      3.553      6.586
  Name = 
  12 active torsions:
  status: ('A' for Active; 'I' for Inactive)
    1  A    between atoms: C_1  and  C_22
    2  A    between atoms: C_6  and  N_18
    3  A    between atoms: C_6  and  C_37
    4  A    between atoms: C_9  and  C_30
    5  A    between atoms: C_10  and  N_18
    6  A    between atoms: C_10  and  C_19
    7  A    between atoms: N_16  and  N_26
    8  A    between atoms: C_19  and  C_32
    9  A    between atoms: C_21  and  N_35
   10  A    between atoms: C_24  and  C_36
   11  A    between atoms: N_25  and  C_29
   12  A    between atoms: N_26  and  C_36
                            x       y       z     vdW  Elec       q    Type
                         _______ _______ _______ _____ _____    ______ ____

>  <TORSDO>
F 12

$$$$
=
 OpenBabel11042422493D

 38 40  0  0  1  0  0  0  0  0999 V2000
  161.7700  205.5540  150.5520 C   0  0  0  0  0  2  0  0  0  0  0  0
  161.0960  205.1330  152.8810 C   0  0  0  0  0  3  0  0  0  0  0  0
  161.3190  204.6350  151.6570 C   0  0  0  0  0  0  0  0  0  0  0  0
  160.9760  207.4350  151.9940 C   0  0  0  0  0  0  0  0  0  0  0  0
  161.2970  206.5890  153.1980 C   0  0  1  0  0  3  0  0  0  0  0  0
  161.1460  206.8770  150.6790 N   0  0  0  0  0  0  0  0  0  0  0  0
  160.6130  208.6340  152.1400 O   0  0  0  0  0  0  0  0  0  0  0  0
  162.3290  209.6190  148.2610 O   0  0  0  0  0  0  0  0  0  0  0  0
  161.5910  207.1660  147.4300 N   0  0  0  0  0  0  0  0  0  0  0  0
  163.5730  207.6580  149.2370 O   0  0  0  0  0  0  0  0  0  0  0  0
  162.3810  205.9490  147.3210 C   0  0  0  0  0  1  0  0  0  0  0  0
  162.2830  208.1690  148.6550 S   0  0  0  0  0  0  0  0  0  0  0  0
  160.8220  207.6960  149.5040 C   0  0  1  0  0  3  0  0  0  0  0  0
  160.4290  206.8530  148.2780 C   0  0  0  0  0  2  0  0  0  0  0  0
  161.3500  202.3180  152.3060 N   0  0  0  0  0  2  0  0  0  0  0  0
  160.6970  202.7780  150.0830 N   0  0  0  0  0  2  0  0  0  0  0  0
  161.1330  203.1990  151.3810 C   0  0  0  0  0  0  0  0  0  0  0  0
  160.4300  201.4320  149.7910 N   0  0  0  0  0  2  0  0  0  0  0  0
  161.5760  200.9170  149.0570 C   0  0  0  0  0  2  0  0  0  0  0  0
  160.7660  201.8440  146.8790 C   0  0  0  0  0  3  0  0  0  0  0  0
  161.3730  199.5060  147.0030 C   0  0  0  0  0  3  0  0  0  0  0  0
  160.4510  201.6680  145.5300 C   0  0  0  0  0  0  0  0  0  0  0  0
  161.2220  200.7500  147.6210 C   0  0  0  0  0  0  0  0  0  0  0  0
  161.2080  198.0580  144.9760 C   0  0  0  0  0  1  0  0  0  0  0  0
  161.0540  199.3730  145.6500 C   0  0  0  0  0  0  0  0  0  0  0  0
  160.6050  200.4480  144.9460 N   0  0  0  0  0  0  0  0  0  0  0  0
  159.9780  202.8250  144.7210 C   0  0  0  0  0  2  0  0  0  0  0  0
  160.8560  203.9640  144.9330 N   0  0  0  0  0  1  0  0  0  0  0  0
  162.0020  208.4700  155.2390 O   0  0  0  0  0  0  0  0  0  0  0  0
  160.4580  206.9670  154.3280 N   0  0  0  0  0  2  0  0  0  0  0  0
  160.8820  207.8970  155.3260 C   0  0  0  0  0  0  0  0  0  0  0  0
  159.9780  208.2190  156.4630 C   0  0  0  0  0  2  0  0  0  0  0  0
  159.8620  209.6670  156.6020 N   0  0  0  0  0  2  0  0  0  0  0  0
  159.3150  210.2540  155.3780 C   0  0  2  0  0  3  0  0  0  0  0  0
  160.1140  211.3110  154.9290 O   0  0  0  0  0  1  0  0  0  0  0  0
  157.8690  210.7050  155.5750 C   0  0  0  0  0  2  0  0  0  0  0  0
  156.0910  212.2360  154.7270 C   0  0  0  0  0  1  0  0  0  0  0  0
  157.5860  211.9880  154.8100 C   0  0  0  0  0  2  0  0  0  0  0  0
  1  6  1  0  0  0  0
  1  3  1  0  0  0  0
  2  5  1  0  0  0  0
  3  2  2  0  0  0  0
  4  7  2  0  0  0  0
  4  5  1  0  0  0  0
  5 30  1  1  0  0  0
  6  4  1  0  0  0  0
  8 12  2  0  0  0  0
  9 14  1  0  0  0  0
  9 12  1  0  0  0  0
 11  9  1  0  0  0  0
 12 10  2  0  0  0  0
 12 13  1  0  0  0  0
 13 14  1  6  0  0  0
 13  6  1  0  0  0  0
 16 17  1  0  0  0  0
 17  3  1  0  0  0  0
 17 15  2  0  0  0  0
 18 16  1  0  0  0  0
 19 18  1  0  0  0  0
 20 23  1  0  0  0  0
 21 23  2  0  0  0  0
 22 20  2  0  0  0  0
 23 19  1  0  0  0  0
 24 25  1  0  0  0  0
 25 21  1  0  0  0  0
 26 22  1  0  0  0  0
 26 25  2  0  0  0  0
 27 28  1  0  0  0  0
 27 22  1  0  0  0  0
 29 31  2  0  0  0  0
 30 31  1  0  0  0  0
 31 32  1  0  0  0  0
 32 33  1  0  0  0  0
 34 35  1  1  0  0  0
 34 36  1  0  0  0  0
 34 33  1  0  0  0  0
 37 38  1  0  0  0  0
 38 36  1  0  0  0  0
M  END
>  <MODEL>
8

>  <REMARK>
 VINA RESULT:      -6.1      3.258      6.117
  Name = 
  12 active torsions:
  status: ('A' for Active; 'I' for Inactive)
    1  A    between atoms: C_1  and  C_22
    2  A    between atoms: C_6  and  N_18
    3  A    between atoms: C_6  and  C_37
    4  A    between atoms: C_9  and  C_30
    5  A    between atoms: C_10  and  N_18
    6  A    between atoms: C_10  and  C_19
    7  A    between atoms: N_16  and  N_26
    8  A    between atoms: C_19  and  C_32
    9  A    between atoms: C_21  and  N_35
   10  A    between atoms: C_24  and  C_36
   11  A    between atoms: N_25  and  C_29
   12  A    between atoms: N_26  and  C_36
                            x       y       z     vdW  Elec       q    Type
                         _______ _______ _______ _____ _____    ______ ____

>  <TORSDO>
F 12

$$$$
=
 OpenBabel11042422493D

 38 40  0  0  1  0  0  0  0  0999 V2000
  161.1880  207.2970  150.0470 C   0  0  0  0  0  2  0  0  0  0  0  0
  161.5820  209.1130  148.4350 C   0  0  0  0  0  3  0  0  0  0  0  0
  161.3480  207.8110  148.6410 C   0  0  0  0  0  0  0  0  0  0  0  0
  162.2580  209.4310  150.7890 C   0  0  0  0  0  0  0  0  0  0  0  0
  161.6760  210.0960  149.5710 C   0  0  1  0  0  3  0  0  0  0  0  0
  162.0700  208.0170  150.9750 N   0  0  0  0  0  0  0  0  0  0  0  0
  162.8580  210.1180  151.6600 O   0  0  0  0  0  0  0  0  0  0  0  0
  161.9480  207.6190  154.7950 O   0  0  0  0  0  0  0  0  0  0  0  0
  161.6790  205.5390  153.1060 N   0  0  0  0  0  0  0  0  0  0  0  0
  160.0810  207.7480  153.1090 O   0  0  0  0  0  0  0  0  0  0  0  0
  160.4840  205.0240  152.4550 C   0  0  0  0  0  1  0  0  0  0  0  0
  161.4520  207.2200  153.4340 S   0  0  0  0  0  0  0  0  0  0  0  0
  162.6470  207.3650  152.1570 C   0  0  1  0  0  3  0  0  0  0  0  0
  162.6590  205.8300  152.0470 C   0  0  0  0  0  2  0  0  0  0  0  0
  160.1090  206.3140  147.2200 N   0  0  0  0  0  2  0  0  0  0  0  0
  162.3970  206.5940  146.7090 N   0  0  0  0  0  2  0  0  0  0  0  0
  161.2420  206.8740  147.5060 C   0  0  0  0  0  0  0  0  0  0  0  0
  162.3330  205.7730  145.5730 N   0  0  0  0  0  2  0  0  0  0  0  0
  163.0340  204.5390  145.8950 C   0  0  0  0  0  2  0  0  0  0  0  0
  161.8110  203.3400  147.7180 C   0  0  0  0  0  3  0  0  0  0  0  0
  161.3710  202.7350  145.4190 C   0  0  0  0  0  3  0  0  0  0  0  0
  160.8840  202.3780  148.1260 C   0  0  0  0  0  0  0  0  0  0  0  0
  162.0610  203.5110  146.3540 C   0  0  0  0  0  0  0  0  0  0  0  0
  159.7060  200.9520  144.8870 C   0  0  0  0  0  1  0  0  0  0  0  0
  160.4470  201.7880  145.8670 C   0  0  0  0  0  0  0  0  0  0  0  0
  160.2230  201.6310  147.2000 N   0  0  0  0  0  0  0  0  0  0  0  0
  160.5950  202.1930  149.5750 C   0  0  0  0  0  2  0  0  0  0  0  0
  161.2040  200.9590  150.0430 N   0  0  0  0  0  1  0  0  0  0  0  0
  160.7530  212.3600  148.0800 O   0  0  0  0  0  0  0  0  0  0  0  0
  162.4900  211.2360  149.1700 N   0  0  0  0  0  2  0  0  0  0  0  0
  161.9700  212.3240  148.4040 C   0  0  0  0  0  0  0  0  0  0  0  0
  162.8680  213.4440  148.0150 C   0  0  0  0  0  2  0  0  0  0  0  0
  162.1340  214.3960  147.1870 N   0  0  0  0  0  2  0  0  0  0  0  0
  161.9460  213.8600  145.8390 C   0  0  2  0  0  3  0  0  0  0  0  0
  163.0430  214.1580  145.0240 O   0  0  0  0  0  1  0  0  0  0  0  0
  160.6470  214.3650  145.2150 C   0  0  0  0  0  2  0  0  0  0  0  0
  159.9910  212.2040  144.1540 C   0  0  0  0  0  1  0  0  0  0  0  0
  160.3570  213.6560  143.9020 C   0  0  0  0  0  2  0  0  0  0  0  0
  1  6  1  0  0  0  0
  2  3  2  0  0  0  0
  2  5  1  0  0  0  0
  3  1  1  0  0  0  0
  4  6  1  0  0  0  0
  4  7  2  0  0  0  0
  5 30  1  6  0  0  0
  5  4  1  0  0  0  0
  9 12  1  0  0  0  0
 10 12  2  0  0  0  0
 11  9  1  0  0  0  0
 12  8  2  0  0  0  0
 13  6  1  6  0  0  0
 13 12  1  0  0  0  0
 14 13  1  0  0  0  0
 14  9  1  0  0  0  0
 15 17  2  0  0  0  0
 16 17  1  0  0  0  0
 17  3  1  0  0  0  0
 18 19  1  0  0  0  0
 18 16  1  0  0  0  0
 19 23  1  0  0  0  0
 20 22  1  0  0  0  0
 21 25  2  0  0  0  0
 21 23  1  0  0  0  0
 22 27  1  0  0  0  0
 23 20  2  0  0  0  0
 24 25  1  0  0  0  0
 25 26  1  0  0  0  0
 26 22  2  0  0  0  0
 27 28  1  0  0  0  0
 29 31  2  0  0  0  0
 31 30  1  0  0  0  0
 32 31  1  0  0  0  0
 33 32  1  0  0  0  0
 34 35  1  6  0  0  0
 34 33  1  0  0  0  0
 36 34  1  0  0  0  0
 38 37  1  0  0  0  0
 38 36  1  0  0  0  0
M  END
>  <MODEL>
9

>  <REMARK>
 VINA RESULT:      -5.9      2.514      3.748
  Name = 
  12 active torsions:
  status: ('A' for Active; 'I' for Inactive)
    1  A    between atoms: C_1  and  C_22
    2  A    between atoms: C_6  and  N_18
    3  A    between atoms: C_6  and  C_37
    4  A    between atoms: C_9  and  C_30
    5  A    between atoms: C_10  and  N_18
    6  A    between atoms: C_10  and  C_19
    7  A    between atoms: N_16  and  N_26
    8  A    between atoms: C_19  and  C_32
    9  A    between atoms: C_21  and  N_35
   10  A    between atoms: C_24  and  C_36
   11  A    between atoms: N_25  and  C_29
   12  A    between atoms: N_26  and  C_36
                            x       y       z     vdW  Elec       q    Type
                         _______ _______ _______ _____ _____    ______ ____

>  <TORSDO>
F 12

$$$$
