=
 OpenBabel11052409493D

 26 28  0  0  1  0  0  0  0  0999 V2000
  161.9570  207.7490  152.4760 C   0  0  0  0  0  2  0  0  0  0  0  0
  161.3670  209.1620  150.6000 C   0  0  2  0  0  3  0  0  0  0  0  0
  160.4200  209.7040  152.8990 C   0  0  0  0  0  0  0  0  0  0  0  0
  160.3910  209.4320  154.2970 N   0  0  0  0  0  1  0  0  0  0  0  0
  162.5810  207.1450  151.2310 C   0  0  0  0  0  2  0  0  0  0  0  0
  159.6700  210.5980  152.4270 O   0  0  0  0  0  0  0  0  0  0  0  0
  161.2880  208.9560  152.0360 N   0  0  0  0  0  0  0  0  0  0  0  0
  161.9990  207.8980  150.0410 C   0  0  1  0  0  3  0  0  0  0  0  0
  160.9360  207.0410  149.3770 C   0  0  0  0  0  2  0  0  0  0  0  0
  161.5940  206.2870  147.8580 S   0  0  0  0  0  0  0  0  0  0  0  0
  160.5060  203.2750  150.3180 C   0  0  0  0  0  3  0  0  0  0  0  0
  161.3560  203.4490  147.6350 C   0  0  0  0  0  0  0  0  0  0  0  0
  160.8100  204.5160  149.7630 C   0  0  0  0  0  3  0  0  0  0  0  0
  161.2370  204.6240  148.4340 C   0  0  0  0  0  0  0  0  0  0  0  0
  161.0470  202.2060  148.2170 C   0  0  0  0  0  0  0  0  0  0  0  0
  160.6270  202.1220  149.5460 C   0  0  0  0  0  3  0  0  0  0  0  0
  161.1570  201.0370  147.4720 O   0  0  0  0  0  1  0  0  0  0  0  0
  161.1610  203.9340  145.2630 C   0  0  0  0  0  0  0  0  0  0  0  0
  160.5660  204.4160  144.2900 O   0  0  0  0  0  0  0  0  0  0  0  0
  161.7790  203.4350  146.2570 N   0  0  0  0  0  0  0  0  0  0  0  0
  162.2770  210.3440  150.2830 C   0  0  0  0  0  2  0  0  0  0  0  0
  161.7610  211.0960  149.1520 N   0  0  0  0  0  0  0  0  0  0  0  0
  161.1000  212.2730  149.6910 C   0  0  0  0  0  2  0  0  0  0  0  0
  161.3580  213.4180  148.7360 C   0  0  0  0  0  2  0  0  0  0  0  0
  162.9050  211.6060  148.4100 C   0  0  0  0  0  2  0  0  0  0  0  0
  162.5610  212.9980  147.9280 C   0  0  0  0  0  2  0  0  0  0  0  0
  2 21  1  1  0  0  0
  2  7  1  0  0  0  0
  3  4  1  0  0  0  0
  5  1  1  0  0  0  0
  6  3  2  0  0  0  0
  7  1  1  0  0  0  0
  7  3  1  0  0  0  0
  8  9  1  1  0  0  0
  8  2  1  0  0  0  0
  8  5  1  0  0  0  0
 10 14  1  0  0  0  0
 10  9  1  0  0  0  0
 12 15  2  0  0  0  0
 12 14  1  0  0  0  0
 13 11  1  0  0  0  0
 14 13  2  0  0  0  0
 15 16  1  0  0  0  0
 16 11  2  0  0  0  0
 17 15  1  0  0  0  0
 18 20  2  0  0  0  0
 19 18  2  0  0  0  0
 20 12  1  0  0  0  0
 22 23  1  0  0  0  0
 22 21  1  0  0  0  0
 24 23  1  0  0  0  0
 25 22  1  0  0  0  0
 26 25  1  0  0  0  0
 26 24  1  0  0  0  0
M  END
>  <MODEL>
1

>  <REMARK>
 VINA RESULT:      -7.2      0.000      0.000
  Name = 
  6 active torsions:
  status: ('A' for Active; 'I' for Inactive)
    1  A    between atoms: N_2  and  C_15
    2  A    between atoms: C_4  and  S_13
    3  A    between atoms: C_4  and  C_25
    4  A    between atoms: C_5  and  N_22
    5  A    between atoms: C_10  and  C_15
    6  A    between atoms: S_13  and  C_14
                            x       y       z     vdW  Elec       q    Type
                         _______ _______ _______ _____ _____    ______ ____

>  <TORSDO>
F 6

$$$$
=
 OpenBabel11052409493D

 26 28  0  0  1  0  0  0  0  0999 V2000
  161.6280  206.3620  154.2720 C   0  0  0  0  0  2  0  0  0  0  0  0
  160.9710  208.4860  153.3140 C   0  0  2  0  0  3  0  0  0  0  0  0
  160.0420  207.8190  155.5870 C   0  0  0  0  0  0  0  0  0  0  0  0
  160.0410  206.9050  156.6790 N   0  0  0  0  0  1  0  0  0  0  0  0
  162.2500  206.4550  152.8920 C   0  0  0  0  0  2  0  0  0  0  0  0
  159.2600  208.8060  155.6060 O   0  0  0  0  0  0  0  0  0  0  0  0
  160.9180  207.6090  154.4710 N   0  0  0  0  0  0  0  0  0  0  0  0
  161.6300  207.6710  152.2130 C   0  0  1  0  0  3  0  0  0  0  0  0
  160.5810  207.2080  151.2160 C   0  0  0  0  0  2  0  0  0  0  0  0
  161.2520  207.2650  149.5270 S   0  0  0  0  0  0  0  0  0  0  0  0
  160.6000  203.3840  150.4300 C   0  0  0  0  0  3  0  0  0  0  0  0
  161.3320  204.7910  148.0990 C   0  0  0  0  0  0  0  0  0  0  0  0
  160.7410  204.7690  150.4690 C   0  0  0  0  0  3  0  0  0  0  0  0
  161.1070  205.4870  149.3250 C   0  0  0  0  0  0  0  0  0  0  0  0
  161.1880  203.3920  148.0850 C   0  0  0  0  0  0  0  0  0  0  0  0
  160.8250  202.6970  149.2400 C   0  0  0  0  0  3  0  0  0  0  0  0
  161.4040  202.6780  146.9120 O   0  0  0  0  0  1  0  0  0  0  0  0
  160.9230  205.8800  145.9670 C   0  0  0  0  0  0  0  0  0  0  0  0
  160.1680  206.3300  145.0960 O   0  0  0  0  0  0  0  0  0  0  0  0
  161.7070  205.4210  146.8580 N   0  0  0  0  0  0  0  0  0  0  0  0
  161.8420  209.7030  153.6090 C   0  0  0  0  0  2  0  0  0  0  0  0
  161.1340  210.9290  153.2790 N   0  0  0  0  0  0  0  0  0  0  0  0
  159.8780  210.5400  152.6600 C   0  0  0  0  0  2  0  0  0  0  0  0
  158.8240  211.5270  153.1100 C   0  0  0  0  0  2  0  0  0  0  0  0
  160.7620  211.5670  154.5330 C   0  0  0  0  0  2  0  0  0  0  0  0
  159.3850  212.1680  154.3550 C   0  0  0  0  0  2  0  0  0  0  0  0
  1  7  1  0  0  0  0
  2 21  1  1  0  0  0
  2  7  1  0  0  0  0
  3  6  2  0  0  0  0
  3  4  1  0  0  0  0
  5  1  1  0  0  0  0
  7  3  1  0  0  0  0
  8  9  1  6  0  0  0
  8  5  1  0  0  0  0
  8  2  1  0  0  0  0
 10  9  1  0  0  0  0
 11 13  1  0  0  0  0
 12 14  1  0  0  0  0
 14 10  1  0  0  0  0
 14 13  2  0  0  0  0
 15 12  2  0  0  0  0
 15 16  1  0  0  0  0
 16 11  2  0  0  0  0
 17 15  1  0  0  0  0
 18 20  2  0  0  0  0
 19 18  2  0  0  0  0
 20 12  1  0  0  0  0
 22 21  1  0  0  0  0
 22 25  1  0  0  0  0
 23 24  1  0  0  0  0
 23 22  1  0  0  0  0
 24 26  1  0  0  0  0
 26 25  1  0  0  0  0
M  END
>  <MODEL>
2

>  <REMARK>
 VINA RESULT:      -7.2      2.716      3.171
  Name = 
  6 active torsions:
  status: ('A' for Active; 'I' for Inactive)
    1  A    between atoms: N_2  and  C_15
    2  A    between atoms: C_4  and  S_13
    3  A    between atoms: C_4  and  C_25
    4  A    between atoms: C_5  and  N_22
    5  A    between atoms: C_10  and  C_15
    6  A    between atoms: S_13  and  C_14
                            x       y       z     vdW  Elec       q    Type
                         _______ _______ _______ _____ _____    ______ ____

>  <TORSDO>
F 6

$$$$
=
 OpenBabel11052409493D

 26 28  0  0  1  0  0  0  0  0999 V2000
  162.4310  206.2290  146.0900 C   0  0  0  0  0  2  0  0  0  0  0  0
  161.0370  204.5940  147.2080 C   0  0  2  0  0  3  0  0  0  0  0  0
  160.8420  204.8620  144.6850 C   0  0  0  0  0  0  0  0  0  0  0  0
  161.3230  205.4580  143.4850 N   0  0  0  0  0  1  0  0  0  0  0  0
  162.6870  206.3490  147.5800 C   0  0  0  0  0  2  0  0  0  0  0  0
  159.8480  204.0900  144.6360 O   0  0  0  0  0  0  0  0  0  0  0  0
  161.4750  205.1500  145.9390 N   0  0  0  0  0  0  0  0  0  0  0  0
  161.6320  205.4970  148.2770 C   0  0  1  0  0  3  0  0  0  0  0  0
  160.5540  206.4020  148.8460 C   0  0  0  0  0  2  0  0  0  0  0  0
  161.3010  207.9040  149.5500 S   0  0  0  0  0  0  0  0  0  0  0  0
  161.2290  205.2230  152.5700 C   0  0  0  0  0  3  0  0  0  0  0  0
  161.1960  208.0380  152.4020 C   0  0  0  0  0  0  0  0  0  0  0  0
  161.2680  205.8470  151.3250 C   0  0  0  0  0  3  0  0  0  0  0  0
  161.2490  207.2420  151.2190 C   0  0  0  0  0  0  0  0  0  0  0  0
  161.1540  207.3860  153.6480 C   0  0  0  0  0  0  0  0  0  0  0  0
  161.1700  205.9920  153.7290 C   0  0  0  0  0  3  0  0  0  0  0  0
  161.0960  208.1270  154.8230 O   0  0  0  0  0  1  0  0  0  0  0  0
  160.1530  210.2290  152.5150 C   0  0  0  0  0  0  0  0  0  0  0  0
  159.1630  210.9640  152.6070 O   0  0  0  0  0  0  0  0  0  0  0  0
  161.1770  209.4790  152.4200 N   0  0  0  0  0  0  0  0  0  0  0  0
  161.5950  203.1870  147.3920 C   0  0  0  0  0  2  0  0  0  0  0  0
  160.6960  202.3840  148.2040 N   0  0  0  0  0  0  0  0  0  0  0  0
  161.2790  201.0560  148.2950 C   0  0  0  0  0  2  0  0  0  0  0  0
  160.9940  200.5280  149.6830 C   0  0  0  0  0  2  0  0  0  0  0  0
  160.7400  202.9160  149.5580 C   0  0  0  0  0  2  0  0  0  0  0  0
  160.6820  201.7460  150.5160 C   0  0  0  0  0  2  0  0  0  0  0  0
  1  5  1  0  0  0  0
  2 21  1  1  0  0  0
  2  8  1  0  0  0  0
  3  7  1  0  0  0  0
  4  3  1  0  0  0  0
  5  8  1  0  0  0  0
  6  3  2  0  0  0  0
  7  1  1  0  0  0  0
  7  2  1  0  0  0  0
  8  9  1  6  0  0  0
  9 10  1  0  0  0  0
 10 14  1  0  0  0  0
 11 16  1  0  0  0  0
 12 20  1  0  0  0  0
 12 15  1  0  0  0  0
 13 11  2  0  0  0  0
 14 13  1  0  0  0  0
 14 12  2  0  0  0  0
 15 16  2  0  0  0  0
 15 17  1  0  0  0  0
 18 19  2  0  0  0  0
 20 18  2  0  0  0  0
 21 22  1  0  0  0  0
 22 23  1  0  0  0  0
 22 25  1  0  0  0  0
 23 24  1  0  0  0  0
 24 26  1  0  0  0  0
 25 26  1  0  0  0  0
M  END
>  <MODEL>
3

>  <REMARK>
 VINA RESULT:      -7.0      2.591      8.047
  Name = 
  6 active torsions:
  status: ('A' for Active; 'I' for Inactive)
    1  A    between atoms: N_2  and  C_15
    2  A    between atoms: C_4  and  S_13
    3  A    between atoms: C_4  and  C_25
    4  A    between atoms: C_5  and  N_22
    5  A    between atoms: C_10  and  C_15
    6  A    between atoms: S_13  and  C_14
                            x       y       z     vdW  Elec       q    Type
                         _______ _______ _______ _____ _____    ______ ____

>  <TORSDO>
F 6

$$$$
=
 OpenBabel11052409493D

 26 28  0  0  1  0  0  0  0  0999 V2000
  161.7620  210.2360  154.7300 C   0  0  0  0  0  2  0  0  0  0  0  0
  159.9150  210.7160  153.2400 C   0  0  2  0  0  3  0  0  0  0  0  0
  159.5100  210.7360  155.7520 C   0  0  0  0  0  0  0  0  0  0  0  0
  160.0430  210.6560  157.0700 N   0  0  0  0  0  1  0  0  0  0  0  0
  162.2630  210.0660  153.3090 C   0  0  0  0  0  2  0  0  0  0  0  0
  158.2670  210.8650  155.5950 O   0  0  0  0  0  0  0  0  0  0  0  0
  160.3810  210.6560  154.6150 N   0  0  0  0  0  0  0  0  0  0  0  0
  161.0390  210.1260  152.4030 C   0  0  1  0  0  3  0  0  0  0  0  0
  160.6700  208.7200  151.9630 C   0  0  0  0  0  2  0  0  0  0  0  0
  161.6530  208.2390  150.5100 S   0  0  0  0  0  0  0  0  0  0  0  0
  161.3160  204.7280  152.4780 C   0  0  0  0  0  3  0  0  0  0  0  0
  161.0390  205.5420  149.7930 C   0  0  0  0  0  0  0  0  0  0  0  0
  161.5060  206.0640  152.1330 C   0  0  0  0  0  3  0  0  0  0  0  0
  161.3770  206.4890  150.8050 C   0  0  0  0  0  0  0  0  0  0  0  0
  160.8560  204.1980  150.1640 C   0  0  0  0  0  0  0  0  0  0  0  0
  160.9930  203.7970  151.4950 C   0  0  0  0  0  3  0  0  0  0  0  0
  160.5320  203.2450  149.2050 O   0  0  0  0  0  1  0  0  0  0  0  0
  161.7600  205.7840  147.4860 C   0  0  0  0  0  0  0  0  0  0  0  0
  162.6150  205.7130  146.5940 O   0  0  0  0  0  0  0  0  0  0  0  0
  160.8740  205.8600  148.3960 N   0  0  0  0  0  0  0  0  0  0  0  0
  159.6980  212.1640  152.8150 C   0  0  0  0  0  2  0  0  0  0  0  0
  158.3400  212.3570  152.3340 N   0  0  0  0  0  0  0  0  0  0  0  0
  157.6770  213.2410  153.2780 C   0  0  0  0  0  2  0  0  0  0  0  0
  156.7540  214.1410  152.4870 C   0  0  0  0  0  2  0  0  0  0  0  0
  158.4220  213.1140  151.0930 C   0  0  0  0  0  2  0  0  0  0  0  0
  157.2650  214.0890  151.0690 C   0  0  0  0  0  2  0  0  0  0  0  0
  2 21  1  6  0  0  0
  2  7  1  0  0  0  0
  3  4  1  0  0  0  0
  5  1  1  0  0  0  0
  6  3  2  0  0  0  0
  7  1  1  0  0  0  0
  7  3  1  0  0  0  0
  8  9  1  1  0  0  0
  8  2  1  0  0  0  0
  8  5  1  0  0  0  0
 10 14  1  0  0  0  0
 10  9  1  0  0  0  0
 12 15  2  0  0  0  0
 12 14  1  0  0  0  0
 13 11  1  0  0  0  0
 14 13  2  0  0  0  0
 15 16  1  0  0  0  0
 16 11  2  0  0  0  0
 17 15  1  0  0  0  0
 18 20  2  0  0  0  0
 19 18  2  0  0  0  0
 20 12  1  0  0  0  0
 22 21  1  0  0  0  0
 22 23  1  0  0  0  0
 24 23  1  0  0  0  0
 25 22  1  0  0  0  0
 26 25  1  0  0  0  0
 26 24  1  0  0  0  0
M  END
>  <MODEL>
4

>  <REMARK>
 VINA RESULT:      -6.6      2.858      3.759
  Name = 
  6 active torsions:
  status: ('A' for Active; 'I' for Inactive)
    1  A    between atoms: N_2  and  C_15
    2  A    between atoms: C_4  and  S_13
    3  A    between atoms: C_4  and  C_25
    4  A    between atoms: C_5  and  N_22
    5  A    between atoms: C_10  and  C_15
    6  A    between atoms: S_13  and  C_14
                            x       y       z     vdW  Elec       q    Type
                         _______ _______ _______ _____ _____    ______ ____

>  <TORSDO>
F 6

$$$$
=
 OpenBabel11052409493D

 26 28  0  0  1  0  0  0  0  0999 V2000
  161.9870  207.6830  152.4710 C   0  0  0  0  0  2  0  0  0  0  0  0
  161.4070  209.0920  150.5900 C   0  0  2  0  0  3  0  0  0  0  0  0
  160.4860  209.6660  152.8910 C   0  0  0  0  0  0  0  0  0  0  0  0
  160.4620  209.4060  154.2910 N   0  0  0  0  0  1  0  0  0  0  0  0
  162.5910  207.0600  151.2270 C   0  0  0  0  0  2  0  0  0  0  0  0
  159.7470  210.5700  152.4180 O   0  0  0  0  0  0  0  0  0  0  0  0
  161.3350  208.8980  152.0280 N   0  0  0  0  0  0  0  0  0  0  0  0
  162.0130  207.8130  150.0350 C   0  0  1  0  0  3  0  0  0  0  0  0
  160.9310  206.9690  149.3850 C   0  0  0  0  0  2  0  0  0  0  0  0
  161.2060  205.2080  149.7480 S   0  0  0  0  0  0  0  0  0  0  0  0
  162.0330  205.6190  145.8160 C   0  0  0  0  0  3  0  0  0  0  0  0
  161.0870  203.5210  147.4450 C   0  0  0  0  0  0  0  0  0  0  0  0
  161.8570  205.8240  147.1830 C   0  0  0  0  0  3  0  0  0  0  0  0
  161.3850  204.7970  148.0090 C   0  0  0  0  0  0  0  0  0  0  0  0
  161.2690  203.3380  146.0620 C   0  0  0  0  0  0  0  0  0  0  0  0
  161.7370  204.3790  145.2570 C   0  0  0  0  0  3  0  0  0  0  0  0
  160.9840  202.1110  145.4750 O   0  0  0  0  0  1  0  0  0  0  0  0
  161.1040  201.2200  148.2220 C   0  0  0  0  0  0  0  0  0  0  0  0
  161.5860  200.0810  148.2570 O   0  0  0  0  0  0  0  0  0  0  0  0
  160.6010  202.3880  148.1930 N   0  0  0  0  0  0  0  0  0  0  0  0
  162.3340  210.2560  150.2570 C   0  0  0  0  0  2  0  0  0  0  0  0
  161.8350  210.9930  149.1080 N   0  0  0  0  0  0  0  0  0  0  0  0
  161.1870  212.1890  149.6190 C   0  0  0  0  0  2  0  0  0  0  0  0
  161.4660  213.3110  148.6450 C   0  0  0  0  0  2  0  0  0  0  0  0
  162.9910  211.4730  148.3640 C   0  0  0  0  0  2  0  0  0  0  0  0
  162.6690  212.8600  147.8530 C   0  0  0  0  0  2  0  0  0  0  0  0
  2 21  1  1  0  0  0
  2  7  1  0  0  0  0
  3  4  1  0  0  0  0
  5  1  1  0  0  0  0
  6  3  2  0  0  0  0
  7  1  1  0  0  0  0
  7  3  1  0  0  0  0
  8  9  1  1  0  0  0
  8  2  1  0  0  0  0
  8  5  1  0  0  0  0
  9 10  1  0  0  0  0
 11 13  1  0  0  0  0
 12 14  1  0  0  0  0
 12 20  1  0  0  0  0
 13 14  2  0  0  0  0
 14 10  1  0  0  0  0
 15 12  2  0  0  0  0
 16 11  2  0  0  0  0
 16 15  1  0  0  0  0
 17 15  1  0  0  0  0
 18 19  2  0  0  0  0
 20 18  2  0  0  0  0
 22 23  1  0  0  0  0
 22 21  1  0  0  0  0
 24 23  1  0  0  0  0
 25 22  1  0  0  0  0
 26 25  1  0  0  0  0
 26 24  1  0  0  0  0
M  END
>  <MODEL>
5

>  <REMARK>
 VINA RESULT:      -6.4      1.185      2.294
  Name = 
  6 active torsions:
  status: ('A' for Active; 'I' for Inactive)
    1  A    between atoms: N_2  and  C_15
    2  A    between atoms: C_4  and  S_13
    3  A    between atoms: C_4  and  C_25
    4  A    between atoms: C_5  and  N_22
    5  A    between atoms: C_10  and  C_15
    6  A    between atoms: S_13  and  C_14
                            x       y       z     vdW  Elec       q    Type
                         _______ _______ _______ _____ _____    ______ ____

>  <TORSDO>
F 6

$$$$
=
 OpenBabel11052409493D

 26 28  0  0  1  0  0  0  0  0999 V2000
  160.3610  203.4570  150.3540 C   0  0  0  0  0  2  0  0  0  0  0  0
  161.1800  205.1570  148.8370 C   0  0  2  0  0  3  0  0  0  0  0  0
  161.2060  202.7240  148.0930 C   0  0  0  0  0  0  0  0  0  0  0  0
  160.8530  201.3690  148.3530 N   0  0  0  0  0  1  0  0  0  0  0  0
  160.3150  204.7850  151.0840 C   0  0  0  0  0  2  0  0  0  0  0  0
  161.8460  203.0050  147.0450 O   0  0  0  0  0  0  0  0  0  0  0  0
  160.8460  203.7550  149.0220 N   0  0  0  0  0  0  0  0  0  0  0  0
  161.0580  205.7910  150.2130 C   0  0  1  0  0  3  0  0  0  0  0  0
  162.4400  206.0320  150.7930 C   0  0  0  0  0  2  0  0  0  0  0  0
  162.3310  206.2810  152.5920 S   0  0  0  0  0  0  0  0  0  0  0  0
  161.9520  209.9620  150.9760 C   0  0  0  0  0  3  0  0  0  0  0  0
  161.0770  208.7310  153.3570 C   0  0  0  0  0  0  0  0  0  0  0  0
  162.2680  208.6290  151.2270 C   0  0  0  0  0  3  0  0  0  0  0  0
  161.8470  208.0000  152.4040 C   0  0  0  0  0  0  0  0  0  0  0  0
  160.7730  210.0770  153.0840 C   0  0  0  0  0  0  0  0  0  0  0  0
  161.2070  210.6850  151.9040 C   0  0  0  0  0  3  0  0  0  0  0  0
  160.0290  210.8250  153.9900 O   0  0  0  0  0  1  0  0  0  0  0  0
  161.2040  208.1360  155.7080 C   0  0  0  0  0  0  0  0  0  0  0  0
  161.8000  208.0780  156.7910 O   0  0  0  0  0  0  0  0  0  0  0  0
  160.5830  208.1910  154.5990 N   0  0  0  0  0  0  0  0  0  0  0  0
  160.1760  205.8230  147.9010 C   0  0  0  0  0  2  0  0  0  0  0  0
  160.8570  206.4260  146.7680 N   0  0  0  0  0  0  0  0  0  0  0  0
  162.2400  205.9790  146.8170 C   0  0  0  0  0  2  0  0  0  0  0  0
  162.7030  205.7740  145.3930 C   0  0  0  0  0  2  0  0  0  0  0  0
  160.3050  205.8280  145.5610 C   0  0  0  0  0  2  0  0  0  0  0  0
  161.4410  205.6360  144.5790 C   0  0  0  0  0  2  0  0  0  0  0  0
  1  5  1  0  0  0  0
  2 21  1  6  0  0  0
  2  7  1  0  0  0  0
  2  8  1  0  0  0  0
  3  4  1  0  0  0  0
  3  7  1  0  0  0  0
  6  3  2  0  0  0  0
  7  1  1  0  0  0  0
  8  9  1  1  0  0  0
  8  5  1  0  0  0  0
  9 10  1  0  0  0  0
 11 13  2  0  0  0  0
 11 16  1  0  0  0  0
 12 20  1  0  0  0  0
 13 14  1  0  0  0  0
 14 10  1  0  0  0  0
 14 12  2  0  0  0  0
 15 12  1  0  0  0  0
 15 17  1  0  0  0  0
 16 15  2  0  0  0  0
 18 19  2  0  0  0  0
 20 18  2  0  0  0  0
 22 23  1  0  0  0  0
 22 21  1  0  0  0  0
 24 23  1  0  0  0  0
 25 22  1  0  0  0  0
 26 24  1  0  0  0  0
 26 25  1  0  0  0  0
M  END
>  <MODEL>
6

>  <REMARK>
 VINA RESULT:      -6.2      2.467      7.688
  Name = 
  6 active torsions:
  status: ('A' for Active; 'I' for Inactive)
    1  A    between atoms: N_2  and  C_15
    2  A    between atoms: C_4  and  S_13
    3  A    between atoms: C_4  and  C_25
    4  A    between atoms: C_5  and  N_22
    5  A    between atoms: C_10  and  C_15
    6  A    between atoms: S_13  and  C_14
                            x       y       z     vdW  Elec       q    Type
                         _______ _______ _______ _____ _____    ______ ____

>  <TORSDO>
F 6

$$$$
=
 OpenBabel11052409493D

 26 28  0  0  1  0  0  0  0  0999 V2000
  162.8260  210.3260  153.1750 C   0  0  0  0  0  2  0  0  0  0  0  0
  160.4580  209.8930  153.4420 C   0  0  2  0  0  3  0  0  0  0  0  0
  161.8730  210.3310  155.5110 C   0  0  0  0  0  0  0  0  0  0  0  0
  163.1300  210.7020  156.0680 N   0  0  0  0  0  1  0  0  0  0  0  0
  162.2590  210.0130  151.8040 C   0  0  0  0  0  2  0  0  0  0  0  0
  160.9170  210.0420  156.2790 O   0  0  0  0  0  0  0  0  0  0  0  0
  161.7020  210.2750  154.0880 N   0  0  0  0  0  0  0  0  0  0  0  0
  160.8380  209.5040  152.0220 C   0  0  1  0  0  3  0  0  0  0  0  0
  160.8190  207.9930  151.8800 C   0  0  0  0  0  2  0  0  0  0  0  0
  161.8320  207.4830  150.4570 S   0  0  0  0  0  0  0  0  0  0  0  0
  161.1990  203.9620  152.3300 C   0  0  0  0  0  3  0  0  0  0  0  0
  161.0990  204.8420  149.6530 C   0  0  0  0  0  0  0  0  0  0  0  0
  161.4820  205.2910  152.0230 C   0  0  0  0  0  3  0  0  0  0  0  0
  161.4420  205.7480  150.7000 C   0  0  0  0  0  0  0  0  0  0  0  0
  160.8200  203.5030  149.9860 C   0  0  0  0  0  0  0  0  0  0  0  0
  160.8710  203.0700  151.3120 C   0  0  0  0  0  3  0  0  0  0  0  0
  160.4880  202.5900  148.9920 O   0  0  0  0  0  1  0  0  0  0  0  0
  161.9490  205.1060  147.3930 C   0  0  0  0  0  0  0  0  0  0  0  0
  162.8470  205.0210  146.5450 O   0  0  0  0  0  0  0  0  0  0  0  0
  161.0190  205.1960  148.2570 N   0  0  0  0  0  0  0  0  0  0  0  0
  159.5040  211.0820  153.3840 C   0  0  0  0  0  2  0  0  0  0  0  0
  158.7360  211.1800  154.6140 N   0  0  0  0  0  0  0  0  0  0  0  0
  158.9140  212.5320  155.1180 C   0  0  0  0  0  2  0  0  0  0  0  0
  157.6020  212.9650  155.7340 C   0  0  0  0  0  2  0  0  0  0  0  0
  157.3280  211.0870  154.2560 C   0  0  0  0  0  2  0  0  0  0  0  0
  156.5620  212.0470  155.1400 C   0  0  0  0  0  2  0  0  0  0  0  0
  1  7  1  0  0  0  0
  2 21  1  6  0  0  0
  2  7  1  0  0  0  0
  3  4  1  0  0  0  0
  3  6  2  0  0  0  0
  5  8  1  0  0  0  0
  5  1  1  0  0  0  0
  7  3  1  0  0  0  0
  8  9  1  1  0  0  0
  8  2  1  0  0  0  0
 10 14  1  0  0  0  0
 10  9  1  0  0  0  0
 12 15  2  0  0  0  0
 12 14  1  0  0  0  0
 13 11  1  0  0  0  0
 14 13  2  0  0  0  0
 15 16  1  0  0  0  0
 16 11  2  0  0  0  0
 17 15  1  0  0  0  0
 18 20  2  0  0  0  0
 19 18  2  0  0  0  0
 20 12  1  0  0  0  0
 21 22  1  0  0  0  0
 22 23  1  0  0  0  0
 23 24  1  0  0  0  0
 25 22  1  0  0  0  0
 25 26  1  0  0  0  0
 26 24  1  0  0  0  0
M  END
>  <MODEL>
7

>  <REMARK>
 VINA RESULT:      -6.2      2.710      4.230
  Name = 
  6 active torsions:
  status: ('A' for Active; 'I' for Inactive)
    1  A    between atoms: N_2  and  C_15
    2  A    between atoms: C_4  and  S_13
    3  A    between atoms: C_4  and  C_25
    4  A    between atoms: C_5  and  N_22
    5  A    between atoms: C_10  and  C_15
    6  A    between atoms: S_13  and  C_14
                            x       y       z     vdW  Elec       q    Type
                         _______ _______ _______ _____ _____    ______ ____

>  <TORSDO>
F 6

$$$$
=
 OpenBabel11052409493D

 26 28  0  0  1  0  0  0  0  0999 V2000
  160.3830  203.5410  150.2730 C   0  0  0  0  0  2  0  0  0  0  0  0
  161.1080  205.2760  148.7470 C   0  0  2  0  0  3  0  0  0  0  0  0
  161.4040  202.8400  148.0750 C   0  0  0  0  0  0  0  0  0  0  0  0
  161.1700  201.4630  148.3570 N   0  0  0  0  0  1  0  0  0  0  0  0
  160.1740  204.8760  150.9620 C   0  0  0  0  0  2  0  0  0  0  0  0
  162.0640  203.1570  147.0500 O   0  0  0  0  0  0  0  0  0  0  0  0
  160.9020  203.8530  148.9570 N   0  0  0  0  0  0  0  0  0  0  0  0
  160.8580  205.9280  150.0980 C   0  0  1  0  0  3  0  0  0  0  0  0
  162.1810  206.3160  150.7340 C   0  0  0  0  0  2  0  0  0  0  0  0
  162.2770  208.1220  150.9320 S   0  0  0  0  0  0  0  0  0  0  0  0
  160.9470  206.6090  154.4320 C   0  0  0  0  0  3  0  0  0  0  0  0
  161.1720  209.1980  153.3370 C   0  0  0  0  0  0  0  0  0  0  0  0
  161.4700  206.7800  153.1520 C   0  0  0  0  0  3  0  0  0  0  0  0
  161.5870  208.0560  152.5880 C   0  0  0  0  0  0  0  0  0  0  0  0
  160.6420  209.0000  154.6260 C   0  0  0  0  0  0  0  0  0  0  0  0
  160.5320  207.7170  155.1660 C   0  0  0  0  0  3  0  0  0  0  0  0
  160.2210  210.0870  155.3830 O   0  0  0  0  0  1  0  0  0  0  0  0
  160.2870  211.2710  152.4320 C   0  0  0  0  0  0  0  0  0  0  0  0
  159.3590  211.9720  152.0100 O   0  0  0  0  0  0  0  0  0  0  0  0
  161.2480  210.5580  152.8660 N   0  0  0  0  0  0  0  0  0  0  0  0
  160.0910  205.8180  147.7480 C   0  0  0  0  0  2  0  0  0  0  0  0
  160.7660  206.4200  146.6100 N   0  0  0  0  0  0  0  0  0  0  0  0
  162.1690  206.0550  146.7080 C   0  0  0  0  0  2  0  0  0  0  0  0
  162.6800  205.8280  145.3020 C   0  0  0  0  0  2  0  0  0  0  0  0
  160.2790  205.7500  145.4120 C   0  0  0  0  0  2  0  0  0  0  0  0
  161.4480  205.5890  144.4650 C   0  0  0  0  0  2  0  0  0  0  0  0
  1  5  1  0  0  0  0
  2 21  1  6  0  0  0
  2  7  1  0  0  0  0
  2  8  1  0  0  0  0
  3  4  1  0  0  0  0
  3  7  1  0  0  0  0
  6  3  2  0  0  0  0
  7  1  1  0  0  0  0
  8  9  1  1  0  0  0
  8  5  1  0  0  0  0
  9 10  1  0  0  0  0
 10 14  1  0  0  0  0
 11 16  1  0  0  0  0
 12 15  1  0  0  0  0
 13 11  2  0  0  0  0
 14 13  1  0  0  0  0
 14 12  2  0  0  0  0
 15 16  2  0  0  0  0
 15 17  1  0  0  0  0
 18 20  2  0  0  0  0
 19 18  2  0  0  0  0
 20 12  1  0  0  0  0
 22 23  1  0  0  0  0
 22 21  1  0  0  0  0
 24 23  1  0  0  0  0
 25 22  1  0  0  0  0
 26 24  1  0  0  0  0
 26 25  1  0  0  0  0
M  END
>  <MODEL>
8

>  <REMARK>
 VINA RESULT:      -6.1      2.583      7.409
  Name = 
  6 active torsions:
  status: ('A' for Active; 'I' for Inactive)
    1  A    between atoms: N_2  and  C_15
    2  A    between atoms: C_4  and  S_13
    3  A    between atoms: C_4  and  C_25
    4  A    between atoms: C_5  and  N_22
    5  A    between atoms: C_10  and  C_15
    6  A    between atoms: S_13  and  C_14
                            x       y       z     vdW  Elec       q    Type
                         _______ _______ _______ _____ _____    ______ ____

>  <TORSDO>
F 6

$$$$
=
 OpenBabel11052409493D

 26 28  0  0  1  0  0  0  0  0999 V2000
  162.4480  210.2460  154.5280 C   0  0  0  0  0  2  0  0  0  0  0  0
  160.0620  210.2580  154.1180 C   0  0  2  0  0  3  0  0  0  0  0  0
  160.9210  209.4510  156.3720 C   0  0  0  0  0  0  0  0  0  0  0  0
  162.0190  209.2690  157.2610 N   0  0  0  0  0  1  0  0  0  0  0  0
  162.2310  210.6800  153.0910 C   0  0  0  0  0  2  0  0  0  0  0  0
  159.7720  209.0740  156.7240 O   0  0  0  0  0  0  0  0  0  0  0  0
  161.1250  210.0490  155.0850 N   0  0  0  0  0  0  0  0  0  0  0  0
  160.7580  210.4450  152.7790 C   0  0  1  0  0  3  0  0  0  0  0  0
  160.6180  209.1830  151.9450 C   0  0  0  0  0  2  0  0  0  0  0  0
  162.1750  208.8290  151.0750 S   0  0  0  0  0  0  0  0  0  0  0  0
  160.6210  206.0280  148.6170 C   0  0  0  0  0  3  0  0  0  0  0  0
  161.5650  206.0440  151.2730 C   0  0  0  0  0  0  0  0  0  0  0  0
  161.1090  207.2070  149.1740 C   0  0  0  0  0  3  0  0  0  0  0  0
  161.5790  207.2380  150.4920 C   0  0  0  0  0  0  0  0  0  0  0  0
  161.0640  204.8660  150.6900 C   0  0  0  0  0  0  0  0  0  0  0  0
  160.5970  204.8600  149.3750 C   0  0  0  0  0  3  0  0  0  0  0  0
  161.0280  203.6840  151.4220 O   0  0  0  0  0  1  0  0  0  0  0  0
  161.3780  206.2650  153.6850 C   0  0  0  0  0  0  0  0  0  0  0  0
  160.7540  206.5670  154.7100 O   0  0  0  0  0  0  0  0  0  0  0  0
  162.0270  205.9520  152.6360 N   0  0  0  0  0  0  0  0  0  0  0  0
  159.2870  211.5300  154.4460 C   0  0  0  0  0  2  0  0  0  0  0  0
  157.8640  211.3320  154.2300 N   0  0  0  0  0  0  0  0  0  0  0  0
  157.2860  210.9700  155.5140 C   0  0  0  0  0  2  0  0  0  0  0  0
  155.9160  211.6050  155.5920 C   0  0  0  0  0  2  0  0  0  0  0  0
  157.2890  212.6290  153.9030 C   0  0  0  0  0  2  0  0  0  0  0  0
  155.9320  212.7140  154.5680 C   0  0  0  0  0  2  0  0  0  0  0  0
  1  7  1  0  0  0  0
  2 21  1  1  0  0  0
  2  7  1  0  0  0  0
  3  6  2  0  0  0  0
  3  4  1  0  0  0  0
  5  1  1  0  0  0  0
  7  3  1  0  0  0  0
  8  9  1  6  0  0  0
  8  5  1  0  0  0  0
  8  2  1  0  0  0  0
 10  9  1  0  0  0  0
 11 13  2  0  0  0  0
 11 16  1  0  0  0  0
 12 20  1  0  0  0  0
 13 14  1  0  0  0  0
 14 10  1  0  0  0  0
 14 12  2  0  0  0  0
 15 12  1  0  0  0  0
 15 17  1  0  0  0  0
 16 15  2  0  0  0  0
 18 19  2  0  0  0  0
 20 18  2  0  0  0  0
 22 21  1  0  0  0  0
 22 23  1  0  0  0  0
 23 24  1  0  0  0  0
 25 22  1  0  0  0  0
 25 26  1  0  0  0  0
 26 24  1  0  0  0  0
M  END
>  <MODEL>
9

>  <REMARK>
 VINA RESULT:      -6.1      3.721      5.617
  Name = 
  6 active torsions:
  status: ('A' for Active; 'I' for Inactive)
    1  A    between atoms: N_2  and  C_15
    2  A    between atoms: C_4  and  S_13
    3  A    between atoms: C_4  and  C_25
    4  A    between atoms: C_5  and  N_22
    5  A    between atoms: C_10  and  C_15
    6  A    between atoms: S_13  and  C_14
                            x       y       z     vdW  Elec       q    Type
                         _______ _______ _______ _____ _____    ______ ____

>  <TORSDO>
F 6

$$$$
