=
 OpenBabel11052410543D

 30 36  0  0  1  0  0  0  0  0999 V2000
  158.7230  211.1020  152.2850 C   0  0  0  0  0  2  0  0  0  0  0  0
  162.9700  208.5880  151.6860 C   0  0  0  0  0  2  0  0  0  0  0  0
  161.0970  205.3670  152.2970 C   0  0  2  0  0  3  0  0  0  0  0  0
  161.4920  205.7820  153.7450 C   0  0  0  0  0  1  0  0  0  0  0  0
  160.5560  206.4350  150.6280 C   0  0  2  0  0  3  0  0  0  0  0  0
  160.9520  209.3800  150.2720 C   0  0  0  0  0  2  0  0  0  0  0  0
  162.1400  208.7320  157.2170 C   0  0  0  0  0  3  0  0  0  0  0  0
  162.0410  209.7440  151.2880 C   0  0  1  0  0  3  0  0  0  0  0  0
  161.6330  207.7080  156.4170 C   0  0  0  0  0  3  0  0  0  0  0  0
  160.5690  206.9280  154.3170 C   0  0  0  0  0  2  0  0  0  0  0  0
  161.5880  210.3200  155.5190 N   0  0  0  0  0  0  0  0  0  0  0  0
  162.1070  210.0460  156.7460 C   0  0  0  0  0  3  0  0  0  0  0  0
  160.5160  209.7070  153.3700 C   0  0  1  0  0  3  0  0  0  0  0  0
  159.1440  210.3730  153.5540 C   0  0  0  0  0  2  0  0  0  0  0  0
  161.5280  210.5160  152.5120 C   0  0  2  0  0  3  0  0  0  0  0  0
  161.4720  208.3530  149.2680 C   0  0  0  0  0  2  0  0  0  0  0  0
  160.7140  204.9640  150.8920 C   0  0  0  0  0  2  0  0  0  0  0  0
  161.0450  211.8910  152.1130 C   0  0  0  0  0  3  0  0  0  0  0  0
  161.8080  207.0110  149.9410 C   0  0  1  0  0  3  0  0  0  0  0  0
  162.4950  207.1710  151.3120 C   0  0  2  0  0  3  0  0  0  0  0  0
  161.3340  206.3950  153.4390 C   0  0  2  0  0  0  0  0  0  0  0  0
  161.0990  208.0020  155.1600 C   0  0  0  0  0  0  0  0  0  0  0  0
  161.1820  206.7760  151.9880 C   0  0  2  0  0  0  0  0  0  0  0  0
  161.0920  209.3410  154.7120 C   0  0  0  0  0  0  0  0  0  0  0  0
  159.7410  212.1590  151.9730 C   0  0  0  0  0  0  0  0  0  0  0  0
  159.2980  213.5430  151.6400 C   0  0  0  0  0  2  0  0  0  0  0  0
  158.5730  213.5070  148.8920 O   0  0  0  0  0  0  0  0  0  0  0  0
  157.9330  213.5150  151.1390 N   0  0  0  0  0  2  0  0  0  0  0  0
  157.6430  213.4960  149.7410 C   0  0  0  0  0  0  0  0  0  0  0  0
  156.3220  213.4660  149.3150 O   0  0  0  0  0  1  0  0  0  0  0  0
  1 14  1  0  0  0  0
  3 17  1  1  0  0  0
  3 21  1  0  0  0  0
  5 17  1  1  0  0  0
  5 23  1  0  0  0  0
  8  6  1  1  0  0  0
  8  2  1  0  0  0  0
  8 15  1  0  0  0  0
  9  7  2  0  0  0  0
 10 22  1  0  0  0  0
 11 12  2  0  0  0  0
 12  7  1  0  0  0  0
 13 14  1  1  0  0  0
 13 24  1  0  0  0  0
 15 18  1  6  0  0  0
 15 13  1  0  0  0  0
 16  6  1  0  0  0  0
 19 16  1  1  0  0  0
 19  5  1  0  0  0  0
 19 20  1  0  0  0  0
 20  2  1  1  0  0  0
 20 23  1  0  0  0  0
 21  4  1  1  0  0  0
 21 10  1  0  0  0  0
 22  9  1  0  0  0  0
 23  3  1  0  0  0  0
 23 21  1  0  0  0  0
 24 22  2  0  0  0  0
 24 11  1  0  0  0  0
 25 18  2  0  0  0  0
 25  1  1  0  0  0  0
 26 25  1  0  0  0  0
 27 29  2  0  0  0  0
 28 26  1  0  0  0  0
 29 28  1  0  0  0  0
 30 29  1  0  0  0  0
M  END
>  <MODEL>
1

>  <REMARK>
 VINA RESULT:      -5.1      0.000      0.000
  Name = 
  2 active torsions:
  status: ('A' for Active; 'I' for Inactive)
    1  A    between atoms: C_10  and  N_13
    2  A    between atoms: C_10  and  C_30
                            x       y       z     vdW  Elec       q    Type
                         _______ _______ _______ _____ _____    ______ ____

>  <TORSDO>
F 2

$$$$
=
 OpenBabel11052410543D

 30 36  0  0  1  0  0  0  0  0999 V2000
  163.2910  207.6220  149.3690 C   0  0  0  0  0  2  0  0  0  0  0  0
  159.3830  204.6440  150.1220 C   0  0  0  0  0  2  0  0  0  0  0  0
  161.6590  201.6490  149.7890 C   0  0  2  0  0  3  0  0  0  0  0  0
  161.2440  201.8960  148.3090 C   0  0  0  0  0  1  0  0  0  0  0  0
  162.0260  202.9030  151.3740 C   0  0  2  0  0  3  0  0  0  0  0  0
  161.2560  205.7930  151.4890 C   0  0  0  0  0  2  0  0  0  0  0  0
  160.3020  204.4610  144.6060 C   0  0  0  0  0  3  0  0  0  0  0  0
  160.1500  205.9360  150.4360 C   0  0  1  0  0  3  0  0  0  0  0  0
  160.9170  203.5750  145.4900 C   0  0  0  0  0  3  0  0  0  0  0  0
  162.0280  203.1020  147.6570 C   0  0  0  0  0  2  0  0  0  0  0  0
  160.6150  206.2330  146.1780 N   0  0  0  0  0  0  0  0  0  0  0  0
  160.1590  205.8010  144.9710 C   0  0  0  0  0  3  0  0  0  0  0  0
  161.7110  205.9300  148.3800 C   0  0  1  0  0  3  0  0  0  0  0  0
  162.9910  206.7490  148.1580 C   0  0  0  0  0  2  0  0  0  0  0  0
  160.5870  206.6680  149.1600 C   0  0  2  0  0  3  0  0  0  0  0  0
  160.8490  204.7890  152.5670 C   0  0  0  0  0  2  0  0  0  0  0  0
  162.0600  201.4080  151.2260 C   0  0  0  0  0  2  0  0  0  0  0  0
  160.8860  208.1200  149.4530 C   0  0  0  0  0  3  0  0  0  0  0  0
  160.6980  203.3670  151.9990 C   0  0  1  0  0  3  0  0  0  0  0  0
  160.0250  203.3320  150.6130 C   0  0  2  0  0  3  0  0  0  0  0  0
  161.3170  202.5460  148.5670 C   0  0  2  0  0  0  0  0  0  0  0  0
  161.3830  204.0310  146.7260 C   0  0  0  0  0  0  0  0  0  0  0  0
  161.3900  203.0550  149.9840 C   0  0  2  0  0  0  0  0  0  0  0  0
  161.2130  205.3910  147.0650 C   0  0  0  0  0  0  0  0  0  0  0  0
  162.1430  208.5620  149.5850 C   0  0  0  0  0  0  0  0  0  0  0  0
  162.4010  210.0120  149.8110 C   0  0  0  0  0  2  0  0  0  0  0  0
  161.1980  212.5610  149.4360 O   0  0  0  0  0  1  0  0  0  0  0  0
  162.3350  210.7250  148.5450 N   0  0  0  0  0  2  0  0  0  0  0  0
  161.7160  212.0060  148.4310 C   0  0  0  0  0  0  0  0  0  0  0  0
  161.6840  212.6460  147.1990 O   0  0  0  0  0  0  0  0  0  0  0  0
  1 25  1  0  0  0  0
  3 23  1  0  0  0  0
  3 17  1  6  0  0  0
  5 17  1  1  0  0  0
  5 19  1  0  0  0  0
  6 16  1  0  0  0  0
  7 12  2  0  0  0  0
  7  9  1  0  0  0  0
  8  2  1  6  0  0  0
  8  6  1  0  0  0  0
  9 22  2  0  0  0  0
 10 21  1  0  0  0  0
 11 24  2  0  0  0  0
 12 11  1  0  0  0  0
 13 14  1  6  0  0  0
 13 15  1  0  0  0  0
 14  1  1  0  0  0  0
 15 18  1  1  0  0  0
 15  8  1  0  0  0  0
 18 25  2  0  0  0  0
 19 16  1  6  0  0  0
 20  2  1  6  0  0  0
 20 19  1  0  0  0  0
 21  4  1  6  0  0  0
 21  3  1  0  0  0  0
 21 23  1  0  0  0  0
 22 24  1  0  0  0  0
 22 10  1  0  0  0  0
 23 20  1  0  0  0  0
 23  5  1  0  0  0  0
 24 13  1  0  0  0  0
 25 26  1  0  0  0  0
 28 26  1  0  0  0  0
 29 28  1  0  0  0  0
 29 27  1  0  0  0  0
 30 29  2  0  0  0  0
M  END
>  <MODEL>
2

>  <REMARK>
 VINA RESULT:      -4.7      3.808      6.876
  Name = 
  2 active torsions:
  status: ('A' for Active; 'I' for Inactive)
    1  A    between atoms: C_10  and  N_13
    2  A    between atoms: C_10  and  C_30
                            x       y       z     vdW  Elec       q    Type
                         _______ _______ _______ _____ _____    ______ ____

>  <TORSDO>
F 2

$$$$
=
 OpenBabel11052410543D

 30 36  0  0  1  0  0  0  0  0999 V2000
  163.2680  207.4960  149.7110 C   0  0  0  0  0  2  0  0  0  0  0  0
  159.3650  204.4480  150.1380 C   0  0  0  0  0  2  0  0  0  0  0  0
  161.6560  201.5050  149.5480 C   0  0  2  0  0  3  0  0  0  0  0  0
  161.2560  201.8890  148.0930 C   0  0  0  0  0  1  0  0  0  0  0  0
  162.0020  202.6050  151.2480 C   0  0  2  0  0  3  0  0  0  0  0  0
  161.2190  205.4690  151.6270 C   0  0  0  0  0  2  0  0  0  0  0  0
  160.3410  204.7890  144.6390 C   0  0  0  0  0  3  0  0  0  0  0  0
  160.1240  205.7070  150.5810 C   0  0  1  0  0  3  0  0  0  0  0  0
  160.9510  203.8250  145.4420 C   0  0  0  0  0  3  0  0  0  0  0  0
  162.0410  203.1540  147.5670 C   0  0  0  0  0  2  0  0  0  0  0  0
  160.6310  206.4060  146.3740 N   0  0  0  0  0  0  0  0  0  0  0  0
  160.1900  206.0880  145.1270 C   0  0  0  0  0  3  0  0  0  0  0  0
  161.7050  205.9000  148.5500 C   0  0  1  0  0  3  0  0  0  0  0  0
  162.9850  206.7400  148.4200 C   0  0  0  0  0  2  0  0  0  0  0  0
  160.5710  206.5580  149.3830 C   0  0  2  0  0  3  0  0  0  0  0  0
  160.8050  204.3670  152.6010 C   0  0  0  0  0  2  0  0  0  0  0  0
  162.0430  201.1310  150.9600 C   0  0  0  0  0  2  0  0  0  0  0  0
  160.8600  207.9770  149.8150 C   0  0  0  0  0  3  0  0  0  0  0  0
  160.6650  203.0040  151.9000 C   0  0  1  0  0  3  0  0  0  0  0  0
  160.0070  203.0980  150.5090 C   0  0  2  0  0  3  0  0  0  0  0  0
  161.3230  202.5130  148.4120 C   0  0  2  0  0  0  0  0  0  0  0  0
  161.4030  204.1650  146.7200 C   0  0  0  0  0  0  0  0  0  0  0  0
  161.3800  202.8860  149.8720 C   0  0  2  0  0  0  0  0  0  0  0  0
  161.2230  205.4860  147.1850 C   0  0  0  0  0  0  0  0  0  0  0  0
  162.1140  208.4080  150.0020 C   0  0  0  0  0  0  0  0  0  0  0  0
  162.3640  209.8310  150.3660 C   0  0  0  0  0  2  0  0  0  0  0  0
  160.3950  210.5640  152.2820 O   0  0  0  0  0  0  0  0  0  0  0  0
  162.5940  209.9390  151.7980 N   0  0  0  0  0  2  0  0  0  0  0  0
  161.5550  210.3110  152.7040 C   0  0  0  0  0  0  0  0  0  0  0  0
  161.8270  210.3960  154.0630 O   0  0  0  0  0  1  0  0  0  0  0  0
  1 25  1  0  0  0  0
  3 23  1  0  0  0  0
  3 17  1  6  0  0  0
  5 17  1  6  0  0  0
  5 19  1  0  0  0  0
  6 16  1  0  0  0  0
  7 12  2  0  0  0  0
  7  9  1  0  0  0  0
  8  2  1  6  0  0  0
  8  6  1  0  0  0  0
  9 22  2  0  0  0  0
 10 21  1  0  0  0  0
 11 24  2  0  0  0  0
 12 11  1  0  0  0  0
 13 14  1  6  0  0  0
 13 15  1  0  0  0  0
 14  1  1  0  0  0  0
 15 18  1  1  0  0  0
 15  8  1  0  0  0  0
 18 25  2  0  0  0  0
 19 16  1  6  0  0  0
 20  2  1  6  0  0  0
 20 19  1  0  0  0  0
 21  4  1  6  0  0  0
 21  3  1  0  0  0  0
 21 23  1  0  0  0  0
 22 24  1  0  0  0  0
 22 10  1  0  0  0  0
 23 20  1  0  0  0  0
 23  5  1  0  0  0  0
 24 13  1  0  0  0  0
 25 26  1  0  0  0  0
 26 28  1  0  0  0  0
 27 29  2  0  0  0  0
 28 29  1  0  0  0  0
 29 30  1  0  0  0  0
M  END
>  <MODEL>
3

>  <REMARK>
 VINA RESULT:      -4.7      3.666      7.016
  Name = 
  2 active torsions:
  status: ('A' for Active; 'I' for Inactive)
    1  A    between atoms: C_10  and  N_13
    2  A    between atoms: C_10  and  C_30
                            x       y       z     vdW  Elec       q    Type
                         _______ _______ _______ _____ _____    ______ ____

>  <TORSDO>
F 2

$$$$
=
 OpenBabel11052410543D

 30 36  0  0  1  0  0  0  0  0999 V2000
  159.1980  211.1770  151.5600 C   0  0  0  0  0  2  0  0  0  0  0  0
  163.0930  208.1010  151.2790 C   0  0  0  0  0  2  0  0  0  0  0  0
  160.8420  205.2340  152.2670 C   0  0  2  0  0  3  0  0  0  0  0  0
  161.3030  205.7660  153.6560 C   0  0  0  0  0  1  0  0  0  0  0  0
  160.4180  206.1540  150.4800 C   0  0  2  0  0  3  0  0  0  0  0  0
  161.1710  208.9630  149.7750 C   0  0  0  0  0  2  0  0  0  0  0  0
  162.3540  209.0060  156.7510 C   0  0  0  0  0  3  0  0  0  0  0  0
  162.3090  209.3070  150.7420 C   0  0  1  0  0  3  0  0  0  0  0  0
  161.7140  207.9650  156.0780 C   0  0  0  0  0  3  0  0  0  0  0  0
  160.5360  207.0780  154.0830 C   0  0  0  0  0  2  0  0  0  0  0  0
  161.9820  210.4360  154.8730 N   0  0  0  0  0  0  0  0  0  0  0  0
  162.4780  210.2480  156.1250 C   0  0  0  0  0  3  0  0  0  0  0  0
  160.8170  209.7080  152.8100 C   0  0  1  0  0  3  0  0  0  0  0  0
  159.5400  210.5570  152.9090 C   0  0  0  0  0  2  0  0  0  0  0  0
  161.9110  210.2770  151.8640 C   0  0  2  0  0  3  0  0  0  0  0  0
  161.5470  207.7660  148.9020 C   0  0  0  0  0  2  0  0  0  0  0  0
  160.3950  204.7160  150.9200 C   0  0  0  0  0  2  0  0  0  0  0  0
  161.5970  211.6440  151.3020 C   0  0  0  0  0  3  0  0  0  0  0  0
  161.7230  206.4830  149.7330 C   0  0  1  0  0  3  0  0  0  0  0  0
  162.4410  206.7190  151.0760 C   0  0  2  0  0  3  0  0  0  0  0  0
  161.2190  206.3530  153.2780 C   0  0  2  0  0  0  0  0  0  0  0  0
  161.2060  208.1710  154.7930 C   0  0  0  0  0  0  0  0  0  0  0  0
  161.0980  206.5740  151.7910 C   0  0  2  0  0  0  0  0  0  0  0  0
  161.3590  209.4370  154.1880 C   0  0  0  0  0  0  0  0  0  0  0  0
  160.3340  212.0540  151.1260 C   0  0  0  0  0  0  0  0  0  0  0  0
  160.0620  213.4320  150.6290 C   0  0  0  0  0  2  0  0  0  0  0  0
  161.8240  214.4430  148.6400 O   0  0  0  0  0  1  0  0  0  0  0  0
  159.8110  213.3970  149.1970 N   0  0  0  0  0  2  0  0  0  0  0  0
  160.7440  213.9230  148.2540 C   0  0  0  0  0  0  0  0  0  0  0  0
  160.4570  213.8610  146.8970 O   0  0  0  0  0  0  0  0  0  0  0  0
  1 14  1  0  0  0  0
  3 17  1  1  0  0  0
  3 21  1  0  0  0  0
  5 17  1  1  0  0  0
  5 23  1  0  0  0  0
  8  6  1  1  0  0  0
  8  2  1  0  0  0  0
  8 15  1  0  0  0  0
  9  7  2  0  0  0  0
 10 22  1  0  0  0  0
 11 12  2  0  0  0  0
 12  7  1  0  0  0  0
 13 14  1  1  0  0  0
 13 24  1  0  0  0  0
 15 18  1  6  0  0  0
 15 13  1  0  0  0  0
 16  6  1  0  0  0  0
 19 16  1  6  0  0  0
 19  5  1  0  0  0  0
 19 20  1  0  0  0  0
 20  2  1  6  0  0  0
 20 23  1  0  0  0  0
 21  4  1  1  0  0  0
 21 10  1  0  0  0  0
 22  9  1  0  0  0  0
 23  3  1  0  0  0  0
 23 21  1  0  0  0  0
 24 22  2  0  0  0  0
 24 11  1  0  0  0  0
 25 18  2  0  0  0  0
 25  1  1  0  0  0  0
 26 25  1  0  0  0  0
 28 26  1  0  0  0  0
 29 27  1  0  0  0  0
 29 28  1  0  0  0  0
 30 29  2  0  0  0  0
M  END
>  <MODEL>
4

>  <REMARK>
 VINA RESULT:      -4.0      1.368      1.476
  Name = 
  2 active torsions:
  status: ('A' for Active; 'I' for Inactive)
    1  A    between atoms: C_10  and  N_13
    2  A    between atoms: C_10  and  C_30
                            x       y       z     vdW  Elec       q    Type
                         _______ _______ _______ _____ _____    ______ ____

>  <TORSDO>
F 2

$$$$
=
 OpenBabel11052410543D

 30 36  0  0  1  0  0  0  0  0999 V2000
  160.0450  207.0280  149.3120 C   0  0  0  0  0  2  0  0  0  0  0  0
  163.1380  204.0890  146.7590 C   0  0  0  0  0  2  0  0  0  0  0  0
  160.1690  202.0980  145.5430 C   0  0  2  0  0  3  0  0  0  0  0  0
  160.5090  201.3740  146.8790 C   0  0  0  0  0  1  0  0  0  0  0  0
  160.2570  204.0620  144.9480 C   0  0  2  0  0  3  0  0  0  0  0  0
  161.7290  206.2290  146.3940 C   0  0  0  0  0  2  0  0  0  0  0  0
  161.7520  201.1340  151.3040 C   0  0  0  0  0  3  0  0  0  0  0  0
  162.7440  205.4840  147.2680 C   0  0  1  0  0  3  0  0  0  0  0  0
  161.0110  201.0720  150.1240 C   0  0  0  0  0  3  0  0  0  0  0  0
  159.9990  202.1710  148.1430 C   0  0  0  0  0  2  0  0  0  0  0  0
  162.0200  203.4890  151.0010 N   0  0  0  0  0  0  0  0  0  0  0  0
  162.2530  202.3650  151.7310 C   0  0  0  0  0  3  0  0  0  0  0  0
  161.0680  204.7380  149.0840 C   0  0  1  0  0  3  0  0  0  0  0  0
  160.0170  205.5900  149.8120 C   0  0  0  0  0  2  0  0  0  0  0  0
  162.4000  205.4720  148.7640 C   0  0  2  0  0  3  0  0  0  0  0  0
  161.9600  205.9230  144.9150 C   0  0  0  0  0  2  0  0  0  0  0  0
  159.8400  202.7990  144.2460 C   0  0  0  0  0  2  0  0  0  0  0  0
  162.4970  206.8640  149.3450 C   0  0  0  0  0  3  0  0  0  0  0  0
  161.7050  204.4400  144.5890 C   0  0  1  0  0  3  0  0  0  0  0  0
  162.2320  203.4790  145.6730 C   0  0  2  0  0  3  0  0  0  0  0  0
  160.6210  202.0510  147.0300 C   0  0  2  0  0  0  0  0  0  0  0  0
  160.7750  202.2340  149.3840 C   0  0  0  0  0  0  0  0  0  0  0  0
  160.7940  203.2560  146.1390 C   0  0  2  0  0  0  0  0  0  0  0  0
  161.3060  203.4600  149.8420 C   0  0  0  0  0  0  0  0  0  0  0  0
  161.4050  207.6050  149.5690 C   0  0  0  0  0  0  0  0  0  0  0  0
  161.5350  208.9480  150.2020 C   0  0  0  0  0  2  0  0  0  0  0  0
  160.0090  210.0260  152.3440 O   0  0  0  0  0  0  0  0  0  0  0  0
  161.8560  208.7970  151.6130 N   0  0  0  0  0  2  0  0  0  0  0  0
  161.0400  209.3650  152.6370 C   0  0  0  0  0  0  0  0  0  0  0  0
  161.3890  209.1880  153.9690 O   0  0  0  0  0  1  0  0  0  0  0  0
  1 25  1  0  0  0  0
  1 14  1  0  0  0  0
  2  8  1  0  0  0  0
  3 17  1  1  0  0  0
  3 23  1  0  0  0  0
  3 21  1  0  0  0  0
  5 17  1  6  0  0  0
  5 23  1  0  0  0  0
  7 12  1  0  0  0  0
  8  6  1  6  0  0  0
  8 15  1  0  0  0  0
  9  7  2  0  0  0  0
 10 22  1  0  0  0  0
 11 12  2  0  0  0  0
 13 14  1  1  0  0  0
 13 24  1  0  0  0  0
 15 13  1  0  0  0  0
 15 18  1  6  0  0  0
 16  6  1  0  0  0  0
 18 25  2  0  0  0  0
 19 16  1  1  0  0  0
 19  5  1  0  0  0  0
 19 20  1  0  0  0  0
 20 23  1  0  0  0  0
 20  2  1  1  0  0  0
 21  4  1  1  0  0  0
 21 10  1  0  0  0  0
 22 24  2  0  0  0  0
 22  9  1  0  0  0  0
 23 21  1  0  0  0  0
 24 11  1  0  0  0  0
 25 26  1  0  0  0  0
 26 28  1  0  0  0  0
 27 29  2  0  0  0  0
 28 29  1  0  0  0  0
 29 30  1  0  0  0  0
M  END
>  <MODEL>
5

>  <REMARK>
 VINA RESULT:      -3.8      4.414      6.958
  Name = 
  2 active torsions:
  status: ('A' for Active; 'I' for Inactive)
    1  A    between atoms: C_10  and  N_13
    2  A    between atoms: C_10  and  C_30
                            x       y       z     vdW  Elec       q    Type
                         _______ _______ _______ _____ _____    ______ ____

>  <TORSDO>
F 2

$$$$
=
 OpenBabel11052410543D

 30 36  0  0  1  0  0  0  0  0999 V2000
  159.9520  209.2940  139.3390 C   0  0  0  0  0  2  0  0  0  0  0  0
  161.3420  213.9520  140.3810 C   0  0  0  0  0  2  0  0  0  0  0  0
  158.9520  213.9630  143.3050 C   0  0  2  0  0  3  0  0  0  0  0  0
  158.0330  214.4470  142.1440 C   0  0  0  0  0  1  0  0  0  0  0  0
  160.5070  212.6230  143.4010 C   0  0  2  0  0  3  0  0  0  0  0  0
  161.9790  211.5300  141.0350 C   0  0  0  0  0  2  0  0  0  0  0  0
  156.3770  214.4530  137.8510 C   0  0  0  0  0  3  0  0  0  0  0  0
  161.6930  212.5330  139.9120 C   0  0  1  0  0  3  0  0  0  0  0  0
  156.4930  214.3030  139.2330 C   0  0  0  0  0  3  0  0  0  0  0  0
  157.5640  213.2610  141.2140 C   0  0  0  0  0  2  0  0  0  0  0  0
  158.1290  212.8590  137.5380 N   0  0  0  0  0  0  0  0  0  0  0  0
  157.2120  213.7130  137.0110 C   0  0  0  0  0  3  0  0  0  0  0  0
  159.2940  211.7230  139.4080 C   0  0  1  0  0  3  0  0  0  0  0  0
  158.8030  210.2830  139.1960 C   0  0  0  0  0  2  0  0  0  0  0  0
  160.7120  212.0220  138.8460 C   0  0  2  0  0  3  0  0  0  0  0  0
  162.6890  212.2150  142.2020 C   0  0  0  0  0  2  0  0  0  0  0  0
  159.8440  213.4950  144.4310 C   0  0  0  0  0  2  0  0  0  0  0  0
  161.3220  210.8850  138.0610 C   0  0  0  0  0  3  0  0  0  0  0  0
  161.7980  213.2750  142.8740 C   0  0  1  0  0  3  0  0  0  0  0  0
  160.9770  214.1080  141.8700 C   0  0  2  0  0  3  0  0  0  0  0  0
  158.4370  213.9600  141.8380 C   0  0  2  0  0  0  0  0  0  0  0  0
  157.4370  213.4190  139.7630 C   0  0  0  0  0  0  0  0  0  0  0  0
  159.7320  213.3190  142.2720 C   0  0  2  0  0  0  0  0  0  0  0  0
  158.2720  212.6950  138.8830 C   0  0  0  0  0  0  0  0  0  0  0  0
  160.9960  209.6100  138.3100 C   0  0  0  0  0  0  0  0  0  0  0  0
  161.5690  208.5190  137.4720 C   0  0  0  0  0  2  0  0  0  0  0  0
  162.8310  208.2910  140.0090 O   0  0  0  0  0  0  0  0  0  0  0  0
  161.6570  207.2950  138.2520 N   0  0  0  0  0  2  0  0  0  0  0  0
  162.3060  207.2550  139.5230 C   0  0  0  0  0  0  0  0  0  0  0  0
  162.3580  206.0600  140.2290 O   0  0  0  0  0  1  0  0  0  0  0  0
  3 17  1  1  0  0  0
  5 17  1  1  0  0  0
  6 16  1  0  0  0  0
  7  9  1  0  0  0  0
  8  2  1  1  0  0  0
  8  6  1  0  0  0  0
  9 22  2  0  0  0  0
 10 21  1  0  0  0  0
 11 24  2  0  0  0  0
 12 11  1  0  0  0  0
 12  7  2  0  0  0  0
 13 14  1  6  0  0  0
 14  1  1  0  0  0  0
 15 18  1  1  0  0  0
 15 13  1  0  0  0  0
 15  8  1  0  0  0  0
 18 25  2  0  0  0  0
 19 16  1  6  0  0  0
 19  5  1  0  0  0  0
 20  2  1  6  0  0  0
 20 23  1  0  0  0  0
 20 19  1  0  0  0  0
 21  4  1  6  0  0  0
 21 23  1  0  0  0  0
 21  3  1  0  0  0  0
 22 10  1  0  0  0  0
 23  3  1  0  0  0  0
 23  5  1  0  0  0  0
 24 13  1  0  0  0  0
 24 22  1  0  0  0  0
 25  1  1  0  0  0  0
 26 28  1  0  0  0  0
 26 25  1  0  0  0  0
 28 29  1  0  0  0  0
 29 27  2  0  0  0  0
 29 30  1  0  0  0  0
M  END
>  <MODEL>
6

>  <REMARK>
 VINA RESULT:      -2.8     10.668     14.176
  Name = 
  2 active torsions:
  status: ('A' for Active; 'I' for Inactive)
    1  A    between atoms: C_10  and  N_13
    2  A    between atoms: C_10  and  C_30
                            x       y       z     vdW  Elec       q    Type
                         _______ _______ _______ _____ _____    ______ ____

>  <TORSDO>
F 2

$$$$
=
 OpenBabel11052410543D

 30 36  0  0  1  0  0  0  0  0999 V2000
  159.7000  205.9630  145.2550 C   0  0  0  0  0  2  0  0  0  0  0  0
  162.8080  202.9560  147.7080 C   0  0  0  0  0  2  0  0  0  0  0  0
  160.0510  202.1920  150.1730 C   0  0  2  0  0  3  0  0  0  0  0  0
  160.7000  203.4580  150.8080 C   0  0  0  0  0  1  0  0  0  0  0  0
  159.7300  201.6010  148.2320 C   0  0  2  0  0  3  0  0  0  0  0  0
  161.0330  202.8200  145.8290 C   0  0  0  0  0  2  0  0  0  0  0  0
  162.6160  207.6420  150.7600 C   0  0  0  0  0  3  0  0  0  0  0  0
  162.2750  203.5250  146.3850 C   0  0  1  0  0  3  0  0  0  0  0  0
  161.7250  206.5870  150.9620 C   0  0  0  0  0  3  0  0  0  0  0  0
  160.2640  204.7880  150.0780 C   0  0  0  0  0  2  0  0  0  0  0  0
  162.4510  207.3150  148.3980 N   0  0  0  0  0  0  0  0  0  0  0  0
  162.9700  207.9950  149.4560 C   0  0  0  0  0  3  0  0  0  0  0  0
  161.0330  205.5700  147.3550 C   0  0  1  0  0  3  0  0  0  0  0  0
  159.9810  206.4540  146.6690 C   0  0  0  0  0  2  0  0  0  0  0  0
  162.1660  205.0560  146.4230 C   0  0  2  0  0  3  0  0  0  0  0  0
  161.0860  201.3210  146.1230 C   0  0  0  0  0  2  0  0  0  0  0  0
  159.4210  200.9640  149.5580 C   0  0  0  0  0  2  0  0  0  0  0  0
  162.1230  205.6230  145.0230 C   0  0  0  0  0  3  0  0  0  0  0  0
  161.0280  201.0300  147.6330 C   0  0  1  0  0  3  0  0  0  0  0  0
  161.8600  202.0150  148.4770 C   0  0  2  0  0  3  0  0  0  0  0  0
  160.7230  203.5930  150.1180 C   0  0  2  0  0  0  0  0  0  0  0  0
  161.1970  205.8980  149.8680 C   0  0  0  0  0  0  0  0  0  0  0  0
  160.5630  202.6930  148.9180 C   0  0  2  0  0  0  0  0  0  0  0  0
  161.5860  206.2760  148.5640 C   0  0  0  0  0  0  0  0  0  0  0  0
  160.9720  206.0140  144.4620 C   0  0  0  0  0  0  0  0  0  0  0  0
  160.9780  206.6280  143.1040 C   0  0  0  0  0  2  0  0  0  0  0  0
  161.6320  207.3740  140.4400 O   0  0  0  0  0  1  0  0  0  0  0  0
  161.9440  205.9430  142.2600 N   0  0  0  0  0  2  0  0  0  0  0  0
  162.2240  206.3760  140.9290 C   0  0  0  0  0  0  0  0  0  0  0  0
  163.1590  205.6890  140.1660 O   0  0  0  0  0  0  0  0  0  0  0  0
  1 14  1  0  0  0  0
  3 17  1  6  0  0  0
  5 23  1  0  0  0  0
  5 17  1  1  0  0  0
  6 16  1  0  0  0  0
  7  9  1  0  0  0  0
  8  6  1  1  0  0  0
  8 15  1  0  0  0  0
  8  2  1  0  0  0  0
 10 21  1  0  0  0  0
 11 24  2  0  0  0  0
 11 12  1  0  0  0  0
 12  7  2  0  0  0  0
 13 14  1  6  0  0  0
 13 24  1  0  0  0  0
 15 18  1  6  0  0  0
 15 13  1  0  0  0  0
 19 16  1  6  0  0  0
 19  5  1  0  0  0  0
 19 20  1  0  0  0  0
 20  2  1  6  0  0  0
 20 23  1  0  0  0  0
 21  3  1  0  0  0  0
 21  4  1  1  0  0  0
 22 10  1  0  0  0  0
 22  9  2  0  0  0  0
 23 21  1  0  0  0  0
 23  3  1  0  0  0  0
 24 22  1  0  0  0  0
 25 18  2  0  0  0  0
 25  1  1  0  0  0  0
 26 25  1  0  0  0  0
 27 29  1  0  0  0  0
 28 26  1  0  0  0  0
 29 28  1  0  0  0  0
 30 29  2  0  0  0  0
M  END
>  <MODEL>
7

>  <REMARK>
 VINA RESULT:      -2.8      5.611      7.983
  Name = 
  2 active torsions:
  status: ('A' for Active; 'I' for Inactive)
    1  A    between atoms: C_10  and  N_13
    2  A    between atoms: C_10  and  C_30
                            x       y       z     vdW  Elec       q    Type
                         _______ _______ _______ _____ _____    ______ ____

>  <TORSDO>
F 2

$$$$
=
 OpenBabel11052410543D

 30 36  0  0  1  0  0  0  0  0999 V2000
  159.7030  209.1940  153.4460 C   0  0  0  0  0  2  0  0  0  0  0  0
  159.5510  213.8160  155.2720 C   0  0  0  0  0  2  0  0  0  0  0  0
  155.8590  213.9550  154.4880 C   0  0  2  0  0  3  0  0  0  0  0  0
  156.4840  214.4530  153.1520 C   0  0  0  0  0  1  0  0  0  0  0  0
  156.4460  212.5630  155.8810 C   0  0  2  0  0  3  0  0  0  0  0  0
  159.1890  211.3830  156.0780 C   0  0  0  0  0  2  0  0  0  0  0  0
  159.5420  214.4530  149.7120 C   0  0  0  0  0  3  0  0  0  0  0  0
  160.0870  212.3780  155.3330 C   0  0  1  0  0  3  0  0  0  0  0  0
  158.3630  214.3200  150.4460 C   0  0  0  0  0  3  0  0  0  0  0  0
  157.0610  213.2710  152.2790 C   0  0  0  0  0  2  0  0  0  0  0  0
  160.5740  212.7930  151.0870 N   0  0  0  0  0  0  0  0  0  0  0  0
  160.6480  213.6720  150.0510 C   0  0  0  0  0  3  0  0  0  0  0  0
  159.4120  211.6460  152.9520 C   0  0  1  0  0  3  0  0  0  0  0  0
  159.3340  210.2210  152.3830 C   0  0  0  0  0  2  0  0  0  0  0  0
  160.5690  211.8870  153.9610 C   0  0  2  0  0  3  0  0  0  0  0  0
  158.4970  212.0600  157.2600 C   0  0  0  0  0  2  0  0  0  0  0  0
  155.2530  213.4730  155.7850 C   0  0  0  0  0  2  0  0  0  0  0  0
  161.5130  210.7160  154.1150 C   0  0  0  0  0  3  0  0  0  0  0  0
  157.5240  213.1610  156.8030 C   0  0  1  0  0  3  0  0  0  0  0  0
  158.0650  214.0070  155.6330 C   0  0  2  0  0  3  0  0  0  0  0  0
  156.9270  213.9480  153.3590 C   0  0  2  0  0  0  0  0  0  0  0  0
  158.2980  213.4110  151.5060 C   0  0  0  0  0  0  0  0  0  0  0  0
  157.1140  213.2680  154.6920 C   0  0  2  0  0  0  0  0  0  0  0  0
  159.4400  212.6450  151.8260 C   0  0  0  0  0  0  0  0  0  0  0  0
  161.1040  209.4580  153.9090 C   0  0  0  0  0  0  0  0  0  0  0  0
  162.0790  208.3350  154.0080 C   0  0  0  0  0  2  0  0  0  0  0  0
  162.7720  206.3390  152.1060 O   0  0  0  0  0  0  0  0  0  0  0  0
  161.3860  207.0670  153.8400 N   0  0  0  0  0  2  0  0  0  0  0  0
  161.7930  206.1090  152.8630 C   0  0  0  0  0  0  0  0  0  0  0  0
  161.0990  204.9120  152.7470 O   0  0  0  0  0  1  0  0  0  0  0  0
  1 25  1  0  0  0  0
  3 23  1  0  0  0  0
  3 17  1  6  0  0  0
  5 17  1  1  0  0  0
  5 19  1  0  0  0  0
  6 16  1  0  0  0  0
  7 12  2  0  0  0  0
  7  9  1  0  0  0  0
  8  2  1  6  0  0  0
  8  6  1  0  0  0  0
  9 22  2  0  0  0  0
 10 21  1  0  0  0  0
 11 24  2  0  0  0  0
 12 11  1  0  0  0  0
 13 14  1  6  0  0  0
 13 15  1  0  0  0  0
 14  1  1  0  0  0  0
 15 18  1  1  0  0  0
 15  8  1  0  0  0  0
 19 16  1  6  0  0  0
 20  2  1  6  0  0  0
 20 19  1  0  0  0  0
 21  4  1  6  0  0  0
 21  3  1  0  0  0  0
 21 23  1  0  0  0  0
 22 24  1  0  0  0  0
 22 10  1  0  0  0  0
 23 20  1  0  0  0  0
 23  5  1  0  0  0  0
 24 13  1  0  0  0  0
 25 26  1  0  0  0  0
 25 18  2  0  0  0  0
 27 29  2  0  0  0  0
 28 26  1  0  0  0  0
 29 28  1  0  0  0  0
 30 29  1  0  0  0  0
M  END
>  <MODEL>
8

>  <REMARK>
 VINA RESULT:      -2.7      3.699      7.659
  Name = 
  2 active torsions:
  status: ('A' for Active; 'I' for Inactive)
    1  A    between atoms: C_10  and  N_13
    2  A    between atoms: C_10  and  C_30
                            x       y       z     vdW  Elec       q    Type
                         _______ _______ _______ _____ _____    ______ ____

>  <TORSDO>
F 2

$$$$
=
 OpenBabel11052410543D

 30 36  0  0  1  0  0  0  0  0999 V2000
  163.3320  204.6930  145.9460 C   0  0  0  0  0  2  0  0  0  0  0  0
  159.7530  206.4590  148.9100 C   0  0  0  0  0  2  0  0  0  0  0  0
  162.0580  206.0340  151.8710 C   0  0  2  0  0  3  0  0  0  0  0  0
  161.3740  204.6360  151.7990 C   0  0  0  0  0  1  0  0  0  0  0  0
  162.6500  207.3830  150.4390 C   0  0  2  0  0  3  0  0  0  0  0  0
  161.7900  207.3310  147.5720 C   0  0  0  0  0  2  0  0  0  0  0  0
  159.6740  200.9190  149.6860 C   0  0  0  0  0  3  0  0  0  0  0  0
  160.5090  206.4890  147.5740 C   0  0  1  0  0  3  0  0  0  0  0  0
  160.4750  201.7640  150.4540 C   0  0  0  0  0  3  0  0  0  0  0  0
  161.9760  203.7290  150.6560 C   0  0  0  0  0  2  0  0  0  0  0  0
  160.1880  202.2100  147.7430 N   0  0  0  0  0  0  0  0  0  0  0  0
  159.5430  201.1600  148.3170 C   0  0  0  0  0  3  0  0  0  0  0  0
  161.6730  204.1940  147.7730 C   0  0  1  0  0  3  0  0  0  0  0  0
  162.8570  203.6570  146.9560 C   0  0  0  0  0  2  0  0  0  0  0  0
  160.6780  205.0840  146.9780 C   0  0  2  0  0  3  0  0  0  0  0  0
  161.6260  208.5650  148.4590 C   0  0  0  0  0  2  0  0  0  0  0  0
  162.7210  207.3900  151.9400 C   0  0  0  0  0  2  0  0  0  0  0  0
  160.9620  205.1630  145.4960 C   0  0  0  0  0  3  0  0  0  0  0  0
  161.4370  208.1880  149.9390 C   0  0  1  0  0  3  0  0  0  0  0  0
  160.5280  206.9600  150.1440 C   0  0  2  0  0  3  0  0  0  0  0  0
  161.4650  204.8060  151.1230 C   0  0  2  0  0  0  0  0  0  0  0  0
  161.1360  202.8380  149.8520 C   0  0  0  0  0  0  0  0  0  0  0  0
  161.7690  206.1250  150.4570 C   0  0  2  0  0  0  0  0  0  0  0  0
  160.9710  203.0570  148.4660 C   0  0  0  0  0  0  0  0  0  0  0  0
  162.2020  205.0150  145.0140 C   0  0  0  0  0  0  0  0  0  0  0  0
  162.4340  205.0350  143.5420 C   0  0  0  0  0  2  0  0  0  0  0  0
  162.7350  205.9100  140.8540 O   0  0  0  0  0  0  0  0  0  0  0  0
  161.7340  206.1650  142.9500 N   0  0  0  0  0  2  0  0  0  0  0  0
  161.9340  206.5460  141.5890 C   0  0  0  0  0  0  0  0  0  0  0  0
  161.2380  207.6310  141.0710 O   0  0  0  0  0  1  0  0  0  0  0  0
  1 14  1  0  0  0  0
  3 17  1  6  0  0  0
  5 23  1  0  0  0  0
  5 17  1  1  0  0  0
  6 16  1  0  0  0  0
  7  9  1  0  0  0  0
  8  6  1  1  0  0  0
  8  2  1  0  0  0  0
 10 21  1  0  0  0  0
 11 12  1  0  0  0  0
 11 24  2  0  0  0  0
 12  7  2  0  0  0  0
 13 14  1  6  0  0  0
 13 24  1  0  0  0  0
 15 18  1  6  0  0  0
 15  8  1  0  0  0  0
 15 13  1  0  0  0  0
 19 16  1  6  0  0  0
 19 20  1  0  0  0  0
 19  5  1  0  0  0  0
 20  2  1  6  0  0  0
 20 23  1  0  0  0  0
 21  4  1  1  0  0  0
 21  3  1  0  0  0  0
 22  9  2  0  0  0  0
 22 10  1  0  0  0  0
 23 21  1  0  0  0  0
 23  3  1  0  0  0  0
 24 22  1  0  0  0  0
 25 18  2  0  0  0  0
 25  1  1  0  0  0  0
 26 25  1  0  0  0  0
 27 29  2  0  0  0  0
 28 26  1  0  0  0  0
 29 28  1  0  0  0  0
 30 29  1  0  0  0  0
M  END
>  <MODEL>
9

>  <REMARK>
 VINA RESULT:      -2.5      5.253      8.059
  Name = 
  2 active torsions:
  status: ('A' for Active; 'I' for Inactive)
    1  A    between atoms: C_10  and  N_13
    2  A    between atoms: C_10  and  C_30
                            x       y       z     vdW  Elec       q    Type
                         _______ _______ _______ _____ _____    ______ ____

>  <TORSDO>
F 2

$$$$
