=
 OpenBabel11042422373D

 33 39  0  0  1  0  0  0  0  0999 V2000
  161.5690  209.7430  150.5740 C   0  0  0  0  0  0  0  0  0  0  0  0
  161.1840  204.9900  148.4610 C   0  0  0  0  0  0  0  0  0  0  0  0
  159.8070  210.1510  152.7500 C   0  0  1  0  0  3  0  0  0  0  0  0
  161.9450  209.4530  149.3030 N   0  0  0  0  0  0  0  0  0  0  0  0
  160.5900  205.3640  151.1570 C   0  0  0  0  0  3  0  0  0  0  0  0
  161.3510  211.0660  151.0530 N   0  0  0  0  0  2  0  0  0  0  0  0
  159.9560  209.5640  155.2110 N   0  0  0  0  0  2  0  0  0  0  0  0
  160.8470  211.2510  152.4160 C   0  0  1  0  0  3  0  0  0  0  0  0
  161.0070  208.6340  154.9220 C   0  0  0  0  0  0  0  0  0  0  0  0
  161.8490  208.1070  149.2660 C   0  0  1  0  0  3  0  0  0  0  0  0
  161.3450  207.6450  150.4450 C   0  0  2  0  0  3  0  0  0  0  0  0
  160.8220  204.0660  150.6640 C   0  0  0  0  0  3  0  0  0  0  0  0
  160.3900  208.7290  152.5230 C   0  0  2  0  0  3  0  0  0  0  0  0
  158.3070  211.0040  154.4160 O   0  0  0  0  0  0  0  0  0  0  0  0
  160.5700  206.4320  150.2550 C   0  0  0  0  0  0  0  0  0  0  0  0
  160.6750  206.1940  148.8870 C   0  0  0  0  0  0  0  0  0  0  0  0
  161.3520  207.2800  148.1230 C   0  0  2  0  0  3  0  0  0  0  0  0
  161.2630  208.2720  153.6630 C   0  0  0  0  0  3  0  0  0  0  0  0
  161.1420  208.6730  151.2740 N   0  0  0  0  0  0  0  0  0  0  0  0
  162.3880  206.5280  147.4130 N   0  0  0  0  0  0  0  0  0  0  0  0
  159.2950  210.2670  154.1580 C   0  0  0  0  0  0  0  0  0  0  0  0
  162.2560  205.2680  147.5680 N   0  0  0  0  0  0  0  0  0  0  0  0
  161.1550  203.8660  149.3100 C   0  0  0  0  0  0  0  0  0  0  0  0
  160.8120  201.4190  148.6680 C   0  0  0  0  0  0  0  0  0  0  0  0
  159.6010  201.4040  149.0220 O   0  0  0  0  0  0  0  0  0  0  0  0
  161.6240  202.5770  148.8950 N   0  0  0  0  0  2  0  0  0  0  0  0
  161.3900  200.2910  148.0840 O   0  0  0  0  0  0  0  0  0  0  0  0
  161.2400  200.0020  146.7030 C   0  0  0  0  0  1  0  0  0  0  0  0
  160.2580  212.5800  152.5430 N   0  0  0  0  0  0  0  0  0  0  0  0
  160.3240  213.2070  151.2120 C   0  0  0  0  0  2  0  0  0  0  0  0
  159.0720  212.6260  151.6690 C   0  0  0  0  0  2  0  0  0  0  0  0
  161.8670  208.1280  156.0240 C   0  0  0  0  0  2  0  0  0  0  0  0
  162.2360  209.2250  156.9010 N   0  0  0  0  0  1  0  0  0  0  0  0
  1  6  1  0  0  0  0
  1 19  1  0  0  0  0
  2 16  2  0  0  0  0
  2 23  1  0  0  0  0
  3 21  1  1  0  0  0
  4  1  2  0  0  0  0
  6  8  1  0  0  0  0
  8 29  1  6  0  0  0
  8  3  1  0  0  0  0
  9  7  1  0  0  0  0
  9 32  1  0  0  0  0
 10  4  1  6  0  0  0
 10 11  1  0  0  0  0
 11 15  1  6  0  0  0
 11 19  1  0  0  0  0
 12  5  1  0  0  0  0
 13  3  1  0  0  0  0
 13 18  1  1  0  0  0
 15  5  2  0  0  0  0
 16 15  1  0  0  0  0
 17 20  1  1  0  0  0
 17 16  1  0  0  0  0
 17 10  1  0  0  0  0
 18  9  2  0  0  0  0
 19 13  1  0  0  0  0
 20 22  2  0  0  0  0
 21 14  2  0  0  0  0
 21  7  1  0  0  0  0
 22  2  1  0  0  0  0
 23 12  2  0  0  0  0
 24 26  1  0  0  0  0
 24 25  2  0  0  0  0
 26 23  1  0  0  0  0
 27 24  1  0  0  0  0
 28 27  1  0  0  0  0
 30 31  1  0  0  0  0
 30 29  1  0  0  0  0
 31 29  1  0  0  0  0
 32 33  1  0  0  0  0
M  END
>  <MODEL>
1

>  <REMARK>
 VINA RESULT:      -8.1      0.000      0.000
  Name = 
  4 active torsions:
  status: ('A' for Active; 'I' for Inactive)
    1  A    between atoms: C_2  and  O_25
    2  A    between atoms: C_6  and  C_11
    3  A    between atoms: C_10  and  N_13
    4  A    between atoms: N_24  and  C_32
                            x       y       z     vdW  Elec       q    Type
                         _______ _______ _______ _____ _____    ______ ____

>  <TORSDO>
F 4

$$$$
=
 OpenBabel11042422373D

 33 39  0  0  1  0  0  0  0  0999 V2000
  160.7460  206.4120  153.2030 C   0  0  0  0  0  0  0  0  0  0  0  0
  161.7560  205.4380  148.1800 C   0  0  0  0  0  0  0  0  0  0  0  0
  161.7980  208.8800  154.1030 C   0  0  1  0  0  3  0  0  0  0  0  0
  160.7560  205.1660  152.6670 N   0  0  0  0  0  0  0  0  0  0  0  0
  161.5400  208.0690  149.0680 C   0  0  0  0  0  3  0  0  0  0  0  0
  160.8070  206.6730  154.6020 N   0  0  0  0  0  2  0  0  0  0  0  0
  160.9440  211.2620  153.9600 N   0  0  0  0  0  2  0  0  0  0  0  0
  160.8930  208.0620  155.0600 C   0  0  1  0  0  3  0  0  0  0  0  0
  160.0280  210.8690  152.9310 C   0  0  0  0  0  0  0  0  0  0  0  0
  160.8670  205.4140  151.3440 C   0  0  1  0  0  3  0  0  0  0  0  0
  161.0100  206.7520  151.1340 C   0  0  2  0  0  3  0  0  0  0  0  0
  161.4690  207.7860  147.6910 C   0  0  0  0  0  3  0  0  0  0  0  0
  161.3140  208.7710  152.6300 C   0  0  2  0  0  3  0  0  0  0  0  0
  162.7440  210.7090  155.3310 O   0  0  0  0  0  0  0  0  0  0  0  0
  161.8140  207.0240  149.9560 C   0  0  0  0  0  0  0  0  0  0  0  0
  162.1120  205.7540  149.4700 C   0  0  0  0  0  0  0  0  0  0  0  0
  161.6800  204.6380  150.3570 C   0  0  2  0  0  3  0  0  0  0  0  0
  160.1510  209.6810  152.3340 C   0  0  0  0  0  3  0  0  0  0  0  0
  160.9570  207.3940  152.3050 N   0  0  0  0  0  0  0  0  0  0  0  0
  160.8990  203.8190  149.4290 N   0  0  0  0  0  0  0  0  0  0  0  0
  161.8790  210.3270  154.5010 C   0  0  0  0  0  0  0  0  0  0  0  0
  160.9880  204.2410  148.2270 N   0  0  0  0  0  0  0  0  0  0  0  0
  161.5440  206.4570  147.2310 C   0  0  0  0  0  0  0  0  0  0  0  0
  161.9070  205.2540  145.0090 C   0  0  0  0  0  0  0  0  0  0  0  0
  163.0070  204.7440  145.3630 O   0  0  0  0  0  0  0  0  0  0  0  0
  161.2240  206.1790  145.8620 N   0  0  0  0  0  2  0  0  0  0  0  0
  161.3600  204.9530  143.7610 O   0  0  0  0  0  0  0  0  0  0  0  0
  161.5100  205.8200  142.6470 C   0  0  0  0  0  1  0  0  0  0  0  0
  161.4110  208.0960  156.4230 N   0  0  0  0  0  0  0  0  0  0  0  0
  160.3790  208.7300  157.2600 C   0  0  0  0  0  2  0  0  0  0  0  0
  160.5130  207.2830  157.2610 C   0  0  0  0  0  2  0  0  0  0  0  0
  158.8880  211.7560  152.5800 C   0  0  0  0  0  2  0  0  0  0  0  0
  159.3890  213.0050  152.0330 N   0  0  0  0  0  1  0  0  0  0  0  0
  1  6  1  0  0  0  0
  2 22  1  0  0  0  0
  2 16  1  0  0  0  0
  3 21  1  1  0  0  0
  3  8  1  0  0  0  0
  4  1  2  0  0  0  0
  5 15  1  0  0  0  0
  6  8  1  0  0  0  0
  7 21  1  0  0  0  0
  8 29  1  1  0  0  0
  9  7  1  0  0  0  0
 10  4  1  1  0  0  0
 11 15  1  1  0  0  0
 11 10  1  0  0  0  0
 11 19  1  0  0  0  0
 12  5  2  0  0  0  0
 13 18  1  1  0  0  0
 13  3  1  0  0  0  0
 16 15  2  0  0  0  0
 16 17  1  0  0  0  0
 17 20  1  6  0  0  0
 17 10  1  0  0  0  0
 18  9  2  0  0  0  0
 19 13  1  0  0  0  0
 19  1  1  0  0  0  0
 21 14  2  0  0  0  0
 22 20  2  0  0  0  0
 23 12  1  0  0  0  0
 23  2  2  0  0  0  0
 24 25  2  0  0  0  0
 24 26  1  0  0  0  0
 26 23  1  0  0  0  0
 27 24  1  0  0  0  0
 28 27  1  0  0  0  0
 29 30  1  0  0  0  0
 29 31  1  0  0  0  0
 30 31  1  0  0  0  0
 32  9  1  0  0  0  0
 33 32  1  0  0  0  0
M  END
>  <MODEL>
2

>  <REMARK>
 VINA RESULT:      -8.0      2.511      4.493
  Name = 
  4 active torsions:
  status: ('A' for Active; 'I' for Inactive)
    1  A    between atoms: C_2  and  O_25
    2  A    between atoms: C_6  and  C_11
    3  A    between atoms: C_10  and  N_13
    4  A    between atoms: N_24  and  C_32
                            x       y       z     vdW  Elec       q    Type
                         _______ _______ _______ _____ _____    ______ ____

>  <TORSDO>
F 4

$$$$
=
 OpenBabel11042422373D

 33 39  0  0  1  0  0  0  0  0999 V2000
  161.0960  210.4110  152.4320 C   0  0  0  0  0  0  0  0  0  0  0  0
  160.7480  213.3000  148.1040 C   0  0  0  0  0  0  0  0  0  0  0  0
  160.4280  211.8290  154.7870 C   0  0  1  0  0  3  0  0  0  0  0  0
  161.7640  210.1300  151.2850 N   0  0  0  0  0  0  0  0  0  0  0  0
  159.1290  213.8800  150.2950 C   0  0  0  0  0  3  0  0  0  0  0  0
  161.4270  209.8500  153.6990 N   0  0  0  0  0  2  0  0  0  0  0  0
  158.2120  212.3680  155.8950 N   0  0  0  0  0  2  0  0  0  0  0  0
  160.6990  210.3070  154.8860 C   0  0  1  0  0  3  0  0  0  0  0  0
  157.5300  212.0580  154.6740 C   0  0  0  0  0  0  0  0  0  0  0  0
  161.2300  211.0080  150.4090 C   0  0  1  0  0  3  0  0  0  0  0  0
  160.3530  211.8290  151.0520 C   0  0  2  0  0  3  0  0  0  0  0  0
  158.8140  214.4130  149.0310 C   0  0  0  0  0  3  0  0  0  0  0  0
  159.6920  212.1920  153.4680 C   0  0  2  0  0  3  0  0  0  0  0  0
  160.2300  212.7110  157.0090 O   0  0  0  0  0  0  0  0  0  0  0  0
  160.3090  213.1440  150.4400 C   0  0  0  0  0  0  0  0  0  0  0  0
  161.1990  213.0350  149.3760 C   0  0  0  0  0  0  0  0  0  0  0  0
  161.9610  211.7550  149.3390 C   0  0  2  0  0  3  0  0  0  0  0  0
  158.2130  211.9160  153.5350 C   0  0  0  0  0  3  0  0  0  0  0  0
  160.2760  211.4760  152.3380 N   0  0  0  0  0  0  0  0  0  0  0  0
  161.6880  211.2970  147.9760 N   0  0  0  0  0  0  0  0  0  0  0  0
  159.6400  212.3400  155.9600 C   0  0  0  0  0  0  0  0  0  0  0  0
  161.0620  212.1760  147.2920 N   0  0  0  0  0  0  0  0  0  0  0  0
  159.6060  214.1020  147.9090 C   0  0  0  0  0  0  0  0  0  0  0  0
  158.1370  213.7400  145.8530 C   0  0  0  0  0  0  0  0  0  0  0  0
  157.7460  212.5980  146.2230 O   0  0  0  0  0  0  0  0  0  0  0  0
  159.1260  214.4520  146.6040 N   0  0  0  0  0  2  0  0  0  0  0  0
  157.6360  214.3100  144.6820 O   0  0  0  0  0  0  0  0  0  0  0  0
  158.3840  214.3230  143.4760 C   0  0  0  0  0  1  0  0  0  0  0  0
  161.4730  209.9920  156.0830 N   0  0  0  0  0  0  0  0  0  0  0  0
  160.5760  209.2620  156.9940 C   0  0  0  0  0  2  0  0  0  0  0  0
  161.5400  208.5240  156.1960 C   0  0  0  0  0  2  0  0  0  0  0  0
  156.0630  211.8170  154.6890 C   0  0  0  0  0  2  0  0  0  0  0  0
  155.7750  210.6040  155.4350 N   0  0  0  0  0  1  0  0  0  0  0  0
  1  6  1  0  0  0  0
  2 16  1  0  0  0  0
  3  8  1  0  0  0  0
  3 21  1  1  0  0  0
  4  1  2  0  0  0  0
  5 15  1  0  0  0  0
  6  8  1  0  0  0  0
  7 21  1  0  0  0  0
  8 29  1  1  0  0  0
  9 32  1  0  0  0  0
  9  7  1  0  0  0  0
 10 11  1  0  0  0  0
 10  4  1  1  0  0  0
 11 15  1  1  0  0  0
 11 19  1  0  0  0  0
 12  5  2  0  0  0  0
 13 18  1  1  0  0  0
 13  3  1  0  0  0  0
 16 15  2  0  0  0  0
 17 20  1  6  0  0  0
 17 16  1  0  0  0  0
 17 10  1  0  0  0  0
 18  9  2  0  0  0  0
 19  1  1  0  0  0  0
 19 13  1  0  0  0  0
 21 14  2  0  0  0  0
 22 20  2  0  0  0  0
 22  2  1  0  0  0  0
 23  2  2  0  0  0  0
 23 12  1  0  0  0  0
 24 25  2  0  0  0  0
 24 26  1  0  0  0  0
 26 23  1  0  0  0  0
 27 24  1  0  0  0  0
 28 27  1  0  0  0  0
 29 31  1  0  0  0  0
 29 30  1  0  0  0  0
 31 30  1  0  0  0  0
 32 33  1  0  0  0  0
M  END
>  <MODEL>
3

>  <REMARK>
 VINA RESULT:      -5.6      5.386      7.441
  Name = 
  4 active torsions:
  status: ('A' for Active; 'I' for Inactive)
    1  A    between atoms: C_2  and  O_25
    2  A    between atoms: C_6  and  C_11
    3  A    between atoms: C_10  and  N_13
    4  A    between atoms: N_24  and  C_32
                            x       y       z     vdW  Elec       q    Type
                         _______ _______ _______ _____ _____    ______ ____

>  <TORSDO>
F 4

$$$$
=
 OpenBabel11042422373D

 33 39  0  0  1  0  0  0  0  0999 V2000
  160.8620  209.3210  153.4220 C   0  0  0  0  0  0  0  0  0  0  0  0
  161.9510  210.9400  148.5860 C   0  0  0  0  0  0  0  0  0  0  0  0
  160.7660  211.4210  155.3160 C   0  0  1  0  0  3  0  0  0  0  0  0
  161.3930  208.5210  152.4640 N   0  0  0  0  0  0  0  0  0  0  0  0
  160.6450  212.6450  150.3600 C   0  0  0  0  0  3  0  0  0  0  0  0
  160.8720  209.0060  154.8110 N   0  0  0  0  0  2  0  0  0  0  0  0
  158.9470  213.0630  155.9660 N   0  0  0  0  0  2  0  0  0  0  0  0
  160.3600  209.9940  155.7650 C   0  0  1  0  0  3  0  0  0  0  0  0
  158.2480  212.7640  154.7510 C   0  0  0  0  0  0  0  0  0  0  0  0
  161.3190  209.2940  151.3590 C   0  0  1  0  0  3  0  0  0  0  0  0
  160.8490  210.5290  151.6880 C   0  0  2  0  0  3  0  0  0  0  0  0
  160.6380  212.9300  148.9820 C   0  0  0  0  0  3  0  0  0  0  0  0
  160.3080  211.7120  153.8600 C   0  0  2  0  0  3  0  0  0  0  0  0
  160.8720  212.8260  157.2570 O   0  0  0  0  0  0  0  0  0  0  0  0
  161.3930  211.5560  150.8180 C   0  0  0  0  0  0  0  0  0  0  0  0
  162.1950  210.8380  149.9360 C   0  0  0  0  0  0  0  0  0  0  0  0
  162.3410  209.3940  150.2710 C   0  0  2  0  0  3  0  0  0  0  0  0
  158.8500  212.0820  153.7740 C   0  0  0  0  0  3  0  0  0  0  0  0
  160.5770  210.5670  152.9960 N   0  0  0  0  0  0  0  0  0  0  0  0
  161.9550  208.7640  149.0080 N   0  0  0  0  0  0  0  0  0  0  0  0
  160.2230  212.4780  156.2350 C   0  0  0  0  0  0  0  0  0  0  0  0
  161.7900  209.6220  148.0760 N   0  0  0  0  0  0  0  0  0  0  0  0
  161.2680  212.0590  148.0710 C   0  0  0  0  0  0  0  0  0  0  0  0
  161.7810  213.0940  145.7940 C   0  0  0  0  0  0  0  0  0  0  0  0
  162.6050  213.9290  146.2610 O   0  0  0  0  0  0  0  0  0  0  0  0
  161.0350  212.2390  146.6670 N   0  0  0  0  0  2  0  0  0  0  0  0
  161.5580  213.0170  144.4190 O   0  0  0  0  0  0  0  0  0  0  0  0
  162.6270  212.9380  143.4890 C   0  0  0  0  0  1  0  0  0  0  0  0
  160.8770  209.7000  157.0970 N   0  0  0  0  0  0  0  0  0  0  0  0
  161.4100  208.3280  157.0570 C   0  0  0  0  0  2  0  0  0  0  0  0
  162.3240  209.4540  156.9680 C   0  0  0  0  0  2  0  0  0  0  0  0
  156.8180  213.1460  154.6100 C   0  0  0  0  0  2  0  0  0  0  0  0
  156.0040  212.3360  155.4990 N   0  0  0  0  0  1  0  0  0  0  0  0
  1  6  1  0  0  0  0
  2 16  1  0  0  0  0
  3  8  1  0  0  0  0
  3 21  1  1  0  0  0
  4  1  2  0  0  0  0
  5 15  1  0  0  0  0
  6  8  1  0  0  0  0
  7 21  1  0  0  0  0
  8 29  1  1  0  0  0
  9  7  1  0  0  0  0
 10 11  1  0  0  0  0
 10  4  1  1  0  0  0
 11 15  1  1  0  0  0
 11 19  1  0  0  0  0
 12  5  2  0  0  0  0
 13 18  1  1  0  0  0
 13  3  1  0  0  0  0
 16 17  1  0  0  0  0
 16 15  2  0  0  0  0
 17 20  1  6  0  0  0
 17 10  1  0  0  0  0
 18  9  2  0  0  0  0
 19  1  1  0  0  0  0
 19 13  1  0  0  0  0
 21 14  2  0  0  0  0
 22  2  1  0  0  0  0
 22 20  2  0  0  0  0
 23  2  2  0  0  0  0
 23 12  1  0  0  0  0
 24 25  2  0  0  0  0
 24 26  1  0  0  0  0
 26 23  1  0  0  0  0
 27 24  1  0  0  0  0
 28 27  1  0  0  0  0
 30 29  1  0  0  0  0
 31 30  1  0  0  0  0
 31 29  1  0  0  0  0
 32  9  1  0  0  0  0
 32 33  1  0  0  0  0
M  END
>  <MODEL>
4

>  <REMARK>
 VINA RESULT:      -5.6      4.801      6.795
  Name = 
  4 active torsions:
  status: ('A' for Active; 'I' for Inactive)
    1  A    between atoms: C_2  and  O_25
    2  A    between atoms: C_6  and  C_11
    3  A    between atoms: C_10  and  N_13
    4  A    between atoms: N_24  and  C_32
                            x       y       z     vdW  Elec       q    Type
                         _______ _______ _______ _____ _____    ______ ____

>  <TORSDO>
F 4

$$$$
=
 OpenBabel11042422373D

 33 39  0  0  1  0  0  0  0  0999 V2000
  159.7070  209.2950  154.3500 C   0  0  0  0  0  0  0  0  0  0  0  0
  162.5540  207.1720  150.5300 C   0  0  0  0  0  0  0  0  0  0  0  0
  159.8530  212.1200  154.4230 C   0  0  1  0  0  3  0  0  0  0  0  0
  160.1590  208.0160  154.3710 N   0  0  0  0  0  0  0  0  0  0  0  0
  161.5070  209.7350  150.2220 C   0  0  0  0  0  3  0  0  0  0  0  0
  159.2310  209.9860  155.5010 N   0  0  0  0  0  2  0  0  0  0  0  0
  158.6260  213.9340  153.1460 N   0  0  0  0  0  2  0  0  0  0  0  0
  158.8660  211.4000  155.3760 C   0  0  1  0  0  3  0  0  0  0  0  0
  158.2210  212.9680  152.1690 C   0  0  0  0  0  0  0  0  0  0  0  0
  160.6620  207.8590  153.1280 C   0  0  1  0  0  3  0  0  0  0  0  0
  160.5880  209.0350  152.4460 C   0  0  2  0  0  3  0  0  0  0  0  0
  161.9720  209.0280  149.0970 C   0  0  0  0  0  3  0  0  0  0  0  0
  159.9360  211.4070  153.0450 C   0  0  2  0  0  3  0  0  0  0  0  0
  159.9220  214.4430  155.0140 O   0  0  0  0  0  0  0  0  0  0  0  0
  161.6710  209.1660  151.4890 C   0  0  0  0  0  0  0  0  0  0  0  0
  162.3740  207.9730  151.6330 C   0  0  0  0  0  0  0  0  0  0  0  0
  161.9050  207.1140  152.7570 C   0  0  2  0  0  3  0  0  0  0  0  0
  158.7830  211.7570  152.1410 C   0  0  0  0  0  3  0  0  0  0  0  0
  160.0060  209.9590  153.2160 N   0  0  0  0  0  0  0  0  0  0  0  0
  161.6770  205.8420  152.0710 N   0  0  0  0  0  0  0  0  0  0  0  0
  159.4920  213.5640  154.2210 C   0  0  0  0  0  0  0  0  0  0  0  0
  162.0820  205.8710  150.8600 N   0  0  0  0  0  0  0  0  0  0  0  0
  162.4730  207.7190  149.2350 C   0  0  0  0  0  0  0  0  0  0  0  0
  161.7160  206.2080  147.3210 C   0  0  0  0  0  0  0  0  0  0  0  0
  160.5590  206.0360  147.7960 O   0  0  0  0  0  0  0  0  0  0  0  0
  162.7050  206.9380  148.0540 N   0  0  0  0  0  2  0  0  0  0  0  0
  162.0600  205.6550  146.0870 O   0  0  0  0  0  0  0  0  0  0  0  0
  161.6730  204.3390  145.7210 C   0  0  0  0  0  1  0  0  0  0  0  0
  158.8680  212.0220  156.6950 N   0  0  0  0  0  0  0  0  0  0  0  0
  157.9030  213.1340  156.6470 C   0  0  0  0  0  2  0  0  0  0  0  0
  157.5140  211.8750  157.2590 C   0  0  0  0  0  2  0  0  0  0  0  0
  157.1120  213.2870  151.2320 C   0  0  0  0  0  2  0  0  0  0  0  0
  157.6220  213.3540  149.8740 N   0  0  0  0  0  1  0  0  0  0  0  0
  1  4  2  0  0  0  0
  1  6  1  0  0  0  0
  2 22  1  0  0  0  0
  2 16  1  0  0  0  0
  3 21  1  6  0  0  0
  3  8  1  0  0  0  0
  5 15  1  0  0  0  0
  7 21  1  0  0  0  0
  8  6  1  0  0  0  0
  8 29  1  1  0  0  0
  9  7  1  0  0  0  0
 10  4  1  1  0  0  0
 11 15  1  1  0  0  0
 11 10  1  0  0  0  0
 11 19  1  0  0  0  0
 12 23  1  0  0  0  0
 12  5  2  0  0  0  0
 13 18  1  6  0  0  0
 13 19  1  0  0  0  0
 13  3  1  0  0  0  0
 15 16  2  0  0  0  0
 17 16  1  6  0  0  0
 17 10  1  0  0  0  0
 18  9  2  0  0  0  0
 19  1  1  0  0  0  0
 20 17  1  0  0  0  0
 21 14  2  0  0  0  0
 22 20  2  0  0  0  0
 23  2  2  0  0  0  0
 24 25  2  0  0  0  0
 24 26  1  0  0  0  0
 26 23  1  0  0  0  0
 27 24  1  0  0  0  0
 28 27  1  0  0  0  0
 29 31  1  0  0  0  0
 30 29  1  0  0  0  0
 30 31  1  0  0  0  0
 32  9  1  0  0  0  0
 33 32  1  0  0  0  0
M  END
>  <MODEL>
5

>  <REMARK>
 VINA RESULT:      -5.2      2.678      4.816
  Name = 
  4 active torsions:
  status: ('A' for Active; 'I' for Inactive)
    1  A    between atoms: C_2  and  O_25
    2  A    between atoms: C_6  and  C_11
    3  A    between atoms: C_10  and  N_13
    4  A    between atoms: N_24  and  C_32
                            x       y       z     vdW  Elec       q    Type
                         _______ _______ _______ _____ _____    ______ ____

>  <TORSDO>
F 4

$$$$
