=
 OpenBabel11052411183D

 31 31  0  0  1  0  0  0  0  0999 V2000
  161.1270  207.3520  150.9740 C   0  0  0  0  0  3  0  0  0  0  0  0
  161.3450  207.2730  153.3770 C   0  0  0  0  0  3  0  0  0  0  0  0
  161.0920  203.7880  152.1220 N   0  0  0  0  0  1  0  0  0  0  0  0
  161.1170  205.2130  152.1140 C   0  0  0  0  0  0  0  0  0  0  0  0
  161.2760  208.0110  152.1940 C   0  0  0  0  0  0  0  0  0  0  0  0
  161.0450  205.9520  150.9060 C   0  0  0  0  0  0  0  0  0  0  0  0
  161.2640  205.8800  153.3340 C   0  0  0  0  0  3  0  0  0  0  0  0
  161.4300  209.7600  152.2320 S   0  0  0  0  0  0  0  0  0  0  0  0
  161.8740  210.2500  150.8830 O   0  0  0  0  0  0  0  0  0  0  0  0
  162.4660  210.1530  153.2490 O   0  0  0  0  0  0  0  0  0  0  0  0
  159.9050  210.4840  152.6250 N   0  0  0  0  0  2  0  0  0  0  0  0
  160.0390  211.1730  153.9020 C   0  0  1  0  0  3  0  0  0  0  0  0
  159.3720  212.5390  153.8250 C   0  0  0  0  0  2  0  0  0  0  0  0
  157.8610  212.4060  153.7380 C   0  0  0  0  0  2  0  0  0  0  0  0
  157.1810  213.3340  154.7310 C   0  0  0  0  0  2  0  0  0  0  0  0
  155.9690  211.3000  155.5090 C   0  0  0  0  0  1  0  0  0  0  0  0
  155.8370  212.7680  155.1530 C   0  0  0  0  0  2  0  0  0  0  0  0
  159.4560  210.3700  154.9730 N   0  0  0  0  0  2  0  0  0  0  0  0
  160.1370  208.6930  156.5160 C   0  0  0  0  0  2  0  0  0  0  0  0
  160.2070  209.9490  156.1080 C   0  0  0  0  0  3  0  0  0  0  0  0
  161.2390  204.0250  149.3990 C   0  0  0  0  0  3  0  0  0  0  0  0
  160.9190  205.3200  149.5630 C   0  0  0  0  0  0  0  0  0  0  0  0
  161.1420  203.2620  148.1860 N   0  0  0  0  0  2  0  0  0  0  0  0
  160.9220  201.8290  148.0810 C   0  0  0  0  0  2  0  0  0  0  0  0
  160.9200  201.2160  149.4650 C   0  0  0  0  0  1  0  0  0  0  0  0
  160.3960  206.1540  148.4300 C   0  0  0  0  0  2  0  0  0  0  0  0
  161.5270  206.5200  147.4820 C   0  0  0  0  0  2  0  0  0  0  0  0
  161.1340  206.2860  146.1370 O   0  0  0  0  0  0  0  0  0  0  0  0
  161.8630  205.4520  145.2900 C   0  0  0  0  0  0  0  0  0  0  0  0
  163.0410  204.8540  145.7210 O   0  0  0  0  0  1  0  0  0  0  0  0
  161.4540  205.2450  144.1180 O   0  0  0  0  0  0  0  0  0  0  0  0
  1  5  1  0  0  0  0
  4  3  1  0  0  0  0
  4  7  2  0  0  0  0
  5  8  1  0  0  0  0
  5  2  2  0  0  0  0
  6  1  2  0  0  0  0
  6  4  1  0  0  0  0
  7  2  1  0  0  0  0
  8 11  1  0  0  0  0
  8 10  2  0  0  0  0
  9  8  2  0  0  0  0
 11 12  1  0  0  0  0
 12 13  1  6  0  0  0
 12 18  1  0  0  0  0
 14 13  1  0  0  0  0
 14 15  1  0  0  0  0
 15 17  1  0  0  0  0
 17 16  1  0  0  0  0
 18 20  1  0  0  0  0
 20 19  2  0  0  0  0
 21 22  2  0  0  0  0
 22  6  1  0  0  0  0
 23 21  1  0  0  0  0
 24 23  1  0  0  0  0
 24 25  1  0  0  0  0
 26 22  1  0  0  0  0
 27 26  1  0  0  0  0
 28 27  1  0  0  0  0
 29 30  1  0  0  0  0
 29 28  1  0  0  0  0
 31 29  2  0  0  0  0
M  END
>  <MODEL>
1

>  <REMARK>
 VINA RESULT:      -6.8      0.000      0.000
  Name = 
  16 active torsions:
  status: ('A' for Active; 'I' for Inactive)
    1  A    between atoms: C_1  and  N_7
    2  A    between atoms: C_2  and  O_8
    3  A    between atoms: C_3  and  O_8
    4  A    between atoms: C_3  and  C_28
    5  A    between atoms: C_4  and  C_25
    6  A    between atoms: C_4  and  C_26
    7  A    between atoms: S_6  and  N_16
    8  A    between atoms: S_6  and  C_21
    9  A    between atoms: N_7  and  C_11
   10  A    between atoms: C_9  and  C_15
   11  A    between atoms: C_9  and  N_16
   12  A    between atoms: C_9  and  N_29
   13  A    between atoms: C_14  and  C_27
   14  A    between atoms: C_14  and  C_28
   15  A    between atoms: C_15  and  C_25
   16  A    between atoms: N_29  and  C_30
                            x       y       z     vdW  Elec       q    Type
                         _______ _______ _______ _____ _____    ______ ____

>  <TORSDO>
F 16

$$$$
=
 OpenBabel11052411183D

 31 31  0  0  1  0  0  0  0  0999 V2000
  161.1010  207.4450  150.9960 C   0  0  0  0  0  3  0  0  0  0  0  0
  161.2540  207.4280  153.4060 C   0  0  0  0  0  3  0  0  0  0  0  0
  161.0670  203.9110  152.2330 N   0  0  0  0  0  1  0  0  0  0  0  0
  161.0790  205.3350  152.1900 C   0  0  0  0  0  0  0  0  0  0  0  0
  161.2110  208.1360  152.2040 C   0  0  0  0  0  0  0  0  0  0  0  0
  161.0340  206.0440  150.9620 C   0  0  0  0  0  0  0  0  0  0  0  0
  161.1870  206.0350  153.3960 C   0  0  0  0  0  3  0  0  0  0  0  0
  161.3480  209.8870  152.2020 S   0  0  0  0  0  0  0  0  0  0  0  0
  161.7740  210.3510  150.8370 O   0  0  0  0  0  0  0  0  0  0  0  0
  162.3910  210.3120  153.1990 O   0  0  0  0  0  0  0  0  0  0  0  0
  159.8200  210.6050  152.5940 N   0  0  0  0  0  2  0  0  0  0  0  0
  160.0150  212.0400  152.7550 C   0  0  1  0  0  3  0  0  0  0  0  0
  159.2010  212.7920  151.7110 C   0  0  0  0  0  2  0  0  0  0  0  0
  160.0770  213.7490  150.9190 C   0  0  0  0  0  2  0  0  0  0  0  0
  160.2010  213.2950  149.4740 C   0  0  0  0  0  2  0  0  0  0  0  0
  162.2420  212.7340  148.1570 C   0  0  0  0  0  1  0  0  0  0  0  0
  161.4740  213.8420  148.8540 C   0  0  0  0  0  2  0  0  0  0  0  0
  159.6400  212.4530  154.1040 N   0  0  0  0  0  2  0  0  0  0  0  0
  159.2580  210.9340  155.8930 C   0  0  0  0  0  2  0  0  0  0  0  0
  160.0820  211.7580  155.2660 C   0  0  0  0  0  3  0  0  0  0  0  0
  161.2150  204.0630  149.5230 C   0  0  0  0  0  3  0  0  0  0  0  0
  160.9500  205.3770  149.6320 C   0  0  0  0  0  0  0  0  0  0  0  0
  161.1470  203.2690  148.3290 N   0  0  0  0  0  2  0  0  0  0  0  0
  160.8090  201.8570  148.2480 C   0  0  0  0  0  2  0  0  0  0  0  0
  160.9870  201.2170  149.6070 C   0  0  0  0  0  1  0  0  0  0  0  0
  160.5330  206.1990  148.4480 C   0  0  0  0  0  2  0  0  0  0  0  0
  161.7530  206.6230  147.6460 C   0  0  0  0  0  2  0  0  0  0  0  0
  161.5390  206.3750  146.2640 O   0  0  0  0  0  0  0  0  0  0  0  0
  162.1330  205.2970  145.6070 C   0  0  0  0  0  0  0  0  0  0  0  0
  163.3590  204.7950  146.0290 O   0  0  0  0  0  1  0  0  0  0  0  0
  161.5570  204.7780  144.6160 O   0  0  0  0  0  0  0  0  0  0  0  0
  1  5  1  0  0  0  0
  4  3  1  0  0  0  0
  4  7  2  0  0  0  0
  5  2  2  0  0  0  0
  6  1  2  0  0  0  0
  6  4  1  0  0  0  0
  7  2  1  0  0  0  0
  8  5  1  0  0  0  0
  8 11  1  0  0  0  0
  8 10  2  0  0  0  0
  9  8  2  0  0  0  0
 11 12  1  0  0  0  0
 12 13  1  6  0  0  0
 12 18  1  0  0  0  0
 14 13  1  0  0  0  0
 15 14  1  0  0  0  0
 16 17  1  0  0  0  0
 17 15  1  0  0  0  0
 18 20  1  0  0  0  0
 20 19  2  0  0  0  0
 21 22  2  0  0  0  0
 22  6  1  0  0  0  0
 23 21  1  0  0  0  0
 24 23  1  0  0  0  0
 24 25  1  0  0  0  0
 26 22  1  0  0  0  0
 27 26  1  0  0  0  0
 28 27  1  0  0  0  0
 29 30  1  0  0  0  0
 29 28  1  0  0  0  0
 31 29  2  0  0  0  0
M  END
>  <MODEL>
2

>  <REMARK>
 VINA RESULT:      -6.8      1.940      2.800
  Name = 
  16 active torsions:
  status: ('A' for Active; 'I' for Inactive)
    1  A    between atoms: C_1  and  N_7
    2  A    between atoms: C_2  and  O_8
    3  A    between atoms: C_3  and  O_8
    4  A    between atoms: C_3  and  C_28
    5  A    between atoms: C_4  and  C_25
    6  A    between atoms: C_4  and  C_26
    7  A    between atoms: S_6  and  N_16
    8  A    between atoms: S_6  and  C_21
    9  A    between atoms: N_7  and  C_11
   10  A    between atoms: C_9  and  C_15
   11  A    between atoms: C_9  and  N_16
   12  A    between atoms: C_9  and  N_29
   13  A    between atoms: C_14  and  C_27
   14  A    between atoms: C_14  and  C_28
   15  A    between atoms: C_15  and  C_25
   16  A    between atoms: N_29  and  C_30
                            x       y       z     vdW  Elec       q    Type
                         _______ _______ _______ _____ _____    ______ ____

>  <TORSDO>
F 16

$$$$
=
 OpenBabel11052411183D

 31 31  0  0  1  0  0  0  0  0999 V2000
  161.0410  207.4040  151.0520 C   0  0  0  0  0  3  0  0  0  0  0  0
  161.2640  207.3160  153.4540 C   0  0  0  0  0  3  0  0  0  0  0  0
  161.1480  203.8330  152.1750 N   0  0  0  0  0  1  0  0  0  0  0  0
  161.1160  205.2580  152.1770 C   0  0  0  0  0  0  0  0  0  0  0  0
  161.1650  208.0600  152.2780 C   0  0  0  0  0  0  0  0  0  0  0  0
  161.0140  206.0020  150.9740 C   0  0  0  0  0  0  0  0  0  0  0  0
  161.2380  205.9220  153.4020 C   0  0  0  0  0  3  0  0  0  0  0  0
  161.2510  209.8130  152.3280 S   0  0  0  0  0  0  0  0  0  0  0  0
  161.8140  210.3210  151.0310 O   0  0  0  0  0  0  0  0  0  0  0  0
  162.1600  210.2420  153.4460 O   0  0  0  0  0  0  0  0  0  0  0  0
  159.6670  210.4810  152.5590 N   0  0  0  0  0  2  0  0  0  0  0  0
  159.7130  211.3860  153.7000 C   0  0  1  0  0  3  0  0  0  0  0  0
  159.4800  212.8160  153.2330 C   0  0  0  0  0  2  0  0  0  0  0  0
  158.6630  212.8470  151.9510 C   0  0  0  0  0  2  0  0  0  0  0  0
  159.0200  214.0640  151.1150 C   0  0  0  0  0  2  0  0  0  0  0  0
  160.6410  213.2930  149.3850 C   0  0  0  0  0  1  0  0  0  0  0  0
  159.1980  213.6740  149.6590 C   0  0  0  0  0  2  0  0  0  0  0  0
  158.7190  210.9950  154.6950 N   0  0  0  0  0  2  0  0  0  0  0  0
  159.9620  209.5700  156.1370 C   0  0  0  0  0  2  0  0  0  0  0  0
  159.0790  210.5450  155.9980 C   0  0  0  0  0  3  0  0  0  0  0  0
  161.2370  204.0810  149.4640 C   0  0  0  0  0  3  0  0  0  0  0  0
  160.9120  205.3750  149.6270 C   0  0  0  0  0  0  0  0  0  0  0  0
  161.1610  203.3230  148.2460 N   0  0  0  0  0  2  0  0  0  0  0  0
  160.8950  201.8980  148.1300 C   0  0  0  0  0  2  0  0  0  0  0  0
  160.8750  201.2750  149.5090 C   0  0  0  0  0  1  0  0  0  0  0  0
  160.4070  206.2130  148.4880 C   0  0  0  0  0  2  0  0  0  0  0  0
  161.5600  206.6180  147.5830 C   0  0  0  0  0  2  0  0  0  0  0  0
  161.2220  206.3780  146.2240 O   0  0  0  0  0  0  0  0  0  0  0  0
  161.9510  205.4950  145.4280 C   0  0  0  0  0  0  0  0  0  0  0  0
  161.4810  205.1110  144.1780 O   0  0  0  0  0  0  0  0  0  0  0  0
  163.0430  205.0340  145.8500 O   0  0  0  0  0  1  0  0  0  0  0  0
  1  5  1  0  0  0  0
  3  4  1  0  0  0  0
  4  7  2  0  0  0  0
  5  8  1  0  0  0  0
  5  2  2  0  0  0  0
  6  1  2  0  0  0  0
  6  4  1  0  0  0  0
  7  2  1  0  0  0  0
  8 11  1  0  0  0  0
  8 10  2  0  0  0  0
  9  8  2  0  0  0  0
 11 12  1  0  0  0  0
 12 13  1  6  0  0  0
 12 18  1  0  0  0  0
 14 13  1  0  0  0  0
 15 14  1  0  0  0  0
 16 17  1  0  0  0  0
 17 15  1  0  0  0  0
 18 20  1  0  0  0  0
 20 19  2  0  0  0  0
 21 22  2  0  0  0  0
 22  6  1  0  0  0  0
 23 21  1  0  0  0  0
 24 23  1  0  0  0  0
 24 25  1  0  0  0  0
 26 22  1  0  0  0  0
 27 26  1  0  0  0  0
 28 27  1  0  0  0  0
 29 31  1  0  0  0  0
 29 28  1  0  0  0  0
 30 29  2  0  0  0  0
M  END
>  <MODEL>
3

>  <REMARK>
 VINA RESULT:      -6.8      1.373      2.139
  Name = 
  16 active torsions:
  status: ('A' for Active; 'I' for Inactive)
    1  A    between atoms: C_1  and  N_7
    2  A    between atoms: C_2  and  O_8
    3  A    between atoms: C_3  and  O_8
    4  A    between atoms: C_3  and  C_28
    5  A    between atoms: C_4  and  C_25
    6  A    between atoms: C_4  and  C_26
    7  A    between atoms: S_6  and  N_16
    8  A    between atoms: S_6  and  C_21
    9  A    between atoms: N_7  and  C_11
   10  A    between atoms: C_9  and  C_15
   11  A    between atoms: C_9  and  N_16
   12  A    between atoms: C_9  and  N_29
   13  A    between atoms: C_14  and  C_27
   14  A    between atoms: C_14  and  C_28
   15  A    between atoms: C_15  and  C_25
   16  A    between atoms: N_29  and  C_30
                            x       y       z     vdW  Elec       q    Type
                         _______ _______ _______ _____ _____    ______ ____

>  <TORSDO>
F 16

$$$$
=
 OpenBabel11052411183D

 31 31  0  0  1  0  0  0  0  0999 V2000
  161.3870  208.7420  151.5230 C   0  0  0  0  0  3  0  0  0  0  0  0
  161.3710  206.3300  151.4330 C   0  0  0  0  0  3  0  0  0  0  0  0
  160.7590  207.3610  154.9470 N   0  0  0  0  0  1  0  0  0  0  0  0
  161.0400  207.4630  153.5530 C   0  0  0  0  0  0  0  0  0  0  0  0
  161.4910  207.5610  150.7880 C   0  0  0  0  0  0  0  0  0  0  0  0
  161.1600  208.7210  152.9090 C   0  0  0  0  0  0  0  0  0  0  0  0
  161.1470  206.2840  152.8100 C   0  0  0  0  0  3  0  0  0  0  0  0
  161.7190  207.6310  149.0470 S   0  0  0  0  0  0  0  0  0  0  0  0
  163.1310  207.2400  148.7150 O   0  0  0  0  0  0  0  0  0  0  0  0
  161.4840  209.0350  148.5640 O   0  0  0  0  0  0  0  0  0  0  0  0
  160.6270  206.5380  148.2600 N   0  0  0  0  0  2  0  0  0  0  0  0
  161.2870  206.0040  147.0760 C   0  0  1  0  0  3  0  0  0  0  0  0
  161.6260  204.5360  147.2930 C   0  0  0  0  0  2  0  0  0  0  0  0
  161.0230  204.0210  148.5900 C   0  0  0  0  0  2  0  0  0  0  0  0
  161.0640  202.5030  148.6370 C   0  0  0  0  0  2  0  0  0  0  0  0
  161.0670  202.6210  151.1270 C   0  0  0  0  0  1  0  0  0  0  0  0
  160.4130  201.9940  149.9100 C   0  0  0  0  0  2  0  0  0  0  0  0
  160.4350  206.1730  145.9030 N   0  0  0  0  0  2  0  0  0  0  0  0
  161.5650  205.4510  143.9390 C   0  0  0  0  0  2  0  0  0  0  0  0
  160.5340  205.3300  144.7590 C   0  0  0  0  0  3  0  0  0  0  0  0
  161.4920  210.1520  154.8750 C   0  0  0  0  0  3  0  0  0  0  0  0
  161.0290  210.0240  153.6190 C   0  0  0  0  0  0  0  0  0  0  0  0
  161.4730  211.3400  155.6810 N   0  0  0  0  0  2  0  0  0  0  0  0
  160.8620  211.4860  156.9930 C   0  0  0  0  0  2  0  0  0  0  0  0
  159.6920  210.5330  157.1120 C   0  0  0  0  0  1  0  0  0  0  0  0
  160.4070  211.1760  152.8850 C   0  0  0  0  0  2  0  0  0  0  0  0
  158.8910  211.0890  152.9580 C   0  0  0  0  0  2  0  0  0  0  0  0
  158.4100  211.8460  154.0600 O   0  0  0  0  0  0  0  0  0  0  0  0
  157.3050  212.6900  153.9490 C   0  0  0  0  0  0  0  0  0  0  0  0
  157.1930  213.5790  152.8860 O   0  0  0  0  0  0  0  0  0  0  0  0
  156.4040  212.6530  154.8260 O   0  0  0  0  0  1  0  0  0  0  0  0
  1  6  1  0  0  0  0
  2  7  2  0  0  0  0
  4  3  1  0  0  0  0
  5  2  1  0  0  0  0
  5  1  2  0  0  0  0
  6  4  2  0  0  0  0
  6 22  1  0  0  0  0
  7  4  1  0  0  0  0
  8  5  1  0  0  0  0
  9  8  2  0  0  0  0
 10  8  2  0  0  0  0
 11  8  1  0  0  0  0
 12 13  1  1  0  0  0
 12 11  1  0  0  0  0
 13 14  1  0  0  0  0
 14 15  1  0  0  0  0
 15 17  1  0  0  0  0
 17 16  1  0  0  0  0
 18 12  1  0  0  0  0
 19 20  2  0  0  0  0
 20 18  1  0  0  0  0
 21 23  1  0  0  0  0
 22 21  2  0  0  0  0
 23 24  1  0  0  0  0
 24 25  1  0  0  0  0
 26 27  1  0  0  0  0
 26 22  1  0  0  0  0
 27 28  1  0  0  0  0
 29 28  1  0  0  0  0
 29 31  1  0  0  0  0
 30 29  2  0  0  0  0
M  END
>  <MODEL>
4

>  <REMARK>
 VINA RESULT:      -6.6      2.609      9.096
  Name = 
  16 active torsions:
  status: ('A' for Active; 'I' for Inactive)
    1  A    between atoms: C_1  and  N_7
    2  A    between atoms: C_2  and  O_8
    3  A    between atoms: C_3  and  O_8
    4  A    between atoms: C_3  and  C_28
    5  A    between atoms: C_4  and  C_25
    6  A    between atoms: C_4  and  C_26
    7  A    between atoms: S_6  and  N_16
    8  A    between atoms: S_6  and  C_21
    9  A    between atoms: N_7  and  C_11
   10  A    between atoms: C_9  and  C_15
   11  A    between atoms: C_9  and  N_16
   12  A    between atoms: C_9  and  N_29
   13  A    between atoms: C_14  and  C_27
   14  A    between atoms: C_14  and  C_28
   15  A    between atoms: C_15  and  C_25
   16  A    between atoms: N_29  and  C_30
                            x       y       z     vdW  Elec       q    Type
                         _______ _______ _______ _____ _____    ______ ____

>  <TORSDO>
F 16

$$$$
=
 OpenBabel11052411183D

 31 31  0  0  1  0  0  0  0  0999 V2000
  161.0140  207.1960  150.9340 C   0  0  0  0  0  3  0  0  0  0  0  0
  161.2790  207.1350  153.3330 C   0  0  0  0  0  3  0  0  0  0  0  0
  161.1950  203.6390  152.0890 N   0  0  0  0  0  1  0  0  0  0  0  0
  161.1410  205.0620  152.0780 C   0  0  0  0  0  0  0  0  0  0  0  0
  161.1480  207.8650  152.1500 C   0  0  0  0  0  0  0  0  0  0  0  0
  161.0080  205.7930  150.8700 C   0  0  0  0  0  0  0  0  0  0  0  0
  161.2740  205.7410  153.2940 C   0  0  0  0  0  3  0  0  0  0  0  0
  161.2080  209.6210  152.1820 S   0  0  0  0  0  0  0  0  0  0  0  0
  159.8080  210.1650  152.2150 O   0  0  0  0  0  0  0  0  0  0  0  0
  161.8900  210.1250  150.9400 O   0  0  0  0  0  0  0  0  0  0  0  0
  162.0600  210.1620  153.5920 N   0  0  0  0  0  2  0  0  0  0  0  0
  161.0840  210.6300  154.5670 C   0  0  1  0  0  3  0  0  0  0  0  0
  161.6660  210.5280  155.9700 C   0  0  0  0  0  2  0  0  0  0  0  0
  161.2840  209.2110  156.6260 C   0  0  0  0  0  2  0  0  0  0  0  0
  159.8530  208.8330  156.2810 C   0  0  0  0  0  2  0  0  0  0  0  0
  160.7710  206.7320  157.2600 C   0  0  0  0  0  1  0  0  0  0  0  0
  159.6460  207.3380  156.4430 C   0  0  0  0  0  2  0  0  0  0  0  0
  160.6870  212.0020  154.2660 N   0  0  0  0  0  2  0  0  0  0  0  0
  158.3990  211.8620  154.9010 C   0  0  0  0  0  2  0  0  0  0  0  0
  159.5000  212.5870  154.7950 C   0  0  0  0  0  3  0  0  0  0  0  0
  160.9200  203.8120  149.4250 C   0  0  0  0  0  3  0  0  0  0  0  0
  160.8920  205.1520  149.5300 C   0  0  0  0  0  0  0  0  0  0  0  0
  160.7880  203.0420  148.2200 N   0  0  0  0  0  2  0  0  0  0  0  0
  161.2440  201.6760  148.0120 C   0  0  0  0  0  2  0  0  0  0  0  0
  161.1080  200.8980  149.3020 C   0  0  0  0  0  1  0  0  0  0  0  0
  160.7090  206.0350  148.3310 C   0  0  0  0  0  2  0  0  0  0  0  0
  162.0320  206.2130  147.6030 C   0  0  0  0  0  2  0  0  0  0  0  0
  161.8040  206.3930  146.2120 O   0  0  0  0  0  0  0  0  0  0  0  0
  161.9040  205.3370  145.3050 C   0  0  0  0  0  0  0  0  0  0  0  0
  162.6280  204.1940  145.6220 O   0  0  0  0  0  1  0  0  0  0  0  0
  161.3410  205.4250  144.1840 O   0  0  0  0  0  0  0  0  0  0  0  0
  1  5  1  0  0  0  0
  4  3  1  0  0  0  0
  4  7  2  0  0  0  0
  5  8  1  0  0  0  0
  5  2  2  0  0  0  0
  6  1  2  0  0  0  0
  6  4  1  0  0  0  0
  7  2  1  0  0  0  0
  8  9  2  0  0  0  0
  8 11  1  0  0  0  0
 10  8  2  0  0  0  0
 11 12  1  0  0  0  0
 12 13  1  1  0  0  0
 13 14  1  0  0  0  0
 15 17  1  0  0  0  0
 15 14  1  0  0  0  0
 17 16  1  0  0  0  0
 18 12  1  0  0  0  0
 18 20  1  0  0  0  0
 20 19  2  0  0  0  0
 21 22  2  0  0  0  0
 22  6  1  0  0  0  0
 23 21  1  0  0  0  0
 24 23  1  0  0  0  0
 24 25  1  0  0  0  0
 26 22  1  0  0  0  0
 27 26  1  0  0  0  0
 28 27  1  0  0  0  0
 29 30  1  0  0  0  0
 29 28  1  0  0  0  0
 31 29  2  0  0  0  0
M  END
>  <MODEL>
5

>  <REMARK>
 VINA RESULT:      -6.6      1.171      2.652
  Name = 
  16 active torsions:
  status: ('A' for Active; 'I' for Inactive)
    1  A    between atoms: C_1  and  N_7
    2  A    between atoms: C_2  and  O_8
    3  A    between atoms: C_3  and  O_8
    4  A    between atoms: C_3  and  C_28
    5  A    between atoms: C_4  and  C_25
    6  A    between atoms: C_4  and  C_26
    7  A    between atoms: S_6  and  N_16
    8  A    between atoms: S_6  and  C_21
    9  A    between atoms: N_7  and  C_11
   10  A    between atoms: C_9  and  C_15
   11  A    between atoms: C_9  and  N_16
   12  A    between atoms: C_9  and  N_29
   13  A    between atoms: C_14  and  C_27
   14  A    between atoms: C_14  and  C_28
   15  A    between atoms: C_15  and  C_25
   16  A    between atoms: N_29  and  C_30
                            x       y       z     vdW  Elec       q    Type
                         _______ _______ _______ _____ _____    ______ ____

>  <TORSDO>
F 16

$$$$
=
 OpenBabel11052411183D

 31 31  0  0  1  0  0  0  0  0999 V2000
  160.9770  208.8660  152.5770 C   0  0  0  0  0  3  0  0  0  0  0  0
  161.4640  206.5010  152.5840 C   0  0  0  0  0  3  0  0  0  0  0  0
  160.3220  207.4580  155.9850 N   0  0  0  0  0  1  0  0  0  0  0  0
  160.7080  207.5870  154.6190 C   0  0  0  0  0  0  0  0  0  0  0  0
  161.3910  207.7170  151.9020 C   0  0  0  0  0  0  0  0  0  0  0  0
  160.6290  208.8280  153.9370 C   0  0  0  0  0  0  0  0  0  0  0  0
  161.1250  206.4390  153.9360 C   0  0  0  0  0  3  0  0  0  0  0  0
  161.7640  207.7950  150.1880 S   0  0  0  0  0  0  0  0  0  0  0  0
  163.1610  207.2890  149.9600 O   0  0  0  0  0  0  0  0  0  0  0  0
  161.6890  209.2220  149.7200 O   0  0  0  0  0  0  0  0  0  0  0  0
  160.6520  206.8140  149.2910 N   0  0  0  0  0  2  0  0  0  0  0  0
  161.4170  205.9240  148.4280 C   0  0  1  0  0  3  0  0  0  0  0  0
  160.9180  204.4950  148.5870 C   0  0  0  0  0  2  0  0  0  0  0  0
  160.7310  204.1410  150.0540 C   0  0  0  0  0  2  0  0  0  0  0  0
  160.9860  202.6610  150.2880 C   0  0  0  0  0  2  0  0  0  0  0  0
  161.1740  200.8530  148.5820 C   0  0  0  0  0  1  0  0  0  0  0  0
  160.2340  201.8250  149.2680 C   0  0  0  0  0  2  0  0  0  0  0  0
  161.3170  206.3580  147.0380 N   0  0  0  0  0  2  0  0  0  0  0  0
  162.9350  205.0130  145.9280 C   0  0  0  0  0  2  0  0  0  0  0  0
  161.7180  205.5320  145.9490 C   0  0  0  0  0  3  0  0  0  0  0  0
  159.2240  210.0480  155.5360 C   0  0  0  0  0  3  0  0  0  0  0  0
  160.1670  210.0900  154.5800 C   0  0  0  0  0  0  0  0  0  0  0  0
  158.6970  211.1630  156.2730 N   0  0  0  0  0  2  0  0  0  0  0  0
  157.3240  211.6410  156.2520 C   0  0  0  0  0  2  0  0  0  0  0  0
  157.3160  213.1440  156.0790 C   0  0  0  0  0  1  0  0  0  0  0  0
  160.8060  211.3800  154.1560 C   0  0  0  0  0  2  0  0  0  0  0  0
  159.8110  212.2290  153.3790 C   0  0  0  0  0  2  0  0  0  0  0  0
  160.0650  212.1280  151.9860 O   0  0  0  0  0  0  0  0  0  0  0  0
  159.8900  213.2110  151.1240 C   0  0  0  0  0  0  0  0  0  0  0  0
  160.4260  213.1940  149.8420 O   0  0  0  0  0  0  0  0  0  0  0  0
  159.2460  214.2190  151.5140 O   0  0  0  0  0  1  0  0  0  0  0  0
  1  6  1  0  0  0  0
  2  7  2  0  0  0  0
  4  3  1  0  0  0  0
  5  1  2  0  0  0  0
  5  2  1  0  0  0  0
  6 22  1  0  0  0  0
  6  4  2  0  0  0  0
  7  4  1  0  0  0  0
  8  5  1  0  0  0  0
  9  8  2  0  0  0  0
 10  8  2  0  0  0  0
 11  8  1  0  0  0  0
 12 13  1  6  0  0  0
 12 11  1  0  0  0  0
 13 14  1  0  0  0  0
 14 15  1  0  0  0  0
 16 17  1  0  0  0  0
 17 15  1  0  0  0  0
 18 12  1  0  0  0  0
 19 20  2  0  0  0  0
 20 18  1  0  0  0  0
 21 23  1  0  0  0  0
 22 21  2  0  0  0  0
 24 23  1  0  0  0  0
 25 24  1  0  0  0  0
 26 22  1  0  0  0  0
 27 26  1  0  0  0  0
 28 27  1  0  0  0  0
 29 31  1  0  0  0  0
 29 28  1  0  0  0  0
 30 29  2  0  0  0  0
M  END
>  <MODEL>
6

>  <REMARK>
 VINA RESULT:      -6.3      2.452      8.766
  Name = 
  16 active torsions:
  status: ('A' for Active; 'I' for Inactive)
    1  A    between atoms: C_1  and  N_7
    2  A    between atoms: C_2  and  O_8
    3  A    between atoms: C_3  and  O_8
    4  A    between atoms: C_3  and  C_28
    5  A    between atoms: C_4  and  C_25
    6  A    between atoms: C_4  and  C_26
    7  A    between atoms: S_6  and  N_16
    8  A    between atoms: S_6  and  C_21
    9  A    between atoms: N_7  and  C_11
   10  A    between atoms: C_9  and  C_15
   11  A    between atoms: C_9  and  N_16
   12  A    between atoms: C_9  and  N_29
   13  A    between atoms: C_14  and  C_27
   14  A    between atoms: C_14  and  C_28
   15  A    between atoms: C_15  and  C_25
   16  A    between atoms: N_29  and  C_30
                            x       y       z     vdW  Elec       q    Type
                         _______ _______ _______ _____ _____    ______ ____

>  <TORSDO>
F 16

$$$$
=
 OpenBabel11052411183D

 31 31  0  0  1  0  0  0  0  0999 V2000
  161.0490  209.1290  151.8840 C   0  0  0  0  0  3  0  0  0  0  0  0
  161.3200  206.7410  152.1160 C   0  0  0  0  0  3  0  0  0  0  0  0
  160.3830  208.1270  155.4300 N   0  0  0  0  0  1  0  0  0  0  0  0
  160.7330  208.0850  154.0490 C   0  0  0  0  0  0  0  0  0  0  0  0
  161.3340  207.8860  151.3180 C   0  0  0  0  0  0  0  0  0  0  0  0
  160.7440  209.2560  153.2490 C   0  0  0  0  0  0  0  0  0  0  0  0
  161.0210  206.8430  153.4750 C   0  0  0  0  0  3  0  0  0  0  0  0
  161.6560  207.7610  149.5960 S   0  0  0  0  0  0  0  0  0  0  0  0
  163.0720  207.3060  149.3860 O   0  0  0  0  0  0  0  0  0  0  0  0
  161.4860  209.1100  148.9520 O   0  0  0  0  0  0  0  0  0  0  0  0
  160.5780  206.6140  148.8700 N   0  0  0  0  0  2  0  0  0  0  0  0
  161.3130  205.8740  147.8530 C   0  0  1  0  0  3  0  0  0  0  0  0
  161.2900  204.3870  148.1800 C   0  0  0  0  0  2  0  0  0  0  0  0
  160.9850  204.1550  149.6500 C   0  0  0  0  0  2  0  0  0  0  0  0
  160.7170  202.6840  149.9190 C   0  0  0  0  0  2  0  0  0  0  0  0
  161.3330  200.6970  148.5450 C   0  0  0  0  0  1  0  0  0  0  0  0
  160.4710  201.9430  148.6170 C   0  0  0  0  0  2  0  0  0  0  0  0
  160.7410  206.1250  146.5330 N   0  0  0  0  0  2  0  0  0  0  0  0
  160.8550  204.6640  144.6600 C   0  0  0  0  0  2  0  0  0  0  0  0
  161.3670  205.6820  145.3320 C   0  0  0  0  0  3  0  0  0  0  0  0
  159.9980  211.5720  152.9310 C   0  0  0  0  0  3  0  0  0  0  0  0
  160.4200  210.6120  153.7730 C   0  0  0  0  0  0  0  0  0  0  0  0
  159.6150  212.9120  153.2790 N   0  0  0  0  0  2  0  0  0  0  0  0
  158.6400  213.7400  152.5860 C   0  0  0  0  0  2  0  0  0  0  0  0
  158.2070  213.0480  151.3120 C   0  0  0  0  0  1  0  0  0  0  0  0
  160.5420  210.8540  155.2490 C   0  0  0  0  0  2  0  0  0  0  0  0
  159.2500  211.4420  155.7940 C   0  0  0  0  0  2  0  0  0  0  0  0
  158.1440  210.6430  155.4000 O   0  0  0  0  0  0  0  0  0  0  0  0
  156.8560  211.1670  155.2920 C   0  0  0  0  0  0  0  0  0  0  0  0
  155.7420  210.3400  155.3770 O   0  0  0  0  0  1  0  0  0  0  0  0
  156.7010  212.4020  155.1080 O   0  0  0  0  0  0  0  0  0  0  0  0
  1  6  1  0  0  0  0
  2  7  2  0  0  0  0
  4  3  1  0  0  0  0
  5  1  2  0  0  0  0
  5  2  1  0  0  0  0
  6 22  1  0  0  0  0
  6  4  2  0  0  0  0
  7  4  1  0  0  0  0
  8  5  1  0  0  0  0
  9  8  2  0  0  0  0
 10  8  2  0  0  0  0
 11  8  1  0  0  0  0
 12 13  1  1  0  0  0
 12 11  1  0  0  0  0
 13 14  1  0  0  0  0
 14 15  1  0  0  0  0
 16 17  1  0  0  0  0
 17 15  1  0  0  0  0
 18 12  1  0  0  0  0
 19 20  2  0  0  0  0
 20 18  1  0  0  0  0
 21 23  1  0  0  0  0
 21 22  2  0  0  0  0
 22 26  1  0  0  0  0
 24 23  1  0  0  0  0
 25 24  1  0  0  0  0
 26 27  1  0  0  0  0
 28 27  1  0  0  0  0
 29 30  1  0  0  0  0
 29 28  1  0  0  0  0
 31 29  2  0  0  0  0
M  END
>  <MODEL>
7

>  <REMARK>
 VINA RESULT:      -6.2      2.624      9.286
  Name = 
  16 active torsions:
  status: ('A' for Active; 'I' for Inactive)
    1  A    between atoms: C_1  and  N_7
    2  A    between atoms: C_2  and  O_8
    3  A    between atoms: C_3  and  O_8
    4  A    between atoms: C_3  and  C_28
    5  A    between atoms: C_4  and  C_25
    6  A    between atoms: C_4  and  C_26
    7  A    between atoms: S_6  and  N_16
    8  A    between atoms: S_6  and  C_21
    9  A    between atoms: N_7  and  C_11
   10  A    between atoms: C_9  and  C_15
   11  A    between atoms: C_9  and  N_16
   12  A    between atoms: C_9  and  N_29
   13  A    between atoms: C_14  and  C_27
   14  A    between atoms: C_14  and  C_28
   15  A    between atoms: C_15  and  C_25
   16  A    between atoms: N_29  and  C_30
                            x       y       z     vdW  Elec       q    Type
                         _______ _______ _______ _____ _____    ______ ____

>  <TORSDO>
F 16

$$$$
=
 OpenBabel11052411183D

 31 31  0  0  1  0  0  0  0  0999 V2000
  161.2160  205.1330  150.3400 C   0  0  0  0  0  3  0  0  0  0  0  0
  160.8850  203.4740  152.0620 C   0  0  0  0  0  3  0  0  0  0  0  0
  160.7260  201.7710  148.7670 N   0  0  0  0  0  1  0  0  0  0  0  0
  160.8310  202.8200  149.7250 C   0  0  0  0  0  0  0  0  0  0  0  0
  161.1240  204.7980  151.6920 C   0  0  0  0  0  0  0  0  0  0  0  0
  161.0740  204.1620  149.3370 C   0  0  0  0  0  0  0  0  0  0  0  0
  160.7380  202.4920  151.0820 C   0  0  0  0  0  3  0  0  0  0  0  0
  161.3630  206.0310  152.9190 S   0  0  0  0  0  0  0  0  0  0  0  0
  162.8330  206.3060  153.0680 O   0  0  0  0  0  0  0  0  0  0  0  0
  160.8310  205.5400  154.2380 O   0  0  0  0  0  0  0  0  0  0  0  0
  160.5560  207.4940  152.4580 N   0  0  0  0  0  2  0  0  0  0  0  0
  161.1320  208.5950  153.2190 C   0  0  1  0  0  3  0  0  0  0  0  0
  160.9960  209.8920  152.4330 C   0  0  0  0  0  2  0  0  0  0  0  0
  160.5130  211.0240  153.3250 C   0  0  0  0  0  2  0  0  0  0  0  0
  159.1570  211.5310  152.8640 C   0  0  0  0  0  2  0  0  0  0  0  0
  158.0050  212.8210  154.6600 C   0  0  0  0  0  1  0  0  0  0  0  0
  158.1520  211.4630  154.0000 C   0  0  0  0  0  2  0  0  0  0  0  0
  160.4810  208.7050  154.5210 N   0  0  0  0  0  2  0  0  0  0  0  0
  160.6730  209.3160  156.8110 C   0  0  0  0  0  2  0  0  0  0  0  0
  161.2150  208.7610  155.7400 C   0  0  0  0  0  3  0  0  0  0  0  0
  161.8910  203.8210  147.0480 C   0  0  0  0  0  3  0  0  0  0  0  0
  161.2170  204.5930  147.9170 C   0  0  0  0  0  0  0  0  0  0  0  0
  162.0900  204.0740  145.6480 N   0  0  0  0  0  2  0  0  0  0  0  0
  161.0520  204.1990  144.6370 C   0  0  0  0  0  2  0  0  0  0  0  0
  161.2320  205.5030  143.8890 C   0  0  0  0  0  1  0  0  0  0  0  0
  160.5640  205.8760  147.4930 C   0  0  0  0  0  2  0  0  0  0  0  0
  161.5970  206.9890  147.4080 C   0  0  0  0  0  2  0  0  0  0  0  0
  161.1980  208.0880  148.2150 O   0  0  0  0  0  0  0  0  0  0  0  0
  162.0880  208.7340  149.0720 C   0  0  0  0  0  0  0  0  0  0  0  0
  162.7160  208.0410  150.1000 O   0  0  0  0  0  1  0  0  0  0  0  0
  162.3180  209.9620  148.9190 O   0  0  0  0  0  0  0  0  0  0  0  0
  1  5  1  0  0  0  0
  3  4  1  0  0  0  0
  4  7  2  0  0  0  0
  5  2  2  0  0  0  0
  5  8  1  0  0  0  0
  6  4  1  0  0  0  0
  6  1  2  0  0  0  0
  7  2  1  0  0  0  0
  8  9  2  0  0  0  0
  8 10  2  0  0  0  0
 11  8  1  0  0  0  0
 11 12  1  0  0  0  0
 12 13  1  6  0  0  0
 12 18  1  0  0  0  0
 13 14  1  0  0  0  0
 15 14  1  0  0  0  0
 15 17  1  0  0  0  0
 17 16  1  0  0  0  0
 18 20  1  0  0  0  0
 20 19  2  0  0  0  0
 21 22  2  0  0  0  0
 22  6  1  0  0  0  0
 23 21  1  0  0  0  0
 24 23  1  0  0  0  0
 25 24  1  0  0  0  0
 26 22  1  0  0  0  0
 27 26  1  0  0  0  0
 27 28  1  0  0  0  0
 28 29  1  0  0  0  0
 29 30  1  0  0  0  0
 31 29  2  0  0  0  0
M  END
>  <MODEL>
8

>  <REMARK>
 VINA RESULT:      -6.2      2.247      3.628
  Name = 
  16 active torsions:
  status: ('A' for Active; 'I' for Inactive)
    1  A    between atoms: C_1  and  N_7
    2  A    between atoms: C_2  and  O_8
    3  A    between atoms: C_3  and  O_8
    4  A    between atoms: C_3  and  C_28
    5  A    between atoms: C_4  and  C_25
    6  A    between atoms: C_4  and  C_26
    7  A    between atoms: S_6  and  N_16
    8  A    between atoms: S_6  and  C_21
    9  A    between atoms: N_7  and  C_11
   10  A    between atoms: C_9  and  C_15
   11  A    between atoms: C_9  and  N_16
   12  A    between atoms: C_9  and  N_29
   13  A    between atoms: C_14  and  C_27
   14  A    between atoms: C_14  and  C_28
   15  A    between atoms: C_15  and  C_25
   16  A    between atoms: N_29  and  C_30
                            x       y       z     vdW  Elec       q    Type
                         _______ _______ _______ _____ _____    ______ ____

>  <TORSDO>
F 16

$$$$
=
 OpenBabel11052411183D

 31 31  0  0  1  0  0  0  0  0999 V2000
  161.3510  204.6650  149.7990 C   0  0  0  0  0  3  0  0  0  0  0  0
  161.0250  203.7430  152.0070 C   0  0  0  0  0  3  0  0  0  0  0  0
  160.8680  200.9600  149.5560 N   0  0  0  0  0  1  0  0  0  0  0  0
  160.9710  202.2850  150.0670 C   0  0  0  0  0  0  0  0  0  0  0  0
  161.2600  204.8430  151.1800 C   0  0  0  0  0  0  0  0  0  0  0  0
  161.2100  203.3950  149.2170 C   0  0  0  0  0  0  0  0  0  0  0  0
  160.8800  202.4720  151.4500 C   0  0  0  0  0  3  0  0  0  0  0  0
  161.4970  206.4380  151.8750 S   0  0  0  0  0  0  0  0  0  0  0  0
  162.9670  206.6850  152.0640 O   0  0  0  0  0  0  0  0  0  0  0  0
  160.8230  206.5090  153.2180 O   0  0  0  0  0  0  0  0  0  0  0  0
  160.8500  207.6510  150.8180 N   0  0  0  0  0  2  0  0  0  0  0  0
  161.8960  208.6270  150.5440 C   0  0  1  0  0  3  0  0  0  0  0  0
  161.9380  208.9330  149.0540 C   0  0  0  0  0  2  0  0  0  0  0  0
  162.3670  210.3690  148.8020 C   0  0  0  0  0  2  0  0  0  0  0  0
  161.3590  211.0850  147.9200 C   0  0  0  0  0  2  0  0  0  0  0  0
  161.8540  213.1930  146.6840 C   0  0  0  0  0  1  0  0  0  0  0  0
  161.5260  212.5900  148.0360 C   0  0  0  0  0  2  0  0  0  0  0  0
  161.6680  209.8420  151.3190 N   0  0  0  0  0  2  0  0  0  0  0  0
  159.9640  210.9980  152.5090 C   0  0  0  0  0  2  0  0  0  0  0  0
  160.7040  209.9110  152.3660 C   0  0  0  0  0  3  0  0  0  0  0  0
  160.4690  202.5500  147.0350 C   0  0  0  0  0  3  0  0  0  0  0  0
  161.3520  203.2810  147.7380 C   0  0  0  0  0  0  0  0  0  0  0  0
  160.4450  202.3680  145.6110 N   0  0  0  0  0  2  0  0  0  0  0  0
  160.0810  201.1520  144.9010 C   0  0  0  0  0  2  0  0  0  0  0  0
  160.8220  199.9770  145.5000 C   0  0  0  0  0  1  0  0  0  0  0  0
  162.4700  204.0260  147.0700 C   0  0  0  0  0  2  0  0  0  0  0  0
  162.1550  205.5130  147.0200 C   0  0  0  0  0  2  0  0  0  0  0  0
  162.1800  205.9720  145.6760 O   0  0  0  0  0  0  0  0  0  0  0  0
  161.0780  205.8410  144.8310 C   0  0  0  0  0  0  0  0  0  0  0  0
  161.2230  205.3310  143.5470 O   0  0  0  0  0  0  0  0  0  0  0  0
  159.9400  206.1980  145.2330 O   0  0  0  0  0  1  0  0  0  0  0  0
  1  5  1  0  0  0  0
  3  4  1  0  0  0  0
  4  7  2  0  0  0  0
  5  8  1  0  0  0  0
  5  2  2  0  0  0  0
  6  1  2  0  0  0  0
  6  4  1  0  0  0  0
  7  2  1  0  0  0  0
  8  9  2  0  0  0  0
  8 10  2  0  0  0  0
 11  8  1  0  0  0  0
 12 13  1  6  0  0  0
 12 11  1  0  0  0  0
 12 18  1  0  0  0  0
 14 13  1  0  0  0  0
 15 17  1  0  0  0  0
 15 14  1  0  0  0  0
 16 17  1  0  0  0  0
 18 20  1  0  0  0  0
 20 19  2  0  0  0  0
 21 22  2  0  0  0  0
 22  6  1  0  0  0  0
 23 21  1  0  0  0  0
 24 25  1  0  0  0  0
 24 23  1  0  0  0  0
 26 22  1  0  0  0  0
 27 26  1  0  0  0  0
 28 27  1  0  0  0  0
 29 31  1  0  0  0  0
 29 28  1  0  0  0  0
 30 29  2  0  0  0  0
M  END
>  <MODEL>
9

>  <REMARK>
 VINA RESULT:      -6.1      2.871      4.598
  Name = 
  16 active torsions:
  status: ('A' for Active; 'I' for Inactive)
    1  A    between atoms: C_1  and  N_7
    2  A    between atoms: C_2  and  O_8
    3  A    between atoms: C_3  and  O_8
    4  A    between atoms: C_3  and  C_28
    5  A    between atoms: C_4  and  C_25
    6  A    between atoms: C_4  and  C_26
    7  A    between atoms: S_6  and  N_16
    8  A    between atoms: S_6  and  C_21
    9  A    between atoms: N_7  and  C_11
   10  A    between atoms: C_9  and  C_15
   11  A    between atoms: C_9  and  N_16
   12  A    between atoms: C_9  and  N_29
   13  A    between atoms: C_14  and  C_27
   14  A    between atoms: C_14  and  C_28
   15  A    between atoms: C_15  and  C_25
   16  A    between atoms: N_29  and  C_30
                            x       y       z     vdW  Elec       q    Type
                         _______ _______ _______ _____ _____    ______ ____

>  <TORSDO>
F 16

$$$$
