=
 OpenBabel11052411283D

 57 61  0  0  1  0  0  0  0  0999 V2000
  162.5550  209.0840  151.8770 C   0  0  0  0  0  2  0  0  0  0  0  0
  157.5700  211.0290  155.7220 C   0  0  0  0  0  3  0  0  0  0  0  0
  159.2830  213.5030  148.9700 C   0  0  0  0  0  3  0  0  0  0  0  0
  159.1270  211.0400  153.8520 C   0  0  0  0  0  3  0  0  0  0  0  0
  162.1730  213.1960  145.0330 C   0  0  0  0  0  3  0  0  0  0  0  0
  156.1480  212.7040  155.0860 N   0  0  0  0  0  0  0  0  0  0  0  0
  160.9610  212.7270  147.3130 C   0  0  0  0  0  0  0  0  0  0  0  0
  157.0420  213.2970  152.9460 C   0  0  0  0  0  3  0  0  0  0  0  0
  159.0350  212.3710  151.7620 C   0  0  0  0  0  3  0  0  0  0  0  0
  161.6670  210.3400  147.3170 C   0  0  0  0  0  2  0  0  0  0  0  0
  160.4490  213.8930  148.1060 C   0  0  2  0  0  3  0  0  0  0  0  0
  157.5220  214.0160  150.6450 C   0  0  0  0  0  2  0  0  0  0  0  0
  158.6660  214.4020  149.7440 C   0  0  0  0  0  3  0  0  0  0  0  0
  159.6230  211.4500  152.6170 C   0  0  0  0  0  0  0  0  0  0  0  0
  161.3790  209.6980  152.5710 C   0  0  0  0  0  3  0  0  0  0  0  0
  162.1670  208.5960  150.5200 C   0  0  0  0  0  0  0  0  0  0  0  0
  156.4430  211.7820  156.0260 C   0  0  0  0  0  0  0  0  0  0  0  0
  160.9170  211.4340  147.8550 O   0  0  0  0  0  0  0  0  0  0  0  0
  161.5920  214.4360  148.9590 C   0  0  0  0  0  1  0  0  0  0  0  0
  162.0820  209.4560  149.5540 N   0  0  0  0  0  0  0  0  0  0  0  0
  158.0080  211.5140  154.5050 C   0  0  0  0  0  0  0  0  0  0  0  0
  161.5730  209.1290  148.2350 C   0  0  0  0  0  2  0  0  0  0  0  0
  157.9090  213.2030  151.8530 C   0  0  0  0  0  0  0  0  0  0  0  0
  160.8170  210.8060  152.0720 C   0  0  0  0  0  3  0  0  0  0  0  0
  157.0870  212.5730  154.1310 C   0  0  0  0  0  0  0  0  0  0  0  0
  161.5480  212.9670  146.1650 C   0  0  0  0  0  0  0  0  0  0  0  0
  160.2290  211.9780  141.3540 C   0  0  2  0  0  3  0  0  0  0  0  0
  161.4610  213.1540  143.7150 C   0  0  2  0  0  3  0  0  0  0  0  0
  160.2350  212.2720  143.7870 C   0  0  0  0  0  0  0  0  0  0  0  0
  161.9750  211.4680  141.4210 S   0  0  0  0  0  0  0  0  0  0  0  0
  159.6510  211.7620  142.6310 O   0  0  0  0  0  0  0  0  0  0  0  0
  159.6760  212.0470  144.8970 O   0  0  0  0  0  0  0  0  0  0  0  0
  162.4540  212.8080  142.5820 C   0  0  1  0  0  3  0  0  0  0  0  0
  162.8560  213.9410  140.4820 O   0  0  0  0  0  1  0  0  0  0  0  0
  164.2750  214.3320  142.2340 O   0  0  0  0  0  1  0  0  0  0  0  0
  162.9510  214.0630  141.8680 C   0  0  0  0  0  3  0  0  0  0  0  0
  159.4670  211.2110  140.2630 C   0  0  1  0  0  3  0  0  0  0  0  0
  158.2320  211.8010  139.9920 O   0  0  0  0  0  1  0  0  0  0  0  0
  159.5600  211.5700  137.8830 O   0  0  0  0  0  1  0  0  0  0  0  0
  160.2610  211.0320  138.9670 C   0  0  2  0  0  3  0  0  0  0  0  0
  160.3280  209.0100  137.4380 N   0  0  0  0  0  1  0  0  0  0  0  0
  161.2640  208.9320  139.5680 O   0  0  0  0  0  0  0  0  0  0  0  0
  160.6480  209.6080  138.6960 C   0  0  0  0  0  0  0  0  0  0  0  0
  155.6360  211.5970  157.2590 C   0  0  0  0  0  2  0  0  0  0  0  0
  154.7390  209.9360  155.6570 C   0  0  0  0  0  1  0  0  0  0  0  0
  154.6010  210.5030  157.0570 C   0  0  0  0  0  2  0  0  0  0  0  0
  161.6800  207.1790  150.3830 C   0  0  0  0  0  2  0  0  0  0  0  0
  160.9390  207.0210  149.2020 O   0  0  0  0  0  0  0  0  0  0  0  0
  161.4700  203.5330  148.3900 O   0  0  0  0  0  0  0  0  0  0  0  0
  161.6850  204.9160  148.1710 C   0  0  2  0  0  3  0  0  0  0  0  0
  160.6330  205.6520  149.0010 C   0  0  1  0  0  3  0  0  0  0  0  0
  160.7570  203.2480  149.5410 C   0  0  0  0  0  0  0  0  0  0  0  0
  160.4340  202.0340  149.8460 N   0  0  0  0  0  2  0  0  0  0  0  0
  160.1770  204.6500  150.4750 S   0  0  0  0  0  0  0  0  0  0  0  0
  161.0950  204.3730  145.9200 O   0  0  0  0  0  0  0  0  0  0  0  0
  161.9630  206.4740  146.2420 O   0  0  0  0  0  1  0  0  0  0  0  0
  161.5100  205.2520  146.7220 C   0  0  0  0  0  0  0  0  0  0  0  0
  1 15  1  0  0  0  0
  2 17  1  0  0  0  0
  3 13  2  0  0  0  0
  4 21  1  0  0  0  0
  5 26  2  0  0  0  0
  6 17  2  0  0  0  0
  7 18  1  0  0  0  0
  7 11  1  0  0  0  0
  8 25  2  0  0  0  0
  9 23  2  0  0  0  0
  9 14  1  0  0  0  0
 10 18  1  0  0  0  0
 10 22  1  0  0  0  0
 11 19  1  1  0  0  0
 11  3  1  0  0  0  0
 12 23  1  0  0  0  0
 13 12  1  0  0  0  0
 14  4  2  0  0  0  0
 16  1  1  0  0  0  0
 17 44  1  0  0  0  0
 20 16  2  0  0  0  0
 21  2  2  0  0  0  0
 22 20  1  0  0  0  0
 23  8  1  0  0  0  0
 24 15  2  0  0  0  0
 24 14  1  0  0  0  0
 25 21  1  0  0  0  0
 25  6  1  0  0  0  0
 26  7  2  0  0  0  0
 27 37  1  6  0  0  0
 27 30  1  0  0  0  0
 27 31  1  0  0  0  0
 28 29  1  0  0  0  0
 28  5  1  1  0  0  0
 29 32  2  0  0  0  0
 30 33  1  0  0  0  0
 31 29  1  0  0  0  0
 33 36  1  6  0  0  0
 33 28  1  0  0  0  0
 34 36  1  0  0  0  0
 36 35  1  0  0  0  0
 37 38  1  6  0  0  0
 40 39  1  6  0  0  0
 40 37  1  0  0  0  0
 41 43  1  0  0  0  0
 43 40  1  0  0  0  0
 43 42  2  0  0  0  0
 45 46  1  0  0  0  0
 46 44  1  0  0  0  0
 47 16  1  0  0  0  0
 48 47  1  0  0  0  0
 49 52  1  0  0  0  0
 50 57  1  6  0  0  0
 50 49  1  0  0  0  0
 50 51  1  0  0  0  0
 51 48  1  1  0  0  0
 51 54  1  0  0  0  0
 52 53  2  0  0  0  0
 52 54  1  0  0  0  0
 55 57  2  0  0  0  0
 56 57  1  0  0  0  0
M  END
>  <MODEL>
1

>  <REMARK>
 VINA RESULT:      -6.4      0.000      0.000
  Name = 
  11 active torsions:
  status: ('A' for Active; 'I' for Inactive)
    1  A    between atoms: C_4  and  C_22
    2  A    between atoms: C_5  and  C_51
    3  A    between atoms: C_12  and  C_16
    4  A    between atoms: C_17  and  C_39
    5  A    between atoms: C_17  and  C_46
    6  A    between atoms: C_22  and  C_56
    7  A    between atoms: C_27  and  O_36
    8  A    between atoms: C_30  and  C_54
    9  A    between atoms: C_31  and  C_56
   10  A    between atoms: C_35  and  C_40
   11  A    between atoms: O_36  and  C_40
                            x       y       z     vdW  Elec       q    Type
                         _______ _______ _______ _____ _____    ______ ____

>  <TORSDO>
F 11

$$$$
=
 OpenBabel11052411283D

 57 61  0  0  1  0  0  0  0  0999 V2000
  162.5140  208.7410  151.3970 C   0  0  0  0  0  2  0  0  0  0  0  0
  157.7480  210.6160  155.5420 C   0  0  0  0  0  3  0  0  0  0  0  0
  159.4540  213.5940  148.9950 C   0  0  0  0  0  3  0  0  0  0  0  0
  159.2590  210.7070  153.6370 C   0  0  0  0  0  3  0  0  0  0  0  0
  162.2290  213.4800  144.9660 C   0  0  0  0  0  3  0  0  0  0  0  0
  156.4160  212.4230  155.1000 N   0  0  0  0  0  0  0  0  0  0  0  0
  161.0430  212.8760  147.2270 C   0  0  0  0  0  0  0  0  0  0  0  0
  157.2960  213.1560  152.9980 C   0  0  0  0  0  3  0  0  0  0  0  0
  159.2010  212.2270  151.6790 C   0  0  0  0  0  3  0  0  0  0  0  0
  161.6010  210.4610  146.9960 C   0  0  0  0  0  2  0  0  0  0  0  0
  160.6220  213.9920  148.1370 C   0  0  2  0  0  3  0  0  0  0  0  0
  157.7670  214.0540  150.7590 C   0  0  0  0  0  2  0  0  0  0  0  0
  158.9120  214.4530  149.8650 C   0  0  0  0  0  3  0  0  0  0  0  0
  159.7500  211.1980  152.4300 C   0  0  0  0  0  0  0  0  0  0  0  0
  161.3940  209.3570  152.1770 C   0  0  0  0  0  3  0  0  0  0  0  0
  162.0660  208.4040  150.0130 C   0  0  0  0  0  0  0  0  0  0  0  0
  156.6760  211.4030  155.9440 C   0  0  0  0  0  0  0  0  0  0  0  0
  160.9320  211.5430  147.6510 O   0  0  0  0  0  0  0  0  0  0  0  0
  161.8160  214.3870  149.0030 C   0  0  0  0  0  1  0  0  0  0  0  0
  162.0120  209.3520  149.1320 N   0  0  0  0  0  0  0  0  0  0  0  0
  158.1870  211.1840  154.3620 C   0  0  0  0  0  0  0  0  0  0  0  0
  161.4540  209.1780  147.8040 C   0  0  0  0  0  2  0  0  0  0  0  0
  158.1310  213.1130  151.8770 C   0  0  0  0  0  0  0  0  0  0  0  0
  160.8910  210.5380  151.7960 C   0  0  0  0  0  3  0  0  0  0  0  0
  157.3240  212.3250  154.1110 C   0  0  0  0  0  0  0  0  0  0  0  0
  161.6170  213.1850  146.0900 C   0  0  0  0  0  0  0  0  0  0  0  0
  159.4250  213.0660  141.6860 C   0  0  2  0  0  3  0  0  0  0  0  0
  161.4860  213.6020  143.6700 C   0  0  2  0  0  3  0  0  0  0  0  0
  160.0230  213.9050  143.9090 C   0  0  0  0  0  0  0  0  0  0  0  0
  160.3140  211.5180  142.0410 S   0  0  0  0  0  0  0  0  0  0  0  0
  159.0740  213.6730  142.9190 O   0  0  0  0  0  0  0  0  0  0  0  0
  159.6530  214.4480  144.9870 O   0  0  0  0  0  0  0  0  0  0  0  0
  161.7640  212.3720  142.7760 C   0  0  1  0  0  3  0  0  0  0  0  0
  163.1490  214.0190  141.6690 O   0  0  0  0  0  1  0  0  0  0  0  0
  162.5000  212.1620  140.5010 O   0  0  0  0  0  1  0  0  0  0  0  0
  162.8670  212.6560  141.7580 C   0  0  0  0  0  3  0  0  0  0  0  0
  158.1820  212.8080  140.8210 C   0  0  1  0  0  3  0  0  0  0  0  0
  157.6560  213.9960  140.3130 O   0  0  0  0  0  1  0  0  0  0  0  0
  159.2560  212.3630  138.7110 O   0  0  0  0  0  1  0  0  0  0  0  0
  158.4190  211.8100  139.6850 C   0  0  2  0  0  3  0  0  0  0  0  0
  156.7740  209.9300  139.2460 N   0  0  0  0  0  1  0  0  0  0  0  0
  156.4060  212.0650  138.3950 O   0  0  0  0  0  0  0  0  0  0  0  0
  157.1510  211.2970  139.0670 C   0  0  0  0  0  0  0  0  0  0  0  0
  155.8880  211.1540  157.1780 C   0  0  0  0  0  2  0  0  0  0  0  0
  154.1160  209.6500  156.3250 C   0  0  0  0  0  1  0  0  0  0  0  0
  154.4080  211.0430  156.8500 C   0  0  0  0  0  2  0  0  0  0  0  0
  161.4900  207.0370  149.7620 C   0  0  0  0  0  2  0  0  0  0  0  0
  161.7560  206.6190  148.4500 O   0  0  0  0  0  0  0  0  0  0  0  0
  161.3520  203.3090  147.0400 O   0  0  0  0  0  0  0  0  0  0  0  0
  161.6740  204.6840  146.9330 C   0  0  2  0  0  3  0  0  0  0  0  0
  161.1830  205.3430  148.2220 C   0  0  1  0  0  3  0  0  0  0  0  0
  161.1340  202.8790  148.3370 C   0  0  0  0  0  0  0  0  0  0  0  0
  160.7760  201.6630  148.5880 N   0  0  0  0  0  2  0  0  0  0  0  0
  161.2140  204.1290  149.6040 S   0  0  0  0  0  0  0  0  0  0  0  0
  161.1780  204.8340  144.6000 O   0  0  0  0  0  0  0  0  0  0  0  0
  160.2560  206.4700  145.9210 O   0  0  0  0  0  1  0  0  0  0  0  0
  160.9800  205.2970  145.7560 C   0  0  0  0  0  0  0  0  0  0  0  0
  1 15  1  0  0  0  0
  2 17  1  0  0  0  0
  3 13  2  0  0  0  0
  4 21  1  0  0  0  0
  5 26  2  0  0  0  0
  6 17  2  0  0  0  0
  7 18  1  0  0  0  0
  7 11  1  0  0  0  0
  8 25  2  0  0  0  0
  9 23  2  0  0  0  0
  9 14  1  0  0  0  0
 10 18  1  0  0  0  0
 10 22  1  0  0  0  0
 11  3  1  0  0  0  0
 11 19  1  1  0  0  0
 12 23  1  0  0  0  0
 13 12  1  0  0  0  0
 14  4  2  0  0  0  0
 16  1  1  0  0  0  0
 17 44  1  0  0  0  0
 20 16  2  0  0  0  0
 21  2  2  0  0  0  0
 22 20  1  0  0  0  0
 23  8  1  0  0  0  0
 24 15  2  0  0  0  0
 24 14  1  0  0  0  0
 25 21  1  0  0  0  0
 25  6  1  0  0  0  0
 26  7  2  0  0  0  0
 27 37  1  6  0  0  0
 27 30  1  0  0  0  0
 27 31  1  0  0  0  0
 28 29  1  0  0  0  0
 28  5  1  1  0  0  0
 29 32  2  0  0  0  0
 30 33  1  0  0  0  0
 31 29  1  0  0  0  0
 33 36  1  6  0  0  0
 33 28  1  0  0  0  0
 34 36  1  0  0  0  0
 35 36  1  0  0  0  0
 37 38  1  6  0  0  0
 40 39  1  6  0  0  0
 40 37  1  0  0  0  0
 42 43  2  0  0  0  0
 43 41  1  0  0  0  0
 43 40  1  0  0  0  0
 45 46  1  0  0  0  0
 46 44  1  0  0  0  0
 47 16  1  0  0  0  0
 48 47  1  0  0  0  0
 49 52  1  0  0  0  0
 50 57  1  6  0  0  0
 50 49  1  0  0  0  0
 50 51  1  0  0  0  0
 51 48  1  1  0  0  0
 51 54  1  0  0  0  0
 52 53  2  0  0  0  0
 52 54  1  0  0  0  0
 55 57  2  0  0  0  0
 57 56  1  0  0  0  0
M  END
>  <MODEL>
2

>  <REMARK>
 VINA RESULT:      -5.9      1.298      1.559
  Name = 
  11 active torsions:
  status: ('A' for Active; 'I' for Inactive)
    1  A    between atoms: C_4  and  C_22
    2  A    between atoms: C_5  and  C_51
    3  A    between atoms: C_12  and  C_16
    4  A    between atoms: C_17  and  C_39
    5  A    between atoms: C_17  and  C_46
    6  A    between atoms: C_22  and  C_56
    7  A    between atoms: C_27  and  O_36
    8  A    between atoms: C_30  and  C_54
    9  A    between atoms: C_31  and  C_56
   10  A    between atoms: C_35  and  C_40
   11  A    between atoms: O_36  and  C_40
                            x       y       z     vdW  Elec       q    Type
                         _______ _______ _______ _____ _____    ______ ____

>  <TORSDO>
F 11

$$$$
=
 OpenBabel11052411283D

 57 61  0  0  1  0  0  0  0  0999 V2000
  162.7950  209.2690  151.9700 C   0  0  0  0  0  2  0  0  0  0  0  0
  157.7060  211.0780  155.7440 C   0  0  0  0  0  3  0  0  0  0  0  0
  159.2920  213.3950  148.9060 C   0  0  0  0  0  3  0  0  0  0  0  0
  159.2630  211.1060  153.8740 C   0  0  0  0  0  3  0  0  0  0  0  0
  162.2010  213.1030  144.9820 C   0  0  0  0  0  3  0  0  0  0  0  0
  156.1950  212.6490  155.0480 N   0  0  0  0  0  0  0  0  0  0  0  0
  161.0120  212.6520  147.2770 C   0  0  0  0  0  0  0  0  0  0  0  0
  157.0590  213.2110  152.8880 C   0  0  0  0  0  3  0  0  0  0  0  0
  159.1020  212.3530  151.7380 C   0  0  0  0  0  3  0  0  0  0  0  0
  161.8470  210.3090  147.3680 C   0  0  0  0  0  2  0  0  0  0  0  0
  160.4360  213.8160  148.0280 C   0  0  2  0  0  3  0  0  0  0  0  0
  157.5030  213.8710  150.5620 C   0  0  0  0  0  2  0  0  0  0  0  0
  158.6260  214.2870  149.6470 C   0  0  0  0  0  3  0  0  0  0  0  0
  159.7370  211.4970  152.6250 C   0  0  0  0  0  0  0  0  0  0  0  0
  161.5860  209.8430  152.6420 C   0  0  0  0  0  3  0  0  0  0  0  0
  162.4370  208.7120  150.6320 C   0  0  0  0  0  0  0  0  0  0  0  0
  156.5390  211.7790  156.0210 C   0  0  0  0  0  0  0  0  0  0  0  0
  161.0380  211.3790  147.8660 O   0  0  0  0  0  0  0  0  0  0  0  0
  161.5470  214.4520  148.8600 C   0  0  0  0  0  1  0  0  0  0  0  0
  162.3070  209.5310  149.6360 N   0  0  0  0  0  0  0  0  0  0  0  0
  158.1190  211.5420  154.5100 C   0  0  0  0  0  0  0  0  0  0  0  0
  161.8180  209.1290  148.3300 C   0  0  0  0  0  2  0  0  0  0  0  0
  157.9320  213.1260  151.7990 C   0  0  0  0  0  0  0  0  0  0  0  0
  160.9660  210.9000  152.1030 C   0  0  0  0  0  3  0  0  0  0  0  0
  157.1420  212.5340  154.0980 C   0  0  0  0  0  0  0  0  0  0  0  0
  161.5870  212.8810  146.1220 C   0  0  0  0  0  0  0  0  0  0  0  0
  160.4890  211.6750  141.2640 C   0  0  2  0  0  3  0  0  0  0  0  0
  161.4940  212.9750  143.6660 C   0  0  2  0  0  3  0  0  0  0  0  0
  160.4670  211.8650  143.7060 C   0  0  0  0  0  0  0  0  0  0  0  0
  162.3020  211.5170  141.3010 S   0  0  0  0  0  0  0  0  0  0  0  0
  159.9810  211.2970  142.5330 O   0  0  0  0  0  0  0  0  0  0  0  0
  159.9780  211.4900  144.8090 O   0  0  0  0  0  0  0  0  0  0  0  0
  162.5210  212.8780  142.5150 C   0  0  1  0  0  3  0  0  0  0  0  0
  161.8620  214.4530  140.8000 O   0  0  0  0  0  1  0  0  0  0  0  0
  164.0690  214.3270  141.3900 O   0  0  0  0  0  1  0  0  0  0  0  0
  162.7520  214.2350  141.8530 C   0  0  0  0  0  3  0  0  0  0  0  0
  159.8790  210.8170  140.1450 C   0  0  1  0  0  3  0  0  0  0  0  0
  158.6450  211.3190  139.7300 O   0  0  0  0  0  1  0  0  0  0  0  0
  160.5280  211.5840  137.9550 O   0  0  0  0  0  1  0  0  0  0  0  0
  160.8030  210.6290  138.9390 C   0  0  2  0  0  3  0  0  0  0  0  0
  161.6580  208.2430  138.8460 N   0  0  0  0  0  1  0  0  0  0  0  0
  159.9290  208.9500  137.4580 O   0  0  0  0  0  0  0  0  0  0  0  0
  160.7600  209.2440  138.3630 C   0  0  0  0  0  0  0  0  0  0  0  0
  155.7410  211.5950  157.2610 C   0  0  0  0  0  2  0  0  0  0  0  0
  154.7350  209.7600  155.9370 C   0  0  0  0  0  1  0  0  0  0  0  0
  154.4540  210.8480  156.9570 C   0  0  0  0  0  2  0  0  0  0  0  0
  162.0280  207.2670  150.5470 C   0  0  0  0  0  2  0  0  0  0  0  0
  161.2080  207.0480  149.4290 O   0  0  0  0  0  0  0  0  0  0  0  0
  161.0550  203.8450  147.7480 O   0  0  0  0  0  0  0  0  0  0  0  0
  160.6950  204.7270  148.7970 C   0  0  2  0  0  3  0  0  0  0  0  0
  161.6590  205.9100  148.7130 C   0  0  1  0  0  3  0  0  0  0  0  0
  161.7890  204.4400  146.7370 C   0  0  0  0  0  0  0  0  0  0  0  0
  162.2370  203.7500  145.7400 N   0  0  0  0  0  2  0  0  0  0  0  0
  162.2130  206.1530  146.9760 S   0  0  0  0  0  0  0  0  0  0  0  0
  160.9440  204.7420  151.1730 O   0  0  0  0  0  1  0  0  0  0  0  0
  161.0240  202.6740  150.1770 O   0  0  0  0  0  0  0  0  0  0  0  0
  160.8390  204.0500  150.1250 C   0  0  0  0  0  0  0  0  0  0  0  0
  1 15  1  0  0  0  0
  2 17  1  0  0  0  0
  3 13  2  0  0  0  0
  4 21  1  0  0  0  0
  5 26  2  0  0  0  0
  6 17  2  0  0  0  0
  7 18  1  0  0  0  0
  7 11  1  0  0  0  0
  8 25  2  0  0  0  0
  9 23  2  0  0  0  0
  9 14  1  0  0  0  0
 10 18  1  0  0  0  0
 10 22  1  0  0  0  0
 11 19  1  1  0  0  0
 11  3  1  0  0  0  0
 12 23  1  0  0  0  0
 13 12  1  0  0  0  0
 14  4  2  0  0  0  0
 16  1  1  0  0  0  0
 17 44  1  0  0  0  0
 20 16  2  0  0  0  0
 21  2  2  0  0  0  0
 22 20  1  0  0  0  0
 23  8  1  0  0  0  0
 24 14  1  0  0  0  0
 24 15  2  0  0  0  0
 25 21  1  0  0  0  0
 25  6  1  0  0  0  0
 26  7  2  0  0  0  0
 27 37  1  6  0  0  0
 27 30  1  0  0  0  0
 27 31  1  0  0  0  0
 28 29  1  0  0  0  0
 28  5  1  1  0  0  0
 29 32  2  0  0  0  0
 30 33  1  0  0  0  0
 31 29  1  0  0  0  0
 33 36  1  6  0  0  0
 33 28  1  0  0  0  0
 34 36  1  0  0  0  0
 35 36  1  0  0  0  0
 37 38  1  6  0  0  0
 40 39  1  6  0  0  0
 40 37  1  0  0  0  0
 42 43  2  0  0  0  0
 43 41  1  0  0  0  0
 43 40  1  0  0  0  0
 45 46  1  0  0  0  0
 46 44  1  0  0  0  0
 47 16  1  0  0  0  0
 48 47  1  0  0  0  0
 49 50  1  0  0  0  0
 50 57  1  1  0  0  0
 51 50  1  0  0  0  0
 51 48  1  6  0  0  0
 52 54  1  0  0  0  0
 52 49  1  0  0  0  0
 53 52  2  0  0  0  0
 54 51  1  0  0  0  0
 57 56  2  0  0  0  0
 57 55  1  0  0  0  0
M  END
>  <MODEL>
3

>  <REMARK>
 VINA RESULT:      -5.5      1.168      1.596
  Name = 
  11 active torsions:
  status: ('A' for Active; 'I' for Inactive)
    1  A    between atoms: C_4  and  C_22
    2  A    between atoms: C_5  and  C_51
    3  A    between atoms: C_12  and  C_16
    4  A    between atoms: C_17  and  C_39
    5  A    between atoms: C_17  and  C_46
    6  A    between atoms: C_22  and  C_56
    7  A    between atoms: C_27  and  O_36
    8  A    between atoms: C_30  and  C_54
    9  A    between atoms: C_31  and  C_56
   10  A    between atoms: C_35  and  C_40
   11  A    between atoms: O_36  and  C_40
                            x       y       z     vdW  Elec       q    Type
                         _______ _______ _______ _____ _____    ______ ____

>  <TORSDO>
F 11

$$$$
=
 OpenBabel11052411283D

 57 61  0  0  1  0  0  0  0  0999 V2000
  162.4680  208.4370  151.1760 C   0  0  0  0  0  2  0  0  0  0  0  0
  158.0480  210.6530  155.5320 C   0  0  0  0  0  3  0  0  0  0  0  0
  159.7280  213.5560  148.9450 C   0  0  0  0  0  3  0  0  0  0  0  0
  159.4820  210.6400  153.5670 C   0  0  0  0  0  3  0  0  0  0  0  0
  162.3180  213.2590  144.8030 C   0  0  0  0  0  3  0  0  0  0  0  0
  156.8550  212.5700  155.1610 N   0  0  0  0  0  0  0  0  0  0  0  0
  161.1780  212.7290  147.1060 C   0  0  0  0  0  0  0  0  0  0  0  0
  157.7060  213.2520  153.0310 C   0  0  0  0  0  3  0  0  0  0  0  0
  159.4720  212.1820  151.6260 C   0  0  0  0  0  3  0  0  0  0  0  0
  161.5230  210.2800  146.8320 C   0  0  0  0  0  2  0  0  0  0  0  0
  160.8890  213.8660  148.0420 C   0  0  2  0  0  3  0  0  0  0  0  0
  158.1590  214.1340  150.7810 C   0  0  0  0  0  2  0  0  0  0  0  0
  159.2960  214.4470  149.8430 C   0  0  0  0  0  3  0  0  0  0  0  0
  159.9630  211.1030  152.3450 C   0  0  0  0  0  0  0  0  0  0  0  0
  161.4360  209.1350  152.0080 C   0  0  0  0  0  3  0  0  0  0  0  0
  161.9370  208.1550  149.8090 C   0  0  0  0  0  0  0  0  0  0  0  0
  157.0630  211.5210  155.9850 C   0  0  0  0  0  0  0  0  0  0  0  0
  160.9740  211.4050  147.5240 O   0  0  0  0  0  0  0  0  0  0  0  0
  162.1460  214.1490  148.8610 C   0  0  0  0  0  1  0  0  0  0  0  0
  161.9270  209.1150  148.9390 N   0  0  0  0  0  0  0  0  0  0  0  0
  158.4840  211.1960  154.3390 C   0  0  0  0  0  0  0  0  0  0  0  0
  161.3010  209.0040  147.6340 C   0  0  0  0  0  2  0  0  0  0  0  0
  158.4880  213.1520  151.8750 C   0  0  0  0  0  0  0  0  0  0  0  0
  161.0170  210.3580  151.6580 C   0  0  0  0  0  3  0  0  0  0  0  0
  157.7100  212.4080  154.1340 C   0  0  0  0  0  0  0  0  0  0  0  0
  161.7290  213.0030  145.9490 C   0  0  0  0  0  0  0  0  0  0  0  0
  159.4370  213.0110  141.5720 C   0  0  2  0  0  3  0  0  0  0  0  0
  161.5350  213.4580  143.5400 C   0  0  2  0  0  3  0  0  0  0  0  0
  160.0700  213.6920  143.8390 C   0  0  0  0  0  0  0  0  0  0  0  0
  160.3840  211.4710  141.7800 S   0  0  0  0  0  0  0  0  0  0  0  0
  159.1010  213.5070  142.8580 O   0  0  0  0  0  0  0  0  0  0  0  0
  159.7140  214.1360  144.9670 O   0  0  0  0  0  0  0  0  0  0  0  0
  161.8260  212.3120  142.5450 C   0  0  1  0  0  3  0  0  0  0  0  0
  163.2190  214.0640  141.6240 O   0  0  0  0  0  1  0  0  0  0  0  0
  162.4480  212.4230  140.2290 O   0  0  0  0  0  1  0  0  0  0  0  0
  162.8910  212.7120  141.5250 C   0  0  0  0  0  3  0  0  0  0  0  0
  158.1790  212.7800  140.7220 C   0  0  1  0  0  3  0  0  0  0  0  0
  157.3250  213.8840  140.7600 O   0  0  0  0  0  1  0  0  0  0  0  0
  159.5590  213.1370  138.7800 O   0  0  0  0  0  1  0  0  0  0  0  0
  158.4780  212.3980  139.2700 C   0  0  2  0  0  3  0  0  0  0  0  0
  157.0570  213.7490  137.6620 N   0  0  0  0  0  1  0  0  0  0  0  0
  156.4960  211.5560  138.2020 O   0  0  0  0  0  0  0  0  0  0  0  0
  157.2900  212.5260  138.3620 C   0  0  0  0  0  0  0  0  0  0  0  0
  156.3080  211.3240  157.2490 C   0  0  0  0  0  2  0  0  0  0  0  0
  154.4720  210.1600  156.0620 C   0  0  0  0  0  1  0  0  0  0  0  0
  154.8120  211.3200  156.9780 C   0  0  0  0  0  2  0  0  0  0  0  0
  161.2390  206.8440  149.5720 C   0  0  0  0  0  2  0  0  0  0  0  0
  161.7640  206.1990  148.4420 O   0  0  0  0  0  0  0  0  0  0  0  0
  160.6590  202.9230  149.5140 O   0  0  0  0  0  0  0  0  0  0  0  0
  160.7870  204.3220  149.6960 C   0  0  2  0  0  3  0  0  0  0  0  0
  161.8020  204.7980  148.6560 C   0  0  1  0  0  3  0  0  0  0  0  0
  161.0730  202.4730  148.2720 C   0  0  0  0  0  0  0  0  0  0  0  0
  161.0680  201.2150  147.9800 N   0  0  0  0  0  2  0  0  0  0  0  0
  161.7580  203.7020  147.1800 S   0  0  0  0  0  0  0  0  0  0  0  0
  162.2950  204.0170  151.5240 O   0  0  0  0  0  0  0  0  0  0  0  0
  160.5500  205.4610  151.9020 O   0  0  0  0  0  1  0  0  0  0  0  0
  161.2900  204.6290  151.0720 C   0  0  0  0  0  0  0  0  0  0  0  0
  1 15  1  0  0  0  0
  2 17  1  0  0  0  0
  3 13  2  0  0  0  0
  4 21  1  0  0  0  0
  5 26  2  0  0  0  0
  6 17  2  0  0  0  0
  7 18  1  0  0  0  0
  7 11  1  0  0  0  0
  8 25  2  0  0  0  0
  9 23  2  0  0  0  0
  9 14  1  0  0  0  0
 10 18  1  0  0  0  0
 10 22  1  0  0  0  0
 11 19  1  1  0  0  0
 11  3  1  0  0  0  0
 12 23  1  0  0  0  0
 13 12  1  0  0  0  0
 14  4  2  0  0  0  0
 16  1  1  0  0  0  0
 17 44  1  0  0  0  0
 20 16  2  0  0  0  0
 21  2  2  0  0  0  0
 22 20  1  0  0  0  0
 23  8  1  0  0  0  0
 24 15  2  0  0  0  0
 24 14  1  0  0  0  0
 25 21  1  0  0  0  0
 25  6  1  0  0  0  0
 26  7  2  0  0  0  0
 27 37  1  6  0  0  0
 27 30  1  0  0  0  0
 27 31  1  0  0  0  0
 28 29  1  0  0  0  0
 28  5  1  1  0  0  0
 29 32  2  0  0  0  0
 30 33  1  0  0  0  0
 31 29  1  0  0  0  0
 33 36  1  6  0  0  0
 33 28  1  0  0  0  0
 35 36  1  0  0  0  0
 36 34  1  0  0  0  0
 37 38  1  6  0  0  0
 40 39  1  6  0  0  0
 40 37  1  0  0  0  0
 41 43  1  0  0  0  0
 42 43  2  0  0  0  0
 43 40  1  0  0  0  0
 45 46  1  0  0  0  0
 46 44  1  0  0  0  0
 47 16  1  0  0  0  0
 48 47  1  0  0  0  0
 49 50  1  0  0  0  0
 50 57  1  1  0  0  0
 51 48  1  6  0  0  0
 51 50  1  0  0  0  0
 52 49  1  0  0  0  0
 53 52  2  0  0  0  0
 54 52  1  0  0  0  0
 54 51  1  0  0  0  0
 57 55  2  0  0  0  0
 57 56  1  0  0  0  0
M  END
>  <MODEL>
4

>  <REMARK>
 VINA RESULT:      -4.2      1.647      2.149
  Name = 
  11 active torsions:
  status: ('A' for Active; 'I' for Inactive)
    1  A    between atoms: C_4  and  C_22
    2  A    between atoms: C_5  and  C_51
    3  A    between atoms: C_12  and  C_16
    4  A    between atoms: C_17  and  C_39
    5  A    between atoms: C_17  and  C_46
    6  A    between atoms: C_22  and  C_56
    7  A    between atoms: C_27  and  O_36
    8  A    between atoms: C_30  and  C_54
    9  A    between atoms: C_31  and  C_56
   10  A    between atoms: C_35  and  C_40
   11  A    between atoms: O_36  and  C_40
                            x       y       z     vdW  Elec       q    Type
                         _______ _______ _______ _____ _____    ______ ____

>  <TORSDO>
F 11

$$$$
