=
 OpenBabel11042420233D

 30 33  0  0  1  0  0  0  0  0999 V2000
  163.1930  206.4690  151.9330 O   0  0  0  0  0  0  0  0  0  0  0  0
  160.8920  202.4110  150.9910 C   0  0  0  0  0  3  0  0  0  0  0  0
  160.8220  201.4210  148.8230 F   0  0  0  0  0  0  0  0  0  0  0  0
  160.9100  203.5550  151.7920 C   0  0  0  0  0  3  0  0  0  0  0  0
  161.8140  209.0620  150.6270 N   0  0  0  0  0  2  0  0  0  0  0  0
  160.8350  202.5310  149.5990 C   0  0  0  0  0  0  0  0  0  0  0  0
  161.6340  209.2220  148.3190 O   0  0  0  0  0  0  0  0  0  0  0  0
  161.9940  206.9980  149.1120 C   0  0  1  0  0  3  0  0  0  0  0  0
  160.7890  204.9470  149.8040 C   0  0  0  0  0  0  0  0  0  0  0  0
  162.0100  206.8980  152.0050 C   0  0  0  0  0  0  0  0  0  0  0  0
  161.8110  208.4740  149.3170 C   0  0  0  0  0  0  0  0  0  0  0  0
  160.7750  203.7960  149.0090 C   0  0  0  0  0  3  0  0  0  0  0  0
  160.6930  208.8390  152.8510 N   0  0  0  0  0  0  0  0  0  0  0  0
  160.6530  206.2840  149.1430 C   0  0  0  0  0  2  0  0  0  0  0  0
  160.8780  204.8250  151.2080 C   0  0  0  0  0  0  0  0  0  0  0  0
  162.1180  209.1670  153.0730 C   0  0  0  0  0  2  0  0  0  0  0  0
  161.7450  208.3640  151.9210 C   0  0  2  0  0  0  0  0  0  0  0  0
  160.9140  205.9820  152.0470 N   0  0  0  0  0  2  0  0  0  0  0  0
  160.0610  210.0720  152.3950 C   0  0  0  0  0  2  0  0  0  0  0  0
  160.1570  211.1390  153.4730 C   0  0  0  0  0  2  0  0  0  0  0  0
  157.9170  211.5640  154.1680 O   0  0  0  0  0  0  0  0  0  0  0  0
  159.0220  211.0210  154.4310 C   0  0  0  0  0  0  0  0  0  0  0  0
  159.1900  210.3410  155.6290 O   0  0  0  0  0  1  0  0  0  0  0  0
  162.6900  206.7100  147.8640 N   0  0  0  0  0  2  0  0  0  0  0  0
  160.3230  205.8370  145.1710 N   0  0  0  0  0  0  0  0  0  0  0  0
  162.0230  204.1580  145.2130 C   0  0  0  0  0  3  0  0  0  0  0  0
  162.6410  204.8220  146.2740 C   0  0  0  0  0  3  0  0  0  0  0  0
  160.9120  206.5000  146.2020 C   0  0  0  0  0  3  0  0  0  0  0  0
  162.0860  206.0060  146.7760 C   0  0  0  0  0  0  0  0  0  0  0  0
  160.8510  204.6880  144.6680 C   0  0  0  0  0  3  0  0  0  0  0  0
  1 10  2  0  0  0  0
  2  4  1  0  0  0  0
  3  6  1  0  0  0  0
  5 17  1  0  0  0  0
  6  2  2  0  0  0  0
  7 11  2  0  0  0  0
  8 24  1  6  0  0  0
  8 14  1  0  0  0  0
  8 11  1  0  0  0  0
  9 15  1  0  0  0  0
 10 18  1  0  0  0  0
 11  5  1  0  0  0  0
 12  6  1  0  0  0  0
 12  9  2  0  0  0  0
 13 16  1  0  0  0  0
 14  9  1  0  0  0  0
 15  4  2  0  0  0  0
 15 18  1  0  0  0  0
 17 10  1  0  0  0  0
 17 13  1  0  0  0  0
 17 16  1  1  0  0  0
 19 13  1  0  0  0  0
 19 20  1  0  0  0  0
 20 22  1  0  0  0  0
 21 22  2  0  0  0  0
 22 23  1  0  0  0  0
 25 28  1  0  0  0  0
 26 27  2  0  0  0  0
 27 29  1  0  0  0  0
 28 29  2  0  0  0  0
 29 24  1  0  0  0  0
 30 25  2  0  0  0  0
 30 26  1  0  0  0  0
M  END
>  <MODEL>
1

>  <REMARK>
 VINA RESULT:      -9.4      0.000      0.000
  Name = 
  5 active torsions:
  status: ('A' for Active; 'I' for Inactive)
    1  A    between atoms: C_4  and  C_5
    2  A    between atoms: C_4  and  N_21
    3  A    between atoms: C_5  and  C_15
    4  A    between atoms: C_11  and  N_30
    5  A    between atoms: C_27  and  N_30
                            x       y       z     vdW  Elec       q    Type
                         _______ _______ _______ _____ _____    ______ ____

>  <TORSDO>
F 5

$$$$
