=
 OpenBabel11042421593D

 46 48  0  0  1  0  0  0  0  0999 V2000
  160.4180  207.8060  155.2060 F   0  0  0  0  0  0  0  0  0  0  0  0
  160.8080  208.4690  154.0850 C   0  0  0  0  0  0  0  0  0  0  0  0
  160.5870  209.7850  154.0080 C   0  0  0  0  0  3  0  0  0  0  0  0
  161.8100  206.3030  153.4290 C   0  0  0  0  0  2  0  0  0  0  0  0
  160.6710  207.6410  151.7430 C   0  0  2  0  0  3  0  0  0  0  0  0
  161.5270  207.7260  152.9970 C   0  0  1  0  0  3  0  0  0  0  0  0
  161.7020  205.4790  152.1690 C   0  0  1  0  0  3  0  0  0  0  0  0
  161.2250  204.0800  152.4990 C   0  0  0  0  0  1  0  0  0  0  0  0
  160.6800  206.1870  151.3020 C   0  0  0  0  0  2  0  0  0  0  0  0
  161.2600  208.5070  150.6430 C   0  0  0  0  0  2  0  0  0  0  0  0
  162.3150  207.8430  150.0090 O   0  0  0  0  0  0  0  0  0  0  0  0
  162.9490  208.3510  147.8820 O   0  0  0  0  0  1  0  0  0  0  0  0
  161.9450  207.7830  148.6640 C   0  0  1  0  0  3  0  0  0  0  0  0
  161.7460  206.3970  148.2640 N   0  0  0  0  0  2  0  0  0  0  0  0
  161.7690  206.3440  146.8090 C   0  0  0  0  0  2  0  0  0  0  0  0
  163.5470  204.9090  146.1370 O   0  0  0  0  0  0  0  0  0  0  0  0
  161.4250  203.9380  146.1280 N   0  0  0  0  0  2  0  0  0  0  0  0
  162.3120  205.0350  146.3490 C   0  0  0  0  0  0  0  0  0  0  0  0
  161.8810  202.7280  145.7190 O   0  0  0  0  0  0  0  0  0  0  0  0
  159.5750  201.6980  144.9950 O   0  0  0  0  0  0  0  0  0  0  0  0
  160.6330  201.6340  146.0740 P   0  0  1  0  0  0  0  0  0  0  0  0
  161.2580  200.0640  146.1640 O   0  0  0  0  0  1  0  0  0  0  0  0
  159.9340  202.0580  147.5880 O   0  0  0  0  0  0  0  0  0  0  0  0
  160.6720  202.1500  148.7730 C   0  0  0  0  0  0  0  0  0  0  0  0
  160.9760  203.2880  149.2180 O   0  0  0  0  0  0  0  0  0  0  0  0
  161.1140  200.9410  149.5280 C   0  0  0  0  0  1  0  0  0  0  0  0
  160.9900  210.6110  152.8240 C   0  0  0  0  0  2  0  0  0  0  0  0
  160.1310  212.5980  151.5600 C   0  0  0  0  0  0  0  0  0  0  0  0
  160.6850  212.0710  150.3500 N   0  0  0  0  0  2  0  0  0  0  0  0
  159.6040  213.7450  151.5660 O   0  0  0  0  0  0  0  0  0  0  0  0
  160.1870  211.8250  152.7700 N   0  0  0  0  0  0  0  0  0  0  0  0
  161.0830  212.4280  146.6240 C   0  0  2  0  0  3  0  0  0  0  0  0
  161.3400  211.9760  148.0080 C   0  0  1  0  0  3  0  0  0  0  0  0
  162.3670  212.7720  147.2940 N   0  0  2  0  0  0  0  0  0  0  0  0
  160.7610  212.8420  149.1200 C   0  0  2  0  0  3  0  0  0  0  0  0
  161.7350  213.9750  149.2830 C   0  0  0  0  0  2  0  0  0  0  0  0
  162.3770  214.0950  147.9250 C   0  0  0  0  0  2  0  0  0  0  0  0
  158.8160  213.1770  146.8660 O   0  0  0  0  0  1  0  0  0  0  0  0
  160.0250  214.0000  144.9980 C   0  0  0  0  0  1  0  0  0  0  0  0
  160.0830  213.5880  146.4560 C   0  0  2  0  0  3  0  0  0  0  0  0
  159.5880  212.3230  154.0040 C   0  0  0  0  0  2  0  0  0  0  0  0
  158.0760  212.1400  153.9740 C   0  0  0  0  0  2  0  0  0  0  0  0
  157.4650  212.7600  155.1010 O   0  0  0  0  0  0  0  0  0  0  0  0
  155.4860  213.2940  156.2500 C   0  0  0  0  0  2  0  0  0  0  0  0
  155.4250  213.5490  153.8370 C   0  0  0  0  0  1  0  0  0  0  0  0
  156.1350  213.1950  155.1010 C   0  0  0  0  0  0  0  0  0  0  0  0
  2  1  1  0  0  0  0
  3  2  2  0  0  0  0
  5 10  1  6  0  0  0
  5  6  1  0  0  0  0
  6  4  1  0  0  0  0
  6  2  1  1  0  0  0
  7  8  1  1  0  0  0
  7  4  1  0  0  0  0
  9  5  1  0  0  0  0
  9  7  1  0  0  0  0
 11 10  1  0  0  0  0
 13 12  1  6  0  0  0
 13 11  1  0  0  0  0
 14 13  1  0  0  0  0
 15 14  1  0  0  0  0
 16 18  2  0  0  0  0
 17 18  1  0  0  0  0
 18 15  1  0  0  0  0
 19 21  1  0  0  0  0
 19 17  1  0  0  0  0
 21 20  2  6  0  0  0
 21 22  1  0  0  0  0
 21 23  1  0  0  0  0
 23 24  1  0  0  0  0
 24 25  2  0  0  0  0
 24 26  1  0  0  0  0
 27  3  1  0  0  0  0
 28 30  2  0  0  0  0
 28 31  1  0  0  0  0
 29 28  1  0  0  0  0
 31 27  1  0  0  0  0
 31 41  1  0  0  0  0
 32 40  1  1  0  0  0
 32 34  1  0  0  0  0
 32 33  1  0  0  0  0
 33 35  1  0  0  0  0
 34 37  1  0  0  0  0
 34 33  1  0  0  0  0
 35 36  1  0  0  0  0
 35 29  1  0  0  0  0
 37 36  1  0  0  0  0
 39 40  1  0  0  0  0
 40 38  1  0  0  0  0
 42 41  1  0  0  0  0
 42 43  1  0  0  0  0
 43 46  1  0  0  0  0
 45 46  1  0  0  0  0
 46 44  2  0  0  0  0
M  END
>  <MODEL>
1

>  <REMARK>
 VINA RESULT:      -6.6      0.000      0.000
  Name = 
  19 active torsions:
  status: ('A' for Active; 'I' for Inactive)
    1  A    between atoms: C_2  and  C_7
    2  A    between atoms: C_2  and  N_24
    3  A    between atoms: C_6  and  C_23
    4  A    between atoms: C_6  and  N_43
    5  A    between atoms: C_7  and  O_8
    6  A    between atoms: O_8  and  C_45
    7  A    between atoms: C_10  and  O_30
    8  A    between atoms: C_11  and  C_36
    9  A    between atoms: N_13  and  C_37
   10  A    between atoms: C_14  and  C_34
   11  A    between atoms: O_15  and  C_34
   12  A    between atoms: O_15  and  C_46
   13  A    between atoms: C_18  and  C_27
   14  A    between atoms: C_21  and  C_26
   15  A    between atoms: N_22  and  O_31
   16  A    between atoms: N_24  and  C_26
   17  A    between atoms: O_30  and  P_38
   18  A    between atoms: O_31  and  P_38
   19  A    between atoms: N_43  and  C_46
                            x       y       z     vdW  Elec       q    Type
                         _______ _______ _______ _____ _____    ______ ____

>  <TORSDO>
F 19

$$$$
=
 OpenBabel11042421593D

 46 48  0  0  1  0  0  0  0  0999 V2000
  159.1290  206.1060  148.4610 F   0  0  0  0  0  0  0  0  0  0  0  0
  160.3000  206.0240  149.1470 C   0  0  0  0  0  0  0  0  0  0  0  0
  160.2710  206.1160  150.4800 C   0  0  0  0  0  3  0  0  0  0  0  0
  161.5260  204.4300  147.7040 C   0  0  0  0  0  2  0  0  0  0  0  0
  161.7900  206.8200  147.3200 C   0  0  2  0  0  3  0  0  0  0  0  0
  161.5790  205.7720  148.4020 C   0  0  1  0  0  3  0  0  0  0  0  0
  162.3100  204.6170  146.4270 C   0  0  1  0  0  3  0  0  0  0  0  0
  161.7630  203.7150  145.3410 C   0  0  0  0  0  1  0  0  0  0  0  0
  162.1220  206.0710  146.0410 C   0  0  0  0  0  2  0  0  0  0  0  0
  162.9480  207.7310  147.6880 C   0  0  0  0  0  2  0  0  0  0  0  0
  162.8910  208.0710  149.0440 O   0  0  0  0  0  0  0  0  0  0  0  0
  161.8950  209.5800  150.4280 O   0  0  0  0  0  1  0  0  0  0  0  0
  162.0080  209.1510  149.1070 C   0  0  1  0  0  3  0  0  0  0  0  0
  162.5020  210.2460  148.2830 N   0  0  0  0  0  2  0  0  0  0  0  0
  162.0200  211.4930  148.8620 C   0  0  0  0  0  2  0  0  0  0  0  0
  163.0010  213.5250  148.1030 O   0  0  0  0  0  0  0  0  0  0  0  0
  161.3470  212.6390  146.7160 N   0  0  0  0  0  2  0  0  0  0  0  0
  162.1680  212.6070  147.8830 C   0  0  0  0  0  0  0  0  0  0  0  0
  161.4580  213.6310  145.7970 O   0  0  0  0  0  0  0  0  0  0  0  0
  159.6380  212.0010  144.8320 O   0  0  0  0  0  1  0  0  0  0  0  0
  160.6300  213.0680  144.4260 P   0  0  1  0  0  0  0  0  0  0  0  0
  159.8140  214.3510  143.6850 O   0  0  0  0  0  0  0  0  0  0  0  0
  161.7690  212.4020  143.3220 O   0  0  0  0  0  0  0  0  0  0  0  0
  161.4140  211.9010  142.0650 C   0  0  0  0  0  0  0  0  0  0  0  0
  160.2160  211.5750  141.8530 O   0  0  0  0  0  0  0  0  0  0  0  0
  162.4090  211.7390  140.9650 C   0  0  0  0  0  1  0  0  0  0  0  0
  161.5020  206.0240  151.3300 C   0  0  0  0  0  2  0  0  0  0  0  0
  160.9310  206.4310  153.7370 C   0  0  0  0  0  0  0  0  0  0  0  0
  160.8370  207.8370  153.4790 N   0  0  0  0  0  2  0  0  0  0  0  0
  160.8280  205.9980  154.9180 O   0  0  0  0  0  0  0  0  0  0  0  0
  161.1560  205.5180  152.6510 N   0  0  0  0  0  0  0  0  0  0  0  0
  160.6700  211.3610  154.7900 C   0  0  2  0  0  3  0  0  0  0  0  0
  161.1350  210.1920  154.0130 C   0  0  1  0  0  3  0  0  0  0  0  0
  162.0380  210.8140  155.0110 N   0  0  2  0  0  0  0  0  0  0  0  0
  160.7210  208.8230  154.5400 C   0  0  2  0  0  3  0  0  0  0  0  0
  161.6980  208.5130  155.6390 C   0  0  0  0  0  2  0  0  0  0  0  0
  162.1300  209.8710  156.1300 C   0  0  0  0  0  2  0  0  0  0  0  0
  158.4000  210.8140  155.3410 O   0  0  0  0  0  1  0  0  0  0  0  0
  159.5350  212.2930  156.8090 C   0  0  0  0  0  1  0  0  0  0  0  0
  159.6470  211.0790  155.9060 C   0  0  2  0  0  3  0  0  0  0  0  0
  161.2100  204.0780  152.8840 C   0  0  0  0  0  2  0  0  0  0  0  0
  160.3900  203.3370  151.8360 C   0  0  0  0  0  2  0  0  0  0  0  0
  161.2350  202.6980  150.8840 O   0  0  0  0  0  0  0  0  0  0  0  0
  159.4570  201.8150  149.6260 C   0  0  0  0  0  2  0  0  0  0  0  0
  161.6560  200.8990  149.1610 C   0  0  0  0  0  1  0  0  0  0  0  0
  160.7510  201.8250  149.9040 C   0  0  0  0  0  0  0  0  0  0  0  0
  1  2  1  0  0  0  0
  2  3  2  0  0  0  0
  3 27  1  0  0  0  0
  4  6  1  0  0  0  0
  5 10  1  1  0  0  0
  5  6  1  0  0  0  0
  6  2  1  6  0  0  0
  7  8  1  6  0  0  0
  7  4  1  0  0  0  0
  9  7  1  0  0  0  0
  9  5  1  0  0  0  0
 10 11  1  0  0  0  0
 11 13  1  0  0  0  0
 13 12  1  1  0  0  0
 14 15  1  0  0  0  0
 14 13  1  0  0  0  0
 17 18  1  0  0  0  0
 18 16  2  0  0  0  0
 18 15  1  0  0  0  0
 19 17  1  0  0  0  0
 21 22  2  6  0  0  0
 21 20  1  0  0  0  0
 21 19  1  0  0  0  0
 23 21  1  0  0  0  0
 24 23  1  0  0  0  0
 25 24  2  0  0  0  0
 26 24  1  0  0  0  0
 27 31  1  0  0  0  0
 28 30  2  0  0  0  0
 29 28  1  0  0  0  0
 29 35  1  0  0  0  0
 31 41  1  0  0  0  0
 31 28  1  0  0  0  0
 32 34  1  0  0  0  0
 32 40  1  1  0  0  0
 33 35  1  0  0  0  0
 33 32  1  0  0  0  0
 33 34  1  0  0  0  0
 34 37  1  0  0  0  0
 35 36  1  0  0  0  0
 36 37  1  0  0  0  0
 38 40  1  0  0  0  0
 40 39  1  0  0  0  0
 42 41  1  0  0  0  0
 43 42  1  0  0  0  0
 44 46  2  0  0  0  0
 45 46  1  0  0  0  0
 46 43  1  0  0  0  0
M  END
>  <MODEL>
2

>  <REMARK>
 VINA RESULT:      -6.3      3.521      8.752
  Name = 
  19 active torsions:
  status: ('A' for Active; 'I' for Inactive)
    1  A    between atoms: C_2  and  C_7
    2  A    between atoms: C_2  and  N_24
    3  A    between atoms: C_6  and  C_23
    4  A    between atoms: C_6  and  N_43
    5  A    between atoms: C_7  and  O_8
    6  A    between atoms: O_8  and  C_45
    7  A    between atoms: C_10  and  O_30
    8  A    between atoms: C_11  and  C_36
    9  A    between atoms: N_13  and  C_37
   10  A    between atoms: C_14  and  C_34
   11  A    between atoms: O_15  and  C_34
   12  A    between atoms: O_15  and  C_46
   13  A    between atoms: C_18  and  C_27
   14  A    between atoms: C_21  and  C_26
   15  A    between atoms: N_22  and  O_31
   16  A    between atoms: N_24  and  C_26
   17  A    between atoms: O_30  and  P_38
   18  A    between atoms: O_31  and  P_38
   19  A    between atoms: N_43  and  C_46
                            x       y       z     vdW  Elec       q    Type
                         _______ _______ _______ _____ _____    ______ ____

>  <TORSDO>
F 19

$$$$
=
 OpenBabel11042421593D

 46 48  0  0  1  0  0  0  0  0999 V2000
  160.7700  206.2750  154.3860 F   0  0  0  0  0  0  0  0  0  0  0  0
  161.0880  207.0570  153.3190 C   0  0  0  0  0  0  0  0  0  0  0  0
  161.0120  208.3850  153.4520 C   0  0  0  0  0  3  0  0  0  0  0  0
  162.3290  205.1440  152.3560 C   0  0  0  0  0  2  0  0  0  0  0  0
  160.3990  206.0270  151.1620 C   0  0  2  0  0  3  0  0  0  0  0  0
  161.5700  206.4180  152.0500 C   0  0  1  0  0  3  0  0  0  0  0  0
  162.0230  204.2160  151.2060 C   0  0  1  0  0  3  0  0  0  0  0  0
  162.0500  202.7770  151.6750 C   0  0  0  0  0  1  0  0  0  0  0  0
  160.6280  204.5850  150.7400 C   0  0  0  0  0  2  0  0  0  0  0  0
  160.3530  206.9130  149.9290 C   0  0  0  0  0  2  0  0  0  0  0  0
  161.6080  207.4820  149.6890 O   0  0  0  0  0  0  0  0  0  0  0  0
  162.9340  208.1120  147.9470 O   0  0  0  0  0  1  0  0  0  0  0  0
  161.6710  207.6390  148.3020 C   0  0  1  0  0  3  0  0  0  0  0  0
  161.4290  206.3620  147.6450 N   0  0  0  0  0  2  0  0  0  0  0  0
  162.3330  206.2690  146.5060 C   0  0  0  0  0  2  0  0  0  0  0  0
  161.4500  205.6530  144.3820 O   0  0  0  0  0  0  0  0  0  0  0  0
  161.7300  203.8960  145.8920 N   0  0  0  0  0  2  0  0  0  0  0  0
  161.8210  205.2720  145.5230 C   0  0  0  0  0  0  0  0  0  0  0  0
  161.2780  202.9570  145.0230 O   0  0  0  0  0  0  0  0  0  0  0  0
  159.0850  201.6430  145.6250 O   0  0  0  0  0  0  0  0  0  0  0  0
  160.5480  201.7670  145.9880 P   0  0  1  0  0  0  0  0  0  0  0  0
  161.3210  200.2820  145.7470 O   0  0  0  0  0  1  0  0  0  0  0  0
  160.6910  202.2240  147.6410 O   0  0  0  0  0  0  0  0  0  0  0  0
  160.5450  201.3220  148.6990 C   0  0  0  0  0  0  0  0  0  0  0  0
  161.4820  200.5220  148.9550 O   0  0  0  0  0  0  0  0  0  0  0  0
  159.3110  201.2760  149.5370 C   0  0  0  0  0  1  0  0  0  0  0  0
  161.3520  209.3350  152.3440 C   0  0  0  0  0  2  0  0  0  0  0  0
  160.7110  211.6430  151.6060 C   0  0  0  0  0  0  0  0  0  0  0  0
  160.9120  211.2650  150.2400 N   0  0  0  0  0  2  0  0  0  0  0  0
  160.4440  212.8420  151.8960 O   0  0  0  0  0  0  0  0  0  0  0  0
  160.8240  210.6580  152.6460 N   0  0  0  0  0  0  0  0  0  0  0  0
  162.0970  212.5700  146.9140 C   0  0  2  0  0  3  0  0  0  0  0  0
  162.1490  212.0020  148.2780 C   0  0  1  0  0  3  0  0  0  0  0  0
  162.7710  213.3210  148.0090 N   0  0  2  0  0  0  0  0  0  0  0  0
  160.9210  212.2290  149.1510 C   0  0  2  0  0  3  0  0  0  0  0  0
  161.0790  213.6200  149.6980 C   0  0  0  0  0  2  0  0  0  0  0  0
  161.9180  214.3200  148.6610 C   0  0  0  0  0  2  0  0  0  0  0  0
  159.8390  212.0800  146.2680 O   0  0  0  0  0  1  0  0  0  0  0  0
  160.9100  213.8760  145.1470 C   0  0  0  0  0  1  0  0  0  0  0  0
  160.7370  213.1300  146.4560 C   0  0  2  0  0  3  0  0  0  0  0  0
  160.5780  211.0110  154.0400 C   0  0  0  0  0  2  0  0  0  0  0  0
  159.1830  210.5700  154.4640 C   0  0  0  0  0  2  0  0  0  0  0  0
  159.0930  210.4510  155.8800 O   0  0  0  0  0  0  0  0  0  0  0  0
  159.8850  208.4560  156.8360 C   0  0  0  0  0  2  0  0  0  0  0  0
  161.2120  210.4450  157.2560 C   0  0  0  0  0  1  0  0  0  0  0  0
  160.0370  209.7570  156.6450 C   0  0  0  0  0  0  0  0  0  0  0  0
  2  3  2  0  0  0  0
  2  1  1  0  0  0  0
  5 10  1  6  0  0  0
  5  6  1  0  0  0  0
  6  4  1  0  0  0  0
  6  2  1  1  0  0  0
  7  8  1  1  0  0  0
  7  4  1  0  0  0  0
  9  5  1  0  0  0  0
  9  7  1  0  0  0  0
 11 10  1  0  0  0  0
 13 12  1  1  0  0  0
 13 11  1  0  0  0  0
 14 13  1  0  0  0  0
 15 14  1  0  0  0  0
 16 18  2  0  0  0  0
 18 17  1  0  0  0  0
 18 15  1  0  0  0  0
 19 17  1  0  0  0  0
 19 21  1  0  0  0  0
 21 20  2  6  0  0  0
 21 23  1  0  0  0  0
 22 21  1  0  0  0  0
 23 24  1  0  0  0  0
 24 25  2  0  0  0  0
 24 26  1  0  0  0  0
 27 31  1  0  0  0  0
 27  3  1  0  0  0  0
 28 30  2  0  0  0  0
 28 31  1  0  0  0  0
 29 28  1  0  0  0  0
 31 41  1  0  0  0  0
 32 40  1  1  0  0  0
 32 34  1  0  0  0  0
 32 33  1  0  0  0  0
 33 35  1  0  0  0  0
 34 33  1  0  0  0  0
 34 37  1  0  0  0  0
 35 36  1  0  0  0  0
 35 29  1  0  0  0  0
 37 36  1  0  0  0  0
 38 40  1  0  0  0  0
 39 40  1  0  0  0  0
 41 42  1  0  0  0  0
 42 43  1  0  0  0  0
 43 46  1  0  0  0  0
 46 44  2  0  0  0  0
 46 45  1  0  0  0  0
M  END
>  <MODEL>
3

>  <REMARK>
 VINA RESULT:      -5.6      1.680      2.154
  Name = 
  19 active torsions:
  status: ('A' for Active; 'I' for Inactive)
    1  A    between atoms: C_2  and  C_7
    2  A    between atoms: C_2  and  N_24
    3  A    between atoms: C_6  and  C_23
    4  A    between atoms: C_6  and  N_43
    5  A    between atoms: C_7  and  O_8
    6  A    between atoms: O_8  and  C_45
    7  A    between atoms: C_10  and  O_30
    8  A    between atoms: C_11  and  C_36
    9  A    between atoms: N_13  and  C_37
   10  A    between atoms: C_14  and  C_34
   11  A    between atoms: O_15  and  C_34
   12  A    between atoms: O_15  and  C_46
   13  A    between atoms: C_18  and  C_27
   14  A    between atoms: C_21  and  C_26
   15  A    between atoms: N_22  and  O_31
   16  A    between atoms: N_24  and  C_26
   17  A    between atoms: O_30  and  P_38
   18  A    between atoms: O_31  and  P_38
   19  A    between atoms: N_43  and  C_46
                            x       y       z     vdW  Elec       q    Type
                         _______ _______ _______ _____ _____    ______ ____

>  <TORSDO>
F 19

$$$$
=
 OpenBabel11042421593D

 46 48  0  0  1  0  0  0  0  0999 V2000
  163.9750  211.9850  147.6480 F   0  0  0  0  0  0  0  0  0  0  0  0
  162.7920  211.5190  148.1330 C   0  0  0  0  0  0  0  0  0  0  0  0
  162.7990  210.4220  148.8950 C   0  0  0  0  0  3  0  0  0  0  0  0
  160.5320  212.0730  148.9780 C   0  0  0  0  0  2  0  0  0  0  0  0
  161.7990  213.7730  147.7780 C   0  0  2  0  0  3  0  0  0  0  0  0
  161.5270  212.2780  147.8550 C   0  0  1  0  0  3  0  0  0  0  0  0
  159.7860  213.3800  149.0870 C   0  0  1  0  0  3  0  0  0  0  0  0
  159.3430  213.6110  150.5170 C   0  0  0  0  0  1  0  0  0  0  0  0
  160.7720  214.4530  148.6680 C   0  0  0  0  0  2  0  0  0  0  0  0
  161.6360  214.2650  146.3510 C   0  0  0  0  0  2  0  0  0  0  0  0
  161.7310  213.1980  145.4510 O   0  0  0  0  0  0  0  0  0  0  0  0
  163.3590  213.6930  143.9370 O   0  0  0  0  0  1  0  0  0  0  0  0
  161.9960  213.7920  144.2160 C   0  0  1  0  0  3  0  0  0  0  0  0
  161.2370  213.1230  143.1680 N   0  0  0  0  0  2  0  0  0  0  0  0
  162.1700  212.3300  142.3790 C   0  0  0  0  0  2  0  0  0  0  0  0
  161.4870  213.6380  140.5100 O   0  0  0  0  0  0  0  0  0  0  0  0
  162.1180  211.4460  140.0150 N   0  0  0  0  0  2  0  0  0  0  0  0
  161.9100  212.5270  140.9250 C   0  0  0  0  0  0  0  0  0  0  0  0
  161.9020  211.5880  138.6830 O   0  0  0  0  0  0  0  0  0  0  0  0
  162.3680  209.6030  137.0270 O   0  0  0  0  0  0  0  0  0  0  0  0
  161.4420  210.0480  138.1370 P   0  0  1  0  0  0  0  0  0  0  0  0
  161.5130  208.9430  139.4150 O   0  0  0  0  0  1  0  0  0  0  0  0
  159.8290  210.1280  137.5400 O   0  0  0  0  0  0  0  0  0  0  0  0
  158.7230  210.3790  138.3580 C   0  0  0  0  0  0  0  0  0  0  0  0
  158.7270  211.3990  139.0960 O   0  0  0  0  0  0  0  0  0  0  0  0
  157.5350  209.4770  138.3850 C   0  0  0  0  0  1  0  0  0  0  0  0
  161.5550  209.8350  149.4900 C   0  0  0  0  0  2  0  0  0  0  0  0
  161.7130  207.3360  149.6020 C   0  0  0  0  0  0  0  0  0  0  0  0
  161.4320  207.2540  148.2000 N   0  0  0  0  0  2  0  0  0  0  0  0
  161.8030  206.2820  150.2910 O   0  0  0  0  0  0  0  0  0  0  0  0
  161.8810  208.6200  150.2240 N   0  0  0  0  0  0  0  0  0  0  0  0
  162.3710  203.8680  146.8510 C   0  0  2  0  0  3  0  0  0  0  0  0
  162.4460  205.3180  147.1300 C   0  0  1  0  0  3  0  0  0  0  0  0
  162.3080  204.8470  145.7310 N   0  0  2  0  0  0  0  0  0  0  0  0
  161.1420  205.9960  147.5310 C   0  0  2  0  0  3  0  0  0  0  0  0
  160.4210  206.2570  146.2380 C   0  0  0  0  0  2  0  0  0  0  0  0
  160.9440  205.1880  145.3130 C   0  0  0  0  0  2  0  0  0  0  0  0
  160.8100  203.2810  148.5760 O   0  0  0  0  0  1  0  0  0  0  0  0
  161.1320  201.7000  146.8370 C   0  0  0  0  0  1  0  0  0  0  0  0
  161.0460  203.1690  147.2070 C   0  0  2  0  0  3  0  0  0  0  0  0
  162.2140  208.7270  151.6400 C   0  0  0  0  0  2  0  0  0  0  0  0
  161.0840  208.1700  152.4970 C   0  0  0  0  0  2  0  0  0  0  0  0
  160.2490  209.2160  152.9840 O   0  0  0  0  0  0  0  0  0  0  0  0
  159.8280  211.0330  154.4120 C   0  0  0  0  0  2  0  0  0  0  0  0
  161.7010  209.6110  155.0140 C   0  0  0  0  0  1  0  0  0  0  0  0
  160.5610  209.9700  154.1200 C   0  0  0  0  0  0  0  0  0  0  0  0
  1  2  1  0  0  0  0
  2  3  2  0  0  0  0
  3 27  1  0  0  0  0
  4  7  1  0  0  0  0
  5 10  1  6  0  0  0
  5  6  1  0  0  0  0
  5  9  1  0  0  0  0
  6  2  1  1  0  0  0
  6  4  1  0  0  0  0
  7  8  1  1  0  0  0
  9  7  1  0  0  0  0
 11 10  1  0  0  0  0
 13 12  1  6  0  0  0
 13 11  1  0  0  0  0
 14 13  1  0  0  0  0
 15 14  1  0  0  0  0
 16 18  2  0  0  0  0
 17 18  1  0  0  0  0
 18 15  1  0  0  0  0
 19 17  1  0  0  0  0
 21 20  2  6  0  0  0
 21 19  1  0  0  0  0
 21 22  1  0  0  0  0
 23 21  1  0  0  0  0
 23 24  1  0  0  0  0
 24 26  1  0  0  0  0
 24 25  2  0  0  0  0
 27 31  1  0  0  0  0
 28 31  1  0  0  0  0
 28 30  2  0  0  0  0
 29 28  1  0  0  0  0
 31 41  1  0  0  0  0
 32 33  1  0  0  0  0
 32 40  1  1  0  0  0
 33 35  1  0  0  0  0
 34 32  1  0  0  0  0
 34 33  1  0  0  0  0
 35 29  1  0  0  0  0
 36 35  1  0  0  0  0
 37 34  1  0  0  0  0
 37 36  1  0  0  0  0
 39 40  1  0  0  0  0
 40 38  1  0  0  0  0
 41 42  1  0  0  0  0
 42 43  1  0  0  0  0
 43 46  1  0  0  0  0
 46 44  2  0  0  0  0
 46 45  1  0  0  0  0
M  END
>  <MODEL>
4

>  <REMARK>
 VINA RESULT:      -5.2      4.753      8.794
  Name = 
  19 active torsions:
  status: ('A' for Active; 'I' for Inactive)
    1  A    between atoms: C_2  and  C_7
    2  A    between atoms: C_2  and  N_24
    3  A    between atoms: C_6  and  C_23
    4  A    between atoms: C_6  and  N_43
    5  A    between atoms: C_7  and  O_8
    6  A    between atoms: O_8  and  C_45
    7  A    between atoms: C_10  and  O_30
    8  A    between atoms: C_11  and  C_36
    9  A    between atoms: N_13  and  C_37
   10  A    between atoms: C_14  and  C_34
   11  A    between atoms: O_15  and  C_34
   12  A    between atoms: O_15  and  C_46
   13  A    between atoms: C_18  and  C_27
   14  A    between atoms: C_21  and  C_26
   15  A    between atoms: N_22  and  O_31
   16  A    between atoms: N_24  and  C_26
   17  A    between atoms: O_30  and  P_38
   18  A    between atoms: O_31  and  P_38
   19  A    between atoms: N_43  and  C_46
                            x       y       z     vdW  Elec       q    Type
                         _______ _______ _______ _____ _____    ______ ____

>  <TORSDO>
F 19

$$$$
=
 OpenBabel11042421593D

 46 48  0  0  1  0  0  0  0  0999 V2000
  160.8180  203.3140  147.6090 F   0  0  0  0  0  0  0  0  0  0  0  0
  160.8540  204.4720  148.3200 C   0  0  0  0  0  0  0  0  0  0  0  0
  160.7370  204.4130  149.6510 C   0  0  0  0  0  3  0  0  0  0  0  0
  160.7180  206.9370  148.5020 C   0  0  0  0  0  2  0  0  0  0  0  0
  162.5560  205.9400  147.2530 C   0  0  2  0  0  3  0  0  0  0  0  0
  161.0860  205.7720  147.6070 C   0  0  1  0  0  3  0  0  0  0  0  0
  161.6930  208.0330  148.1450 C   0  0  1  0  0  3  0  0  0  0  0  0
  161.9620  208.9060  149.3520 C   0  0  0  0  0  1  0  0  0  0  0  0
  162.9650  207.3270  147.7180 C   0  0  0  0  0  2  0  0  0  0  0  0
  162.7510  205.8320  145.7500 C   0  0  0  0  0  2  0  0  0  0  0  0
  161.5520  206.1000  145.0810 O   0  0  0  0  0  0  0  0  0  0  0  0
  160.5180  204.2210  144.3160 O   0  0  0  0  0  1  0  0  0  0  0  0
  161.5040  205.1670  144.0430 C   0  0  1  0  0  3  0  0  0  0  0  0
  161.2000  205.8370  142.7860 N   0  0  0  0  0  2  0  0  0  0  0  0
  162.4620  206.2120  142.1630 C   0  0  0  0  0  2  0  0  0  0  0  0
  162.6840  205.8200  139.8250 O   0  0  0  0  0  0  0  0  0  0  0  0
  161.5590  207.7810  140.4030 N   0  0  0  0  0  2  0  0  0  0  0  0
  162.2440  206.5720  140.7330 C   0  0  0  0  0  0  0  0  0  0  0  0
  161.3330  208.1390  139.1140 O   0  0  0  0  0  0  0  0  0  0  0  0
  161.7520  210.3580  137.7720 O   0  0  0  0  0  0  0  0  0  0  0  0
  161.3030  209.8360  139.1190 P   0  0  1  0  0  0  0  0  0  0  0  0
  159.7340  210.3790  139.4440 O   0  0  0  0  0  1  0  0  0  0  0  0
  162.3700  210.4090  140.3410 O   0  0  0  0  0  0  0  0  0  0  0  0
  162.2180  211.6490  140.9700 C   0  0  0  0  0  0  0  0  0  0  0  0
  162.8340  212.6470  140.5120 O   0  0  0  0  0  0  0  0  0  0  0  0
  161.3480  211.8290  142.1690 C   0  0  0  0  0  1  0  0  0  0  0  0
  160.7780  205.6280  150.5270 C   0  0  0  0  0  2  0  0  0  0  0  0
  161.4510  206.2820  152.8520 C   0  0  0  0  0  0  0  0  0  0  0  0
  160.9680  207.6100  152.6200 N   0  0  0  0  0  2  0  0  0  0  0  0
  162.0520  206.0080  153.9270 O   0  0  0  0  0  0  0  0  0  0  0  0
  161.2610  205.2670  151.8530 N   0  0  0  0  0  0  0  0  0  0  0  0
  160.2620  209.6480  155.7050 C   0  0  2  0  0  3  0  0  0  0  0  0
  160.0190  208.9010  154.4520 C   0  0  1  0  0  3  0  0  0  0  0  0
  159.7140  210.3500  154.5110 N   0  0  2  0  0  0  0  0  0  0  0  0
  161.2230  208.7090  153.5370 C   0  0  2  0  0  3  0  0  0  0  0  0
  161.3460  209.9980  152.7740 C   0  0  0  0  0  2  0  0  0  0  0  0
  160.7310  211.0200  153.6940 C   0  0  0  0  0  2  0  0  0  0  0  0
  162.3190  208.8330  156.6300 O   0  0  0  0  0  1  0  0  0  0  0  0
  161.7940  211.1120  157.0240 C   0  0  0  0  0  1  0  0  0  0  0  0
  161.7320  209.9540  156.0470 C   0  0  2  0  0  3  0  0  0  0  0  0
  161.7030  203.8960  152.0860 C   0  0  0  0  0  2  0  0  0  0  0  0
  160.6300  202.9070  151.6470 C   0  0  0  0  0  2  0  0  0  0  0  0
  161.2130  201.7570  151.0430 O   0  0  0  0  0  0  0  0  0  0  0  0
  159.3750  201.0990  149.7340 C   0  0  0  0  0  2  0  0  0  0  0  0
  161.5690  200.5680  148.8430 C   0  0  0  0  0  1  0  0  0  0  0  0
  160.6880  201.1540  149.8950 C   0  0  0  0  0  0  0  0  0  0  0  0
  1  2  1  0  0  0  0
  2  3  2  0  0  0  0
  3 27  1  0  0  0  0
  5 10  1  6  0  0  0
  5  6  1  0  0  0  0
  5  9  1  0  0  0  0
  6  2  1  1  0  0  0
  6  4  1  0  0  0  0
  7  4  1  0  0  0  0
  7  8  1  1  0  0  0
  9  7  1  0  0  0  0
 11 10  1  0  0  0  0
 13 12  1  1  0  0  0
 13 11  1  0  0  0  0
 14 13  1  0  0  0  0
 15 14  1  0  0  0  0
 16 18  2  0  0  0  0
 17 18  1  0  0  0  0
 18 15  1  0  0  0  0
 19 21  1  0  0  0  0
 19 17  1  0  0  0  0
 21 20  2  6  0  0  0
 21 22  1  0  0  0  0
 21 23  1  0  0  0  0
 23 24  1  0  0  0  0
 24 26  1  0  0  0  0
 25 24  2  0  0  0  0
 27 31  1  0  0  0  0
 28 30  2  0  0  0  0
 29 28  1  0  0  0  0
 29 35  1  0  0  0  0
 31 41  1  0  0  0  0
 31 28  1  0  0  0  0
 32 40  1  6  0  0  0
 33 34  1  0  0  0  0
 33 32  1  0  0  0  0
 34 32  1  0  0  0  0
 35 33  1  0  0  0  0
 36 35  1  0  0  0  0
 36 37  1  0  0  0  0
 37 34  1  0  0  0  0
 40 38  1  0  0  0  0
 40 39  1  0  0  0  0
 42 41  1  0  0  0  0
 43 42  1  0  0  0  0
 44 46  2  0  0  0  0
 45 46  1  0  0  0  0
 46 43  1  0  0  0  0
M  END
>  <MODEL>
5

>  <REMARK>
 VINA RESULT:      -5.1      4.458      8.867
  Name = 
  19 active torsions:
  status: ('A' for Active; 'I' for Inactive)
    1  A    between atoms: C_2  and  C_7
    2  A    between atoms: C_2  and  N_24
    3  A    between atoms: C_6  and  C_23
    4  A    between atoms: C_6  and  N_43
    5  A    between atoms: C_7  and  O_8
    6  A    between atoms: O_8  and  C_45
    7  A    between atoms: C_10  and  O_30
    8  A    between atoms: C_11  and  C_36
    9  A    between atoms: N_13  and  C_37
   10  A    between atoms: C_14  and  C_34
   11  A    between atoms: O_15  and  C_34
   12  A    between atoms: O_15  and  C_46
   13  A    between atoms: C_18  and  C_27
   14  A    between atoms: C_21  and  C_26
   15  A    between atoms: N_22  and  O_31
   16  A    between atoms: N_24  and  C_26
   17  A    between atoms: O_30  and  P_38
   18  A    between atoms: O_31  and  P_38
   19  A    between atoms: N_43  and  C_46
                            x       y       z     vdW  Elec       q    Type
                         _______ _______ _______ _____ _____    ______ ____

>  <TORSDO>
F 19

$$$$
=
 OpenBabel11042421593D

 46 48  0  0  1  0  0  0  0  0999 V2000
  163.2320  210.4540  151.5830 F   0  0  0  0  0  0  0  0  0  0  0  0
  162.0560  209.7770  151.5010 C   0  0  0  0  0  0  0  0  0  0  0  0
  162.0730  208.4440  151.6030 C   0  0  0  0  0  3  0  0  0  0  0  0
  159.9580  210.4420  152.6350 C   0  0  0  0  0  2  0  0  0  0  0  0
  161.0410  212.0180  151.1270 C   0  0  2  0  0  3  0  0  0  0  0  0
  160.7700  210.5390  151.3610 C   0  0  1  0  0  3  0  0  0  0  0  0
  159.2510  211.7700  152.7550 C   0  0  1  0  0  3  0  0  0  0  0  0
  159.0350  212.1170  154.2120 C   0  0  0  0  0  1  0  0  0  0  0  0
  160.1710  212.7860  152.1070 C   0  0  0  0  0  2  0  0  0  0  0  0
  160.6650  212.4040  149.7070 C   0  0  0  0  0  2  0  0  0  0  0  0
  161.5690  213.3420  149.1990 O   0  0  0  0  0  0  0  0  0  0  0  0
  161.1850  211.7030  147.6640 O   0  0  0  0  0  1  0  0  0  0  0  0
  161.9140  212.8610  147.9340 C   0  0  1  0  0  3  0  0  0  0  0  0
  161.6200  213.8660  146.9220 N   0  0  0  0  0  2  0  0  0  0  0  0
  161.0190  213.1880  145.7810 C   0  0  0  0  0  2  0  0  0  0  0  0
  163.0650  213.7750  144.7130 O   0  0  0  0  0  0  0  0  0  0  0  0
  161.6790  212.3480  143.4930 N   0  0  0  0  0  2  0  0  0  0  0  0
  161.9890  213.1250  144.6510 C   0  0  0  0  0  0  0  0  0  0  0  0
  162.5380  212.2580  142.4480 O   0  0  0  0  0  0  0  0  0  0  0  0
  161.3750  210.5900  140.7850 O   0  0  0  0  0  0  0  0  0  0  0  0
  161.5580  212.0620  141.0760 P   0  0  1  0  0  0  0  0  0  0  0  0
  160.0500  212.7800  141.3440 O   0  0  0  0  0  1  0  0  0  0  0  0
  162.3210  212.8210  139.7330 O   0  0  0  0  0  0  0  0  0  0  0  0
  163.1750  212.1450  138.8550 C   0  0  0  0  0  0  0  0  0  0  0  0
  164.3980  212.4440  138.8400 O   0  0  0  0  0  0  0  0  0  0  0  0
  162.6840  211.0790  137.9340 C   0  0  0  0  0  1  0  0  0  0  0  0
  160.8330  207.6060  151.5400 C   0  0  0  0  0  2  0  0  0  0  0  0
  161.1100  205.1560  151.9960 C   0  0  0  0  0  0  0  0  0  0  0  0
  161.3970  204.9290  150.6110 N   0  0  0  0  0  2  0  0  0  0  0  0
  161.0000  204.1780  152.7860 O   0  0  0  0  0  0  0  0  0  0  0  0
  160.9350  206.4980  152.4800 N   0  0  0  0  0  0  0  0  0  0  0  0
  160.0070  202.0150  148.6760 C   0  0  2  0  0  3  0  0  0  0  0  0
  160.0790  203.1200  149.6560 C   0  0  1  0  0  3  0  0  0  0  0  0
  159.9240  201.7260  150.1350 N   0  0  2  0  0  0  0  0  0  0  0  0
  161.4760  203.5970  150.0340 C   0  0  2  0  0  3  0  0  0  0  0  0
  161.9590  202.6180  151.0670 C   0  0  0  0  0  2  0  0  0  0  0  0
  161.2050  201.3530  150.7430 C   0  0  0  0  0  2  0  0  0  0  0  0
  161.5860  202.4970  146.9350 O   0  0  0  0  0  1  0  0  0  0  0  0
  161.2160  200.2100  147.4460 C   0  0  0  0  0  1  0  0  0  0  0  0
  161.3280  201.6220  147.9890 C   0  0  2  0  0  3  0  0  0  0  0  0
  160.6880  206.7560  153.8940 C   0  0  0  0  0  2  0  0  0  0  0  0
  161.8610  207.5060  154.5130 C   0  0  0  0  0  2  0  0  0  0  0  0
  161.6150  207.7960  155.8850 O   0  0  0  0  0  0  0  0  0  0  0  0
  160.2850  209.1610  157.2600 C   0  0  0  0  0  2  0  0  0  0  0  0
  161.8460  210.3110  155.8000 C   0  0  0  0  0  1  0  0  0  0  0  0
  161.2270  209.0630  156.3350 C   0  0  0  0  0  0  0  0  0  0  0  0
  2  1  1  0  0  0  0
  2  3  2  0  0  0  0
  4  7  1  0  0  0  0
  5 10  1  6  0  0  0
  5  6  1  0  0  0  0
  5  9  1  0  0  0  0
  6  2  1  1  0  0  0
  6  4  1  0  0  0  0
  7  8  1  1  0  0  0
  9  7  1  0  0  0  0
 11 10  1  0  0  0  0
 13 12  1  6  0  0  0
 13 11  1  0  0  0  0
 14 13  1  0  0  0  0
 15 14  1  0  0  0  0
 17 18  1  0  0  0  0
 18 16  2  0  0  0  0
 18 15  1  0  0  0  0
 19 17  1  0  0  0  0
 21 20  2  6  0  0  0
 21 22  1  0  0  0  0
 21 19  1  0  0  0  0
 23 21  1  0  0  0  0
 24 23  1  0  0  0  0
 25 24  2  0  0  0  0
 26 24  1  0  0  0  0
 27  3  1  0  0  0  0
 27 31  1  0  0  0  0
 28 31  1  0  0  0  0
 28 30  2  0  0  0  0
 29 28  1  0  0  0  0
 31 41  1  0  0  0  0
 32 40  1  1  0  0  0
 32 33  1  0  0  0  0
 32 34  1  0  0  0  0
 33 35  1  0  0  0  0
 33 34  1  0  0  0  0
 34 37  1  0  0  0  0
 35 29  1  0  0  0  0
 35 36  1  0  0  0  0
 37 36  1  0  0  0  0
 38 40  1  0  0  0  0
 39 40  1  0  0  0  0
 41 42  1  0  0  0  0
 42 43  1  0  0  0  0
 43 46  1  0  0  0  0
 45 46  1  0  0  0  0
 46 44  2  0  0  0  0
M  END
>  <MODEL>
6

>  <REMARK>
 VINA RESULT:      -4.8      4.112      8.996
  Name = 
  19 active torsions:
  status: ('A' for Active; 'I' for Inactive)
    1  A    between atoms: C_2  and  C_7
    2  A    between atoms: C_2  and  N_24
    3  A    between atoms: C_6  and  C_23
    4  A    between atoms: C_6  and  N_43
    5  A    between atoms: C_7  and  O_8
    6  A    between atoms: O_8  and  C_45
    7  A    between atoms: C_10  and  O_30
    8  A    between atoms: C_11  and  C_36
    9  A    between atoms: N_13  and  C_37
   10  A    between atoms: C_14  and  C_34
   11  A    between atoms: O_15  and  C_34
   12  A    between atoms: O_15  and  C_46
   13  A    between atoms: C_18  and  C_27
   14  A    between atoms: C_21  and  C_26
   15  A    between atoms: N_22  and  O_31
   16  A    between atoms: N_24  and  C_26
   17  A    between atoms: O_30  and  P_38
   18  A    between atoms: O_31  and  P_38
   19  A    between atoms: N_43  and  C_46
                            x       y       z     vdW  Elec       q    Type
                         _______ _______ _______ _____ _____    ______ ____

>  <TORSDO>
F 19

$$$$
=
 OpenBabel11042421593D

 46 48  0  0  1  0  0  0  0  0999 V2000
  163.3910  210.2680  147.8920 F   0  0  0  0  0  0  0  0  0  0  0  0
  162.3390  210.1840  148.7490 C   0  0  0  0  0  0  0  0  0  0  0  0
  161.9670  211.2800  149.4180 C   0  0  0  0  0  3  0  0  0  0  0  0
  161.5610  208.1650  147.5460 C   0  0  0  0  0  2  0  0  0  0  0  0
  162.2710  207.9620  149.8680 C   0  0  2  0  0  3  0  0  0  0  0  0
  161.5870  208.8910  148.8750 C   0  0  1  0  0  3  0  0  0  0  0  0
  161.6090  206.6980  147.8970 C   0  0  1  0  0  3  0  0  0  0  0  0
  162.3110  205.9220  146.8030 C   0  0  0  0  0  1  0  0  0  0  0  0
  162.3990  206.6100  149.1880 C   0  0  0  0  0  2  0  0  0  0  0  0
  161.4270  207.8200  151.1220 C   0  0  0  0  0  2  0  0  0  0  0  0
  162.2310  207.4890  152.2180 O   0  0  0  0  0  0  0  0  0  0  0  0
  160.9530  206.8850  154.0040 O   0  0  0  0  0  1  0  0  0  0  0  0
  161.5710  206.4280  152.8400 C   0  0  1  0  0  3  0  0  0  0  0  0
  160.5660  205.8720  151.9440 N   0  0  0  0  0  2  0  0  0  0  0  0
  160.4220  204.4570  152.2580 C   0  0  0  0  0  2  0  0  0  0  0  0
  162.6490  203.8370  151.6870 O   0  0  0  0  0  0  0  0  0  0  0  0
  160.9720  202.7060  150.5240 N   0  0  0  0  0  2  0  0  0  0  0  0
  161.4180  203.6560  151.4930 C   0  0  0  0  0  0  0  0  0  0  0  0
  161.8470  201.9520  149.8140 O   0  0  0  0  0  0  0  0  0  0  0  0
  161.5340  200.1610  147.9170 O   0  0  0  0  0  0  0  0  0  0  0  0
  161.0070  201.4890  148.4130 P   0  0  1  0  0  0  0  0  0  0  0  0
  159.3560  201.3540  148.7560 O   0  0  0  0  0  1  0  0  0  0  0  0
  161.2420  202.6880  147.2010 O   0  0  0  0  0  0  0  0  0  0  0  0
  160.8270  202.5270  145.8750 C   0  0  0  0  0  0  0  0  0  0  0  0
  161.2000  203.3640  145.0120 O   0  0  0  0  0  0  0  0  0  0  0  0
  159.9550  201.3940  145.4480 C   0  0  0  0  0  1  0  0  0  0  0  0
  160.8140  211.2980  150.3750 C   0  0  0  0  0  2  0  0  0  0  0  0
  159.6960  212.9760  151.8640 C   0  0  0  0  0  0  0  0  0  0  0  0
  159.5090  211.9680  152.8640 N   0  0  0  0  0  2  0  0  0  0  0  0
  159.1990  214.1250  152.0270 O   0  0  0  0  0  0  0  0  0  0  0  0
  160.4380  212.6730  150.6720 N   0  0  0  0  0  0  0  0  0  0  0  0
  156.2320  212.6320  154.5900 C   0  0  2  0  0  3  0  0  0  0  0  0
  157.3400  212.7690  153.6220 C   0  0  1  0  0  3  0  0  0  0  0  0
  157.0300  213.8890  154.5440 N   0  0  2  0  0  0  0  0  0  0  0  0
  158.6790  212.1720  154.0400 C   0  0  2  0  0  3  0  0  0  0  0  0
  159.3050  213.2000  154.9390 C   0  0  0  0  0  2  0  0  0  0  0  0
  158.1240  213.9370  155.5180 C   0  0  0  0  0  2  0  0  0  0  0  0
  156.4200  210.3850  155.4070 O   0  0  0  0  0  1  0  0  0  0  0  0
  155.4380  211.9780  156.8650 C   0  0  0  0  0  1  0  0  0  0  0  0
  156.4890  211.7190  155.8030 C   0  0  2  0  0  3  0  0  0  0  0  0
  160.6800  213.6980  149.6620 C   0  0  0  0  0  2  0  0  0  0  0  0
  159.5330  213.7400  148.6600 C   0  0  0  0  0  2  0  0  0  0  0  0
  159.9350  213.2100  147.4010 O   0  0  0  0  0  0  0  0  0  0  0  0
  157.7290  213.0260  146.6120 C   0  0  0  0  0  2  0  0  0  0  0  0
  159.4710  212.2370  145.1160 C   0  0  0  0  0  1  0  0  0  0  0  0
  159.0240  212.8400  146.4060 C   0  0  0  0  0  0  0  0  0  0  0  0
  1  2  1  0  0  0  0
  2  3  2  0  0  0  0
  3 27  1  0  0  0  0
  4  7  1  0  0  0  0
  4  6  1  0  0  0  0
  5 10  1  1  0  0  0
  6  2  1  6  0  0  0
  6  5  1  0  0  0  0
  7  8  1  6  0  0  0
  7  9  1  0  0  0  0
  9  5  1  0  0  0  0
 10 11  1  0  0  0  0
 11 13  1  0  0  0  0
 13 12  1  1  0  0  0
 14 15  1  0  0  0  0
 14 13  1  0  0  0  0
 17 18  1  0  0  0  0
 18 16  2  0  0  0  0
 18 15  1  0  0  0  0
 19 17  1  0  0  0  0
 21 20  2  6  0  0  0
 21 22  1  0  0  0  0
 21 19  1  0  0  0  0
 23 21  1  0  0  0  0
 24 23  1  0  0  0  0
 25 24  2  0  0  0  0
 26 24  1  0  0  0  0
 27 31  1  0  0  0  0
 28 30  2  0  0  0  0
 28 29  1  0  0  0  0
 29 35  1  0  0  0  0
 31 28  1  0  0  0  0
 32 40  1  1  0  0  0
 33 35  1  0  0  0  0
 33 34  1  0  0  0  0
 33 32  1  0  0  0  0
 34 32  1  0  0  0  0
 34 37  1  0  0  0  0
 35 36  1  0  0  0  0
 36 37  1  0  0  0  0
 38 40  1  0  0  0  0
 40 39  1  0  0  0  0
 41 31  1  0  0  0  0
 42 41  1  0  0  0  0
 43 42  1  0  0  0  0
 45 46  1  0  0  0  0
 46 44  2  0  0  0  0
 46 43  1  0  0  0  0
M  END
>  <MODEL>
7

>  <REMARK>
 VINA RESULT:      -4.7      2.405      6.056
  Name = 
  19 active torsions:
  status: ('A' for Active; 'I' for Inactive)
    1  A    between atoms: C_2  and  C_7
    2  A    between atoms: C_2  and  N_24
    3  A    between atoms: C_6  and  C_23
    4  A    between atoms: C_6  and  N_43
    5  A    between atoms: C_7  and  O_8
    6  A    between atoms: O_8  and  C_45
    7  A    between atoms: C_10  and  O_30
    8  A    between atoms: C_11  and  C_36
    9  A    between atoms: N_13  and  C_37
   10  A    between atoms: C_14  and  C_34
   11  A    between atoms: O_15  and  C_34
   12  A    between atoms: O_15  and  C_46
   13  A    between atoms: C_18  and  C_27
   14  A    between atoms: C_21  and  C_26
   15  A    between atoms: N_22  and  O_31
   16  A    between atoms: N_24  and  C_26
   17  A    between atoms: O_30  and  P_38
   18  A    between atoms: O_31  and  P_38
   19  A    between atoms: N_43  and  C_46
                            x       y       z     vdW  Elec       q    Type
                         _______ _______ _______ _____ _____    ______ ____

>  <TORSDO>
F 19

$$$$
=
 OpenBabel11042421593D

 46 48  0  0  1  0  0  0  0  0999 V2000
  164.3180  204.2810  146.2070 F   0  0  0  0  0  0  0  0  0  0  0  0
  163.0590  204.5200  146.6620 C   0  0  0  0  0  0  0  0  0  0  0  0
  162.5580  203.7260  147.6130 C   0  0  0  0  0  3  0  0  0  0  0  0
  161.2870  205.2490  145.0940 C   0  0  0  0  0  2  0  0  0  0  0  0
  161.5000  206.3690  147.2460 C   0  0  2  0  0  3  0  0  0  0  0  0
  162.2920  205.6970  146.1340 C   0  0  1  0  0  3  0  0  0  0  0  0
  160.1050  206.1720  145.2620 C   0  0  1  0  0  3  0  0  0  0  0  0
  158.8250  205.4560  144.8860 C   0  0  0  0  0  1  0  0  0  0  0  0
  160.0810  206.5450  146.7320 C   0  0  0  0  0  2  0  0  0  0  0  0
  162.0940  207.7300  147.5680 C   0  0  0  0  0  2  0  0  0  0  0  0
  161.2170  208.4700  148.3680 O   0  0  0  0  0  0  0  0  0  0  0  0
  163.2380  209.5150  148.2610 O   0  0  0  0  0  1  0  0  0  0  0  0
  161.9130  209.6410  148.6740 C   0  0  1  0  0  3  0  0  0  0  0  0
  161.3000  210.7750  147.9960 N   0  0  0  0  0  2  0  0  0  0  0  0
  162.1830  211.9230  148.1600 C   0  0  0  0  0  2  0  0  0  0  0  0
  163.0200  213.3070  146.4130 O   0  0  0  0  0  0  0  0  0  0  0  0
  160.6990  213.3040  146.6560 N   0  0  0  0  0  2  0  0  0  0  0  0
  162.0090  212.8720  147.0250 C   0  0  0  0  0  0  0  0  0  0  0  0
  160.4980  214.1600  145.6230 O   0  0  0  0  0  0  0  0  0  0  0  0
  159.6810  211.8300  144.7280 O   0  0  0  0  0  0  0  0  0  0  0  0
  159.5110  213.3190  144.5280 P   0  0  1  0  0  0  0  0  0  0  0  0
  157.8920  213.7450  144.7760 O   0  0  0  0  0  1  0  0  0  0  0  0
  159.9730  213.7390  142.9250 O   0  0  0  0  0  0  0  0  0  0  0  0
  160.8810  212.9910  142.1700 C   0  0  0  0  0  0  0  0  0  0  0  0
  160.4560  212.3170  141.1940 O   0  0  0  0  0  0  0  0  0  0  0  0
  162.3400  212.9630  142.4810 C   0  0  0  0  0  1  0  0  0  0  0  0
  161.1880  203.9120  148.1920 C   0  0  0  0  0  2  0  0  0  0  0  0
  161.3280  204.1960  150.6790 C   0  0  0  0  0  0  0  0  0  0  0  0
  161.3550  205.6180  150.5170 N   0  0  0  0  0  2  0  0  0  0  0  0
  161.4820  203.6880  151.8240 O   0  0  0  0  0  0  0  0  0  0  0  0
  161.1370  203.3490  149.5340 N   0  0  0  0  0  0  0  0  0  0  0  0
  160.4010  208.0990  153.1830 C   0  0  2  0  0  3  0  0  0  0  0  0
  160.4560  207.4360  151.8620 C   0  0  1  0  0  3  0  0  0  0  0  0
  160.9560  208.8250  152.0070 N   0  0  2  0  0  0  0  0  0  0  0  0
  161.6530  206.5270  151.6120 C   0  0  2  0  0  3  0  0  0  0  0  0
  162.7730  207.4510  151.2220 C   0  0  0  0  0  2  0  0  0  0  0  0
  162.4160  208.7520  151.8940 C   0  0  0  0  0  2  0  0  0  0  0  0
  161.1520  206.3170  154.6030 O   0  0  0  0  0  1  0  0  0  0  0  0
  161.3540  208.5230  155.4510 C   0  0  0  0  0  1  0  0  0  0  0  0
  161.4310  207.6300  154.2280 C   0  0  2  0  0  3  0  0  0  0  0  0
  161.0600  201.8990  149.6820 C   0  0  0  0  0  2  0  0  0  0  0  0
  160.3150  201.2820  148.5040 C   0  0  0  0  0  2  0  0  0  0  0  0
  161.2060  200.5650  147.6560 O   0  0  0  0  0  0  0  0  0  0  0  0
  161.2070  199.1920  145.7490 C   0  0  0  0  0  2  0  0  0  0  0  0
  160.4540  201.4760  145.4230 C   0  0  0  0  0  1  0  0  0  0  0  0
  160.9690  200.3760  146.2910 C   0  0  0  0  0  0  0  0  0  0  0  0
  1  2  1  0  0  0  0
  2  3  2  0  0  0  0
  3 27  1  0  0  0  0
  4  7  1  0  0  0  0
  4  6  1  0  0  0  0
  5 10  1  6  0  0  0
  6  2  1  1  0  0  0
  6  5  1  0  0  0  0
  7  8  1  1  0  0  0
  7  9  1  0  0  0  0
  9  5  1  0  0  0  0
 10 11  1  0  0  0  0
 11 13  1  0  0  0  0
 13 12  1  6  0  0  0
 14 15  1  0  0  0  0
 14 13  1  0  0  0  0
 16 18  2  0  0  0  0
 17 18  1  0  0  0  0
 18 15  1  0  0  0  0
 19 17  1  0  0  0  0
 21 20  2  1  0  0  0
 21 22  1  0  0  0  0
 21 19  1  0  0  0  0
 23 21  1  0  0  0  0
 24 26  1  0  0  0  0
 24 23  1  0  0  0  0
 25 24  2  0  0  0  0
 27 31  1  0  0  0  0
 28 30  2  0  0  0  0
 29 28  1  0  0  0  0
 29 35  1  0  0  0  0
 31 41  1  0  0  0  0
 31 28  1  0  0  0  0
 32 40  1  1  0  0  0
 33 34  1  0  0  0  0
 33 32  1  0  0  0  0
 34 32  1  0  0  0  0
 35 33  1  0  0  0  0
 36 35  1  0  0  0  0
 36 37  1  0  0  0  0
 37 34  1  0  0  0  0
 40 38  1  0  0  0  0
 40 39  1  0  0  0  0
 42 41  1  0  0  0  0
 43 42  1  0  0  0  0
 44 46  2  0  0  0  0
 45 46  1  0  0  0  0
 46 43  1  0  0  0  0
M  END
>  <MODEL>
8

>  <REMARK>
 VINA RESULT:      -4.7      3.960      9.810
  Name = 
  19 active torsions:
  status: ('A' for Active; 'I' for Inactive)
    1  A    between atoms: C_2  and  C_7
    2  A    between atoms: C_2  and  N_24
    3  A    between atoms: C_6  and  C_23
    4  A    between atoms: C_6  and  N_43
    5  A    between atoms: C_7  and  O_8
    6  A    between atoms: O_8  and  C_45
    7  A    between atoms: C_10  and  O_30
    8  A    between atoms: C_11  and  C_36
    9  A    between atoms: N_13  and  C_37
   10  A    between atoms: C_14  and  C_34
   11  A    between atoms: O_15  and  C_34
   12  A    between atoms: O_15  and  C_46
   13  A    between atoms: C_18  and  C_27
   14  A    between atoms: C_21  and  C_26
   15  A    between atoms: N_22  and  O_31
   16  A    between atoms: N_24  and  C_26
   17  A    between atoms: O_30  and  P_38
   18  A    between atoms: O_31  and  P_38
   19  A    between atoms: N_43  and  C_46
                            x       y       z     vdW  Elec       q    Type
                         _______ _______ _______ _____ _____    ______ ____

>  <TORSDO>
F 19

$$$$
=
 OpenBabel11042421593D

 46 48  0  0  1  0  0  0  0  0999 V2000
  159.2340  209.2430  152.9100 F   0  0  0  0  0  0  0  0  0  0  0  0
  160.3000  209.9040  152.3850 C   0  0  0  0  0  0  0  0  0  0  0  0
  161.1330  209.2400  151.5770 C   0  0  0  0  0  3  0  0  0  0  0  0
  160.0530  212.1940  151.4770 C   0  0  0  0  0  2  0  0  0  0  0  0
  159.6060  211.8000  153.8390 C   0  0  2  0  0  3  0  0  0  0  0  0
  160.4800  211.3660  152.6710 C   0  0  1  0  0  3  0  0  0  0  0  0
  159.4630  213.4550  152.0620 C   0  0  1  0  0  3  0  0  0  0  0  0
  158.3830  213.9970  151.1500 C   0  0  0  0  0  1  0  0  0  0  0  0
  158.8650  213.0490  153.3940 C   0  0  0  0  0  2  0  0  0  0  0  0
  160.4660  212.1250  155.0480 C   0  0  0  0  0  2  0  0  0  0  0  0
  161.2700  211.0310  155.3850 O   0  0  0  0  0  0  0  0  0  0  0  0
  159.4930  211.1000  156.8080 O   0  0  0  0  0  1  0  0  0  0  0  0
  160.7730  210.5840  156.6110 C   0  0  1  0  0  3  0  0  0  0  0  0
  160.7150  209.1280  156.6230 N   0  0  0  0  0  2  0  0  0  0  0  0
  161.4810  208.6420  155.4830 C   0  0  0  0  0  2  0  0  0  0  0  0
  160.3960  206.5810  155.9760 O   0  0  0  0  0  0  0  0  0  0  0  0
  161.5210  206.6500  153.9330 N   0  0  0  0  0  2  0  0  0  0  0  0
  161.0880  207.2420  155.1580 C   0  0  0  0  0  0  0  0  0  0  0  0
  161.1760  205.3820  153.5960 O   0  0  0  0  0  0  0  0  0  0  0  0
  160.4530  205.6720  151.0880 O   0  0  0  0  0  0  0  0  0  0  0  0
  161.6010  205.2200  151.9610 P   0  0  1  0  0  0  0  0  0  0  0  0
  162.9700  206.1580  151.6310 O   0  0  0  0  0  1  0  0  0  0  0  0
  161.9510  203.5670  151.6370 O   0  0  0  0  0  0  0  0  0  0  0  0
  160.9720  202.5690  151.6100 C   0  0  0  0  0  0  0  0  0  0  0  0
  160.0990  202.5440  152.5170 O   0  0  0  0  0  0  0  0  0  0  0  0
  160.9270  201.5300  150.5400 C   0  0  0  0  0  1  0  0  0  0  0  0
  162.3280  209.8780  150.9360 C   0  0  0  0  0  2  0  0  0  0  0  0
  161.7030  209.1120  148.6330 C   0  0  0  0  0  0  0  0  0  0  0  0
  161.4370  207.8000  149.1390 N   0  0  0  0  0  2  0  0  0  0  0  0
  161.6500  209.3320  147.3910 O   0  0  0  0  0  0  0  0  0  0  0  0
  162.0420  210.1740  149.5390 N   0  0  0  0  0  0  0  0  0  0  0  0
  162.5380  205.0620  146.8020 C   0  0  2  0  0  3  0  0  0  0  0  0
  162.4240  206.4070  147.4040 C   0  0  1  0  0  3  0  0  0  0  0  0
  161.9650  206.1870  146.0120 N   0  0  2  0  0  0  0  0  0  0  0  0
  161.1970  206.6570  148.2720 C   0  0  2  0  0  3  0  0  0  0  0  0
  160.0890  206.9700  147.3050 C   0  0  0  0  0  2  0  0  0  0  0  0
  160.5010  206.2550  146.0440 C   0  0  0  0  0  2  0  0  0  0  0  0
  161.9520  203.4870  148.5140 O   0  0  0  0  0  1  0  0  0  0  0  0
  161.4440  202.8800  146.2780 C   0  0  0  0  0  1  0  0  0  0  0  0
  161.5300  204.0050  147.2910 C   0  0  2  0  0  3  0  0  0  0  0  0
  162.2720  211.5290  149.0500 C   0  0  0  0  0  2  0  0  0  0  0  0
  161.0740  212.0160  148.2440 C   0  0  0  0  0  2  0  0  0  0  0  0
  161.4270  213.1260  147.4250 O   0  0  0  0  0  0  0  0  0  0  0  0
  162.5620  213.3590  145.3810 C   0  0  0  0  0  2  0  0  0  0  0  0
  160.2390  212.6720  145.2420 C   0  0  0  0  0  1  0  0  0  0  0  0
  161.4460  213.0630  146.0280 C   0  0  0  0  0  0  0  0  0  0  0  0
  2  1  1  0  0  0  0
  3  2  2  0  0  0  0
  4  7  1  0  0  0  0
  4  6  1  0  0  0  0
  5 10  1  1  0  0  0
  6  2  1  6  0  0  0
  6  5  1  0  0  0  0
  7  8  1  6  0  0  0
  7  9  1  0  0  0  0
  9  5  1  0  0  0  0
 10 11  1  0  0  0  0
 11 13  1  0  0  0  0
 13 14  1  0  0  0  0
 13 12  1  6  0  0  0
 15 14  1  0  0  0  0
 17 18  1  0  0  0  0
 18 15  1  0  0  0  0
 18 16  2  0  0  0  0
 19 17  1  0  0  0  0
 21 20  2  6  0  0  0
 21 19  1  0  0  0  0
 22 21  1  0  0  0  0
 23 21  1  0  0  0  0
 24 23  1  0  0  0  0
 24 25  2  0  0  0  0
 26 24  1  0  0  0  0
 27  3  1  0  0  0  0
 28 29  1  0  0  0  0
 28 31  1  0  0  0  0
 30 28  2  0  0  0  0
 31 27  1  0  0  0  0
 32 40  1  1  0  0  0
 32 33  1  0  0  0  0
 33 35  1  0  0  0  0
 34 37  1  0  0  0  0
 34 32  1  0  0  0  0
 34 33  1  0  0  0  0
 35 29  1  0  0  0  0
 36 35  1  0  0  0  0
 37 36  1  0  0  0  0
 39 40  1  0  0  0  0
 40 38  1  0  0  0  0
 41 31  1  0  0  0  0
 42 41  1  0  0  0  0
 43 42  1  0  0  0  0
 44 46  2  0  0  0  0
 45 46  1  0  0  0  0
 46 43  1  0  0  0  0
M  END
>  <MODEL>
9

>  <REMARK>
 VINA RESULT:      -4.6      2.653      7.433
  Name = 
  19 active torsions:
  status: ('A' for Active; 'I' for Inactive)
    1  A    between atoms: C_2  and  C_7
    2  A    between atoms: C_2  and  N_24
    3  A    between atoms: C_6  and  C_23
    4  A    between atoms: C_6  and  N_43
    5  A    between atoms: C_7  and  O_8
    6  A    between atoms: O_8  and  C_45
    7  A    between atoms: C_10  and  O_30
    8  A    between atoms: C_11  and  C_36
    9  A    between atoms: N_13  and  C_37
   10  A    between atoms: C_14  and  C_34
   11  A    between atoms: O_15  and  C_34
   12  A    between atoms: O_15  and  C_46
   13  A    between atoms: C_18  and  C_27
   14  A    between atoms: C_21  and  C_26
   15  A    between atoms: N_22  and  O_31
   16  A    between atoms: N_24  and  C_26
   17  A    between atoms: O_30  and  P_38
   18  A    between atoms: O_31  and  P_38
   19  A    between atoms: N_43  and  C_46
                            x       y       z     vdW  Elec       q    Type
                         _______ _______ _______ _____ _____    ______ ____

>  <TORSDO>
F 19

$$$$
