=
 OpenBabel11042421003D

 60 67  0  0  1  0  0  0  0  0999 V2000
  162.0650  210.3620  149.3100 C   0  0  0  0  0  0  0  0  0  0  0  0
  161.9640  214.0980  148.2990 C   0  0  0  0  0  2  0  0  0  0  0  0
  162.7870  209.2750  150.0340 C   0  0  2  0  0  3  0  0  0  0  0  0
  161.3370  209.8130  148.3390 C   0  0  0  0  0  0  0  0  0  0  0  0
  162.4100  211.8300  149.4190 C   0  0  0  0  0  2  0  0  0  0  0  0
  162.4060  208.0720  149.2990 N   0  0  0  0  0  0  0  0  0  0  0  0
  161.5690  208.3860  148.3730 C   0  0  0  0  0  0  0  0  0  0  0  0
  161.5840  212.0720  147.0890 C   0  0  1  0  0  3  0  0  0  0  0  0
  161.0780  211.9450  144.2430 O   0  0  0  0  0  0  0  0  0  0  0  0
  161.5450  212.6550  148.4780 C   0  0  2  0  0  3  0  0  0  0  0  0
  161.4240  214.4530  146.9160 C   0  0  0  0  0  2  0  0  0  0  0  0
  160.3930  210.7050  147.0760 S   0  0  0  0  0  0  0  0  0  0  0  0
  161.1530  213.0750  144.7920 C   0  0  0  0  0  0  0  0  0  0  0  0
  161.2360  213.1800  146.2230 N   0  0  0  0  0  0  0  0  0  0  0  0
  162.7940  209.9280  152.3080 O   0  0  0  0  0  0  0  0  0  0  0  0
  162.3350  209.1790  151.4570 C   0  0  0  0  0  0  0  0  0  0  0  0
  161.0490  208.0220  151.8970 S   0  0  0  0  0  0  0  0  0  0  0  0
  161.0960  208.4800  153.6540 C   0  0  0  0  0  2  0  0  0  0  0  0
  159.8600  209.2700  154.0240 C   0  0  1  0  0  3  0  0  0  0  0  0
  160.2380  210.7350  154.0840 C   0  0  1  0  0  3  0  0  0  0  0  0
  159.4960  210.1900  152.8810 C   0  0  0  0  0  2  0  0  0  0  0  0
  159.2650  211.4610  154.9920 C   0  0  0  0  0  2  0  0  0  0  0  0
  159.8690  212.9420  151.5790 O   0  0  0  0  0  0  0  0  0  0  0  0
  158.4670  213.8080  154.9850 N   0  0  2  0  0  0  0  0  0  0  0  0
  159.0300  213.4930  153.6650 N   0  0  0  0  0  0  0  0  0  0  0  0
  159.5400  212.9680  154.9260 C   0  0  2  0  0  3  0  0  0  0  0  0
  159.0360  213.6050  152.2470 C   0  0  0  0  0  0  0  0  0  0  0  0
  156.1080  213.7890  157.2580 C   0  0  0  0  0  3  0  0  0  0  0  0
  156.0800  214.1120  154.4500 C   0  0  0  0  0  2  0  0  0  0  0  0
  154.8120  214.1890  155.3050 C   0  0  0  0  0  2  0  0  0  0  0  0
  157.1470  213.1690  155.0500 C   0  0  2  0  0  3  0  0  0  0  0  0
  155.1640  214.4530  156.6850 N   0  0  0  0  0  0  0  0  0  0  0  0
  156.8440  212.7230  156.4980 C   0  0  0  0  0  2  0  0  0  0  0  0
  156.9490  213.9550  150.9950 C   0  0  0  0  0  1  0  0  0  0  0  0
  158.1220  214.4530  151.6210 O   0  0  0  0  0  0  0  0  0  0  0  0
  161.2330  214.2890  143.9270 C   0  0  0  0  0  2  0  0  0  0  0  0
  160.9200  213.8970  142.5010 C   0  0  0  0  0  2  0  0  0  0  0  0
  162.1700  213.5760  141.7480 C   0  0  0  0  0  0  0  0  0  0  0  0
  163.1720  213.2830  142.3790 O   0  0  0  0  0  0  0  0  0  0  0  0
  160.8960  214.1900  139.7250 C   0  0  0  0  0  1  0  0  0  0  0  0
  162.1770  213.5470  140.2360 C   0  0  1  0  0  0  0  0  0  0  0  0
  163.2490  214.3010  139.7520 O   0  0  0  0  0  1  0  0  0  0  0  0
  163.6180  211.6970  139.6340 O   0  0  0  0  0  1  0  0  0  0  0  0
  162.2850  212.1160  139.6800 C   0  0  2  0  0  3  0  0  0  0  0  0
  161.6540  211.9540  138.2930 C   0  0  0  0  0  2  0  0  0  0  0  0
  160.4310  211.0540  138.3330 C   0  0  0  0  0  2  0  0  0  0  0  0
  160.2160  210.5830  139.6290 O   0  0  0  0  0  1  0  0  0  0  0  0
  161.0500  207.4160  147.3580 C   0  0  0  0  0  2  0  0  0  0  0  0
  160.9070  204.2860  149.2270 C   0  0  0  0  0  3  0  0  0  0  0  0
  160.8780  205.6690  149.2220 C   0  0  0  0  0  3  0  0  0  0  0  0
  161.1040  204.8810  147.1330 C   0  0  0  0  0  3  0  0  0  0  0  0
  161.0000  206.0220  147.8940 C   0  0  0  0  0  0  0  0  0  0  0  0
  161.0410  203.8260  147.9640 N   0  0  0  0  0  0  0  0  0  0  0  0
  161.7360  200.1430  148.0630 C   0  0  0  0  0  3  0  0  0  0  0  0
  161.6510  201.4880  148.4500 C   0  0  0  0  0  3  0  0  0  0  0  0
  160.7580  200.6850  145.9240 C   0  0  0  0  0  0  0  0  0  0  0  0
  161.1190  202.4440  147.5800 C   0  0  0  0  0  0  0  0  0  0  0  0
  160.3160  200.2980  144.7120 F   0  0  0  0  0  0  0  0  0  0  0  0
  160.6730  202.0280  146.3080 C   0  0  0  0  0  3  0  0  0  0  0  0
  161.2890  199.7430  146.8020 C   0  0  0  0  0  3  0  0  0  0  0  0
  1  5  1  0  0  0  0
  1  3  1  0  0  0  0
  3 16  1  1  0  0  0
  4  7  1  0  0  0  0
  4  1  2  0  0  0  0
  6  3  1  0  0  0  0
  7  6  2  0  0  0  0
  8 12  1  1  0  0  0
  8 10  1  0  0  0  0
  9 13  2  0  0  0  0
 10  2  1  6  0  0  0
 10  5  1  0  0  0  0
 11  2  1  0  0  0  0
 12  4  1  0  0  0  0
 13 14  1  0  0  0  0
 14 11  1  0  0  0  0
 14  8  1  0  0  0  0
 16 17  1  0  0  0  0
 16 15  2  0  0  0  0
 17 18  1  0  0  0  0
 19 18  1  6  0  0  0
 19 20  1  0  0  0  0
 20 22  1  1  0  0  0
 21 19  1  0  0  0  0
 21 20  1  0  0  0  0
 23 27  2  0  0  0  0
 24 25  1  6  0  0  0
 24 31  1  0  0  0  0
 25 26  1  0  0  0  0
 26 24  1  0  0  0  0
 26 22  1  6  0  0  0
 27 25  1  0  0  0  0
 29 30  1  0  0  0  0
 30 32  1  0  0  0  0
 31 29  1  1  0  0  0
 31 33  1  0  0  0  0
 32 28  2  0  0  0  0
 33 28  1  0  0  0  0
 34 35  1  0  0  0  0
 35 27  1  0  0  0  0
 36 13  1  0  0  0  0
 37 36  1  0  0  0  0
 38 39  2  0  0  0  0
 38 37  1  0  0  0  0
 41 40  1  6  0  0  0
 41 38  1  0  0  0  0
 42 41  1  0  0  0  0
 44 43  1  6  0  0  0
 44 41  1  0  0  0  0
 45 46  1  0  0  0  0
 45 44  1  0  0  0  0
 46 47  1  0  0  0  0
 48 52  1  0  0  0  0
 48  7  1  0  0  0  0
 50 49  2  0  0  0  0
 51 52  2  0  0  0  0
 51 53  1  0  0  0  0
 52 50  1  0  0  0  0
 53 49  1  0  0  0  0
 54 55  1  0  0  0  0
 56 59  2  0  0  0  0
 56 60  1  0  0  0  0
 57 53  1  0  0  0  0
 57 55  2  0  0  0  0
 58 56  1  0  0  0  0
 59 57  1  0  0  0  0
 60 54  2  0  0  0  0
M  END
>  <MODEL>
1

>  <REMARK>
 VINA RESULT:      -3.8      0.000      0.000
  Name = 
  18 active torsions:
  status: ('A' for Active; 'I' for Inactive)
    1  A    between atoms: C_9  and  C_25
    2  A    between atoms: C_10  and  C_60
    3  A    between atoms: O_12  and  C_48
    4  A    between atoms: C_13  and  C_18
    5  A    between atoms: C_13  and  C_27
    6  A    between atoms: C_15  and  C_24
    7  A    between atoms: C_15  and  C_47
    8  A    between atoms: C_18  and  C_57
    9  A    between atoms: C_20  and  C_42
   10  A    between atoms: C_25  and  S_56
   11  A    between atoms: C_27  and  C_44
   12  A    between atoms: C_28  and  C_29
   13  A    between atoms: C_29  and  C_37
   14  A    between atoms: C_32  and  N_52
   15  A    between atoms: N_40  and  C_50
   16  A    between atoms: C_42  and  S_56
   17  A    between atoms: C_44  and  C_59
   18  A    between atoms: C_59  and  C_60
                            x       y       z     vdW  Elec       q    Type
                         _______ _______ _______ _____ _____    ______ ____

>  <TORSDO>
F 18

$$$$
=
 OpenBabel11042421003D

 60 67  0  0  1  0  0  0  0  0999 V2000
  161.2570  207.1440  150.0490 C   0  0  0  0  0  0  0  0  0  0  0  0
  161.8370  210.3510  152.1390 C   0  0  0  0  0  2  0  0  0  0  0  0
  160.6530  206.5300  148.8300 C   0  0  2  0  0  3  0  0  0  0  0  0
  161.3700  206.2030  150.9850 C   0  0  0  0  0  0  0  0  0  0  0  0
  161.3530  208.6330  150.2920 C   0  0  0  0  0  2  0  0  0  0  0  0
  160.3990  205.1510  149.2400 N   0  0  0  0  0  0  0  0  0  0  0  0
  160.8350  204.9760  150.4380 C   0  0  0  0  0  0  0  0  0  0  0  0
  161.1890  208.1250  152.7180 C   0  0  1  0  0  3  0  0  0  0  0  0
  160.4460  207.2860  155.3860 O   0  0  0  0  0  0  0  0  0  0  0  0
  161.9300  208.9150  151.6710 C   0  0  2  0  0  3  0  0  0  0  0  0
  161.8360  210.2270  153.6610 C   0  0  0  0  0  2  0  0  0  0  0  0
  161.9030  206.4580  152.6980 S   0  0  0  0  0  0  0  0  0  0  0  0
  160.8760  208.4570  155.2200 C   0  0  0  0  0  0  0  0  0  0  0  0
  161.4110  208.8580  153.9480 N   0  0  0  0  0  0  0  0  0  0  0  0
  162.4280  207.4630  147.5750 O   0  0  0  0  0  0  0  0  0  0  0  0
  161.6070  206.5620  147.6790 C   0  0  0  0  0  0  0  0  0  0  0  0
  161.6060  205.2260  146.4950 S   0  0  0  0  0  0  0  0  0  0  0  0
  162.4290  206.2200  145.2170 C   0  0  0  0  0  2  0  0  0  0  0  0
  161.4930  206.4550  144.0530 C   0  0  1  0  0  3  0  0  0  0  0  0
  162.1590  205.9250  142.7990 C   0  0  1  0  0  3  0  0  0  0  0  0
  161.0670  205.1230  143.4780 C   0  0  0  0  0  2  0  0  0  0  0  0
  161.5850  206.6400  141.5920 C   0  0  0  0  0  2  0  0  0  0  0  0
  162.3510  205.4180  138.1100 O   0  0  0  0  0  0  0  0  0  0  0  0
  162.4280  208.5420  140.2440 N   0  0  2  0  0  0  0  0  0  0  0  0
  162.4260  207.3320  139.4110 N   0  0  0  0  0  0  0  0  0  0  0  0
  162.7170  207.3490  140.8390 C   0  0  2  0  0  3  0  0  0  0  0  0
  162.2460  206.6690  138.1650 C   0  0  0  0  0  0  0  0  0  0  0  0
  161.0700  211.4390  140.9470 C   0  0  0  0  0  3  0  0  0  0  0  0
  160.5490  209.4940  138.9640 C   0  0  0  0  0  2  0  0  0  0  0  0
  159.7790  210.8140  139.0510 C   0  0  0  0  0  2  0  0  0  0  0  0
  161.0360  208.9950  140.3430 C   0  0  2  0  0  3  0  0  0  0  0  0
  160.5380  211.7760  139.8230 N   0  0  0  0  0  0  0  0  0  0  0  0
  160.8970  210.0420  141.4700 C   0  0  0  0  0  2  0  0  0  0  0  0
  162.0820  208.8350  137.0110 C   0  0  0  0  0  1  0  0  0  0  0  0
  161.9610  207.4200  137.0240 O   0  0  0  0  0  0  0  0  0  0  0  0
  160.7470  209.4350  156.3410 C   0  0  0  0  0  2  0  0  0  0  0  0
  159.4460  210.1880  156.1870 C   0  0  0  0  0  2  0  0  0  0  0  0
  159.6800  211.6640  156.1830 C   0  0  0  0  0  0  0  0  0  0  0  0
  160.7860  212.0810  156.4860 O   0  0  0  0  0  0  0  0  0  0  0  0
  157.5030  212.6460  156.8080 C   0  0  0  0  0  1  0  0  0  0  0  0
  158.5930  212.6190  155.7450 C   0  0  1  0  0  0  0  0  0  0  0  0
  159.1110  213.9120  155.6410 O   0  0  0  0  0  1  0  0  0  0  0  0
  158.6030  212.8920  153.3400 O   0  0  0  0  0  1  0  0  0  0  0  0
  157.9750  212.2220  154.3930 C   0  0  2  0  0  3  0  0  0  0  0  0
  156.4640  212.4660  154.3200 C   0  0  0  0  0  2  0  0  0  0  0  0
  156.1340  213.7230  153.5320 C   0  0  0  0  0  2  0  0  0  0  0  0
  154.7640  213.9830  153.5850 O   0  0  0  0  0  1  0  0  0  0  0  0
  160.6440  203.7120  151.2150 C   0  0  0  0  0  2  0  0  0  0  0  0
  161.1270  200.4630  149.6240 C   0  0  0  0  0  3  0  0  0  0  0  0
  161.1060  201.2320  150.7740 C   0  0  0  0  0  3  0  0  0  0  0  0
  160.6030  202.4870  148.9830 C   0  0  0  0  0  3  0  0  0  0  0  0
  160.7710  202.5010  150.3480 C   0  0  0  0  0  0  0  0  0  0  0  0
  160.8200  201.2300  148.5550 N   0  0  0  0  0  0  0  0  0  0  0  0
  159.9980  201.0720  144.9010 C   0  0  0  0  0  3  0  0  0  0  0  0
  160.0690  201.5230  146.2260 C   0  0  0  0  0  3  0  0  0  0  0  0
  161.2960  199.1220  145.4840 C   0  0  0  0  0  0  0  0  0  0  0  0
  160.7540  200.7810  147.1930 C   0  0  0  0  0  0  0  0  0  0  0  0
  161.8980  197.9720  145.1240 F   0  0  0  0  0  0  0  0  0  0  0  0
  161.3680  199.5710  146.8070 C   0  0  0  0  0  3  0  0  0  0  0  0
  160.6110  199.8740  144.5310 C   0  0  0  0  0  3  0  0  0  0  0  0
  1  5  1  0  0  0  0
  1  4  2  0  0  0  0
  2 11  1  0  0  0  0
  3 16  1  6  0  0  0
  3  6  1  0  0  0  0
  3  1  1  0  0  0  0
  4 12  1  0  0  0  0
  6  7  2  0  0  0  0
  7  4  1  0  0  0  0
  7 48  1  0  0  0  0
  8 12  1  1  0  0  0
  8 14  1  0  0  0  0
 10  5  1  6  0  0  0
 10  2  1  0  0  0  0
 10  8  1  0  0  0  0
 11 14  1  0  0  0  0
 13  9  2  0  0  0  0
 13 36  1  0  0  0  0
 14 13  1  0  0  0  0
 15 16  2  0  0  0  0
 17 16  1  0  0  0  0
 18 17  1  0  0  0  0
 19 18  1  1  0  0  0
 20 22  1  6  0  0  0
 20 21  1  0  0  0  0
 20 19  1  0  0  0  0
 21 19  1  0  0  0  0
 23 27  2  0  0  0  0
 24 25  1  6  0  0  0
 24 31  1  0  0  0  0
 24 26  1  0  0  0  0
 25 26  1  0  0  0  0
 26 22  1  1  0  0  0
 27 25  1  0  0  0  0
 28 33  1  0  0  0  0
 29 30  1  0  0  0  0
 30 32  1  0  0  0  0
 31 29  1  6  0  0  0
 31 33  1  0  0  0  0
 32 28  2  0  0  0  0
 34 35  1  0  0  0  0
 35 27  1  0  0  0  0
 37 36  1  0  0  0  0
 38 37  1  0  0  0  0
 38 39  2  0  0  0  0
 41 38  1  0  0  0  0
 41 40  1  1  0  0  0
 42 41  1  0  0  0  0
 44 43  1  6  0  0  0
 44 41  1  0  0  0  0
 45 44  1  0  0  0  0
 46 47  1  0  0  0  0
 46 45  1  0  0  0  0
 49 50  2  0  0  0  0
 51 52  2  0  0  0  0
 52 50  1  0  0  0  0
 52 48  1  0  0  0  0
 53 51  1  0  0  0  0
 53 49  1  0  0  0  0
 54 55  1  0  0  0  0
 55 57  2  0  0  0  0
 56 59  2  0  0  0  0
 57 53  1  0  0  0  0
 58 56  1  0  0  0  0
 59 57  1  0  0  0  0
 60 54  2  0  0  0  0
 60 56  1  0  0  0  0
M  END
>  <MODEL>
2

>  <REMARK>
 VINA RESULT:      -3.3      3.531     11.473
  Name = 
  18 active torsions:
  status: ('A' for Active; 'I' for Inactive)
    1  A    between atoms: C_9  and  C_25
    2  A    between atoms: C_10  and  C_60
    3  A    between atoms: O_12  and  C_48
    4  A    between atoms: C_13  and  C_18
    5  A    between atoms: C_13  and  C_27
    6  A    between atoms: C_15  and  C_24
    7  A    between atoms: C_15  and  C_47
    8  A    between atoms: C_18  and  C_57
    9  A    between atoms: C_20  and  C_42
   10  A    between atoms: C_25  and  S_56
   11  A    between atoms: C_27  and  C_44
   12  A    between atoms: C_28  and  C_29
   13  A    between atoms: C_29  and  C_37
   14  A    between atoms: C_32  and  N_52
   15  A    between atoms: N_40  and  C_50
   16  A    between atoms: C_42  and  S_56
   17  A    between atoms: C_44  and  C_59
   18  A    between atoms: C_59  and  C_60
                            x       y       z     vdW  Elec       q    Type
                         _______ _______ _______ _____ _____    ______ ____

>  <TORSDO>
F 18

$$$$
=
 OpenBabel11042421003D

 60 67  0  0  1  0  0  0  0  0999 V2000
  161.3580  207.2050  148.3130 C   0  0  0  0  0  0  0  0  0  0  0  0
  162.2890  210.6800  149.7430 C   0  0  0  0  0  2  0  0  0  0  0  0
  160.6350  206.4310  147.2610 C   0  0  2  0  0  3  0  0  0  0  0  0
  161.4710  206.4420  149.3980 C   0  0  0  0  0  0  0  0  0  0  0  0
  161.5700  208.7010  148.2720 C   0  0  0  0  0  2  0  0  0  0  0  0
  160.3170  205.1720  147.9310 N   0  0  0  0  0  0  0  0  0  0  0  0
  160.8190  205.1820  149.1150 C   0  0  0  0  0  0  0  0  0  0  0  0
  161.5340  208.6510  150.7550 C   0  0  1  0  0  3  0  0  0  0  0  0
  160.9150  208.3660  153.5670 O   0  0  0  0  0  0  0  0  0  0  0  0
  162.2550  209.1800  149.5430 C   0  0  2  0  0  3  0  0  0  0  0  0
  162.3810  210.8320  151.2600 C   0  0  0  0  0  2  0  0  0  0  0  0
  162.1310  206.9570  151.0050 S   0  0  0  0  0  0  0  0  0  0  0  0
  161.4110  209.4510  153.1660 C   0  0  0  0  0  0  0  0  0  0  0  0
  161.8850  209.5740  151.8160 N   0  0  0  0  0  0  0  0  0  0  0  0
  162.7100  206.4180  146.1240 O   0  0  0  0  0  0  0  0  0  0  0  0
  161.5110  206.1810  146.0750 C   0  0  0  0  0  0  0  0  0  0  0  0
  160.8150  205.4470  144.6040 S   0  0  0  0  0  0  0  0  0  0  0  0
  162.1050  206.1340  143.5260 C   0  0  0  0  0  2  0  0  0  0  0  0
  161.5810  206.2940  142.1160 C   0  0  1  0  0  3  0  0  0  0  0  0
  162.0340  207.6420  141.5960 C   0  0  1  0  0  3  0  0  0  0  0  0
  162.7470  206.3800  141.1580 C   0  0  0  0  0  2  0  0  0  0  0  0
  161.0870  208.0950  140.5010 C   0  0  0  0  0  2  0  0  0  0  0  0
  159.5410  208.3780  137.0750 O   0  0  0  0  0  0  0  0  0  0  0  0
  161.7930  210.2400  139.4800 N   0  0  2  0  0  0  0  0  0  0  0  0
  160.9400  209.5180  138.5270 N   0  0  0  0  0  0  0  0  0  0  0  0
  161.8750  208.8790  139.4450 C   0  0  2  0  0  3  0  0  0  0  0  0
  159.9440  209.4860  137.5110 C   0  0  0  0  0  0  0  0  0  0  0  0
  162.1810  212.6290  141.6880 C   0  0  0  0  0  3  0  0  0  0  0  0
  160.0950  211.9770  139.8950 C   0  0  0  0  0  2  0  0  0  0  0  0
  160.0450  213.2010  140.8130 C   0  0  0  0  0  2  0  0  0  0  0  0
  160.9070  210.8100  140.5000 C   0  0  2  0  0  3  0  0  0  0  0  0
  161.3830  213.5410  141.2520 N   0  0  0  0  0  0  0  0  0  0  0  0
  161.7210  211.1990  141.7540 C   0  0  0  0  0  2  0  0  0  0  0  0
  158.0630  211.0250  137.1370 C   0  0  0  0  0  1  0  0  0  0  0  0
  159.4360  210.6850  137.0110 O   0  0  0  0  0  0  0  0  0  0  0  0
  161.4220  210.6210  154.0930 C   0  0  0  0  0  2  0  0  0  0  0  0
  160.0970  210.6860  154.8180 C   0  0  0  0  0  2  0  0  0  0  0  0
  160.0210  211.8980  155.6870 C   0  0  0  0  0  0  0  0  0  0  0  0
  160.9780  212.1710  156.3930 O   0  0  0  0  0  0  0  0  0  0  0  0
  158.1770  212.8490  157.0240 C   0  0  0  0  0  1  0  0  0  0  0  0
  158.8140  212.8090  155.6420 C   0  0  1  0  0  0  0  0  0  0  0  0
  159.2130  214.1100  155.3250 O   0  0  0  0  0  1  0  0  0  0  0  0
  157.5350  213.3360  153.6560 O   0  0  0  0  0  1  0  0  0  0  0  0
  157.7690  212.3440  154.6130 C   0  0  2  0  0  3  0  0  0  0  0  0
  156.4380  211.9260  155.2460 C   0  0  0  0  0  2  0  0  0  0  0  0
  156.2510  210.4180  155.2210 C   0  0  0  0  0  2  0  0  0  0  0  0
  154.8950  210.0960  155.2940 O   0  0  0  0  0  1  0  0  0  0  0  0
  160.5960  204.0960  150.1210 C   0  0  0  0  0  2  0  0  0  0  0  0
  161.2800  200.6220  149.2410 C   0  0  0  0  0  3  0  0  0  0  0  0
  161.2290  201.6160  150.2010 C   0  0  0  0  0  3  0  0  0  0  0  0
  160.5960  202.4200  148.2040 C   0  0  0  0  0  3  0  0  0  0  0  0
  160.7920  202.7380  149.5270 C   0  0  0  0  0  0  0  0  0  0  0  0
  160.8950  201.1190  148.0450 N   0  0  0  0  0  0  0  0  0  0  0  0
  160.0450  200.1480  144.5260 C   0  0  0  0  0  3  0  0  0  0  0  0
  160.1120  200.8770  145.7210 C   0  0  0  0  0  3  0  0  0  0  0  0
  161.4170  198.4140  145.4930 C   0  0  0  0  0  0  0  0  0  0  0  0
  160.8320  200.3840  146.8130 C   0  0  0  0  0  0  0  0  0  0  0  0
  162.0560  197.2340  145.3800 F   0  0  0  0  0  0  0  0  0  0  0  0
  161.4840  199.1400  146.6870 C   0  0  0  0  0  3  0  0  0  0  0  0
  160.6970  198.9190  144.4120 C   0  0  0  0  0  3  0  0  0  0  0  0
  1  4  2  0  0  0  0
  2 11  1  0  0  0  0
  3 16  1  6  0  0  0
  3  6  1  0  0  0  0
  3  1  1  0  0  0  0
  4 12  1  0  0  0  0
  5  1  1  0  0  0  0
  6  7  2  0  0  0  0
  7  4  1  0  0  0  0
  7 48  1  0  0  0  0
  8 12  1  1  0  0  0
  8 14  1  0  0  0  0
 10  5  1  6  0  0  0
 10  2  1  0  0  0  0
 10  8  1  0  0  0  0
 11 14  1  0  0  0  0
 13  9  2  0  0  0  0
 13 36  1  0  0  0  0
 14 13  1  0  0  0  0
 16 15  2  0  0  0  0
 17 16  1  0  0  0  0
 18 17  1  0  0  0  0
 19 18  1  1  0  0  0
 20 22  1  6  0  0  0
 20 19  1  0  0  0  0
 21 20  1  0  0  0  0
 21 19  1  0  0  0  0
 23 27  2  0  0  0  0
 24 25  1  6  0  0  0
 24 31  1  0  0  0  0
 25 26  1  0  0  0  0
 26 24  1  0  0  0  0
 26 22  1  1  0  0  0
 27 25  1  0  0  0  0
 28 33  1  0  0  0  0
 29 30  1  0  0  0  0
 30 32  1  0  0  0  0
 31 29  1  6  0  0  0
 31 33  1  0  0  0  0
 32 28  2  0  0  0  0
 35 34  1  0  0  0  0
 35 27  1  0  0  0  0
 36 37  1  0  0  0  0
 37 38  1  0  0  0  0
 38 39  2  0  0  0  0
 41 38  1  0  0  0  0
 41 40  1  1  0  0  0
 42 41  1  0  0  0  0
 44 43  1  6  0  0  0
 44 45  1  0  0  0  0
 44 41  1  0  0  0  0
 46 45  1  0  0  0  0
 46 47  1  0  0  0  0
 49 50  2  0  0  0  0
 51 52  2  0  0  0  0
 52 48  1  0  0  0  0
 52 50  1  0  0  0  0
 53 51  1  0  0  0  0
 53 49  1  0  0  0  0
 54 55  1  0  0  0  0
 55 57  2  0  0  0  0
 56 59  2  0  0  0  0
 57 53  1  0  0  0  0
 58 56  1  0  0  0  0
 59 57  1  0  0  0  0
 60 54  2  0  0  0  0
 60 56  1  0  0  0  0
M  END
>  <MODEL>
3

>  <REMARK>
 VINA RESULT:      -2.4      3.141     11.245
  Name = 
  18 active torsions:
  status: ('A' for Active; 'I' for Inactive)
    1  A    between atoms: C_9  and  C_25
    2  A    between atoms: C_10  and  C_60
    3  A    between atoms: O_12  and  C_48
    4  A    between atoms: C_13  and  C_18
    5  A    between atoms: C_13  and  C_27
    6  A    between atoms: C_15  and  C_24
    7  A    between atoms: C_15  and  C_47
    8  A    between atoms: C_18  and  C_57
    9  A    between atoms: C_20  and  C_42
   10  A    between atoms: C_25  and  S_56
   11  A    between atoms: C_27  and  C_44
   12  A    between atoms: C_28  and  C_29
   13  A    between atoms: C_29  and  C_37
   14  A    between atoms: C_32  and  N_52
   15  A    between atoms: N_40  and  C_50
   16  A    between atoms: C_42  and  S_56
   17  A    between atoms: C_44  and  C_59
   18  A    between atoms: C_59  and  C_60
                            x       y       z     vdW  Elec       q    Type
                         _______ _______ _______ _____ _____    ______ ____

>  <TORSDO>
F 18

$$$$
=
 OpenBabel11042421003D

 60 67  0  0  1  0  0  0  0  0999 V2000
  161.9060  208.5010  150.6470 C   0  0  0  0  0  0  0  0  0  0  0  0
  161.2260  207.0660  154.1790 C   0  0  0  0  0  2  0  0  0  0  0  0
  162.7960  208.5230  149.4500 C   0  0  2  0  0  3  0  0  0  0  0  0
  161.2500  209.6580  150.7100 C   0  0  0  0  0  0  0  0  0  0  0  0
  162.0280  207.5040  151.7780 C   0  0  0  0  0  2  0  0  0  0  0  0
  162.5860  209.8610  148.9020 N   0  0  0  0  0  0  0  0  0  0  0  0
  161.6950  210.4710  149.6000 C   0  0  0  0  0  0  0  0  0  0  0  0
  161.1320  209.2750  153.2720 C   0  0  1  0  0  3  0  0  0  0  0  0
  160.5980  211.6540  154.8310 O   0  0  0  0  0  0  0  0  0  0  0  0
  161.0320  207.8230  152.8830 C   0  0  2  0  0  3  0  0  0  0  0  0
  160.6130  207.9940  155.2250 C   0  0  0  0  0  2  0  0  0  0  0  0
  160.1600  210.1990  152.0520 S   0  0  0  0  0  0  0  0  0  0  0  0
  160.5130  210.5320  155.3950 C   0  0  0  0  0  0  0  0  0  0  0  0
  160.6060  209.3240  154.6220 N   0  0  0  0  0  0  0  0  0  0  0  0
  163.0820  206.4910  148.2730 O   0  0  0  0  0  0  0  0  0  0  0  0
  162.3900  207.4840  148.4540 C   0  0  0  0  0  0  0  0  0  0  0  0
  160.8380  207.6510  147.5880 S   0  0  0  0  0  0  0  0  0  0  0  0
  161.5830  207.2860  145.9720 C   0  0  0  0  0  2  0  0  0  0  0  0
  161.8020  205.7970  145.8200 C   0  0  1  0  0  3  0  0  0  0  0  0
  160.4480  205.1170  145.8510 C   0  0  1  0  0  3  0  0  0  0  0  0
  161.1630  205.3280  144.5320 C   0  0  0  0  0  2  0  0  0  0  0  0
  160.6270  203.6790  146.2980 C   0  0  0  0  0  2  0  0  0  0  0  0
  160.1250  205.3540  149.6370 O   0  0  0  0  0  0  0  0  0  0  0  0
  161.9240  202.4480  148.0140 N   0  0  2  0  0  0  0  0  0  0  0  0
  161.2510  203.5860  148.6530 N   0  0  0  0  0  0  0  0  0  0  0  0
  161.7870  203.6010  147.2970 C   0  0  2  0  0  3  0  0  0  0  0  0
  160.5730  204.1860  149.7510 C   0  0  0  0  0  0  0  0  0  0  0  0
  160.4790  201.2940  145.3090 C   0  0  0  0  0  3  0  0  0  0  0  0
  161.5810  200.0440  147.5930 C   0  0  0  0  0  2  0  0  0  0  0  0
  160.9900  199.2550  146.4210 C   0  0  0  0  0  2  0  0  0  0  0  0
  160.9030  201.4190  147.7880 C   0  0  2  0  0  3  0  0  0  0  0  0
  160.9390  200.0930  145.2400 N   0  0  0  0  0  0  0  0  0  0  0  0
  159.9800  201.8320  146.6200 C   0  0  0  0  0  2  0  0  0  0  0  0
  161.5270  202.8490  151.5820 C   0  0  0  0  0  1  0  0  0  0  0  0
  160.4230  203.4690  150.9380 O   0  0  0  0  0  0  0  0  0  0  0  0
  160.3930  210.4830  156.8820 C   0  0  0  0  0  2  0  0  0  0  0  0
  158.9330  210.5900  157.2610 C   0  0  0  0  0  2  0  0  0  0  0  0
  158.3900  211.9380  156.9170 C   0  0  0  0  0  0  0  0  0  0  0  0
  159.0200  212.9260  157.2570 O   0  0  0  0  0  0  0  0  0  0  0  0
  157.1560  211.0760  154.9610 C   0  0  0  0  0  1  0  0  0  0  0  0
  157.1210  212.0790  156.1060 C   0  0  1  0  0  0  0  0  0  0  0  0
  156.0140  211.7730  156.9000 O   0  0  0  0  0  1  0  0  0  0  0  0
  156.0090  214.2220  156.2760 O   0  0  0  0  0  1  0  0  0  0  0  0
  156.9460  213.4960  155.5350 C   0  0  2  0  0  3  0  0  0  0  0  0
  156.5440  213.5110  154.0570 C   0  0  0  0  0  2  0  0  0  0  0  0
  157.4370  214.4290  153.2390 C   0  0  0  0  0  2  0  0  0  0  0  0
  157.7890  213.8170  152.0350 O   0  0  0  0  0  1  0  0  0  0  0  0
  161.3090  211.9010  149.3860 C   0  0  0  0  0  2  0  0  0  0  0  0
  163.1280  213.4020  146.6020 C   0  0  0  0  0  3  0  0  0  0  0  0
  163.0820  213.0490  147.9390 C   0  0  0  0  0  3  0  0  0  0  0  0
  161.1890  212.4390  146.9010 C   0  0  0  0  0  3  0  0  0  0  0  0
  161.8550  212.4410  148.1040 C   0  0  0  0  0  0  0  0  0  0  0  0
  161.9850  213.0270  145.9900 N   0  0  0  0  0  0  0  0  0  0  0  0
  162.1400  214.2770  142.4590 C   0  0  0  0  0  3  0  0  0  0  0  0
  162.4620  214.0660  143.8070 C   0  0  0  0  0  3  0  0  0  0  0  0
  160.2200  212.8310  142.6800 C   0  0  0  0  0  0  0  0  0  0  0  0
  161.6690  213.2370  144.6050 C   0  0  0  0  0  0  0  0  0  0  0  0
  159.1480  212.2250  142.1350 F   0  0  0  0  0  0  0  0  0  0  0  0
  160.5400  212.6200  144.0260 C   0  0  0  0  0  3  0  0  0  0  0  0
  161.0210  213.6590  141.8970 C   0  0  0  0  0  3  0  0  0  0  0  0
  1  4  2  0  0  0  0
  1  5  1  0  0  0  0
  2 11  1  0  0  0  0
  3 16  1  6  0  0  0
  3  1  1  0  0  0  0
  4 12  1  0  0  0  0
  6  3  1  0  0  0  0
  6  7  2  0  0  0  0
  7  4  1  0  0  0  0
  8 12  1  6  0  0  0
  8 14  1  0  0  0  0
  9 13  2  0  0  0  0
 10  5  1  6  0  0  0
 10  8  1  0  0  0  0
 10  2  1  0  0  0  0
 13 36  1  0  0  0  0
 14 11  1  0  0  0  0
 14 13  1  0  0  0  0
 15 16  2  0  0  0  0
 17 16  1  0  0  0  0
 18 17  1  0  0  0  0
 19 20  1  0  0  0  0
 19 18  1  6  0  0  0
 20 22  1  1  0  0  0
 21 19  1  0  0  0  0
 21 20  1  0  0  0  0
 23 27  2  0  0  0  0
 24 25  1  1  0  0  0
 25 27  1  0  0  0  0
 26 22  1  6  0  0  0
 26 24  1  0  0  0  0
 26 25  1  0  0  0  0
 27 35  1  0  0  0  0
 28 33  1  0  0  0  0
 29 31  1  0  0  0  0
 30 29  1  0  0  0  0
 31 33  1  6  0  0  0
 31 24  1  0  0  0  0
 32 28  2  0  0  0  0
 32 30  1  0  0  0  0
 35 34  1  0  0  0  0
 36 37  1  0  0  0  0
 38 39  2  0  0  0  0
 38 37  1  0  0  0  0
 41 40  1  6  0  0  0
 41 42  1  0  0  0  0
 41 38  1  0  0  0  0
 44 41  1  0  0  0  0
 44 43  1  1  0  0  0
 45 44  1  0  0  0  0
 46 45  1  0  0  0  0
 47 46  1  0  0  0  0
 48  7  1  0  0  0  0
 49 50  2  0  0  0  0
 50 52  1  0  0  0  0
 51 52  2  0  0  0  0
 52 48  1  0  0  0  0
 53 49  1  0  0  0  0
 53 51  1  0  0  0  0
 54 55  1  0  0  0  0
 55 57  2  0  0  0  0
 56 59  2  0  0  0  0
 57 53  1  0  0  0  0
 58 56  1  0  0  0  0
 59 57  1  0  0  0  0
 60 54  2  0  0  0  0
 60 56  1  0  0  0  0
M  END
>  <MODEL>
4

>  <REMARK>
 VINA RESULT:      -1.4      3.847     11.899
  Name = 
  18 active torsions:
  status: ('A' for Active; 'I' for Inactive)
    1  A    between atoms: C_9  and  C_25
    2  A    between atoms: C_10  and  C_60
    3  A    between atoms: O_12  and  C_48
    4  A    between atoms: C_13  and  C_18
    5  A    between atoms: C_13  and  C_27
    6  A    between atoms: C_15  and  C_24
    7  A    between atoms: C_15  and  C_47
    8  A    between atoms: C_18  and  C_57
    9  A    between atoms: C_20  and  C_42
   10  A    between atoms: C_25  and  S_56
   11  A    between atoms: C_27  and  C_44
   12  A    between atoms: C_28  and  C_29
   13  A    between atoms: C_29  and  C_37
   14  A    between atoms: C_32  and  N_52
   15  A    between atoms: N_40  and  C_50
   16  A    between atoms: C_42  and  S_56
   17  A    between atoms: C_44  and  C_59
   18  A    between atoms: C_59  and  C_60
                            x       y       z     vdW  Elec       q    Type
                         _______ _______ _______ _____ _____    ______ ____

>  <TORSDO>
F 18

$$$$
