=
 OpenBabel11052410353D

 40 45  0  0  1  0  0  0  0  0999 V2000
  160.1010  212.3250  151.6970 C   0  0  0  0  0  3  0  0  0  0  0  0
  160.1130  211.1650  152.4730 C   0  0  0  0  0  0  0  0  0  0  0  0
  161.4310  211.2090  149.9900 C   0  0  0  0  0  0  0  0  0  0  0  0
  160.7840  210.0290  152.0160 C   0  0  0  0  0  3  0  0  0  0  0  0
  160.7500  212.3440  150.4610 C   0  0  0  0  0  3  0  0  0  0  0  0
  161.4390  210.0410  150.7800 C   0  0  0  0  0  0  0  0  0  0  0  0
  161.7830  207.6290  148.1970 C   0  0  0  0  0  2  0  0  0  0  0  0
  162.1180  208.8640  150.3470 N   0  0  0  0  0  0  0  0  0  0  0  0
  161.5250  206.5390  150.9110 C   0  0  0  0  0  2  0  0  0  0  0  0
  160.8450  205.8830  149.7170 C   0  0  1  0  0  3  0  0  0  0  0  0
  162.6850  207.4900  150.5660 C   0  0  1  0  0  3  0  0  0  0  0  0
  162.7850  208.0470  149.2900 C   0  0  1  0  0  3  0  0  0  0  0  0
  160.5120  206.9460  148.6890 C   0  0  0  0  0  2  0  0  0  0  0  0
  161.6930  204.7630  149.1210 C   0  0  0  0  0  2  0  0  0  0  0  0
  160.9980  204.1290  147.9160 C   0  0  2  0  0  3  0  0  0  0  0  0
  160.8980  202.7530  148.1160 O   0  0  0  0  0  1  0  0  0  0  0  0
  163.1810  204.6480  146.5520 C   0  0  0  0  0  1  0  0  0  0  0  0
  161.6120  205.4760  144.4330 O   0  0  0  0  0  1  0  0  0  0  0  0
  161.3020  203.5010  145.5550 O   0  0  0  0  0  0  0  0  0  0  0  0
  161.6800  204.4020  146.5660 C   0  0  1  0  0  0  0  0  0  0  0  0
  160.8480  204.8320  145.4090 C   0  0  1  0  0  3  0  0  0  0  0  0
  162.1140  211.2150  148.6450 C   0  0  1  0  0  3  0  0  0  0  0  0
  161.2030  211.7770  147.5970 C   0  0  0  0  0  2  0  0  0  0  0  0
  162.9630  212.3850  148.4640 N   0  0  0  0  0  2  0  0  0  0  0  0
  162.0980  212.9190  147.4850 N   0  0  0  0  0  0  0  0  0  0  0  0
  161.4130  214.4160  145.2190 O   0  0  0  0  0  0  0  0  0  0  0  0
  162.3860  213.6210  145.1310 C   0  0  0  0  0  0  0  0  0  0  0  0
  162.7640  212.8200  146.2530 N   0  0  0  0  0  2  0  0  0  0  0  0
  162.3530  212.5380  142.9130 C   0  0  0  0  0  2  0  0  0  0  0  0
  162.2690  214.0330  142.7040 C   0  0  0  0  0  2  0  0  0  0  0  0
  163.1150  213.4740  143.8350 C   0  0  0  0  0  3  0  0  0  0  0  0
  159.4450  211.1520  153.8020 C   0  0  0  0  0  2  0  0  0  0  0  0
  160.3420  211.6390  154.7900 O   0  0  0  0  0  0  0  0  0  0  0  0
  161.6110  211.2600  156.6810 O   0  0  0  0  0  0  0  0  0  0  0  0
  160.6980  210.8730  155.9010 C   0  0  0  0  0  0  0  0  0  0  0  0
  160.0100  209.6450  156.1500 N   0  0  0  0  0  2  0  0  0  0  0  0
  160.3460  208.7680  157.2610 C   0  0  0  0  0  2  0  0  0  0  0  0
  160.2660  207.3190  156.8200 C   0  0  0  0  0  2  0  0  0  0  0  0
  159.9160  207.2570  155.3490 C   0  0  0  0  0  2  0  0  0  0  0  0
  161.1750  207.0270  154.5400 C   0  0  0  0  0  1  0  0  0  0  0  0
  1  2  1  0  0  0  0
  2 32  1  0  0  0  0
  3  5  1  0  0  0  0
  3  6  2  0  0  0  0
  4  2  2  0  0  0  0
  5  1  2  0  0  0  0
  6  4  1  0  0  0  0
  7 13  1  0  0  0  0
  8 11  1  0  0  0  0
  8  6  1  0  0  0  0
 10 14  1  6  0  0  0
 10  9  1  0  0  0  0
 11  9  1  6  0  0  0
 12  7  1  6  0  0  0
 12  8  1  0  0  0  0
 12 11  1  0  0  0  0
 13 10  1  0  0  0  0
 15 16  1  1  0  0  0
 15 14  1  0  0  0  0
 19 20  1  0  0  0  0
 20 17  1  1  0  0  0
 20 15  1  0  0  0  0
 21 18  1  6  0  0  0
 21 19  1  0  0  0  0
 21 20  1  0  0  0  0
 22  3  1  1  0  0  0
 23 22  1  0  0  0  0
 24 22  1  0  0  0  0
 25 23  1  0  0  0  0
 25 24  1  0  0  0  0
 27 26  2  0  0  0  0
 27 28  1  0  0  0  0
 28 25  1  0  0  0  0
 29 31  1  0  0  0  0
 30 29  1  0  0  0  0
 30 31  1  0  0  0  0
 31 27  1  0  0  0  0
 32 33  1  0  0  0  0
 33 35  1  0  0  0  0
 35 36  1  0  0  0  0
 35 34  2  0  0  0  0
 36 37  1  0  0  0  0
 38 37  1  0  0  0  0
 39 38  1  0  0  0  0
 40 39  1  0  0  0  0
M  END
>  <MODEL>
1

>  <REMARK>
 VINA RESULT:      -6.9      0.000      0.000
  Name = 
  13 active torsions:
  status: ('A' for Active; 'I' for Inactive)
    1  A    between atoms: C_2  and  C_10
    2  A    between atoms: C_4  and  C_14
    3  A    between atoms: C_4  and  C_36
    4  A    between atoms: C_8  and  C_17
    5  A    between atoms: C_9  and  C_23
    6  A    between atoms: C_9  and  N_33
    7  A    between atoms: N_12  and  C_22
    8  A    between atoms: C_14  and  C_30
    9  A    between atoms: C_15  and  C_37
   10  A    between atoms: C_17  and  O_34
   11  A    between atoms: C_18  and  O_34
   12  A    between atoms: C_19  and  C_23
   13  A    between atoms: N_27  and  N_38
                            x       y       z     vdW  Elec       q    Type
                         _______ _______ _______ _____ _____    ______ ____

>  <TORSDO>
F 13

$$$$
=
 OpenBabel11052410353D

 40 45  0  0  1  0  0  0  0  0999 V2000
  161.1030  212.5660  149.4910 C   0  0  0  0  0  3  0  0  0  0  0  0
  161.4430  211.9540  148.2830 C   0  0  0  0  0  0  0  0  0  0  0  0
  161.5940  210.5010  150.6850 C   0  0  0  0  0  0  0  0  0  0  0  0
  161.8540  210.6190  148.2700 C   0  0  0  0  0  3  0  0  0  0  0  0
  161.1840  211.8450  150.6850 C   0  0  0  0  0  3  0  0  0  0  0  0
  161.9350  209.8900  149.4610 C   0  0  0  0  0  0  0  0  0  0  0  0
  162.0210  206.9140  147.5270 C   0  0  0  0  0  2  0  0  0  0  0  0
  162.3540  208.5280  149.4090 N   0  0  0  0  0  0  0  0  0  0  0  0
  161.1350  206.5840  150.3070 C   0  0  0  0  0  2  0  0  0  0  0  0
  160.4840  205.8190  149.1630 C   0  0  1  0  0  3  0  0  0  0  0  0
  162.5300  207.1590  150.0030 C   0  0  1  0  0  3  0  0  0  0  0  0
  162.9360  207.3610  148.6820 C   0  0  1  0  0  3  0  0  0  0  0  0
  160.5660  206.6510  147.8980 C   0  0  0  0  0  2  0  0  0  0  0  0
  161.1020  204.4360  148.9740 C   0  0  0  0  0  2  0  0  0  0  0  0
  160.4440  203.4100  149.8950 C   0  0  2  0  0  3  0  0  0  0  0  0
  160.9190  203.5880  151.1940 O   0  0  0  0  0  1  0  0  0  0  0  0
  161.1910  200.9670  150.5020 C   0  0  0  0  0  1  0  0  0  0  0  0
  161.3570  200.3910  147.8040 O   0  0  0  0  0  1  0  0  0  0  0  0
  159.5480  201.4040  148.7830 O   0  0  0  0  0  0  0  0  0  0  0  0
  160.6470  201.9460  149.4720 C   0  0  1  0  0  0  0  0  0  0  0  0
  160.7220  201.6150  148.0240 C   0  0  1  0  0  3  0  0  0  0  0  0
  161.7070  209.7240  151.9740 C   0  0  1  0  0  3  0  0  0  0  0  0
  161.6820  210.6520  153.1490 C   0  0  0  0  0  2  0  0  0  0  0  0
  160.4200  209.2050  152.4180 N   0  0  0  0  0  2  0  0  0  0  0  0
  160.3920  210.0880  153.5190 N   0  0  0  0  0  0  0  0  0  0  0  0
  158.7960  210.2870  155.8130 O   0  0  0  0  0  0  0  0  0  0  0  0
  159.7270  209.4370  155.8100 C   0  0  0  0  0  0  0  0  0  0  0  0
  160.5820  209.3100  154.6720 N   0  0  0  0  0  2  0  0  0  0  0  0
  160.2100  207.1540  156.6140 C   0  0  0  0  0  2  0  0  0  0  0  0
  161.3830  208.0350  156.9790 C   0  0  0  0  0  2  0  0  0  0  0  0
  159.9730  208.5970  157.0210 C   0  0  0  0  0  3  0  0  0  0  0  0
  161.3310  212.7120  147.0080 C   0  0  0  0  0  2  0  0  0  0  0  0
  160.2750  212.1730  146.2250 O   0  0  0  0  0  0  0  0  0  0  0  0
  158.9190  212.7490  144.4490 O   0  0  0  0  0  0  0  0  0  0  0  0
  160.0810  212.5470  144.8950 C   0  0  0  0  0  0  0  0  0  0  0  0
  161.2180  212.7080  144.0440 N   0  0  0  0  0  2  0  0  0  0  0  0
  161.1020  213.0550  142.6360 C   0  0  0  0  0  2  0  0  0  0  0  0
  162.2650  212.4690  141.8590 C   0  0  0  0  0  2  0  0  0  0  0  0
  161.7410  211.7500  140.6340 C   0  0  0  0  0  2  0  0  0  0  0  0
  162.7260  210.6770  140.2190 C   0  0  0  0  0  1  0  0  0  0  0  0
  1  5  1  0  0  0  0
  2  1  2  0  0  0  0
  4  2  1  0  0  0  0
  4  6  2  0  0  0  0
  5  3  2  0  0  0  0
  6  3  1  0  0  0  0
  7 13  1  0  0  0  0
  8  6  1  0  0  0  0
  8 11  1  0  0  0  0
 10 14  1  6  0  0  0
 10  9  1  0  0  0  0
 11  9  1  6  0  0  0
 12  7  1  6  0  0  0
 12  8  1  0  0  0  0
 12 11  1  0  0  0  0
 13 10  1  0  0  0  0
 14 15  1  0  0  0  0
 15 16  1  1  0  0  0
 19 20  1  0  0  0  0
 20 15  1  0  0  0  0
 20 17  1  1  0  0  0
 21 18  1  1  0  0  0
 21 19  1  0  0  0  0
 21 20  1  0  0  0  0
 22  3  1  6  0  0  0
 22 24  1  0  0  0  0
 22 23  1  0  0  0  0
 23 25  1  0  0  0  0
 24 25  1  0  0  0  0
 25 28  1  0  0  0  0
 27 26  2  0  0  0  0
 27 31  1  0  0  0  0
 28 27  1  0  0  0  0
 29 30  1  0  0  0  0
 29 31  1  0  0  0  0
 30 31  1  0  0  0  0
 32  2  1  0  0  0  0
 33 32  1  0  0  0  0
 34 35  2  0  0  0  0
 35 33  1  0  0  0  0
 36 35  1  0  0  0  0
 37 36  1  0  0  0  0
 38 37  1  0  0  0  0
 39 38  1  0  0  0  0
 40 39  1  0  0  0  0
M  END
>  <MODEL>
2

>  <REMARK>
 VINA RESULT:      -6.3      2.161      8.454
  Name = 
  13 active torsions:
  status: ('A' for Active; 'I' for Inactive)
    1  A    between atoms: C_2  and  C_10
    2  A    between atoms: C_4  and  C_14
    3  A    between atoms: C_4  and  C_36
    4  A    between atoms: C_8  and  C_17
    5  A    between atoms: C_9  and  C_23
    6  A    between atoms: C_9  and  N_33
    7  A    between atoms: N_12  and  C_22
    8  A    between atoms: C_14  and  C_30
    9  A    between atoms: C_15  and  C_37
   10  A    between atoms: C_17  and  O_34
   11  A    between atoms: C_18  and  O_34
   12  A    between atoms: C_19  and  C_23
   13  A    between atoms: N_27  and  N_38
                            x       y       z     vdW  Elec       q    Type
                         _______ _______ _______ _____ _____    ______ ____

>  <TORSDO>
F 13

$$$$
=
 OpenBabel11052410353D

 40 45  0  0  1  0  0  0  0  0999 V2000
  161.6120  206.4870  150.5570 C   0  0  0  0  0  3  0  0  0  0  0  0
  161.2010  206.3960  151.8890 C   0  0  0  0  0  0  0  0  0  0  0  0
  161.8830  208.8950  150.7970 C   0  0  0  0  0  0  0  0  0  0  0  0
  161.1260  207.5480  152.6750 C   0  0  0  0  0  3  0  0  0  0  0  0
  161.9560  207.7280  150.0170 C   0  0  0  0  0  3  0  0  0  0  0  0
  161.4670  208.7950  152.1400 C   0  0  0  0  0  0  0  0  0  0  0  0
  161.2820  210.0130  155.4700 C   0  0  0  0  0  2  0  0  0  0  0  0
  161.3740  209.9500  152.9710 N   0  0  0  0  0  0  0  0  0  0  0  0
  159.3100  211.1370  153.6070 C   0  0  0  0  0  2  0  0  0  0  0  0
  158.9470  210.7900  155.0450 C   0  0  1  0  0  3  0  0  0  0  0  0
  160.8150  211.2980  153.3300 C   0  0  1  0  0  3  0  0  0  0  0  0
  161.7550  210.7250  154.1890 C   0  0  1  0  0  3  0  0  0  0  0  0
  159.8070  209.6320  155.5090 C   0  0  0  0  0  2  0  0  0  0  0  0
  159.0710  211.9970  155.9720 C   0  0  0  0  0  2  0  0  0  0  0  0
  157.6950  212.4870  156.4220 C   0  0  2  0  0  3  0  0  0  0  0  0
  156.9270  211.3950  156.8220 O   0  0  0  0  0  1  0  0  0  0  0  0
  157.6800  214.3520  154.5730 C   0  0  0  0  0  1  0  0  0  0  0  0
  154.9230  214.4380  154.7390 O   0  0  0  0  0  1  0  0  0  0  0  0
  156.1280  212.4990  154.5220 O   0  0  0  0  0  0  0  0  0  0  0  0
  156.9250  213.2950  155.3640 C   0  0  1  0  0  0  0  0  0  0  0  0
  155.4390  213.3380  155.4280 C   0  0  1  0  0  3  0  0  0  0  0  0
  162.2760  210.2360  150.2270 C   0  0  1  0  0  3  0  0  0  0  0  0
  162.4300  210.1480  148.7390 C   0  0  0  0  0  2  0  0  0  0  0  0
  161.1240  211.1000  150.0070 N   0  0  0  0  0  2  0  0  0  0  0  0
  161.2620  211.0070  148.6060 N   0  0  0  0  0  0  0  0  0  0  0  0
  159.6940  212.7590  147.0820 O   0  0  0  0  0  0  0  0  0  0  0  0
  160.8590  213.1260  147.3950 C   0  0  0  0  0  0  0  0  0  0  0  0
  161.7060  212.2610  148.1550 N   0  0  0  0  0  2  0  0  0  0  0  0
  162.7430  214.2730  146.2860 C   0  0  0  0  0  2  0  0  0  0  0  0
  161.5190  214.4340  145.4130 C   0  0  0  0  0  2  0  0  0  0  0  0
  161.3760  214.4460  146.9250 C   0  0  0  0  0  3  0  0  0  0  0  0
  160.8080  205.0790  152.4570 C   0  0  0  0  0  2  0  0  0  0  0  0
  161.7850  204.1040  152.1200 O   0  0  0  0  0  0  0  0  0  0  0  0
  161.6530  201.8520  151.6340 O   0  0  0  0  0  0  0  0  0  0  0  0
  161.4990  203.0450  151.2570 C   0  0  0  0  0  0  0  0  0  0  0  0
  161.0230  203.3300  149.9400 N   0  0  0  0  0  2  0  0  0  0  0  0
  160.7420  202.2870  148.9650 C   0  0  0  0  0  2  0  0  0  0  0  0
  161.2210  202.7170  147.5920 C   0  0  0  0  0  2  0  0  0  0  0  0
  161.4490  204.2130  147.5830 C   0  0  0  0  0  2  0  0  0  0  0  0
  162.5010  204.5580  146.5490 C   0  0  0  0  0  1  0  0  0  0  0  0
  1  2  1  0  0  0  0
  2 32  1  0  0  0  0
  2  4  2  0  0  0  0
  3  6  2  0  0  0  0
  5  1  2  0  0  0  0
  5  3  1  0  0  0  0
  6  4  1  0  0  0  0
  6  8  1  0  0  0  0
  7 13  1  0  0  0  0
  8 11  1  0  0  0  0
  8 12  1  0  0  0  0
  9 10  1  0  0  0  0
 10 13  1  0  0  0  0
 10 14  1  1  0  0  0
 11  9  1  1  0  0  0
 11 12  1  0  0  0  0
 12  7  1  1  0  0  0
 14 15  1  0  0  0  0
 15 16  1  6  0  0  0
 19 20  1  0  0  0  0
 19 21  1  0  0  0  0
 20 17  1  6  0  0  0
 20 21  1  0  0  0  0
 20 15  1  0  0  0  0
 21 18  1  6  0  0  0
 22  3  1  6  0  0  0
 23 22  1  0  0  0  0
 24 22  1  0  0  0  0
 25 23  1  0  0  0  0
 25 24  1  0  0  0  0
 26 27  2  0  0  0  0
 27 28  1  0  0  0  0
 28 25  1  0  0  0  0
 29 31  1  0  0  0  0
 30 29  1  0  0  0  0
 30 31  1  0  0  0  0
 31 27  1  0  0  0  0
 33 32  1  0  0  0  0
 35 34  2  0  0  0  0
 35 33  1  0  0  0  0
 36 35  1  0  0  0  0
 37 36  1  0  0  0  0
 38 37  1  0  0  0  0
 39 38  1  0  0  0  0
 40 39  1  0  0  0  0
M  END
>  <MODEL>
3

>  <REMARK>
 VINA RESULT:      -6.2      2.671      8.078
  Name = 
  13 active torsions:
  status: ('A' for Active; 'I' for Inactive)
    1  A    between atoms: C_2  and  C_10
    2  A    between atoms: C_4  and  C_14
    3  A    between atoms: C_4  and  C_36
    4  A    between atoms: C_8  and  C_17
    5  A    between atoms: C_9  and  C_23
    6  A    between atoms: C_9  and  N_33
    7  A    between atoms: N_12  and  C_22
    8  A    between atoms: C_14  and  C_30
    9  A    between atoms: C_15  and  C_37
   10  A    between atoms: C_17  and  O_34
   11  A    between atoms: C_18  and  O_34
   12  A    between atoms: C_19  and  C_23
   13  A    between atoms: N_27  and  N_38
                            x       y       z     vdW  Elec       q    Type
                         _______ _______ _______ _____ _____    ______ ____

>  <TORSDO>
F 13

$$$$
=
 OpenBabel11052410353D

 40 45  0  0  1  0  0  0  0  0999 V2000
  160.2450  211.7810  152.1650 C   0  0  0  0  0  3  0  0  0  0  0  0
  160.2730  210.5270  152.7810 C   0  0  0  0  0  0  0  0  0  0  0  0
  161.5090  210.8940  150.2820 C   0  0  0  0  0  0  0  0  0  0  0  0
  160.9190  209.4590  152.1550 C   0  0  0  0  0  3  0  0  0  0  0  0
  160.8540  211.9600  150.9210 C   0  0  0  0  0  3  0  0  0  0  0  0
  161.5340  209.6320  150.9100 C   0  0  0  0  0  0  0  0  0  0  0  0
  161.5910  207.4080  148.1430 C   0  0  0  0  0  2  0  0  0  0  0  0
  162.1870  208.5190  150.3040 N   0  0  0  0  0  0  0  0  0  0  0  0
  161.7770  206.1370  150.7830 C   0  0  0  0  0  2  0  0  0  0  0  0
  160.9560  205.5250  149.6570 C   0  0  1  0  0  3  0  0  0  0  0  0
  162.8350  207.1640  150.3430 C   0  0  1  0  0  3  0  0  0  0  0  0
  162.7240  207.8050  149.1070 C   0  0  1  0  0  3  0  0  0  0  0  0
  160.4340  206.6330  148.7640 C   0  0  0  0  0  2  0  0  0  0  0  0
  161.7520  204.4880  148.8680 C   0  0  0  0  0  2  0  0  0  0  0  0
  160.9660  204.0030  147.6510 C   0  0  2  0  0  3  0  0  0  0  0  0
  160.7770  202.6250  147.7460 O   0  0  0  0  0  1  0  0  0  0  0  0
  163.1040  204.6240  146.2590 C   0  0  0  0  0  1  0  0  0  0  0  0
  161.4680  205.4810  144.2030 O   0  0  0  0  0  1  0  0  0  0  0  0
  161.2330  203.4610  145.2630 O   0  0  0  0  0  0  0  0  0  0  0  0
  161.6100  204.3380  146.2960 C   0  0  1  0  0  0  0  0  0  0  0  0
  160.7430  204.7840  145.1720 C   0  0  1  0  0  3  0  0  0  0  0  0
  162.1480  211.0750  148.9270 C   0  0  1  0  0  3  0  0  0  0  0  0
  161.1250  211.4980  147.9180 C   0  0  0  0  0  2  0  0  0  0  0  0
  162.7650  212.3860  148.7800 N   0  0  0  0  0  2  0  0  0  0  0  0
  161.7940  212.7890  147.8380 N   0  0  0  0  0  0  0  0  0  0  0  0
  160.9600  214.4530  145.7450 O   0  0  0  0  0  0  0  0  0  0  0  0
  161.9820  213.7390  145.5630 C   0  0  0  0  0  0  0  0  0  0  0  0
  162.4370  212.8580  146.5920 N   0  0  0  0  0  2  0  0  0  0  0  0
  162.2560  212.5950  143.3930 C   0  0  0  0  0  2  0  0  0  0  0  0
  161.6840  213.9690  143.1270 C   0  0  0  0  0  2  0  0  0  0  0  0
  162.6900  213.7720  144.2470 C   0  0  0  0  0  3  0  0  0  0  0  0
  159.6490  210.3420  154.1180 C   0  0  0  0  0  2  0  0  0  0  0  0
  160.2520  211.2270  155.0520 O   0  0  0  0  0  0  0  0  0  0  0  0
  160.0310  213.1690  156.2790 O   0  0  0  0  0  0  0  0  0  0  0  0
  159.4980  212.1310  155.8000 C   0  0  0  0  0  0  0  0  0  0  0  0
  158.1080  211.8700  156.0130 N   0  0  0  0  0  2  0  0  0  0  0  0
  157.2610  212.7390  156.8150 C   0  0  0  0  0  2  0  0  0  0  0  0
  155.8700  212.8070  156.2130 C   0  0  0  0  0  2  0  0  0  0  0  0
  155.9580  212.6000  154.7160 C   0  0  0  0  0  2  0  0  0  0  0  0
  155.7260  213.9190  154.0090 C   0  0  0  0  0  1  0  0  0  0  0  0
  1  2  1  0  0  0  0
  2 32  1  0  0  0  0
  3  6  2  0  0  0  0
  3  5  1  0  0  0  0
  4  2  2  0  0  0  0
  5  1  2  0  0  0  0
  6  4  1  0  0  0  0
  7 13  1  0  0  0  0
  8 11  1  0  0  0  0
  8  6  1  0  0  0  0
 10 14  1  6  0  0  0
 10  9  1  0  0  0  0
 11  9  1  6  0  0  0
 12  7  1  6  0  0  0
 12  8  1  0  0  0  0
 12 11  1  0  0  0  0
 13 10  1  0  0  0  0
 15 16  1  1  0  0  0
 15 14  1  0  0  0  0
 19 20  1  0  0  0  0
 20 17  1  1  0  0  0
 20 15  1  0  0  0  0
 21 18  1  6  0  0  0
 21 19  1  0  0  0  0
 21 20  1  0  0  0  0
 22  3  1  1  0  0  0
 23 22  1  0  0  0  0
 24 22  1  0  0  0  0
 25 23  1  0  0  0  0
 25 24  1  0  0  0  0
 27 26  2  0  0  0  0
 27 28  1  0  0  0  0
 28 25  1  0  0  0  0
 29 31  1  0  0  0  0
 30 29  1  0  0  0  0
 30 31  1  0  0  0  0
 31 27  1  0  0  0  0
 32 33  1  0  0  0  0
 33 35  1  0  0  0  0
 35 36  1  0  0  0  0
 35 34  2  0  0  0  0
 36 37  1  0  0  0  0
 38 37  1  0  0  0  0
 39 38  1  0  0  0  0
 40 39  1  0  0  0  0
M  END
>  <MODEL>
4

>  <REMARK>
 VINA RESULT:      -6.1      1.567      2.362
  Name = 
  13 active torsions:
  status: ('A' for Active; 'I' for Inactive)
    1  A    between atoms: C_2  and  C_10
    2  A    between atoms: C_4  and  C_14
    3  A    between atoms: C_4  and  C_36
    4  A    between atoms: C_8  and  C_17
    5  A    between atoms: C_9  and  C_23
    6  A    between atoms: C_9  and  N_33
    7  A    between atoms: N_12  and  C_22
    8  A    between atoms: C_14  and  C_30
    9  A    between atoms: C_15  and  C_37
   10  A    between atoms: C_17  and  O_34
   11  A    between atoms: C_18  and  O_34
   12  A    between atoms: C_19  and  C_23
   13  A    between atoms: N_27  and  N_38
                            x       y       z     vdW  Elec       q    Type
                         _______ _______ _______ _____ _____    ______ ____

>  <TORSDO>
F 13

$$$$
=
 OpenBabel11052410353D

 40 45  0  0  1  0  0  0  0  0999 V2000
  160.9890  212.5970  149.7210 C   0  0  0  0  0  3  0  0  0  0  0  0
  161.3090  211.9820  148.5090 C   0  0  0  0  0  0  0  0  0  0  0  0
  161.5700  210.5590  150.9190 C   0  0  0  0  0  0  0  0  0  0  0  0
  161.7550  210.6590  148.4960 C   0  0  0  0  0  3  0  0  0  0  0  0
  161.1240  211.8910  150.9180 C   0  0  0  0  0  3  0  0  0  0  0  0
  161.8910  209.9450  149.6910 C   0  0  0  0  0  0  0  0  0  0  0  0
  162.5400  207.1400  147.6130 C   0  0  0  0  0  2  0  0  0  0  0  0
  162.3460  208.5940  149.6390 N   0  0  0  0  0  0  0  0  0  0  0  0
  160.9920  206.5750  150.0430 C   0  0  0  0  0  2  0  0  0  0  0  0
  160.6700  205.9040  148.7140 C   0  0  1  0  0  3  0  0  0  0  0  0
  162.4030  207.1810  150.1480 C   0  0  1  0  0  3  0  0  0  0  0  0
  163.1230  207.4940  148.9940 C   0  0  1  0  0  3  0  0  0  0  0  0
  161.0460  206.8390  147.5820 C   0  0  0  0  0  2  0  0  0  0  0  0
  161.3520  204.5460  148.5800 C   0  0  0  0  0  2  0  0  0  0  0  0
  160.7880  203.7620  147.3950 C   0  0  2  0  0  3  0  0  0  0  0  0
  160.8790  202.3970  147.6620 O   0  0  0  0  0  1  0  0  0  0  0  0
  162.9730  204.2330  146.0170 C   0  0  0  0  0  1  0  0  0  0  0  0
  161.4170  205.2490  143.9720 O   0  0  0  0  0  1  0  0  0  0  0  0
  161.0190  203.2380  145.0000 O   0  0  0  0  0  0  0  0  0  0  0  0
  161.4610  204.0660  146.0470 C   0  0  1  0  0  0  0  0  0  0  0  0
  160.6360  204.5970  144.9290 C   0  0  1  0  0  3  0  0  0  0  0  0
  161.7420  209.7980  152.2110 C   0  0  1  0  0  3  0  0  0  0  0  0
  161.5510  210.7090  153.3840 C   0  0  0  0  0  2  0  0  0  0  0  0
  160.5220  209.1080  152.6100 N   0  0  0  0  0  2  0  0  0  0  0  0
  160.3370  209.9750  153.7080 N   0  0  0  0  0  0  0  0  0  0  0  0
  158.8570  210.2160  156.0750 O   0  0  0  0  0  0  0  0  0  0  0  0
  159.7930  209.3720  156.0450 C   0  0  0  0  0  0  0  0  0  0  0  0
  160.5910  209.2240  154.8680 N   0  0  0  0  0  2  0  0  0  0  0  0
  160.1460  207.0850  156.9060 C   0  0  0  0  0  2  0  0  0  0  0  0
  161.4370  207.8540  157.0780 C   0  0  0  0  0  2  0  0  0  0  0  0
  160.1060  208.5610  157.2600 C   0  0  0  0  0  3  0  0  0  0  0  0
  161.1390  212.7240  147.2310 C   0  0  0  0  0  2  0  0  0  0  0  0
  160.0330  212.1910  146.5150 O   0  0  0  0  0  0  0  0  0  0  0  0
  158.8140  213.6740  145.2340 O   0  0  0  0  0  0  0  0  0  0  0  0
  159.6310  212.7160  145.2860 C   0  0  0  0  0  0  0  0  0  0  0  0
  160.1640  212.1560  144.0830 N   0  0  0  0  0  2  0  0  0  0  0  0
  159.7670  212.6160  142.7610 C   0  0  0  0  0  2  0  0  0  0  0  0
  160.9600  213.2100  142.0380 C   0  0  0  0  0  2  0  0  0  0  0  0
  162.2110  212.4490  142.4190 C   0  0  0  0  0  2  0  0  0  0  0  0
  163.0310  213.2760  143.3860 C   0  0  0  0  0  1  0  0  0  0  0  0
  1  5  1  0  0  0  0
  2  1  2  0  0  0  0
  4  2  1  0  0  0  0
  4  6  2  0  0  0  0
  5  3  2  0  0  0  0
  6  3  1  0  0  0  0
  8  6  1  0  0  0  0
  8 11  1  0  0  0  0
 10 14  1  6  0  0  0
 10  9  1  0  0  0  0
 11  9  1  6  0  0  0
 12  7  1  6  0  0  0
 12  8  1  0  0  0  0
 12 11  1  0  0  0  0
 13  7  1  0  0  0  0
 13 10  1  0  0  0  0
 15 16  1  1  0  0  0
 15 14  1  0  0  0  0
 19 20  1  0  0  0  0
 20 17  1  1  0  0  0
 20 15  1  0  0  0  0
 21 18  1  6  0  0  0
 21 19  1  0  0  0  0
 21 20  1  0  0  0  0
 22  3  1  6  0  0  0
 22 24  1  0  0  0  0
 22 23  1  0  0  0  0
 23 25  1  0  0  0  0
 24 25  1  0  0  0  0
 25 28  1  0  0  0  0
 27 26  2  0  0  0  0
 27 31  1  0  0  0  0
 28 27  1  0  0  0  0
 29 30  1  0  0  0  0
 29 31  1  0  0  0  0
 30 31  1  0  0  0  0
 32  2  1  0  0  0  0
 33 32  1  0  0  0  0
 34 35  2  0  0  0  0
 35 33  1  0  0  0  0
 36 35  1  0  0  0  0
 37 36  1  0  0  0  0
 38 39  1  0  0  0  0
 38 37  1  0  0  0  0
 39 40  1  0  0  0  0
M  END
>  <MODEL>
5

>  <REMARK>
 VINA RESULT:      -5.9      1.654      8.104
  Name = 
  13 active torsions:
  status: ('A' for Active; 'I' for Inactive)
    1  A    between atoms: C_2  and  C_10
    2  A    between atoms: C_4  and  C_14
    3  A    between atoms: C_4  and  C_36
    4  A    between atoms: C_8  and  C_17
    5  A    between atoms: C_9  and  C_23
    6  A    between atoms: C_9  and  N_33
    7  A    between atoms: N_12  and  C_22
    8  A    between atoms: C_14  and  C_30
    9  A    between atoms: C_15  and  C_37
   10  A    between atoms: C_17  and  O_34
   11  A    between atoms: C_18  and  O_34
   12  A    between atoms: C_19  and  C_23
   13  A    between atoms: N_27  and  N_38
                            x       y       z     vdW  Elec       q    Type
                         _______ _______ _______ _____ _____    ______ ____

>  <TORSDO>
F 13

$$$$
=
 OpenBabel11052410353D

 40 45  0  0  1  0  0  0  0  0999 V2000
  161.1650  212.6480  149.5210 C   0  0  0  0  0  3  0  0  0  0  0  0
  161.6180  212.0310  148.3520 C   0  0  0  0  0  0  0  0  0  0  0  0
  161.4960  210.5740  150.7530 C   0  0  0  0  0  0  0  0  0  0  0  0
  162.0050  210.6900  148.3780 C   0  0  0  0  0  3  0  0  0  0  0  0
  161.1110  211.9250  150.7140 C   0  0  0  0  0  3  0  0  0  0  0  0
  161.9510  209.9590  149.5690 C   0  0  0  0  0  0  0  0  0  0  0  0
  162.5780  207.0980  147.5620 C   0  0  0  0  0  2  0  0  0  0  0  0
  162.3510  208.5900  149.5570 N   0  0  0  0  0  0  0  0  0  0  0  0
  160.8960  206.6350  149.9240 C   0  0  0  0  0  2  0  0  0  0  0  0
  160.6080  205.9570  148.5910 C   0  0  1  0  0  3  0  0  0  0  0  0
  162.3250  207.1840  150.0870 C   0  0  1  0  0  3  0  0  0  0  0  0
  163.1100  207.4500  148.9630 C   0  0  1  0  0  3  0  0  0  0  0  0
  161.0750  206.8580  147.4650 C   0  0  0  0  0  2  0  0  0  0  0  0
  161.2390  204.5700  148.5070 C   0  0  0  0  0  2  0  0  0  0  0  0
  160.6950  203.7910  147.3090 C   0  0  2  0  0  3  0  0  0  0  0  0
  160.7600  202.4260  147.5820 O   0  0  0  0  0  1  0  0  0  0  0  0
  162.9290  204.1320  145.9720 C   0  0  0  0  0  1  0  0  0  0  0  0
  161.4840  205.3250  143.9410 O   0  0  0  0  0  1  0  0  0  0  0  0
  160.9180  203.3220  144.9020 O   0  0  0  0  0  0  0  0  0  0  0  0
  161.4090  204.0820  145.9790 C   0  0  1  0  0  0  0  0  0  0  0  0
  160.6420  204.7080  144.8680 C   0  0  1  0  0  3  0  0  0  0  0  0
  161.4620  209.7940  152.0450 C   0  0  1  0  0  3  0  0  0  0  0  0
  161.4370  210.7240  153.2180 C   0  0  0  0  0  2  0  0  0  0  0  0
  160.1110  209.3830  152.4040 N   0  0  0  0  0  2  0  0  0  0  0  0
  160.0840  210.2680  153.5030 N   0  0  0  0  0  0  0  0  0  0  0  0
  160.0250  211.3160  156.1000 O   0  0  0  0  0  0  0  0  0  0  0  0
  160.0840  210.0640  155.9680 C   0  0  0  0  0  0  0  0  0  0  0  0
  160.1370  209.4800  154.6640 N   0  0  0  0  0  2  0  0  0  0  0  0
  160.2310  207.7300  156.7600 C   0  0  0  0  0  2  0  0  0  0  0  0
  161.4830  208.4530  157.2020 C   0  0  0  0  0  2  0  0  0  0  0  0
  160.1540  209.1890  157.1760 C   0  0  0  0  0  3  0  0  0  0  0  0
  161.6500  212.7930  147.0750 C   0  0  0  0  0  2  0  0  0  0  0  0
  160.6310  213.7820  147.0840 O   0  0  0  0  0  0  0  0  0  0  0  0
  159.1870  212.5800  145.7440 O   0  0  0  0  0  0  0  0  0  0  0  0
  159.3700  213.5450  146.5360 C   0  0  0  0  0  0  0  0  0  0  0  0
  158.2850  214.4050  146.8880 N   0  0  0  0  0  2  0  0  0  0  0  0
  156.9500  214.2530  146.3300 C   0  0  0  0  0  2  0  0  0  0  0  0
  155.9220  214.2210  147.4450 C   0  0  0  0  0  2  0  0  0  0  0  0
  156.6290  214.2320  148.7830 C   0  0  0  0  0  2  0  0  0  0  0  0
  155.6020  214.2390  149.8960 C   0  0  0  0  0  1  0  0  0  0  0  0
  1  5  1  0  0  0  0
  2  4  1  0  0  0  0
  2  1  2  0  0  0  0
  4  6  2  0  0  0  0
  5  3  2  0  0  0  0
  6  3  1  0  0  0  0
  8  6  1  0  0  0  0
  8 11  1  0  0  0  0
 10 14  1  1  0  0  0
 10  9  1  0  0  0  0
 11  9  1  6  0  0  0
 12  7  1  6  0  0  0
 12  8  1  0  0  0  0
 12 11  1  0  0  0  0
 13  7  1  0  0  0  0
 13 10  1  0  0  0  0
 15 16  1  1  0  0  0
 15 14  1  0  0  0  0
 19 20  1  0  0  0  0
 20 17  1  1  0  0  0
 20 15  1  0  0  0  0
 21 18  1  6  0  0  0
 21 19  1  0  0  0  0
 21 20  1  0  0  0  0
 22  3  1  6  0  0  0
 22 24  1  0  0  0  0
 22 23  1  0  0  0  0
 23 25  1  0  0  0  0
 24 25  1  0  0  0  0
 25 28  1  0  0  0  0
 27 26  2  0  0  0  0
 27 31  1  0  0  0  0
 28 27  1  0  0  0  0
 29 31  1  0  0  0  0
 29 30  1  0  0  0  0
 31 30  1  0  0  0  0
 32 33  1  0  0  0  0
 32  2  1  0  0  0  0
 34 35  2  0  0  0  0
 35 36  1  0  0  0  0
 35 33  1  0  0  0  0
 37 36  1  0  0  0  0
 37 38  1  0  0  0  0
 38 39  1  0  0  0  0
 39 40  1  0  0  0  0
M  END
>  <MODEL>
6

>  <REMARK>
 VINA RESULT:      -5.4      2.182      7.379
  Name = 
  13 active torsions:
  status: ('A' for Active; 'I' for Inactive)
    1  A    between atoms: C_2  and  C_10
    2  A    between atoms: C_4  and  C_14
    3  A    between atoms: C_4  and  C_36
    4  A    between atoms: C_8  and  C_17
    5  A    between atoms: C_9  and  C_23
    6  A    between atoms: C_9  and  N_33
    7  A    between atoms: N_12  and  C_22
    8  A    between atoms: C_14  and  C_30
    9  A    between atoms: C_15  and  C_37
   10  A    between atoms: C_17  and  O_34
   11  A    between atoms: C_18  and  O_34
   12  A    between atoms: C_19  and  C_23
   13  A    between atoms: N_27  and  N_38
                            x       y       z     vdW  Elec       q    Type
                         _______ _______ _______ _____ _____    ______ ____

>  <TORSDO>
F 13

$$$$
=
 OpenBabel11052410353D

 40 45  0  0  1  0  0  0  0  0999 V2000
  158.6630  213.7150  151.3070 C   0  0  0  0  0  3  0  0  0  0  0  0
  158.6160  212.7980  152.3590 C   0  0  0  0  0  0  0  0  0  0  0  0
  160.5520  212.5210  150.3390 C   0  0  0  0  0  0  0  0  0  0  0  0
  159.5330  211.7460  152.4080 C   0  0  0  0  0  3  0  0  0  0  0  0
  159.6210  213.5730  150.3010 C   0  0  0  0  0  3  0  0  0  0  0  0
  160.4970  211.5990  151.4050 C   0  0  0  0  0  0  0  0  0  0  0  0
  162.1090  208.9670  149.6490 C   0  0  0  0  0  2  0  0  0  0  0  0
  161.4200  210.5150  151.4900 N   0  0  0  0  0  0  0  0  0  0  0  0
  160.9200  208.2180  152.2270 C   0  0  0  0  0  2  0  0  0  0  0  0
  160.8490  207.2980  151.0150 C   0  0  1  0  0  3  0  0  0  0  0  0
  162.0060  209.3070  152.1630 C   0  0  1  0  0  3  0  0  0  0  0  0
  162.5400  209.6980  150.9340 C   0  0  1  0  0  3  0  0  0  0  0  0
  160.8330  208.1390  149.7540 C   0  0  0  0  0  2  0  0  0  0  0  0
  161.9860  206.2800  151.0040 C   0  0  0  0  0  2  0  0  0  0  0  0
  161.4440  204.8520  151.0670 C   0  0  2  0  0  3  0  0  0  0  0  0
  162.3210  204.0600  151.8070 O   0  0  0  0  0  1  0  0  0  0  0  0
  160.7010  202.7610  149.6620 C   0  0  0  0  0  1  0  0  0  0  0  0
  161.9090  203.8750  147.4400 O   0  0  0  0  0  1  0  0  0  0  0  0
  160.4660  205.0120  148.8120 O   0  0  0  0  0  0  0  0  0  0  0  0
  161.1960  204.1990  149.6970 C   0  0  1  0  0  0  0  0  0  0  0  0
  161.8250  204.7960  148.4880 C   0  0  1  0  0  3  0  0  0  0  0  0
  161.5740  212.3470  149.2430 C   0  0  1  0  0  3  0  0  0  0  0  0
  160.9060  211.9590  147.9600 C   0  0  0  0  0  2  0  0  0  0  0  0
  161.9300  213.6140  148.6170 N   0  0  0  0  0  2  0  0  0  0  0  0
  161.2900  213.2520  147.4130 N   0  0  0  0  0  0  0  0  0  0  0  0
  161.2790  214.3540  144.8370 O   0  0  0  0  0  0  0  0  0  0  0  0
  162.2570  213.6310  145.1680 C   0  0  0  0  0  0  0  0  0  0  0  0
  162.3010  213.0290  146.4640 N   0  0  0  0  0  2  0  0  0  0  0  0
  162.7590  213.1150  142.8070 C   0  0  0  0  0  2  0  0  0  0  0  0
  163.3820  214.4530  143.1350 C   0  0  0  0  0  2  0  0  0  0  0  0
  163.3480  213.3560  144.1850 C   0  0  0  0  0  3  0  0  0  0  0  0
  157.6140  212.9640  153.4450 C   0  0  0  0  0  2  0  0  0  0  0  0
  157.4370  211.7290  154.1240 O   0  0  0  0  0  0  0  0  0  0  0  0
  157.1430  211.9550  156.4010 O   0  0  0  0  0  0  0  0  0  0  0  0
  157.8530  211.5470  155.4430 C   0  0  0  0  0  0  0  0  0  0  0  0
  159.0960  210.8870  155.6950 N   0  0  0  0  0  2  0  0  0  0  0  0
  159.6230  210.6950  157.0380 C   0  0  0  0  0  2  0  0  0  0  0  0
  160.8650  209.8260  156.9870 C   0  0  0  0  0  2  0  0  0  0  0  0
  161.7920  210.3320  155.9030 C   0  0  0  0  0  2  0  0  0  0  0  0
  163.1050  210.7620  156.5210 C   0  0  0  0  0  1  0  0  0  0  0  0
  1  2  1  0  0  0  0
  2  4  2  0  0  0  0
  2 32  1  0  0  0  0
  3  6  2  0  0  0  0
  5  3  1  0  0  0  0
  5  1  2  0  0  0  0
  6  8  1  0  0  0  0
  6  4  1  0  0  0  0
  7 13  1  0  0  0  0
  8 11  1  0  0  0  0
 10 14  1  6  0  0  0
 10  9  1  0  0  0  0
 11  9  1  6  0  0  0
 12  7  1  6  0  0  0
 12  8  1  0  0  0  0
 12 11  1  0  0  0  0
 13 10  1  0  0  0  0
 14 15  1  0  0  0  0
 15 16  1  6  0  0  0
 19 20  1  0  0  0  0
 20 17  1  6  0  0  0
 20 15  1  0  0  0  0
 21 18  1  6  0  0  0
 21 19  1  0  0  0  0
 21 20  1  0  0  0  0
 22  3  1  1  0  0  0
 23 22  1  0  0  0  0
 24 22  1  0  0  0  0
 25 23  1  0  0  0  0
 25 24  1  0  0  0  0
 26 27  2  0  0  0  0
 27 28  1  0  0  0  0
 28 25  1  0  0  0  0
 29 30  1  0  0  0  0
 29 31  1  0  0  0  0
 30 31  1  0  0  0  0
 31 27  1  0  0  0  0
 32 33  1  0  0  0  0
 33 35  1  0  0  0  0
 35 36  1  0  0  0  0
 35 34  2  0  0  0  0
 36 37  1  0  0  0  0
 38 37  1  0  0  0  0
 39 40  1  0  0  0  0
 39 38  1  0  0  0  0
M  END
>  <MODEL>
7

>  <REMARK>
 VINA RESULT:      -5.2      1.827      2.526
  Name = 
  13 active torsions:
  status: ('A' for Active; 'I' for Inactive)
    1  A    between atoms: C_2  and  C_10
    2  A    between atoms: C_4  and  C_14
    3  A    between atoms: C_4  and  C_36
    4  A    between atoms: C_8  and  C_17
    5  A    between atoms: C_9  and  C_23
    6  A    between atoms: C_9  and  N_33
    7  A    between atoms: N_12  and  C_22
    8  A    between atoms: C_14  and  C_30
    9  A    between atoms: C_15  and  C_37
   10  A    between atoms: C_17  and  O_34
   11  A    between atoms: C_18  and  O_34
   12  A    between atoms: C_19  and  C_23
   13  A    between atoms: N_27  and  N_38
                            x       y       z     vdW  Elec       q    Type
                         _______ _______ _______ _____ _____    ______ ____

>  <TORSDO>
F 13

$$$$
=
 OpenBabel11052410353D

 40 45  0  0  1  0  0  0  0  0999 V2000
  160.7330  213.2770  149.0240 C   0  0  0  0  0  3  0  0  0  0  0  0
  161.5430  212.4020  148.2960 C   0  0  0  0  0  0  0  0  0  0  0  0
  160.7560  211.7400  150.9120 C   0  0  0  0  0  0  0  0  0  0  0  0
  161.9580  211.1980  148.8680 C   0  0  0  0  0  3  0  0  0  0  0  0
  160.3480  212.9500  150.3250 C   0  0  0  0  0  3  0  0  0  0  0  0
  161.5730  210.8620  150.1710 C   0  0  0  0  0  0  0  0  0  0  0  0
  162.7800  207.5980  149.4690 C   0  0  0  0  0  2  0  0  0  0  0  0
  162.0110  209.6220  150.7220 N   0  0  0  0  0  0  0  0  0  0  0  0
  160.5820  207.7360  151.4100 C   0  0  0  0  0  2  0  0  0  0  0  0
  160.6580  206.6320  150.3650 C   0  0  1  0  0  3  0  0  0  0  0  0
  161.9040  208.4740  151.6850 C   0  0  1  0  0  3  0  0  0  0  0  0
  162.9350  208.4480  150.7430 C   0  0  1  0  0  3  0  0  0  0  0  0
  161.3590  207.1640  149.1300 C   0  0  0  0  0  2  0  0  0  0  0  0
  161.3390  205.3780  150.9080 C   0  0  0  0  0  2  0  0  0  0  0  0
  160.4390  204.1530  150.7500 C   0  0  2  0  0  3  0  0  0  0  0  0
  160.4560  203.4150  151.9330 O   0  0  0  0  0  1  0  0  0  0  0  0
  161.5810  203.8340  148.4070 C   0  0  0  0  0  1  0  0  0  0  0  0
  160.1590  201.4870  148.0780 O   0  0  0  0  0  1  0  0  0  0  0  0
  161.3500  202.0030  149.9680 O   0  0  0  0  0  0  0  0  0  0  0  0
  160.8050  203.2360  149.5710 C   0  0  1  0  0  0  0  0  0  0  0  0
  160.0620  201.9610  149.3880 C   0  0  1  0  0  3  0  0  0  0  0  0
  160.3620  211.3910  152.3270 C   0  0  1  0  0  3  0  0  0  0  0  0
  159.8400  212.6010  153.0380 C   0  0  0  0  0  2  0  0  0  0  0  0
  159.0210  210.8280  152.4020 N   0  0  0  0  0  2  0  0  0  0  0  0
  158.5270  211.9740  153.0620 N   0  0  0  0  0  0  0  0  0  0  0  0
  156.6040  213.2170  154.6760 O   0  0  0  0  0  0  0  0  0  0  0  0
  157.2530  212.2530  155.1640 C   0  0  0  0  0  0  0  0  0  0  0  0
  158.2590  211.5970  154.3880 N   0  0  0  0  0  2  0  0  0  0  0  0
  155.9520  212.7150  157.2100 C   0  0  0  0  0  2  0  0  0  0  0  0
  155.5810  211.3330  156.7230 C   0  0  0  0  0  2  0  0  0  0  0  0
  157.0090  211.8280  156.5750 C   0  0  0  0  0  3  0  0  0  0  0  0
  161.9320  212.7370  146.9000 C   0  0  0  0  0  2  0  0  0  0  0  0
  160.7650  212.8810  146.1020 O   0  0  0  0  0  0  0  0  0  0  0  0
  159.9490  214.0220  144.2700 O   0  0  0  0  0  0  0  0  0  0  0  0
  160.8330  213.2700  144.7640 C   0  0  0  0  0  0  0  0  0  0  0  0
  161.9220  212.8100  143.9600 N   0  0  0  0  0  2  0  0  0  0  0  0
  162.0450  213.1350  142.5470 C   0  0  0  0  0  2  0  0  0  0  0  0
  161.9620  211.8690  141.7150 C   0  0  0  0  0  2  0  0  0  0  0  0
  161.1350  212.1330  140.4750 C   0  0  0  0  0  2  0  0  0  0  0  0
  161.2510  213.5940  140.0930 C   0  0  0  0  0  1  0  0  0  0  0  0
  1  5  1  0  0  0  0
  2  4  1  0  0  0  0
  2  1  2  0  0  0  0
  4  6  2  0  0  0  0
  5  3  2  0  0  0  0
  6  8  1  0  0  0  0
  6  3  1  0  0  0  0
  8 12  1  0  0  0  0
  8 11  1  0  0  0  0
 10 14  1  1  0  0  0
 10  9  1  0  0  0  0
 11  9  1  6  0  0  0
 12  7  1  6  0  0  0
 12 11  1  0  0  0  0
 13  7  1  0  0  0  0
 13 10  1  0  0  0  0
 15 14  1  0  0  0  0
 15 16  1  1  0  0  0
 20 17  1  6  0  0  0
 20 19  1  0  0  0  0
 20 15  1  0  0  0  0
 21 18  1  6  0  0  0
 21 20  1  0  0  0  0
 21 19  1  0  0  0  0
 22  3  1  6  0  0  0
 22 24  1  0  0  0  0
 22 23  1  0  0  0  0
 23 25  1  0  0  0  0
 24 25  1  0  0  0  0
 25 28  1  0  0  0  0
 26 27  2  0  0  0  0
 27 31  1  0  0  0  0
 28 27  1  0  0  0  0
 30 29  1  0  0  0  0
 31 30  1  0  0  0  0
 31 29  1  0  0  0  0
 32  2  1  0  0  0  0
 33 32  1  0  0  0  0
 34 35  2  0  0  0  0
 35 33  1  0  0  0  0
 36 35  1  0  0  0  0
 37 36  1  0  0  0  0
 38 37  1  0  0  0  0
 39 38  1  0  0  0  0
 40 39  1  0  0  0  0
M  END
>  <MODEL>
8

>  <REMARK>
 VINA RESULT:      -5.2      2.621      8.535
  Name = 
  13 active torsions:
  status: ('A' for Active; 'I' for Inactive)
    1  A    between atoms: C_2  and  C_10
    2  A    between atoms: C_4  and  C_14
    3  A    between atoms: C_4  and  C_36
    4  A    between atoms: C_8  and  C_17
    5  A    between atoms: C_9  and  C_23
    6  A    between atoms: C_9  and  N_33
    7  A    between atoms: N_12  and  C_22
    8  A    between atoms: C_14  and  C_30
    9  A    between atoms: C_15  and  C_37
   10  A    between atoms: C_17  and  O_34
   11  A    between atoms: C_18  and  O_34
   12  A    between atoms: C_19  and  C_23
   13  A    between atoms: N_27  and  N_38
                            x       y       z     vdW  Elec       q    Type
                         _______ _______ _______ _____ _____    ______ ____

>  <TORSDO>
F 13

$$$$
=
 OpenBabel11052410353D

 40 45  0  0  1  0  0  0  0  0999 V2000
  160.5180  212.2090  152.0470 C   0  0  0  0  0  3  0  0  0  0  0  0
  160.5440  211.0140  152.7690 C   0  0  0  0  0  0  0  0  0  0  0  0
  161.5460  211.0910  150.1430 C   0  0  0  0  0  0  0  0  0  0  0  0
  161.0710  209.8600  152.1870 C   0  0  0  0  0  3  0  0  0  0  0  0
  161.0110  212.2450  150.7410 C   0  0  0  0  0  3  0  0  0  0  0  0
  161.5690  209.8890  150.8790 C   0  0  0  0  0  0  0  0  0  0  0  0
  160.9600  207.1130  148.7510 C   0  0  0  0  0  2  0  0  0  0  0  0
  162.1040  208.6920  150.3180 N   0  0  0  0  0  0  0  0  0  0  0  0
  162.1230  206.4620  151.3670 C   0  0  0  0  0  2  0  0  0  0  0  0
  161.0500  205.5900  150.7290 C   0  0  1  0  0  3  0  0  0  0  0  0
  162.8680  207.4010  150.4010 C   0  0  1  0  0  3  0  0  0  0  0  0
  162.2960  207.7490  149.1760 C   0  0  1  0  0  3  0  0  0  0  0  0
  160.1540  206.4570  149.8670 C   0  0  0  0  0  2  0  0  0  0  0  0
  161.6520  204.4320  149.9380 C   0  0  0  0  0  2  0  0  0  0  0  0
  160.5600  203.6090  149.2530 C   0  0  2  0  0  3  0  0  0  0  0  0
  159.9310  202.8030  150.2010 O   0  0  0  0  0  1  0  0  0  0  0  0
  161.5150  203.4320  146.8140 C   0  0  0  0  0  1  0  0  0  0  0  0
  160.7780  200.7680  146.7620 O   0  0  0  0  0  1  0  0  0  0  0  0
  161.9540  201.7330  148.4770 O   0  0  0  0  0  0  0  0  0  0  0  0
  161.0520  202.7380  148.0860 C   0  0  1  0  0  0  0  0  0  0  0  0
  160.6790  201.2980  148.0510 C   0  0  1  0  0  3  0  0  0  0  0  0
  162.0580  211.1170  148.7240 C   0  0  1  0  0  3  0  0  0  0  0  0
  161.1870  211.9860  147.8690 C   0  0  0  0  0  2  0  0  0  0  0  0
  163.1250  212.0920  148.5420 N   0  0  0  0  0  2  0  0  0  0  0  0
  162.3000  212.9160  147.7460 N   0  0  0  0  0  0  0  0  0  0  0  0
  160.8570  213.7590  145.4980 O   0  0  0  0  0  0  0  0  0  0  0  0
  162.0140  213.2910  145.3180 C   0  0  0  0  0  0  0  0  0  0  0  0
  162.7840  212.8290  146.4300 N   0  0  0  0  0  2  0  0  0  0  0  0
  162.3110  214.4510  143.1590 C   0  0  0  0  0  2  0  0  0  0  0  0
  163.6820  214.1750  143.7330 C   0  0  0  0  0  2  0  0  0  0  0  0
  162.5620  213.1690  143.9340 C   0  0  0  0  0  3  0  0  0  0  0  0
  160.0450  210.9810  154.1700 C   0  0  0  0  0  2  0  0  0  0  0  0
  158.6420  211.2040  154.1810 O   0  0  0  0  0  0  0  0  0  0  0  0
  158.2070  213.2760  155.1000 O   0  0  0  0  0  0  0  0  0  0  0  0
  158.1010  212.4890  154.1210 C   0  0  0  0  0  0  0  0  0  0  0  0
  157.4290  212.9050  152.9290 N   0  0  0  0  0  2  0  0  0  0  0  0
  156.8020  214.2110  152.7990 C   0  0  0  0  0  2  0  0  0  0  0  0
  155.2930  214.0600  152.7550 C   0  0  0  0  0  2  0  0  0  0  0  0
  154.8350  213.9890  151.3140 C   0  0  0  0  0  2  0  0  0  0  0  0
  155.9550  214.4510  150.4050 C   0  0  0  0  0  1  0  0  0  0  0  0
  1  2  1  0  0  0  0
  2 32  1  0  0  0  0
  3  5  1  0  0  0  0
  3  6  2  0  0  0  0
  4  2  2  0  0  0  0
  5  1  2  0  0  0  0
  6  4  1  0  0  0  0
  7 13  1  0  0  0  0
  8 11  1  0  0  0  0
  8  6  1  0  0  0  0
 10 14  1  6  0  0  0
 10  9  1  0  0  0  0
 11  9  1  1  0  0  0
 12  7  1  1  0  0  0
 12  8  1  0  0  0  0
 12 11  1  0  0  0  0
 13 10  1  0  0  0  0
 15 14  1  0  0  0  0
 15 16  1  1  0  0  0
 20 17  1  6  0  0  0
 20 19  1  0  0  0  0
 20 15  1  0  0  0  0
 21 18  1  6  0  0  0
 21 20  1  0  0  0  0
 21 19  1  0  0  0  0
 22  3  1  1  0  0  0
 23 22  1  0  0  0  0
 24 22  1  0  0  0  0
 25 23  1  0  0  0  0
 25 24  1  0  0  0  0
 27 26  2  0  0  0  0
 27 28  1  0  0  0  0
 28 25  1  0  0  0  0
 29 30  1  0  0  0  0
 29 31  1  0  0  0  0
 30 31  1  0  0  0  0
 31 27  1  0  0  0  0
 32 33  1  0  0  0  0
 35 33  1  0  0  0  0
 35 34  2  0  0  0  0
 36 35  1  0  0  0  0
 37 36  1  0  0  0  0
 38 37  1  0  0  0  0
 39 38  1  0  0  0  0
 40 39  1  0  0  0  0
M  END
>  <MODEL>
9

>  <REMARK>
 VINA RESULT:      -4.5      2.086      3.503
  Name = 
  13 active torsions:
  status: ('A' for Active; 'I' for Inactive)
    1  A    between atoms: C_2  and  C_10
    2  A    between atoms: C_4  and  C_14
    3  A    between atoms: C_4  and  C_36
    4  A    between atoms: C_8  and  C_17
    5  A    between atoms: C_9  and  C_23
    6  A    between atoms: C_9  and  N_33
    7  A    between atoms: N_12  and  C_22
    8  A    between atoms: C_14  and  C_30
    9  A    between atoms: C_15  and  C_37
   10  A    between atoms: C_17  and  O_34
   11  A    between atoms: C_18  and  O_34
   12  A    between atoms: C_19  and  C_23
   13  A    between atoms: N_27  and  N_38
                            x       y       z     vdW  Elec       q    Type
                         _______ _______ _______ _____ _____    ______ ____

>  <TORSDO>
F 13

$$$$
