=
 OpenBabel11052412163D

 41 44  0  0  1  0  0  0  0  0999 V2000
  161.4030  210.5690  151.4590 C   0  0  0  0  0  3  0  0  0  0  0  0
  161.6550  207.8200  152.0850 C   0  0  0  0  0  0  0  0  0  0  0  0
  161.8930  209.6550  150.5080 C   0  0  0  0  0  3  0  0  0  0  0  0
  160.5050  211.0060  153.7750 C   0  0  0  0  0  0  0  0  0  0  0  0
  162.0460  208.2890  150.8120 C   0  0  0  0  0  0  0  0  0  0  0  0
  161.6600  206.4410  152.4660 C   0  0  0  0  0  3  0  0  0  0  0  0
  161.2180  206.0330  153.7600 C   0  0  0  0  0  3  0  0  0  0  0  0
  161.1850  208.7700  153.0160 C   0  0  0  0  0  0  0  0  0  0  0  0
  160.7890  207.0410  154.6300 C   0  0  0  0  0  0  0  0  0  0  0  0
  159.9400  208.2320  156.2370 N   0  0  0  0  0  0  0  0  0  0  0  0
  161.0440  210.1440  152.7450 C   0  0  0  0  0  0  0  0  0  0  0  0
  160.1010  210.4470  155.0310 C   0  0  2  0  0  3  0  0  0  0  0  0
  160.2610  206.9800  155.8740 N   0  0  0  0  0  0  0  0  0  0  0  0
  160.2730  209.0600  155.2140 C   0  0  0  0  0  0  0  0  0  0  0  0
  160.7990  208.3200  154.2370 C   0  0  0  0  0  0  0  0  0  0  0  0
  161.8040  207.0170  148.6260 C   0  0  0  0  0  0  0  0  0  0  0  0
  160.5550  207.1860  148.5810 O   0  0  0  0  0  0  0  0  0  0  0  0
  162.5370  207.4140  149.7870 N   0  0  0  0  0  2  0  0  0  0  0  0
  163.1650  204.7780  145.8990 C   0  0  0  0  0  1  0  0  0  0  0  0
  162.5090  206.3830  147.5470 N   0  0  0  0  0  0  0  0  0  0  0  0
  162.2810  205.2120  147.0220 C   0  0  0  0  0  0  0  0  0  0  0  0
  161.1640  204.3270  147.5090 C   0  0  0  0  0  2  0  0  0  0  0  0
  161.6400  202.9990  148.0840 C   0  0  0  0  0  2  0  0  0  0  0  0
  160.6390  202.4700  149.1010 C   0  0  1  0  0  3  0  0  0  0  0  0
  160.8210  200.9730  149.3010 C   0  0  0  0  0  1  0  0  0  0  0  0
  160.2210  204.4730  150.5990 N   0  0  0  0  0  1  0  0  0  0  0  0
  160.7990  203.1860  150.4010 C   0  0  0  0  0  0  0  0  0  0  0  0
  161.4450  202.6430  151.3350 O   0  0  0  0  0  0  0  0  0  0  0  0
  158.1740  211.3100  156.3470 C   0  0  0  0  0  1  0  0  0  0  0  0
  159.5540  211.2850  156.0120 O   0  0  0  0  0  0  0  0  0  0  0  0
  160.3310  212.3900  153.6140 O   0  0  0  0  0  0  0  0  0  0  0  0
  159.0960  213.0350  153.3440 C   0  0  0  0  0  2  0  0  0  0  0  0
  158.4340  212.3700  152.1580 C   0  0  0  0  0  2  0  0  0  0  0  0
  158.2720  213.3760  151.0360 C   0  0  0  0  0  2  0  0  0  0  0  0
  159.6470  213.7900  150.5330 C   0  0  0  0  0  2  0  0  0  0  0  0
  159.7590  213.7350  149.0080 C   0  0  2  0  0  3  0  0  0  0  0  0
  158.4140  213.4100  148.3740 C   0  0  0  0  0  2  0  0  0  0  0  0
  158.6050  212.8680  146.9690 C   0  0  0  0  0  1  0  0  0  0  0  0
  160.8430  212.7590  148.5480 C   0  0  0  0  0  2  0  0  0  0  0  0
  162.1340  213.4930  148.2110 C   0  0  0  0  0  2  0  0  0  0  0  0
  163.2610  212.5080  147.9540 C   0  0  0  0  0  1  0  0  0  0  0  0
  1 11  1  0  0  0  0
  2  6  1  0  0  0  0
  2  8  1  0  0  0  0
  3  5  1  0  0  0  0
  3  1  2  0  0  0  0
  4 12  1  0  0  0  0
  5  2  2  0  0  0  0
  6  7  2  0  0  0  0
  7  9  1  0  0  0  0
  8 15  2  0  0  0  0
  9 13  2  0  0  0  0
 11  8  1  0  0  0  0
 11  4  2  0  0  0  0
 12 14  1  0  0  0  0
 12 30  1  6  0  0  0
 13 10  1  0  0  0  0
 14 10  2  0  0  0  0
 15  9  1  0  0  0  0
 15 14  1  0  0  0  0
 16 18  1  0  0  0  0
 17 16  2  0  0  0  0
 18  5  1  0  0  0  0
 19 21  1  0  0  0  0
 20 16  1  0  0  0  0
 21 22  1  0  0  0  0
 21 20  2  0  0  0  0
 22 23  1  0  0  0  0
 23 24  1  0  0  0  0
 24 25  1  1  0  0  0
 24 27  1  0  0  0  0
 27 26  1  0  0  0  0
 27 28  2  0  0  0  0
 30 29  1  0  0  0  0
 31  4  1  0  0  0  0
 32 31  1  0  0  0  0
 33 32  1  0  0  0  0
 34 33  1  0  0  0  0
 35 34  1  0  0  0  0
 36 37  1  6  0  0  0
 36 35  1  0  0  0  0
 38 37  1  0  0  0  0
 39 36  1  0  0  0  0
 40 39  1  0  0  0  0
 41 40  1  0  0  0  0
M  END
>  <MODEL>
1

>  <REMARK>
 VINA RESULT:      -7.7      0.000      0.000
  Name = 
  16 active torsions:
  status: ('A' for Active; 'I' for Inactive)
    1  A    between atoms: C_4  and  C_25
    2  A    between atoms: C_4  and  C_41
    3  A    between atoms: C_5  and  C_36
    4  A    between atoms: C_7  and  C_27
    5  A    between atoms: C_8  and  C_15
    6  A    between atoms: C_8  and  C_40
    7  A    between atoms: C_9  and  C_27
    8  A    between atoms: C_9  and  C_41
    9  A    between atoms: C_12  and  O_17
   10  A    between atoms: C_13  and  N_29
   11  A    between atoms: C_15  and  C_23
   12  A    between atoms: C_16  and  N_24
   13  A    between atoms: O_17  and  C_25
   14  A    between atoms: C_27  and  C_36
   15  A    between atoms: O_28  and  C_32
   16  A    between atoms: C_33  and  C_40
                            x       y       z     vdW  Elec       q    Type
                         _______ _______ _______ _____ _____    ______ ____

>  <TORSDO>
F 16

$$$$
=
 OpenBabel11052412163D

 41 44  0  0  1  0  0  0  0  0999 V2000
  161.1160  206.4880  153.9290 C   0  0  0  0  0  3  0  0  0  0  0  0
  161.7030  206.4060  151.1610 C   0  0  0  0  0  0  0  0  0  0  0  0
  161.3320  205.2620  153.2730 C   0  0  0  0  0  3  0  0  0  0  0  0
  160.9900  209.0040  153.8200 C   0  0  0  0  0  0  0  0  0  0  0  0
  161.6020  205.2030  151.8930 C   0  0  0  0  0  0  0  0  0  0  0  0
  162.0830  206.4750  149.7830 C   0  0  0  0  0  3  0  0  0  0  0  0
  162.1990  207.7300  149.1130 C   0  0  0  0  0  3  0  0  0  0  0  0
  161.4630  207.6130  151.8500 C   0  0  1  0  0  3  0  0  0  0  0  0
  161.9230  208.8770  149.8640 C   0  0  0  0  0  0  0  0  0  0  0  0
  161.7060  210.8890  150.6560 N   0  0  0  0  0  0  0  0  0  0  0  0
  161.1700  207.6980  153.2240 C   0  0  0  0  0  0  0  0  0  0  0  0
  161.1420  210.1810  153.0140 C   0  0  0  0  0  0  0  0  0  0  0  0
  162.0040  210.1900  149.5480 N   0  0  0  0  0  0  0  0  0  0  0  0
  161.4420  210.0030  151.6490 C   0  0  0  0  0  0  0  0  0  0  0  0
  161.5710  208.7730  151.1510 C   0  0  0  0  0  0  0  0  0  0  0  0
  160.7980  202.9960  150.9250 C   0  0  0  0  0  0  0  0  0  0  0  0
  159.6280  203.1420  151.3740 O   0  0  0  0  0  0  0  0  0  0  0  0
  161.8250  203.9190  151.2970 N   0  0  0  0  0  2  0  0  0  0  0  0
  161.5090  200.5490  148.1320 C   0  0  0  0  0  1  0  0  0  0  0  0
  161.1380  201.8860  150.0800 N   0  0  0  0  0  0  0  0  0  0  0  0
  161.1020  201.8320  148.7790 C   0  0  0  0  0  0  0  0  0  0  0  0
  160.6820  203.0150  147.9460 C   0  0  0  0  0  2  0  0  0  0  0  0
  161.8510  203.8060  147.3700 C   0  0  0  0  0  2  0  0  0  0  0  0
  161.7530  203.8730  145.8530 C   0  0  1  0  0  3  0  0  0  0  0  0
  160.8170  202.7940  145.3310 C   0  0  0  0  0  1  0  0  0  0  0  0
  161.3740  205.6330  144.0670 N   0  0  0  0  0  1  0  0  0  0  0  0
  161.2730  205.2210  145.4270 C   0  0  0  0  0  0  0  0  0  0  0  0
  160.7650  205.9970  146.2780 O   0  0  0  0  0  0  0  0  0  0  0  0
  159.9860  212.3720  153.2370 C   0  0  0  0  0  1  0  0  0  0  0  0
  160.9940  211.4420  153.6060 O   0  0  0  0  0  0  0  0  0  0  0  0
  160.6850  209.2030  155.1760 O   0  0  0  0  0  0  0  0  0  0  0  0
  159.4890  209.7830  155.6710 C   0  0  0  0  0  2  0  0  0  0  0  0
  159.8150  210.6710  156.8520 C   0  0  0  0  0  2  0  0  0  0  0  0
  158.9560  211.9180  156.8020 C   0  0  0  0  0  2  0  0  0  0  0  0
  157.6320  211.5860  156.1290 C   0  0  0  0  0  2  0  0  0  0  0  0
  156.4240  211.9140  157.0110 C   0  0  2  0  0  3  0  0  0  0  0  0
  155.1790  211.1870  156.5230 C   0  0  0  0  0  2  0  0  0  0  0  0
  155.4870  210.3870  155.2710 C   0  0  0  0  0  1  0  0  0  0  0  0
  156.1850  213.4210  157.1180 C   0  0  0  0  0  2  0  0  0  0  0  0
  155.3560  213.9290  155.9460 C   0  0  0  0  0  2  0  0  0  0  0  0
  156.2540  214.4390  154.8330 C   0  0  0  0  0  1  0  0  0  0  0  0
  2  8  1  0  0  0  0
  2  5  1  0  0  0  0
  3  1  1  0  0  0  0
  4 31  1  0  0  0  0
  5  3  2  0  0  0  0
  6  2  2  0  0  0  0
  7  6  1  0  0  0  0
  7  9  2  0  0  0  0
  8 15  1  1  0  0  0
  8 11  1  0  0  0  0
  9 15  1  0  0  0  0
 10 14  1  0  0  0  0
 11  4  1  0  0  0  0
 11  1  2  0  0  0  0
 12 30  1  0  0  0  0
 12  4  2  0  0  0  0
 13  9  1  0  0  0  0
 13 10  2  0  0  0  0
 14 12  1  0  0  0  0
 15 14  2  0  0  0  0
 16 18  1  0  0  0  0
 16 17  2  0  0  0  0
 18  5  1  0  0  0  0
 19 21  1  0  0  0  0
 20 16  1  0  0  0  0
 21 20  2  0  0  0  0
 22 21  1  0  0  0  0
 23 22  1  0  0  0  0
 24 25  1  1  0  0  0
 24 23  1  0  0  0  0
 26 27  1  0  0  0  0
 27 24  1  0  0  0  0
 27 28  2  0  0  0  0
 29 30  1  0  0  0  0
 31 32  1  0  0  0  0
 32 33  1  0  0  0  0
 34 33  1  0  0  0  0
 35 34  1  0  0  0  0
 36 35  1  6  0  0  0
 36 39  1  0  0  0  0
 37 36  1  0  0  0  0
 38 37  1  0  0  0  0
 40 39  1  0  0  0  0
 41 40  1  0  0  0  0
M  END
>  <MODEL>
2

>  <REMARK>
 VINA RESULT:      -7.1      2.723      5.507
  Name = 
  16 active torsions:
  status: ('A' for Active; 'I' for Inactive)
    1  A    between atoms: C_4  and  C_25
    2  A    between atoms: C_4  and  C_41
    3  A    between atoms: C_5  and  C_36
    4  A    between atoms: C_7  and  C_27
    5  A    between atoms: C_8  and  C_15
    6  A    between atoms: C_8  and  C_40
    7  A    between atoms: C_9  and  C_27
    8  A    between atoms: C_9  and  C_41
    9  A    between atoms: C_12  and  O_17
   10  A    between atoms: C_13  and  N_29
   11  A    between atoms: C_15  and  C_23
   12  A    between atoms: C_16  and  N_24
   13  A    between atoms: O_17  and  C_25
   14  A    between atoms: C_27  and  C_36
   15  A    between atoms: O_28  and  C_32
   16  A    between atoms: C_33  and  C_40
                            x       y       z     vdW  Elec       q    Type
                         _______ _______ _______ _____ _____    ______ ____

>  <TORSDO>
F 16

$$$$
=
 OpenBabel11052412163D

 41 44  0  0  1  0  0  0  0  0999 V2000
  161.5920  208.3750  150.0710 C   0  0  0  0  0  3  0  0  0  0  0  0
  161.3640  206.6860  152.3310 C   0  0  0  0  0  0  0  0  0  0  0  0
  161.7590  206.9830  149.9510 C   0  0  0  0  0  3  0  0  0  0  0  0
  161.1100  210.3760  151.5280 C   0  0  0  0  0  0  0  0  0  0  0  0
  161.6720  206.1320  151.0690 C   0  0  0  0  0  0  0  0  0  0  0  0
  161.1400  205.9100  153.5120 C   0  0  0  0  0  3  0  0  0  0  0  0
  160.7970  206.5330  154.7490 C   0  0  0  0  0  3  0  0  0  0  0  0
  161.2210  208.0860  152.4130 C   0  0  0  0  0  0  0  0  0  0  0  0
  160.6970  207.9290  154.7490 C   0  0  0  0  0  0  0  0  0  0  0  0
  160.3230  210.0260  155.1790 N   0  0  0  0  0  0  0  0  0  0  0  0
  161.3250  208.9610  151.3160 C   0  0  0  0  0  0  0  0  0  0  0  0
  160.7680  210.8560  152.8350 C   0  0  2  0  0  3  0  0  0  0  0  0
  160.3340  208.7960  155.7210 N   0  0  0  0  0  0  0  0  0  0  0  0
  160.6790  209.9090  153.8750 C   0  0  0  0  0  0  0  0  0  0  0  0
  160.9130  208.6210  153.6240 C   0  0  0  0  0  0  0  0  0  0  0  0
  160.7730  203.7870  150.6820 C   0  0  0  0  0  0  0  0  0  0  0  0
  159.5910  204.1120  150.9800 O   0  0  0  0  0  0  0  0  0  0  0  0
  161.8390  204.7230  150.8670 N   0  0  0  0  0  2  0  0  0  0  0  0
  161.4610  200.6210  148.7340 C   0  0  0  0  0  1  0  0  0  0  0  0
  161.0850  202.4700  150.2030 N   0  0  0  0  0  0  0  0  0  0  0  0
  161.1010  202.0510  148.9700 C   0  0  0  0  0  0  0  0  0  0  0  0
  160.7850  202.9670  147.8150 C   0  0  0  0  0  2  0  0  0  0  0  0
  161.9700  203.8110  147.3600 C   0  0  0  0  0  2  0  0  0  0  0  0
  162.0030  203.9070  145.8420 C   0  0  1  0  0  3  0  0  0  0  0  0
  160.9180  203.0360  145.2280 C   0  0  0  0  0  1  0  0  0  0  0  0
  161.2680  205.6370  144.1390 N   0  0  0  0  0  1  0  0  0  0  0  0
  161.8270  205.3260  145.4130 C   0  0  0  0  0  0  0  0  0  0  0  0
  162.1690  206.2570  146.1870 O   0  0  0  0  0  0  0  0  0  0  0  0
  159.2670  212.8390  152.8480 C   0  0  0  0  0  1  0  0  0  0  0  0
  160.5340  212.2240  153.0260 O   0  0  0  0  0  0  0  0  0  0  0  0
  161.1990  211.3360  150.5070 O   0  0  0  0  0  0  0  0  0  0  0  0
  162.0210  211.2330  149.3540 C   0  0  0  0  0  2  0  0  0  0  0  0
  161.9410  212.5210  148.5670 C   0  0  0  0  0  2  0  0  0  0  0  0
  160.6680  213.2580  148.9280 C   0  0  0  0  0  2  0  0  0  0  0  0
  159.9680  213.7040  147.6520 C   0  0  0  0  0  2  0  0  0  0  0  0
  159.2360  212.5580  146.9500 C   0  0  2  0  0  3  0  0  0  0  0  0
  159.6020  212.5010  145.4730 C   0  0  0  0  0  2  0  0  0  0  0  0
  160.8290  213.3480  145.1960 C   0  0  0  0  0  1  0  0  0  0  0  0
  157.7220  212.6400  147.1470 C   0  0  0  0  0  2  0  0  0  0  0  0
  157.3400  213.8690  147.9610 C   0  0  0  0  0  2  0  0  0  0  0  0
  156.6570  213.4670  149.2560 C   0  0  0  0  0  1  0  0  0  0  0  0
  1 11  1  0  0  0  0
  2  8  1  0  0  0  0
  2  6  1  0  0  0  0
  3  1  2  0  0  0  0
  3  5  1  0  0  0  0
  4 12  1  0  0  0  0
  5  2  2  0  0  0  0
  6  7  2  0  0  0  0
  8 15  2  0  0  0  0
  9  7  1  0  0  0  0
  9 13  2  0  0  0  0
 10 13  1  0  0  0  0
 11  4  2  0  0  0  0
 11  8  1  0  0  0  0
 12 30  1  6  0  0  0
 12 14  1  0  0  0  0
 14 10  2  0  0  0  0
 15 14  1  0  0  0  0
 15  9  1  0  0  0  0
 16 18  1  0  0  0  0
 16 17  2  0  0  0  0
 18  5  1  0  0  0  0
 19 21  1  0  0  0  0
 20 16  1  0  0  0  0
 21 20  2  0  0  0  0
 22 21  1  0  0  0  0
 23 22  1  0  0  0  0
 24 25  1  6  0  0  0
 24 23  1  0  0  0  0
 26 27  1  0  0  0  0
 27 24  1  0  0  0  0
 27 28  2  0  0  0  0
 29 30  1  0  0  0  0
 31  4  1  0  0  0  0
 32 31  1  0  0  0  0
 33 34  1  0  0  0  0
 33 32  1  0  0  0  0
 35 34  1  0  0  0  0
 36 37  1  6  0  0  0
 36 39  1  0  0  0  0
 36 35  1  0  0  0  0
 38 37  1  0  0  0  0
 39 40  1  0  0  0  0
 40 41  1  0  0  0  0
M  END
>  <MODEL>
3

>  <REMARK>
 VINA RESULT:      -7.1      1.605      3.591
  Name = 
  16 active torsions:
  status: ('A' for Active; 'I' for Inactive)
    1  A    between atoms: C_4  and  C_25
    2  A    between atoms: C_4  and  C_41
    3  A    between atoms: C_5  and  C_36
    4  A    between atoms: C_7  and  C_27
    5  A    between atoms: C_8  and  C_15
    6  A    between atoms: C_8  and  C_40
    7  A    between atoms: C_9  and  C_27
    8  A    between atoms: C_9  and  C_41
    9  A    between atoms: C_12  and  O_17
   10  A    between atoms: C_13  and  N_29
   11  A    between atoms: C_15  and  C_23
   12  A    between atoms: C_16  and  N_24
   13  A    between atoms: O_17  and  C_25
   14  A    between atoms: C_27  and  C_36
   15  A    between atoms: O_28  and  C_32
   16  A    between atoms: C_33  and  C_40
                            x       y       z     vdW  Elec       q    Type
                         _______ _______ _______ _____ _____    ______ ____

>  <TORSDO>
F 16

$$$$
=
 OpenBabel11052412163D

 41 44  0  0  1  0  0  0  0  0999 V2000
  161.6150  208.3410  150.0000 C   0  0  0  0  0  3  0  0  0  0  0  0
  161.3820  206.7150  152.3060 C   0  0  0  0  0  0  0  0  0  0  0  0
  161.7850  206.9470  149.9200 C   0  0  0  0  0  3  0  0  0  0  0  0
  161.1250  210.3810  151.4000 C   0  0  0  0  0  0  0  0  0  0  0  0
  161.6950  206.1270  151.0600 C   0  0  0  0  0  0  0  0  0  0  0  0
  161.1560  205.9710  153.5070 C   0  0  0  0  0  3  0  0  0  0  0  0
  160.8080  206.6280  154.7250 C   0  0  0  0  0  3  0  0  0  0  0  0
  161.2370  208.1170  152.3490 C   0  0  0  0  0  0  0  0  0  0  0  0
  160.7050  208.0230  154.6850 C   0  0  0  0  0  0  0  0  0  0  0  0
  160.3260  210.1300  155.0570 N   0  0  0  0  0  0  0  0  0  0  0  0
  161.3440  208.9610  151.2270 C   0  0  0  0  0  0  0  0  0  0  0  0
  160.7790  210.8960  152.6920 C   0  0  2  0  0  3  0  0  0  0  0  0
  160.3380  208.9160  155.6320 N   0  0  0  0  0  0  0  0  0  0  0  0
  160.6880  209.9780  153.7570 C   0  0  0  0  0  0  0  0  0  0  0  0
  160.9250  208.6830  153.5430 C   0  0  0  0  0  0  0  0  0  0  0  0
  160.8050  203.7760  150.6930 C   0  0  0  0  0  0  0  0  0  0  0  0
  159.6130  204.1110  150.9370 O   0  0  0  0  0  0  0  0  0  0  0  0
  161.8660  204.7130  150.8980 N   0  0  0  0  0  2  0  0  0  0  0  0
  161.4840  200.5430  148.8540 C   0  0  0  0  0  1  0  0  0  0  0  0
  161.1310  202.4470  150.2580 N   0  0  0  0  0  0  0  0  0  0  0  0
  161.0940  201.9720  149.0450 C   0  0  0  0  0  0  0  0  0  0  0  0
  160.6890  202.8230  147.8700 C   0  0  0  0  0  2  0  0  0  0  0  0
  161.7880  203.7600  147.3840 C   0  0  0  0  0  2  0  0  0  0  0  0
  161.8360  203.7790  145.8630 C   0  0  1  0  0  3  0  0  0  0  0  0
  160.7820  202.8500  145.2830 C   0  0  0  0  0  1  0  0  0  0  0  0
  160.3440  205.5990  144.9160 N   0  0  0  0  0  1  0  0  0  0  0  0
  161.6290  205.1690  145.3590 C   0  0  0  0  0  0  0  0  0  0  0  0
  162.5980  205.9730  145.3350 O   0  0  0  0  0  0  0  0  0  0  0  0
  159.2450  212.8460  152.8690 C   0  0  0  0  0  1  0  0  0  0  0  0
  160.5420  212.2680  152.8440 O   0  0  0  0  0  0  0  0  0  0  0  0
  161.2160  211.3120  150.3530 O   0  0  0  0  0  0  0  0  0  0  0  0
  162.2520  211.3570  149.3830 C   0  0  0  0  0  2  0  0  0  0  0  0
  161.6840  211.8380  148.0670 C   0  0  0  0  0  2  0  0  0  0  0  0
  160.7400  212.9970  148.3150 C   0  0  0  0  0  2  0  0  0  0  0  0
  160.6360  213.8370  147.0500 C   0  0  0  0  0  2  0  0  0  0  0  0
  159.2370  213.7980  146.4300 C   0  0  2  0  0  3  0  0  0  0  0  0
  158.3410  212.8120  147.1650 C   0  0  0  0  0  2  0  0  0  0  0  0
  157.1240  212.4700  146.3250 C   0  0  0  0  0  1  0  0  0  0  0  0
  159.2850  213.4980  144.9300 C   0  0  0  0  0  2  0  0  0  0  0  0
  160.2240  212.3380  144.6320 C   0  0  0  0  0  2  0  0  0  0  0  0
  160.2600  212.0440  143.1420 C   0  0  0  0  0  1  0  0  0  0  0  0
  1 11  1  0  0  0  0
  2  8  1  0  0  0  0
  2  6  1  0  0  0  0
  3  1  2  0  0  0  0
  3  5  1  0  0  0  0
  4 12  1  0  0  0  0
  5  2  2  0  0  0  0
  6  7  2  0  0  0  0
  8 15  2  0  0  0  0
  9  7  1  0  0  0  0
  9 13  2  0  0  0  0
 10 13  1  0  0  0  0
 11  4  2  0  0  0  0
 11  8  1  0  0  0  0
 12 30  1  6  0  0  0
 12 14  1  0  0  0  0
 14 10  2  0  0  0  0
 15 14  1  0  0  0  0
 15  9  1  0  0  0  0
 16 18  1  0  0  0  0
 16 17  2  0  0  0  0
 18  5  1  0  0  0  0
 19 21  1  0  0  0  0
 20 16  1  0  0  0  0
 21 20  2  0  0  0  0
 22 21  1  0  0  0  0
 23 22  1  0  0  0  0
 24 25  1  6  0  0  0
 24 23  1  0  0  0  0
 26 27  1  0  0  0  0
 27 24  1  0  0  0  0
 28 27  2  0  0  0  0
 30 29  1  0  0  0  0
 31  4  1  0  0  0  0
 32 31  1  0  0  0  0
 33 34  1  0  0  0  0
 33 32  1  0  0  0  0
 35 34  1  0  0  0  0
 36 39  1  6  0  0  0
 36 35  1  0  0  0  0
 36 37  1  0  0  0  0
 38 37  1  0  0  0  0
 40 39  1  0  0  0  0
 41 40  1  0  0  0  0
M  END
>  <MODEL>
4

>  <REMARK>
 VINA RESULT:      -7.0      1.797      3.546
  Name = 
  16 active torsions:
  status: ('A' for Active; 'I' for Inactive)
    1  A    between atoms: C_4  and  C_25
    2  A    between atoms: C_4  and  C_41
    3  A    between atoms: C_5  and  C_36
    4  A    between atoms: C_7  and  C_27
    5  A    between atoms: C_8  and  C_15
    6  A    between atoms: C_8  and  C_40
    7  A    between atoms: C_9  and  C_27
    8  A    between atoms: C_9  and  C_41
    9  A    between atoms: C_12  and  O_17
   10  A    between atoms: C_13  and  N_29
   11  A    between atoms: C_15  and  C_23
   12  A    between atoms: C_16  and  N_24
   13  A    between atoms: O_17  and  C_25
   14  A    between atoms: C_27  and  C_36
   15  A    between atoms: O_28  and  C_32
   16  A    between atoms: C_33  and  C_40
                            x       y       z     vdW  Elec       q    Type
                         _______ _______ _______ _____ _____    ______ ____

>  <TORSDO>
F 16

$$$$
=
 OpenBabel11052412163D

 41 44  0  0  1  0  0  0  0  0999 V2000
  160.9700  206.4420  153.5690 C   0  0  0  0  0  3  0  0  0  0  0  0
  161.1440  209.1900  152.9070 C   0  0  0  0  0  0  0  0  0  0  0  0
  160.7090  207.4350  154.5320 C   0  0  0  0  0  3  0  0  0  0  0  0
  161.5980  205.8410  151.2020 C   0  0  0  0  0  0  0  0  0  0  0  0
  160.8130  208.8040  154.2250 C   0  0  0  0  0  0  0  0  0  0  0  0
  161.1690  210.5460  152.4520 C   0  0  0  0  0  3  0  0  0  0  0  0
  161.4780  210.8620  151.0960 C   0  0  0  0  0  3  0  0  0  0  0  0
  161.4150  208.1660  151.9750 C   0  0  0  0  0  0  0  0  0  0  0  0
  161.7560  209.7890  150.2420 C   0  0  0  0  0  0  0  0  0  0  0  0
  162.1310  208.4570  148.5670 N   0  0  0  0  0  0  0  0  0  0  0  0
  161.3390  206.7910  152.2630 C   0  0  0  0  0  0  0  0  0  0  0  0
  161.8950  206.3130  149.8810 C   0  0  0  0  0  0  0  0  0  0  0  0
  162.0140  209.7490  148.9150 N   0  0  0  0  0  0  0  0  0  0  0  0
  161.9440  207.7070  149.6820 C   0  0  0  0  0  0  0  0  0  0  0  0
  161.7220  208.5330  150.7040 C   0  0  2  0  0  3  0  0  0  0  0  0
  161.4420  210.7180  155.7730 C   0  0  0  0  0  0  0  0  0  0  0  0
  162.6770  210.5870  155.5530 O   0  0  0  0  0  0  0  0  0  0  0  0
  160.5180  209.7580  155.2540 N   0  0  0  0  0  2  0  0  0  0  0  0
  159.7660  213.7630  157.2610 C   0  0  0  0  0  1  0  0  0  0  0  0
  160.9390  211.7940  156.5810 N   0  0  0  0  0  0  0  0  0  0  0  0
  160.1440  212.7600  156.2210 C   0  0  0  0  0  0  0  0  0  0  0  0
  159.6060  212.8650  154.8180 C   0  0  0  0  0  2  0  0  0  0  0  0
  158.5680  213.9670  154.6400 C   0  0  0  0  0  2  0  0  0  0  0  0
  157.4860  213.5260  153.6650 C   0  0  1  0  0  3  0  0  0  0  0  0
  157.9720  212.3590  152.8190 C   0  0  0  0  0  1  0  0  0  0  0  0
  156.0780  211.8170  154.9010 N   0  0  0  0  0  1  0  0  0  0  0  0
  156.2490  213.1430  154.4070 C   0  0  0  0  0  0  0  0  0  0  0  0
  155.3520  214.0030  154.6070 O   0  0  0  0  0  0  0  0  0  0  0  0
  161.8870  205.6630  147.4800 C   0  0  0  0  0  1  0  0  0  0  0  0
  162.1160  205.3860  148.8540 O   0  0  0  0  0  0  0  0  0  0  0  0
  161.5580  204.4480  151.3810 O   0  0  0  0  0  0  0  0  0  0  0  0
  160.4730  203.6060  151.0250 C   0  0  0  0  0  2  0  0  0  0  0  0
  160.9080  202.1610  151.1270 C   0  0  0  0  0  2  0  0  0  0  0  0
  160.5300  201.4270  149.8560 C   0  0  0  0  0  2  0  0  0  0  0  0
  160.6610  202.3750  148.6730 C   0  0  0  0  0  2  0  0  0  0  0  0
  160.7940  201.6370  147.3380 C   0  0  2  0  0  3  0  0  0  0  0  0
  161.6200  200.3680  147.4960 C   0  0  0  0  0  2  0  0  0  0  0  0
  161.3680  199.4220  146.3370 C   0  0  0  0  0  1  0  0  0  0  0  0
  161.3610  202.5390  146.2400 C   0  0  0  0  0  2  0  0  0  0  0  0
  160.3150  202.8230  145.1700 C   0  0  0  0  0  2  0  0  0  0  0  0
  160.5130  204.2080  144.5790 C   0  0  0  0  0  1  0  0  0  0  0  0
  1  3  1  0  0  0  0
  2  5  1  0  0  0  0
  4 31  1  0  0  0  0
  4 11  1  0  0  0  0
  5  3  2  0  0  0  0
  5 18  1  0  0  0  0
  6  2  1  0  0  0  0
  7  6  2  0  0  0  0
  8 11  1  0  0  0  0
  8  2  2  0  0  0  0
  9 15  1  0  0  0  0
  9  7  1  0  0  0  0
 10 13  1  0  0  0  0
 10 14  2  0  0  0  0
 11  1  2  0  0  0  0
 12  4  2  0  0  0  0
 13  9  2  0  0  0  0
 14 12  1  0  0  0  0
 15 14  1  6  0  0  0
 15  8  1  0  0  0  0
 16 20  1  0  0  0  0
 17 16  2  0  0  0  0
 18 16  1  0  0  0  0
 21 20  2  0  0  0  0
 21 19  1  0  0  0  0
 22 21  1  0  0  0  0
 23 22  1  0  0  0  0
 24 25  1  1  0  0  0
 24 27  1  0  0  0  0
 24 23  1  0  0  0  0
 27 28  2  0  0  0  0
 27 26  1  0  0  0  0
 29 30  1  0  0  0  0
 30 12  1  0  0  0  0
 32 33  1  0  0  0  0
 32 31  1  0  0  0  0
 34 33  1  0  0  0  0
 35 34  1  0  0  0  0
 36 39  1  6  0  0  0
 36 37  1  0  0  0  0
 36 35  1  0  0  0  0
 38 37  1  0  0  0  0
 40 39  1  0  0  0  0
 41 40  1  0  0  0  0
M  END
>  <MODEL>
5

>  <REMARK>
 VINA RESULT:      -6.8      2.350      9.475
  Name = 
  16 active torsions:
  status: ('A' for Active; 'I' for Inactive)
    1  A    between atoms: C_4  and  C_25
    2  A    between atoms: C_4  and  C_41
    3  A    between atoms: C_5  and  C_36
    4  A    between atoms: C_7  and  C_27
    5  A    between atoms: C_8  and  C_15
    6  A    between atoms: C_8  and  C_40
    7  A    between atoms: C_9  and  C_27
    8  A    between atoms: C_9  and  C_41
    9  A    between atoms: C_12  and  O_17
   10  A    between atoms: C_13  and  N_29
   11  A    between atoms: C_15  and  C_23
   12  A    between atoms: C_16  and  N_24
   13  A    between atoms: O_17  and  C_25
   14  A    between atoms: C_27  and  C_36
   15  A    between atoms: O_28  and  C_32
   16  A    between atoms: C_33  and  C_40
                            x       y       z     vdW  Elec       q    Type
                         _______ _______ _______ _____ _____    ______ ____

>  <TORSDO>
F 16

$$$$
=
 OpenBabel11052412163D

 41 44  0  0  1  0  0  0  0  0999 V2000
  161.7030  208.0840  151.4130 C   0  0  0  0  0  3  0  0  0  0  0  0
  161.6940  207.6280  148.6180 C   0  0  0  0  0  0  0  0  0  0  0  0
  161.8810  209.1460  150.5070 C   0  0  0  0  0  3  0  0  0  0  0  0
  161.3170  205.6240  151.8070 C   0  0  0  0  0  0  0  0  0  0  0  0
  161.9020  208.9330  149.1160 C   0  0  0  0  0  0  0  0  0  0  0  0
  161.5830  207.3100  147.2280 C   0  0  0  0  0  3  0  0  0  0  0  0
  161.3370  205.9720  146.7960 C   0  0  0  0  0  3  0  0  0  0  0  0
  161.5370  206.5870  149.5570 C   0  0  0  0  0  0  0  0  0  0  0  0
  161.2160  204.9970  147.7910 C   0  0  0  0  0  0  0  0  0  0  0  0
  160.8480  203.2110  148.9730 N   0  0  0  0  0  0  0  0  0  0  0  0
  161.5350  206.7710  150.9530 C   0  0  0  0  0  0  0  0  0  0  0  0
  161.0800  204.3360  151.2230 C   0  0  2  0  0  3  0  0  0  0  0  0
  160.9240  203.6790  147.7160 N   0  0  0  0  0  0  0  0  0  0  0  0
  161.0940  204.2450  149.8170 C   0  0  0  0  0  0  0  0  0  0  0  0
  161.3260  205.3330  149.0820 C   0  0  0  0  0  0  0  0  0  0  0  0
  162.0080  211.4320  148.6730 C   0  0  0  0  0  0  0  0  0  0  0  0
  161.5000  211.7260  149.7900 O   0  0  0  0  0  0  0  0  0  0  0  0
  162.0730  210.0660  148.2550 N   0  0  0  0  0  2  0  0  0  0  0  0
  162.5270  214.1660  146.1130 C   0  0  0  0  0  1  0  0  0  0  0  0
  162.4830  212.4520  147.7800 N   0  0  0  0  0  0  0  0  0  0  0  0
  161.7900  213.1610  146.9360 C   0  0  0  0  0  0  0  0  0  0  0  0
  160.2990  212.9940  146.7930 C   0  0  0  0  0  2  0  0  0  0  0  0
  159.4990  214.2040  147.2610 C   0  0  0  0  0  2  0  0  0  0  0  0
  158.0240  213.8530  147.3840 C   0  0  1  0  0  3  0  0  0  0  0  0
  157.7040  212.6040  146.5760 C   0  0  0  0  0  1  0  0  0  0  0  0
  156.3010  213.6960  149.2380 N   0  0  0  0  0  1  0  0  0  0  0  0
  157.6620  213.6450  148.8170 C   0  0  0  0  0  0  0  0  0  0  0  0
  158.5670  213.4140  149.6600 O   0  0  0  0  0  0  0  0  0  0  0  0
  161.5930  202.0310  152.0070 C   0  0  0  0  0  1  0  0  0  0  0  0
  160.8420  203.2360  152.0580 O   0  0  0  0  0  0  0  0  0  0  0  0
  161.3040  205.6930  153.2100 O   0  0  0  0  0  0  0  0  0  0  0  0
  161.3590  206.8880  153.9730 C   0  0  0  0  0  2  0  0  0  0  0  0
  160.4580  206.7530  155.1790 C   0  0  0  0  0  2  0  0  0  0  0  0
  160.0290  208.1280  155.6490 C   0  0  0  0  0  2  0  0  0  0  0  0
  161.1770  209.1060  155.4490 C   0  0  0  0  0  2  0  0  0  0  0  0
  160.8820  210.4900  156.0330 C   0  0  2  0  0  3  0  0  0  0  0  0
  159.7090  210.4340  157.0010 C   0  0  0  0  0  2  0  0  0  0  0  0
  158.6580  211.4610  156.6220 C   0  0  0  0  0  1  0  0  0  0  0  0
  160.6560  211.5360  154.9410 C   0  0  0  0  0  2  0  0  0  0  0  0
  160.7460  210.9110  153.5560 C   0  0  0  0  0  2  0  0  0  0  0  0
  159.4340  211.0720  152.8070 C   0  0  0  0  0  1  0  0  0  0  0  0
  2  5  2  0  0  0  0
  2  8  1  0  0  0  0
  3  1  2  0  0  0  0
  4 31  1  0  0  0  0
  5  3  1  0  0  0  0
  6  2  1  0  0  0  0
  7  6  2  0  0  0  0
  7  9  1  0  0  0  0
  8 11  1  0  0  0  0
  9 15  1  0  0  0  0
 10 14  2  0  0  0  0
 11  1  1  0  0  0  0
 11  4  2  0  0  0  0
 12  4  1  0  0  0  0
 12 30  1  6  0  0  0
 13  9  2  0  0  0  0
 13 10  1  0  0  0  0
 14 12  1  0  0  0  0
 15  8  2  0  0  0  0
 15 14  1  0  0  0  0
 16 17  2  0  0  0  0
 18 16  1  0  0  0  0
 18  5  1  0  0  0  0
 19 21  1  0  0  0  0
 20 16  1  0  0  0  0
 21 20  2  0  0  0  0
 22 21  1  0  0  0  0
 22 23  1  0  0  0  0
 23 24  1  0  0  0  0
 24 25  1  6  0  0  0
 24 27  1  0  0  0  0
 27 26  1  0  0  0  0
 27 28  2  0  0  0  0
 29 30  1  0  0  0  0
 31 32  1  0  0  0  0
 32 33  1  0  0  0  0
 33 34  1  0  0  0  0
 35 34  1  0  0  0  0
 35 36  1  0  0  0  0
 36 39  1  6  0  0  0
 36 37  1  0  0  0  0
 38 37  1  0  0  0  0
 40 39  1  0  0  0  0
 41 40  1  0  0  0  0
M  END
>  <MODEL>
6

>  <REMARK>
 VINA RESULT:      -6.5      2.781      7.648
  Name = 
  16 active torsions:
  status: ('A' for Active; 'I' for Inactive)
    1  A    between atoms: C_4  and  C_25
    2  A    between atoms: C_4  and  C_41
    3  A    between atoms: C_5  and  C_36
    4  A    between atoms: C_7  and  C_27
    5  A    between atoms: C_8  and  C_15
    6  A    between atoms: C_8  and  C_40
    7  A    between atoms: C_9  and  C_27
    8  A    between atoms: C_9  and  C_41
    9  A    between atoms: C_12  and  O_17
   10  A    between atoms: C_13  and  N_29
   11  A    between atoms: C_15  and  C_23
   12  A    between atoms: C_16  and  N_24
   13  A    between atoms: O_17  and  C_25
   14  A    between atoms: C_27  and  C_36
   15  A    between atoms: O_28  and  C_32
   16  A    between atoms: C_33  and  C_40
                            x       y       z     vdW  Elec       q    Type
                         _______ _______ _______ _____ _____    ______ ____

>  <TORSDO>
F 16

$$$$
=
 OpenBabel11052412163D

 41 44  0  0  1  0  0  0  0  0999 V2000
  161.2530  210.2020  151.1640 C   0  0  0  0  0  3  0  0  0  0  0  0
  161.2590  207.3930  150.8110 C   0  0  0  0  0  0  0  0  0  0  0  0
  161.2720  209.6370  149.8750 C   0  0  0  0  0  3  0  0  0  0  0  0
  161.2050  209.8790  153.6640 C   0  0  0  0  0  0  0  0  0  0  0  0
  161.2980  208.2430  149.6840 C   0  0  0  0  0  0  0  0  0  0  0  0
  161.1690  205.9670  150.7350 C   0  0  0  0  0  3  0  0  0  0  0  0
  161.0980  205.1700  151.9170 C   0  0  0  0  0  3  0  0  0  0  0  0
  161.2580  207.9970  152.0850 C   0  0  0  0  0  0  0  0  0  0  0  0
  161.1240  205.8480  153.1410 C   0  0  0  0  0  0  0  0  0  0  0  0
  161.0180  206.4700  155.2200 N   0  0  0  0  0  0  0  0  0  0  0  0
  161.2540  209.3880  152.3040 C   0  0  0  0  0  0  0  0  0  0  0  0
  161.1340  208.9510  154.7550 C   0  0  2  0  0  3  0  0  0  0  0  0
  161.0100  205.3980  154.4110 N   0  0  0  0  0  0  0  0  0  0  0  0
  161.1370  207.5770  154.4430 C   0  0  0  0  0  0  0  0  0  0  0  0
  161.2090  207.1830  153.1710 C   0  0  0  0  0  0  0  0  0  0  0  0
  162.3560  206.9710  147.7550 C   0  0  0  0  0  0  0  0  0  0  0  0
  163.4910  206.9360  148.3050 O   0  0  0  0  0  0  0  0  0  0  0  0
  161.3020  207.7400  148.3410 N   0  0  0  0  0  2  0  0  0  0  0  0
  161.7990  204.5440  144.9100 C   0  0  0  0  0  1  0  0  0  0  0  0
  162.1080  206.2890  146.5160 N   0  0  0  0  0  0  0  0  0  0  0  0
  162.0820  205.0040  146.3020 C   0  0  0  0  0  0  0  0  0  0  0  0
  162.3120  204.0090  147.4100 C   0  0  0  0  0  2  0  0  0  0  0  0
  161.0290  203.5150  148.0670 C   0  0  0  0  0  2  0  0  0  0  0  0
  161.1340  202.0330  148.3930 C   0  0  1  0  0  3  0  0  0  0  0  0
  160.0720  201.6310  149.4050 C   0  0  0  0  0  1  0  0  0  0  0  0
  161.5540  199.9130  147.0640 N   0  0  0  0  0  1  0  0  0  0  0  0
  160.9920  201.2200  147.1490 C   0  0  0  0  0  0  0  0  0  0  0  0
  160.3610  201.6920  146.1670 O   0  0  0  0  0  0  0  0  0  0  0  0
  162.1480  209.4140  156.9790 C   0  0  0  0  0  1  0  0  0  0  0  0
  161.0590  209.4360  156.0670 O   0  0  0  0  0  0  0  0  0  0  0  0
  161.2060  211.2440  153.9960 O   0  0  0  0  0  0  0  0  0  0  0  0
  160.0490  212.0330  154.2250 C   0  0  0  0  0  2  0  0  0  0  0  0
  159.8650  212.9960  153.0740 C   0  0  0  0  0  2  0  0  0  0  0  0
  158.4140  212.9930  152.6370 C   0  0  0  0  0  2  0  0  0  0  0  0
  158.3370  212.6290  151.1610 C   0  0  0  0  0  2  0  0  0  0  0  0
  157.9400  213.8170  150.2810 C   0  0  2  0  0  3  0  0  0  0  0  0
  156.7200  213.4850  149.4340 C   0  0  0  0  0  2  0  0  0  0  0  0
  157.1270  213.2210  147.9960 C   0  0  0  0  0  1  0  0  0  0  0  0
  159.1050  214.3020  149.4170 C   0  0  0  0  0  2  0  0  0  0  0  0
  160.2940  213.3570  149.5170 C   0  0  0  0  0  2  0  0  0  0  0  0
  161.4350  213.8310  148.6340 C   0  0  0  0  0  1  0  0  0  0  0  0
  1 11  1  0  0  0  0
  2  8  1  0  0  0  0
  3  1  2  0  0  0  0
  4 31  1  0  0  0  0
  4 12  1  0  0  0  0
  5  3  1  0  0  0  0
  5  2  2  0  0  0  0
  6  2  1  0  0  0  0
  6  7  2  0  0  0  0
  7  9  1  0  0  0  0
  8 11  1  0  0  0  0
  8 15  2  0  0  0  0
  9 15  1  0  0  0  0
  9 13  2  0  0  0  0
 11  4  2  0  0  0  0
 12 30  1  6  0  0  0
 13 10  1  0  0  0  0
 14 12  1  0  0  0  0
 14 10  2  0  0  0  0
 15 14  1  0  0  0  0
 16 17  2  0  0  0  0
 16 18  1  0  0  0  0
 18  5  1  0  0  0  0
 19 21  1  0  0  0  0
 20 16  1  0  0  0  0
 21 20  2  0  0  0  0
 21 22  1  0  0  0  0
 22 23  1  0  0  0  0
 23 24  1  0  0  0  0
 24 25  1  1  0  0  0
 26 27  1  0  0  0  0
 27 24  1  0  0  0  0
 28 27  2  0  0  0  0
 30 29  1  0  0  0  0
 31 32  1  0  0  0  0
 33 32  1  0  0  0  0
 34 33  1  0  0  0  0
 35 34  1  0  0  0  0
 36 39  1  6  0  0  0
 36 35  1  0  0  0  0
 37 36  1  0  0  0  0
 38 37  1  0  0  0  0
 39 40  1  0  0  0  0
 41 40  1  0  0  0  0
M  END
>  <MODEL>
7

>  <REMARK>
 VINA RESULT:      -6.1      1.841      2.262
  Name = 
  16 active torsions:
  status: ('A' for Active; 'I' for Inactive)
    1  A    between atoms: C_4  and  C_25
    2  A    between atoms: C_4  and  C_41
    3  A    between atoms: C_5  and  C_36
    4  A    between atoms: C_7  and  C_27
    5  A    between atoms: C_8  and  C_15
    6  A    between atoms: C_8  and  C_40
    7  A    between atoms: C_9  and  C_27
    8  A    between atoms: C_9  and  C_41
    9  A    between atoms: C_12  and  O_17
   10  A    between atoms: C_13  and  N_29
   11  A    between atoms: C_15  and  C_23
   12  A    between atoms: C_16  and  N_24
   13  A    between atoms: O_17  and  C_25
   14  A    between atoms: C_27  and  C_36
   15  A    between atoms: O_28  and  C_32
   16  A    between atoms: C_33  and  C_40
                            x       y       z     vdW  Elec       q    Type
                         _______ _______ _______ _____ _____    ______ ____

>  <TORSDO>
F 16

$$$$
=
 OpenBabel11052412163D

 41 44  0  0  1  0  0  0  0  0999 V2000
  161.7290  209.7120  150.9210 C   0  0  0  0  0  3  0  0  0  0  0  0
  161.2660  206.9910  150.2890 C   0  0  0  0  0  0  0  0  0  0  0  0
  161.6110  209.2920  149.5830 C   0  0  0  0  0  3  0  0  0  0  0  0
  161.7180  209.1340  153.3760 C   0  0  0  0  0  0  0  0  0  0  0  0
  161.4040  207.9400  149.2520 C   0  0  0  0  0  0  0  0  0  0  0  0
  160.9430  205.6140  150.0760 C   0  0  0  0  0  3  0  0  0  0  0  0
  160.7850  204.7170  151.1740 C   0  0  0  0  0  3  0  0  0  0  0  0
  161.4080  207.4480  151.6150 C   0  0  0  0  0  0  0  0  0  0  0  0
  160.9640  205.2460  152.4560 C   0  0  0  0  0  0  0  0  0  0  0  0
  161.0340  205.6510  154.5900 N   0  0  0  0  0  0  0  0  0  0  0  0
  161.6380  208.7900  151.9730 C   0  0  0  0  0  0  0  0  0  0  0  0
  161.5350  208.1180  154.3700 C   0  0  2  0  0  3  0  0  0  0  0  0
  160.8230  204.6870  153.6790 N   0  0  0  0  0  0  0  0  0  0  0  0
  161.3040  206.8020  153.9230 C   0  0  0  0  0  0  0  0  0  0  0  0
  161.2660  206.5400  152.6150 C   0  0  0  0  0  0  0  0  0  0  0  0
  162.1260  206.6700  147.1730 C   0  0  0  0  0  0  0  0  0  0  0  0
  163.2310  206.3280  147.6770 O   0  0  0  0  0  0  0  0  0  0  0  0
  161.2780  207.5890  147.8670 N   0  0  0  0  0  2  0  0  0  0  0  0
  161.2000  204.7230  144.0670 C   0  0  0  0  0  1  0  0  0  0  0  0
  161.7160  206.1920  145.8830 N   0  0  0  0  0  0  0  0  0  0  0  0
  161.6650  204.9580  145.4670 C   0  0  0  0  0  0  0  0  0  0  0  0
  162.0430  203.8030  146.3570 C   0  0  0  0  0  2  0  0  0  0  0  0
  160.9430  203.3900  147.3270 C   0  0  0  0  0  2  0  0  0  0  0  0
  161.1950  201.9840  147.8510 C   0  0  1  0  0  3  0  0  0  0  0  0
  160.2650  201.6730  149.0140 C   0  0  0  0  0  1  0  0  0  0  0  0
  160.2020  201.2960  145.6210 N   0  0  0  0  0  1  0  0  0  0  0  0
  161.0030  200.9860  146.7580 C   0  0  0  0  0  0  0  0  0  0  0  0
  161.5630  199.8610  146.8380 O   0  0  0  0  0  0  0  0  0  0  0  0
  160.4990  208.2980  156.6250 C   0  0  0  0  0  1  0  0  0  0  0  0
  161.5870  208.4650  155.7260 O   0  0  0  0  0  0  0  0  0  0  0  0
  161.9530  210.4380  153.8420 O   0  0  0  0  0  0  0  0  0  0  0  0
  161.0800  211.1790  154.6810 C   0  0  0  0  0  2  0  0  0  0  0  0
  159.8610  211.5950  153.8890 C   0  0  0  0  0  2  0  0  0  0  0  0
  159.1260  212.6940  154.6290 C   0  0  0  0  0  2  0  0  0  0  0  0
  158.3090  212.0790  155.7560 C   0  0  0  0  0  2  0  0  0  0  0  0
  156.8030  212.2710  155.5660 C   0  0  2  0  0  3  0  0  0  0  0  0
  156.2310  211.2150  154.6310 C   0  0  0  0  0  2  0  0  0  0  0  0
  155.2570  210.3190  155.3740 C   0  0  0  0  0  1  0  0  0  0  0  0
  156.4620  213.6840  155.0870 C   0  0  0  0  0  2  0  0  0  0  0  0
  155.6770  213.6470  153.7830 C   0  0  0  0  0  2  0  0  0  0  0  0
  156.4000  214.4250  152.6980 C   0  0  0  0  0  1  0  0  0  0  0  0
  1 11  1  0  0  0  0
  2  8  1  0  0  0  0
  3  1  2  0  0  0  0
  4 31  1  0  0  0  0
  4 12  1  0  0  0  0
  5  3  1  0  0  0  0
  5  2  2  0  0  0  0
  6  2  1  0  0  0  0
  6  7  2  0  0  0  0
  7  9  1  0  0  0  0
  8 11  1  0  0  0  0
  8 15  2  0  0  0  0
  9 15  1  0  0  0  0
  9 13  2  0  0  0  0
 11  4  2  0  0  0  0
 12 30  1  6  0  0  0
 13 10  1  0  0  0  0
 14 12  1  0  0  0  0
 14 10  2  0  0  0  0
 15 14  1  0  0  0  0
 16 17  2  0  0  0  0
 16 18  1  0  0  0  0
 18  5  1  0  0  0  0
 19 21  1  0  0  0  0
 20 16  1  0  0  0  0
 21 20  2  0  0  0  0
 21 22  1  0  0  0  0
 22 23  1  0  0  0  0
 23 24  1  0  0  0  0
 24 25  1  1  0  0  0
 26 27  1  0  0  0  0
 27 28  2  0  0  0  0
 27 24  1  0  0  0  0
 30 29  1  0  0  0  0
 31 32  1  0  0  0  0
 33 34  1  0  0  0  0
 33 32  1  0  0  0  0
 34 35  1  0  0  0  0
 36 37  1  6  0  0  0
 36 35  1  0  0  0  0
 37 38  1  0  0  0  0
 39 36  1  0  0  0  0
 40 39  1  0  0  0  0
 41 40  1  0  0  0  0
M  END
>  <MODEL>
8

>  <REMARK>
 VINA RESULT:      -5.8      2.565      4.128
  Name = 
  16 active torsions:
  status: ('A' for Active; 'I' for Inactive)
    1  A    between atoms: C_4  and  C_25
    2  A    between atoms: C_4  and  C_41
    3  A    between atoms: C_5  and  C_36
    4  A    between atoms: C_7  and  C_27
    5  A    between atoms: C_8  and  C_15
    6  A    between atoms: C_8  and  C_40
    7  A    between atoms: C_9  and  C_27
    8  A    between atoms: C_9  and  C_41
    9  A    between atoms: C_12  and  O_17
   10  A    between atoms: C_13  and  N_29
   11  A    between atoms: C_15  and  C_23
   12  A    between atoms: C_16  and  N_24
   13  A    between atoms: O_17  and  C_25
   14  A    between atoms: C_27  and  C_36
   15  A    between atoms: O_28  and  C_32
   16  A    between atoms: C_33  and  C_40
                            x       y       z     vdW  Elec       q    Type
                         _______ _______ _______ _____ _____    ______ ____

>  <TORSDO>
F 16

$$$$
=
 OpenBabel11052412163D

 41 44  0  0  1  0  0  0  0  0999 V2000
  160.8680  208.0720  153.1740 C   0  0  0  0  0  3  0  0  0  0  0  0
  161.7530  207.3030  150.5970 C   0  0  0  0  0  0  0  0  0  0  0  0
  161.1390  206.7240  152.8760 C   0  0  0  0  0  3  0  0  0  0  0  0
  160.7860  210.4770  152.4190 C   0  0  0  0  0  0  0  0  0  0  0  0
  161.5580  206.3220  151.5940 C   0  0  0  0  0  0  0  0  0  0  0  0
  162.2820  207.0280  149.2960 C   0  0  0  0  0  3  0  0  0  0  0  0
  162.4870  208.0740  148.3480 C   0  0  0  0  0  3  0  0  0  0  0  0
  161.4550  208.6410  150.9290 C   0  0  1  0  0  3  0  0  0  0  0  0
  162.1440  209.3700  148.7500 C   0  0  0  0  0  0  0  0  0  0  0  0
  161.8670  211.5130  148.9790 N   0  0  0  0  0  0  0  0  0  0  0  0
  161.0130  209.0650  152.1960 C   0  0  0  0  0  0  0  0  0  0  0  0
  161.0400  211.4140  151.3640 C   0  0  0  0  0  0  0  0  0  0  0  0
  162.2750  210.5610  148.1240 N   0  0  0  0  0  0  0  0  0  0  0  0
  161.4850  210.9020  150.1300 C   0  0  0  0  0  0  0  0  0  0  0  0
  161.6520  209.5880  149.9750 C   0  0  0  0  0  0  0  0  0  0  0  0
  160.8340  203.9180  151.2030 C   0  0  0  0  0  0  0  0  0  0  0  0
  159.6400  204.1460  151.5390 O   0  0  0  0  0  0  0  0  0  0  0  0
  161.8290  204.9320  151.3690 N   0  0  0  0  0  2  0  0  0  0  0  0
  161.6250  200.8050  149.2090 C   0  0  0  0  0  1  0  0  0  0  0  0
  161.2340  202.6350  150.6990 N   0  0  0  0  0  0  0  0  0  0  0  0
  161.1310  202.1880  149.4790 C   0  0  0  0  0  0  0  0  0  0  0  0
  160.5530  203.0290  148.3710 C   0  0  0  0  0  2  0  0  0  0  0  0
  161.5390  204.0290  147.7810 C   0  0  0  0  0  2  0  0  0  0  0  0
  161.6780  203.8190  146.2800 C   0  0  1  0  0  3  0  0  0  0  0  0
  161.1830  202.4350  145.8870 C   0  0  0  0  0  1  0  0  0  0  0  0
  160.6910  206.1500  146.1210 N   0  0  0  0  0  1  0  0  0  0  0  0
  160.9150  204.8670  145.5410 C   0  0  0  0  0  0  0  0  0  0  0  0
  160.4710  204.6180  144.3900 O   0  0  0  0  0  0  0  0  0  0  0  0
  159.6370  213.4670  151.2970 C   0  0  0  0  0  1  0  0  0  0  0  0
  160.8440  212.7820  151.5980 O   0  0  0  0  0  0  0  0  0  0  0  0
  160.3370  211.0060  153.6400 O   0  0  0  0  0  0  0  0  0  0  0  0
  158.9810  211.0870  154.0500 C   0  0  0  0  0  2  0  0  0  0  0  0
  158.8080  212.2680  154.9780 C   0  0  0  0  0  2  0  0  0  0  0  0
  158.8790  211.7980  156.4160 C   0  0  0  0  0  2  0  0  0  0  0  0
  159.3770  210.3610  156.4490 C   0  0  0  0  0  2  0  0  0  0  0  0
  160.6860  210.2070  157.2280 C   0  0  2  0  0  3  0  0  0  0  0  0
  161.7170  211.2280  156.7690 C   0  0  0  0  0  2  0  0  0  0  0  0
  163.1220  210.6850  156.9550 C   0  0  0  0  0  1  0  0  0  0  0  0
  161.2360  208.7820  157.1460 C   0  0  0  0  0  2  0  0  0  0  0  0
  160.1170  207.7550  157.2580 C   0  0  0  0  0  2  0  0  0  0  0  0
  160.3040  206.6430  156.2400 C   0  0  0  0  0  1  0  0  0  0  0  0
  2  8  1  0  0  0  0
  2  5  1  0  0  0  0
  3  1  1  0  0  0  0
  4 31  1  0  0  0  0
  5  3  2  0  0  0  0
  6  2  2  0  0  0  0
  7  9  2  0  0  0  0
  7  6  1  0  0  0  0
  8 15  1  1  0  0  0
  8 11  1  0  0  0  0
  9 15  1  0  0  0  0
 10 14  1  0  0  0  0
 11  4  1  0  0  0  0
 11  1  2  0  0  0  0
 12 30  1  0  0  0  0
 12  4  2  0  0  0  0
 13  9  1  0  0  0  0
 13 10  2  0  0  0  0
 14 12  1  0  0  0  0
 15 14  2  0  0  0  0
 16 18  1  0  0  0  0
 16 17  2  0  0  0  0
 18  5  1  0  0  0  0
 19 21  1  0  0  0  0
 20 16  1  0  0  0  0
 21 20  2  0  0  0  0
 22 21  1  0  0  0  0
 23 22  1  0  0  0  0
 24 25  1  1  0  0  0
 24 23  1  0  0  0  0
 27 26  1  0  0  0  0
 27 24  1  0  0  0  0
 28 27  2  0  0  0  0
 29 30  1  0  0  0  0
 31 32  1  0  0  0  0
 32 33  1  0  0  0  0
 33 34  1  0  0  0  0
 34 35  1  0  0  0  0
 36 35  1  6  0  0  0
 37 38  1  0  0  0  0
 37 36  1  0  0  0  0
 39 36  1  0  0  0  0
 39 40  1  0  0  0  0
 41 40  1  0  0  0  0
M  END
>  <MODEL>
9

>  <REMARK>
 VINA RESULT:      -5.7      2.308      5.731
  Name = 
  16 active torsions:
  status: ('A' for Active; 'I' for Inactive)
    1  A    between atoms: C_4  and  C_25
    2  A    between atoms: C_4  and  C_41
    3  A    between atoms: C_5  and  C_36
    4  A    between atoms: C_7  and  C_27
    5  A    between atoms: C_8  and  C_15
    6  A    between atoms: C_8  and  C_40
    7  A    between atoms: C_9  and  C_27
    8  A    between atoms: C_9  and  C_41
    9  A    between atoms: C_12  and  O_17
   10  A    between atoms: C_13  and  N_29
   11  A    between atoms: C_15  and  C_23
   12  A    between atoms: C_16  and  N_24
   13  A    between atoms: O_17  and  C_25
   14  A    between atoms: C_27  and  C_36
   15  A    between atoms: O_28  and  C_32
   16  A    between atoms: C_33  and  C_40
                            x       y       z     vdW  Elec       q    Type
                         _______ _______ _______ _____ _____    ______ ____

>  <TORSDO>
F 16

$$$$
