=
 OpenBabel11042421203D

 39 42  0  0  1  0  0  0  0  0999 V2000
  160.8560  206.6470  152.4100 C   0  0  1  0  0  3  0  0  0  0  0  0
  161.2500  208.4580  153.8080 C   0  0  1  0  0  3  0  0  0  0  0  0
  160.8630  209.0490  151.5710 C   0  0  1  0  0  3  0  0  0  0  0  0
  160.7660  209.6970  153.8420 C   0  0  1  0  0  3  0  0  0  0  0  0
  160.9070  207.3620  154.7490 C   0  0  0  0  0  2  0  0  0  0  0  0
  160.8650  206.1310  153.8510 C   0  0  0  0  0  2  0  0  0  0  0  0
  161.5390  208.0010  152.4460 C   0  0  2  0  0  3  0  0  0  0  0  0
  160.6980  210.2760  152.4720 C   0  0  0  0  0  2  0  0  0  0  0  0
  158.2810  211.9540  155.7060 C   0  0  0  0  0  0  0  0  0  0  0  0
  160.1250  210.3660  155.0260 C   0  0  1  0  0  3  0  0  0  0  0  0
  161.0610  211.3750  155.6770 C   0  0  0  0  0  2  0  0  0  0  0  0
  158.8040  211.0290  154.6380 C   0  0  0  0  0  2  0  0  0  0  0  0
  159.0390  212.3670  156.6850 N   0  0  0  0  0  0  0  0  0  0  0  0
  156.9630  212.4840  155.5460 N   0  0  0  0  0  2  0  0  0  0  0  0
  160.3940  211.8800  156.9480 C   0  0  0  0  0  2  0  0  0  0  0  0
  156.3910  213.3740  156.4690 C   0  0  0  0  0  0  0  0  0  0  0  0
  155.8990  214.1370  157.2600 C   0  0  0  0  0  3  0  0  0  0  0  0
  161.5320  205.7270  151.5010 N   0  0  0  0  0  2  0  0  0  0  0  0
  159.8360  205.5910  149.8910 O   0  0  0  0  0  0  0  0  0  0  0  0
  160.9690  205.2150  150.2870 C   0  0  0  0  0  0  0  0  0  0  0  0
  161.7100  204.1820  149.5150 C   0  0  0  0  0  2  0  0  0  0  0  0
  161.3620  204.2910  148.1100 N   0  0  0  0  0  2  0  0  0  0  0  0
  160.8010  203.0130  147.6970 C   0  0  2  0  0  3  0  0  0  0  0  0
  160.1250  201.4400  149.1030 C   0  0  0  0  0  1  0  0  0  0  0  0
  161.2710  201.9920  148.5320 O   0  0  0  0  0  0  0  0  0  0  0  0
  161.1810  202.7250  146.2770 C   0  0  0  0  0  0  0  0  0  0  0  0
  161.8240  203.5480  145.6460 O   0  0  0  0  0  0  0  0  0  0  0  0
  159.4980  201.6440  144.9310 N   0  0  0  0  0  1  0  0  0  0  0  0
  160.7600  201.4490  145.6210 C   0  0  0  0  0  2  0  0  0  0  0  0
  161.6820  209.3650  150.3560 C   0  0  0  0  0  0  0  0  0  0  0  0
  161.8590  210.6390  150.0310 C   0  0  0  0  0  3  0  0  0  0  0  0
  162.6440  211.0070  148.8980 N   0  0  0  0  0  2  0  0  0  0  0  0
  163.3040  212.5650  147.3130 O   0  0  0  0  0  0  0  0  0  0  0  0
  162.4850  212.2540  148.2200 C   0  0  0  0  0  0  0  0  0  0  0  0
  161.0630  214.1520  147.4590 C   0  0  0  0  0  2  0  0  0  0  0  0
  161.3900  213.2080  148.6030 C   0  0  0  0  0  3  0  0  0  0  0  0
  160.1760  212.9590  147.7260 C   0  0  0  0  0  2  0  0  0  0  0  0
  161.6910  207.9540  148.4250 O   0  0  0  0  0  1  0  0  0  0  0  0
  162.2570  208.3610  149.5670 O   0  0  0  0  0  0  0  0  0  0  0  0
  1 18  1  6  0  0  0
  1  7  1  0  0  0  0
  1  6  1  0  0  0  0
  2  4  1  0  0  0  0
  2  5  1  6  0  0  0
  3 30  1  6  0  0  0
  3  7  1  0  0  0  0
  3  8  1  0  0  0  0
  4  8  1  6  0  0  0
  4 10  1  0  0  0  0
  6  5  1  0  0  0  0
  7  2  1  0  0  0  0
  9 13  2  0  0  0  0
 10 11  1  0  0  0  0
 11 15  1  0  0  0  0
 12 10  1  0  0  0  0
 12  9  1  0  0  0  0
 13 15  1  0  0  0  0
 14  9  1  0  0  0  0
 14 16  1  0  0  0  0
 16 17  3  0  0  0  0
 19 20  2  0  0  0  0
 20 18  1  0  0  0  0
 21 20  1  0  0  0  0
 22 21  1  0  0  0  0
 23 22  1  0  0  0  0
 23 25  1  0  0  0  0
 25 24  1  0  0  0  0
 26 23  1  0  0  0  0
 27 26  2  0  0  0  0
 28 29  1  0  0  0  0
 29 26  1  0  0  0  0
 31 30  2  0  0  0  0
 32 31  1  0  0  0  0
 33 34  2  0  0  0  0
 34 36  1  0  0  0  0
 34 32  1  0  0  0  0
 35 37  1  0  0  0  0
 35 36  1  0  0  0  0
 37 36  1  0  0  0  0
 38 39  1  0  0  0  0
 39 30  1  0  0  0  0
M  END
>  <MODEL>
1

>  <REMARK>
 VINA RESULT:      -6.4      0.000      0.000
  Name = 
  13 active torsions:
  status: ('A' for Active; 'I' for Inactive)
    1  A    between atoms: N_3  and  C_37
    2  A    between atoms: C_4  and  N_22
    3  A    between atoms: C_6  and  C_12
    4  A    between atoms: C_6  and  C_31
    5  A    between atoms: C_7  and  N_20
    6  A    between atoms: C_7  and  C_39
    7  A    between atoms: C_10  and  C_15
    8  A    between atoms: C_11  and  C_23
    9  A    between atoms: C_12  and  N_20
   10  A    between atoms: C_12  and  O_24
   11  A    between atoms: C_17  and  C_18
   12  A    between atoms: C_17  and  O_33
   13  A    between atoms: C_27  and  N_32
                            x       y       z     vdW  Elec       q    Type
                         _______ _______ _______ _____ _____    ______ ____

>  <TORSDO>
F 13

$$$$
=
 OpenBabel11042421203D

 39 42  0  0  1  0  0  0  0  0999 V2000
  161.5350  209.8230  149.6970 C   0  0  1  0  0  3  0  0  0  0  0  0
  162.3500  207.9380  150.7780 C   0  0  1  0  0  3  0  0  0  0  0  0
  160.7210  209.1030  151.9970 C   0  0  1  0  0  3  0  0  0  0  0  0
  161.7830  207.0350  151.5740 C   0  0  1  0  0  3  0  0  0  0  0  0
  162.7470  207.7240  149.3630 C   0  0  0  0  0  2  0  0  0  0  0  0
  162.4070  209.0550  148.7010 C   0  0  0  0  0  2  0  0  0  0  0  0
  161.9130  209.3050  151.0710 C   0  0  2  0  0  3  0  0  0  0  0  0
  160.8920  207.6930  152.5680 C   0  0  0  0  0  2  0  0  0  0  0  0
  161.2940  203.7090  149.7190 C   0  0  0  0  0  0  0  0  0  0  0  0
  161.8010  205.5450  151.3800 C   0  0  1  0  0  3  0  0  0  0  0  0
  160.7800  204.8480  152.2690 C   0  0  0  0  0  2  0  0  0  0  0  0
  161.5800  205.1750  149.9140 C   0  0  0  0  0  2  0  0  0  0  0  0
  160.9640  202.9380  150.7190 N   0  0  0  0  0  0  0  0  0  0  0  0
  161.2600  203.2050  148.3820 N   0  0  0  0  0  2  0  0  0  0  0  0
  160.9800  203.3470  152.1250 C   0  0  0  0  0  2  0  0  0  0  0  0
  160.9780  201.8620  148.0900 C   0  0  0  0  0  0  0  0  0  0  0  0
  160.7350  200.7090  147.8370 C   0  0  0  0  0  3  0  0  0  0  0  0
  161.7340  211.2650  149.5910 N   0  0  0  0  0  2  0  0  0  0  0  0
  161.0720  211.4980  147.3560 O   0  0  0  0  0  0  0  0  0  0  0  0
  161.5190  212.0350  148.4030 C   0  0  0  0  0  0  0  0  0  0  0  0
  161.8820  213.4770  148.3890 C   0  0  0  0  0  2  0  0  0  0  0  0
  160.7020  214.2670  148.0880 N   0  0  0  0  0  2  0  0  0  0  0  0
  159.5480  213.5500  148.6120 C   0  0  2  0  0  3  0  0  0  0  0  0
  158.8380  214.0230  146.5680 C   0  0  0  0  0  1  0  0  0  0  0  0
  158.4020  213.8940  147.8860 O   0  0  0  0  0  0  0  0  0  0  0  0
  159.3540  213.8860  150.0590 C   0  0  0  0  0  0  0  0  0  0  0  0
  160.2440  214.4530  150.6710 O   0  0  0  0  0  0  0  0  0  0  0  0
  157.8340  214.4390  151.8470 N   0  0  0  0  0  1  0  0  0  0  0  0
  158.0900  213.5090  150.7630 C   0  0  0  0  0  2  0  0  0  0  0  0
  160.6840  210.1360  153.0820 C   0  0  0  0  0  0  0  0  0  0  0  0
  160.2380  211.3490  152.7800 C   0  0  0  0  0  3  0  0  0  0  0  0
  160.1590  212.3720  153.7710 N   0  0  0  0  0  2  0  0  0  0  0  0
  159.0590  213.4040  155.5320 O   0  0  0  0  0  0  0  0  0  0  0  0
  159.0050  212.5700  154.5880 C   0  0  0  0  0  0  0  0  0  0  0  0
  157.5880  210.7050  155.4360 C   0  0  0  0  0  2  0  0  0  0  0  0
  157.7540  211.7690  154.3650 C   0  0  0  0  0  3  0  0  0  0  0  0
  156.8010  211.9910  155.5250 C   0  0  0  0  0  2  0  0  0  0  0  0
  162.2970  210.2590  154.8450 O   0  0  0  0  0  1  0  0  0  0  0  0
  161.1040  209.8570  154.3880 O   0  0  0  0  0  0  0  0  0  0  0  0
  1 18  1  1  0  0  0
  1  7  1  0  0  0  0
  2  5  1  6  0  0  0
  2  7  1  0  0  0  0
  2  4  1  0  0  0  0
  3  8  1  0  0  0  0
  3 30  1  1  0  0  0
  4  8  1  6  0  0  0
  6  5  1  0  0  0  0
  6  1  1  0  0  0  0
  7  3  1  0  0  0  0
  9 12  1  0  0  0  0
  9 13  2  0  0  0  0
 10  4  1  0  0  0  0
 10 11  1  0  0  0  0
 12 10  1  0  0  0  0
 13 15  1  0  0  0  0
 14  9  1  0  0  0  0
 15 11  1  0  0  0  0
 16 14  1  0  0  0  0
 17 16  3  0  0  0  0
 19 20  2  0  0  0  0
 20 18  1  0  0  0  0
 21 20  1  0  0  0  0
 22 21  1  0  0  0  0
 22 23  1  0  0  0  0
 23 26  1  0  0  0  0
 24 25  1  0  0  0  0
 25 23  1  0  0  0  0
 26 27  2  0  0  0  0
 26 29  1  0  0  0  0
 29 28  1  0  0  0  0
 30 39  1  0  0  0  0
 31 30  2  0  0  0  0
 31 32  1  0  0  0  0
 32 34  1  0  0  0  0
 34 33  2  0  0  0  0
 35 37  1  0  0  0  0
 36 34  1  0  0  0  0
 36 35  1  0  0  0  0
 36 37  1  0  0  0  0
 39 38  1  0  0  0  0
M  END
>  <MODEL>
2

>  <REMARK>
 VINA RESULT:      -6.0      3.019      9.046
  Name = 
  13 active torsions:
  status: ('A' for Active; 'I' for Inactive)
    1  A    between atoms: N_3  and  C_37
    2  A    between atoms: C_4  and  N_22
    3  A    between atoms: C_6  and  C_12
    4  A    between atoms: C_6  and  C_31
    5  A    between atoms: C_7  and  N_20
    6  A    between atoms: C_7  and  C_39
    7  A    between atoms: C_10  and  C_15
    8  A    between atoms: C_11  and  C_23
    9  A    between atoms: C_12  and  N_20
   10  A    between atoms: C_12  and  O_24
   11  A    between atoms: C_17  and  C_18
   12  A    between atoms: C_17  and  O_33
   13  A    between atoms: C_27  and  N_32
                            x       y       z     vdW  Elec       q    Type
                         _______ _______ _______ _____ _____    ______ ____

>  <TORSDO>
F 13

$$$$
=
 OpenBabel11042421203D

 39 42  0  0  1  0  0  0  0  0999 V2000
  161.5760  208.9130  149.4680 C   0  0  1  0  0  3  0  0  0  0  0  0
  162.3550  206.7770  149.9320 C   0  0  1  0  0  3  0  0  0  0  0  0
  161.0380  207.7000  151.6390 C   0  0  1  0  0  3  0  0  0  0  0  0
  161.8250  205.7410  150.5770 C   0  0  1  0  0  3  0  0  0  0  0  0
  162.5210  206.8940  148.4610 C   0  0  0  0  0  2  0  0  0  0  0  0
  162.2170  208.3640  148.1920 C   0  0  0  0  0  2  0  0  0  0  0  0
  162.0980  208.0530  150.6030 C   0  0  2  0  0  3  0  0  0  0  0  0
  161.1540  206.1860  151.8300 C   0  0  0  0  0  2  0  0  0  0  0  0
  161.0810  203.0210  147.9710 C   0  0  0  0  0  0  0  0  0  0  0  0
  161.6720  204.3450  150.0410 C   0  0  1  0  0  3  0  0  0  0  0  0
  160.5000  203.6190  150.6860 C   0  0  0  0  0  2  0  0  0  0  0  0
  161.5320  204.3500  148.5190 C   0  0  0  0  0  2  0  0  0  0  0  0
  160.5730  202.1000  148.7430 N   0  0  0  0  0  0  0  0  0  0  0  0
  161.0980  202.8410  146.5530 N   0  0  0  0  0  2  0  0  0  0  0  0
  160.5200  202.1760  150.2050 C   0  0  0  0  0  2  0  0  0  0  0  0
  160.6750  201.6510  145.9400 C   0  0  0  0  0  0  0  0  0  0  0  0
  160.3110  200.6310  145.4130 C   0  0  0  0  0  3  0  0  0  0  0  0
  161.8950  210.3230  149.6700 N   0  0  0  0  0  2  0  0  0  0  0  0
  161.2390  211.0880  147.5560 O   0  0  0  0  0  0  0  0  0  0  0  0
  161.7370  211.3480  148.6820 C   0  0  0  0  0  0  0  0  0  0  0  0
  162.2200  212.7250  148.9700 C   0  0  0  0  0  2  0  0  0  0  0  0
  161.5060  213.6700  148.1310 N   0  0  0  0  0  2  0  0  0  0  0  0
  160.3140  214.0870  148.8550 C   0  0  2  0  0  3  0  0  0  0  0  0
  159.9840  214.4430  151.0160 C   0  0  0  0  0  1  0  0  0  0  0  0
  160.2530  213.4350  150.0920 O   0  0  0  0  0  0  0  0  0  0  0  0
  159.0910  213.7690  148.0510 C   0  0  0  0  0  0  0  0  0  0  0  0
  158.0290  213.5760  148.6190 O   0  0  0  0  0  0  0  0  0  0  0  0
  158.1960  212.6930  146.0870 N   0  0  0  0  0  1  0  0  0  0  0  0
  159.1680  213.6610  146.5620 C   0  0  0  0  0  2  0  0  0  0  0  0
  161.2580  208.4360  152.9260 C   0  0  0  0  0  0  0  0  0  0  0  0
  161.4520  209.7480  152.8740 C   0  0  0  0  0  3  0  0  0  0  0  0
  161.6470  210.5100  154.0640 N   0  0  0  0  0  2  0  0  0  0  0  0
  160.8620  211.9720  155.6830 O   0  0  0  0  0  0  0  0  0  0  0  0
  160.6790  211.4370  154.5570 C   0  0  0  0  0  0  0  0  0  0  0  0
  158.1880  211.4240  154.5830 C   0  0  0  0  0  2  0  0  0  0  0  0
  159.4340  211.7420  153.7740 C   0  0  0  0  0  3  0  0  0  0  0  0
  158.6650  212.8530  154.4660 C   0  0  0  0  0  2  0  0  0  0  0  0
  160.2720  207.9430  155.0480 O   0  0  0  0  0  1  0  0  0  0  0  0
  161.2640  207.7830  154.1630 O   0  0  0  0  0  0  0  0  0  0  0  0
  1 18  1  1  0  0  0
  1  7  1  0  0  0  0
  2  5  1  6  0  0  0
  2  4  1  0  0  0  0
  2  7  1  0  0  0  0
  3  8  1  0  0  0  0
  3 30  1  1  0  0  0
  4  8  1  6  0  0  0
  6  5  1  0  0  0  0
  6  1  1  0  0  0  0
  7  3  1  0  0  0  0
  9 12  1  0  0  0  0
  9 13  2  0  0  0  0
 10  4  1  0  0  0  0
 10 11  1  0  0  0  0
 12 10  1  0  0  0  0
 13 15  1  0  0  0  0
 14  9  1  0  0  0  0
 15 11  1  0  0  0  0
 16 14  1  0  0  0  0
 17 16  3  0  0  0  0
 19 20  2  0  0  0  0
 20 21  1  0  0  0  0
 20 18  1  0  0  0  0
 22 23  1  0  0  0  0
 22 21  1  0  0  0  0
 23 25  1  0  0  0  0
 25 24  1  0  0  0  0
 26 27  2  0  0  0  0
 26 23  1  0  0  0  0
 28 29  1  0  0  0  0
 29 26  1  0  0  0  0
 30 39  1  0  0  0  0
 31 30  2  0  0  0  0
 31 32  1  0  0  0  0
 32 34  1  0  0  0  0
 34 33  2  0  0  0  0
 36 37  1  0  0  0  0
 36 34  1  0  0  0  0
 36 35  1  0  0  0  0
 37 35  1  0  0  0  0
 39 38  1  0  0  0  0
M  END
>  <MODEL>
3

>  <REMARK>
 VINA RESULT:      -5.9      2.901      9.154
  Name = 
  13 active torsions:
  status: ('A' for Active; 'I' for Inactive)
    1  A    between atoms: N_3  and  C_37
    2  A    between atoms: C_4  and  N_22
    3  A    between atoms: C_6  and  C_12
    4  A    between atoms: C_6  and  C_31
    5  A    between atoms: C_7  and  N_20
    6  A    between atoms: C_7  and  C_39
    7  A    between atoms: C_10  and  C_15
    8  A    between atoms: C_11  and  C_23
    9  A    between atoms: C_12  and  N_20
   10  A    between atoms: C_12  and  O_24
   11  A    between atoms: C_17  and  C_18
   12  A    between atoms: C_17  and  O_33
   13  A    between atoms: C_27  and  N_32
                            x       y       z     vdW  Elec       q    Type
                         _______ _______ _______ _____ _____    ______ ____

>  <TORSDO>
F 13

$$$$
=
 OpenBabel11042421203D

 39 42  0  0  1  0  0  0  0  0999 V2000
  161.5210  210.0210  149.6250 C   0  0  1  0  0  3  0  0  0  0  0  0
  162.3190  208.1890  150.8040 C   0  0  1  0  0  3  0  0  0  0  0  0
  160.6460  209.3880  151.9280 C   0  0  1  0  0  3  0  0  0  0  0  0
  161.7350  207.3140  151.6200 C   0  0  1  0  0  3  0  0  0  0  0  0
  162.7580  207.9210  149.4110 C   0  0  0  0  0  2  0  0  0  0  0  0
  162.4270  209.2210  148.6860 C   0  0  0  0  0  2  0  0  0  0  0  0
  161.8630  209.5630  151.0290 C   0  0  2  0  0  3  0  0  0  0  0  0
  160.8100  208.0040  152.5600 C   0  0  0  0  0  2  0  0  0  0  0  0
  161.2780  203.9090  149.9040 C   0  0  0  0  0  0  0  0  0  0  0  0
  161.7690  205.8170  151.4870 C   0  0  1  0  0  3  0  0  0  0  0  0
  160.7590  205.1460  152.4080 C   0  0  0  0  0  2  0  0  0  0  0  0
  161.5480  205.3860  150.0380 C   0  0  0  0  0  2  0  0  0  0  0  0
  160.9600  203.1760  150.9360 N   0  0  0  0  0  0  0  0  0  0  0  0
  161.2450  203.3510  148.5890 N   0  0  0  0  0  2  0  0  0  0  0  0
  160.9760  203.6430  152.3240 C   0  0  0  0  0  2  0  0  0  0  0  0
  160.9770  201.9930  148.3530 C   0  0  0  0  0  0  0  0  0  0  0  0
  160.7470  200.8280  148.1490 C   0  0  0  0  0  3  0  0  0  0  0  0
  161.7130  211.4600  149.4660 N   0  0  0  0  0  2  0  0  0  0  0  0
  160.6520  211.6790  147.3890 O   0  0  0  0  0  0  0  0  0  0  0  0
  161.2900  212.2210  148.3280 C   0  0  0  0  0  0  0  0  0  0  0  0
  161.6610  213.6580  148.2300 C   0  0  0  0  0  2  0  0  0  0  0  0
  160.7820  214.3160  147.2810 N   0  0  0  0  0  2  0  0  0  0  0  0
  161.1280  213.8310  145.9530 C   0  0  2  0  0  3  0  0  0  0  0  0
  163.0240  213.3920  144.8960 C   0  0  0  0  0  1  0  0  0  0  0  0
  162.3230  214.4200  145.5240 O   0  0  0  0  0  0  0  0  0  0  0  0
  160.0270  214.1530  144.9890 C   0  0  0  0  0  0  0  0  0  0  0  0
  160.2990  214.4140  143.8290 O   0  0  0  0  0  0  0  0  0  0  0  0
  158.1330  212.8290  145.6790 N   0  0  0  0  0  1  0  0  0  0  0  0
  158.6030  214.1820  145.4440 C   0  0  0  0  0  2  0  0  0  0  0  0
  160.5710  210.4640  152.9690 C   0  0  0  0  0  0  0  0  0  0  0  0
  159.9090  211.5770  152.6750 C   0  0  0  0  0  3  0  0  0  0  0  0
  159.7840  212.6310  153.6280 N   0  0  0  0  0  2  0  0  0  0  0  0
  158.5750  213.7530  155.2580 O   0  0  0  0  0  0  0  0  0  0  0  0
  158.5710  212.8930  154.3360 C   0  0  0  0  0  0  0  0  0  0  0  0
  156.9060  211.2520  155.1950 C   0  0  0  0  0  2  0  0  0  0  0  0
  157.3150  212.1300  154.0250 C   0  0  0  0  0  3  0  0  0  0  0  0
  156.2120  212.5740  154.9690 C   0  0  0  0  0  2  0  0  0  0  0  0
  162.4570  210.6450  154.4280 O   0  0  0  0  0  1  0  0  0  0  0  0
  161.1730  210.3260  154.2250 O   0  0  0  0  0  0  0  0  0  0  0  0
  1 18  1  1  0  0  0
  1  7  1  0  0  0  0
  2  5  1  6  0  0  0
  2  7  1  0  0  0  0
  2  4  1  0  0  0  0
  3  8  1  0  0  0  0
  3 30  1  1  0  0  0
  4  8  1  6  0  0  0
  6  5  1  0  0  0  0
  6  1  1  0  0  0  0
  7  3  1  0  0  0  0
  9 12  1  0  0  0  0
  9 13  2  0  0  0  0
 10  4  1  0  0  0  0
 10 11  1  0  0  0  0
 12 10  1  0  0  0  0
 13 15  1  0  0  0  0
 14  9  1  0  0  0  0
 15 11  1  0  0  0  0
 16 14  1  0  0  0  0
 17 16  3  0  0  0  0
 19 20  2  0  0  0  0
 20 18  1  0  0  0  0
 21 20  1  0  0  0  0
 22 21  1  0  0  0  0
 23 22  1  0  0  0  0
 24 25  1  0  0  0  0
 25 23  1  0  0  0  0
 26 29  1  0  0  0  0
 26 23  1  0  0  0  0
 27 26  2  0  0  0  0
 29 28  1  0  0  0  0
 30 39  1  0  0  0  0
 31 30  2  0  0  0  0
 31 32  1  0  0  0  0
 32 34  1  0  0  0  0
 34 33  2  0  0  0  0
 36 34  1  0  0  0  0
 36 37  1  0  0  0  0
 36 35  1  0  0  0  0
 37 35  1  0  0  0  0
 39 38  1  0  0  0  0
M  END
>  <MODEL>
4

>  <REMARK>
 VINA RESULT:      -5.8      3.118      8.821
  Name = 
  13 active torsions:
  status: ('A' for Active; 'I' for Inactive)
    1  A    between atoms: N_3  and  C_37
    2  A    between atoms: C_4  and  N_22
    3  A    between atoms: C_6  and  C_12
    4  A    between atoms: C_6  and  C_31
    5  A    between atoms: C_7  and  N_20
    6  A    between atoms: C_7  and  C_39
    7  A    between atoms: C_10  and  C_15
    8  A    between atoms: C_11  and  C_23
    9  A    between atoms: C_12  and  N_20
   10  A    between atoms: C_12  and  O_24
   11  A    between atoms: C_17  and  C_18
   12  A    between atoms: C_17  and  O_33
   13  A    between atoms: C_27  and  N_32
                            x       y       z     vdW  Elec       q    Type
                         _______ _______ _______ _____ _____    ______ ____

>  <TORSDO>
F 13

$$$$
=
 OpenBabel11042421203D

 39 42  0  0  1  0  0  0  0  0999 V2000
  160.5940  204.1210  150.8170 C   0  0  1  0  0  3  0  0  0  0  0  0
  161.3900  205.8800  152.1050 C   0  0  1  0  0  3  0  0  0  0  0  0
  160.5030  206.5400  150.0360 C   0  0  1  0  0  3  0  0  0  0  0  0
  160.9810  207.1350  152.2730 C   0  0  1  0  0  3  0  0  0  0  0  0
  161.2360  204.7760  153.0850 C   0  0  0  0  0  2  0  0  0  0  0  0
  160.9260  203.5690  152.2050 C   0  0  0  0  0  2  0  0  0  0  0  0
  161.3230  205.4460  150.7070 C   0  0  2  0  0  3  0  0  0  0  0  0
  160.6110  207.7500  150.9680 C   0  0  0  0  0  2  0  0  0  0  0  0
  160.6470  210.0290  154.7750 C   0  0  0  0  0  0  0  0  0  0  0  0
  160.6720  207.8000  153.5850 C   0  0  1  0  0  3  0  0  0  0  0  0
  161.6450  207.3720  154.6760 C   0  0  0  0  0  2  0  0  0  0  0  0
  160.6550  209.3210  153.4450 C   0  0  0  0  0  2  0  0  0  0  0  0
  160.9440  209.4070  155.8830 N   0  0  0  0  0  0  0  0  0  0  0  0
  160.4380  211.4430  154.7790 N   0  0  0  0  0  2  0  0  0  0  0  0
  161.1620  207.9630  155.9920 C   0  0  0  0  0  2  0  0  0  0  0  0
  160.4370  212.2010  155.9610 C   0  0  0  0  0  0  0  0  0  0  0  0
  160.4360  212.8520  156.9750 C   0  0  0  0  0  3  0  0  0  0  0  0
  160.9920  203.1980  149.7590 N   0  0  0  0  0  2  0  0  0  0  0  0
  159.8440  201.3160  150.5510 O   0  0  0  0  0  0  0  0  0  0  0  0
  160.6180  201.8170  149.6930 C   0  0  0  0  0  0  0  0  0  0  0  0
  161.1960  200.9510  148.6320 C   0  0  0  0  0  2  0  0  0  0  0  0
  160.9770  201.5680  147.3360 N   0  0  0  0  0  2  0  0  0  0  0  0
  160.5900  200.5150  146.4080 C   0  0  2  0  0  3  0  0  0  0  0  0
  161.2190  198.5270  145.6600 C   0  0  0  0  0  1  0  0  0  0  0  0
  161.7160  199.7780  146.0250 O   0  0  0  0  0  0  0  0  0  0  0  0
  159.9390  201.1150  145.1990 C   0  0  0  0  0  0  0  0  0  0  0  0
  160.0780  200.5800  144.1120 O   0  0  0  0  0  0  0  0  0  0  0  0
  159.3510  203.1960  144.1330 N   0  0  0  0  0  1  0  0  0  0  0  0
  159.1440  202.3750  145.3120 C   0  0  0  0  0  2  0  0  0  0  0  0
  161.0190  206.8540  148.6640 C   0  0  0  0  0  0  0  0  0  0  0  0
  160.4060  206.3070  147.6220 C   0  0  0  0  0  3  0  0  0  0  0  0
  160.8360  206.5800  146.2900 N   0  0  0  0  0  2  0  0  0  0  0  0
  161.8470  205.9150  144.3120 O   0  0  0  0  0  0  0  0  0  0  0  0
  161.6200  205.6630  145.5260 C   0  0  0  0  0  0  0  0  0  0  0  0
  163.4640  203.9880  145.5280 C   0  0  0  0  0  2  0  0  0  0  0  0
  162.1320  204.3900  146.1380 C   0  0  0  0  0  3  0  0  0  0  0  0
  163.4290  204.6730  146.8740 C   0  0  0  0  0  2  0  0  0  0  0  0
  161.9760  209.0260  148.3690 O   0  0  0  0  0  1  0  0  0  0  0  0
  162.1170  207.6980  148.4590 O   0  0  0  0  0  0  0  0  0  0  0  0
  1 18  1  6  0  0  0
  1  6  1  0  0  0  0
  2  4  1  0  0  0  0
  2  5  1  1  0  0  0
  3 30  1  6  0  0  0
  3  7  1  0  0  0  0
  3  8  1  0  0  0  0
  4  8  1  6  0  0  0
  4 10  1  0  0  0  0
  6  5  1  0  0  0  0
  7  1  1  0  0  0  0
  7  2  1  0  0  0  0
  9 14  1  0  0  0  0
  9 13  2  0  0  0  0
 10 11  1  0  0  0  0
 11 15  1  0  0  0  0
 12 10  1  0  0  0  0
 12  9  1  0  0  0  0
 13 15  1  0  0  0  0
 14 16  1  0  0  0  0
 16 17  3  0  0  0  0
 20 18  1  0  0  0  0
 20 19  2  0  0  0  0
 21 20  1  0  0  0  0
 22 21  1  0  0  0  0
 23 22  1  0  0  0  0
 24 25  1  0  0  0  0
 25 23  1  0  0  0  0
 26 29  1  0  0  0  0
 26 23  1  0  0  0  0
 27 26  2  0  0  0  0
 28 29  1  0  0  0  0
 31 30  2  0  0  0  0
 32 31  1  0  0  0  0
 33 34  2  0  0  0  0
 34 36  1  0  0  0  0
 34 32  1  0  0  0  0
 35 36  1  0  0  0  0
 35 37  1  0  0  0  0
 36 37  1  0  0  0  0
 38 39  1  0  0  0  0
 39 30  1  0  0  0  0
M  END
>  <MODEL>
5

>  <REMARK>
 VINA RESULT:      -5.7      3.029      4.477
  Name = 
  13 active torsions:
  status: ('A' for Active; 'I' for Inactive)
    1  A    between atoms: N_3  and  C_37
    2  A    between atoms: C_4  and  N_22
    3  A    between atoms: C_6  and  C_12
    4  A    between atoms: C_6  and  C_31
    5  A    between atoms: C_7  and  N_20
    6  A    between atoms: C_7  and  C_39
    7  A    between atoms: C_10  and  C_15
    8  A    between atoms: C_11  and  C_23
    9  A    between atoms: C_12  and  N_20
   10  A    between atoms: C_12  and  O_24
   11  A    between atoms: C_17  and  C_18
   12  A    between atoms: C_17  and  O_33
   13  A    between atoms: C_27  and  N_32
                            x       y       z     vdW  Elec       q    Type
                         _______ _______ _______ _____ _____    ______ ____

>  <TORSDO>
F 13

$$$$
=
 OpenBabel11042421203D

 39 42  0  0  1  0  0  0  0  0999 V2000
  161.5440  210.1590  149.5350 C   0  0  1  0  0  3  0  0  0  0  0  0
  162.3180  208.3480  150.7640 C   0  0  1  0  0  3  0  0  0  0  0  0
  160.5900  209.5400  151.8100 C   0  0  1  0  0  3  0  0  0  0  0  0
  161.7140  207.4750  151.5670 C   0  0  1  0  0  3  0  0  0  0  0  0
  162.8130  208.0710  149.3920 C   0  0  0  0  0  2  0  0  0  0  0  0
  162.4950  209.3590  148.6400 C   0  0  0  0  0  2  0  0  0  0  0  0
  161.8380  209.7190  150.9560 C   0  0  2  0  0  3  0  0  0  0  0  0
  160.7460  208.1650  152.4640 C   0  0  0  0  0  2  0  0  0  0  0  0
  161.1970  204.0360  149.9390 C   0  0  0  0  0  0  0  0  0  0  0  0
  161.7700  205.9780  151.4520 C   0  0  1  0  0  3  0  0  0  0  0  0
  160.8510  205.3000  152.4590 C   0  0  0  0  0  2  0  0  0  0  0  0
  161.4440  205.5200  150.0310 C   0  0  0  0  0  2  0  0  0  0  0  0
  160.9770  203.3120  151.0030 N   0  0  0  0  0  0  0  0  0  0  0  0
  161.0720  203.4570  148.6380 N   0  0  0  0  0  2  0  0  0  0  0  0
  161.0930  203.8000  152.3790 C   0  0  0  0  0  2  0  0  0  0  0  0
  160.8170  202.0910  148.4430 C   0  0  0  0  0  0  0  0  0  0  0  0
  160.5960  200.9180  148.2750 C   0  0  0  0  0  3  0  0  0  0  0  0
  161.7250  211.5970  149.3680 N   0  0  0  0  0  2  0  0  0  0  0  0
  160.1750  211.8980  147.6370 O   0  0  0  0  0  0  0  0  0  0  0  0
  161.0460  212.4000  148.3950 C   0  0  0  0  0  0  0  0  0  0  0  0
  161.4150  213.8320  148.2410 C   0  0  0  0  0  2  0  0  0  0  0  0
  160.8650  214.3380  146.9970 N   0  0  0  0  0  2  0  0  0  0  0  0
  161.4900  213.6010  145.9080 C   0  0  2  0  0  3  0  0  0  0  0  0
  163.3110  213.2920  144.6860 C   0  0  0  0  0  1  0  0  0  0  0  0
  162.7200  214.1830  145.5810 O   0  0  0  0  0  0  0  0  0  0  0  0
  160.5910  213.6020  144.7100 C   0  0  0  0  0  0  0  0  0  0  0  0
  160.7370  214.4520  143.8470 O   0  0  0  0  0  0  0  0  0  0  0  0
  158.2670  213.1110  145.1240 N   0  0  0  0  0  1  0  0  0  0  0  0
  159.5030  212.5850  144.5750 C   0  0  0  0  0  2  0  0  0  0  0  0
  160.4620  210.6260  152.8360 C   0  0  0  0  0  0  0  0  0  0  0  0
  160.2650  210.2750  154.1000 C   0  0  0  0  0  3  0  0  0  0  0  0
  160.1550  211.2590  155.1270 N   0  0  0  0  0  2  0  0  0  0  0  0
  160.9810  212.3070  157.0240 O   0  0  0  0  0  0  0  0  0  0  0  0
  161.0590  211.3310  156.2300 C   0  0  0  0  0  0  0  0  0  0  0  0
  163.4210  210.6990  155.7540 C   0  0  0  0  0  2  0  0  0  0  0  0
  162.1220  210.2880  156.4260 C   0  0  0  0  0  3  0  0  0  0  0  0
  163.2570  210.8750  157.2450 C   0  0  0  0  0  2  0  0  0  0  0  0
  159.5650  212.6010  151.8290 O   0  0  0  0  0  1  0  0  0  0  0  0
  160.5460  211.9810  152.4960 O   0  0  0  0  0  0  0  0  0  0  0  0
  1 18  1  1  0  0  0
  1  7  1  0  0  0  0
  2  5  1  6  0  0  0
  2  7  1  0  0  0  0
  2  4  1  0  0  0  0
  3  8  1  0  0  0  0
  3 30  1  1  0  0  0
  4  8  1  6  0  0  0
  6  5  1  0  0  0  0
  6  1  1  0  0  0  0
  7  3  1  0  0  0  0
  9 12  1  0  0  0  0
  9 13  2  0  0  0  0
 10  4  1  0  0  0  0
 10 11  1  0  0  0  0
 12 10  1  0  0  0  0
 13 15  1  0  0  0  0
 14  9  1  0  0  0  0
 15 11  1  0  0  0  0
 16 14  1  0  0  0  0
 17 16  3  0  0  0  0
 19 20  2  0  0  0  0
 20 18  1  0  0  0  0
 21 20  1  0  0  0  0
 22 21  1  0  0  0  0
 23 22  1  0  0  0  0
 24 25  1  0  0  0  0
 25 23  1  0  0  0  0
 26 23  1  0  0  0  0
 27 26  2  0  0  0  0
 29 26  1  0  0  0  0
 29 28  1  0  0  0  0
 30 31  2  0  0  0  0
 31 32  1  0  0  0  0
 32 34  1  0  0  0  0
 34 36  1  0  0  0  0
 34 33  2  0  0  0  0
 35 36  1  0  0  0  0
 35 37  1  0  0  0  0
 36 37  1  0  0  0  0
 38 39  1  0  0  0  0
 39 30  1  0  0  0  0
M  END
>  <MODEL>
6

>  <REMARK>
 VINA RESULT:      -5.5      3.296      8.858
  Name = 
  13 active torsions:
  status: ('A' for Active; 'I' for Inactive)
    1  A    between atoms: N_3  and  C_37
    2  A    between atoms: C_4  and  N_22
    3  A    between atoms: C_6  and  C_12
    4  A    between atoms: C_6  and  C_31
    5  A    between atoms: C_7  and  N_20
    6  A    between atoms: C_7  and  C_39
    7  A    between atoms: C_10  and  C_15
    8  A    between atoms: C_11  and  C_23
    9  A    between atoms: C_12  and  N_20
   10  A    between atoms: C_12  and  O_24
   11  A    between atoms: C_17  and  C_18
   12  A    between atoms: C_17  and  O_33
   13  A    between atoms: C_27  and  N_32
                            x       y       z     vdW  Elec       q    Type
                         _______ _______ _______ _____ _____    ______ ____

>  <TORSDO>
F 13

$$$$
=
 OpenBabel11042421203D

 39 42  0  0  1  0  0  0  0  0999 V2000
  161.1490  208.5950  150.2430 C   0  0  1  0  0  3  0  0  0  0  0  0
  161.8810  206.5760  149.3640 C   0  0  1  0  0  3  0  0  0  0  0  0
  160.8240  206.3780  151.4480 C   0  0  1  0  0  3  0  0  0  0  0  0
  161.3870  205.3400  149.4010 C   0  0  1  0  0  3  0  0  0  0  0  0
  161.8710  207.4820  148.1880 C   0  0  0  0  0  2  0  0  0  0  0  0
  161.6050  208.8510  148.8050 C   0  0  0  0  0  2  0  0  0  0  0  0
  161.7650  207.2690  150.6480 C   0  0  2  0  0  3  0  0  0  0  0  0
  160.8930  205.0090  150.7660 C   0  0  0  0  0  2  0  0  0  0  0  0
  161.2520  202.0830  147.3710 C   0  0  0  0  0  0  0  0  0  0  0  0
  161.1060  204.4610  148.2140 C   0  0  1  0  0  3  0  0  0  0  0  0
  162.0080  204.8000  147.0350 C   0  0  0  0  0  2  0  0  0  0  0  0
  161.2290  202.9830  148.5800 C   0  0  0  0  0  2  0  0  0  0  0  0
  161.4630  202.5540  146.1720 N   0  0  0  0  0  0  0  0  0  0  0  0
  161.1710  200.6720  147.5850 N   0  0  0  0  0  2  0  0  0  0  0  0
  161.5470  203.9780  145.8410 C   0  0  0  0  0  2  0  0  0  0  0  0
  161.2090  199.7470  146.5300 C   0  0  0  0  0  0  0  0  0  0  0  0
  161.2430  198.9530  145.6240 C   0  0  0  0  0  3  0  0  0  0  0  0
  161.5540  209.6730  151.1390 N   0  0  0  0  0  2  0  0  0  0  0  0
  159.5430  209.8510  152.3270 O   0  0  0  0  0  0  0  0  0  0  0  0
  160.7110  210.2760  152.1280 C   0  0  0  0  0  0  0  0  0  0  0  0
  161.2020  211.4550  152.8900 C   0  0  0  0  0  2  0  0  0  0  0  0
  160.0870  212.3380  153.1800 N   0  0  0  0  0  2  0  0  0  0  0  0
  159.5010  212.7370  151.9080 C   0  0  2  0  0  3  0  0  0  0  0  0
  160.1900  213.4440  149.9250 C   0  0  0  0  0  1  0  0  0  0  0  0
  160.3090  213.7000  151.2910 O   0  0  0  0  0  0  0  0  0  0  0  0
  158.1280  213.2920  152.1310 C   0  0  0  0  0  0  0  0  0  0  0  0
  157.3300  213.3170  151.2090 O   0  0  0  0  0  0  0  0  0  0  0  0
  156.7600  212.9630  154.0900 N   0  0  0  0  0  1  0  0  0  0  0  0
  157.7370  213.8370  153.4670 C   0  0  0  0  0  2  0  0  0  0  0  0
  161.2330  206.2960  152.8880 C   0  0  0  0  0  0  0  0  0  0  0  0
  160.4620  206.8860  153.7940 C   0  0  0  0  0  3  0  0  0  0  0  0
  160.7840  206.8290  155.1820 N   0  0  0  0  0  2  0  0  0  0  0  0
  160.9710  207.8410  157.2600 O   0  0  0  0  0  0  0  0  0  0  0  0
  160.8110  207.9870  156.0180 C   0  0  0  0  0  0  0  0  0  0  0  0
  159.2840  209.9510  155.8990 C   0  0  0  0  0  2  0  0  0  0  0  0
  160.6070  209.3590  155.4430 C   0  0  0  0  0  3  0  0  0  0  0  0
  160.5690  210.3760  156.5700 C   0  0  0  0  0  2  0  0  0  0  0  0
  163.4320  205.4530  152.4700 O   0  0  0  0  0  1  0  0  0  0  0  0
  162.3910  205.6240  153.2950 O   0  0  0  0  0  0  0  0  0  0  0  0
  1  7  1  0  0  0  0
  1 18  1  1  0  0  0
  2  5  1  6  0  0  0
  2  4  1  0  0  0  0
  2  7  1  0  0  0  0
  3 30  1  1  0  0  0
  4  8  1  6  0  0  0
  5  6  1  0  0  0  0
  6  1  1  0  0  0  0
  7  3  1  0  0  0  0
  8  3  1  0  0  0  0
  9 14  1  0  0  0  0
  9 12  1  0  0  0  0
 10 12  1  0  0  0  0
 10  4  1  0  0  0  0
 11 10  1  0  0  0  0
 13  9  2  0  0  0  0
 15 13  1  0  0  0  0
 15 11  1  0  0  0  0
 16 14  1  0  0  0  0
 17 16  3  0  0  0  0
 18 20  1  0  0  0  0
 20 19  2  0  0  0  0
 20 21  1  0  0  0  0
 21 22  1  0  0  0  0
 23 26  1  0  0  0  0
 23 22  1  0  0  0  0
 24 25  1  0  0  0  0
 25 23  1  0  0  0  0
 26 29  1  0  0  0  0
 27 26  2  0  0  0  0
 29 28  1  0  0  0  0
 30 39  1  0  0  0  0
 30 31  2  0  0  0  0
 31 32  1  0  0  0  0
 32 34  1  0  0  0  0
 34 33  2  0  0  0  0
 35 37  1  0  0  0  0
 36 35  1  0  0  0  0
 36 34  1  0  0  0  0
 36 37  1  0  0  0  0
 38 39  1  0  0  0  0
M  END
>  <MODEL>
7

>  <REMARK>
 VINA RESULT:      -5.2      2.922     10.094
  Name = 
  13 active torsions:
  status: ('A' for Active; 'I' for Inactive)
    1  A    between atoms: N_3  and  C_37
    2  A    between atoms: C_4  and  N_22
    3  A    between atoms: C_6  and  C_12
    4  A    between atoms: C_6  and  C_31
    5  A    between atoms: C_7  and  N_20
    6  A    between atoms: C_7  and  C_39
    7  A    between atoms: C_10  and  C_15
    8  A    between atoms: C_11  and  C_23
    9  A    between atoms: C_12  and  N_20
   10  A    between atoms: C_12  and  O_24
   11  A    between atoms: C_17  and  C_18
   12  A    between atoms: C_17  and  O_33
   13  A    between atoms: C_27  and  N_32
                            x       y       z     vdW  Elec       q    Type
                         _______ _______ _______ _____ _____    ______ ____

>  <TORSDO>
F 13

$$$$
=
 OpenBabel11042421203D

 39 42  0  0  1  0  0  0  0  0999 V2000
  162.2530  209.0840  151.1900 C   0  0  1  0  0  3  0  0  0  0  0  0
  160.4810  209.3390  152.6670 C   0  0  1  0  0  3  0  0  0  0  0  0
  161.9010  207.5460  153.1850 C   0  0  1  0  0  3  0  0  0  0  0  0
  160.3640  209.1560  153.9800 C   0  0  1  0  0  3  0  0  0  0  0  0
  160.5450  210.6510  151.9730 C   0  0  0  0  0  2  0  0  0  0  0  0
  161.5570  210.4070  150.8600 C   0  0  0  0  0  2  0  0  0  0  0  0
  161.2630  208.2860  152.0160 C   0  0  2  0  0  3  0  0  0  0  0  0
  161.0370  207.8950  154.3990 C   0  0  0  0  0  2  0  0  0  0  0  0
  158.0370  211.8550  155.4090 C   0  0  0  0  0  0  0  0  0  0  0  0
  159.8650  210.1650  154.9760 C   0  0  1  0  0  3  0  0  0  0  0  0
  160.8150  211.3480  155.1040 C   0  0  0  0  0  2  0  0  0  0  0  0
  158.4560  210.6400  154.6230 C   0  0  0  0  0  2  0  0  0  0  0  0
  158.9030  212.5790  156.0630 N   0  0  0  0  0  0  0  0  0  0  0  0
  156.6750  212.2790  155.3110 N   0  0  0  0  0  2  0  0  0  0  0  0
  160.3150  212.2300  156.2390 C   0  0  0  0  0  2  0  0  0  0  0  0
  156.1890  213.4120  155.9820 C   0  0  0  0  0  0  0  0  0  0  0  0
  155.7730  214.3840  156.5590 C   0  0  0  0  0  3  0  0  0  0  0  0
  162.6500  208.3660  149.9830 N   0  0  0  0  0  2  0  0  0  0  0  0
  160.5460  207.4870  149.4470 O   0  0  0  0  0  0  0  0  0  0  0  0
  161.7720  207.5690  149.1780 C   0  0  0  0  0  0  0  0  0  0  0  0
  162.3290  206.7820  148.0460 C   0  0  0  0  0  2  0  0  0  0  0  0
  161.2610  206.4510  147.1210 N   0  0  0  0  0  2  0  0  0  0  0  0
  161.7140  205.3280  146.3120 C   0  0  2  0  0  3  0  0  0  0  0  0
  163.6840  204.3220  146.1860 C   0  0  0  0  0  1  0  0  0  0  0  0
  163.0410  205.5290  145.9140 O   0  0  0  0  0  0  0  0  0  0  0  0
  160.8380  205.1820  145.1060 C   0  0  0  0  0  0  0  0  0  0  0  0
  160.4880  206.1760  144.4910 O   0  0  0  0  0  0  0  0  0  0  0  0
  160.8600  202.8180  145.5800 N   0  0  0  0  0  1  0  0  0  0  0  0
  160.3690  203.8320  144.6660 C   0  0  0  0  0  2  0  0  0  0  0  0
  161.9420  206.0670  152.9460 C   0  0  0  0  0  0  0  0  0  0  0  0
  160.8490  205.3590  153.2020 C   0  0  0  0  0  3  0  0  0  0  0  0
  160.8170  203.9500  152.9770 N   0  0  0  0  0  2  0  0  0  0  0  0
  160.8610  202.1280  151.5440 O   0  0  0  0  0  0  0  0  0  0  0  0
  160.7500  203.3770  151.6700 C   0  0  0  0  0  0  0  0  0  0  0  0
  161.7820  204.0860  149.5170 C   0  0  0  0  0  2  0  0  0  0  0  0
  160.5970  204.2450  150.4530 C   0  0  0  0  0  3  0  0  0  0  0  0
  160.4880  203.3660  149.2200 C   0  0  0  0  0  2  0  0  0  0  0  0
  163.8600  205.9750  151.5200 O   0  0  0  0  0  1  0  0  0  0  0  0
  163.0890  205.4240  152.4650 O   0  0  0  0  0  0  0  0  0  0  0  0
  1 18  1  6  0  0  0
  1  7  1  0  0  0  0
  2  5  1  1  0  0  0
  2  4  1  0  0  0  0
  3 30  1  6  0  0  0
  3  8  1  0  0  0  0
  4  8  1  1  0  0  0
  4 10  1  0  0  0  0
  6  1  1  0  0  0  0
  6  5  1  0  0  0  0
  7  2  1  0  0  0  0
  7  3  1  0  0  0  0
  9 13  2  0  0  0  0
 10 11  1  0  0  0  0
 11 15  1  0  0  0  0
 12 10  1  0  0  0  0
 12  9  1  0  0  0  0
 13 15  1  0  0  0  0
 14  9  1  0  0  0  0
 14 16  1  0  0  0  0
 16 17  3  0  0  0  0
 20 19  2  0  0  0  0
 20 18  1  0  0  0  0
 21 20  1  0  0  0  0
 22 21  1  0  0  0  0
 23 22  1  0  0  0  0
 25 24  1  0  0  0  0
 25 23  1  0  0  0  0
 26 23  1  0  0  0  0
 27 26  2  0  0  0  0
 29 26  1  0  0  0  0
 29 28  1  0  0  0  0
 30 31  2  0  0  0  0
 32 31  1  0  0  0  0
 33 34  2  0  0  0  0
 34 32  1  0  0  0  0
 35 36  1  0  0  0  0
 36 34  1  0  0  0  0
 37 35  1  0  0  0  0
 37 36  1  0  0  0  0
 38 39  1  0  0  0  0
 39 30  1  0  0  0  0
M  END
>  <MODEL>
8

>  <REMARK>
 VINA RESULT:      -4.7      2.176      4.741
  Name = 
  13 active torsions:
  status: ('A' for Active; 'I' for Inactive)
    1  A    between atoms: N_3  and  C_37
    2  A    between atoms: C_4  and  N_22
    3  A    between atoms: C_6  and  C_12
    4  A    between atoms: C_6  and  C_31
    5  A    between atoms: C_7  and  N_20
    6  A    between atoms: C_7  and  C_39
    7  A    between atoms: C_10  and  C_15
    8  A    between atoms: C_11  and  C_23
    9  A    between atoms: C_12  and  N_20
   10  A    between atoms: C_12  and  O_24
   11  A    between atoms: C_17  and  C_18
   12  A    between atoms: C_17  and  O_33
   13  A    between atoms: C_27  and  N_32
                            x       y       z     vdW  Elec       q    Type
                         _______ _______ _______ _____ _____    ______ ____

>  <TORSDO>
F 13

$$$$
=
 OpenBabel11042421203D

 39 42  0  0  1  0  0  0  0  0999 V2000
  160.9800  209.4340  150.5510 C   0  0  1  0  0  3  0  0  0  0  0  0
  161.9760  207.6000  149.5350 C   0  0  1  0  0  3  0  0  0  0  0  0
  160.8180  207.0820  151.5070 C   0  0  1  0  0  3  0  0  0  0  0  0
  161.6150  206.3250  149.4150 C   0  0  1  0  0  3  0  0  0  0  0  0
  161.9450  208.6190  148.4550 C   0  0  0  0  0  2  0  0  0  0  0  0
  161.4960  209.8820  149.1810 C   0  0  0  0  0  2  0  0  0  0  0  0
  161.7070  208.1420  150.8690 C   0  0  2  0  0  3  0  0  0  0  0  0
  161.0750  205.8060  150.7020 C   0  0  0  0  0  2  0  0  0  0  0  0
  161.2040  203.2280  147.1830 C   0  0  0  0  0  0  0  0  0  0  0  0
  161.5050  205.5510  148.1320 C   0  0  1  0  0  3  0  0  0  0  0  0
  162.8130  205.5620  147.3520 C   0  0  0  0  0  2  0  0  0  0  0  0
  161.0430  204.1170  148.3890 C   0  0  0  0  0  2  0  0  0  0  0  0
  161.9440  203.5800  146.1670 N   0  0  0  0  0  0  0  0  0  0  0  0
  160.6320  201.9190  147.2350 N   0  0  0  0  0  2  0  0  0  0  0  0
  162.5620  204.8980  146.0070 C   0  0  0  0  0  2  0  0  0  0  0  0
  160.7460  201.0040  146.1760 C   0  0  0  0  0  0  0  0  0  0  0  0
  160.8430  200.2190  145.2680 C   0  0  0  0  0  3  0  0  0  0  0  0
  161.2100  210.4480  151.5750 N   0  0  0  0  0  2  0  0  0  0  0  0
  159.0120  210.5780  152.3730 O   0  0  0  0  0  0  0  0  0  0  0  0
  160.1970  210.9980  152.4250 C   0  0  0  0  0  0  0  0  0  0  0  0
  160.5380  212.1200  153.3390 C   0  0  0  0  0  2  0  0  0  0  0  0
  159.8570  213.3240  152.8980 N   0  0  0  0  0  2  0  0  0  0  0  0
  158.8790  213.6740  153.9170 C   0  0  2  0  0  3  0  0  0  0  0  0
  159.1950  213.7870  156.1070 C   0  0  0  0  0  1  0  0  0  0  0  0
  159.0690  212.8810  155.0550 O   0  0  0  0  0  0  0  0  0  0  0  0
  157.4930  213.4760  153.3840 C   0  0  0  0  0  0  0  0  0  0  0  0
  157.2390  213.7940  152.2340 O   0  0  0  0  0  0  0  0  0  0  0  0
  155.4110  213.9310  154.5120 N   0  0  0  0  0  1  0  0  0  0  0  0
  156.4170  212.9160  154.2570 C   0  0  0  0  0  2  0  0  0  0  0  0
  161.1410  206.8920  152.9590 C   0  0  0  0  0  0  0  0  0  0  0  0
  160.7630  207.8340  153.8140 C   0  0  0  0  0  3  0  0  0  0  0  0
  161.0230  207.7050  155.2110 N   0  0  0  0  0  2  0  0  0  0  0  0
  161.6210  208.6270  157.2530 O   0  0  0  0  0  0  0  0  0  0  0  0
  161.5450  208.7720  156.0030 C   0  0  0  0  0  0  0  0  0  0  0  0
  161.6910  211.2410  156.3040 C   0  0  0  0  0  2  0  0  0  0  0  0
  161.9580  210.0720  155.3720 C   0  0  0  0  0  3  0  0  0  0  0  0
  163.0900  210.6840  156.1760 C   0  0  0  0  0  2  0  0  0  0  0  0
  161.2250  204.5660  153.5080 O   0  0  0  0  0  1  0  0  0  0  0  0
  161.8210  205.7620  153.4260 O   0  0  0  0  0  0  0  0  0  0  0  0
  1  7  1  0  0  0  0
  1 18  1  1  0  0  0
  2  5  1  6  0  0  0
  2  7  1  0  0  0  0
  3 30  1  1  0  0  0
  4  2  1  0  0  0  0
  4  8  1  6  0  0  0
  5  6  1  0  0  0  0
  6  1  1  0  0  0  0
  7  3  1  0  0  0  0
  8  3  1  0  0  0  0
  9 14  1  0  0  0  0
  9 12  1  0  0  0  0
 10 12  1  0  0  0  0
 10  4  1  0  0  0  0
 11 10  1  0  0  0  0
 13  9  2  0  0  0  0
 15 13  1  0  0  0  0
 15 11  1  0  0  0  0
 16 14  1  0  0  0  0
 17 16  3  0  0  0  0
 18 20  1  0  0  0  0
 19 20  2  0  0  0  0
 20 21  1  0  0  0  0
 22 21  1  0  0  0  0
 22 23  1  0  0  0  0
 23 25  1  0  0  0  0
 25 24  1  0  0  0  0
 26 23  1  0  0  0  0
 26 29  1  0  0  0  0
 27 26  2  0  0  0  0
 29 28  1  0  0  0  0
 30 39  1  0  0  0  0
 30 31  2  0  0  0  0
 31 32  1  0  0  0  0
 32 34  1  0  0  0  0
 34 33  2  0  0  0  0
 36 34  1  0  0  0  0
 36 37  1  0  0  0  0
 36 35  1  0  0  0  0
 37 35  1  0  0  0  0
 39 38  1  0  0  0  0
M  END
>  <MODEL>
9

>  <REMARK>
 VINA RESULT:      -4.6      3.130     10.136
  Name = 
  13 active torsions:
  status: ('A' for Active; 'I' for Inactive)
    1  A    between atoms: N_3  and  C_37
    2  A    between atoms: C_4  and  N_22
    3  A    between atoms: C_6  and  C_12
    4  A    between atoms: C_6  and  C_31
    5  A    between atoms: C_7  and  N_20
    6  A    between atoms: C_7  and  C_39
    7  A    between atoms: C_10  and  C_15
    8  A    between atoms: C_11  and  C_23
    9  A    between atoms: C_12  and  N_20
   10  A    between atoms: C_12  and  O_24
   11  A    between atoms: C_17  and  C_18
   12  A    between atoms: C_17  and  O_33
   13  A    between atoms: C_27  and  N_32
                            x       y       z     vdW  Elec       q    Type
                         _______ _______ _______ _____ _____    ______ ____

>  <TORSDO>
F 13

$$$$
