=
 OpenBabel11042422583D

 62 68  0  0  1  0  0  0  0  0999 V2000
  162.0610  208.8190  150.8970 O   0  0  0  0  0  0  0  0  0  0  0  0
  160.8780  203.3450  151.0230 C   0  0  1  0  0  3  0  0  0  0  0  0
  161.5990  208.8090  148.5310 C   0  0  2  0  0  3  0  0  0  0  0  0
  160.8010  202.5490  146.6140 C   0  0  0  0  0  0  0  0  0  0  0  0
  160.5290  209.1440  153.1790 O   0  0  0  0  0  0  0  0  0  0  0  0
  161.4550  203.6720  152.3530 C   0  0  1  0  0  3  0  0  0  0  0  0
  161.8930  204.6700  146.9720 C   0  0  0  0  0  0  0  0  0  0  0  0
  161.0390  208.9270  149.9450 C   0  0  0  0  0  2  0  0  0  0  0  0
  161.7140  203.0930  148.7300 C   0  0  0  0  0  0  0  0  0  0  0  0
  162.1250  204.2990  148.2600 N   0  0  0  0  0  0  0  0  0  0  0  0
  162.0960  207.5210  148.3200 O   0  0  0  0  0  0  0  0  0  0  0  0
  161.6960  207.7800  151.6900 N   0  0  0  0  0  2  0  0  0  0  0  0
  161.0540  202.2350  147.9090 N   0  0  0  0  0  0  0  0  0  0  0  0
  161.2200  203.7950  146.1000 C   0  0  0  0  0  0  0  0  0  0  0  0
  160.6160  204.7390  153.0190 C   0  0  0  0  0  2  0  0  0  0  0  0
  160.9470  207.9900  152.8910 C   0  0  0  0  0  0  0  0  0  0  0  0
  161.9510  202.7230  150.1500 C   0  0  0  0  0  2  0  0  0  0  0  0
  160.6030  206.8230  153.7730 C   0  0  1  0  0  3  0  0  0  0  0  0
  161.4510  205.7370  153.5200 O   0  0  0  0  0  0  0  0  0  0  0  0
  160.6620  202.5240  152.1500 O   0  0  0  0  0  0  0  0  0  0  0  0
  160.0800  201.5520  145.7680 C   0  0  0  0  0  1  0  0  0  0  0  0
  162.3620  206.0100  146.4990 C   0  0  0  0  0  2  0  0  0  0  0  0
  161.5190  207.1080  147.1120 C   0  0  0  0  0  2  0  0  0  0  0  0
  161.9940  205.2440  144.2140 C   0  0  0  0  0  1  0  0  0  0  0  0
  160.9880  204.2040  144.6650 C   0  0  2  0  0  3  0  0  0  0  0  0
  159.6850  204.6700  144.4780 O   0  0  0  0  0  0  0  0  0  0  0  0
  159.0320  203.6390  143.8000 C   0  0  0  0  0  1  0  0  0  0  0  0
  162.6910  209.8490  148.2910 C   0  0  0  0  0  2  0  0  0  0  0  0
  162.9820  211.8860  147.1400 C   0  0  0  0  0  2  0  0  0  0  0  0
  162.4050  213.2700  146.8840 C   0  0  2  0  0  0  0  0  0  0  0  0
  162.0050  211.8540  149.3030 C   0  0  0  0  0  2  0  0  0  0  0  0
  161.9490  214.0790  148.0960 C   0  0  0  0  0  2  0  0  0  0  0  0
  162.0830  211.1430  148.0240 N   0  0  0  0  0  0  0  0  0  0  0  0
  161.4360  213.2650  145.8720 O   0  0  0  0  0  0  0  0  0  0  0  0
  161.2490  213.1830  149.1310 C   0  0  1  0  0  3  0  0  0  0  0  0
  162.6220  213.9790  145.6000 C   0  0  2  0  0  3  0  0  0  0  0  0
  163.4110  213.2330  144.7240 O   0  0  0  0  0  0  0  0  0  0  0  0
  163.8330  214.1390  143.7520 C   0  0  0  0  0  2  0  0  0  0  0  0
  162.9770  213.9950  142.5130 C   0  0  0  0  0  1  0  0  0  0  0  0
  159.7930  212.9530  148.7480 C   0  0  0  0  0  2  0  0  0  0  0  0
  156.7730  214.3090  150.3390 O   0  0  0  0  0  0  0  0  0  0  0  0
  157.4780  213.6340  149.5420 C   0  0  0  0  0  0  0  0  0  0  0  0
  156.8110  212.8400  148.4750 C   0  0  0  0  0  1  0  0  0  0  0  0
  158.9020  213.6560  149.6650 N   0  0  0  0  0  2  0  0  0  0  0  0
  160.6360  207.1800  155.2600 C   0  0  0  0  0  2  0  0  0  0  0  0
  161.6500  208.2770  155.5660 C   0  0  0  0  0  2  0  0  0  0  0  0
  160.9950  209.4380  156.2390 C   0  0  0  0  0  0  0  0  0  0  0  0
  161.2230  210.7680  155.7610 N   0  0  0  0  0  2  0  0  0  0  0  0
  160.2880  209.2400  157.2580 O   0  0  0  0  0  0  0  0  0  0  0  0
  160.6180  211.9500  156.3620 C   0  0  1  0  0  3  0  0  0  0  0  0
  159.5270  212.5410  155.5210 C   0  0  2  0  0  3  0  0  0  0  0  0
  159.2560  211.7100  156.6270 O   0  0  0  0  0  0  0  0  0  0  0  0
  159.2030  211.7890  154.2210 C   0  0  1  0  0  3  0  0  0  0  0  0
  157.7050  211.8760  153.8910 C   0  0  2  0  0  3  0  0  0  0  0  0
  157.1580  213.6120  153.7520 S   0  0  0  0  0  0  0  0  0  0  0  0
  156.9160  211.2170  154.9210 N   0  0  0  0  0  2  0  0  0  0  0  0
  155.5640  211.7290  154.7870 C   0  0  0  0  0  2  0  0  0  0  0  0
  154.4410  213.7580  153.9240 C   0  0  0  0  0  1  0  0  0  0  0  0
  155.6490  213.2300  154.6680 C   0  0  2  0  0  3  0  0  0  0  0  0
  159.9610  213.5470  152.7760 O   0  0  0  0  0  1  0  0  0  0  0  0
  160.9030  211.4910  152.4160 O   0  0  0  0  0  0  0  0  0  0  0  0
  160.0360  212.3350  153.1010 C   0  0  0  0  0  0  0  0  0  0  0  0
  1 12  1  0  0  0  0
  2 17  1  6  0  0  0
  2 20  1  0  0  0  0
  2  6  1  0  0  0  0
  3 28  1  1  0  0  0
  3  8  1  0  0  0  0
  4 13  2  0  0  0  0
  6 15  1  1  0  0  0
  7 10  1  0  0  0  0
  8  1  1  0  0  0  0
  9 17  1  0  0  0  0
 10  9  2  0  0  0  0
 11  3  1  0  0  0  0
 12 16  1  0  0  0  0
 13  9  1  0  0  0  0
 14  4  1  0  0  0  0
 14  7  2  0  0  0  0
 15 19  1  0  0  0  0
 16  5  2  0  0  0  0
 16 18  1  0  0  0  0
 18 45  1  1  0  0  0
 19 18  1  0  0  0  0
 20  6  1  0  0  0  0
 21  4  1  0  0  0  0
 22  7  1  0  0  0  0
 22 23  1  0  0  0  0
 23 11  1  0  0  0  0
 25 24  1  1  0  0  0
 25 14  1  0  0  0  0
 26 25  1  0  0  0  0
 27 26  1  0  0  0  0
 29 33  1  0  0  0  0
 30 29  1  1  0  0  0
 30 32  1  0  0  0  0
 32 35  1  0  0  0  0
 33 28  1  0  0  0  0
 33 31  1  0  0  0  0
 34 30  1  0  0  0  0
 35 40  1  6  0  0  0
 35 31  1  0  0  0  0
 36 37  1  6  0  0  0
 36 34  1  0  0  0  0
 36 30  1  0  0  0  0
 38 37  1  0  0  0  0
 39 38  1  0  0  0  0
 40 44  1  0  0  0  0
 42 44  1  0  0  0  0
 42 41  2  0  0  0  0
 43 42  1  0  0  0  0
 45 46  1  0  0  0  0
 46 47  1  0  0  0  0
 47 49  2  0  0  0  0
 48 47  1  0  0  0  0
 50 48  1  6  0  0  0
 50 52  1  0  0  0  0
 51 53  1  6  0  0  0
 51 50  1  0  0  0  0
 51 52  1  0  0  0  0
 53 62  1  6  0  0  0
 54 53  1  1  0  0  0
 54 56  1  0  0  0  0
 55 54  1  0  0  0  0
 55 59  1  0  0  0  0
 57 56  1  0  0  0  0
 59 58  1  6  0  0  0
 59 57  1  0  0  0  0
 60 62  1  0  0  0  0
 61 62  2  0  0  0  0
M  END
>  <MODEL>
1

>  <REMARK>
 VINA RESULT:      -4.8      0.000      0.000
  Name = 
  15 active torsions:
  status: ('A' for Active; 'I' for Inactive)
    1  A    between atoms: C_1  and  C_30
    2  A    between atoms: C_4  and  C_53
    3  A    between atoms: C_5  and  N_10
    4  A    between atoms: C_8  and  C_41
    5  A    between atoms: C_17  and  C_30
    6  A    between atoms: O_22  and  C_45
    7  A    between atoms: O_22  and  C_60
    8  A    between atoms: N_24  and  C_41
    9  A    between atoms: C_26  and  C_39
   10  A    between atoms: C_26  and  O_44
   11  A    between atoms: C_30  and  C_34
   12  A    between atoms: C_37  and  C_51
   13  A    between atoms: C_49  and  C_61
   14  A    between atoms: C_51  and  N_52
   15  A    between atoms: C_53  and  C_61
                            x       y       z     vdW  Elec       q    Type
                         _______ _______ _______ _____ _____    ______ ____

>  <TORSDO>
F 15

$$$$
=
 OpenBabel11042422583D

 62 68  0  0  1  0  0  0  0  0999 V2000
  160.9870  209.1080  152.7700 O   0  0  0  0  0  0  0  0  0  0  0  0
  161.6420  206.7060  147.7530 C   0  0  1  0  0  3  0  0  0  0  0  0
  161.3090  206.9470  153.7880 C   0  0  2  0  0  3  0  0  0  0  0  0
  161.3880  202.4090  149.0020 C   0  0  0  0  0  0  0  0  0  0  0  0
  162.6710  211.1460  151.9510 O   0  0  0  0  0  0  0  0  0  0  0  0
  161.1770  208.0920  147.4870 C   0  0  1  0  0  3  0  0  0  0  0  0
  160.5290  203.7640  150.8030 C   0  0  0  0  0  0  0  0  0  0  0  0
  161.9580  208.2100  153.2290 C   0  0  0  0  0  2  0  0  0  0  0  0
  160.6550  204.6240  148.6010 C   0  0  0  0  0  0  0  0  0  0  0  0
  160.3360  204.7740  149.9120 N   0  0  0  0  0  0  0  0  0  0  0  0
  160.6790  206.2400  152.7620 O   0  0  0  0  0  0  0  0  0  0  0  0
  161.2950  209.3260  151.4670 N   0  0  0  0  0  2  0  0  0  0  0  0
  161.1810  203.4520  148.1600 N   0  0  0  0  0  0  0  0  0  0  0  0
  161.0630  202.5370  150.3690 C   0  0  0  0  0  0  0  0  0  0  0  0
  162.1510  209.0770  148.0930 C   0  0  0  0  0  2  0  0  0  0  0  0
  162.1280  210.4210  151.0740 C   0  0  0  0  0  0  0  0  0  0  0  0
  160.4650  205.7530  147.6520 C   0  0  0  0  0  2  0  0  0  0  0  0
  162.4080  210.6640  149.6170 C   0  0  1  0  0  3  0  0  0  0  0  0
  161.4460  210.0410  148.8120 O   0  0  0  0  0  0  0  0  0  0  0  0
  161.8420  207.3310  146.5040 O   0  0  0  0  0  0  0  0  0  0  0  0
  161.9600  201.1470  148.4450 C   0  0  0  0  0  1  0  0  0  0  0  0
  160.1650  203.9740  152.2390 C   0  0  0  0  0  2  0  0  0  0  0  0
  161.1430  204.9240  152.8960 C   0  0  0  0  0  2  0  0  0  0  0  0
  162.6950  201.2970  151.8030 C   0  0  0  0  0  1  0  0  0  0  0  0
  161.2500  201.4130  151.3600 C   0  0  2  0  0  3  0  0  0  0  0  0
  160.7990  200.1990  150.8370 O   0  0  0  0  0  0  0  0  0  0  0  0
  159.4760  200.4420  150.4660 C   0  0  0  0  0  1  0  0  0  0  0  0
  160.3110  207.2920  154.8910 C   0  0  0  0  0  2  0  0  0  0  0  0
  161.1820  209.0680  156.1720 C   0  0  0  0  0  2  0  0  0  0  0  0
  161.1230  210.5660  156.4360 C   0  0  2  0  0  0  0  0  0  0  0  0
  158.9070  209.0760  155.4940 C   0  0  0  0  0  2  0  0  0  0  0  0
  159.7430  211.2010  156.5870 C   0  0  0  0  0  2  0  0  0  0  0  0
  160.2700  208.7340  155.0780 N   0  0  0  0  0  0  0  0  0  0  0  0
  161.9340  211.2940  155.5550 O   0  0  0  0  0  0  0  0  0  0  0  0
  158.7430  210.6020  155.5850 C   0  0  1  0  0  3  0  0  0  0  0  0
  162.3070  211.3180  156.9160 C   0  0  2  0  0  3  0  0  0  0  0  0
  163.4110  210.4850  157.1000 O   0  0  0  0  0  0  0  0  0  0  0  0
  164.4950  211.3470  157.2600 C   0  0  0  0  0  2  0  0  0  0  0  0
  165.0110  211.7770  155.9040 C   0  0  0  0  0  1  0  0  0  0  0  0
  158.8880  211.2630  154.2200 C   0  0  0  0  0  2  0  0  0  0  0  0
  156.5540  213.8870  153.1420 O   0  0  0  0  0  0  0  0  0  0  0  0
  157.6530  213.3200  153.3840 C   0  0  0  0  0  0  0  0  0  0  0  0
  158.9200  214.0750  153.1860 C   0  0  0  0  0  1  0  0  0  0  0  0
  157.6640  211.9710  153.8580 N   0  0  0  0  0  2  0  0  0  0  0  0
  162.4960  212.1520  149.2760 C   0  0  0  0  0  2  0  0  0  0  0  0
  162.7920  212.3870  147.7990 C   0  0  0  0  0  2  0  0  0  0  0  0
  161.6360  213.0460  147.1200 C   0  0  0  0  0  0  0  0  0  0  0  0
  161.5490  213.0520  145.6910 N   0  0  0  0  0  2  0  0  0  0  0  0
  160.7720  213.6400  147.8130 O   0  0  0  0  0  0  0  0  0  0  0  0
  160.4530  213.6720  144.9580 C   0  0  1  0  0  3  0  0  0  0  0  0
  160.6720  213.6790  143.4750 C   0  0  2  0  0  3  0  0  0  0  0  0
  159.8500  212.7250  144.1070 O   0  0  0  0  0  0  0  0  0  0  0  0
  161.9630  213.0020  142.9860 C   0  0  1  0  0  3  0  0  0  0  0  0
  161.7910  212.4490  141.5630 C   0  0  2  0  0  3  0  0  0  0  0  0
  160.6760  213.5020  140.5730 S   0  0  0  0  0  0  0  0  0  0  0  0
  161.2490  211.0990  141.6020 N   0  0  0  0  0  2  0  0  0  0  0  0
  160.7010  210.8430  140.2820 C   0  0  0  0  0  2  0  0  0  0  0  0
  159.8020  212.1430  138.3780 C   0  0  0  0  0  1  0  0  0  0  0  0
  159.8710  212.0390  139.8860 C   0  0  2  0  0  3  0  0  0  0  0  0
  163.4740  214.4510  144.1560 O   0  0  0  0  0  1  0  0  0  0  0  0
  163.7490  214.3570  141.8850 O   0  0  0  0  0  0  0  0  0  0  0  0
  163.1000  213.9760  143.0540 C   0  0  0  0  0  0  0  0  0  0  0  0
  1  8  1  0  0  0  0
  2 17  1  6  0  0  0
  3 28  1  1  0  0  0
  4 14  1  0  0  0  0
  6  2  1  0  0  0  0
  6 15  1  1  0  0  0
  7 22  1  0  0  0  0
  8  3  1  0  0  0  0
  9 10  2  0  0  0  0
 10  7  1  0  0  0  0
 11 23  1  0  0  0  0
 11  3  1  0  0  0  0
 12  1  1  0  0  0  0
 13  9  1  0  0  0  0
 13  4  2  0  0  0  0
 14  7  2  0  0  0  0
 14 25  1  0  0  0  0
 15 19  1  0  0  0  0
 16 12  1  0  0  0  0
 16  5  2  0  0  0  0
 17  9  1  0  0  0  0
 18 45  1  1  0  0  0
 18 16  1  0  0  0  0
 19 18  1  0  0  0  0
 20  6  1  0  0  0  0
 20  2  1  0  0  0  0
 21  4  1  0  0  0  0
 22 23  1  0  0  0  0
 25 24  1  6  0  0  0
 26 25  1  0  0  0  0
 27 26  1  0  0  0  0
 28 33  1  0  0  0  0
 30 29  1  6  0  0  0
 30 32  1  0  0  0  0
 30 36  1  0  0  0  0
 31 35  1  0  0  0  0
 33 31  1  0  0  0  0
 33 29  1  0  0  0  0
 34 30  1  0  0  0  0
 34 36  1  0  0  0  0
 35 40  1  6  0  0  0
 35 32  1  0  0  0  0
 36 37  1  6  0  0  0
 37 38  1  0  0  0  0
 39 38  1  0  0  0  0
 41 42  2  0  0  0  0
 42 44  1  0  0  0  0
 43 42  1  0  0  0  0
 44 40  1  0  0  0  0
 46 45  1  0  0  0  0
 47 46  1  0  0  0  0
 47 49  2  0  0  0  0
 48 47  1  0  0  0  0
 50 48  1  1  0  0  0
 51 53  1  1  0  0  0
 51 52  1  0  0  0  0
 51 50  1  0  0  0  0
 52 50  1  0  0  0  0
 53 62  1  6  0  0  0
 54 56  1  0  0  0  0
 54 53  1  1  0  0  0
 55 54  1  0  0  0  0
 57 56  1  0  0  0  0
 59 58  1  6  0  0  0
 59 57  1  0  0  0  0
 59 55  1  0  0  0  0
 61 62  2  0  0  0  0
 62 60  1  0  0  0  0
M  END
>  <MODEL>
2

>  <REMARK>
 VINA RESULT:      -2.0      2.899      8.784
  Name = 
  15 active torsions:
  status: ('A' for Active; 'I' for Inactive)
    1  A    between atoms: C_1  and  C_30
    2  A    between atoms: C_4  and  C_53
    3  A    between atoms: C_5  and  N_10
    4  A    between atoms: C_8  and  C_41
    5  A    between atoms: C_17  and  C_30
    6  A    between atoms: O_22  and  C_45
    7  A    between atoms: O_22  and  C_60
    8  A    between atoms: N_24  and  C_41
    9  A    between atoms: C_26  and  C_39
   10  A    between atoms: C_26  and  O_44
   11  A    between atoms: C_30  and  C_34
   12  A    between atoms: C_37  and  C_51
   13  A    between atoms: C_49  and  C_61
   14  A    between atoms: C_51  and  N_52
   15  A    between atoms: C_53  and  C_61
                            x       y       z     vdW  Elec       q    Type
                         _______ _______ _______ _____ _____    ______ ____

>  <TORSDO>
F 15

$$$$
