=
 OpenBabel11042420563D

 46 51  0  0  1  0  0  0  0  0999 V2000
  161.3910  210.4910  152.0440 C   0  0  1  0  0  3  0  0  0  0  0  0
  161.6750  206.4060  147.9720 C   0  0  0  0  0  3  0  0  0  0  0  0
  161.6930  205.9470  152.9950 S   0  0  0  0  0  0  0  0  0  0  0  0
  161.3230  203.9360  148.2080 C   0  0  0  0  0  0  0  0  0  0  0  0
  161.2250  204.8490  150.5650 C   0  0  0  0  0  0  0  0  0  0  0  0
  161.1230  206.1550  150.3630 C   0  0  0  0  0  0  0  0  0  0  0  0
  161.0650  203.8160  149.5210 C   0  0  0  0  0  3  0  0  0  0  0  0
  160.8490  208.1540  151.7060 C   0  0  0  0  0  0  0  0  0  0  0  0
  161.4220  204.4370  151.9920 C   0  0  2  0  0  3  0  0  0  0  0  0
  160.3080  203.7660  152.4510 F   0  0  0  0  0  0  0  0  0  0  0  0
  161.3060  206.9380  151.5720 C   0  0  0  0  0  0  0  0  0  0  0  0
  160.4120  209.3740  151.8610 C   0  0  0  0  0  3  0  0  0  0  0  0
  161.9040  205.1520  147.5880 C   0  0  0  0  0  3  0  0  0  0  0  0
  160.7170  206.7630  149.0560 C   0  0  0  0  0  2  0  0  0  0  0  0
  160.8900  201.6280  147.8790 O   0  0  0  0  0  1  0  0  0  0  0  0
  161.2440  202.8450  145.9750 O   0  0  0  0  0  0  0  0  0  0  0  0
  161.1340  202.7470  147.3600 C   0  0  0  0  0  0  0  0  0  0  0  0
  162.3520  210.2420  153.2160 C   0  0  0  0  0  2  0  0  0  0  0  0
  160.9580  211.4130  154.7890 N   0  0  0  0  0  2  0  0  0  0  0  0
  161.7170  210.3990  154.5750 C   0  0  0  0  0  0  0  0  0  0  0  0
  160.2780  208.7850  155.8360 C   0  0  0  0  0  1  0  0  0  0  0  0
  161.6910  209.2290  155.5200 C   0  0  0  0  0  3  0  0  0  0  0  0
  162.4070  209.5490  156.8190 C   0  0  0  0  0  1  0  0  0  0  0  0
  162.1260  210.7830  150.7380 C   0  0  0  0  0  2  0  0  0  0  0  0
  161.6260  213.4700  148.9030 C   0  0  0  0  0  2  0  0  0  0  0  0
  161.7990  211.1170  148.2690 C   0  0  0  0  0  2  0  0  0  0  0  0
  160.7390  212.6430  149.8190 C   0  0  0  0  0  2  0  0  0  0  0  0
  163.8250  212.5360  148.2290 C   0  0  0  0  0  1  0  0  0  0  0  0
  161.1420  211.1900  149.6390 C   0  0  2  0  0  3  0  0  0  0  0  0
  162.3350  212.4990  147.9640 C   0  0  2  0  0  0  0  0  0  0  0  0
  162.0950  212.8540  146.5320 C   0  0  0  0  0  3  0  0  0  0  0  0
  162.1550  214.0710  146.1250 N   0  0  0  0  0  0  0  0  0  0  0  0
  161.9210  214.3890  144.7430 C   0  0  0  0  0  2  0  0  0  0  0  0
  161.6390  213.1240  143.9480 C   0  0  1  0  0  3  0  0  0  0  0  0
  160.5650  213.3580  143.0690 O   0  0  0  0  0  0  0  0  0  0  0  0
  161.8550  213.3750  142.5100 C   0  0  2  0  0  3  0  0  0  0  0  0
  162.1140  212.0600  141.7990 C   0  0  0  0  0  2  0  0  0  0  0  0
  162.4410  212.3100  140.4010 N   0  0  0  0  0  2  0  0  0  0  0  0
  160.3870  208.5630  138.6100 C   0  0  0  0  0  2  0  0  0  0  0  0
  161.8390  210.5960  138.7670 C   0  0  2  0  0  0  0  0  0  0  0  0
  162.8060  211.0260  139.8130 C   0  0  1  0  0  3  0  0  0  0  0  0
  163.0640  211.1920  138.4280 O   0  0  0  0  0  0  0  0  0  0  0  0
  160.7070  211.4730  138.4660 N   0  0  0  0  0  2  0  0  0  0  0  0
  159.2670  209.5040  138.1480 C   0  0  0  0  0  2  0  0  0  0  0  0
  159.7910  210.8080  137.5470 C   0  0  0  0  0  2  0  0  0  0  0  0
  161.7870  209.1200  138.3790 C   0  0  0  0  0  2  0  0  0  0  0  0
  1 24  1  6  0  0  0
  1 18  1  0  0  0  0
  2 14  1  0  0  0  0
  4  7  2  0  0  0  0
  5  9  1  0  0  0  0
  6  5  2  0  0  0  0
  6 11  1  0  0  0  0
  7  5  1  0  0  0  0
  8 12  2  0  0  0  0
  9 10  1  1  0  0  0
  9  3  1  0  0  0  0
 11  8  2  0  0  0  0
 11  3  1  0  0  0  0
 12  1  1  0  0  0  0
 13  2  2  0  0  0  0
 13  4  1  0  0  0  0
 14  6  1  0  0  0  0
 16 17  2  0  0  0  0
 17 15  1  0  0  0  0
 17  4  1  0  0  0  0
 18 20  1  0  0  0  0
 20 19  2  0  0  0  0
 20 22  1  0  0  0  0
 22 21  1  0  0  0  0
 22 23  1  0  0  0  0
 25 27  1  0  0  0  0
 26 29  1  0  0  0  0
 29 27  1  0  0  0  0
 29 24  1  1  0  0  0
 30 28  1  1  0  0  0
 30 26  1  0  0  0  0
 30 25  1  0  0  0  0
 31 30  1  0  0  0  0
 32 31  2  0  0  0  0
 33 32  1  0  0  0  0
 34 33  1  1  0  0  0
 35 34  1  0  0  0  0
 36 37  1  6  0  0  0
 36 35  1  0  0  0  0
 36 34  1  0  0  0  0
 38 37  1  0  0  0  0
 40 46  1  6  0  0  0
 40 41  1  0  0  0  0
 41 38  1  1  0  0  0
 42 40  1  0  0  0  0
 42 41  1  0  0  0  0
 43 40  1  0  0  0  0
 44 39  1  0  0  0  0
 45 44  1  0  0  0  0
 45 43  1  0  0  0  0
 46 39  1  0  0  0  0
M  END
>  <MODEL>
1

>  <REMARK>
 VINA RESULT:      -8.0      0.000      0.000
  Name = 
  13 active torsions:
  status: ('A' for Active; 'I' for Inactive)
    1  A    between atoms: C_2  and  C_17
    2  A    between atoms: C_2  and  C_35
    3  A    between atoms: C_2  and  C_44
    4  A    between atoms: C_6  and  C_42
    5  A    between atoms: N_9  and  C_10
    6  A    between atoms: N_9  and  C_46
    7  A    between atoms: C_11  and  C_39
    8  A    between atoms: C_17  and  C_23
    9  A    between atoms: C_20  and  C_22
   10  A    between atoms: C_20  and  N_36
   11  A    between atoms: C_23  and  C_30
   12  A    between atoms: C_37  and  C_44
   13  A    between atoms: C_41  and  C_46
                            x       y       z     vdW  Elec       q    Type
                         _______ _______ _______ _____ _____    ______ ____

>  <TORSDO>
F 13

$$$$
=
 OpenBabel11042420563D

 46 51  0  0  1  0  0  0  0  0999 V2000
  161.6800  210.0830  151.3830 C   0  0  1  0  0  3  0  0  0  0  0  0
  160.5930  204.4130  151.5380 C   0  0  0  0  0  3  0  0  0  0  0  0
  161.1790  207.4680  147.5680 S   0  0  0  0  0  0  0  0  0  0  0  0
  160.7960  202.7300  149.6920 C   0  0  0  0  0  0  0  0  0  0  0  0
  161.2570  204.9680  148.6060 C   0  0  0  0  0  0  0  0  0  0  0  0
  161.4240  205.7660  149.6510 C   0  0  0  0  0  0  0  0  0  0  0  0
  161.2090  203.4920  148.6660 C   0  0  0  0  0  3  0  0  0  0  0  0
  162.0070  208.0840  150.0540 C   0  0  0  0  0  0  0  0  0  0  0  0
  161.2130  205.6590  147.2760 C   0  0  2  0  0  3  0  0  0  0  0  0
  162.3260  205.3270  146.5320 F   0  0  0  0  0  0  0  0  0  0  0  0
  161.4520  207.1750  149.2990 C   0  0  0  0  0  0  0  0  0  0  0  0
  162.5460  209.0130  150.7960 C   0  0  0  0  0  3  0  0  0  0  0  0
  160.2280  203.2750  150.9500 C   0  0  0  0  0  3  0  0  0  0  0  0
  161.7040  205.2700  151.0360 C   0  0  0  0  0  2  0  0  0  0  0  0
  160.1160  200.5330  150.2670 O   0  0  0  0  0  1  0  0  0  0  0  0
  161.5510  200.6880  148.4930 O   0  0  0  0  0  0  0  0  0  0  0  0
  160.7910  201.2700  149.5040 C   0  0  0  0  0  0  0  0  0  0  0  0
  161.7800  210.1430  152.9140 C   0  0  0  0  0  2  0  0  0  0  0  0
  159.5290  210.8230  153.4250 N   0  0  0  0  0  2  0  0  0  0  0  0
  160.4610  209.9630  153.6230 C   0  0  0  0  0  0  0  0  0  0  0  0
  159.9360  208.7560  155.7530 C   0  0  0  0  0  1  0  0  0  0  0  0
  160.1360  208.6370  154.2560 C   0  0  0  0  0  3  0  0  0  0  0  0
  161.2220  207.6120  153.9870 C   0  0  0  0  0  1  0  0  0  0  0  0
  161.9670  211.4300  150.7250 C   0  0  0  0  0  2  0  0  0  0  0  0
  161.4170  213.9140  148.6360 C   0  0  0  0  0  2  0  0  0  0  0  0
  161.4440  211.4980  148.2690 C   0  0  0  0  0  2  0  0  0  0  0  0
  160.5800  213.2390  149.7100 C   0  0  0  0  0  2  0  0  0  0  0  0
  163.5120  212.8040  147.9010 C   0  0  0  0  0  1  0  0  0  0  0  0
  160.9090  211.7570  149.6690 C   0  0  2  0  0  3  0  0  0  0  0  0
  162.0040  212.8100  147.7630 C   0  0  2  0  0  0  0  0  0  0  0  0
  161.6570  213.0120  146.3230 C   0  0  0  0  0  3  0  0  0  0  0  0
  160.4460  212.9000  145.9050 N   0  0  0  0  0  0  0  0  0  0  0  0
  160.1350  213.0980  144.5150 C   0  0  0  0  0  2  0  0  0  0  0  0
  161.0880  212.3000  143.6390 C   0  0  1  0  0  3  0  0  0  0  0  0
  160.3540  211.6540  142.6260 O   0  0  0  0  0  0  0  0  0  0  0  0
  161.0530  212.8170  142.2570 C   0  0  2  0  0  3  0  0  0  0  0  0
  162.3320  212.4320  141.5390 C   0  0  0  0  0  2  0  0  0  0  0  0
  162.1000  212.3980  140.1010 N   0  0  0  0  0  2  0  0  0  0  0  0
  160.3630  208.4520  138.4030 C   0  0  0  0  0  2  0  0  0  0  0  0
  161.7060  210.5610  138.5390 C   0  0  2  0  0  0  0  0  0  0  0  0
  162.5670  211.1010  139.6250 C   0  0  1  0  0  3  0  0  0  0  0  0
  162.9250  211.1970  138.2550 O   0  0  0  0  0  0  0  0  0  0  0  0
  160.5620  211.3610  138.0980 N   0  0  0  0  0  2  0  0  0  0  0  0
  159.2420  209.3070  137.8000 C   0  0  0  0  0  2  0  0  0  0  0  0
  159.7510  210.5970  137.1580 C   0  0  0  0  0  2  0  0  0  0  0  0
  161.7500  209.0640  138.2420 C   0  0  0  0  0  2  0  0  0  0  0  0
  1 24  1  6  0  0  0
  1 18  1  0  0  0  0
  3 11  1  0  0  0  0
  4 13  1  0  0  0  0
  5  7  1  0  0  0  0
  5  6  2  0  0  0  0
  6 14  1  0  0  0  0
  7  4  2  0  0  0  0
  8 12  2  0  0  0  0
  9 10  1  6  0  0  0
  9  3  1  0  0  0  0
  9  5  1  0  0  0  0
 11  6  1  0  0  0  0
 11  8  2  0  0  0  0
 12  1  1  0  0  0  0
 13  2  2  0  0  0  0
 14  2  1  0  0  0  0
 16 17  2  0  0  0  0
 17  4  1  0  0  0  0
 17 15  1  0  0  0  0
 18 20  1  0  0  0  0
 19 20  2  0  0  0  0
 20 22  1  0  0  0  0
 22 21  1  0  0  0  0
 23 22  1  0  0  0  0
 25 27  1  0  0  0  0
 26 29  1  0  0  0  0
 29 27  1  0  0  0  0
 29 24  1  1  0  0  0
 30 28  1  1  0  0  0
 30 26  1  0  0  0  0
 30 25  1  0  0  0  0
 31 30  1  0  0  0  0
 32 31  2  0  0  0  0
 33 32  1  0  0  0  0
 34 33  1  1  0  0  0
 35 34  1  0  0  0  0
 36 37  1  6  0  0  0
 36 35  1  0  0  0  0
 36 34  1  0  0  0  0
 38 37  1  0  0  0  0
 40 46  1  6  0  0  0
 40 41  1  0  0  0  0
 41 38  1  6  0  0  0
 42 40  1  0  0  0  0
 42 41  1  0  0  0  0
 43 40  1  0  0  0  0
 44 39  1  0  0  0  0
 45 44  1  0  0  0  0
 45 43  1  0  0  0  0
 46 39  1  0  0  0  0
M  END
>  <MODEL>
2

>  <REMARK>
 VINA RESULT:      -7.3      1.757      2.256
  Name = 
  13 active torsions:
  status: ('A' for Active; 'I' for Inactive)
    1  A    between atoms: C_2  and  C_17
    2  A    between atoms: C_2  and  C_35
    3  A    between atoms: C_2  and  C_44
    4  A    between atoms: C_6  and  C_42
    5  A    between atoms: N_9  and  C_10
    6  A    between atoms: N_9  and  C_46
    7  A    between atoms: C_11  and  C_39
    8  A    between atoms: C_17  and  C_23
    9  A    between atoms: C_20  and  C_22
   10  A    between atoms: C_20  and  N_36
   11  A    between atoms: C_23  and  C_30
   12  A    between atoms: C_37  and  C_44
   13  A    between atoms: C_41  and  C_46
                            x       y       z     vdW  Elec       q    Type
                         _______ _______ _______ _____ _____    ______ ____

>  <TORSDO>
F 13

$$$$
=
 OpenBabel11042420563D

 46 51  0  0  1  0  0  0  0  0999 V2000
  161.8280  205.6250  149.6960 C   0  0  1  0  0  3  0  0  0  0  0  0
  159.9110  210.5880  151.9420 C   0  0  0  0  0  3  0  0  0  0  0  0
  161.1600  206.2820  154.2530 S   0  0  0  0  0  0  0  0  0  0  0  0
  159.9660  211.3490  154.3290 C   0  0  0  0  0  0  0  0  0  0  0  0
  160.8110  208.9650  154.3720 C   0  0  0  0  0  0  0  0  0  0  0  0
  161.0360  208.7170  153.0890 C   0  0  0  0  0  0  0  0  0  0  0  0
  160.5430  210.3020  154.9410 C   0  0  0  0  0  3  0  0  0  0  0  0
  161.9310  206.9050  151.7500 C   0  0  0  0  0  0  0  0  0  0  0  0
  160.9430  207.7830  155.2830 C   0  0  2  0  0  3  0  0  0  0  0  0
  162.0350  207.9420  156.1110 F   0  0  0  0  0  0  0  0  0  0  0  0
  161.2900  207.3140  152.8120 C   0  0  0  0  0  0  0  0  0  0  0  0
  162.5580  206.4700  150.6920 C   0  0  0  0  0  3  0  0  0  0  0  0
  159.4160  211.3010  152.9520 C   0  0  0  0  0  3  0  0  0  0  0  0
  161.1620  209.7850  152.0480 C   0  0  0  0  0  2  0  0  0  0  0  0
  160.1660  212.6450  156.3040 O   0  0  0  0  0  1  0  0  0  0  0  0
  159.0850  213.6620  154.5640 O   0  0  0  0  0  0  0  0  0  0  0  0
  159.7570  212.5750  155.1170 C   0  0  0  0  0  0  0  0  0  0  0  0
  160.5180  205.0550  150.2590 C   0  0  0  0  0  2  0  0  0  0  0  0
  160.3120  203.4320  152.0240 N   0  0  0  0  0  2  0  0  0  0  0  0
  160.6420  203.6530  150.8020 C   0  0  0  0  0  0  0  0  0  0  0  0
  159.4770  202.0110  149.3150 C   0  0  0  0  0  1  0  0  0  0  0  0
  160.8070  202.5020  149.8490 C   0  0  0  0  0  3  0  0  0  0  0  0
  161.5320  201.3390  150.5020 C   0  0  0  0  0  1  0  0  0  0  0  0
  161.6190  206.3900  148.3920 C   0  0  0  0  0  2  0  0  0  0  0  0
  161.2930  204.0580  146.0900 C   0  0  0  0  0  2  0  0  0  0  0  0
  162.0810  206.3650  145.9220 C   0  0  0  0  0  2  0  0  0  0  0  0
  162.3120  204.3160  147.1880 C   0  0  0  0  0  2  0  0  0  0  0  0
  159.6930  205.8660  145.5150 C   0  0  0  0  0  1  0  0  0  0  0  0
  162.5020  205.8200  147.2790 C   0  0  2  0  0  3  0  0  0  0  0  0
  161.1100  205.3670  145.3290 C   0  0  2  0  0  0  0  0  0  0  0  0
  161.3660  205.1870  143.8670 C   0  0  0  0  0  3  0  0  0  0  0  0
  161.6810  206.1820  143.1160 N   0  0  0  0  0  0  0  0  0  0  0  0
  161.9220  205.9850  141.7120 C   0  0  0  0  0  2  0  0  0  0  0  0
  161.6390  207.2640  140.9410 C   0  0  1  0  0  3  0  0  0  0  0  0
  162.8280  207.7120  140.3350 O   0  0  0  0  0  0  0  0  0  0  0  0
  161.9040  207.0550  139.5040 C   0  0  2  0  0  3  0  0  0  0  0  0
  161.1360  208.0800  138.6930 C   0  0  0  0  0  2  0  0  0  0  0  0
  161.9870  209.2310  138.4170 N   0  0  0  0  0  2  0  0  0  0  0  0
  159.6280  212.1720  141.1090 C   0  0  0  0  0  2  0  0  0  0  0  0
  161.2710  211.3440  139.4110 C   0  0  2  0  0  0  0  0  0  0  0  0
  161.1100  210.3880  138.2830 C   0  0  1  0  0  3  0  0  0  0  0  0
  161.8900  211.5680  138.1710 O   0  0  0  0  0  0  0  0  0  0  0  0
  162.2470  211.0280  140.4550 N   0  0  0  0  0  2  0  0  0  0  0  0
  160.7350  211.9690  142.1520 C   0  0  0  0  0  2  0  0  0  0  0  0
  162.1380  211.9870  141.5470 C   0  0  0  0  0  2  0  0  0  0  0  0
  160.1530  212.3470  139.6880 C   0  0  0  0  0  2  0  0  0  0  0  0
  1 24  1  6  0  0  0
  1 18  1  0  0  0  0
  1 12  1  0  0  0  0
  2 14  1  0  0  0  0
  2 13  2  0  0  0  0
  3  9  1  0  0  0  0
  4  7  2  0  0  0  0
  4 17  1  0  0  0  0
  5  7  1  0  0  0  0
  5  9  1  0  0  0  0
  6  5  2  0  0  0  0
  8 11  2  0  0  0  0
  9 10  1  1  0  0  0
 11  6  1  0  0  0  0
 11  3  1  0  0  0  0
 12  8  2  0  0  0  0
 13  4  1  0  0  0  0
 14  6  1  0  0  0  0
 16 17  2  0  0  0  0
 17 15  1  0  0  0  0
 18 20  1  0  0  0  0
 20 19  2  0  0  0  0
 21 22  1  0  0  0  0
 22 23  1  0  0  0  0
 22 20  1  0  0  0  0
 25 27  1  0  0  0  0
 26 29  1  0  0  0  0
 27 29  1  0  0  0  0
 29 24  1  1  0  0  0
 30 28  1  1  0  0  0
 30 26  1  0  0  0  0
 30 25  1  0  0  0  0
 31 30  1  0  0  0  0
 32 31  2  0  0  0  0
 33 32  1  0  0  0  0
 34 33  1  1  0  0  0
 35 34  1  0  0  0  0
 36 37  1  6  0  0  0
 36 35  1  0  0  0  0
 36 34  1  0  0  0  0
 38 37  1  0  0  0  0
 39 44  1  0  0  0  0
 40 46  1  1  0  0  0
 40 43  1  0  0  0  0
 41 38  1  1  0  0  0
 41 40  1  0  0  0  0
 42 41  1  0  0  0  0
 42 40  1  0  0  0  0
 43 45  1  0  0  0  0
 45 44  1  0  0  0  0
 46 39  1  0  0  0  0
M  END
>  <MODEL>
3

>  <REMARK>
 VINA RESULT:      -6.4      3.703      7.108
  Name = 
  13 active torsions:
  status: ('A' for Active; 'I' for Inactive)
    1  A    between atoms: C_2  and  C_17
    2  A    between atoms: C_2  and  C_35
    3  A    between atoms: C_2  and  C_44
    4  A    between atoms: C_6  and  C_42
    5  A    between atoms: N_9  and  C_10
    6  A    between atoms: N_9  and  C_46
    7  A    between atoms: C_11  and  C_39
    8  A    between atoms: C_17  and  C_23
    9  A    between atoms: C_20  and  C_22
   10  A    between atoms: C_20  and  N_36
   11  A    between atoms: C_23  and  C_30
   12  A    between atoms: C_37  and  C_44
   13  A    between atoms: C_41  and  C_46
                            x       y       z     vdW  Elec       q    Type
                         _______ _______ _______ _____ _____    ______ ____

>  <TORSDO>
F 13

$$$$
=
 OpenBabel11042420563D

 46 51  0  0  1  0  0  0  0  0999 V2000
  161.8880  205.7150  149.6730 C   0  0  1  0  0  3  0  0  0  0  0  0
  159.8800  210.6310  151.9430 C   0  0  0  0  0  3  0  0  0  0  0  0
  161.1580  206.3200  154.2280 S   0  0  0  0  0  0  0  0  0  0  0  0
  159.8970  211.3700  154.3380 C   0  0  0  0  0  0  0  0  0  0  0  0
  160.7730  208.9970  154.3680 C   0  0  0  0  0  0  0  0  0  0  0  0
  161.0160  208.7630  153.0860 C   0  0  0  0  0  0  0  0  0  0  0  0
  160.4810  210.3240  154.9470 C   0  0  0  0  0  3  0  0  0  0  0  0
  161.9500  206.9770  151.7400 C   0  0  0  0  0  0  0  0  0  0  0  0
  160.9090  207.8070  155.2700 C   0  0  2  0  0  3  0  0  0  0  0  0
  161.9890  207.9720  156.1120 F   0  0  0  0  0  0  0  0  0  0  0  0
  161.2920  207.3670  152.7980 C   0  0  0  0  0  0  0  0  0  0  0  0
  162.5960  206.5600  150.6850 C   0  0  0  0  0  3  0  0  0  0  0  0
  159.3640  211.3280  152.9540 C   0  0  0  0  0  3  0  0  0  0  0  0
  161.1400  209.8440  152.0560 C   0  0  0  0  0  2  0  0  0  0  0  0
  160.4250  212.8740  156.0930 O   0  0  0  0  0  1  0  0  0  0  0  0
  158.5820  213.4170  154.8510 O   0  0  0  0  0  0  0  0  0  0  0  0
  159.6630  212.5850  155.1360 C   0  0  0  0  0  0  0  0  0  0  0  0
  160.5890  205.1070  150.2220 C   0  0  0  0  0  2  0  0  0  0  0  0
  160.4340  203.5850  152.0800 N   0  0  0  0  0  2  0  0  0  0  0  0
  160.7660  203.7470  150.8500 C   0  0  0  0  0  0  0  0  0  0  0  0
  159.7900  202.2590  149.0890 C   0  0  0  0  0  1  0  0  0  0  0  0
  160.9890  202.5480  149.9690 C   0  0  0  0  0  3  0  0  0  0  0  0
  161.3060  201.3090  150.7860 C   0  0  0  0  0  1  0  0  0  0  0  0
  161.6660  206.4960  148.3810 C   0  0  0  0  0  2  0  0  0  0  0  0
  161.2740  204.1160  146.1400 C   0  0  0  0  0  2  0  0  0  0  0  0
  162.0230  206.4290  145.8940 C   0  0  0  0  0  2  0  0  0  0  0  0
  162.3350  204.4080  147.1880 C   0  0  0  0  0  2  0  0  0  0  0  0
  159.6260  205.8920  145.6000 C   0  0  0  0  0  1  0  0  0  0  0  0
  162.5080  205.9170  147.2420 C   0  0  2  0  0  3  0  0  0  0  0  0
  161.0410  205.4070  145.3630 C   0  0  2  0  0  0  0  0  0  0  0  0
  161.2360  205.2020  143.8950 C   0  0  0  0  0  3  0  0  0  0  0  0
  161.5830  206.1700  143.1240 N   0  0  0  0  0  0  0  0  0  0  0  0
  161.7650  205.9490  141.7150 C   0  0  0  0  0  2  0  0  0  0  0  0
  162.3710  207.1790  141.0590 C   0  0  1  0  0  3  0  0  0  0  0  0
  162.8880  206.8250  139.7990 O   0  0  0  0  0  0  0  0  0  0  0  0
  161.6500  207.4910  139.8100 C   0  0  2  0  0  3  0  0  0  0  0  0
  161.8580  208.9500  139.4550 C   0  0  0  0  0  2  0  0  0  0  0  0
  160.5750  209.6420  139.4380 N   0  0  0  0  0  2  0  0  0  0  0  0
  156.2560  208.8240  137.9730 C   0  0  0  0  0  2  0  0  0  0  0  0
  158.5370  209.8500  138.1080 C   0  0  2  0  0  0  0  0  0  0  0  0
  159.8820  209.2250  138.2250 C   0  0  1  0  0  3  0  0  0  0  0  0
  159.6390  210.3560  137.4020 O   0  0  0  0  0  0  0  0  0  0  0  0
  158.1030  210.7660  139.1640 N   0  0  0  0  0  2  0  0  0  0  0  0
  155.8080  209.9020  138.9680 C   0  0  0  0  0  2  0  0  0  0  0  0
  156.7080  211.1370  138.9600 C   0  0  0  0  0  2  0  0  0  0  0  0
  157.5050  209.2040  137.1850 C   0  0  0  0  0  2  0  0  0  0  0  0
  1 24  1  6  0  0  0
  1 18  1  0  0  0  0
  1 12  1  0  0  0  0
  2 14  1  0  0  0  0
  2 13  2  0  0  0  0
  3  9  1  0  0  0  0
  4  7  2  0  0  0  0
  4 17  1  0  0  0  0
  5  7  1  0  0  0  0
  5  9  1  0  0  0  0
  6  5  2  0  0  0  0
  8 11  2  0  0  0  0
  9 10  1  1  0  0  0
 11  6  1  0  0  0  0
 11  3  1  0  0  0  0
 12  8  2  0  0  0  0
 13  4  1  0  0  0  0
 14  6  1  0  0  0  0
 16 17  2  0  0  0  0
 17 15  1  0  0  0  0
 18 20  1  0  0  0  0
 20 19  2  0  0  0  0
 21 22  1  0  0  0  0
 22 23  1  0  0  0  0
 22 20  1  0  0  0  0
 25 27  1  0  0  0  0
 26 29  1  0  0  0  0
 27 29  1  0  0  0  0
 29 24  1  1  0  0  0
 30 28  1  1  0  0  0
 30 26  1  0  0  0  0
 30 25  1  0  0  0  0
 31 30  1  0  0  0  0
 32 31  2  0  0  0  0
 33 32  1  0  0  0  0
 34 33  1  1  0  0  0
 35 36  1  0  0  0  0
 35 34  1  0  0  0  0
 36 37  1  6  0  0  0
 36 34  1  0  0  0  0
 38 37  1  0  0  0  0
 39 44  1  0  0  0  0
 40 46  1  6  0  0  0
 40 41  1  0  0  0  0
 40 43  1  0  0  0  0
 41 38  1  1  0  0  0
 42 40  1  0  0  0  0
 42 41  1  0  0  0  0
 45 44  1  0  0  0  0
 45 43  1  0  0  0  0
 46 39  1  0  0  0  0
M  END
>  <MODEL>
4

>  <REMARK>
 VINA RESULT:      -6.4      3.993      7.104
  Name = 
  13 active torsions:
  status: ('A' for Active; 'I' for Inactive)
    1  A    between atoms: C_2  and  C_17
    2  A    between atoms: C_2  and  C_35
    3  A    between atoms: C_2  and  C_44
    4  A    between atoms: C_6  and  C_42
    5  A    between atoms: N_9  and  C_10
    6  A    between atoms: N_9  and  C_46
    7  A    between atoms: C_11  and  C_39
    8  A    between atoms: C_17  and  C_23
    9  A    between atoms: C_20  and  C_22
   10  A    between atoms: C_20  and  N_36
   11  A    between atoms: C_23  and  C_30
   12  A    between atoms: C_37  and  C_44
   13  A    between atoms: C_41  and  C_46
                            x       y       z     vdW  Elec       q    Type
                         _______ _______ _______ _____ _____    ______ ____

>  <TORSDO>
F 13

$$$$
=
 OpenBabel11042420563D

 46 51  0  0  1  0  0  0  0  0999 V2000
  162.0920  208.5720  149.4710 C   0  0  1  0  0  3  0  0  0  0  0  0
  161.2200  202.9200  148.6710 C   0  0  0  0  0  3  0  0  0  0  0  0
  160.5790  206.7590  145.4630 S   0  0  0  0  0  0  0  0  0  0  0  0
  160.9230  201.6720  146.5170 C   0  0  0  0  0  0  0  0  0  0  0  0
  161.0050  204.1150  145.8650 C   0  0  0  0  0  0  0  0  0  0  0  0
  161.4470  204.6940  146.9730 C   0  0  0  0  0  0  0  0  0  0  0  0
  161.0090  202.6600  145.6100 C   0  0  0  0  0  3  0  0  0  0  0  0
  162.0700  206.9210  147.6980 C   0  0  0  0  0  0  0  0  0  0  0  0
  160.5670  205.0570  144.7840 C   0  0  2  0  0  3  0  0  0  0  0  0
  161.4290  204.9780  143.7090 F   0  0  0  0  0  0  0  0  0  0  0  0
  161.3420  206.1420  146.9440 C   0  0  0  0  0  0  0  0  0  0  0  0
  162.7770  207.7210  148.4480 C   0  0  0  0  0  3  0  0  0  0  0  0
  160.7270  201.9000  147.9700 C   0  0  0  0  0  3  0  0  0  0  0  0
  162.1210  203.9510  148.0840 C   0  0  0  0  0  2  0  0  0  0  0  0
  161.5490  199.3870  146.6130 O   0  0  0  0  0  1  0  0  0  0  0  0
  160.1670  199.9590  144.8820 O   0  0  0  0  0  0  0  0  0  0  0  0
  160.8970  200.2860  146.0220 C   0  0  0  0  0  0  0  0  0  0  0  0
  162.3750  208.1060  150.9060 C   0  0  0  0  0  2  0  0  0  0  0  0
  160.9490  206.1880  151.1880 N   0  0  0  0  0  2  0  0  0  0  0  0
  161.2190  207.3880  151.5570 C   0  0  0  0  0  0  0  0  0  0  0  0
  161.1460  209.3210  153.1470 C   0  0  0  0  0  1  0  0  0  0  0  0
  160.6350  207.9300  152.8330 C   0  0  0  0  0  3  0  0  0  0  0  0
  160.9360  207.0210  154.0110 C   0  0  0  0  0  1  0  0  0  0  0  0
  162.4290  210.0460  149.2580 C   0  0  0  0  0  2  0  0  0  0  0  0
  161.6660  213.2360  148.9800 C   0  0  0  0  0  2  0  0  0  0  0  0
  161.2780  211.3650  147.4570 C   0  0  0  0  0  2  0  0  0  0  0  0
  161.0680  212.0770  149.7600 C   0  0  0  0  0  2  0  0  0  0  0  0
  163.3230  212.7340  147.2020 C   0  0  0  0  0  1  0  0  0  0  0  0
  161.1780  210.8420  148.8820 C   0  0  2  0  0  3  0  0  0  0  0  0
  161.8480  212.7650  147.5410 C   0  0  2  0  0  0  0  0  0  0  0  0
  161.1540  213.6760  146.5790 C   0  0  0  0  0  3  0  0  0  0  0  0
  160.4720  213.2120  145.5930 N   0  0  0  0  0  0  0  0  0  0  0  0
  159.8140  214.1070  144.6800 C   0  0  0  0  0  2  0  0  0  0  0  0
  160.2690  213.8390  143.2540 C   0  0  1  0  0  3  0  0  0  0  0  0
  160.6240  212.4830  143.1280 O   0  0  0  0  0  0  0  0  0  0  0  0
  159.3700  212.8590  142.6150 C   0  0  2  0  0  3  0  0  0  0  0  0
  159.4630  212.9950  141.1070 C   0  0  0  0  0  2  0  0  0  0  0  0
  158.1260  212.9730  140.5260 N   0  0  0  0  0  2  0  0  0  0  0  0
  155.3070  209.5190  139.2670 C   0  0  0  0  0  2  0  0  0  0  0  0
  156.7120  211.5840  139.0980 C   0  0  2  0  0  0  0  0  0  0  0  0
  158.0920  211.8670  139.5770 C   0  0  1  0  0  3  0  0  0  0  0  0
  157.6150  212.3290  138.3230 O   0  0  0  0  0  0  0  0  0  0  0  0
  155.6190  212.4140  139.6040 N   0  0  0  0  0  2  0  0  0  0  0  0
  154.1450  210.4460  139.6460 C   0  0  0  0  0  2  0  0  0  0  0  0
  154.3380  211.8800  139.1570 C   0  0  0  0  0  2  0  0  0  0  0  0
  156.4140  210.2170  138.4850 C   0  0  0  0  0  2  0  0  0  0  0  0
  1 12  1  6  0  0  0
  1 18  1  0  0  0  0
  3 11  1  0  0  0  0
  4 13  1  0  0  0  0
  5  6  2  0  0  0  0
  6 14  1  0  0  0  0
  7  5  1  0  0  0  0
  7  4  2  0  0  0  0
  8 12  2  0  0  0  0
  9 10  1  6  0  0  0
  9  3  1  0  0  0  0
  9  5  1  0  0  0  0
 11  6  1  0  0  0  0
 11  8  2  0  0  0  0
 13  2  2  0  0  0  0
 14  2  1  0  0  0  0
 16 17  2  0  0  0  0
 17  4  1  0  0  0  0
 17 15  1  0  0  0  0
 18 20  1  0  0  0  0
 19 20  2  0  0  0  0
 20 22  1  0  0  0  0
 22 21  1  0  0  0  0
 22 23  1  0  0  0  0
 24  1  1  0  0  0  0
 25 27  1  0  0  0  0
 26 30  1  0  0  0  0
 26 29  1  0  0  0  0
 29 24  1  1  0  0  0
 29 27  1  0  0  0  0
 30 28  1  6  0  0  0
 30 25  1  0  0  0  0
 31 30  1  0  0  0  0
 32 31  2  0  0  0  0
 33 32  1  0  0  0  0
 34 33  1  1  0  0  0
 35 34  1  0  0  0  0
 36 37  1  6  0  0  0
 36 35  1  0  0  0  0
 36 34  1  0  0  0  0
 38 37  1  0  0  0  0
 39 44  1  0  0  0  0
 40 46  1  6  0  0  0
 40 41  1  0  0  0  0
 40 43  1  0  0  0  0
 41 38  1  1  0  0  0
 42 40  1  0  0  0  0
 42 41  1  0  0  0  0
 45 43  1  0  0  0  0
 45 44  1  0  0  0  0
 46 39  1  0  0  0  0
M  END
>  <MODEL>
5

>  <REMARK>
 VINA RESULT:      -6.3      3.169      4.098
  Name = 
  13 active torsions:
  status: ('A' for Active; 'I' for Inactive)
    1  A    between atoms: C_2  and  C_17
    2  A    between atoms: C_2  and  C_35
    3  A    between atoms: C_2  and  C_44
    4  A    between atoms: C_6  and  C_42
    5  A    between atoms: N_9  and  C_10
    6  A    between atoms: N_9  and  C_46
    7  A    between atoms: C_11  and  C_39
    8  A    between atoms: C_17  and  C_23
    9  A    between atoms: C_20  and  C_22
   10  A    between atoms: C_20  and  N_36
   11  A    between atoms: C_23  and  C_30
   12  A    between atoms: C_37  and  C_44
   13  A    between atoms: C_41  and  C_46
                            x       y       z     vdW  Elec       q    Type
                         _______ _______ _______ _____ _____    ______ ____

>  <TORSDO>
F 13

$$$$
=
 OpenBabel11042420563D

 46 51  0  0  1  0  0  0  0  0999 V2000
  162.0790  208.6820  149.5280 C   0  0  1  0  0  3  0  0  0  0  0  0
  161.2200  203.0340  148.6800 C   0  0  0  0  0  3  0  0  0  0  0  0
  160.4580  206.9100  145.5440 S   0  0  0  0  0  0  0  0  0  0  0  0
  160.8680  201.8130  146.5210 C   0  0  0  0  0  0  0  0  0  0  0  0
  160.9130  204.2640  145.8980 C   0  0  0  0  0  0  0  0  0  0  0  0
  161.3840  204.8320  147.0000 C   0  0  0  0  0  0  0  0  0  0  0  0
  160.9200  202.8120  145.6250 C   0  0  0  0  0  3  0  0  0  0  0  0
  162.0140  207.0540  147.7360 C   0  0  0  0  0  0  0  0  0  0  0  0
  160.4370  205.2160  144.8430 C   0  0  2  0  0  3  0  0  0  0  0  0
  161.2660  205.1570  143.7420 F   0  0  0  0  0  0  0  0  0  0  0  0
  161.2690  206.2800  146.9940 C   0  0  0  0  0  0  0  0  0  0  0  0
  162.7390  207.8490  148.4740 C   0  0  0  0  0  3  0  0  0  0  0  0
  160.7140  202.0200  147.9820 C   0  0  0  0  0  3  0  0  0  0  0  0
  162.0970  204.0790  148.0800 C   0  0  0  0  0  2  0  0  0  0  0  0
  161.4820  199.5240  146.5890 O   0  0  0  0  0  1  0  0  0  0  0  0
  160.1060  200.1230  144.8640 O   0  0  0  0  0  0  0  0  0  0  0  0
  160.8360  200.4330  146.0090 C   0  0  0  0  0  0  0  0  0  0  0  0
  162.4310  208.2180  150.9490 C   0  0  0  0  0  2  0  0  0  0  0  0
  160.4560  207.6570  152.2040 N   0  0  0  0  0  2  0  0  0  0  0  0
  161.4570  207.2220  151.5280 C   0  0  0  0  0  0  0  0  0  0  0  0
  160.0690  205.2890  150.7500 C   0  0  0  0  0  1  0  0  0  0  0  0
  161.4670  205.8020  151.0310 C   0  0  0  0  0  3  0  0  0  0  0  0
  162.1410  204.8710  152.0220 C   0  0  0  0  0  1  0  0  0  0  0  0
  162.3760  210.1630  149.3080 C   0  0  0  0  0  2  0  0  0  0  0  0
  161.4630  213.3080  148.9690 C   0  0  0  0  0  2  0  0  0  0  0  0
  161.4030  211.4510  147.3820 C   0  0  0  0  0  2  0  0  0  0  0  0
  160.8370  212.0990  149.6440 C   0  0  0  0  0  2  0  0  0  0  0  0
  163.3750  212.9430  147.4290 C   0  0  0  0  0  1  0  0  0  0  0  0
  161.1410  210.8920  148.7730 C   0  0  2  0  0  3  0  0  0  0  0  0
  161.8680  212.8800  147.5630 C   0  0  2  0  0  0  0  0  0  0  0  0
  161.2590  213.7690  146.5260 C   0  0  0  0  0  3  0  0  0  0  0  0
  160.2090  213.4140  145.8750 N   0  0  0  0  0  0  0  0  0  0  0  0
  159.6410  214.2850  144.8820 C   0  0  0  0  0  2  0  0  0  0  0  0
  158.9930  213.4720  143.7720 C   0  0  1  0  0  3  0  0  0  0  0  0
  158.4710  214.3480  142.8010 O   0  0  0  0  0  0  0  0  0  0  0  0
  159.6910  213.7200  142.4950 C   0  0  2  0  0  3  0  0  0  0  0  0
  159.4390  212.5630  141.5470 C   0  0  0  0  0  2  0  0  0  0  0  0
  160.6040  212.3600  140.6940 N   0  0  0  0  0  2  0  0  0  0  0  0
  161.1650  208.1040  138.9510 C   0  0  0  0  0  2  0  0  0  0  0  0
  161.7400  210.3490  139.9010 C   0  0  2  0  0  0  0  0  0  0  0  0
  161.1920  211.0810  141.0740 C   0  0  1  0  0  3  0  0  0  0  0  0
  162.5760  211.0800  140.7590 O   0  0  0  0  0  0  0  0  0  0  0  0
  161.6360  210.9750  138.5820 N   0  0  0  0  0  2  0  0  0  0  0  0
  161.2180  208.7720  137.5700 C   0  0  0  0  0  2  0  0  0  0  0  0
  162.0700  210.0400  137.5500 C   0  0  0  0  0  2  0  0  0  0  0  0
  161.9680  208.8430  140.0160 C   0  0  0  0  0  2  0  0  0  0  0  0
  1 12  1  6  0  0  0
  1 18  1  0  0  0  0
  3 11  1  0  0  0  0
  4 13  1  0  0  0  0
  5  6  2  0  0  0  0
  6 14  1  0  0  0  0
  7  5  1  0  0  0  0
  7  4  2  0  0  0  0
  8 12  2  0  0  0  0
  9 10  1  6  0  0  0
  9  3  1  0  0  0  0
  9  5  1  0  0  0  0
 11  6  1  0  0  0  0
 11  8  2  0  0  0  0
 13  2  2  0  0  0  0
 14  2  1  0  0  0  0
 16 17  2  0  0  0  0
 17  4  1  0  0  0  0
 17 15  1  0  0  0  0
 18 20  1  0  0  0  0
 20 19  2  0  0  0  0
 21 22  1  0  0  0  0
 22 20  1  0  0  0  0
 22 23  1  0  0  0  0
 24  1  1  0  0  0  0
 25 27  1  0  0  0  0
 26 30  1  0  0  0  0
 26 29  1  0  0  0  0
 29 24  1  1  0  0  0
 29 27  1  0  0  0  0
 30 28  1  6  0  0  0
 30 25  1  0  0  0  0
 31 30  1  0  0  0  0
 32 31  2  0  0  0  0
 33 32  1  0  0  0  0
 34 33  1  1  0  0  0
 35 34  1  0  0  0  0
 36 37  1  6  0  0  0
 36 35  1  0  0  0  0
 36 34  1  0  0  0  0
 38 37  1  0  0  0  0
 39 46  1  0  0  0  0
 40 46  1  1  0  0  0
 40 42  1  0  0  0  0
 40 41  1  0  0  0  0
 41 38  1  6  0  0  0
 42 41  1  0  0  0  0
 43 40  1  0  0  0  0
 44 39  1  0  0  0  0
 45 44  1  0  0  0  0
 45 43  1  0  0  0  0
M  END
>  <MODEL>
6

>  <REMARK>
 VINA RESULT:      -6.2      2.811      3.647
  Name = 
  13 active torsions:
  status: ('A' for Active; 'I' for Inactive)
    1  A    between atoms: C_2  and  C_17
    2  A    between atoms: C_2  and  C_35
    3  A    between atoms: C_2  and  C_44
    4  A    between atoms: C_6  and  C_42
    5  A    between atoms: N_9  and  C_10
    6  A    between atoms: N_9  and  C_46
    7  A    between atoms: C_11  and  C_39
    8  A    between atoms: C_17  and  C_23
    9  A    between atoms: C_20  and  C_22
   10  A    between atoms: C_20  and  N_36
   11  A    between atoms: C_23  and  C_30
   12  A    between atoms: C_37  and  C_44
   13  A    between atoms: C_41  and  C_46
                            x       y       z     vdW  Elec       q    Type
                         _______ _______ _______ _____ _____    ______ ____

>  <TORSDO>
F 13

$$$$
=
 OpenBabel11042420563D

 46 51  0  0  1  0  0  0  0  0999 V2000
  161.2120  204.3980  150.3220 C   0  0  1  0  0  3  0  0  0  0  0  0
  161.1130  207.3090  155.3080 C   0  0  0  0  0  3  0  0  0  0  0  0
  162.3550  208.8930  150.6840 S   0  0  0  0  0  0  0  0  0  0  0  0
  161.1720  209.7880  155.6740 C   0  0  0  0  0  0  0  0  0  0  0  0
  161.4950  209.4750  153.1840 C   0  0  0  0  0  0  0  0  0  0  0  0
  161.1690  208.2020  153.0100 C   0  0  0  0  0  0  0  0  0  0  0  0
  161.2440  210.2530  154.4150 C   0  0  0  0  0  3  0  0  0  0  0  0
  160.9370  206.6550  151.1590 C   0  0  0  0  0  0  0  0  0  0  0  0
  162.0730  210.1570  151.9810 C   0  0  2  0  0  3  0  0  0  0  0  0
  161.1990  211.1170  151.5140 F   0  0  0  0  0  0  0  0  0  0  0  0
  161.5150  207.6960  151.6940 C   0  0  0  0  0  0  0  0  0  0  0  0
  160.3820  205.6110  150.6070 C   0  0  0  0  0  3  0  0  0  0  0  0
  161.4190  208.3740  156.0480 C   0  0  0  0  0  3  0  0  0  0  0  0
  160.3910  207.4010  154.0080 C   0  0  0  0  0  2  0  0  0  0  0  0
  161.9340  211.3820  157.2550 O   0  0  0  0  0  1  0  0  0  0  0  0
  159.6790  211.0000  157.2500 O   0  0  0  0  0  0  0  0  0  0  0  0
  160.9600  210.7650  156.7550 C   0  0  0  0  0  0  0  0  0  0  0  0
  160.4490  203.0910  150.5840 C   0  0  0  0  0  2  0  0  0  0  0  0
  162.1540  201.4140  150.8530 N   0  0  0  0  0  2  0  0  0  0  0  0
  161.1830  201.8520  150.1350 C   0  0  0  0  0  0  0  0  0  0  0  0
  161.2780  201.0970  147.7500 C   0  0  0  0  0  1  0  0  0  0  0  0
  160.5700  200.9690  149.0830 C   0  0  0  0  0  3  0  0  0  0  0  0
  159.0970  201.2780  148.8870 C   0  0  0  0  0  1  0  0  0  0  0  0
  161.7930  204.4620  148.9120 C   0  0  0  0  0  2  0  0  0  0  0  0
  162.1530  206.4480  146.3110 C   0  0  0  0  0  2  0  0  0  0  0  0
  160.7330  204.4850  146.6340 C   0  0  0  0  0  2  0  0  0  0  0  0
  161.4230  206.5760  147.6370 C   0  0  0  0  0  2  0  0  0  0  0  0
  162.9760  204.2080  145.6270 C   0  0  0  0  0  1  0  0  0  0  0  0
  160.8490  205.2090  147.9670 C   0  0  2  0  0  3  0  0  0  0  0  0
  161.7580  205.1040  145.7070 C   0  0  2  0  0  0  0  0  0  0  0  0
  161.1940  205.2690  144.3320 C   0  0  0  0  0  3  0  0  0  0  0  0
  161.8760  205.8170  143.3910 N   0  0  0  0  0  0  0  0  0  0  0  0
  161.3130  205.9650  142.0760 C   0  0  0  0  0  2  0  0  0  0  0  0
  162.3250  206.5980  141.1350 C   0  0  1  0  0  3  0  0  0  0  0  0
  161.8790  206.4480  139.8080 O   0  0  0  0  0  0  0  0  0  0  0  0
  161.6980  207.7120  140.3970 C   0  0  2  0  0  3  0  0  0  0  0  0
  162.7730  208.6600  139.9010 C   0  0  0  0  0  2  0  0  0  0  0  0
  162.1860  209.9610  139.6050 N   0  0  0  0  0  2  0  0  0  0  0  0
  161.9150  212.5710  143.4240 C   0  0  0  0  0  2  0  0  0  0  0  0
  161.3620  211.6570  141.1590 C   0  0  2  0  0  0  0  0  0  0  0  0
  161.2410  210.2550  140.6760 C   0  0  1  0  0  3  0  0  0  0  0  0
  160.3520  211.2800  140.2600 O   0  0  0  0  0  0  0  0  0  0  0  0
  162.3560  212.5240  140.5250 N   0  0  0  0  0  2  0  0  0  0  0  0
  162.8310  213.5670  142.7020 C   0  0  0  0  0  2  0  0  0  0  0  0
  162.4410  213.7910  141.2420 C   0  0  0  0  0  2  0  0  0  0  0  0
  160.8080  212.0080  142.5380 C   0  0  0  0  0  2  0  0  0  0  0  0
  1 24  1  6  0  0  0
  1 18  1  0  0  0  0
  1 12  1  0  0  0  0
  2 13  2  0  0  0  0
  3 11  1  0  0  0  0
  3  9  1  0  0  0  0
  4 13  1  0  0  0  0
  4 17  1  0  0  0  0
  5  7  1  0  0  0  0
  6  5  2  0  0  0  0
  6 14  1  0  0  0  0
  7  4  2  0  0  0  0
  8 11  2  0  0  0  0
  9 10  1  6  0  0  0
  9  5  1  0  0  0  0
 11  6  1  0  0  0  0
 12  8  2  0  0  0  0
 14  2  1  0  0  0  0
 17 16  2  0  0  0  0
 17 15  1  0  0  0  0
 20 18  1  0  0  0  0
 20 19  2  0  0  0  0
 21 22  1  0  0  0  0
 22 20  1  0  0  0  0
 23 22  1  0  0  0  0
 25 27  1  0  0  0  0
 26 29  1  0  0  0  0
 27 29  1  0  0  0  0
 29 24  1  1  0  0  0
 30 28  1  6  0  0  0
 30 25  1  0  0  0  0
 30 26  1  0  0  0  0
 31 30  1  0  0  0  0
 32 31  2  0  0  0  0
 33 32  1  0  0  0  0
 34 33  1  1  0  0  0
 35 36  1  0  0  0  0
 35 34  1  0  0  0  0
 36 37  1  6  0  0  0
 36 34  1  0  0  0  0
 38 37  1  0  0  0  0
 40 46  1  1  0  0  0
 41 38  1  6  0  0  0
 41 40  1  0  0  0  0
 42 41  1  0  0  0  0
 42 40  1  0  0  0  0
 43 40  1  0  0  0  0
 43 45  1  0  0  0  0
 44 39  1  0  0  0  0
 45 44  1  0  0  0  0
 46 39  1  0  0  0  0
M  END
>  <MODEL>
7

>  <REMARK>
 VINA RESULT:      -6.1      4.088      7.564
  Name = 
  13 active torsions:
  status: ('A' for Active; 'I' for Inactive)
    1  A    between atoms: C_2  and  C_17
    2  A    between atoms: C_2  and  C_35
    3  A    between atoms: C_2  and  C_44
    4  A    between atoms: C_6  and  C_42
    5  A    between atoms: N_9  and  C_10
    6  A    between atoms: N_9  and  C_46
    7  A    between atoms: C_11  and  C_39
    8  A    between atoms: C_17  and  C_23
    9  A    between atoms: C_20  and  C_22
   10  A    between atoms: C_20  and  N_36
   11  A    between atoms: C_23  and  C_30
   12  A    between atoms: C_37  and  C_44
   13  A    between atoms: C_41  and  C_46
                            x       y       z     vdW  Elec       q    Type
                         _______ _______ _______ _____ _____    ______ ____

>  <TORSDO>
F 13

$$$$
=
 OpenBabel11042420563D

 46 51  0  0  1  0  0  0  0  0999 V2000
  159.7520  212.6110  154.1370 C   0  0  1  0  0  3  0  0  0  0  0  0
  161.4470  214.4500  148.9310 C   0  0  0  0  0  3  0  0  0  0  0  0
  161.9700  209.9100  151.0660 S   0  0  0  0  0  0  0  0  0  0  0  0
  162.1660  213.0930  146.9510 C   0  0  0  0  0  0  0  0  0  0  0  0
  161.8460  211.4200  148.8220 C   0  0  0  0  0  0  0  0  0  0  0  0
  161.2000  212.1310  149.7360 C   0  0  0  0  0  0  0  0  0  0  0  0
  162.0640  211.8390  147.4220 C   0  0  0  0  0  3  0  0  0  0  0  0
  160.2070  211.7590  151.9150 C   0  0  0  0  0  0  0  0  0  0  0  0
  162.2870  210.0590  149.2670 C   0  0  2  0  0  3  0  0  0  0  0  0
  161.5820  209.0860  148.5870 F   0  0  0  0  0  0  0  0  0  0  0  0
  161.1180  211.4690  151.0250 C   0  0  0  0  0  0  0  0  0  0  0  0
  159.3140  212.0380  152.8250 C   0  0  0  0  0  3  0  0  0  0  0  0
  162.1500  214.3020  147.8110 C   0  0  0  0  0  3  0  0  0  0  0  0
  160.4970  213.4190  149.4390 C   0  0  0  0  0  2  0  0  0  0  0  0
  161.5890  212.8950  144.6600 O   0  0  0  0  0  0  0  0  0  0  0  0
  163.6350  213.8260  145.0830 O   0  0  0  0  0  1  0  0  0  0  0  0
  162.4340  213.2670  145.5130 C   0  0  0  0  0  0  0  0  0  0  0  0
  158.7430  213.6220  154.7000 C   0  0  0  0  0  2  0  0  0  0  0  0
  158.1930  213.3360  157.0250 N   0  0  0  0  0  2  0  0  0  0  0  0
  157.8780  213.0750  155.8080 C   0  0  0  0  0  0  0  0  0  0  0  0
  156.3840  211.0650  155.7860 C   0  0  0  0  0  1  0  0  0  0  0  0
  156.5080  212.5450  155.4840 C   0  0  0  0  0  3  0  0  0  0  0  0
  156.1510  212.7800  154.0280 C   0  0  0  0  0  1  0  0  0  0  0  0
  160.0780  211.4980  155.1280 C   0  0  0  0  0  2  0  0  0  0  0  0
  161.8660  209.0030  156.3190 C   0  0  0  0  0  2  0  0  0  0  0  0
  160.6780  209.2420  154.1970 C   0  0  0  0  0  2  0  0  0  0  0  0
  162.2170  210.3470  155.7030 C   0  0  0  0  0  2  0  0  0  0  0  0
  159.5320  208.1840  156.1170 C   0  0  0  0  0  1  0  0  0  0  0  0
  161.2080  210.6110  154.5990 C   0  0  2  0  0  3  0  0  0  0  0  0
  160.8550  208.3340  155.3950 C   0  0  2  0  0  0  0  0  0  0  0  0
  161.3210  206.9790  154.9660 C   0  0  0  0  0  3  0  0  0  0  0  0
  160.8660  206.4220  153.9010 N   0  0  0  0  0  0  0  0  0  0  0  0
  161.3290  205.1190  153.5070 C   0  0  0  0  0  2  0  0  0  0  0  0
  160.7420  204.7310  152.1600 C   0  0  1  0  0  3  0  0  0  0  0  0
  161.6600  205.0550  151.1440 O   0  0  0  0  0  0  0  0  0  0  0  0
  161.5850  203.7030  151.5200 C   0  0  2  0  0  3  0  0  0  0  0  0
  160.7640  202.9390  150.4990 C   0  0  0  0  0  2  0  0  0  0  0  0
  160.4680  203.7980  149.3600 N   0  0  0  0  0  2  0  0  0  0  0  0
  160.6770  204.3070  144.7590 C   0  0  0  0  0  2  0  0  0  0  0  0
  161.4000  204.2950  147.1560 C   0  0  2  0  0  0  0  0  0  0  0  0
  161.2190  203.2750  148.2250 C   0  0  1  0  0  3  0  0  0  0  0  0
  162.4250  204.0080  148.0710 O   0  0  0  0  0  0  0  0  0  0  0  0
  160.8400  205.6300  147.3710 N   0  0  0  0  0  2  0  0  0  0  0  0
  160.2430  205.7610  144.9880 C   0  0  0  0  0  2  0  0  0  0  0  0
  160.9700  206.4260  146.1560 C   0  0  0  0  0  2  0  0  0  0  0  0
  161.7370  203.8250  145.7430 C   0  0  0  0  0  2  0  0  0  0  0  0
  1 12  1  6  0  0  0
  1 18  1  0  0  0  0
  1 24  1  0  0  0  0
  2 14  1  0  0  0  0
  4  7  2  0  0  0  0
  4 13  1  0  0  0  0
  5  9  1  0  0  0  0
  5  6  2  0  0  0  0
  6 11  1  0  0  0  0
  7  5  1  0  0  0  0
  8 12  2  0  0  0  0
  9 10  1  6  0  0  0
  9  3  1  0  0  0  0
 11  3  1  0  0  0  0
 11  8  2  0  0  0  0
 13  2  2  0  0  0  0
 14  6  1  0  0  0  0
 15 17  2  0  0  0  0
 16 17  1  0  0  0  0
 17  4  1  0  0  0  0
 18 20  1  0  0  0  0
 20 19  2  0  0  0  0
 22 21  1  0  0  0  0
 22 20  1  0  0  0  0
 23 22  1  0  0  0  0
 26 29  1  0  0  0  0
 26 30  1  0  0  0  0
 27 25  1  0  0  0  0
 29 24  1  1  0  0  0
 29 27  1  0  0  0  0
 30 28  1  1  0  0  0
 30 25  1  0  0  0  0
 31 30  1  0  0  0  0
 32 31  2  0  0  0  0
 33 32  1  0  0  0  0
 34 33  1  1  0  0  0
 35 36  1  0  0  0  0
 35 34  1  0  0  0  0
 36 37  1  6  0  0  0
 36 34  1  0  0  0  0
 38 37  1  0  0  0  0
 39 44  1  0  0  0  0
 39 46  1  0  0  0  0
 40 46  1  6  0  0  0
 40 43  1  0  0  0  0
 40 42  1  0  0  0  0
 40 41  1  0  0  0  0
 41 38  1  1  0  0  0
 42 41  1  0  0  0  0
 44 45  1  0  0  0  0
 45 43  1  0  0  0  0
M  END
>  <MODEL>
8

>  <REMARK>
 VINA RESULT:      -6.0      4.307      8.707
  Name = 
  13 active torsions:
  status: ('A' for Active; 'I' for Inactive)
    1  A    between atoms: C_2  and  C_17
    2  A    between atoms: C_2  and  C_35
    3  A    between atoms: C_2  and  C_44
    4  A    between atoms: C_6  and  C_42
    5  A    between atoms: N_9  and  C_10
    6  A    between atoms: N_9  and  C_46
    7  A    between atoms: C_11  and  C_39
    8  A    between atoms: C_17  and  C_23
    9  A    between atoms: C_20  and  C_22
   10  A    between atoms: C_20  and  N_36
   11  A    between atoms: C_23  and  C_30
   12  A    between atoms: C_37  and  C_44
   13  A    between atoms: C_41  and  C_46
                            x       y       z     vdW  Elec       q    Type
                         _______ _______ _______ _____ _____    ______ ____

>  <TORSDO>
F 13

$$$$
=
 OpenBabel11042420563D

 46 51  0  0  1  0  0  0  0  0999 V2000
  161.6350  206.6640  152.8190 C   0  0  1  0  0  3  0  0  0  0  0  0
  161.4130  204.5150  147.4620 C   0  0  0  0  0  3  0  0  0  0  0  0
  161.4990  202.1060  151.8930 S   0  0  0  0  0  0  0  0  0  0  0  0
  160.8190  202.1930  146.7320 C   0  0  0  0  0  0  0  0  0  0  0  0
  160.8670  202.1030  149.2600 C   0  0  0  0  0  0  0  0  0  0  0  0
  160.8930  203.3860  149.5930 C   0  0  0  0  0  0  0  0  0  0  0  0
  160.5800  201.5850  147.9060 C   0  0  0  0  0  3  0  0  0  0  0  0
  160.8530  204.7060  151.6250 C   0  0  0  0  0  0  0  0  0  0  0  0
  161.0550  201.1450  150.3970 C   0  0  2  0  0  3  0  0  0  0  0  0
  159.8890  200.4430  150.6230 F   0  0  0  0  0  0  0  0  0  0  0  0
  161.1820  203.6090  150.9980 C   0  0  0  0  0  0  0  0  0  0  0  0
  160.5440  205.7970  152.2720 C   0  0  0  0  0  3  0  0  0  0  0  0
  161.5060  203.5020  146.6040 C   0  0  0  0  0  3  0  0  0  0  0  0
  160.5210  204.4930  148.6560 C   0  0  0  0  0  2  0  0  0  0  0  0
  159.8820  202.0290  144.5600 O   0  0  0  0  0  0  0  0  0  0  0  0
  160.8360  200.1140  145.3680 O   0  0  0  0  0  1  0  0  0  0  0  0
  160.4920  201.4570  145.4990 C   0  0  0  0  0  0  0  0  0  0  0  0
  161.7780  207.9830  152.0460 C   0  0  0  0  0  2  0  0  0  0  0  0
  163.0750  206.8440  150.3700 N   0  0  0  0  0  2  0  0  0  0  0  0
  162.2770  207.8150  150.6330 C   0  0  0  0  0  0  0  0  0  0  0  0
  161.6220  207.7570  148.2170 C   0  0  0  0  0  1  0  0  0  0  0  0
  161.5860  208.5420  149.5120 C   0  0  0  0  0  3  0  0  0  0  0  0
  162.2010  209.9090  149.2740 C   0  0  0  0  0  1  0  0  0  0  0  0
  161.4490  206.8820  154.3180 C   0  0  0  0  0  2  0  0  0  0  0  0
  160.1050  208.2800  156.9790 C   0  0  0  0  0  2  0  0  0  0  0  0
  161.4000  209.2530  155.1490 C   0  0  0  0  0  2  0  0  0  0  0  0
  159.5450  207.7840  155.6560 C   0  0  0  0  0  2  0  0  0  0  0  0
  162.5660  208.5190  157.2040 C   0  0  0  0  0  1  0  0  0  0  0  0
  160.5720  208.1080  154.5850 C   0  0  2  0  0  3  0  0  0  0  0  0
  161.3080  209.1610  156.6570 C   0  0  2  0  0  0  0  0  0  0  0  0
  161.1640  210.5210  157.2610 C   0  0  0  0  0  3  0  0  0  0  0  0
  160.9230  211.5530  156.5340 N   0  0  0  0  0  0  0  0  0  0  0  0
  160.7880  212.8520  157.1360 C   0  0  0  0  0  2  0  0  0  0  0  0
  159.6740  213.6360  156.4630 C   0  0  1  0  0  3  0  0  0  0  0  0
  159.2100  212.9160  155.3460 O   0  0  0  0  0  0  0  0  0  0  0  0
  158.4170  212.8640  156.5060 C   0  0  2  0  0  3  0  0  0  0  0  0
  157.2380  213.8050  156.3540 C   0  0  0  0  0  2  0  0  0  0  0  0
  156.3600  213.3300  155.2920 N   0  0  0  0  0  2  0  0  0  0  0  0
  159.4190  214.1290  151.9060 C   0  0  0  0  0  2  0  0  0  0  0  0
  157.2540  213.5670  153.0310 C   0  0  2  0  0  0  0  0  0  0  0  0
  156.5400  214.2270  154.1570 C   0  0  1  0  0  3  0  0  0  0  0  0
  155.8570  213.7090  153.0260 O   0  0  0  0  0  0  0  0  0  0  0  0
  157.6560  212.1690  153.1900 N   0  0  0  0  0  2  0  0  0  0  0  0
  159.7340  212.6290  151.9550 C   0  0  0  0  0  2  0  0  0  0  0  0
  158.4830  211.7570  152.0620 C   0  0  0  0  0  2  0  0  0  0  0  0
  157.9280  214.4420  151.9760 C   0  0  0  0  0  2  0  0  0  0  0  0
  1 18  1  6  0  0  0
  1 24  1  0  0  0  0
  2 14  1  0  0  0  0
  4  7  2  0  0  0  0
  5  6  2  0  0  0  0
  5  9  1  0  0  0  0
  6 11  1  0  0  0  0
  7  5  1  0  0  0  0
  8 12  2  0  0  0  0
  9 10  1  1  0  0  0
  9  3  1  0  0  0  0
 11  8  2  0  0  0  0
 11  3  1  0  0  0  0
 12  1  1  0  0  0  0
 13  4  1  0  0  0  0
 13  2  2  0  0  0  0
 14  6  1  0  0  0  0
 15 17  2  0  0  0  0
 16 17  1  0  0  0  0
 17  4  1  0  0  0  0
 19 20  2  0  0  0  0
 20 18  1  0  0  0  0
 21 22  1  0  0  0  0
 22 20  1  0  0  0  0
 23 22  1  0  0  0  0
 26 30  1  0  0  0  0
 27 25  1  0  0  0  0
 29 24  1  1  0  0  0
 29 26  1  0  0  0  0
 29 27  1  0  0  0  0
 30 25  1  0  0  0  0
 30 28  1  1  0  0  0
 30 31  1  0  0  0  0
 32 33  1  0  0  0  0
 32 31  2  0  0  0  0
 34 36  1  0  0  0  0
 34 33  1  1  0  0  0
 35 34  1  0  0  0  0
 35 36  1  0  0  0  0
 36 37  1  6  0  0  0
 38 37  1  0  0  0  0
 39 44  1  0  0  0  0
 39 46  1  0  0  0  0
 40 46  1  6  0  0  0
 40 43  1  0  0  0  0
 40 41  1  0  0  0  0
 41 38  1  1  0  0  0
 42 40  1  0  0  0  0
 42 41  1  0  0  0  0
 44 45  1  0  0  0  0
 45 43  1  0  0  0  0
M  END
>  <MODEL>
9

>  <REMARK>
 VINA RESULT:      -5.8      5.844      9.440
  Name = 
  13 active torsions:
  status: ('A' for Active; 'I' for Inactive)
    1  A    between atoms: C_2  and  C_17
    2  A    between atoms: C_2  and  C_35
    3  A    between atoms: C_2  and  C_44
    4  A    between atoms: C_6  and  C_42
    5  A    between atoms: N_9  and  C_10
    6  A    between atoms: N_9  and  C_46
    7  A    between atoms: C_11  and  C_39
    8  A    between atoms: C_17  and  C_23
    9  A    between atoms: C_20  and  C_22
   10  A    between atoms: C_20  and  N_36
   11  A    between atoms: C_23  and  C_30
   12  A    between atoms: C_37  and  C_44
   13  A    between atoms: C_41  and  C_46
                            x       y       z     vdW  Elec       q    Type
                         _______ _______ _______ _____ _____    ______ ____

>  <TORSDO>
F 13

$$$$
