=
 OpenBabel11042421213D

 39 43  0  0  1  0  0  0  0  0999 V2000
  158.8550  212.7080  154.8580 C   0  0  0  0  0  0  0  0  0  0  0  0
  160.5220  211.0360  154.1870 C   0  0  0  0  0  3  0  0  0  0  0  0
  161.2010  211.3760  150.5150 C   0  0  0  0  0  0  0  0  0  0  0  0
  161.4260  213.0700  146.6630 O   0  0  0  0  0  1  0  0  0  0  0  0
  162.4040  211.6100  148.2770 C   0  0  0  0  0  2  0  0  0  0  0  0
  159.4430  212.5000  152.4850 C   0  0  0  0  0  0  0  0  0  0  0  0
  159.0230  214.4530  151.0130 C   0  0  0  0  0  1  0  0  0  0  0  0
  161.0860  210.7400  151.8050 N   0  0  0  0  0  0  0  0  0  0  0  0
  160.6530  213.2350  148.9310 C   0  0  1  0  0  3  0  0  0  0  0  0
  162.0410  210.7030  149.4440 C   0  0  0  0  0  2  0  0  0  0  0  0
  161.1520  212.3260  147.8110 C   0  0  1  0  0  3  0  0  0  0  0  0
  160.4920  212.4990  150.2480 C   0  0  0  0  0  0  0  0  0  0  0  0
  158.6210  213.0820  153.5890 C   0  0  0  0  0  0  0  0  0  0  0  0
  161.5240  214.3150  149.1050 O   0  0  0  0  0  1  0  0  0  0  0  0
  157.6080  213.9990  153.3250 O   0  0  0  0  0  1  0  0  0  0  0  0
  159.9330  211.7360  155.1580 C   0  0  0  0  0  3  0  0  0  0  0  0
  159.6280  213.1100  151.2940 C   0  0  0  0  0  0  0  0  0  0  0  0
  160.0430  211.1370  152.7600 C   0  0  1  0  0  3  0  0  0  0  0  0
  158.0880  213.2860  155.9210 N   0  0  0  0  0  2  0  0  0  0  0  0
  157.1500  212.5270  156.7360 C   0  0  0  0  0  2  0  0  0  0  0  0
  155.6710  211.0360  155.9260 O   0  0  0  0  0  1  0  0  0  0  0  0
  155.8960  212.3670  156.0220 N   0  0  0  0  0  2  0  0  0  0  0  0
  161.8300  209.5090  152.0690 C   0  0  0  0  0  2  0  0  0  0  0  0
  161.3160  207.4910  153.4780 C   0  0  0  0  0  2  0  0  0  0  0  0
  160.8740  208.3380  152.2950 C   0  0  2  0  0  3  0  0  0  0  0  0
  161.0560  207.1230  151.3770 C   0  0  1  0  0  0  0  0  0  0  0  0
  161.4750  206.2830  152.5670 C   0  0  0  0  0  2  0  0  0  0  0  0
  159.8230  206.7260  150.8900 F   0  0  0  0  0  0  0  0  0  0  0  0
  161.2140  205.3830  148.7420 C   0  0  0  0  0  0  0  0  0  0  0  0
  163.2510  207.6940  150.5570 O   0  0  0  0  0  0  0  0  0  0  0  0
  161.9340  206.5900  149.0100 N   0  0  0  0  0  2  0  0  0  0  0  0
  162.1350  207.1640  150.3080 C   0  0  0  0  0  0  0  0  0  0  0  0
  160.9390  204.5760  149.6730 O   0  0  0  0  0  0  0  0  0  0  0  0
  160.8490  205.0550  147.3330 C   0  0  0  0  0  3  0  0  0  0  0  0
  161.8460  204.0580  146.7400 C   0  0  0  0  0  2  0  0  0  0  0  0
  161.4650  203.7260  145.3000 C   0  0  0  0  0  2  0  0  0  0  0  0
  160.4130  205.9830  145.0470 C   0  0  0  0  0  2  0  0  0  0  0  0
  160.7890  206.3260  146.4860 C   0  0  0  0  0  2  0  0  0  0  0  0
  161.4200  204.9990  144.4590 C   0  0  0  0  0  2  0  0  0  0  0  0
  1 16  1  0  0  0  0
  1 19  1  0  0  0  0
  2 16  2  0  0  0  0
  3  8  1  0  0  0  0
  5 10  1  0  0  0  0
  6 18  1  0  0  0  0
  6 13  1  0  0  0  0
  7 17  1  0  0  0  0
  8 23  1  0  0  0  0
  8 18  1  0  0  0  0
  9 14  1  1  0  0  0
  9 12  1  0  0  0  0
 10  3  1  0  0  0  0
 11  4  1  6  0  0  0
 11  5  1  0  0  0  0
 11  9  1  0  0  0  0
 12  3  2  0  0  0  0
 12 17  1  0  0  0  0
 13  1  2  0  0  0  0
 15 13  1  0  0  0  0
 17  6  2  0  0  0  0
 18  2  1  1  0  0  0
 19 20  1  0  0  0  0
 21 22  1  0  0  0  0
 22 20  1  0  0  0  0
 25 23  1  6  0  0  0
 25 24  1  0  0  0  0
 26 28  1  6  0  0  0
 26 25  1  0  0  0  0
 26 27  1  0  0  0  0
 27 24  1  0  0  0  0
 29 31  1  0  0  0  0
 29 33  2  0  0  0  0
 31 32  1  0  0  0  0
 32 30  2  0  0  0  0
 32 26  1  0  0  0  0
 34 29  1  0  0  0  0
 35 34  1  0  0  0  0
 36 35  1  0  0  0  0
 37 38  1  0  0  0  0
 38 34  1  0  0  0  0
 39 37  1  0  0  0  0
 39 36  1  0  0  0  0
M  END
>  <MODEL>
1

>  <REMARK>
 VINA RESULT:      -7.6      0.000      0.000
  Name = 
  7 active torsions:
  status: ('A' for Active; 'I' for Inactive)
    1  A    between atoms: C_1  and  C_5
    2  A    between atoms: C_2  and  N_9
    3  A    between atoms: N_9  and  C_39
    4  A    between atoms: C_12  and  C_30
    5  A    between atoms: C_16  and  C_27
    6  A    between atoms: N_20  and  C_39
    7  A    between atoms: N_23  and  C_30
                            x       y       z     vdW  Elec       q    Type
                         _______ _______ _______ _____ _____    ______ ____

>  <TORSDO>
F 7

$$$$
=
 OpenBabel11042421213D

 39 43  0  0  1  0  0  0  0  0999 V2000
  161.5630  212.1700  148.3240 C   0  0  0  0  0  0  0  0  0  0  0  0
  161.8770  210.2080  149.7630 C   0  0  0  0  0  3  0  0  0  0  0  0
  160.3510  210.8830  153.1210 C   0  0  0  0  0  0  0  0  0  0  0  0
  157.9230  212.6120  156.0980 O   0  0  0  0  0  1  0  0  0  0  0  0
  158.9820  210.6450  155.2600 C   0  0  0  0  0  2  0  0  0  0  0  0
  160.8460  212.2870  150.6670 C   0  0  0  0  0  0  0  0  0  0  0  0
  159.1250  213.9690  151.2690 C   0  0  0  0  0  1  0  0  0  0  0  0
  161.2420  210.3060  152.1430 N   0  0  0  0  0  0  0  0  0  0  0  0
  158.7480  212.6630  153.8430 C   0  0  1  0  0  3  0  0  0  0  0  0
  160.1950  210.1890  154.4620 C   0  0  0  0  0  2  0  0  0  0  0  0
  158.9510  212.1610  155.2710 C   0  0  1  0  0  3  0  0  0  0  0  0
  159.7500  212.0710  152.8710 C   0  0  0  0  0  0  0  0  0  0  0  0
  161.0760  212.9150  149.3310 C   0  0  1  0  0  3  0  0  0  0  0  0
  157.4500  212.3760  153.4070 O   0  0  0  0  0  1  0  0  0  0  0  0
  160.8030  214.2620  149.1130 O   0  0  0  0  0  1  0  0  0  0  0  0
  161.8550  210.7330  148.5360 C   0  0  0  0  0  3  0  0  0  0  0  0
  159.9640  212.7650  151.5720 C   0  0  0  0  0  0  0  0  0  0  0  0
  161.7030  211.0780  150.9820 C   0  0  0  0  0  0  0  0  0  0  0  0
  161.7570  212.7620  147.0340 N   0  0  0  0  0  2  0  0  0  0  0  0
  160.7480  212.7460  145.9840 C   0  0  0  0  0  2  0  0  0  0  0  0
  162.6740  213.2420  144.9290 O   0  0  0  0  0  1  0  0  0  0  0  0
  161.3810  212.9230  144.6900 N   0  0  0  0  0  2  0  0  0  0  0  0
  161.9130  209.0400  152.4390 C   0  0  0  0  0  2  0  0  0  0  0  0
  161.2760  206.9210  153.6320 C   0  0  0  0  0  2  0  0  0  0  0  0
  160.8990  207.8990  152.5330 C   0  0  2  0  0  3  0  0  0  0  0  0
  161.0440  206.7740  151.5010 C   0  0  1  0  0  0  0  0  0  0  0  0
  161.3980  205.8020  152.6090 C   0  0  0  0  0  2  0  0  0  0  0  0
  159.8040  206.4860  150.9570 F   0  0  0  0  0  0  0  0  0  0  0  0
  161.2330  205.2070  148.7620 C   0  0  0  0  0  0  0  0  0  0  0  0
  163.2640  207.3620  150.7660 O   0  0  0  0  0  0  0  0  0  0  0  0
  161.9640  206.3820  149.1240 N   0  0  0  0  0  2  0  0  0  0  0  0
  162.1460  206.8670  150.4600 C   0  0  0  0  0  0  0  0  0  0  0  0
  160.9260  204.3460  149.6320 O   0  0  0  0  0  0  0  0  0  0  0  0
  160.8930  204.9770  147.3270 C   0  0  0  0  0  3  0  0  0  0  0  0
  161.9630  204.1170  146.6540 C   0  0  0  0  0  2  0  0  0  0  0  0
  161.6080  203.8850  145.1890 C   0  0  0  0  0  2  0  0  0  0  0  0
  160.3850  206.0680  145.1290 C   0  0  0  0  0  2  0  0  0  0  0  0
  160.7350  206.3100  146.5950 C   0  0  0  0  0  2  0  0  0  0  0  0
  161.4650  205.2200  144.4630 C   0  0  0  0  0  2  0  0  0  0  0  0
  1 16  2  0  0  0  0
  1 13  1  0  0  0  0
  2 18  2  0  0  0  0
  3 10  1  0  0  0  0
  5 11  1  0  0  0  0
  6 18  1  0  0  0  0
  6 17  2  0  0  0  0
  7 17  1  0  0  0  0
  8 23  1  0  0  0  0
  8  3  1  0  0  0  0
  9 14  1  6  0  0  0
  9 11  1  0  0  0  0
 10  5  1  0  0  0  0
 11  4  1  1  0  0  0
 12  3  2  0  0  0  0
 12  9  1  0  0  0  0
 13 15  1  1  0  0  0
 13  6  1  0  0  0  0
 16  2  1  0  0  0  0
 17 12  1  0  0  0  0
 18  8  1  0  0  0  0
 19  1  1  0  0  0  0
 20 19  1  0  0  0  0
 22 21  1  0  0  0  0
 22 20  1  0  0  0  0
 25 23  1  6  0  0  0
 25 24  1  0  0  0  0
 26 28  1  6  0  0  0
 26 25  1  0  0  0  0
 26 27  1  0  0  0  0
 27 24  1  0  0  0  0
 29 31  1  0  0  0  0
 29 33  2  0  0  0  0
 31 32  1  0  0  0  0
 32 30  2  0  0  0  0
 32 26  1  0  0  0  0
 34 29  1  0  0  0  0
 35 34  1  0  0  0  0
 36 35  1  0  0  0  0
 37 38  1  0  0  0  0
 38 34  1  0  0  0  0
 39 37  1  0  0  0  0
 39 36  1  0  0  0  0
M  END
>  <MODEL>
2

>  <REMARK>
 VINA RESULT:      -7.3      1.696      5.255
  Name = 
  7 active torsions:
  status: ('A' for Active; 'I' for Inactive)
    1  A    between atoms: C_1  and  C_5
    2  A    between atoms: C_2  and  N_9
    3  A    between atoms: N_9  and  C_39
    4  A    between atoms: C_12  and  C_30
    5  A    between atoms: C_16  and  C_27
    6  A    between atoms: N_20  and  C_39
    7  A    between atoms: N_23  and  C_30
                            x       y       z     vdW  Elec       q    Type
                         _______ _______ _______ _____ _____    ______ ____

>  <TORSDO>
F 7

$$$$
=
 OpenBabel11042421213D

 39 43  0  0  1  0  0  0  0  0999 V2000
  161.5110  207.4260  152.2070 C   0  0  0  0  0  0  0  0  0  0  0  0
  160.3740  209.4820  152.9140 C   0  0  0  0  0  3  0  0  0  0  0  0
  160.9300  212.1480  150.3360 C   0  0  0  0  0  0  0  0  0  0  0  0
  161.8130  213.9700  146.6410 O   0  0  0  0  0  1  0  0  0  0  0  0
  160.5280  214.0200  148.6510 C   0  0  0  0  0  2  0  0  0  0  0  0
  161.7820  209.4580  150.8590 C   0  0  0  0  0  0  0  0  0  0  0  0
  162.4410  209.1920  148.4820 C   0  0  0  0  0  1  0  0  0  0  0  0
  160.6790  211.5670  151.6330 N   0  0  0  0  0  0  0  0  0  0  0  0
  161.7560  211.9770  147.9810 C   0  0  1  0  0  3  0  0  0  0  0  0
  160.5820  213.6090  150.1150 C   0  0  0  0  0  2  0  0  0  0  0  0
  161.7720  213.5030  147.9560 C   0  0  1  0  0  3  0  0  0  0  0  0
  161.5520  211.4220  149.3770 C   0  0  0  0  0  0  0  0  0  0  0  0
  162.1120  208.0340  151.1710 C   0  0  1  0  0  3  0  0  0  0  0  0
  160.7580  211.4870  147.1340 O   0  0  0  0  0  1  0  0  0  0  0  0
  163.0410  207.3290  150.4110 O   0  0  0  0  0  1  0  0  0  0  0  0
  160.5160  208.1600  153.0240 C   0  0  0  0  0  3  0  0  0  0  0  0
  161.9380  210.0080  149.6350 C   0  0  0  0  0  0  0  0  0  0  0  0
  161.2880  210.2880  152.0260 C   0  0  0  0  0  0  0  0  0  0  0  0
  161.8050  206.0520  152.4900 N   0  0  0  0  0  2  0  0  0  0  0  0
  160.8420  204.9740  152.3130 C   0  0  0  0  0  2  0  0  0  0  0  0
  161.2130  204.6040  150.1240 O   0  0  0  0  0  1  0  0  0  0  0  0
  161.3430  204.0220  151.3390 N   0  0  0  0  0  2  0  0  0  0  0  0
  160.0390  212.3730  152.6720 C   0  0  0  0  0  2  0  0  0  0  0  0
  157.9730  213.4770  151.7610 C   0  0  0  0  0  2  0  0  0  0  0  0
  158.5160  212.2990  152.5520 C   0  0  2  0  0  3  0  0  0  0  0  0
  157.7140  212.7670  153.7720 C   0  0  1  0  0  0  0  0  0  0  0  0
  157.1610  213.9260  152.9670 C   0  0  0  0  0  2  0  0  0  0  0  0
  156.7280  211.8380  154.0570 F   0  0  0  0  0  0  0  0  0  0  0  0
  158.8710  210.9910  156.1180 C   0  0  0  0  0  0  0  0  0  0  0  0
  158.4000  214.4530  155.3540 O   0  0  0  0  0  0  0  0  0  0  0  0
  159.2280  212.3440  155.8170 N   0  0  0  0  0  2  0  0  0  0  0  0
  158.4610  213.2430  155.0060 C   0  0  0  0  0  0  0  0  0  0  0  0
  157.6970  210.5750  155.9160 O   0  0  0  0  0  0  0  0  0  0  0  0
  159.8900  210.0940  156.7380 C   0  0  0  0  0  3  0  0  0  0  0  0
  161.2940  210.4680  156.2610 C   0  0  0  0  0  2  0  0  0  0  0  0
  162.3290  209.5480  156.9000 C   0  0  0  0  0  2  0  0  0  0  0  0
  160.6260  207.7200  157.0530 C   0  0  0  0  0  2  0  0  0  0  0  0
  159.5820  208.6320  156.4140 C   0  0  0  0  0  2  0  0  0  0  0  0
  162.0220  208.0910  156.5610 C   0  0  0  0  0  2  0  0  0  0  0  0
  1 19  1  0  0  0  0
  1 16  2  0  0  0  0
  2 16  1  0  0  0  0
  3  8  1  0  0  0  0
  5 10  1  0  0  0  0
  6 13  1  0  0  0  0
  6 18  1  0  0  0  0
  7 17  1  0  0  0  0
  8 18  1  0  0  0  0
  8 23  1  0  0  0  0
  9 14  1  6  0  0  0
  9 12  1  0  0  0  0
 10  3  1  0  0  0  0
 11  4  1  6  0  0  0
 11  9  1  0  0  0  0
 11  5  1  0  0  0  0
 12 17  1  0  0  0  0
 12  3  2  0  0  0  0
 13 15  1  1  0  0  0
 13  1  1  0  0  0  0
 17  6  2  0  0  0  0
 18  2  2  0  0  0  0
 20 19  1  0  0  0  0
 21 22  1  0  0  0  0
 22 20  1  0  0  0  0
 24 25  1  0  0  0  0
 24 27  1  0  0  0  0
 25 23  1  1  0  0  0
 25 26  1  0  0  0  0
 26 28  1  1  0  0  0
 26 32  1  0  0  0  0
 27 26  1  0  0  0  0
 29 34  1  0  0  0  0
 31 29  1  0  0  0  0
 32 30  2  0  0  0  0
 32 31  1  0  0  0  0
 33 29  2  0  0  0  0
 35 34  1  0  0  0  0
 35 36  1  0  0  0  0
 38 34  1  0  0  0  0
 38 37  1  0  0  0  0
 39 36  1  0  0  0  0
 39 37  1  0  0  0  0
M  END
>  <MODEL>
3

>  <REMARK>
 VINA RESULT:      -6.4      2.776      7.546
  Name = 
  7 active torsions:
  status: ('A' for Active; 'I' for Inactive)
    1  A    between atoms: C_1  and  C_5
    2  A    between atoms: C_2  and  N_9
    3  A    between atoms: N_9  and  C_39
    4  A    between atoms: C_12  and  C_30
    5  A    between atoms: C_16  and  C_27
    6  A    between atoms: N_20  and  C_39
    7  A    between atoms: N_23  and  C_30
                            x       y       z     vdW  Elec       q    Type
                         _______ _______ _______ _____ _____    ______ ____

>  <TORSDO>
F 7

$$$$
=
 OpenBabel11042421213D

 39 43  0  0  1  0  0  0  0  0999 V2000
  161.8510  206.0610  148.3730 C   0  0  0  0  0  0  0  0  0  0  0  0
  162.3840  208.4350  148.6910 C   0  0  0  0  0  3  0  0  0  0  0  0
  161.3840  209.4700  152.1540 C   0  0  0  0  0  0  0  0  0  0  0  0
  160.3640  209.2060  156.2330 O   0  0  0  0  0  1  0  0  0  0  0  0
  161.4370  210.4550  154.5060 C   0  0  0  0  0  2  0  0  0  0  0  0
  161.1890  207.1580  150.4650 C   0  0  0  0  0  0  0  0  0  0  0  0
  160.8040  205.7240  152.4530 C   0  0  0  0  0  1  0  0  0  0  0  0
  161.6700  209.5970  150.7450 N   0  0  0  0  0  0  0  0  0  0  0  0
  160.8110  208.0850  154.1570 C   0  0  1  0  0  3  0  0  0  0  0  0
  161.3730  210.7240  153.0100 C   0  0  0  0  0  2  0  0  0  0  0  0
  160.4180  209.3870  154.8510 C   0  0  1  0  0  3  0  0  0  0  0  0
  161.0380  208.2660  152.6680 C   0  0  0  0  0  0  0  0  0  0  0  0
  161.2000  205.9800  149.5450 C   0  0  1  0  0  3  0  0  0  0  0  0
  161.9620  207.5490  154.7420 O   0  0  0  0  0  1  0  0  0  0  0  0
  160.5380  204.8020  149.8780 O   0  0  0  0  0  1  0  0  0  0  0  0
  162.5660  207.3050  148.0050 C   0  0  0  0  0  3  0  0  0  0  0  0
  160.9970  207.0590  151.7990 C   0  0  0  0  0  0  0  0  0  0  0  0
  161.3700  208.5090  149.8050 C   0  0  0  0  0  0  0  0  0  0  0  0
  161.8870  204.9230  147.5020 N   0  0  0  0  0  2  0  0  0  0  0  0
  162.1670  205.0140  146.0770 C   0  0  0  0  0  2  0  0  0  0  0  0
  160.4930  206.1600  145.1010 O   0  0  0  0  0  1  0  0  0  0  0  0
  160.9310  204.8990  145.3240 N   0  0  0  0  0  2  0  0  0  0  0  0
  162.0080  210.9100  150.1950 C   0  0  0  0  0  2  0  0  0  0  0  0
  162.1460  211.4880  147.7520 C   0  0  0  0  0  2  0  0  0  0  0  0
  161.2170  211.1790  148.9140 C   0  0  2  0  0  3  0  0  0  0  0  0
  160.6010  212.5760  148.7750 C   0  0  1  0  0  0  0  0  0  0  0  0
  161.5180  212.8660  147.6040 C   0  0  0  0  0  2  0  0  0  0  0  0
  159.2840  212.4600  148.3660 F   0  0  0  0  0  0  0  0  0  0  0  0
  158.5410  213.3130  151.0570 C   0  0  0  0  0  0  0  0  0  0  0  0
  161.6970  214.4520  149.8230 O   0  0  0  0  0  0  0  0  0  0  0  0
  159.9450  213.5840  151.0570 N   0  0  0  0  0  2  0  0  0  0  0  0
  160.7910  213.5800  149.9010 C   0  0  0  0  0  0  0  0  0  0  0  0
  157.8830  213.3250  149.9800 O   0  0  0  0  0  0  0  0  0  0  0  0
  157.8470  213.0800  152.3580 C   0  0  0  0  0  3  0  0  0  0  0  0
  158.2010  214.1820  153.3570 C   0  0  0  0  0  2  0  0  0  0  0  0
  157.4860  213.9390  154.6830 C   0  0  0  0  0  2  0  0  0  0  0  0
  157.4960  211.4730  154.2480 C   0  0  0  0  0  2  0  0  0  0  0  0
  158.2100  211.7060  152.9200 C   0  0  0  0  0  2  0  0  0  0  0  0
  157.8650  212.5700  155.2440 C   0  0  0  0  0  2  0  0  0  0  0  0
  1 13  1  0  0  0  0
  2 18  2  0  0  0  0
  3 12  2  0  0  0  0
  3 10  1  0  0  0  0
  5 11  1  0  0  0  0
  6 17  2  0  0  0  0
  8  3  1  0  0  0  0
  9 14  1  1  0  0  0
  9 11  1  0  0  0  0
 10  5  1  0  0  0  0
 11  4  1  1  0  0  0
 12  9  1  0  0  0  0
 13 15  1  6  0  0  0
 13  6  1  0  0  0  0
 16  1  2  0  0  0  0
 16  2  1  0  0  0  0
 17  7  1  0  0  0  0
 17 12  1  0  0  0  0
 18  6  1  0  0  0  0
 18  8  1  0  0  0  0
 19  1  1  0  0  0  0
 20 19  1  0  0  0  0
 21 22  1  0  0  0  0
 22 20  1  0  0  0  0
 23  8  1  0  0  0  0
 24 25  1  0  0  0  0
 25 23  1  1  0  0  0
 26 28  1  6  0  0  0
 26 25  1  0  0  0  0
 26 32  1  0  0  0  0
 27 24  1  0  0  0  0
 27 26  1  0  0  0  0
 29 31  1  0  0  0  0
 29 34  1  0  0  0  0
 30 32  2  0  0  0  0
 32 31  1  0  0  0  0
 33 29  2  0  0  0  0
 34 38  1  0  0  0  0
 34 35  1  0  0  0  0
 35 36  1  0  0  0  0
 36 39  1  0  0  0  0
 37 39  1  0  0  0  0
 38 37  1  0  0  0  0
M  END
>  <MODEL>
4

>  <REMARK>
 VINA RESULT:      -6.2      2.425      8.833
  Name = 
  7 active torsions:
  status: ('A' for Active; 'I' for Inactive)
    1  A    between atoms: C_1  and  C_5
    2  A    between atoms: C_2  and  N_9
    3  A    between atoms: N_9  and  C_39
    4  A    between atoms: C_12  and  C_30
    5  A    between atoms: C_16  and  C_27
    6  A    between atoms: N_20  and  C_39
    7  A    between atoms: N_23  and  C_30
                            x       y       z     vdW  Elec       q    Type
                         _______ _______ _______ _____ _____    ______ ____

>  <TORSDO>
F 7

$$$$
=
 OpenBabel11042421213D

 39 43  0  0  1  0  0  0  0  0999 V2000
  161.7000  204.5230  147.0670 C   0  0  0  0  0  0  0  0  0  0  0  0
  161.6390  206.9520  147.4090 C   0  0  0  0  0  3  0  0  0  0  0  0
  161.0220  207.6700  151.0380 C   0  0  0  0  0  0  0  0  0  0  0  0
  160.8340  207.1290  155.2120 O   0  0  0  0  0  1  0  0  0  0  0  0
  161.2240  208.6250  153.3950 C   0  0  0  0  0  2  0  0  0  0  0  0
  161.1490  205.3960  149.2920 C   0  0  0  0  0  0  0  0  0  0  0  0
  161.5050  203.9040  151.2420 C   0  0  0  0  0  1  0  0  0  0  0  0
  161.0150  207.8740  149.6090 N   0  0  0  0  0  0  0  0  0  0  0  0
  161.1900  206.1750  153.0370 C   0  0  1  0  0  3  0  0  0  0  0  0
  160.8330  208.8730  151.9450 C   0  0  0  0  0  2  0  0  0  0  0  0
  160.5970  207.3220  153.8510 C   0  0  1  0  0  3  0  0  0  0  0  0
  161.0990  206.4160  151.5420 C   0  0  0  0  0  0  0  0  0  0  0  0
  161.3070  204.2670  148.3260 C   0  0  1  0  0  3  0  0  0  0  0  0
  162.5260  205.9640  153.3940 O   0  0  0  0  0  1  0  0  0  0  0  0
  161.0460  202.9540  148.7050 O   0  0  0  0  0  1  0  0  0  0  0  0
  161.9890  205.9140  146.6470 C   0  0  0  0  0  3  0  0  0  0  0  0
  161.2250  205.2450  150.6320 C   0  0  0  0  0  0  0  0  0  0  0  0
  160.8510  206.7490  148.6790 C   0  0  0  0  0  0  0  0  0  0  0  0
  161.8810  203.4390  146.1460 N   0  0  0  0  0  2  0  0  0  0  0  0
  160.8320  202.9570  145.2610 C   0  0  0  0  0  2  0  0  0  0  0  0
  159.7060  201.1180  144.6130 O   0  0  0  0  0  1  0  0  0  0  0  0
  160.4670  201.5990  145.6230 N   0  0  0  0  0  2  0  0  0  0  0  0
  160.8960  209.2310  149.0760 C   0  0  0  0  0  2  0  0  0  0  0  0
  162.7060  210.4190  150.3530 C   0  0  0  0  0  2  0  0  0  0  0  0
  162.2670  209.9020  148.9930 C   0  0  2  0  0  3  0  0  0  0  0  0
  162.2910  211.3380  148.4560 C   0  0  1  0  0  0  0  0  0  0  0  0
  162.7490  211.8400  149.8100 C   0  0  0  0  0  2  0  0  0  0  0  0
  163.2940  211.4580  147.5090 F   0  0  0  0  0  0  0  0  0  0  0  0
  161.7330  212.9580  145.7980 C   0  0  0  0  0  0  0  0  0  0  0  0
  160.0780  212.1990  148.8760 O   0  0  0  0  0  0  0  0  0  0  0  0
  160.7530  212.3910  146.6720 N   0  0  0  0  0  2  0  0  0  0  0  0
  160.9850  211.9850  148.0270 C   0  0  0  0  0  0  0  0  0  0  0  0
  162.8200  213.4070  146.2560 O   0  0  0  0  0  0  0  0  0  0  0  0
  161.4270  213.0730  144.3430 C   0  0  0  0  0  3  0  0  0  0  0  0
  160.4120  212.0090  143.9230 C   0  0  0  0  0  2  0  0  0  0  0  0
  160.1010  212.1350  142.4350 C   0  0  0  0  0  2  0  0  0  0  0  0
  162.3860  213.0740  142.0280 C   0  0  0  0  0  2  0  0  0  0  0  0
  162.7060  212.9530  143.5150 C   0  0  0  0  0  2  0  0  0  0  0  0
  161.3830  212.0010  141.6150 C   0  0  0  0  0  2  0  0  0  0  0  0
  1 13  1  0  0  0  0
  2 18  2  0  0  0  0
  3 12  2  0  0  0  0
  3 10  1  0  0  0  0
  5 11  1  0  0  0  0
  6 17  2  0  0  0  0
  8  3  1  0  0  0  0
  9 14  1  1  0  0  0
  9 11  1  0  0  0  0
 10  5  1  0  0  0  0
 11  4  1  1  0  0  0
 12  9  1  0  0  0  0
 13 15  1  6  0  0  0
 13  6  1  0  0  0  0
 16  1  2  0  0  0  0
 16  2  1  0  0  0  0
 17  7  1  0  0  0  0
 17 12  1  0  0  0  0
 18  6  1  0  0  0  0
 18  8  1  0  0  0  0
 19  1  1  0  0  0  0
 20 22  1  0  0  0  0
 20 19  1  0  0  0  0
 21 22  1  0  0  0  0
 23  8  1  0  0  0  0
 25 23  1  1  0  0  0
 25 24  1  0  0  0  0
 26 28  1  6  0  0  0
 26 25  1  0  0  0  0
 26 27  1  0  0  0  0
 27 24  1  0  0  0  0
 29 33  2  0  0  0  0
 29 31  1  0  0  0  0
 31 32  1  0  0  0  0
 32 26  1  0  0  0  0
 32 30  2  0  0  0  0
 34 29  1  0  0  0  0
 35 34  1  0  0  0  0
 36 35  1  0  0  0  0
 37 38  1  0  0  0  0
 38 34  1  0  0  0  0
 39 37  1  0  0  0  0
 39 36  1  0  0  0  0
M  END
>  <MODEL>
5

>  <REMARK>
 VINA RESULT:      -5.3      3.662      8.856
  Name = 
  7 active torsions:
  status: ('A' for Active; 'I' for Inactive)
    1  A    between atoms: C_1  and  C_5
    2  A    between atoms: C_2  and  N_9
    3  A    between atoms: N_9  and  C_39
    4  A    between atoms: C_12  and  C_30
    5  A    between atoms: C_16  and  C_27
    6  A    between atoms: N_20  and  C_39
    7  A    between atoms: N_23  and  C_30
                            x       y       z     vdW  Elec       q    Type
                         _______ _______ _______ _____ _____    ______ ____

>  <TORSDO>
F 7

$$$$
=
 OpenBabel11042421213D

 39 43  0  0  1  0  0  0  0  0999 V2000
  160.8490  203.8420  149.2450 C   0  0  0  0  0  0  0  0  0  0  0  0
  160.1520  205.2410  151.1360 C   0  0  0  0  0  3  0  0  0  0  0  0
  161.3790  208.7430  150.5990 C   0  0  0  0  0  0  0  0  0  0  0  0
  162.7910  212.1930  148.6360 O   0  0  0  0  0  1  0  0  0  0  0  0
  161.4620  211.2850  150.3970 C   0  0  0  0  0  2  0  0  0  0  0  0
  161.6090  206.1730  149.3440 C   0  0  0  0  0  0  0  0  0  0  0  0
  162.2960  207.2580  147.2210 C   0  0  0  0  0  1  0  0  0  0  0  0
  160.9530  207.5660  151.3160 N   0  0  0  0  0  0  0  0  0  0  0  0
  162.2490  209.8560  148.5340 C   0  0  1  0  0  3  0  0  0  0  0  0
  161.3640  210.0790  151.3200 C   0  0  0  0  0  2  0  0  0  0  0  0
  162.5940  211.0540  149.4160 C   0  0  1  0  0  3  0  0  0  0  0  0
  161.8700  208.6300  149.3420 C   0  0  0  0  0  0  0  0  0  0  0  0
  161.6110  204.8160  148.7190 C   0  0  1  0  0  3  0  0  0  0  0  0
  161.2060  210.1790  147.6610 O   0  0  0  0  0  1  0  0  0  0  0  0
  162.3980  204.5390  147.6040 O   0  0  0  0  0  1  0  0  0  0  0  0
  160.0020  204.1200  150.4280 C   0  0  0  0  0  3  0  0  0  0  0  0
  161.9310  207.3010  148.6750 C   0  0  0  0  0  0  0  0  0  0  0  0
  161.2550  206.2180  150.8160 C   0  0  0  0  0  0  0  0  0  0  0  0
  160.8280  202.5480  148.6300 N   0  0  0  0  0  2  0  0  0  0  0  0
  161.1590  201.3190  149.3370 C   0  0  0  0  0  2  0  0  0  0  0  0
  161.2040  200.7360  147.1630 O   0  0  0  0  0  1  0  0  0  0  0  0
  161.5810  200.3040  148.3890 N   0  0  0  0  0  2  0  0  0  0  0  0
  160.4570  207.6970  152.6860 C   0  0  0  0  0  2  0  0  0  0  0  0
  161.7700  206.2100  154.2300 C   0  0  0  0  0  2  0  0  0  0  0  0
  161.6090  207.6200  153.6880 C   0  0  2  0  0  3  0  0  0  0  0  0
  161.3110  208.1160  155.1080 C   0  0  1  0  0  0  0  0  0  0  0  0
  161.4940  206.7090  155.6410 C   0  0  0  0  0  2  0  0  0  0  0  0
  162.3330  208.9500  155.5280 F   0  0  0  0  0  0  0  0  0  0  0  0
  160.2810  211.0790  154.7060 C   0  0  0  0  0  0  0  0  0  0  0  0
  159.1550  208.0230  156.1850 O   0  0  0  0  0  0  0  0  0  0  0  0
  159.4720  209.9120  154.8890 N   0  0  0  0  0  2  0  0  0  0  0  0
  159.9280  208.6620  155.4210 C   0  0  0  0  0  0  0  0  0  0  0  0
  161.4050  211.1770  155.2710 O   0  0  0  0  0  0  0  0  0  0  0  0
  159.7480  212.2100  153.8920 C   0  0  0  0  0  3  0  0  0  0  0  0
  159.1080  213.2650  154.7950 C   0  0  0  0  0  2  0  0  0  0  0  0
  158.5680  214.4180  153.9550 C   0  0  0  0  0  2  0  0  0  0  0  0
  158.2020  212.8600  152.0300 C   0  0  0  0  0  2  0  0  0  0  0  0
  158.7410  211.6990  152.8620 C   0  0  0  0  0  2  0  0  0  0  0  0
  157.5530  213.9010  152.9380 C   0  0  0  0  0  2  0  0  0  0  0  0
  1 16  2  0  0  0  0
  3  8  1  0  0  0  0
  3 10  1  0  0  0  0
  5 10  1  0  0  0  0
  6 18  1  0  0  0  0
  7 17  1  0  0  0  0
  8 23  1  0  0  0  0
  9 14  1  6  0  0  0
  9 12  1  0  0  0  0
  9 11  1  0  0  0  0
 11  4  1  6  0  0  0
 11  5  1  0  0  0  0
 12  3  2  0  0  0  0
 13 15  1  1  0  0  0
 13  1  1  0  0  0  0
 13  6  1  0  0  0  0
 16  2  1  0  0  0  0
 17 12  1  0  0  0  0
 17  6  2  0  0  0  0
 18  2  2  0  0  0  0
 18  8  1  0  0  0  0
 19  1  1  0  0  0  0
 19 20  1  0  0  0  0
 21 22  1  0  0  0  0
 22 20  1  0  0  0  0
 24 27  1  0  0  0  0
 25 23  1  6  0  0  0
 25 24  1  0  0  0  0
 25 26  1  0  0  0  0
 26 32  1  0  0  0  0
 26 28  1  1  0  0  0
 26 27  1  0  0  0  0
 29 31  1  0  0  0  0
 29 33  2  0  0  0  0
 31 32  1  0  0  0  0
 32 30  2  0  0  0  0
 34 29  1  0  0  0  0
 34 35  1  0  0  0  0
 36 35  1  0  0  0  0
 37 38  1  0  0  0  0
 37 39  1  0  0  0  0
 38 34  1  0  0  0  0
 39 36  1  0  0  0  0
M  END
>  <MODEL>
6

>  <REMARK>
 VINA RESULT:      -5.0      2.661      8.382
  Name = 
  7 active torsions:
  status: ('A' for Active; 'I' for Inactive)
    1  A    between atoms: C_1  and  C_5
    2  A    between atoms: C_2  and  N_9
    3  A    between atoms: N_9  and  C_39
    4  A    between atoms: C_12  and  C_30
    5  A    between atoms: C_16  and  C_27
    6  A    between atoms: N_20  and  C_39
    7  A    between atoms: N_23  and  C_30
                            x       y       z     vdW  Elec       q    Type
                         _______ _______ _______ _____ _____    ______ ____

>  <TORSDO>
F 7

$$$$
=
 OpenBabel11042421213D

 39 43  0  0  1  0  0  0  0  0999 V2000
  161.7270  206.6590  151.8400 C   0  0  0  0  0  0  0  0  0  0  0  0
  160.4770  208.3780  153.0660 C   0  0  0  0  0  3  0  0  0  0  0  0
  160.6990  211.6260  151.2070 C   0  0  0  0  0  0  0  0  0  0  0  0
  161.2520  214.3570  148.0460 O   0  0  0  0  0  1  0  0  0  0  0  0
  160.0720  213.8100  150.0470 C   0  0  0  0  0  2  0  0  0  0  0  0
  161.7750  208.9720  151.0260 C   0  0  0  0  0  0  0  0  0  0  0  0
  162.3290  209.3470  148.6370 C   0  0  0  0  0  1  0  0  0  0  0  0
  160.5590  210.7290  152.3280 N   0  0  0  0  0  0  0  0  0  0  0  0
  161.4130  212.1020  148.8560 C   0  0  1  0  0  3  0  0  0  0  0  0
  160.2320  213.0630  151.3620 C   0  0  0  0  0  2  0  0  0  0  0  0
  161.3130  213.5850  149.2070 C   0  0  1  0  0  3  0  0  0  0  0  0
  161.3230  211.2100  150.0800 C   0  0  0  0  0  0  0  0  0  0  0  0
  162.2270  207.5490  150.9670 C   0  0  1  0  0  3  0  0  0  0  0  0
  160.4120  211.7490  147.9470 O   0  0  0  0  0  1  0  0  0  0  0  0
  163.1650  207.1310  150.0280 O   0  0  0  0  0  1  0  0  0  0  0  0
  160.7240  207.0850  152.8440 C   0  0  0  0  0  3  0  0  0  0  0  0
  161.8260  209.8130  149.9700 C   0  0  0  0  0  0  0  0  0  0  0  0
  161.2810  209.4500  152.3750 C   0  0  0  0  0  0  0  0  0  0  0  0
  162.1370  205.2880  151.7680 N   0  0  0  0  0  2  0  0  0  0  0  0
  161.2580  204.2110  151.3340 C   0  0  0  0  0  2  0  0  0  0  0  0
  160.7330  203.1250  149.4330 O   0  0  0  0  0  1  0  0  0  0  0  0
  160.9480  204.3670  149.9240 N   0  0  0  0  0  2  0  0  0  0  0  0
  159.9140  211.2020  153.5530 C   0  0  0  0  0  2  0  0  0  0  0  0
  161.8340  210.4360  154.9840 C   0  0  0  0  0  2  0  0  0  0  0  0
  160.9600  211.6140  154.5890 C   0  0  2  0  0  3  0  0  0  0  0  0
  160.4750  211.7220  156.0400 C   0  0  1  0  0  0  0  0  0  0  0  0
  161.3660  210.5580  156.4260 C   0  0  0  0  0  2  0  0  0  0  0  0
  160.9280  212.9080  156.5900 F   0  0  0  0  0  0  0  0  0  0  0  0
  157.9960  213.6040  155.4840 C   0  0  0  0  0  0  0  0  0  0  0  0
  158.7060  210.5300  157.1680 O   0  0  0  0  0  0  0  0  0  0  0  0
  157.9560  212.2000  155.7540 N   0  0  0  0  0  2  0  0  0  0  0  0
  159.0140  211.4390  156.3500 C   0  0  0  0  0  0  0  0  0  0  0  0
  158.8750  214.3370  156.0160 O   0  0  0  0  0  0  0  0  0  0  0  0
  156.9430  214.2060  154.6150 C   0  0  0  0  0  3  0  0  0  0  0  0
  155.5510  213.8330  155.1250 C   0  0  0  0  0  2  0  0  0  0  0  0
  154.4790  214.4530  154.2330 C   0  0  0  0  0  2  0  0  0  0  0  0
  156.0460  214.3750  152.2820 C   0  0  0  0  0  2  0  0  0  0  0  0
  157.1240  213.7550  153.1650 C   0  0  0  0  0  2  0  0  0  0  0  0
  154.6600  213.9880  152.7900 C   0  0  0  0  0  2  0  0  0  0  0  0
  1 16  2  0  0  0  0
  3 10  1  0  0  0  0
  3  8  1  0  0  0  0
  5 10  1  0  0  0  0
  6 18  1  0  0  0  0
  7 17  1  0  0  0  0
  8 18  1  0  0  0  0
  8 23  1  0  0  0  0
  9 14  1  6  0  0  0
  9 11  1  0  0  0  0
  9 12  1  0  0  0  0
 11  4  1  6  0  0  0
 11  5  1  0  0  0  0
 12  3  2  0  0  0  0
 13 15  1  1  0  0  0
 13  6  1  0  0  0  0
 13  1  1  0  0  0  0
 16  2  1  0  0  0  0
 17 12  1  0  0  0  0
 17  6  2  0  0  0  0
 18  2  2  0  0  0  0
 19  1  1  0  0  0  0
 20 19  1  0  0  0  0
 21 22  1  0  0  0  0
 22 20  1  0  0  0  0
 24 27  1  0  0  0  0
 25 23  1  6  0  0  0
 25 24  1  0  0  0  0
 25 26  1  0  0  0  0
 26 32  1  0  0  0  0
 26 27  1  0  0  0  0
 26 28  1  1  0  0  0
 29 31  1  0  0  0  0
 29 33  2  0  0  0  0
 31 32  1  0  0  0  0
 32 30  2  0  0  0  0
 34 35  1  0  0  0  0
 34 29  1  0  0  0  0
 36 35  1  0  0  0  0
 37 39  1  0  0  0  0
 37 38  1  0  0  0  0
 38 34  1  0  0  0  0
 39 36  1  0  0  0  0
M  END
>  <MODEL>
7

>  <REMARK>
 VINA RESULT:      -4.9      2.787      8.104
  Name = 
  7 active torsions:
  status: ('A' for Active; 'I' for Inactive)
    1  A    between atoms: C_1  and  C_5
    2  A    between atoms: C_2  and  N_9
    3  A    between atoms: N_9  and  C_39
    4  A    between atoms: C_12  and  C_30
    5  A    between atoms: C_16  and  C_27
    6  A    between atoms: N_20  and  C_39
    7  A    between atoms: N_23  and  C_30
                            x       y       z     vdW  Elec       q    Type
                         _______ _______ _______ _____ _____    ______ ____

>  <TORSDO>
F 7

$$$$
=
 OpenBabel11042421213D

 39 43  0  0  1  0  0  0  0  0999 V2000
  159.0970  212.8290  155.0140 C   0  0  0  0  0  0  0  0  0  0  0  0
  160.6660  211.0550  154.3710 C   0  0  0  0  0  3  0  0  0  0  0  0
  161.3080  211.2530  150.6820 C   0  0  0  0  0  0  0  0  0  0  0  0
  161.5610  212.8190  146.7780 O   0  0  0  0  0  1  0  0  0  0  0  0
  162.4880  211.3590  148.4220 C   0  0  0  0  0  2  0  0  0  0  0  0
  159.6380  212.5220  152.6400 C   0  0  0  0  0  0  0  0  0  0  0  0
  159.2960  214.4490  151.1160 C   0  0  0  0  0  1  0  0  0  0  0  0
  161.1790  210.6610  151.9910 N   0  0  0  0  0  0  0  0  0  0  0  0
  160.8310  213.0890  149.0510 C   0  0  1  0  0  3  0  0  0  0  0  0
  162.0960  210.5060  149.6200 C   0  0  0  0  0  2  0  0  0  0  0  0
  161.2670  212.1230  147.9510 C   0  0  1  0  0  3  0  0  0  0  0  0
  160.6520  212.4010  150.3900 C   0  0  0  0  0  0  0  0  0  0  0  0
  158.8630  213.1770  153.7370 C   0  0  0  0  0  0  0  0  0  0  0  0
  161.7580  214.1280  149.1800 O   0  0  0  0  0  1  0  0  0  0  0  0
  157.8940  214.1370  153.4590 O   0  0  0  0  0  1  0  0  0  0  0  0
  160.1280  211.8120  155.3290 C   0  0  0  0  0  3  0  0  0  0  0  0
  159.8360  213.0870  151.4290 C   0  0  0  0  0  0  0  0  0  0  0  0
  160.1720  211.1390  152.9480 C   0  0  1  0  0  3  0  0  0  0  0  0
  158.3760  213.4760  156.0690 N   0  0  0  0  0  2  0  0  0  0  0  0
  157.3580  212.8110  156.8690 C   0  0  0  0  0  2  0  0  0  0  0  0
  156.6300  210.6820  156.8070 O   0  0  0  0  0  1  0  0  0  0  0  0
  156.6750  211.8120  156.0660 N   0  0  0  0  0  2  0  0  0  0  0  0
  161.8640  209.4010  152.2830 C   0  0  0  0  0  2  0  0  0  0  0  0
  161.2790  207.8290  154.1550 C   0  0  0  0  0  2  0  0  0  0  0  0
  160.8730  208.3520  152.7870 C   0  0  2  0  0  3  0  0  0  0  0  0
  161.0300  206.9380  152.2160 C   0  0  1  0  0  0  0  0  0  0  0  0
  161.4130  206.4230  153.5890 C   0  0  0  0  0  2  0  0  0  0  0  0
  159.7900  206.4590  151.8270 F   0  0  0  0  0  0  0  0  0  0  0  0
  161.7690  204.1760  150.8660 C   0  0  0  0  0  0  0  0  0  0  0  0
  163.0490  207.5100  151.0280 O   0  0  0  0  0  0  0  0  0  0  0  0
  162.1420  205.4770  150.4040 N   0  0  0  0  0  2  0  0  0  0  0  0
  162.1200  206.6750  151.1900 C   0  0  0  0  0  0  0  0  0  0  0  0
  161.6570  203.9390  152.1010 O   0  0  0  0  0  0  0  0  0  0  0  0
  161.5770  203.0800  149.8710 C   0  0  0  0  0  3  0  0  0  0  0  0
  160.7190  203.5650  148.7010 C   0  0  0  0  0  2  0  0  0  0  0  0
  160.5290  202.4410  147.6870 C   0  0  0  0  0  2  0  0  0  0  0  0
  160.7500  200.7420  149.5130 C   0  0  0  0  0  2  0  0  0  0  0  0
  160.9420  201.8590  150.5360 C   0  0  0  0  0  2  0  0  0  0  0  0
  159.8830  201.2300  148.3560 C   0  0  0  0  0  2  0  0  0  0  0  0
  1 16  1  0  0  0  0
  1 19  1  0  0  0  0
  2 16  2  0  0  0  0
  3  8  1  0  0  0  0
  5 10  1  0  0  0  0
  6 18  1  0  0  0  0
  6 13  1  0  0  0  0
  7 17  1  0  0  0  0
  8 23  1  0  0  0  0
  8 18  1  0  0  0  0
  9 14  1  1  0  0  0
  9 12  1  0  0  0  0
 10  3  1  0  0  0  0
 11  4  1  6  0  0  0
 11  5  1  0  0  0  0
 11  9  1  0  0  0  0
 12  3  2  0  0  0  0
 12 17  1  0  0  0  0
 13  1  2  0  0  0  0
 15 13  1  0  0  0  0
 17  6  2  0  0  0  0
 18  2  1  1  0  0  0
 19 20  1  0  0  0  0
 22 21  1  0  0  0  0
 22 20  1  0  0  0  0
 25 23  1  6  0  0  0
 25 24  1  0  0  0  0
 26 28  1  6  0  0  0
 26 25  1  0  0  0  0
 26 27  1  0  0  0  0
 27 24  1  0  0  0  0
 29 33  2  0  0  0  0
 30 32  2  0  0  0  0
 31 29  1  0  0  0  0
 31 32  1  0  0  0  0
 32 26  1  0  0  0  0
 34 38  1  0  0  0  0
 34 29  1  0  0  0  0
 35 34  1  0  0  0  0
 36 39  1  0  0  0  0
 36 35  1  0  0  0  0
 37 38  1  0  0  0  0
 39 37  1  0  0  0  0
M  END
>  <MODEL>
8

>  <REMARK>
 VINA RESULT:      -4.7      1.529      2.062
  Name = 
  7 active torsions:
  status: ('A' for Active; 'I' for Inactive)
    1  A    between atoms: C_1  and  C_5
    2  A    between atoms: C_2  and  N_9
    3  A    between atoms: N_9  and  C_39
    4  A    between atoms: C_12  and  C_30
    5  A    between atoms: C_16  and  C_27
    6  A    between atoms: N_20  and  C_39
    7  A    between atoms: N_23  and  C_30
                            x       y       z     vdW  Elec       q    Type
                         _______ _______ _______ _____ _____    ______ ____

>  <TORSDO>
F 7

$$$$
