=
 OpenBabel11042421033D

 36 39  0  0  1  0  0  0  0  0999 V2000
  161.3640  207.6300  152.9670 C   0  0  0  0  0  0  0  0  0  0  0  0
  161.0730  206.2720  152.8230 C   0  0  0  0  0  3  0  0  0  0  0  0
  160.8130  204.2400  151.3810 C   0  0  0  0  0  0  0  0  0  0  0  0
  161.1800  204.3390  149.0030 C   0  0  0  0  0  0  0  0  0  0  0  0
  161.8180  205.4000  146.3260 O   0  0  0  0  0  0  0  0  0  0  0  0
  160.8870  210.6700  151.3610 C   0  0  0  0  0  1  0  0  0  0  0  0
  162.3150  210.3070  153.3780 C   0  0  0  0  0  2  0  0  0  0  0  0
  161.5070  206.4150  150.4400 C   0  0  0  0  0  0  0  0  0  0  0  0
  161.8140  207.7700  150.5850 C   0  0  0  0  0  3  0  0  0  0  0  0
  161.2560  209.7440  154.3260 C   0  0  1  0  0  3  0  0  0  0  0  0
  161.1640  203.6470  147.7460 N   0  0  0  0  0  2  0  0  0  0  0  0
  160.4710  203.5040  152.3870 N   0  0  0  0  0  2  0  0  0  0  0  0
  161.3730  208.2190  154.3480 C   0  0  0  0  0  2  0  0  0  0  0  0
  162.0380  209.8640  151.9400 C   0  0  1  0  0  3  0  0  0  0  0  0
  161.7500  208.3880  151.8390 C   0  0  0  0  0  0  0  0  0  0  0  0
  160.8430  203.6740  150.0700 N   0  0  0  0  0  0  0  0  0  0  0  0
  161.1330  205.6630  151.5630 C   0  0  0  0  0  0  0  0  0  0  0  0
  161.4890  204.1920  146.4610 C   0  0  0  0  0  0  0  0  0  0  0  0
  161.6040  205.7920  149.0750 C   0  0  0  0  0  2  0  0  0  0  0  0
  160.6560  202.0460  145.6000 C   0  0  0  0  0  1  0  0  0  0  0  0
  161.4020  203.3210  145.2590 C   0  0  0  0  0  2  0  0  0  0  0  0
  161.4230  210.3210  155.7340 C   0  0  2  0  0  3  0  0  0  0  0  0
  158.6150  210.4280  155.9000 S   0  0  0  0  0  0  0  0  0  0  0  0
  160.0950  212.1520  156.9640 C   0  0  0  0  0  3  0  0  0  0  0  0
  158.8250  212.5380  157.2610 N   0  0  0  0  0  0  0  0  0  0  0  0
  160.1700  210.9880  156.2030 C   0  0  0  0  0  0  0  0  0  0  0  0
  157.9060  211.6930  156.7470 C   0  0  0  0  0  0  0  0  0  0  0  0
  155.3510  212.0130  157.0480 N   0  0  0  0  0  0  0  0  0  0  0  0
  156.4920  211.8700  156.9130 C   0  0  0  0  0  0  0  0  0  0  0  0
  162.4750  211.2430  155.7620 O   0  0  0  0  0  0  0  0  0  0  0  0
  163.3780  210.7070  156.6200 N   0  0  0  0  0  2  0  0  0  0  0  0
  164.0680  211.8140  157.2610 C   0  0  0  0  0  2  0  0  0  0  0  0
  165.5640  211.5610  157.2600 C   0  0  0  0  0  2  0  0  0  0  0  0
  166.4960  213.7490  157.1880 O   0  0  0  0  0  1  0  0  0  0  0  0
  166.2650  212.6770  156.5720 C   0  0  0  0  0  0  0  0  0  0  0  0
  166.6350  212.5490  155.2400 O   0  0  0  0  0  0  0  0  0  0  0  0
  1 13  1  0  0  0  0
  2  1  1  0  0  0  0
  3 17  1  0  0  0  0
  3 12  2  0  0  0  0
  4 19  1  0  0  0  0
  4 16  2  0  0  0  0
  5 18  2  0  0  0  0
  7 10  1  0  0  0  0
  8  9  2  0  0  0  0
  8 17  1  0  0  0  0
  9 15  1  0  0  0  0
 10 13  1  0  0  0  0
 10 22  1  1  0  0  0
 11  4  1  0  0  0  0
 14  6  1  1  0  0  0
 14  7  1  0  0  0  0
 15 14  1  0  0  0  0
 15  1  2  0  0  0  0
 16  3  1  0  0  0  0
 17  2  2  0  0  0  0
 18 11  1  0  0  0  0
 19  8  1  0  0  0  0
 21 20  1  0  0  0  0
 21 18  1  0  0  0  0
 22 30  1  6  0  0  0
 22 26  1  0  0  0  0
 23 26  1  0  0  0  0
 23 27  1  0  0  0  0
 24 25  1  0  0  0  0
 26 24  2  0  0  0  0
 27 29  1  0  0  0  0
 27 25  2  0  0  0  0
 29 28  3  0  0  0  0
 30 31  1  0  0  0  0
 31 32  1  0  0  0  0
 33 32  1  0  0  0  0
 35 34  1  0  0  0  0
 35 33  1  0  0  0  0
 36 35  2  0  0  0  0
M  END
>  <MODEL>
1

>  <REMARK>
 VINA RESULT:      -7.1      0.000      0.000
  Name = 
  9 active torsions:
  status: ('A' for Active; 'I' for Inactive)
    1  A    between atoms: C_3  and  C_35
    2  A    between atoms: C_4  and  C_11
    3  A    between atoms: C_4  and  C_16
    4  A    between atoms: C_13  and  C_21
    5  A    between atoms: C_13  and  C_25
    6  A    between atoms: C_13  and  O_34
    7  A    between atoms: C_16  and  N_26
    8  A    between atoms: N_26  and  O_34
    9  A    between atoms: C_28  and  C_30
                            x       y       z     vdW  Elec       q    Type
                         _______ _______ _______ _____ _____    ______ ____

>  <TORSDO>
F 9

$$$$
=
 OpenBabel11042421033D

 36 39  0  0  1  0  0  0  0  0999 V2000
  161.0500  206.6320  151.9860 C   0  0  0  0  0  0  0  0  0  0  0  0
  160.9890  206.5660  153.3800 C   0  0  0  0  0  3  0  0  0  0  0  0
  160.7430  207.6880  155.6050 C   0  0  0  0  0  0  0  0  0  0  0  0
  160.4450  210.0720  155.7780 C   0  0  0  0  0  0  0  0  0  0  0  0
  160.1310  212.9010  155.0070 O   0  0  0  0  0  0  0  0  0  0  0  0
  162.3060  208.6280  149.4380 C   0  0  0  0  0  1  0  0  0  0  0  0
  160.8050  206.6560  149.1260 C   0  0  0  0  0  2  0  0  0  0  0  0
  160.6370  208.9640  153.4930 C   0  0  0  0  0  0  0  0  0  0  0  0
  160.6820  209.0290  152.0990 C   0  0  0  0  0  3  0  0  0  0  0  0
  161.6750  205.5850  149.7860 C   0  0  1  0  0  3  0  0  0  0  0  0
  160.3010  211.2150  156.6330 N   0  0  0  0  0  2  0  0  0  0  0  0
  160.8730  206.5720  156.2430 N   0  0  0  0  0  2  0  0  0  0  0  0
  161.1730  205.3510  151.2110 C   0  0  0  0  0  2  0  0  0  0  0  0
  160.9800  208.0000  149.8350 C   0  0  1  0  0  3  0  0  0  0  0  0
  160.8850  207.8750  151.3350 C   0  0  0  0  0  0  0  0  0  0  0  0
  160.5870  208.9050  156.3370 N   0  0  0  0  0  0  0  0  0  0  0  0
  160.7920  207.7280  154.1370 C   0  0  0  0  0  0  0  0  0  0  0  0
  160.1410  212.5790  156.2240 C   0  0  0  0  0  0  0  0  0  0  0  0
  160.4030  210.2290  154.2720 C   0  0  0  0  0  2  0  0  0  0  0  0
  158.7150  214.3890  157.0800 C   0  0  0  0  0  1  0  0  0  0  0  0
  160.0200  213.6380  157.2610 C   0  0  0  0  0  2  0  0  0  0  0  0
  161.6410  204.2840  148.9790 C   0  0  2  0  0  3  0  0  0  0  0  0
  160.7840  205.1320  146.4350 S   0  0  0  0  0  0  0  0  0  0  0  0
  163.1180  204.3220  146.8710 C   0  0  0  0  0  3  0  0  0  0  0  0
  163.0900  204.6390  145.5490 N   0  0  0  0  0  0  0  0  0  0  0  0
  161.9100  204.5320  147.5300 C   0  0  0  0  0  0  0  0  0  0  0  0
  161.8800  205.0960  145.1630 C   0  0  0  0  0  0  0  0  0  0  0  0
  161.3390  205.8260  142.7350 N   0  0  0  0  0  0  0  0  0  0  0  0
  161.5800  205.5000  143.8190 C   0  0  0  0  0  0  0  0  0  0  0  0
  160.3990  203.6560  149.1170 O   0  0  0  0  0  0  0  0  0  0  0  0
  160.6710  202.4900  149.7540 N   0  0  0  0  0  2  0  0  0  0  0  0
  160.1550  201.4180  148.9200 C   0  0  0  0  0  2  0  0  0  0  0  0
  161.3050  200.6000  148.3590 C   0  0  0  0  0  2  0  0  0  0  0  0
  161.5220  199.4340  146.2960 O   0  0  0  0  0  1  0  0  0  0  0  0
  161.1720  200.4910  146.8820 C   0  0  0  0  0  0  0  0  0  0  0  0
  160.6930  201.5660  146.1460 O   0  0  0  0  0  0  0  0  0  0  0  0
  1  2  1  0  0  0  0
  2 17  2  0  0  0  0
  3 12  2  0  0  0  0
  3 16  1  0  0  0  0
  4 16  2  0  0  0  0
  4 11  1  0  0  0  0
  5 18  2  0  0  0  0
  7 10  1  0  0  0  0
  7 14  1  0  0  0  0
  8 17  1  0  0  0  0
  8 19  1  0  0  0  0
  9  8  2  0  0  0  0
 10 22  1  6  0  0  0
 10 13  1  0  0  0  0
 13  1  1  0  0  0  0
 14  6  1  1  0  0  0
 14 15  1  0  0  0  0
 15  1  2  0  0  0  0
 15  9  1  0  0  0  0
 17  3  1  0  0  0  0
 18 11  1  0  0  0  0
 18 21  1  0  0  0  0
 19  4  1  0  0  0  0
 20 21  1  0  0  0  0
 22 30  1  6  0  0  0
 23 26  1  0  0  0  0
 24 26  2  0  0  0  0
 25 24  1  0  0  0  0
 26 22  1  0  0  0  0
 27 25  2  0  0  0  0
 27 23  1  0  0  0  0
 28 29  3  0  0  0  0
 29 27  1  0  0  0  0
 30 31  1  0  0  0  0
 32 31  1  0  0  0  0
 33 32  1  0  0  0  0
 34 35  1  0  0  0  0
 35 33  1  0  0  0  0
 36 35  2  0  0  0  0
M  END
>  <MODEL>
2

>  <REMARK>
 VINA RESULT:      -6.9      3.422     10.918
  Name = 
  9 active torsions:
  status: ('A' for Active; 'I' for Inactive)
    1  A    between atoms: C_3  and  C_35
    2  A    between atoms: C_4  and  C_11
    3  A    between atoms: C_4  and  C_16
    4  A    between atoms: C_13  and  C_21
    5  A    between atoms: C_13  and  C_25
    6  A    between atoms: C_13  and  O_34
    7  A    between atoms: C_16  and  N_26
    8  A    between atoms: N_26  and  O_34
    9  A    between atoms: C_28  and  C_30
                            x       y       z     vdW  Elec       q    Type
                         _______ _______ _______ _____ _____    ______ ____

>  <TORSDO>
F 9

$$$$
=
 OpenBabel11042421033D

 36 39  0  0  1  0  0  0  0  0999 V2000
  161.5720  207.1430  148.8580 C   0  0  0  0  0  0  0  0  0  0  0  0
  161.5720  206.8230  147.4980 C   0  0  0  0  0  3  0  0  0  0  0  0
  161.4350  205.1300  145.6580 C   0  0  0  0  0  0  0  0  0  0  0  0
  161.1710  202.7840  146.1340 C   0  0  0  0  0  0  0  0  0  0  0  0
  160.8540  200.2670  147.6380 O   0  0  0  0  0  0  0  0  0  0  0  0
  162.7360  205.9480  151.9030 C   0  0  0  0  0  1  0  0  0  0  0  0
  161.2020  207.8970  151.6030 C   0  0  0  0  0  2  0  0  0  0  0  0
  161.2510  204.4780  148.0330 C   0  0  0  0  0  0  0  0  0  0  0  0
  161.2350  204.7980  149.3930 C   0  0  0  0  0  3  0  0  0  0  0  0
  162.0880  208.7650  150.7090 C   0  0  1  0  0  3  0  0  0  0  0  0
  161.0770  201.4480  145.6200 N   0  0  0  0  0  2  0  0  0  0  0  0
  161.5810  206.0320  144.7450 N   0  0  0  0  0  2  0  0  0  0  0  0
  161.6470  208.5890  149.2560 C   0  0  0  0  0  2  0  0  0  0  0  0
  161.4220  206.4140  151.2970 C   0  0  1  0  0  3  0  0  0  0  0  0
  161.3920  206.1220  149.8180 C   0  0  0  0  0  0  0  0  0  0  0  0
  161.3250  203.7560  145.2820 N   0  0  0  0  0  0  0  0  0  0  0  0
  161.4210  205.4950  147.0810 C   0  0  0  0  0  0  0  0  0  0  0  0
  160.9140  200.2440  146.3810 C   0  0  0  0  0  0  0  0  0  0  0  0
  161.0640  203.0440  147.6230 C   0  0  0  0  0  2  0  0  0  0  0  0
  162.2290  198.3100  145.6250 C   0  0  0  0  0  1  0  0  0  0  0  0
  160.8500  198.9390  145.6710 C   0  0  0  0  0  2  0  0  0  0  0  0
  162.0050  210.2360  151.1260 C   0  0  2  0  0  3  0  0  0  0  0  0
  159.7580  210.8060  152.7230 S   0  0  0  0  0  0  0  0  0  0  0  0
  161.9880  210.1990  153.7000 C   0  0  0  0  0  3  0  0  0  0  0  0
  161.1700  210.3960  154.7690 N   0  0  0  0  0  0  0  0  0  0  0  0
  161.3660  210.3890  152.4690 C   0  0  0  0  0  0  0  0  0  0  0  0
  159.9180  210.7340  154.3930 C   0  0  0  0  0  0  0  0  0  0  0  0
  158.0040  211.2090  156.0770 N   0  0  0  0  0  0  0  0  0  0  0  0
  158.8580  210.9970  155.3250 C   0  0  0  0  0  0  0  0  0  0  0  0
  161.2770  210.9700  150.1830 O   0  0  0  0  0  0  0  0  0  0  0  0
  162.2190  211.5960  149.4340 N   0  0  0  0  0  2  0  0  0  0  0  0
  161.5610  212.7000  148.7560 C   0  0  0  0  0  2  0  0  0  0  0  0
  161.5310  212.4430  147.2600 C   0  0  0  0  0  2  0  0  0  0  0  0
  159.2090  212.8930  147.5240 O   0  0  0  0  0  1  0  0  0  0  0  0
  160.1280  212.4850  146.7690 C   0  0  0  0  0  0  0  0  0  0  0  0
  159.8280  212.0460  145.4860 O   0  0  0  0  0  0  0  0  0  0  0  0
  1 13  1  0  0  0  0
  1 15  1  0  0  0  0
  2  1  2  0  0  0  0
  3 17  1  0  0  0  0
  4 19  1  0  0  0  0
  8  9  1  0  0  0  0
  9 15  2  0  0  0  0
 10 22  1  1  0  0  0
 10  7  1  0  0  0  0
 11  4  1  0  0  0  0
 11 18  1  0  0  0  0
 12  3  2  0  0  0  0
 13 10  1  0  0  0  0
 14  7  1  0  0  0  0
 14  6  1  6  0  0  0
 15 14  1  0  0  0  0
 16  3  1  0  0  0  0
 16  4  2  0  0  0  0
 17  2  1  0  0  0  0
 17  8  2  0  0  0  0
 18  5  2  0  0  0  0
 19  8  1  0  0  0  0
 20 21  1  0  0  0  0
 21 18  1  0  0  0  0
 22 30  1  6  0  0  0
 22 26  1  0  0  0  0
 23 27  1  0  0  0  0
 24 25  1  0  0  0  0
 26 23  1  0  0  0  0
 26 24  2  0  0  0  0
 27 25  2  0  0  0  0
 27 29  1  0  0  0  0
 29 28  3  0  0  0  0
 31 30  1  0  0  0  0
 32 31  1  0  0  0  0
 33 32  1  0  0  0  0
 35 33  1  0  0  0  0
 35 34  1  0  0  0  0
 36 35  2  0  0  0  0
M  END
>  <MODEL>
3

>  <REMARK>
 VINA RESULT:      -6.9      3.510      5.861
  Name = 
  9 active torsions:
  status: ('A' for Active; 'I' for Inactive)
    1  A    between atoms: C_3  and  C_35
    2  A    between atoms: C_4  and  C_11
    3  A    between atoms: C_4  and  C_16
    4  A    between atoms: C_13  and  C_21
    5  A    between atoms: C_13  and  C_25
    6  A    between atoms: C_13  and  O_34
    7  A    between atoms: C_16  and  N_26
    8  A    between atoms: N_26  and  O_34
    9  A    between atoms: C_28  and  C_30
                            x       y       z     vdW  Elec       q    Type
                         _______ _______ _______ _____ _____    ______ ____

>  <TORSDO>
F 9

$$$$
=
 OpenBabel11042421033D

 36 39  0  0  1  0  0  0  0  0999 V2000
  161.1450  206.9340  149.6070 C   0  0  0  0  0  0  0  0  0  0  0  0
  161.1110  206.6550  148.2390 C   0  0  0  0  0  3  0  0  0  0  0  0
  161.1280  205.0100  146.3500 C   0  0  0  0  0  0  0  0  0  0  0  0
  161.2610  202.6400  146.7560 C   0  0  0  0  0  0  0  0  0  0  0  0
  161.4330  200.0660  148.1850 O   0  0  0  0  0  0  0  0  0  0  0  0
  162.6640  205.8570  152.5370 C   0  0  0  0  0  1  0  0  0  0  0  0
  160.8300  207.5470  152.3940 C   0  0  0  0  0  2  0  0  0  0  0  0
  161.1920  204.2750  148.7070 C   0  0  0  0  0  0  0  0  0  0  0  0
  161.2090  204.5520  150.0760 C   0  0  0  0  0  3  0  0  0  0  0  0
  161.5130  208.5680  151.4840 C   0  0  1  0  0  3  0  0  0  0  0  0
  161.3450  201.3200  146.2010 N   0  0  0  0  0  2  0  0  0  0  0  0
  161.0760  205.9480  145.4630 N   0  0  0  0  0  2  0  0  0  0  0  0
  161.0180  208.3630  150.0510 C   0  0  0  0  0  2  0  0  0  0  0  0
  161.2590  206.1260  152.0230 C   0  0  1  0  0  3  0  0  0  0  0  0
  161.1840  205.8730  150.5390 C   0  0  0  0  0  0  0  0  0  0  0  0
  161.2100  203.6460  145.9320 N   0  0  0  0  0  0  0  0  0  0  0  0
  161.1440  205.3300  147.7840 C   0  0  0  0  0  0  0  0  0  0  0  0
  161.4180  200.0860  146.9260 C   0  0  0  0  0  0  0  0  0  0  0  0
  161.2060  202.8410  148.2570 C   0  0  0  0  0  2  0  0  0  0  0  0
  160.6890  198.8900  144.9060 C   0  0  0  0  0  1  0  0  0  0  0  0
  161.5150  198.8060  146.1750 C   0  0  0  0  0  2  0  0  0  0  0  0
  161.2280  209.9960  151.9560 C   0  0  2  0  0  3  0  0  0  0  0  0
  162.3110  210.8030  149.4860 S   0  0  0  0  0  0  0  0  0  0  0  0
  160.5770  212.1480  150.7030 C   0  0  0  0  0  3  0  0  0  0  0  0
  160.8440  212.8500  149.5680 N   0  0  0  0  0  0  0  0  0  0  0  0
  161.3110  210.9720  150.8270 C   0  0  0  0  0  0  0  0  0  0  0  0
  161.7720  212.2390  148.8020 C   0  0  0  0  0  0  0  0  0  0  0  0
  162.6080  213.1960  146.5420 N   0  0  0  0  0  0  0  0  0  0  0  0
  162.2350  212.7680  147.5510 C   0  0  0  0  0  0  0  0  0  0  0  0
  162.1320  210.3690  152.9560 O   0  0  0  0  0  0  0  0  0  0  0  0
  161.3700  210.9820  153.8960 N   0  0  0  0  0  2  0  0  0  0  0  0
  161.6480  210.3280  155.1640 C   0  0  0  0  0  2  0  0  0  0  0  0
  160.4590  209.4810  155.5800 C   0  0  0  0  0  2  0  0  0  0  0  0
  162.0200  208.1190  156.7520 O   0  0  0  0  0  1  0  0  0  0  0  0
  160.9310  208.1800  156.1250 C   0  0  0  0  0  0  0  0  0  0  0  0
  160.1870  207.0270  155.9130 O   0  0  0  0  0  0  0  0  0  0  0  0
  1 13  1  0  0  0  0
  1 15  1  0  0  0  0
  2  1  2  0  0  0  0
  3 17  1  0  0  0  0
  4 19  1  0  0  0  0
  8  9  1  0  0  0  0
  9 15  2  0  0  0  0
 10 22  1  1  0  0  0
 10  7  1  0  0  0  0
 11  4  1  0  0  0  0
 11 18  1  0  0  0  0
 12  3  2  0  0  0  0
 13 10  1  0  0  0  0
 14  7  1  0  0  0  0
 14  6  1  6  0  0  0
 15 14  1  0  0  0  0
 16  3  1  0  0  0  0
 16  4  2  0  0  0  0
 17  2  1  0  0  0  0
 17  8  2  0  0  0  0
 18  5  2  0  0  0  0
 19  8  1  0  0  0  0
 20 21  1  0  0  0  0
 21 18  1  0  0  0  0
 22 30  1  1  0  0  0
 23 26  1  0  0  0  0
 24 26  2  0  0  0  0
 25 24  1  0  0  0  0
 26 22  1  0  0  0  0
 27 23  1  0  0  0  0
 27 25  2  0  0  0  0
 28 29  3  0  0  0  0
 29 27  1  0  0  0  0
 30 31  1  0  0  0  0
 31 32  1  0  0  0  0
 32 33  1  0  0  0  0
 33 35  1  0  0  0  0
 35 34  1  0  0  0  0
 36 35  2  0  0  0  0
M  END
>  <MODEL>
4

>  <REMARK>
 VINA RESULT:      -6.8      3.531      5.689
  Name = 
  9 active torsions:
  status: ('A' for Active; 'I' for Inactive)
    1  A    between atoms: C_3  and  C_35
    2  A    between atoms: C_4  and  C_11
    3  A    between atoms: C_4  and  C_16
    4  A    between atoms: C_13  and  C_21
    5  A    between atoms: C_13  and  C_25
    6  A    between atoms: C_13  and  O_34
    7  A    between atoms: C_16  and  N_26
    8  A    between atoms: N_26  and  O_34
    9  A    between atoms: C_28  and  C_30
                            x       y       z     vdW  Elec       q    Type
                         _______ _______ _______ _____ _____    ______ ____

>  <TORSDO>
F 9

$$$$
=
 OpenBabel11042421033D

 36 39  0  0  1  0  0  0  0  0999 V2000
  160.9580  207.5720  151.3850 C   0  0  0  0  0  0  0  0  0  0  0  0
  161.0380  207.4470  149.9970 C   0  0  0  0  0  3  0  0  0  0  0  0
  161.1740  206.0220  147.9420 C   0  0  0  0  0  0  0  0  0  0  0  0
  161.2000  203.6180  148.0860 C   0  0  0  0  0  0  0  0  0  0  0  0
  161.1660  200.8970  149.2230 O   0  0  0  0  0  0  0  0  0  0  0  0
  162.1760  206.1190  154.2930 C   0  0  0  0  0  1  0  0  0  0  0  0
  160.4140  207.8860  154.1860 C   0  0  0  0  0  2  0  0  0  0  0  0
  161.0060  205.0290  150.1960 C   0  0  0  0  0  0  0  0  0  0  0  0
  160.9090  205.1520  151.5840 C   0  0  0  0  0  3  0  0  0  0  0  0
  161.2060  208.9730  153.4600 C   0  0  1  0  0  3  0  0  0  0  0  0
  161.2930  202.3650  147.3940 N   0  0  0  0  0  2  0  0  0  0  0  0
  161.2290  207.0530  147.1650 N   0  0  0  0  0  2  0  0  0  0  0  0
  160.8340  208.9470  151.9760 C   0  0  0  0  0  2  0  0  0  0  0  0
  160.8320  206.4990  153.6950 C   0  0  1  0  0  3  0  0  0  0  0  0
  160.8820  206.4140  152.1900 C   0  0  0  0  0  0  0  0  0  0  0  0
  161.2520  204.7110  147.3800 N   0  0  0  0  0  0  0  0  0  0  0  0
  161.0710  206.1810  149.3990 C   0  0  0  0  0  0  0  0  0  0  0  0
  161.2650  201.0570  147.9780 C   0  0  0  0  0  0  0  0  0  0  0  0
  161.0170  203.6540  149.5890 C   0  0  0  0  0  2  0  0  0  0  0  0
  160.8310  200.1790  145.7230 C   0  0  0  0  0  1  0  0  0  0  0  0
  161.3900  199.8650  147.0970 C   0  0  0  0  0  2  0  0  0  0  0  0
  160.9230  210.3500  154.0650 C   0  0  2  0  0  3  0  0  0  0  0  0
  158.6490  211.7590  153.1860 S   0  0  0  0  0  0  0  0  0  0  0  0
  160.8310  211.8140  151.9490 C   0  0  0  0  0  3  0  0  0  0  0  0
  159.9900  212.6050  151.2290 N   0  0  0  0  0  0  0  0  0  0  0  0
  160.2480  211.2520  153.0810 C   0  0  0  0  0  0  0  0  0  0  0  0
  158.7610  212.6720  151.7820 C   0  0  0  0  0  0  0  0  0  0  0  0
  156.8160  214.0580  150.7710 N   0  0  0  0  0  0  0  0  0  0  0  0
  157.6850  213.4390  151.2220 C   0  0  0  0  0  0  0  0  0  0  0  0
  162.1110  210.9480  154.4980 O   0  0  0  0  0  0  0  0  0  0  0  0
  162.2620  210.5250  155.7770 N   0  0  0  0  0  2  0  0  0  0  0  0
  161.5330  211.4540  156.6240 C   0  0  0  0  0  2  0  0  0  0  0  0
  160.2250  210.8280  157.0730 C   0  0  0  0  0  2  0  0  0  0  0  0
  157.9300  211.4560  157.0820 O   0  0  0  0  0  1  0  0  0  0  0  0
  159.1280  211.8260  156.9770 C   0  0  0  0  0  0  0  0  0  0  0  0
  159.4230  213.1620  156.7390 O   0  0  0  0  0  0  0  0  0  0  0  0
  1 13  1  0  0  0  0
  1 15  1  0  0  0  0
  2  1  2  0  0  0  0
  3 17  1  0  0  0  0
  4 19  1  0  0  0  0
  8  9  1  0  0  0  0
  9 15  2  0  0  0  0
 10 22  1  1  0  0  0
 10  7  1  0  0  0  0
 11 18  1  0  0  0  0
 11  4  1  0  0  0  0
 12  3  2  0  0  0  0
 13 10  1  0  0  0  0
 14  7  1  0  0  0  0
 14  6  1  1  0  0  0
 15 14  1  0  0  0  0
 16  3  1  0  0  0  0
 16  4  2  0  0  0  0
 17  2  1  0  0  0  0
 17  8  2  0  0  0  0
 18  5  2  0  0  0  0
 19  8  1  0  0  0  0
 20 21  1  0  0  0  0
 21 18  1  0  0  0  0
 22 30  1  6  0  0  0
 24 26  2  0  0  0  0
 25 27  2  0  0  0  0
 25 24  1  0  0  0  0
 26 23  1  0  0  0  0
 26 22  1  0  0  0  0
 27 23  1  0  0  0  0
 28 29  3  0  0  0  0
 29 27  1  0  0  0  0
 30 31  1  0  0  0  0
 31 32  1  0  0  0  0
 32 33  1  0  0  0  0
 35 33  1  0  0  0  0
 35 34  1  0  0  0  0
 36 35  2  0  0  0  0
M  END
>  <MODEL>
5

>  <REMARK>
 VINA RESULT:      -6.6      2.846      4.245
  Name = 
  9 active torsions:
  status: ('A' for Active; 'I' for Inactive)
    1  A    between atoms: C_3  and  C_35
    2  A    between atoms: C_4  and  C_11
    3  A    between atoms: C_4  and  C_16
    4  A    between atoms: C_13  and  C_21
    5  A    between atoms: C_13  and  C_25
    6  A    between atoms: C_13  and  O_34
    7  A    between atoms: C_16  and  N_26
    8  A    between atoms: N_26  and  O_34
    9  A    between atoms: C_28  and  C_30
                            x       y       z     vdW  Elec       q    Type
                         _______ _______ _______ _____ _____    ______ ____

>  <TORSDO>
F 9

$$$$
=
 OpenBabel11042421033D

 36 39  0  0  1  0  0  0  0  0999 V2000
  161.2060  209.1220  152.8490 C   0  0  0  0  0  0  0  0  0  0  0  0
  161.5630  209.4460  151.5380 C   0  0  0  0  0  3  0  0  0  0  0  0
  161.9630  208.7730  149.1600 C   0  0  0  0  0  0  0  0  0  0  0  0
  161.6750  206.4930  148.4390 C   0  0  0  0  0  0  0  0  0  0  0  0
  161.0820  203.6050  148.5110 O   0  0  0  0  0  0  0  0  0  0  0  0
  161.6010  206.5990  155.2010 C   0  0  0  0  0  1  0  0  0  0  0  0
  160.1220  208.5960  155.4550 C   0  0  0  0  0  2  0  0  0  0  0  0
  161.2050  207.1450  150.8550 C   0  0  0  0  0  0  0  0  0  0  0  0
  160.8320  206.8230  152.1620 C   0  0  0  0  0  3  0  0  0  0  0  0
  161.1720  209.6960  155.2980 C   0  0  1  0  0  3  0  0  0  0  0  0
  161.7650  205.5410  147.3700 N   0  0  0  0  0  2  0  0  0  0  0  0
  162.3020  209.9720  148.8210 N   0  0  0  0  0  2  0  0  0  0  0  0
  161.1220  210.2260  153.8640 C   0  0  0  0  0  2  0  0  0  0  0  0
  160.4680  207.3940  154.5740 C   0  0  1  0  0  3  0  0  0  0  0  0
  160.8260  207.7990  153.1660 C   0  0  0  0  0  0  0  0  0  0  0  0
  162.0040  207.7260  148.1870 N   0  0  0  0  0  0  0  0  0  0  0  0
  161.5730  208.4620  150.5420 C   0  0  0  0  0  0  0  0  0  0  0  0
  161.4600  204.1420  147.4370 C   0  0  0  0  0  0  0  0  0  0  0  0
  161.1840  206.0670  149.8080 C   0  0  0  0  0  2  0  0  0  0  0  0
  162.3160  204.1040  145.1330 C   0  0  0  0  0  1  0  0  0  0  0  0
  161.6280  203.3030  146.2210 C   0  0  0  0  0  2  0  0  0  0  0  0
  160.9300  210.8260  156.3020 C   0  0  2  0  0  3  0  0  0  0  0  0
  158.2020  211.5190  156.2560 S   0  0  0  0  0  0  0  0  0  0  0  0
  159.9540  212.8620  155.0650 C   0  0  0  0  0  3  0  0  0  0  0  0
  158.7800  213.5020  154.8150 N   0  0  0  0  0  0  0  0  0  0  0  0
  159.8210  211.7250  155.8560 C   0  0  0  0  0  0  0  0  0  0  0  0
  157.7320  212.8850  155.4000 C   0  0  0  0  0  0  0  0  0  0  0  0
  155.2900  213.7330  155.2080 N   0  0  0  0  0  0  0  0  0  0  0  0
  156.3800  213.3540  155.2940 C   0  0  0  0  0  0  0  0  0  0  0  0
  162.0940  211.5820  156.4760 O   0  0  0  0  0  0  0  0  0  0  0  0
  163.1060  210.7260  156.1890 N   0  0  0  0  0  2  0  0  0  0  0  0
  164.0840  210.8470  157.2570 C   0  0  0  0  0  2  0  0  0  0  0  0
  164.6880  212.2390  157.2490 C   0  0  0  0  0  2  0  0  0  0  0  0
  167.0430  211.9000  157.2450 O   0  0  0  0  0  1  0  0  0  0  0  0
  166.0180  212.2090  156.5860 C   0  0  0  0  0  0  0  0  0  0  0  0
  166.1330  212.5510  155.2450 O   0  0  0  0  0  0  0  0  0  0  0  0
  1 15  1  0  0  0  0
  1 13  1  0  0  0  0
  2  1  2  0  0  0  0
  3 17  1  0  0  0  0
  4 19  1  0  0  0  0
  8  9  1  0  0  0  0
  9 15  2  0  0  0  0
 10  7  1  0  0  0  0
 10 22  1  1  0  0  0
 11 18  1  0  0  0  0
 11  4  1  0  0  0  0
 12  3  2  0  0  0  0
 13 10  1  0  0  0  0
 14  6  1  1  0  0  0
 14  7  1  0  0  0  0
 15 14  1  0  0  0  0
 16  4  2  0  0  0  0
 16  3  1  0  0  0  0
 17  8  2  0  0  0  0
 17  2  1  0  0  0  0
 18  5  2  0  0  0  0
 19  8  1  0  0  0  0
 20 21  1  0  0  0  0
 21 18  1  0  0  0  0
 22 30  1  6  0  0  0
 24 26  2  0  0  0  0
 25 24  1  0  0  0  0
 25 27  2  0  0  0  0
 26 23  1  0  0  0  0
 26 22  1  0  0  0  0
 27 23  1  0  0  0  0
 28 29  3  0  0  0  0
 29 27  1  0  0  0  0
 31 30  1  0  0  0  0
 31 32  1  0  0  0  0
 33 32  1  0  0  0  0
 35 34  1  0  0  0  0
 35 33  1  0  0  0  0
 36 35  2  0  0  0  0
M  END
>  <MODEL>
6

>  <REMARK>
 VINA RESULT:      -6.2      1.897      2.718
  Name = 
  9 active torsions:
  status: ('A' for Active; 'I' for Inactive)
    1  A    between atoms: C_3  and  C_35
    2  A    between atoms: C_4  and  C_11
    3  A    between atoms: C_4  and  C_16
    4  A    between atoms: C_13  and  C_21
    5  A    between atoms: C_13  and  C_25
    6  A    between atoms: C_13  and  O_34
    7  A    between atoms: C_16  and  N_26
    8  A    between atoms: N_26  and  O_34
    9  A    between atoms: C_28  and  C_30
                            x       y       z     vdW  Elec       q    Type
                         _______ _______ _______ _____ _____    ______ ____

>  <TORSDO>
F 9

$$$$
=
 OpenBabel11042421033D

 36 39  0  0  1  0  0  0  0  0999 V2000
  161.3250  206.0660  150.3980 C   0  0  0  0  0  0  0  0  0  0  0  0
  161.2230  205.8260  151.7700 C   0  0  0  0  0  3  0  0  0  0  0  0
  160.9420  206.6620  154.1140 C   0  0  0  0  0  0  0  0  0  0  0  0
  160.7000  209.0120  154.5830 C   0  0  0  0  0  0  0  0  0  0  0  0
  160.4810  211.9240  154.1720 O   0  0  0  0  0  0  0  0  0  0  0  0
  162.7020  208.3340  148.1580 C   0  0  0  0  0  1  0  0  0  0  0  0
  161.1610  206.4610  147.5590 C   0  0  0  0  0  2  0  0  0  0  0  0
  160.9280  208.1990  152.1810 C   0  0  0  0  0  0  0  0  0  0  0  0
  161.0140  208.4400  150.8070 C   0  0  0  0  0  3  0  0  0  0  0  0
  161.9840  205.2900  148.0980 C   0  0  1  0  0  3  0  0  0  0  0  0
  160.5610  210.0410  155.5730 N   0  0  0  0  0  2  0  0  0  0  0  0
  161.0260  205.4710  154.6060 N   0  0  0  0  0  2  0  0  0  0  0  0
  161.4370  204.8910  149.4690 C   0  0  0  0  0  2  0  0  0  0  0  0
  161.3500  207.6980  148.4380 C   0  0  1  0  0  3  0  0  0  0  0  0
  161.2090  207.3860  149.9070 C   0  0  0  0  0  0  0  0  0  0  0  0
  160.7970  207.7810  154.9910 N   0  0  0  0  0  0  0  0  0  0  0  0
  161.0340  206.8870  152.6640 C   0  0  0  0  0  0  0  0  0  0  0  0
  160.4480  211.4500  155.3380 C   0  0  0  0  0  0  0  0  0  0  0  0
  160.7050  209.3610  153.1080 C   0  0  0  0  0  2  0  0  0  0  0  0
  159.0080  213.1200  156.4240 C   0  0  0  0  0  1  0  0  0  0  0  0
  160.3250  212.3720  156.4980 C   0  0  0  0  0  2  0  0  0  0  0  0
  161.9400  204.1040  147.1310 C   0  0  2  0  0  3  0  0  0  0  0  0
  162.6420  205.4480  144.7600 S   0  0  0  0  0  0  0  0  0  0  0  0
  160.4460  204.2690  145.0410 C   0  0  0  0  0  3  0  0  0  0  0  0
  160.4170  204.7860  143.7830 N   0  0  0  0  0  0  0  0  0  0  0  0
  161.6180  204.5440  145.7390 C   0  0  0  0  0  0  0  0  0  0  0  0
  161.5490  205.4580  143.4860 C   0  0  0  0  0  0  0  0  0  0  0  0
  161.9590  206.6200  141.2040 N   0  0  0  0  0  0  0  0  0  0  0  0
  161.7760  206.1010  142.2230 C   0  0  0  0  0  0  0  0  0  0  0  0
  160.9890  203.1680  147.5500 O   0  0  0  0  0  0  0  0  0  0  0  0
  161.3340  202.0200  146.9160 N   0  0  0  0  0  2  0  0  0  0  0  0
  160.8140  200.9200  147.7100 C   0  0  0  0  0  2  0  0  0  0  0  0
  161.5640  200.8340  149.0270 C   0  0  0  0  0  2  0  0  0  0  0  0
  161.1840  202.0120  151.0600 O   0  0  0  0  0  1  0  0  0  0  0  0
  160.6960  201.3120  150.1350 C   0  0  0  0  0  0  0  0  0  0  0  0
  159.3530  200.9600  150.1670 O   0  0  0  0  0  0  0  0  0  0  0  0
  1  2  1  0  0  0  0
  2 17  2  0  0  0  0
  3 12  2  0  0  0  0
  3 16  1  0  0  0  0
  4 16  2  0  0  0  0
  4 11  1  0  0  0  0
  5 18  2  0  0  0  0
  7 10  1  0  0  0  0
  7 14  1  0  0  0  0
  8 17  1  0  0  0  0
  8 19  1  0  0  0  0
  9  8  2  0  0  0  0
 10 22  1  6  0  0  0
 10 13  1  0  0  0  0
 13  1  1  0  0  0  0
 14  6  1  1  0  0  0
 14 15  1  0  0  0  0
 15  1  2  0  0  0  0
 15  9  1  0  0  0  0
 17  3  1  0  0  0  0
 18 11  1  0  0  0  0
 18 21  1  0  0  0  0
 19  4  1  0  0  0  0
 20 21  1  0  0  0  0
 22 30  1  1  0  0  0
 23 26  1  0  0  0  0
 24 26  2  0  0  0  0
 25 24  1  0  0  0  0
 26 22  1  0  0  0  0
 27 25  2  0  0  0  0
 27 23  1  0  0  0  0
 28 29  3  0  0  0  0
 29 27  1  0  0  0  0
 31 30  1  0  0  0  0
 31 32  1  0  0  0  0
 32 33  1  0  0  0  0
 33 35  1  0  0  0  0
 35 36  2  0  0  0  0
 35 34  1  0  0  0  0
M  END
>  <MODEL>
7

>  <REMARK>
 VINA RESULT:      -5.7      3.616     10.802
  Name = 
  9 active torsions:
  status: ('A' for Active; 'I' for Inactive)
    1  A    between atoms: C_3  and  C_35
    2  A    between atoms: C_4  and  C_11
    3  A    between atoms: C_4  and  C_16
    4  A    between atoms: C_13  and  C_21
    5  A    between atoms: C_13  and  C_25
    6  A    between atoms: C_13  and  O_34
    7  A    between atoms: C_16  and  N_26
    8  A    between atoms: N_26  and  O_34
    9  A    between atoms: C_28  and  C_30
                            x       y       z     vdW  Elec       q    Type
                         _______ _______ _______ _____ _____    ______ ____

>  <TORSDO>
F 9

$$$$
=
 OpenBabel11042421033D

 36 39  0  0  1  0  0  0  0  0999 V2000
  161.4230  206.7600  150.2680 C   0  0  0  0  0  0  0  0  0  0  0  0
  161.4880  208.1540  150.2150 C   0  0  0  0  0  3  0  0  0  0  0  0
  161.3940  210.3840  151.3510 C   0  0  0  0  0  0  0  0  0  0  0  0
  161.0180  210.5650  153.7230 C   0  0  0  0  0  0  0  0  0  0  0  0
  160.5390  209.8020  156.5320 O   0  0  0  0  0  0  0  0  0  0  0  0
  159.6840  204.2050  151.8490 C   0  0  0  0  0  1  0  0  0  0  0  0
  161.6760  203.9030  150.3710 C   0  0  0  0  0  2  0  0  0  0  0  0
  161.1600  208.2760  152.6160 C   0  0  0  0  0  0  0  0  0  0  0  0
  161.1100  206.8810  152.6730 C   0  0  0  0  0  3  0  0  0  0  0  0
  161.1330  204.5520  149.0980 C   0  0  1  0  0  3  0  0  0  0  0  0
  160.8310  211.4230  154.8570 N   0  0  0  0  0  2  0  0  0  0  0  0
  161.5740  211.0180  150.2400 N   0  0  0  0  0  2  0  0  0  0  0  0
  161.6670  205.9820  149.0060 C   0  0  0  0  0  2  0  0  0  0  0  0
  161.1290  204.6130  151.6110 C   0  0  1  0  0  3  0  0  0  0  0  0
  161.2420  206.1130  151.5100 C   0  0  0  0  0  0  0  0  0  0  0  0
  161.2000  211.1200  152.5610 N   0  0  0  0  0  0  0  0  0  0  0  0
  161.3480  208.9160  151.3820 C   0  0  0  0  0  0  0  0  0  0  0  0
  160.6090  211.0190  156.2140 C   0  0  0  0  0  0  0  0  0  0  0  0
  161.0270  209.0590  153.8920 C   0  0  0  0  0  2  0  0  0  0  0  0
  160.3480  213.4290  156.6180 C   0  0  0  0  0  1  0  0  0  0  0  0
  160.4220  212.0580  157.2610 C   0  0  0  0  0  2  0  0  0  0  0  0
  161.5330  203.7430  147.8610 C   0  0  2  0  0  3  0  0  0  0  0  0
  162.1450  204.2360  145.1580 S   0  0  0  0  0  0  0  0  0  0  0  0
  160.4910  205.6200  146.4400 C   0  0  0  0  0  3  0  0  0  0  0  0
  160.5120  206.1540  145.1890 N   0  0  0  0  0  0  0  0  0  0  0  0
  161.3480  204.5360  146.6070 C   0  0  0  0  0  0  0  0  0  0  0  0
  161.3700  205.5040  144.3750 C   0  0  0  0  0  0  0  0  0  0  0  0
  161.7550  206.1570  141.8960 N   0  0  0  0  0  0  0  0  0  0  0  0
  161.5830  205.8650  143.0030 C   0  0  0  0  0  0  0  0  0  0  0  0
  160.7780  202.5680  147.7800 O   0  0  0  0  0  0  0  0  0  0  0  0
  161.6230  201.5890  148.1860 N   0  0  0  0  0  2  0  0  0  0  0  0
  161.0140  200.3210  147.8210 C   0  0  0  0  0  2  0  0  0  0  0  0
  161.9420  199.5480  146.9020 C   0  0  0  0  0  2  0  0  0  0  0  0
  161.3270  197.9600  145.2390 O   0  0  0  0  0  1  0  0  0  0  0  0
  161.2090  199.1330  145.6760 C   0  0  0  0  0  0  0  0  0  0  0  0
  160.4190  200.0510  144.9960 O   0  0  0  0  0  0  0  0  0  0  0  0
  1 15  1  0  0  0  0
  2  1  2  0  0  0  0
  2 17  1  0  0  0  0
  3 17  1  0  0  0  0
  3 16  1  0  0  0  0
  4 19  1  0  0  0  0
  4 11  1  0  0  0  0
  7 14  1  0  0  0  0
  8  9  1  0  0  0  0
  8 19  1  0  0  0  0
 10 22  1  6  0  0  0
 10  7  1  0  0  0  0
 11 18  1  0  0  0  0
 12  3  2  0  0  0  0
 13 10  1  0  0  0  0
 13  1  1  0  0  0  0
 14  6  1  6  0  0  0
 15 14  1  0  0  0  0
 15  9  2  0  0  0  0
 16  4  2  0  0  0  0
 17  8  2  0  0  0  0
 18  5  2  0  0  0  0
 18 21  1  0  0  0  0
 20 21  1  0  0  0  0
 22 30  1  6  0  0  0
 23 26  1  0  0  0  0
 24 26  2  0  0  0  0
 25 24  1  0  0  0  0
 26 22  1  0  0  0  0
 27 23  1  0  0  0  0
 27 25  2  0  0  0  0
 28 29  3  0  0  0  0
 29 27  1  0  0  0  0
 30 31  1  0  0  0  0
 32 31  1  0  0  0  0
 33 32  1  0  0  0  0
 34 35  1  0  0  0  0
 35 33  1  0  0  0  0
 36 35  2  0  0  0  0
M  END
>  <MODEL>
8

>  <REMARK>
 VINA RESULT:      -5.6      3.693     11.452
  Name = 
  9 active torsions:
  status: ('A' for Active; 'I' for Inactive)
    1  A    between atoms: C_3  and  C_35
    2  A    between atoms: C_4  and  C_11
    3  A    between atoms: C_4  and  C_16
    4  A    between atoms: C_13  and  C_21
    5  A    between atoms: C_13  and  C_25
    6  A    between atoms: C_13  and  O_34
    7  A    between atoms: C_16  and  N_26
    8  A    between atoms: N_26  and  O_34
    9  A    between atoms: C_28  and  C_30
                            x       y       z     vdW  Elec       q    Type
                         _______ _______ _______ _____ _____    ______ ____

>  <TORSDO>
F 9

$$$$
=
 OpenBabel11042421033D

 36 39  0  0  1  0  0  0  0  0999 V2000
  161.6020  207.3490  150.3580 C   0  0  0  0  0  0  0  0  0  0  0  0
  161.5970  208.7450  150.3720 C   0  0  0  0  0  3  0  0  0  0  0  0
  161.1800  210.9110  151.5580 C   0  0  0  0  0  0  0  0  0  0  0  0
  160.3800  210.9600  153.8290 C   0  0  0  0  0  0  0  0  0  0  0  0
  159.4560  210.0410  156.4750 O   0  0  0  0  0  0  0  0  0  0  0  0
  159.7560  204.6400  151.5020 C   0  0  0  0  0  1  0  0  0  0  0  0
  161.9910  204.5050  150.3950 C   0  0  0  0  0  2  0  0  0  0  0  0
  160.8430  208.7360  152.6780 C   0  0  0  0  0  0  0  0  0  0  0  0
  160.8620  207.3390  152.6710 C   0  0  0  0  0  3  0  0  0  0  0  0
  161.6460  205.1880  149.0710 C   0  0  1  0  0  3  0  0  0  0  0  0
  159.9480  211.7530  154.9440 N   0  0  0  0  0  2  0  0  0  0  0  0
  161.5170  211.6050  150.5220 N   0  0  0  0  0  2  0  0  0  0  0  0
  162.1080  206.6440  149.1320 C   0  0  0  0  0  2  0  0  0  0  0  0
  161.1950  205.1280  151.5430 C   0  0  1  0  0  3  0  0  0  0  0  0
  161.2400  206.6350  151.5230 C   0  0  0  0  0  0  0  0  0  0  0  0
  160.7340  211.5780  152.7400 N   0  0  0  0  0  0  0  0  0  0  0  0
  161.2110  209.4420  151.5240 C   0  0  0  0  0  0  0  0  0  0  0  0
  159.5130  211.2740  156.2220 C   0  0  0  0  0  0  0  0  0  0  0  0
  160.4430  209.4500  153.9390 C   0  0  0  0  0  2  0  0  0  0  0  0
  157.6470  212.6640  157.0150 C   0  0  0  0  0  1  0  0  0  0  0  0
  159.0860  212.2520  157.2580 C   0  0  0  0  0  2  0  0  0  0  0  0
  162.3040  204.4600  147.8960 C   0  0  2  0  0  3  0  0  0  0  0  0
  162.6800  204.8530  145.1340 S   0  0  0  0  0  0  0  0  0  0  0  0
  160.6740  205.7300  146.3600 C   0  0  0  0  0  3  0  0  0  0  0  0
  160.4990  206.1120  145.0660 N   0  0  0  0  0  0  0  0  0  0  0  0
  161.8470  205.0150  146.5850 C   0  0  0  0  0  0  0  0  0  0  0  0
  161.5150  205.7050  144.2760 C   0  0  0  0  0  0  0  0  0  0  0  0
  161.6270  206.1950  141.7320 N   0  0  0  0  0  0  0  0  0  0  0  0
  161.5770  205.9770  142.8680 C   0  0  0  0  0  0  0  0  0  0  0  0
  162.0130  203.0920  147.9440 O   0  0  0  0  0  0  0  0  0  0  0  0
  160.9460  202.9390  147.1210 N   0  0  0  0  0  2  0  0  0  0  0  0
  160.7110  201.5110  146.9890 C   0  0  0  0  0  2  0  0  0  0  0  0
  161.2100  200.7880  148.2260 C   0  0  0  0  0  2  0  0  0  0  0  0
  159.1470  201.3270  149.2830 O   0  0  0  0  0  0  0  0  0  0  0  0
  160.3900  201.1770  149.4040 C   0  0  0  0  0  0  0  0  0  0  0  0
  161.0010  201.4070  150.6300 O   0  0  0  0  0  1  0  0  0  0  0  0
  1  2  2  0  0  0  0
  1 15  1  0  0  0  0
  2 17  1  0  0  0  0
  3 16  1  0  0  0  0
  4 19  1  0  0  0  0
  4 11  1  0  0  0  0
  7 14  1  0  0  0  0
  8 19  1  0  0  0  0
  9  8  1  0  0  0  0
 10 22  1  6  0  0  0
 10 13  1  0  0  0  0
 10  7  1  0  0  0  0
 11 18  1  0  0  0  0
 12  3  2  0  0  0  0
 13  1  1  0  0  0  0
 14  6  1  6  0  0  0
 15 14  1  0  0  0  0
 15  9  2  0  0  0  0
 16  4  2  0  0  0  0
 17  3  1  0  0  0  0
 17  8  2  0  0  0  0
 18  5  2  0  0  0  0
 18 21  1  0  0  0  0
 20 21  1  0  0  0  0
 22 30  1  6  0  0  0
 23 26  1  0  0  0  0
 24 26  2  0  0  0  0
 25 24  1  0  0  0  0
 26 22  1  0  0  0  0
 27 25  2  0  0  0  0
 27 23  1  0  0  0  0
 28 29  3  0  0  0  0
 29 27  1  0  0  0  0
 31 30  1  0  0  0  0
 32 31  1  0  0  0  0
 32 33  1  0  0  0  0
 33 35  1  0  0  0  0
 34 35  2  0  0  0  0
 35 36  1  0  0  0  0
M  END
>  <MODEL>
9

>  <REMARK>
 VINA RESULT:      -4.8      3.841     10.934
  Name = 
  9 active torsions:
  status: ('A' for Active; 'I' for Inactive)
    1  A    between atoms: C_3  and  C_35
    2  A    between atoms: C_4  and  C_11
    3  A    between atoms: C_4  and  C_16
    4  A    between atoms: C_13  and  C_21
    5  A    between atoms: C_13  and  C_25
    6  A    between atoms: C_13  and  O_34
    7  A    between atoms: C_16  and  N_26
    8  A    between atoms: N_26  and  O_34
    9  A    between atoms: C_28  and  C_30
                            x       y       z     vdW  Elec       q    Type
                         _______ _______ _______ _____ _____    ______ ____

>  <TORSDO>
F 9

$$$$
